CSD_code = OFEXIH | q = 0 | S = 0 | Stoichiometry = C20H30BrClOPRh | MND = 6
 OpenBabel04212202073D

 55 54  0  0  1  0  0  0  0  0999 V2000
    3.5994    7.5162    2.5952 Rh  0  0  0  0  0  0  0  0  0  0  0  0
    5.2548    2.5537    3.2997 Br  0  0  0  0  0  0  0  0  0  0  0  0
    3.3387    8.8792    4.3753 Cl  0  0  0  0  0 15  0  0  0  0  0  0
    2.8877    5.9347    4.0407 P   0  0  0  0  0  0  0  0  0  0  0  0
    2.9104    4.4430    3.3366 O   0  0  0  0  0  0  0  0  0  0  0  0
    3.3162    6.4303    0.7802 C   0  0  0  0  0  3  0  0  0  0  0  0
    4.5991    6.2029    1.2718 C   0  0  1  0  0  0  0  0  0  0  0  0
    5.8600    6.8455    0.7442 C   0  0  0  0  0  0  0  0  0  0  0  0
    5.7291    8.3647    0.5266 C   0  0  0  0  0  0  0  0  0  0  0  0
    4.7731    8.9979    1.5116 C   0  0  0  0  0  3  0  0  0  0  0  0
    3.4322    9.2015    1.2557 C   0  0  0  0  0  3  0  0  0  0  0  0
    2.7108    8.7671    0.0013 C   0  0  0  0  0  0  0  0  0  0  0  0
    3.0224    7.3160   -0.4126 C   0  0  0  0  0  0  0  0  0  0  0  0
    5.3914    5.9105    5.1689 C   0  0  0  0  0  0  0  0  0  0  0  0
    3.9273    5.7790    5.5774 C   0  0  0  0  0  0  0  0  0  0  0  0
    3.6615    4.5208    6.3935 C   0  0  0  0  0  0  0  0  0  0  0  0
    0.3085    6.5088    3.4791 C   0  0  0  0  0  0  0  0  0  0  0  0
    1.1393    6.0751    4.6855 C   0  0  0  0  0  0  0  0  0  0  0  0
    0.9649    7.0507    5.8407 C   0  0  0  0  0  0  0  0  0  0  0  0
    2.4913    3.1817    3.6227 C   0  0  0  0  0  0  0  0  0  0  0  0
    1.1515    2.8323    3.7634 C   0  0  0  0  0  0  0  0  0  0  0  0
    0.7810    1.5192    3.9956 C   0  0  0  0  0  0  0  0  0  0  0  0
    1.7350    0.5199    4.0688 C   0  0  0  0  0  0  0  0  0  0  0  0
    3.0675    0.8346    3.8713 C   0  0  0  0  0  0  0  0  0  0  0  0
    3.4321    2.1482    3.6428 C   0  0  0  0  0  0  0  0  0  0  0  0
    2.5780    5.6483    0.9500 H   0  0  0  0  0  0  0  0  0  0  0  0
    4.7858    5.2542    1.7712 H   0  0  0  0  0  0  0  0  0  0  0  0
    6.6574    6.6579    1.4682 H   0  0  0  0  0  0  0  0  0  0  0  0
    6.1519    6.3543   -0.1906 H   0  0  0  0  0  0  0  0  0  0  0  0
    5.3913    8.5800   -0.4880 H   0  0  0  0  0  0  0  0  0  0  0  0
    6.7136    8.8223    0.6433 H   0  0  0  0  0  0  0  0  0  0  0  0
    5.2415    9.6175    2.2762 H   0  0  0  0  0  0  0  0  0  0  0  0
    2.9213    9.9908    1.8081 H   0  0  0  0  0  0  0  0  0  0  0  0
    1.6363    8.8612    0.1808 H   0  0  0  0  0  0  0  0  0  0  0  0
    2.9633    9.4545   -0.8138 H   0  0  0  0  0  0  0  0  0  0  0  0
    3.8712    7.2864   -1.0969 H   0  0  0  0  0  0  0  0  0  0  0  0
    2.1617    6.9147   -0.9520 H   0  0  0  0  0  0  0  0  0  0  0  0
    5.5191    6.8090    4.5570 H   0  0  0  0  0  0  0  0  0  0  0  0
    5.7172    5.0496    4.5897 H   0  0  0  0  0  0  0  0  0  0  0  0
    6.0287    5.9963    6.0470 H   0  0  0  0  0  0  0  0  0  0  0  0
    3.6594    6.6644    6.1613 H   0  0  0  0  0  0  0  0  0  0  0  0
    2.5984    4.3848    6.5876 H   0  0  0  0  0  0  0  0  0  0  0  0
    4.1758    4.5863    7.3512 H   0  0  0  0  0  0  0  0  0  0  0  0
    4.0341    3.6374    5.8801 H   0  0  0  0  0  0  0  0  0  0  0  0
    0.4169    5.8034    2.6541 H   0  0  0  0  0  0  0  0  0  0  0  0
    0.6624    7.4853    3.1383 H   0  0  0  0  0  0  0  0  0  0  0  0
   -0.7476    6.5896    3.7328 H   0  0  0  0  0  0  0  0  0  0  0  0
    0.8288    5.0792    5.0248 H   0  0  0  0  0  0  0  0  0  0  0  0
    1.4408    6.6842    6.7471 H   0  0  0  0  0  0  0  0  0  0  0  0
   -0.0972    7.1801    6.0463 H   0  0  0  0  0  0  0  0  0  0  0  0
    1.3893    8.0191    5.5904 H   0  0  0  0  0  0  0  0  0  0  0  0
    0.3943    3.5921    3.6627 H   0  0  0  0  0  0  0  0  0  0  0  0
   -0.2648    1.2790    4.1101 H   0  0  0  0  0  0  0  0  0  0  0  0
    1.4469   -0.5024    4.2556 H   0  0  0  0  0  0  0  0  0  0  0  0
    3.8258    0.0671    3.8871 H   0  0  0  0  0  0  0  0  0  0  0  0
  2 25  1  0  0  0  0
  4 18  1  0  0  0  0
  4 15  1  0  0  0  0
  5 20  1  0  0  0  0
  5  4  1  0  0  0  0
  6 26  1  0  0  0  0
  6  7  1  0  0  0  0
  7 27  1  1  0  0  0
  7  1  1  0  0  0  0
  8  7  1  0  0  0  0
  8 28  1  0  0  0  0
  9 31  1  0  0  0  0
  9  8  1  0  0  0  0
  9 10  1  0  0  0  0
 10 32  1  0  0  0  0
 11 10  1  0  0  0  0
 11 33  1  0  0  0  0
 12 34  1  0  0  0  0
 12 11  1  0  0  0  0
 13 12  1  0  0  0  0
 13  6  1  0  0  0  0
 14 15  1  0  0  0  0
 14 40  1  0  0  0  0
 15 41  1  0  0  0  0
 15 16  1  0  0  0  0
 16 42  1  0  0  0  0
 16 43  1  0  0  0  0
 17 47  1  0  0  0  0
 17 18  1  0  0  0  0
 18 48  1  0  0  0  0
 18 19  1  0  0  0  0
 19 50  1  0  0  0  0
 19 49  1  0  0  0  0
 20 25  2  0  0  0  0
 20 21  1  0  0  0  0
 21 22  2  0  0  0  0
 22 23  1  0  0  0  0
 22 53  1  0  0  0  0
 23 54  1  0  0  0  0
 24 55  1  0  0  0  0
 24 23  2  0  0  0  0
 25 24  1  0  0  0  0
 29  8  1  0  0  0  0
 30  9  1  0  0  0  0
 35 12  1  0  0  0  0
 36 13  1  0  0  0  0
 37 13  1  0  0  0  0
 38 14  1  0  0  0  0
 39 14  1  0  0  0  0
 44 16  1  0  0  0  0
 45 17  1  0  0  0  0
 46 17  1  0  0  0  0
 51 19  1  0  0  0  0
 52 21  1  0  0  0  0
M  END
$$$$
