CSD_code = OFEYOO | q = 0 | S = 0 | Stoichiometry = C20H28BrClF2OPRh | MND = 6
 OpenBabel04212202073D

 55 54  0  0  1  0  0  0  0  0999 V2000
    1.0468    4.0662    9.6087 Rh  0  0  0  0  0  0  0  0  0  0  0  0
    2.9291    3.4525    4.9280 Br  0  0  0  0  0  0  0  0  0  0  0  0
    0.7584    2.2790   10.9578 Cl  0  0  0  0  0 15  0  0  0  0  0  0
    0.3477    2.6022    8.0384 P   0  0  0  0  0  0  0  0  0  0  0  0
   -2.2148    2.9560    5.4656 F   0  0  0  0  0  0  0  0  0  0  0  0
   -0.4334    2.2380    1.1990 F   0  0  0  0  0  0  0  0  0  0  0  0
    0.3767    3.3123    6.5249 O   0  0  0  0  0  0  0  0  0  0  0  0
    0.1432    3.0075    5.2326 C   0  0  0  0  0  0  0  0  0  0  0  0
    1.9379    5.5408    8.3484 C   0  0  0  0  0  3  0  0  0  0  0  0
    1.2018    3.0120    4.3128 C   0  0  0  0  0  0  0  0  0  0  0  0
   -0.2490    2.5060    2.4995 C   0  0  0  0  0  0  0  0  0  0  0  0
   -1.1310    2.8310    4.6810 C   0  0  0  0  0  0  0  0  0  0  0  0
   -1.3892    1.9291    8.1618 C   0  0  0  0  0  0  0  0  0  0  0  0
   -1.3436    2.5647    3.3414 C   0  0  0  0  0  0  0  0  0  0  0  0
    1.4112    1.0785    7.9054 C   0  0  0  0  0  0  0  0  0  0  0  0
    1.1122    5.4694   11.2710 C   0  0  0  0  0  3  0  0  0  0  0  0
    1.0285    2.7529    2.9655 C   0  0  0  0  0  0  0  0  0  0  0  0
   -2.2371    3.1133    8.6221 C   0  0  0  0  0  0  0  0  0  0  0  0
    0.5892    5.8314    8.5324 C   0  0  2  0  0  0  0  0  0  0  0  0
    1.2029    0.2712    6.6298 C   0  0  0  0  0  0  0  0  0  0  0  0
   -1.5529    0.7452    9.1058 C   0  0  0  0  0  0  0  0  0  0  0  0
    2.8696    1.4683    8.1233 C   0  0  0  0  0  0  0  0  0  0  0  0
    2.3758    4.9540   11.0634 C   0  0  0  0  0  3  0  0  0  0  0  0
    3.0592    6.3086    9.0146 C   0  0  0  0  0  0  0  0  0  0  0  0
    0.0472    6.8903    9.4646 C   0  0  0  0  0  0  0  0  0  0  0  0
    0.6958    6.8642   10.8617 C   0  0  0  0  0  0  0  0  0  0  0  0
    3.4982    5.6612   10.3416 C   0  0  0  0  0  0  0  0  0  0  0  0
    2.2215    5.0605    7.4149 H   0  0  0  0  0  0  0  0  0  0  0  0
   -1.7041    1.6130    7.1630 H   0  0  0  0  0  0  0  0  0  0  0  0
   -2.3454    2.4255    2.9700 H   0  0  0  0  0  0  0  0  0  0  0  0
    1.0946    0.4878    8.7701 H   0  0  0  0  0  0  0  0  0  0  0  0
    0.5055    5.0178   12.0564 H   0  0  0  0  0  0  0  0  0  0  0  0
    1.8679    2.7532    2.2889 H   0  0  0  0  0  0  0  0  0  0  0  0
   -2.1666    3.9370    7.9129 H   0  0  0  0  0  0  0  0  0  0  0  0
   -1.8770    3.4578    9.5951 H   0  0  0  0  0  0  0  0  0  0  0  0
   -3.2840    2.8312    8.7149 H   0  0  0  0  0  0  0  0  0  0  0  0
   -0.0897    5.5983    7.7129 H   0  0  0  0  0  0  0  0  0  0  0  0
    0.1444    0.1246    6.4166 H   0  0  0  0  0  0  0  0  0  0  0  0
    1.6655   -0.7091    6.7334 H   0  0  0  0  0  0  0  0  0  0  0  0
    1.6638    0.7623    5.7754 H   0  0  0  0  0  0  0  0  0  0  0  0
   -1.0736   -0.1496    8.7152 H   0  0  0  0  0  0  0  0  0  0  0  0
   -2.6144    0.5314    9.2247 H   0  0  0  0  0  0  0  0  0  0  0  0
   -1.1359    0.9704   10.0832 H   0  0  0  0  0  0  0  0  0  0  0  0
    2.9498    2.0893    9.0206 H   0  0  0  0  0  0  0  0  0  0  0  0
    3.2640    2.0303    7.2812 H   0  0  0  0  0  0  0  0  0  0  0  0
    3.4836    0.5805    8.2619 H   0  0  0  0  0  0  0  0  0  0  0  0
    2.7112    4.1490   11.7179 H   0  0  0  0  0  0  0  0  0  0  0  0
    3.9168    6.3374    8.3398 H   0  0  0  0  0  0  0  0  0  0  0  0
    2.7413    7.3394    9.1764 H   0  0  0  0  0  0  0  0  0  0  0  0
    0.1771    7.8779    9.0080 H   0  0  0  0  0  0  0  0  0  0  0  0
   -1.0282    6.7234    9.5714 H   0  0  0  0  0  0  0  0  0  0  0  0
   -0.0230    7.2470   11.5891 H   0  0  0  0  0  0  0  0  0  0  0  0
    1.5667    7.5199   10.8926 H   0  0  0  0  0  0  0  0  0  0  0  0
    3.9306    6.4175   11.0060 H   0  0  0  0  0  0  0  0  0  0  0  0
    4.2813    4.9274   10.1343 H   0  0  0  0  0  0  0  0  0  0  0  0
  4 13  1  0  0  0  0
  6 11  1  0  0  0  0
  7  4  1  0  0  0  0
  8  7  1  0  0  0  0
  9 19  1  0  0  0  0
  9 24  1  0  0  0  0
 10  2  1  0  0  0  0
 10  8  2  0  0  0  0
 11 17  2  0  0  0  0
 11 14  1  0  0  0  0
 12  8  1  0  0  0  0
 12  5  1  0  0  0  0
 13 18  1  0  0  0  0
 13 21  1  0  0  0  0
 14 12  2  0  0  0  0
 15  4  1  0  0  0  0
 15 22  1  0  0  0  0
 15 31  1  0  0  0  0
 16 32  1  0  0  0  0
 17 10  1  0  0  0  0
 18 36  1  0  0  0  0
 18 35  1  0  0  0  0
 19 37  1  6  0  0  0
 19 25  1  0  0  0  0
 19  1  1  0  0  0  0
 20 39  1  0  0  0  0
 20 15  1  0  0  0  0
 21 42  1  0  0  0  0
 21 43  1  0  0  0  0
 22 46  1  0  0  0  0
 22 44  1  0  0  0  0
 23 16  1  0  0  0  0
 23 47  1  0  0  0  0
 24 49  1  0  0  0  0
 24 27  1  0  0  0  0
 25 51  1  0  0  0  0
 25 26  1  0  0  0  0
 26 53  1  0  0  0  0
 26 16  1  0  0  0  0
 26 52  1  0  0  0  0
 27 54  1  0  0  0  0
 27 23  1  0  0  0  0
 28  9  1  0  0  0  0
 29 13  1  0  0  0  0
 30 14  1  0  0  0  0
 33 17  1  0  0  0  0
 34 18  1  0  0  0  0
 38 20  1  0  0  0  0
 40 20  1  0  0  0  0
 41 21  1  0  0  0  0
 45 22  1  0  0  0  0
 48 24  1  0  0  0  0
 50 25  1  0  0  0  0
 55 27  1  0  0  0  0
M  END
$$$$
