CSD_code = OFIJAO | q = 0 | S = 0 | Stoichiometry = C11H22F7IN2Pt | MND = 6
 OpenBabel04212202073D

 44 44  0  0  0  0  0  0  0  0999 V2000
    4.7032   11.6333   23.0983 Pt  0  0  0  0  0  0  0  0  0  0  0  0
    5.1727   13.0598   25.3967 I   0  0  0  0  0  0  0  0  0  0  0  0
    5.1870   13.1851   20.8064 F   0  0  0  0  0  0  0  0  0  0  0  0
    5.0760   14.4134   22.5410 F   0  0  0  0  0  0  0  0  0  0  0  0
    2.4749   14.4918   22.5708 F   0  0  0  0  0  0  0  0  0  0  0  0
    2.2370   12.8623   21.1684 F   0  0  0  0  0  0  0  0  0  0  0  0
    3.3434   14.1806   19.2008 F   0  0  0  0  0  0  0  0  0  0  0  0
    4.0955   15.7545   20.4596 F   0  0  0  0  0  0  0  0  0  0  0  0
    1.9792   15.4969   20.2087 F   0  0  0  0  0  0  0  0  0  0  0  0
    7.0349   11.5397   22.5686 N   0  0  0  0  0  4  0  0  0  0  0  0
    5.2364    9.6284   24.1547 N   0  0  0  0  0  4  0  0  0  0  0  0
    7.7280   12.8177   22.7696 C   0  0  0  0  0  0  0  0  0  0  0  0
    7.4249   11.0604   21.2407 C   0  0  0  0  0  0  0  0  0  0  0  0
    7.4837   10.5872   23.5958 C   0  0  0  0  0  0  0  0  0  0  0  0
    6.6003    9.3420   23.6681 C   0  0  0  0  0  0  0  0  0  0  0  0
    5.2618    9.6592   25.6233 C   0  0  0  0  0  0  0  0  0  0  0  0
    4.3565    8.5111   23.7888 C   0  0  0  0  0  0  0  0  0  0  0  0
    4.4713   13.3386   21.9738 C   0  0  0  0  0  0  0  0  0  0  0  0
    3.0707   13.8607   21.5419 C   0  0  0  0  0  0  0  0  0  0  0  0
    3.1347   14.8467   20.3379 C   0  0  0  0  0  0  0  0  0  0  0  0
    2.7249   11.5675   23.7290 C   0  0  0  0  0  0  0  0  0  0  0  0
    4.1611   10.5588   21.3845 C   0  0  0  0  0  0  0  0  0  0  0  0
    8.8152   12.6772   22.7293 H   0  0  0  0  0  0  0  0  0  0  0  0
    7.4729   13.2569   23.7307 H   0  0  0  0  0  0  0  0  0  0  0  0
    7.4438   13.5170   21.9861 H   0  0  0  0  0  0  0  0  0  0  0  0
    8.5185   11.0301   21.1528 H   0  0  0  0  0  0  0  0  0  0  0  0
    7.0342   11.7291   20.4777 H   0  0  0  0  0  0  0  0  0  0  0  0
    7.0459   10.0608   21.0444 H   0  0  0  0  0  0  0  0  0  0  0  0
    7.4805   11.0969   24.5626 H   0  0  0  0  0  0  0  0  0  0  0  0
    8.5188   10.2710   23.3930 H   0  0  0  0  0  0  0  0  0  0  0  0
    6.5287    8.8878   22.6770 H   0  0  0  0  0  0  0  0  0  0  0  0
    7.0819    8.6071   24.3286 H   0  0  0  0  0  0  0  0  0  0  0  0
    5.4876    8.6617   26.0181 H   0  0  0  0  0  0  0  0  0  0  0  0
    4.2961    9.9743   26.0134 H   0  0  0  0  0  0  0  0  0  0  0  0
    6.0134   10.3490   25.9943 H   0  0  0  0  0  0  0  0  0  0  0  0
    4.7174    7.5785   24.2393 H   0  0  0  0  0  0  0  0  0  0  0  0
    4.3140    8.3747   22.7121 H   0  0  0  0  0  0  0  0  0  0  0  0
    3.3490    8.7008   24.1539 H   0  0  0  0  0  0  0  0  0  0  0  0
    2.0469   11.1494   22.9892 H   0  0  0  0  0  0  0  0  0  0  0  0
    2.3828   12.5657   23.9965 H   0  0  0  0  0  0  0  0  0  0  0  0
    2.7098   10.9511   24.6290 H   0  0  0  0  0  0  0  0  0  0  0  0
    4.9338    9.8263   21.1628 H   0  0  0  0  0  0  0  0  0  0  0  0
    4.0569   11.1900   20.5058 H   0  0  0  0  0  0  0  0  0  0  0  0
    3.2170   10.0342   21.5144 H   0  0  0  0  0  0  0  0  0  0  0  0
  1 21  1  0  0  0  0
  1 11  1  0  0  0  0
  1  2  1  0  0  0  0
  3 18  1  0  0  0  0
  6 19  1  0  0  0  0
  7 20  1  0  0  0  0
  9 20  1  0  0  0  0
 10 12  1  0  0  0  0
 10  1  1  0  0  0  0
 10 14  1  0  0  0  0
 11 16  1  0  0  0  0
 12 24  1  0  0  0  0
 13 10  1  0  0  0  0
 14 15  1  0  0  0  0
 14 29  1  0  0  0  0
 15 11  1  0  0  0  0
 15 32  1  0  0  0  0
 16 35  1  0  0  0  0
 16 34  1  0  0  0  0
 16 33  1  0  0  0  0
 17 38  1  0  0  0  0
 17 11  1  0  0  0  0
 17 36  1  0  0  0  0
 18  4  1  0  0  0  0
 18  1  1  0  0  0  0
 19 18  1  0  0  0  0
 19  5  1  0  0  0  0
 20  8  1  0  0  0  0
 20 19  1  0  0  0  0
 21 40  1  0  0  0  0
 21 41  1  0  0  0  0
 22 44  1  0  0  0  0
 22  1  1  0  0  0  0
 23 12  1  0  0  0  0
 25 12  1  0  0  0  0
 26 13  1  0  0  0  0
 27 13  1  0  0  0  0
 28 13  1  0  0  0  0
 30 14  1  0  0  0  0
 31 15  1  0  0  0  0
 37 17  1  0  0  0  0
 39 21  1  0  0  0  0
 42 22  1  0  0  0  0
 43 22  1  0  0  0  0
M  END
$$$$
