CSD_code = OFITIJ | q = 0 | S = 0 | Stoichiometry = C26H32Cl2F3NRuS | MND = 5
 OpenBabel04212202073D

 66 69  0  0  1  0  0  0  0  0999 V2000
    0.1637    3.4270    0.7008 Ru  0  0  0  0  0  0  0  0  0  0  0  0
    0.6220    4.5856    2.8334 S   0  0  2  0  0  3  0  0  0  0  0  0
   -0.3161    2.1549   -1.1601 Cl  0  0  0  0  0  0  0  0  0  0  0  0
   -1.9405    4.1682    0.7069 Cl  0  0  0  0  0  0  0  0  0  0  0  0
   -1.7904    3.9318    3.7149 F   0  0  0  0  0  0  0  0  0  0  0  0
   -1.5789    6.0038    3.1134 F   0  0  0  0  0  0  0  0  0  0  0  0
   -0.7323    5.3190    4.9544 F   0  0  0  0  0  0  0  0  0  0  0  0
    3.0543    3.2075   -0.1849 N   0  0  0  0  0  0  0  0  0  0  0  0
    0.9605    3.0899    3.7632 C   0  0  0  0  0  0  0  0  0  0  0  0
    3.4057    2.1449    0.7075 C   0  0  0  0  0  0  0  0  0  0  0  0
    4.0482    3.9278    2.4240 C   0  0  0  0  0  0  0  0  0  0  0  0
    3.3143    4.1085    3.2138 H   0  0  0  0  0  0  0  0  0  0  0  0
    3.8104    4.6107    1.6098 H   0  0  0  0  0  0  0  0  0  0  0  0
    0.4770    1.8540    1.6953 C   0  0  0  0  0  3  0  0  0  0  0  0
    0.2607    0.8663    1.2801 H   0  0  0  0  0  0  0  0  0  0  0  0
    1.3435    3.1601    5.0866 C   0  0  0  0  0  0  0  0  0  0  0  0
    1.4471    4.1169    5.5754 H   0  0  0  0  0  0  0  0  0  0  0  0
    0.8220    1.8726    3.0720 C   0  0  0  0  0  0  0  0  0  0  0  0
    1.0604    0.6998    3.8121 C   0  0  0  0  0  0  0  0  0  0  0  0
    0.9512   -0.2527    3.3162 H   0  0  0  0  0  0  0  0  0  0  0  0
    1.9127    3.8307   -0.0872 C   0  0  1  0  0  3  0  0  0  0  0  0
    3.9002    2.4975    1.9729 C   0  0  0  0  0  0  0  0  0  0  0  0
    3.9968    3.7866   -1.1768 C   0  0  0  0  0  0  0  0  0  0  0  0
    1.4341    0.7605    5.1362 C   0  0  0  0  0  0  0  0  0  0  0  0
    1.6130   -0.1532    5.6832 H   0  0  0  0  0  0  0  0  0  0  0  0
    2.5559    0.3598   -0.9123 C   0  0  0  0  0  0  0  0  0  0  0  0
    2.2315    1.2172   -1.4952 H   0  0  0  0  0  0  0  0  0  0  0  0
    1.6516   -0.2002   -0.6659 H   0  0  0  0  0  0  0  0  0  0  0  0
    3.1908    0.8048    0.3739 C   0  0  0  0  0  0  0  0  0  0  0  0
    1.9450    5.1049   -0.9107 C   0  0  0  0  0  0  0  0  0  0  0  0
    1.5815    1.9836    5.7795 C   0  0  0  0  0  0  0  0  0  0  0  0
    1.8759    2.0238    6.8163 H   0  0  0  0  0  0  0  0  0  0  0  0
    4.2210    1.4891    2.8701 C   0  0  0  0  0  0  0  0  0  0  0  0
    4.5806    1.7505    3.8528 H   0  0  0  0  0  0  0  0  0  0  0  0
   -0.9771    4.9744    3.6827 C   0  0  0  0  0  0  0  0  0  0  0  0
    5.4389    4.2491    2.9748 C   0  0  0  0  0  0  0  0  0  0  0  0
    5.6185    3.7289    3.9109 H   0  0  0  0  0  0  0  0  0  0  0  0
    5.5248    5.3170    3.1627 H   0  0  0  0  0  0  0  0  0  0  0  0
    6.2161    3.9555    2.2732 H   0  0  0  0  0  0  0  0  0  0  0  0
    3.5348   -0.1719    1.3030 C   0  0  0  0  0  0  0  0  0  0  0  0
    3.3620   -1.2083    1.0563 H   0  0  0  0  0  0  0  0  0  0  0  0
    3.4706   -0.5446   -1.7403 C   0  0  0  0  0  0  0  0  0  0  0  0
    4.4398   -0.0805   -1.9126 H   0  0  0  0  0  0  0  0  0  0  0  0
    3.0101   -0.7511   -2.7026 H   0  0  0  0  0  0  0  0  0  0  0  0
    3.6445   -1.4918   -1.2362 H   0  0  0  0  0  0  0  0  0  0  0  0
    4.0557    0.1596    2.5356 C   0  0  0  0  0  0  0  0  0  0  0  0
    4.3075   -0.6126    3.2467 H   0  0  0  0  0  0  0  0  0  0  0  0
    3.9457    2.9813   -2.4767 C   0  0  0  0  0  0  0  0  0  0  0  0
    2.9235    2.8634   -2.8244 H   0  0  0  0  0  0  0  0  0  0  0  0
    4.3851    1.9998   -2.3363 H   0  0  0  0  0  0  0  0  0  0  0  0
    4.5141    3.5016   -3.2444 H   0  0  0  0  0  0  0  0  0  0  0  0
    5.4321    3.8033   -0.6652 C   0  0  0  0  0  0  0  0  0  0  0  0
    6.0922    4.1263   -1.4666 H   0  0  0  0  0  0  0  0  0  0  0  0
    5.7348    2.8073   -0.3494 H   0  0  0  0  0  0  0  0  0  0  0  0
    5.5529    4.4872    0.1683 H   0  0  0  0  0  0  0  0  0  0  0  0
    0.9485    5.0386   -2.0753 C   0  0  0  0  0  0  0  0  0  0  0  0
   -0.0701    4.9295   -1.6936 H   0  0  0  0  0  0  0  0  0  0  0  0
    1.1514    4.1922   -2.7266 H   0  0  0  0  0  0  0  0  0  0  0  0
    1.0006    5.9564   -2.6581 H   0  0  0  0  0  0  0  0  0  0  0  0
    1.5662    6.2954   -0.0159 C   0  0  0  0  0  0  0  0  0  0  0  0
    1.6626    7.2225   -0.5777 H   0  0  0  0  0  0  0  0  0  0  0  0
    2.2086    6.3508    0.8627 H   0  0  0  0  0  0  0  0  0  0  0  0
    0.5284    6.2070    0.3173 H   0  0  0  0  0  0  0  0  0  0  0  0
    3.4099    5.1920   -1.3861 C   0  0  0  0  0  0  0  0  0  0  0  0
    3.4748    5.4986   -2.4277 H   0  0  0  0  0  0  0  0  0  0  0  0
    3.9543    5.9211   -0.7836 H   0  0  0  0  0  0  0  0  0  0  0  0
  1  4  1  0  0  0  0
  1 14  1  0  0  0  0
  1  2  1  0  0  0  0
  2 35  1  1  0  0  0
  2  9  1  0  0  0  0
  3  1  1  0  0  0  0
  6 35  1  0  0  0  0
  8 21  1  0  0  0  0
  8 10  1  0  0  0  0
  9 16  1  0  0  0  0
 10 22  1  0  0  0  0
 11 36  1  0  0  0  0
 11 12  1  0  0  0  0
 13 11  1  0  0  0  0
 14 18  1  0  0  0  0
 15 14  1  0  0  0  0
 16 17  1  0  0  0  0
 16 31  2  0  0  0  0
 18  9  2  0  0  0  0
 18 19  1  0  0  0  0
 19 24  2  0  0  0  0
 20 19  1  0  0  0  0
 21 30  1  6  0  0  0
 21  1  1  0  0  0  0
 22 11  1  0  0  0  0
 22 33  2  0  0  0  0
 23 52  1  0  0  0  0
 23  8  1  0  0  0  0
 24 25  1  0  0  0  0
 24 31  1  0  0  0  0
 26 28  1  0  0  0  0
 26 29  1  0  0  0  0
 27 26  1  0  0  0  0
 29 10  2  0  0  0  0
 29 40  1  0  0  0  0
 30 60  1  0  0  0  0
 31 32  1  0  0  0  0
 33 34  1  0  0  0  0
 35  5  1  0  0  0  0
 35  7  1  0  0  0  0
 36 38  1  0  0  0  0
 36 37  1  0  0  0  0
 39 36  1  0  0  0  0
 40 46  2  0  0  0  0
 41 40  1  0  0  0  0
 42 45  1  0  0  0  0
 42 26  1  0  0  0  0
 43 42  1  0  0  0  0
 44 42  1  0  0  0  0
 46 33  1  0  0  0  0
 46 47  1  0  0  0  0
 48 50  1  0  0  0  0
 48 23  1  0  0  0  0
 49 48  1  0  0  0  0
 51 48  1  0  0  0  0
 52 54  1  0  0  0  0
 52 55  1  0  0  0  0
 53 52  1  0  0  0  0
 56 57  1  0  0  0  0
 56 30  1  0  0  0  0
 58 56  1  0  0  0  0
 59 56  1  0  0  0  0
 60 63  1  0  0  0  0
 60 62  1  0  0  0  0
 61 60  1  0  0  0  0
 64 23  1  0  0  0  0
 64 30  1  0  0  0  0
 64 66  1  0  0  0  0
 65 64  1  0  0  0  0
M  END
$$$$
