CSD_code = OFOQOQ | q = 0 | S = 0 | Stoichiometry = C16H16Cl5NOPtS | MND = 4
 OpenBabel04212202073D

 41 42  0  0  0  0  0  0  0  0999 V2000
    5.2560   -0.0580    9.8427 Pt  0  0  0  0  0  0  0  0  0  0  0  0
    3.2897    1.0286    9.7731 S   0  0  0  0  0  0  0  0  0  0  0  0
    5.2209   -0.0202   12.1485 Cl  0  0  0  0  0  0  0  0  0  0  0  0
    5.3234   -0.0387    7.5404 Cl  0  0  0  0  0  0  0  0  0  0  0  0
    9.2536   -1.5373   12.1306 Cl  0  0  0  0  0  0  0  0  0  0  0  0
    9.2035   -0.7781    6.8039 Cl  0  0  0  0  0  0  0  0  0  0  0  0
    1.7092   -3.9593    7.4450 Cl  0  0  0  0  0  0  0  0  0  0  0  0
    6.9531   -1.0547    9.8791 N   0  0  0  0  0  0  0  0  0  0  0  0
   10.0095   -1.3599    8.2147 C   0  0  0  0  0  0  0  0  0  0  0  0
   11.2530   -1.9626    8.1180 C   0  0  0  0  0  0  0  0  0  0  0  0
   11.7302   -2.0485    7.1557 H   0  0  0  0  0  0  0  0  0  0  0  0
   11.8665   -2.4438    9.2623 C   0  0  0  0  0  0  0  0  0  0  0  0
   12.8371   -2.9090    9.1924 H   0  0  0  0  0  0  0  0  0  0  0  0
   11.2499   -2.3297   10.4962 C   0  0  0  0  0  0  0  0  0  0  0  0
   11.7290   -2.6955   11.3895 H   0  0  0  0  0  0  0  0  0  0  0  0
   10.0025   -1.7316   10.5862 C   0  0  0  0  0  0  0  0  0  0  0  0
    9.3594   -1.2413    9.4471 C   0  0  0  0  0  0  0  0  0  0  0  0
    8.0606   -0.5511    9.5096 C   0  0  0  0  0  3  0  0  0  0  0  0
    6.8115   -2.4576   10.2284 C   0  0  0  0  0  0  0  0  0  0  0  0
    6.7088   -2.5208   11.3171 H   0  0  0  0  0  0  0  0  0  0  0  0
    7.6838   -3.0329    9.9021 H   0  0  0  0  0  0  0  0  0  0  0  0
    5.5438   -2.9397    9.5612 C   0  0  0  0  0  0  0  0  0  0  0  0
    5.5639   -3.3500    8.2340 C   0  0  0  0  0  0  0  0  0  0  0  0
    6.5000   -3.3970    7.6988 H   0  0  0  0  0  0  0  0  0  0  0  0
    4.3888   -3.6747    7.5802 C   0  0  0  0  0  0  0  0  0  0  0  0
    4.4037   -3.9744    6.5448 H   0  0  0  0  0  0  0  0  0  0  0  0
    3.1861   -3.5875    8.2616 C   0  0  0  0  0  0  0  0  0  0  0  0
    3.1483   -3.2039    9.5941 C   0  0  0  0  0  0  0  0  0  0  0  0
    2.2049   -3.1680   10.1168 H   0  0  0  0  0  0  0  0  0  0  0  0
    4.3272   -2.8739   10.2412 C   0  0  0  0  0  0  0  0  0  0  0  0
    4.3082   -2.5979   11.2861 H   0  0  0  0  0  0  0  0  0  0  0  0
    3.3626    2.4723    9.7376 O   0  0  0  0  0  1  0  0  0  0  0  0
    2.2353    0.4927    8.3925 C   0  0  0  0  0  0  0  0  0  0  0  0
    2.1341   -0.5859    8.4422 H   0  0  0  0  0  0  0  0  0  0  0  0
    2.7284    0.7751    7.4684 H   0  0  0  0  0  0  0  0  0  0  0  0
    1.2766    0.9914    8.4758 H   0  0  0  0  0  0  0  0  0  0  0  0
    2.1652    0.5719   11.1286 C   0  0  0  0  0  0  0  0  0  0  0  0
    1.9886   -0.4960   11.0748 H   0  0  0  0  0  0  0  0  0  0  0  0
    1.2474    1.1372   11.0157 H   0  0  0  0  0  0  0  0  0  0  0  0
    2.6495    0.8226   12.0665 H   0  0  0  0  0  0  0  0  0  0  0  0
    8.0553    0.4872    9.1795 H   0  0  0  0  0  0  0  0  0  0  0  0
  1  8  1  0  0  0  0
  1  3  1  0  0  0  0
  2  1  1  0  0  0  0
  2 37  1  0  0  0  0
  4  1  1  0  0  0  0
  6  9  1  0  0  0  0
  7 27  1  0  0  0  0
  8 19  1  0  0  0  0
  9 17  1  0  0  0  0
 10  9  2  0  0  0  0
 10 12  1  0  0  0  0
 11 10  1  0  0  0  0
 12 14  2  0  0  0  0
 13 12  1  0  0  0  0
 14 16  1  0  0  0  0
 14 15  1  0  0  0  0
 16  5  1  0  0  0  0
 17 18  1  0  0  0  0
 17 16  2  0  0  0  0
 18  8  1  0  0  0  0
 19 20  1  0  0  0  0
 21 19  1  0  0  0  0
 22 19  1  0  0  0  0
 22 30  1  0  0  0  0
 23 22  2  0  0  0  0
 24 23  1  0  0  0  0
 25 23  1  0  0  0  0
 25 27  2  0  0  0  0
 26 25  1  0  0  0  0
 27 28  1  0  0  0  0
 28 29  1  0  0  0  0
 28 30  2  0  0  0  0
 30 31  1  0  0  0  0
 32  2  1  0  0  0  0
 33 34  1  0  0  0  0
 33 36  1  0  0  0  0
 33  2  1  0  0  0  0
 35 33  1  0  0  0  0
 37 40  1  0  0  0  0
 38 37  1  0  0  0  0
 39 37  1  0  0  0  0
 41 18  1  0  0  0  0
M  END
$$$$
