CSD_code = OFOTIN | q = 1 | S = 0 | Stoichiometry = C15H21BrN5NiO2(1+) | MND = 6
 OpenBabel04212202073D

 45 47  0  0  1  0  0  0  0  0999 V2000
    2.2725    6.8464    1.6075 C   0  0  1  0  0  3  0  0  0  0  0  0
    2.0772    5.6191    0.9810 C   0  0  0  0  0  0  0  0  0  0  0  0
    1.1956    5.4356    0.3961 H   0  0  0  0  0  0  0  0  0  0  0  0
    3.0612    4.6540    1.0913 C   0  0  0  0  0  0  0  0  0  0  0  0
    2.9395    3.7017    0.6007 H   0  0  0  0  0  0  0  0  0  0  0  0
    4.2088    4.9164    1.8164 C   0  0  0  0  0  0  0  0  0  0  0  0
    4.9914    4.1843    1.8830 H   0  0  0  0  0  0  0  0  0  0  0  0
    4.3466    6.1620    2.4219 C   0  0  0  0  0  0  0  0  0  0  0  0
    6.4005    5.7882    3.8293 C   0  0  1  0  0  3  0  0  0  0  0  0
    7.2530    6.6915    4.4095 C   0  0  0  0  0  0  0  0  0  0  0  0
    8.1088    6.4700    5.0123 H   0  0  0  0  0  0  0  0  0  0  0  0
    6.7749    7.9737    4.0676 C   0  0  0  0  0  0  0  0  0  0  0  0
    7.3427    9.2887    4.4495 C   0  0  0  0  0  0  0  0  0  0  0  0
    6.8568   10.0880    3.8948 H   0  0  0  0  0  0  0  0  0  0  0  0
    8.4113    9.3089    4.2474 H   0  0  0  0  0  0  0  0  0  0  0  0
    7.2062    9.4563    5.5174 H   0  0  0  0  0  0  0  0  0  0  0  0
    6.4226    4.3115    3.9468 C   0  0  0  0  0  0  0  0  0  0  0  0
    6.8260    3.8447    3.0480 H   0  0  0  0  0  0  0  0  0  0  0  0
    5.4275    3.9155    4.1405 H   0  0  0  0  0  0  0  0  0  0  0  0
    7.0705    4.0404    4.7764 H   0  0  0  0  0  0  0  0  0  0  0  0
    0.0049    7.9007    1.3184 C   0  0  2  0  0  3  0  0  0  0  0  0
   -0.3782    9.2146    1.3988 C   0  0  0  0  0  0  0  0  0  0  0  0
   -1.3676    9.6028    1.2757 H   0  0  0  0  0  0  0  0  0  0  0  0
    0.7858    9.9563    1.6889 C   0  0  0  0  0  0  0  0  0  0  0  0
    0.9082   11.4221    1.8750 C   0  0  0  0  0  0  0  0  0  0  0  0
    1.9551   11.7147    1.9123 H   0  0  0  0  0  0  0  0  0  0  0  0
    0.4160   11.7225    2.7995 H   0  0  0  0  0  0  0  0  0  0  0  0
    0.4185   11.9457    1.0568 H   0  0  0  0  0  0  0  0  0  0  0  0
   -0.8550    6.7125    1.1086 C   0  0  0  0  0  0  0  0  0  0  0  0
   -0.7855    6.3441    0.0850 H   0  0  0  0  0  0  0  0  0  0  0  0
   -1.8888    6.9982    1.2850 H   0  0  0  0  0  0  0  0  0  0  0  0
   -0.5946    5.9104    1.7966 H   0  0  0  0  0  0  0  0  0  0  0  0
    3.3963    7.1039    2.2973 N   0  0  0  0  0  0  0  0  0  0  0  0
    5.6907    7.8573    3.3294 N   0  0  0  0  0  0  0  0  0  0  0  0
    5.4545    6.5285    3.1638 N   0  0  0  0  0  0  0  0  0  0  0  0
    1.8151    9.1407    1.7879 N   0  0  0  0  0  0  0  0  0  0  0  0
    1.3578    7.8822    1.5513 N   0  0  1  0  0  0  0  0  0  0  0  0
    3.6916    8.7708    2.9403 Ni  0  0  1  0  0  0  0  0  0  0  0  0
    2.6706    8.1101    4.9548 Br  0  0  0  0  0  0  0  0  0  0  0  0
    4.6699    9.3411    0.9602 O   0  0  0  0  0  0  0  0  0  0  0  0
    3.9973   10.6133    3.7017 O   0  0  0  0  0  0  0  0  0  0  0  0
    5.5809    9.6196    1.0956 H   0  0  0  0  0  0  0  0  0  0  0  0
    4.2033   10.0701    0.5402 H   0  0  0  0  0  0  0  0  0  0  0  0
    4.4864   10.5108    4.5315 H   0  0  0  0  0  0  0  0  0  0  0  0
    3.1366   10.9810    3.9506 H   0  0  0  0  0  0  0  0  0  0  0  0
  1  2  1  6  0  0  0
  1 33  1  0  0  0  0
  2  4  2  0  0  0  0
  3  2  1  0  0  0  0
  4  6  1  0  0  0  0
  5  4  1  0  0  0  0
  6  7  1  0  0  0  0
  6  8  2  0  0  0  0
  8 35  1  0  0  0  0
  9 17  1  1  0  0  0
  9 10  1  0  0  0  0
 10 11  1  0  0  0  0
 12 10  2  0  0  0  0
 12 13  1  0  0  0  0
 13 16  1  0  0  0  0
 14 13  1  0  0  0  0
 15 13  1  0  0  0  0
 17 19  1  0  0  0  0
 17 20  1  0  0  0  0
 18 17  1  0  0  0  0
 21 29  1  1  0  0  0
 21 22  1  0  0  0  0
 21 37  1  0  0  0  0
 22 24  2  0  0  0  0
 23 22  1  0  0  0  0
 24 36  1  0  0  0  0
 24 25  1  0  0  0  0
 25 26  1  0  0  0  0
 25 27  1  0  0  0  0
 28 25  1  0  0  0  0
 29 31  1  0  0  0  0
 29 32  1  0  0  0  0
 30 29  1  0  0  0  0
 33  8  1  0  0  0  0
 33 38  1  0  0  0  0
 34 12  1  0  0  0  0
 35 34  1  0  0  0  0
 35  9  1  0  0  0  0
 36 38  1  0  0  0  0
 37  1  1  0  0  0  0
 37 36  1  1  0  0  0
 38 34  1  0  0  0  0
 38 39  1  1  0  0  0
 40 42  1  0  0  0  0
 41 45  1  0  0  0  0
 41 44  1  0  0  0  0
 43 40  1  0  0  0  0
M  END
$$$$
