CSD_code = OFOXEO | q = 0 | S = 0 | Stoichiometry = C25H23Cl2N2OPRu | MND = 6
 OpenBabel04212202073D

 55 59  0  0  1  0  0  0  0  0999 V2000
    6.4497    2.1043    2.5685 Ru  0  0  0  0  0  0  0  0  0  0  0  0
    5.1060    4.0126    3.1147 Cl  0  0  0  0  0  0  0  0  0  0  0  0
    7.6536    0.3246    1.5279 Cl  0  0  0  0  0  0  0  0  0  0  0  0
    4.7993    0.5693    3.1088 P   0  0  0  0  0  4  0  0  0  0  0  0
    7.7523    1.8992    5.2438 O   0  0  0  0  0  1  0  0  0  0  0  0
    7.8059    3.4494    1.8689 N   0  0  0  0  0  0  0  0  0  0  0  0
    5.6648    2.5035    0.6039 N   0  0  0  0  0  4  0  0  0  0  0  0
    3.5647    0.4686    1.7790 C   0  0  0  0  0  0  0  0  0  0  0  0
    5.2963   -1.1684    3.3469 C   0  0  0  0  0  0  0  0  0  0  0  0
    4.5365   -2.2467    2.9072 C   0  0  0  0  0  0  0  0  0  0  0  0
    3.6262   -2.0843    2.3467 H   0  0  0  0  0  0  0  0  0  0  0  0
    7.2340    1.9392    4.2186 C   0  0  0  0  0  2  0  0  0  0  0  0
    6.4658   -1.4019    4.0629 C   0  0  0  0  0  0  0  0  0  0  0  0
    7.0585   -0.5598    4.3953 H   0  0  0  0  0  0  0  0  0  0  0  0
    3.7950    0.7940    4.6117 C   0  0  0  0  0  0  0  0  0  0  0  0
    6.8121    2.8416   -0.2380 C   0  0  0  0  0  0  0  0  0  0  0  0
    6.5202    3.3494   -1.1680 H   0  0  0  0  0  0  0  0  0  0  0  0
    7.3278    1.9029   -0.4880 H   0  0  0  0  0  0  0  0  0  0  0  0
    8.5721    4.6476   -0.0468 C   0  0  0  0  0  0  0  0  0  0  0  0
    8.5060    4.8072   -1.1119 H   0  0  0  0  0  0  0  0  0  0  0  0
    4.1053    1.8006    5.5171 C   0  0  0  0  0  0  0  0  0  0  0  0
    4.9200    2.4786    5.3021 H   0  0  0  0  0  0  0  0  0  0  0  0
    3.9317   -0.1807    0.5978 C   0  0  0  0  0  0  0  0  0  0  0  0
    4.8982   -0.6687    0.5436 H   0  0  0  0  0  0  0  0  0  0  0  0
    7.7671    3.6910    0.5528 C   0  0  2  0  0  3  0  0  0  0  0  0
    8.6429    4.1657    2.6192 C   0  0  0  0  0  0  0  0  0  0  0  0
    8.6415    3.9616    3.6820 H   0  0  0  0  0  0  0  0  0  0  0  0
    3.3581    1.9458    6.6736 C   0  0  0  0  0  0  0  0  0  0  0  0
    3.5980    2.7340    7.3716 H   0  0  0  0  0  0  0  0  0  0  0  0
    2.7395   -0.0751    4.8793 C   0  0  0  0  0  0  0  0  0  0  0  0
    2.5018   -0.8645    4.1797 H   0  0  0  0  0  0  0  0  0  0  0  0
    3.0651   -0.2006   -0.4797 C   0  0  0  0  0  0  0  0  0  0  0  0
    3.3450   -0.7154   -1.3876 H   0  0  0  0  0  0  0  0  0  0  0  0
    9.4492    5.3830    0.7321 C   0  0  0  0  0  0  0  0  0  0  0  0
   10.0859    6.1320    0.2881 H   0  0  0  0  0  0  0  0  0  0  0  0
    6.1240   -3.7661    3.8747 C   0  0  0  0  0  0  0  0  0  0  0  0
    6.4489   -4.7774    4.0700 H   0  0  0  0  0  0  0  0  0  0  0  0
    4.9542   -3.5393    3.1698 C   0  0  0  0  0  0  0  0  0  0  0  0
    4.3639   -4.3730    2.8178 H   0  0  0  0  0  0  0  0  0  0  0  0
    9.4788    5.1342    2.0954 C   0  0  0  0  0  0  0  0  0  0  0  0
   10.1377    5.6825    2.7489 H   0  0  0  0  0  0  0  0  0  0  0  0
    1.8384    0.4417   -0.3936 C   0  0  0  0  0  0  0  0  0  0  0  0
    1.1608    0.4231   -1.2343 H   0  0  0  0  0  0  0  0  0  0  0  0
    6.8788   -2.6947    4.3232 C   0  0  0  0  0  0  0  0  0  0  0  0
    7.7936   -2.8675    4.8701 H   0  0  0  0  0  0  0  0  0  0  0  0
    2.3462    1.1342    1.8507 C   0  0  0  0  0  0  0  0  0  0  0  0
    2.0803    1.6673    2.7525 H   0  0  0  0  0  0  0  0  0  0  0  0
    2.3056    1.0849    6.9332 C   0  0  0  0  0  0  0  0  0  0  0  0
    1.7226    1.1992    7.8353 H   0  0  0  0  0  0  0  0  0  0  0  0
    1.4856    1.1127    0.7661 C   0  0  0  0  0  0  0  0  0  0  0  0
    0.5359    1.6236    0.8256 H   0  0  0  0  0  0  0  0  0  0  0  0
    1.9978    0.0740    6.0351 C   0  0  0  0  0  0  0  0  0  0  0  0
    1.1778   -0.5996    6.2383 H   0  0  0  0  0  0  0  0  0  0  0  0
    5.1033    1.7797    0.1511 H   0  0  0  0  0  0  0  0  0  0  0  0
    5.0651    3.3278    0.7394 H   0  0  0  0  0  0  0  0  0  0  0  0
  1  4  1  0  0  0  0
  1  2  1  0  0  0  0
  1 12  1  0  0  0  0
  3  1  1  0  0  0  0
  4  9  1  0  0  0  0
  4 15  1  0  0  0  0
  6  1  1  0  0  0  0
  6 26  1  0  0  0  0
  7 55  1  0  0  0  0
  7  1  1  0  0  0  0
  8 46  1  0  0  0  0
  8  4  1  0  0  0  0
  9 13  1  0  0  0  0
 10 38  1  0  0  0  0
 10  9  2  0  0  0  0
 11 10  1  0  0  0  0
 12  5  1  0  0  0  0
 13 44  2  0  0  0  0
 13 14  1  0  0  0  0
 15 30  2  0  0  0  0
 15 21  1  0  0  0  0
 16 25  1  0  0  0  0
 16  7  1  0  0  0  0
 17 16  1  0  0  0  0
 18 16  1  0  0  0  0
 19 34  2  0  0  0  0
 20 19  1  0  0  0  0
 21 28  2  0  0  0  0
 22 21  1  0  0  0  0
 23  8  2  0  0  0  0
 24 23  1  0  0  0  0
 25 19  1  6  0  0  0
 25  6  1  0  0  0  0
 26 27  1  0  0  0  0
 28 48  1  0  0  0  0
 28 29  1  0  0  0  0
 30 52  1  0  0  0  0
 31 30  1  0  0  0  0
 32 42  2  0  0  0  0
 32 23  1  0  0  0  0
 33 32  1  0  0  0  0
 34 40  1  0  0  0  0
 35 34  1  0  0  0  0
 36 37  1  0  0  0  0
 36 44  1  0  0  0  0
 38 36  2  0  0  0  0
 39 38  1  0  0  0  0
 40 26  2  0  0  0  0
 40 41  1  0  0  0  0
 42 50  1  0  0  0  0
 43 42  1  0  0  0  0
 44 45  1  0  0  0  0
 46 47  1  0  0  0  0
 48 49  1  0  0  0  0
 50 51  1  0  0  0  0
 50 46  2  0  0  0  0
 52 53  1  0  0  0  0
 52 48  2  0  0  0  0
 54  7  1  0  0  0  0
M  END
$$$$
