CSD_code = OFULEH | q = 0 | S = 0 | Stoichiometry = C3H11I2NOPtS | MND = 4
 OpenBabel04212202073D

 20 19  0  0  0  0  0  0  0  0999 V2000
    6.6106    2.7969   11.6999 Pt  0  0  0  0  0  0  0  0  0  0  0  0
    4.4656    3.7184   10.5860 I   0  0  0  0  0  0  0  0  0  0  0  0
    8.8062    2.1053   12.8786 I   0  0  0  0  0  0  0  0  0  0  0  0
    7.2338    1.9666    9.7358 S   0  0  0  0  0  0  0  0  0  0  0  0
    6.3281    0.9330    9.2964 O   0  0  0  0  0  1  0  0  0  0  0  0
    5.8957    3.5098   13.5504 N   0  0  0  0  0  4  0  0  0  0  0  0
    6.6752    3.8085   14.1454 H   0  0  0  0  0  0  0  0  0  0  0  0
    5.2817    4.3164   13.3951 H   0  0  0  0  0  0  0  0  0  0  0  0
    8.9100    1.2902    9.5176 C   0  0  0  0  0  0  0  0  0  0  0  0
    9.0470    0.4577   10.1994 H   0  0  0  0  0  0  0  0  0  0  0  0
    9.6457    2.0625    9.7107 H   0  0  0  0  0  0  0  0  0  0  0  0
    8.9661    0.9353    8.4946 H   0  0  0  0  0  0  0  0  0  0  0  0
    7.3393    3.2524    8.4495 C   0  0  0  0  0  0  0  0  0  0  0  0
    7.7931    2.8201    7.5652 H   0  0  0  0  0  0  0  0  0  0  0  0
    7.9444    4.0661    8.8394 H   0  0  0  0  0  0  0  0  0  0  0  0
    6.3404    3.6041    8.2155 H   0  0  0  0  0  0  0  0  0  0  0  0
    5.1398    2.4523   14.2349 C   0  0  0  0  0  0  0  0  0  0  0  0
    4.3029    2.1371   13.6088 H   0  0  0  0  0  0  0  0  0  0  0  0
    4.7465    2.8018   15.1926 H   0  0  0  0  0  0  0  0  0  0  0  0
    5.7909    1.5954   14.4178 H   0  0  0  0  0  0  0  0  0  0  0  0
  1  3  1  0  0  0  0
  1  6  1  0  0  0  0
  2  1  1  0  0  0  0
  4  1  1  0  0  0  0
  5  4  1  0  0  0  0
  6  7  1  0  0  0  0
  6 17  1  0  0  0  0
  8  6  1  0  0  0  0
  9 11  1  0  0  0  0
  9  4  1  0  0  0  0
  9 10  1  0  0  0  0
 12  9  1  0  0  0  0
 13 15  1  0  0  0  0
 13  4  1  0  0  0  0
 14 13  1  0  0  0  0
 16 13  1  0  0  0  0
 17 20  1  0  0  0  0
 17 19  1  0  0  0  0
 18 17  1  0  0  0  0
M  END
$$$$
