CSD_code = OGALUE | q = 0 | S = 0 | Stoichiometry = C14H21BrN2OPtS | MND = 4
 OpenBabel04212202073D

 41 43  0  0  0  0  0  0  0  0999 V2000
    3.3019    4.0523    4.4482 Pt  0  0  0  0  0  0  0  0  0  0  0  0
    5.3365    5.0777    3.5627 Br  0  0  0  0  0  0  0  0  0  0  0  0
   -2.0420    1.3158    6.8008 S   0  0  0  0  0  0  0  0  0  0  0  0
   -0.5702    1.5888    8.9536 O   0  0  0  0  0  0  0  0  0  0  0  0
    2.6041    5.6742    5.6119 N   0  0  0  0  0  4  0  0  0  0  0  0
    3.4689    2.1548    3.5262 N   0  0  0  0  0  4  0  0  0  0  0  0
    1.6835    3.2391    5.1454 C   0  0  0  0  0  0  0  0  0  0  0  0
    0.9703    3.9003    6.1358 C   0  0  0  0  0  0  0  0  0  0  0  0
   -0.1901    3.3307    6.6313 C   0  0  0  0  0  0  0  0  0  0  0  0
   -0.7766    3.8209    7.3938 H   0  0  0  0  0  0  0  0  0  0  0  0
   -0.5766    2.0897    6.1417 C   0  0  0  0  0  0  0  0  0  0  0  0
    0.1347    1.4169    5.1552 C   0  0  0  0  0  0  0  0  0  0  0  0
   -0.2118    0.4552    4.8060 H   0  0  0  0  0  0  0  0  0  0  0  0
    1.2749    2.0109    4.6424 C   0  0  0  0  0  0  0  0  0  0  0  0
    1.6119    5.1791    6.6104 C   0  0  0  0  0  0  0  0  0  0  0  0
    2.1452    4.9615    7.5419 H   0  0  0  0  0  0  0  0  0  0  0  0
    0.8755    5.9648    6.8225 H   0  0  0  0  0  0  0  0  0  0  0  0
    3.6424    6.4503    6.2909 C   0  0  0  0  0  0  0  0  0  0  0  0
    4.3300    6.8683    5.5561 H   0  0  0  0  0  0  0  0  0  0  0  0
    4.2092    5.8022    6.9608 H   0  0  0  0  0  0  0  0  0  0  0  0
    3.2029    7.2706    6.8697 H   0  0  0  0  0  0  0  0  0  0  0  0
    1.9249    6.5260    4.6300 C   0  0  0  0  0  0  0  0  0  0  0  0
    1.5218    7.4267    5.1090 H   0  0  0  0  0  0  0  0  0  0  0  0
    1.1039    5.9743    4.1681 H   0  0  0  0  0  0  0  0  0  0  0  0
    2.6321    6.8304    3.8555 H   0  0  0  0  0  0  0  0  0  0  0  0
    2.1355    1.4868    3.5202 C   0  0  0  0  0  0  0  0  0  0  0  0
    1.6409    1.7255    2.5722 H   0  0  0  0  0  0  0  0  0  0  0  0
    2.2659    0.3977    3.5649 H   0  0  0  0  0  0  0  0  0  0  0  0
    4.0299    2.1530    2.1749 C   0  0  0  0  0  0  0  0  0  0  0  0
    5.0291    2.5874    2.1908 H   0  0  0  0  0  0  0  0  0  0  0  0
    3.4053    2.7558    1.5143 H   0  0  0  0  0  0  0  0  0  0  0  0
    4.0947    1.1332    1.7785 H   0  0  0  0  0  0  0  0  0  0  0  0
    4.3714    1.4307    4.4281 C   0  0  0  0  0  0  0  0  0  0  0  0
    4.5662    0.4188    4.0525 H   0  0  0  0  0  0  0  0  0  0  0  0
    3.9217    1.3586    5.4199 H   0  0  0  0  0  0  0  0  0  0  0  0
    5.3219    1.9631    4.5033 H   0  0  0  0  0  0  0  0  0  0  0  0
   -1.6090    1.1748    8.5225 C   0  0  0  0  0  0  0  0  0  0  0  0
   -2.6849    0.4917    9.3108 C   0  0  0  0  0  0  0  0  0  0  0  0
   -2.2874   -0.4399    9.7114 H   0  0  0  0  0  0  0  0  0  0  0  0
   -3.5526    0.2842    8.6915 H   0  0  0  0  0  0  0  0  0  0  0  0
   -2.9666    1.1218   10.1529 H   0  0  0  0  0  0  0  0  0  0  0  0
  1  7  1  0  0  0  0
  1  5  1  0  0  0  0
  2  1  1  0  0  0  0
  3 37  1  0  0  0  0
  5 18  1  0  0  0  0
  5 15  1  0  0  0  0
  6 33  1  0  0  0  0
  6  1  1  0  0  0  0
  7  8  1  0  0  0  0
  8 15  1  0  0  0  0
  8  9  2  0  0  0  0
  9 10  1  0  0  0  0
 11  9  1  0  0  0  0
 11  3  1  0  0  0  0
 12 11  2  0  0  0  0
 13 12  1  0  0  0  0
 14  7  2  0  0  0  0
 14 12  1  0  0  0  0
 15 17  1  0  0  0  0
 15 16  1  0  0  0  0
 18 21  1  0  0  0  0
 18 20  1  0  0  0  0
 19 18  1  0  0  0  0
 22 23  1  0  0  0  0
 22  5  1  0  0  0  0
 24 22  1  0  0  0  0
 25 22  1  0  0  0  0
 26  6  1  0  0  0  0
 26 28  1  0  0  0  0
 26 14  1  0  0  0  0
 27 26  1  0  0  0  0
 29 30  1  0  0  0  0
 29  6  1  0  0  0  0
 31 29  1  0  0  0  0
 32 29  1  0  0  0  0
 33 36  1  0  0  0  0
 33 35  1  0  0  0  0
 34 33  1  0  0  0  0
 37  4  2  0  0  0  0
 37 38  1  0  0  0  0
 38 39  1  0  0  0  0
 38 41  1  0  0  0  0
 40 38  1  0  0  0  0
M  END
$$$$
