CSD_code = OGANIW | q = 0 | S = 0 | Stoichiometry = C20H30FSc | MND = 11
 OpenBabel04212202073D

 52 53  0  0  1  0  0  0  0  0999 V2000
    5.6994    4.7666    2.7247 Sc  0  0  0  0  0  0  0  0  0  0  0  0
    5.6995    6.5712    2.7248 F   0  0  0  0  0  0  0  0  0  0  0  0
    6.4232    3.9985    0.5475 C   0  0  0  0  0  0  0  0  0  0  0  0
    6.7884    2.9689    1.4682 C   0  0  0  0  0  0  0  0  0  0  0  0
    7.7264    3.5167    2.3957 C   0  0  2  0  0  3  0  0  0  0  0  0
    7.9670    4.8699    2.0187 C   0  0  1  0  0  0  0  0  0  0  0  0
    7.1820    5.1570    0.8645 C   0  0  1  0  0  3  0  0  0  0  0  0
    5.6185    3.7841   -0.7058 C   0  0  0  0  0  0  0  0  0  0  0  0
    6.2722    3.4673   -1.5224 H   0  0  0  0  0  0  0  0  0  0  0  0
    5.1142    4.6984   -1.0158 H   0  0  0  0  0  0  0  0  0  0  0  0
    4.8660    3.0100   -0.5636 H   0  0  0  0  0  0  0  0  0  0  0  0
    6.5312    1.5072    1.2311 C   0  0  0  0  0  0  0  0  0  0  0  0
    7.1654    1.1606    0.4109 H   0  0  0  0  0  0  0  0  0  0  0  0
    5.4978    1.3163    0.9457 H   0  0  0  0  0  0  0  0  0  0  0  0
    6.7679    0.9102    2.1073 H   0  0  0  0  0  0  0  0  0  0  0  0
    8.5542    2.7361    3.3817 C   0  0  0  0  0  0  0  0  0  0  0  0
    8.0527    1.8195    3.6854 H   0  0  0  0  0  0  0  0  0  0  0  0
    8.7700    3.3208    4.2760 H   0  0  0  0  0  0  0  0  0  0  0  0
    9.5084    2.4577    2.9274 H   0  0  0  0  0  0  0  0  0  0  0  0
    8.9873    5.8064    2.6012 C   0  0  0  0  0  0  0  0  0  0  0  0
    9.8366    5.9054    1.9210 H   0  0  0  0  0  0  0  0  0  0  0  0
    9.3596    5.4408    3.5563 H   0  0  0  0  0  0  0  0  0  0  0  0
    8.5592    6.7984    2.7488 H   0  0  0  0  0  0  0  0  0  0  0  0
    7.2690    6.4321    0.0783 C   0  0  0  0  0  0  0  0  0  0  0  0
    7.0630    7.2947    0.7121 H   0  0  0  0  0  0  0  0  0  0  0  0
    6.5616    6.4317   -0.7476 H   0  0  0  0  0  0  0  0  0  0  0  0
    8.2751    6.5469   -0.3301 H   0  0  0  0  0  0  0  0  0  0  0  0
    4.9755    3.9985    4.9018 C   0  0  0  0  0  0  0  0  0  0  0  0
    4.6104    2.9689    3.9811 C   0  0  0  0  0  0  0  0  0  0  0  0
    3.6724    3.5167    3.0536 C   0  0  0  0  0  0  0  0  0  0  0  0
    3.4318    4.8699    3.4306 C   0  0  1  0  0  0  0  0  0  0  0  0
    4.2167    5.1570    4.5848 C   0  0  0  0  0  0  0  0  0  0  0  0
    5.7804    3.7842    6.1550 C   0  0  0  0  0  0  0  0  0  0  0  0
    5.1268    3.4677    6.9718 H   0  0  0  0  0  0  0  0  0  0  0  0
    6.2850    4.6986    6.4647 H   0  0  0  0  0  0  0  0  0  0  0  0
    6.5327    3.0100    6.0129 H   0  0  0  0  0  0  0  0  0  0  0  0
    4.8675    1.5072    4.2182 C   0  0  0  0  0  0  0  0  0  0  0  0
    4.2335    1.1607    5.0385 H   0  0  0  0  0  0  0  0  0  0  0  0
    5.9010    1.3163    4.5036 H   0  0  0  0  0  0  0  0  0  0  0  0
    4.6308    0.9102    3.3420 H   0  0  0  0  0  0  0  0  0  0  0  0
    2.8446    2.7361    2.0677 C   0  0  0  0  0  0  0  0  0  0  0  0
    3.3461    1.8196    1.7637 H   0  0  0  0  0  0  0  0  0  0  0  0
    2.6285    3.3208    1.1734 H   0  0  0  0  0  0  0  0  0  0  0  0
    1.8905    2.4575    2.5221 H   0  0  0  0  0  0  0  0  0  0  0  0
    2.4115    5.8064    2.8480 C   0  0  0  0  0  0  0  0  0  0  0  0
    1.5622    5.9054    3.5281 H   0  0  0  0  0  0  0  0  0  0  0  0
    2.0394    5.4409    1.8928 H   0  0  0  0  0  0  0  0  0  0  0  0
    2.8396    6.7985    2.7005 H   0  0  0  0  0  0  0  0  0  0  0  0
    4.1296    6.4321    5.3711 C   0  0  0  0  0  0  0  0  0  0  0  0
    4.3357    7.2947    4.7373 H   0  0  0  0  0  0  0  0  0  0  0  0
    4.8369    6.4317    6.1970 H   0  0  0  0  0  0  0  0  0  0  0  0
    3.1235    6.5468    5.7794 H   0  0  0  0  0  0  0  0  0  0  0  0
  1  2  1  0  0  0  0
  3  7  1  0  0  0  0
  3  4  2  0  0  0  0
  4  5  1  0  0  0  0
  5 16  1  6  0  0  0
  6  5  1  0  0  0  0
  6 20  1  1  0  0  0
  6  1  1  0  0  0  0
  7 24  1  6  0  0  0
  7  6  1  0  0  0  0
  8 11  1  0  0  0  0
  8  3  1  0  0  0  0
  9  8  1  0  0  0  0
 10  8  1  0  0  0  0
 12  4  1  0  0  0  0
 12 15  1  0  0  0  0
 13 12  1  0  0  0  0
 14 12  1  0  0  0  0
 16 17  1  0  0  0  0
 16 18  1  0  0  0  0
 19 16  1  0  0  0  0
 20 23  1  0  0  0  0
 20 22  1  0  0  0  0
 21 20  1  0  0  0  0
 24 25  1  0  0  0  0
 26 24  1  0  0  0  0
 27 24  1  0  0  0  0
 28 33  1  0  0  0  0
 29 37  1  0  0  0  0
 29 28  1  0  0  0  0
 30 31  1  0  0  0  0
 30 29  2  0  0  0  0
 31  1  1  6  0  0  0
 31 32  1  0  0  0  0
 32 28  2  0  0  0  0
 32 49  1  0  0  0  0
 33 35  1  0  0  0  0
 33 34  1  0  0  0  0
 36 33  1  0  0  0  0
 37 39  1  0  0  0  0
 37 38  1  0  0  0  0
 40 37  1  0  0  0  0
 41 44  1  0  0  0  0
 41 30  1  0  0  0  0
 42 41  1  0  0  0  0
 43 41  1  0  0  0  0
 45 31  1  0  0  0  0
 45 46  1  0  0  0  0
 47 45  1  0  0  0  0
 48 45  1  0  0  0  0
 49 52  1  0  0  0  0
 49 51  1  0  0  0  0
 50 49  1  0  0  0  0
M  END
$$$$
