CSD_code = OGEKUJ | q = 1 | S = 0 | Stoichiometry = C31H25BrFeN5(1+) | MND = 6
 OpenBabel04212202073D

 63 72  0  0  1  0  0  0  0  0999 V2000
    5.2857   10.7967   24.1647 Br  0  0  0  0  0  0  0  0  0  0  0  0
    7.0056    9.6786   23.0376 Fe  0  0  0  0  0  0  0  0  0  0  0  0
    6.4760    8.0364   23.8276 N   0  0  0  0  0  0  0  0  0  0  0  0
    8.6917    9.8223   24.2601 N   0  0  0  0  0  0  0  0  0  0  0  0
    7.7282   11.1954   21.9335 N   0  0  0  0  0  0  0  0  0  0  0  0
    5.7378    9.3718   21.6059 N   0  0  0  0  0  0  0  0  0  0  0  0
    8.1460    8.5454   21.9025 N   0  0  1  0  0  4  0  0  0  0  0  0
    6.6491    7.0203   22.9714 C   0  0  2  0  0  3  0  0  0  0  0  0
    9.0127   10.6958   25.2524 C   0  0  2  0  0  3  0  0  0  0  0  0
    5.8762    5.4291   24.5622 C   0  0  0  0  0  0  0  0  0  0  0  0
    5.6344    4.4174   24.8446 H   0  0  0  0  0  0  0  0  0  0  0  0
    6.0301    7.7638   25.0504 C   0  0  0  0  0  0  0  0  0  0  0  0
    5.9004    8.6051   25.7109 H   0  0  0  0  0  0  0  0  0  0  0  0
    7.1552    7.4910   21.6348 C   0  0  1  0  0  0  0  0  0  0  0  0
    7.5435    6.6734   21.0143 H   0  0  0  0  0  0  0  0  0  0  0  0
    5.7200    6.4783   25.4558 C   0  0  0  0  0  0  0  0  0  0  0  0
    5.3528    6.3070   26.4539 H   0  0  0  0  0  0  0  0  0  0  0  0
    3.9580    9.7268   20.0703 C   0  0  0  0  0  0  0  0  0  0  0  0
    3.1686   10.3720   19.7226 H   0  0  0  0  0  0  0  0  0  0  0  0
    6.3578    5.7082   23.2903 C   0  0  0  0  0  0  0  0  0  0  0  0
    6.5065    4.9250   22.5636 H   0  0  0  0  0  0  0  0  0  0  0  0
    4.7565   10.1298   21.1258 C   0  0  0  0  0  3  0  0  0  0  0  0
    4.5959   11.0777   21.6141 H   0  0  0  0  0  0  0  0  0  0  0  0
    8.2953   11.5237   19.6276 C   0  0  0  0  0  0  0  0  0  0  0  0
    8.6365   11.0706   18.7102 H   0  0  0  0  0  0  0  0  0  0  0  0
   10.3631   11.0905   25.4907 C   0  0  0  0  0  0  0  0  0  0  0  0
    8.1584   10.7298   20.7754 C   0  0  0  0  0  0  0  0  0  0  0  0
   11.0350    9.5073   23.8348 C   0  0  0  0  0  0  0  0  0  0  0  0
   11.7870    8.9748   23.2743 H   0  0  0  0  0  0  0  0  0  0  0  0
    7.5373   12.5373   22.0594 C   0  0  0  0  0  0  0  0  0  0  0  0
    5.9811    8.1967   21.0126 C   0  0  0  0  0  0  0  0  0  0  0  0
    9.6823    9.2073   23.6346 C   0  0  0  0  0  0  0  0  0  0  0  0
    7.3211   13.1049   23.3271 C   0  0  0  0  0  0  0  0  0  0  0  0
    7.3675   12.4723   24.1941 H   0  0  0  0  0  0  0  0  0  0  0  0
   11.3768   10.4871   24.7281 C   0  0  0  0  0  0  0  0  0  0  0  0
   12.4059   10.7773   24.8752 H   0  0  0  0  0  0  0  0  0  0  0  0
    9.6464   12.5397   27.2804 C   0  0  0  0  0  0  0  0  0  0  0  0
    9.8668   13.2591   28.0534 H   0  0  0  0  0  0  0  0  0  0  0  0
    5.2244    7.7095   19.9646 C   0  0  0  0  0  0  0  0  0  0  0  0
    5.4508    6.7482   19.5306 H   0  0  0  0  0  0  0  0  0  0  0  0
    8.5408    9.2749   20.6977 C   0  0  0  0  0  0  0  0  0  0  0  0
    8.0837    8.8258   19.8101 H   0  0  0  0  0  0  0  0  0  0  0  0
    9.6274    9.2264   20.5580 H   0  0  0  0  0  0  0  0  0  0  0  0
    7.0789   14.4464   23.4561 C   0  0  0  0  0  0  0  0  0  0  0  0
    6.9121   14.8641   24.4362 H   0  0  0  0  0  0  0  0  0  0  0  0
    7.5953   13.4029   20.9288 C   0  0  0  0  0  0  0  0  0  0  0  0
    4.1801    8.4889   19.4866 C   0  0  0  0  0  0  0  0  0  0  0  0
    3.5656    8.1396   18.6726 H   0  0  0  0  0  0  0  0  0  0  0  0
    7.0471   15.2843   22.3320 C   0  0  0  0  0  0  0  0  0  0  0  0
    6.8333   16.3345   22.4545 H   0  0  0  0  0  0  0  0  0  0  0  0
    7.3186   14.7749   21.0925 C   0  0  0  0  0  3  0  0  0  0  0  0
    7.3444   15.4121   20.2214 H   0  0  0  0  0  0  0  0  0  0  0  0
   10.6464   12.0372   26.4968 C   0  0  0  0  0  0  0  0  0  0  0  0
   11.6734   12.3356   26.6451 H   0  0  0  0  0  0  0  0  0  0  0  0
    8.0170   11.1985   26.1121 C   0  0  0  0  0  0  0  0  0  0  0  0
    7.0051   10.8562   25.9943 H   0  0  0  0  0  0  0  0  0  0  0  0
    9.2855    8.1036   22.6933 C   0  0  0  0  0  0  0  0  0  0  0  0
   10.1297    7.7908   22.0683 H   0  0  0  0  0  0  0  0  0  0  0  0
    8.9873    7.2452   23.3034 H   0  0  0  0  0  0  0  0  0  0  0  0
    7.9592   12.8489   19.6879 C   0  0  0  0  0  0  0  0  0  0  0  0
    7.9968   13.4760   18.8105 H   0  0  0  0  0  0  0  0  0  0  0  0
    8.3283   12.0945   27.0990 C   0  0  0  0  0  0  0  0  0  0  0  0
    7.5485   12.4597   27.7486 H   0  0  0  0  0  0  0  0  0  0  0  0
  2  3  1  0  0  0  0
  2  1  1  0  0  0  0
  2  4  1  0  0  0  0
  3 12  1  0  0  0  0
  4  9  1  0  0  0  0
  5 30  1  0  0  0  0
  5  2  1  0  0  0  0
  6  2  1  0  0  0  0
  7 41  1  6  0  0  0
  7 57  1  0  0  0  0
  7  2  1  0  0  0  0
  8 20  1  6  0  0  0
  8  3  1  0  0  0  0
  9 26  1  1  0  0  0
  9 55  1  0  0  0  0
 10 11  1  0  0  0  0
 10 16  1  0  0  0  0
 12 16  2  0  0  0  0
 12 13  1  0  0  0  0
 14 15  1  6  0  0  0
 14  7  1  0  0  0  0
 14  8  1  0  0  0  0
 16 17  1  0  0  0  0
 18 22  1  0  0  0  0
 19 18  1  0  0  0  0
 20 10  2  0  0  0  0
 21 20  1  0  0  0  0
 22  6  1  0  0  0  0
 22 23  1  0  0  0  0
 24 60  1  0  0  0  0
 24 27  2  0  0  0  0
 25 24  1  0  0  0  0
 26 53  1  0  0  0  0
 27  5  1  0  0  0  0
 28 35  1  0  0  0  0
 29 28  1  0  0  0  0
 30 33  2  0  0  0  0
 31  6  1  0  0  0  0
 31 14  1  0  0  0  0
 32 28  2  0  0  0  0
 32  4  1  0  0  0  0
 33 44  1  0  0  0  0
 33 34  1  0  0  0  0
 35 36  1  0  0  0  0
 35 26  2  0  0  0  0
 37 38  1  0  0  0  0
 39 31  2  0  0  0  0
 40 39  1  0  0  0  0
 41 27  1  0  0  0  0
 42 41  1  0  0  0  0
 43 41  1  0  0  0  0
 44 45  1  0  0  0  0
 46 51  1  0  0  0  0
 46 30  1  0  0  0  0
 47 39  1  0  0  0  0
 47 18  2  0  0  0  0
 48 47  1  0  0  0  0
 49 50  1  0  0  0  0
 49 44  2  0  0  0  0
 51 49  1  0  0  0  0
 52 51  1  0  0  0  0
 53 54  1  0  0  0  0
 53 37  2  0  0  0  0
 55 62  2  0  0  0  0
 56 55  1  0  0  0  0
 57 59  1  0  0  0  0
 57 32  1  0  0  0  0
 58 57  1  0  0  0  0
 60 46  2  0  0  0  0
 61 60  1  0  0  0  0
 62 37  1  0  0  0  0
 62 63  1  0  0  0  0
M  END
$$$$
