CSD_code = OGELOE | q = 1 | S = 0 | Stoichiometry = C31H25BrFeN5(1+) | MND = 6
 OpenBabel04212202073D

 63 72  0  0  1  0  0  0  0  0999 V2000
   -2.5211    9.2838    5.8392 Br  0  0  0  0  0  0  0  0  0  0  0  0
   -0.6225    9.0875    4.4997 Fe  0  0  0  0  0  0  0  0  0  0  0  0
   -0.3244    6.9675    4.1400 N   0  0  0  0  0  0  0  0  0  0  0  0
    1.0288    8.6276    5.8193 N   0  0  0  0  0  0  0  0  0  0  0  0
    0.8278    9.2517    3.1494 N   0  0  2  0  0  4  0  0  0  0  0  0
   -1.7288    9.3628    2.9374 N   0  0  0  0  0  0  0  0  0  0  0  0
   -0.3635   10.9958    4.6161 N   0  0  0  0  0  0  0  0  0  0  0  0
   -0.5568    5.9276    4.9849 C   0  0  1  0  0  3  0  0  0  0  0  0
    1.0152    7.8904    6.9615 C   0  0  1  0  0  3  0  0  0  0  0  0
    2.0998    7.0284    7.3028 C   0  0  0  0  0  0  0  0  0  0  0  0
   -1.6512    5.9587    5.8684 C   0  0  0  0  0  0  0  0  0  0  0  0
   -2.3274    6.7925    5.8315 H   0  0  0  0  0  0  0  0  0  0  0  0
    0.2915    4.7804    5.0031 C   0  0  0  0  0  0  0  0  0  0  0  0
    0.6584    6.8540    3.2617 C   0  0  0  0  0  0  0  0  0  0  0  0
    2.1240    8.6150    5.0767 C   0  0  0  0  0  0  0  0  0  0  0  0
   -1.0824   10.0704    1.9966 C   0  0  2  0  0  3  0  0  0  0  0  0
   -1.8578    4.9425    6.7607 C   0  0  0  0  0  0  0  0  0  0  0  0
   -2.7029    4.9873    7.4293 H   0  0  0  0  0  0  0  0  0  0  0  0
    0.3181   10.4286    2.4259 C   0  0  1  0  0  0  0  0  0  0  0  0
    0.9575   10.7472    1.5941 H   0  0  0  0  0  0  0  0  0  0  0  0
    1.4955    5.7341    3.1724 C   0  0  0  0  0  0  0  0  0  0  0  0
    2.2680    5.7060    2.4204 H   0  0  0  0  0  0  0  0  0  0  0  0
   -1.6620   10.4342    0.7974 C   0  0  0  0  0  0  0  0  0  0  0  0
   -1.1060   11.0154    0.0787 H   0  0  0  0  0  0  0  0  0  0  0  0
    1.3313    4.7062    4.0611 C   0  0  0  0  0  0  0  0  0  0  0  0
    1.9811    3.8443    4.0455 H   0  0  0  0  0  0  0  0  0  0  0  0
    2.0133    6.2268    8.4592 C   0  0  0  0  0  0  0  0  0  0  0  0
    2.8375    5.5687    8.6900 H   0  0  0  0  0  0  0  0  0  0  0  0
    0.1210   11.4992    3.4692 C   0  0  1  0  0  3  0  0  0  0  0  0
    0.3758   12.8436    3.2854 C   0  0  0  0  0  0  0  0  0  0  0  0
    0.7530   13.2014    2.3404 H   0  0  0  0  0  0  0  0  0  0  0  0
   -0.9890    3.8423    6.8173 C   0  0  0  0  0  0  0  0  0  0  0  0
   -1.1638    3.0585    7.5377 H   0  0  0  0  0  0  0  0  0  0  0  0
   -0.0749    7.9706    7.8473 C   0  0  0  0  0  0  0  0  0  0  0  0
   -0.8739    8.6549    7.6297 H   0  0  0  0  0  0  0  0  0  0  0  0
    0.0599    3.7586    5.9461 C   0  0  0  0  0  0  0  0  0  0  0  0
    0.7235    2.9069    5.9523 H   0  0  0  0  0  0  0  0  0  0  0  0
   -2.9665    8.9520    2.6774 C   0  0  0  0  0  0  0  0  0  0  0  0
   -3.4533    8.3739    3.4463 H   0  0  0  0  0  0  0  0  0  0  0  0
   -3.6178    9.2610    1.4955 C   0  0  0  0  0  0  0  0  0  0  0  0
   -4.6243    8.9125    1.3346 H   0  0  0  0  0  0  0  0  0  0  0  0
    3.2545    7.8437    5.3752 C   0  0  0  0  0  0  0  0  0  0  0  0
    4.1163    7.8900    4.7285 H   0  0  0  0  0  0  0  0  0  0  0  0
    3.2323    7.0237    6.4714 C   0  0  0  0  0  0  0  0  0  0  0  0
    4.0701    6.3859    6.7094 H   0  0  0  0  0  0  0  0  0  0  0  0
   -0.1187    7.1943    8.9729 C   0  0  0  0  0  0  0  0  0  0  0  0
   -0.9631    7.2728    9.6392 H   0  0  0  0  0  0  0  0  0  0  0  0
    0.8724    8.0308    2.3488 C   0  0  0  0  0  0  0  0  0  0  0  0
    1.8195    7.9359    1.8039 H   0  0  0  0  0  0  0  0  0  0  0  0
    0.0614    8.0494    1.6158 H   0  0  0  0  0  0  0  0  0  0  0  0
    2.0957    9.4727    3.8400 C   0  0  0  0  0  0  0  0  0  0  0  0
    2.1599   10.5196    4.1491 H   0  0  0  0  0  0  0  0  0  0  0  0
    2.9548    9.2562    3.1938 H   0  0  0  0  0  0  0  0  0  0  0  0
    0.9195    6.3000    9.2744 C   0  0  0  0  0  0  0  0  0  0  0  0
    0.8577    5.6874   10.1603 H   0  0  0  0  0  0  0  0  0  0  0  0
   -2.9655   10.0276    0.5425 C   0  0  0  0  0  0  0  0  0  0  0  0
   -3.4502   10.2973   -0.3818 H   0  0  0  0  0  0  0  0  0  0  0  0
   -0.5604   11.8270    5.6353 C   0  0  0  0  0  0  0  0  0  0  0  0
   -0.9382   11.3907    6.5459 H   0  0  0  0  0  0  0  0  0  0  0  0
    0.1421   13.7119    4.3440 C   0  0  0  0  0  0  0  0  0  0  0  0
    0.3263   14.7683    4.2340 H   0  0  0  0  0  0  0  0  0  0  0  0
   -0.3200   13.1868    5.5409 C   0  0  0  0  0  0  0  0  0  0  0  0
   -0.5038   13.8211    6.3919 H   0  0  0  0  0  0  0  0  0  0  0  0
  2  7  1  0  0  0  0
  2  4  1  0  0  0  0
  2  1  1  0  0  0  0
  3  2  1  0  0  0  0
  3  8  1  0  0  0  0
  4  9  1  0  0  0  0
  5 48  1  6  0  0  0
  5 51  1  0  0  0  0
  5  2  1  0  0  0  0
  6  2  1  0  0  0  0
  7 58  1  0  0  0  0
  8 13  1  6  0  0  0
  8 11  1  0  0  0  0
  9 10  1  1  0  0  0
  9 34  1  0  0  0  0
 10 27  1  0  0  0  0
 11 17  2  0  0  0  0
 12 11  1  0  0  0  0
 13 36  1  0  0  0  0
 14  3  1  0  0  0  0
 15 42  2  0  0  0  0
 15  4  1  0  0  0  0
 16 23  1  1  0  0  0
 16 19  1  0  0  0  0
 16  6  1  0  0  0  0
 17 32  1  0  0  0  0
 17 18  1  0  0  0  0
 19 20  1  6  0  0  0
 19  5  1  0  0  0  0
 19 29  1  0  0  0  0
 21 14  2  0  0  0  0
 21 25  1  0  0  0  0
 22 21  1  0  0  0  0
 24 23  1  0  0  0  0
 25 13  2  0  0  0  0
 26 25  1  0  0  0  0
 27 28  1  0  0  0  0
 27 54  2  0  0  0  0
 29 30  1  6  0  0  0
 29  7  1  0  0  0  0
 30 60  2  0  0  0  0
 31 30  1  0  0  0  0
 32 33  1  0  0  0  0
 34 46  2  0  0  0  0
 35 34  1  0  0  0  0
 36 37  1  0  0  0  0
 36 32  2  0  0  0  0
 38  6  1  0  0  0  0
 38 39  1  0  0  0  0
 40 38  2  0  0  0  0
 41 40  1  0  0  0  0
 42 44  1  0  0  0  0
 43 42  1  0  0  0  0
 44 45  1  0  0  0  0
 44 10  2  0  0  0  0
 46 54  1  0  0  0  0
 46 47  1  0  0  0  0
 48 14  1  0  0  0  0
 49 48  1  0  0  0  0
 50 48  1  0  0  0  0
 51 52  1  0  0  0  0
 51 15  1  0  0  0  0
 53 51  1  0  0  0  0
 54 55  1  0  0  0  0
 56 23  2  0  0  0  0
 56 40  1  0  0  0  0
 57 56  1  0  0  0  0
 58 59  1  0  0  0  0
 60 62  1  0  0  0  0
 61 60  1  0  0  0  0
 62 58  2  0  0  0  0
 62 63  1  0  0  0  0
M  END
$$$$
