CSD_code = OGETOK | q = 0 | S = 0 | Stoichiometry = C6H17Cl2NOPtS | MND = 4
 OpenBabel04212202073D

 29 28  0  0  0  0  0  0  0  0999 V2000
    7.1407    7.7689    5.3654 Pt  0  0  0  0  0  0  0  0  0  0  0  0
    4.9501    7.8650    6.0386 Cl  0  0  0  0  0  0  0  0  0  0  0  0
    9.2873    7.5562    4.5700 Cl  0  0  0  0  0  0  0  0  0  0  0  0
    7.2295    5.7459    6.2927 S   0  0  0  0  0  0  0  0  0  0  0  0
    6.4417    4.7365    5.6271 O   0  0  0  0  0  1  0  0  0  0  0  0
    6.9443    9.6169    4.3987 N   0  0  0  0  0  4  0  0  0  0  0  0
    7.5319    9.5500    3.5606 H   0  0  0  0  0  0  0  0  0  0  0  0
    5.9596    9.6502    4.1121 H   0  0  0  0  0  0  0  0  0  0  0  0
    7.2745   10.8716    5.1170 C   0  0  0  0  0  0  0  0  0  0  0  0
    6.3915   10.9541    6.3580 C   0  0  0  0  0  0  0  0  0  0  0  0
    6.6202   11.8504    6.9268 H   0  0  0  0  0  0  0  0  0  0  0  0
    6.5611   10.0809    6.9879 H   0  0  0  0  0  0  0  0  0  0  0  0
    5.3396   10.9708    6.0859 H   0  0  0  0  0  0  0  0  0  0  0  0
    8.7469   10.8219    5.5125 C   0  0  0  0  0  0  0  0  0  0  0  0
    8.9310    9.9465    6.1342 H   0  0  0  0  0  0  0  0  0  0  0  0
    9.0191   11.7133    6.0697 H   0  0  0  0  0  0  0  0  0  0  0  0
    9.3839   10.7512    4.6347 H   0  0  0  0  0  0  0  0  0  0  0  0
    7.0064   12.0550    4.1838 C   0  0  0  0  0  0  0  0  0  0  0  0
    7.6255   11.9925    3.2916 H   0  0  0  0  0  0  0  0  0  0  0  0
    7.2356   12.9888    4.6878 H   0  0  0  0  0  0  0  0  0  0  0  0
    5.9615   12.0816    3.8828 H   0  0  0  0  0  0  0  0  0  0  0  0
    6.7069    5.8203    8.0338 C   0  0  0  0  0  0  0  0  0  0  0  0
    5.6775    6.1631    8.0578 H   0  0  0  0  0  0  0  0  0  0  0  0
    7.3506    6.5290    8.5445 H   0  0  0  0  0  0  0  0  0  0  0  0
    6.7826    4.8297    8.4667 H   0  0  0  0  0  0  0  0  0  0  0  0
    8.8896    5.0505    6.5494 C   0  0  0  0  0  0  0  0  0  0  0  0
    8.7805    4.1012    7.0607 H   0  0  0  0  0  0  0  0  0  0  0  0
    9.4747    5.7560    7.1277 H   0  0  0  0  0  0  0  0  0  0  0  0
    9.3463    4.9022    5.5770 H   0  0  0  0  0  0  0  0  0  0  0  0
  1  2  1  0  0  0  0
  1  4  1  0  0  0  0
  3  1  1  0  0  0  0
  4 26  1  0  0  0  0
  4 22  1  0  0  0  0
  5  4  1  0  0  0  0
  6  9  1  0  0  0  0
  6  1  1  0  0  0  0
  7  6  1  0  0  0  0
  8  6  1  0  0  0  0
  9 14  1  0  0  0  0
  9 10  1  0  0  0  0
 10 11  1  0  0  0  0
 10 12  1  0  0  0  0
 13 10  1  0  0  0  0
 14 16  1  0  0  0  0
 14 15  1  0  0  0  0
 17 14  1  0  0  0  0
 18 20  1  0  0  0  0
 18  9  1  0  0  0  0
 19 18  1  0  0  0  0
 21 18  1  0  0  0  0
 22 23  1  0  0  0  0
 22 25  1  0  0  0  0
 22 24  1  0  0  0  0
 26 27  1  0  0  0  0
 26 28  1  0  0  0  0
 29 26  1  0  0  0  0
M  END
$$$$
