CSD_code = OGEVON | q = -1 | S = 0 | Stoichiometry = C15H11Cl2N2O2Zn(1-) | MND = 4
 OpenBabel04212202073D

 33 35  0  0  0  0  0  0  0  0999 V2000
    3.0149    3.3404   12.6754 Zn  0  0  0  0  0  0  0  0  0  0  0  0
    2.2930    5.1798   11.6609 Cl  0  0  0  0  0  0  0  0  0  0  0  0
    4.5675    2.0626   11.7310 Cl  0  0  0  0  0  0  0  0  0  0  0  0
    3.3153    3.5759   14.5730 O   0  0  0  0  0  0  0  0  0  0  0  0
    0.3014    2.4301   19.0167 O   0  0  0  0  0  0  0  0  0  0  0  0
    1.2596    2.2722   13.0128 N   0  0  0  0  0  0  0  0  0  0  0  0
   -2.1980    0.4091    7.5509 N   0  0  0  0  0  0  0  0  0  0  0  0
    2.5535    3.2679   15.5401 C   0  0  0  0  0  0  0  0  0  0  0  0
    1.2978    2.5868   15.4217 C   0  0  0  0  0  0  0  0  0  0  0  0
    0.5420    2.3032   16.5873 C   0  0  0  0  0  0  0  0  0  0  0  0
   -0.3992    1.7895   16.4502 H   0  0  0  0  0  0  0  0  0  0  0  0
    0.9737    2.6613   17.8341 C   0  0  0  0  0  0  0  0  0  0  0  0
    2.2103    3.3265   17.9636 C   0  0  0  0  0  0  0  0  0  0  0  0
    2.5362    3.5986   18.9566 H   0  0  0  0  0  0  0  0  0  0  0  0
    2.9622    3.6132   16.8671 C   0  0  0  0  0  0  0  0  0  0  0  0
    3.9089    4.1233   16.9619 H   0  0  0  0  0  0  0  0  0  0  0  0
    0.7391    2.1670   14.1940 C   0  0  0  0  0  3  0  0  0  0  0  0
   -0.2329    1.6613   14.2770 H   0  0  0  0  0  0  0  0  0  0  0  0
    0.5302    1.8917   11.9000 C   0  0  0  0  0  0  0  0  0  0  0  0
    1.1875    1.2519   10.8433 C   0  0  0  0  0  0  0  0  0  0  0  0
    2.2466    1.0589   10.9258 H   0  0  0  0  0  0  0  0  0  0  0  0
    0.4935    0.8771    9.7166 C   0  0  0  0  0  0  0  0  0  0  0  0
    1.0022    0.3796    8.9036 H   0  0  0  0  0  0  0  0  0  0  0  0
   -0.8765    1.1418    9.6135 C   0  0  0  0  0  0  0  0  0  0  0  0
   -1.5317    1.8072   10.6526 C   0  0  0  0  0  0  0  0  0  0  0  0
   -2.5845    2.0353   10.5593 H   0  0  0  0  0  0  0  0  0  0  0  0
   -0.8364    2.1752   11.7823 C   0  0  0  0  0  0  0  0  0  0  0  0
   -1.3361    2.7256   12.5663 H   0  0  0  0  0  0  0  0  0  0  0  0
   -1.5971    0.7445    8.4712 C   0  0  0  0  0  0  0  0  0  0  0  0
   -0.9451    1.7947   18.9422 C   0  0  0  0  0  0  0  0  0  0  0  0
   -1.6598    2.3746   18.3468 H   0  0  0  0  0  0  0  0  0  0  0  0
   -1.3066    1.7246   19.9679 H   0  0  0  0  0  0  0  0  0  0  0  0
   -0.8618    0.7865   18.5199 H   0  0  0  0  0  0  0  0  0  0  0  0
  1  6  1  0  0  0  0
  1  4  1  0  0  0  0
  2  1  1  0  0  0  0
  3  1  1  0  0  0  0
  4  8  1  0  0  0  0
  6 17  1  0  0  0  0
  7 29  3  0  0  0  0
  8 15  1  0  0  0  0
  9  8  2  0  0  0  0
  9 10  1  0  0  0  0
 10 12  2  0  0  0  0
 11 10  1  0  0  0  0
 12 13  1  0  0  0  0
 12  5  1  0  0  0  0
 13 14  1  0  0  0  0
 15 16  1  0  0  0  0
 15 13  2  0  0  0  0
 17 18  1  0  0  0  0
 17  9  1  0  0  0  0
 19  6  1  0  0  0  0
 20 21  1  0  0  0  0
 20 19  2  0  0  0  0
 22 20  1  0  0  0  0
 23 22  1  0  0  0  0
 24 22  2  0  0  0  0
 24 25  1  0  0  0  0
 25 27  2  0  0  0  0
 26 25  1  0  0  0  0
 27 19  1  0  0  0  0
 27 28  1  0  0  0  0
 29 24  1  0  0  0  0
 30  5  1  0  0  0  0
 30 32  1  0  0  0  0
 31 30  1  0  0  0  0
 33 30  1  0  0  0  0
M  END
$$$$
