CSD_code = OGEWAY | q = 0 | S = 0 | Stoichiometry = C8H9ClN4PtS | MND = 4
 OpenBabel04212202073D

 24 26  0  0  0  0  0  0  0  0999 V2000
    1.0224    0.6212    4.1419 Pt  0  0  1  0  0  0  0  0  0  0  0  0
    0.3548   -0.0878    2.1379 Cl  0  0  0  0  0  0  0  0  0  0  0  0
    0.9318    2.8976    3.7385 S   0  0  0  0  0  0  0  0  0  0  0  0
    1.2508   -1.2406    4.9529 N   0  0  0  0  0  0  0  0  0  0  0  0
    1.6103    1.1406    5.9057 N   0  0  0  0  0  0  0  0  0  0  0  0
    1.7549    2.4146    6.2716 N   0  0  0  0  0  0  0  0  0  0  0  0
    1.5729    4.5992    5.6361 N   0  0  0  0  0  0  0  0  0  0  0  0
    1.0398   -2.4235    4.3933 C   0  0  0  0  0  0  0  0  0  0  0  0
    0.7024   -2.4065    3.3646 H   0  0  0  0  0  0  0  0  0  0  0  0
    1.2375   -3.6105    5.0780 C   0  0  0  0  0  0  0  0  0  0  0  0
    1.0547   -4.5527    4.5887 H   0  0  0  0  0  0  0  0  0  0  0  0
    1.6727   -3.5554    6.3971 C   0  0  0  0  0  0  0  0  0  0  0  0
    1.8943   -2.3253    6.9831 C   0  0  0  0  0  0  0  0  0  0  0  0
    2.2320   -2.2527    8.0037 H   0  0  0  0  0  0  0  0  0  0  0  0
    1.6764   -1.1589    6.2410 C   0  0  0  0  0  0  0  0  0  0  0  0
    1.8732    0.1732    6.7532 C   0  0  0  0  0  0  0  0  0  0  0  0
    2.3430    0.4355    8.1486 C   0  0  0  0  0  0  0  0  0  0  0  0
    2.4017    1.5095    8.2996 H   0  0  0  0  0  0  0  0  0  0  0  0
    3.3268   -0.0030    8.3103 H   0  0  0  0  0  0  0  0  0  0  0  0
    1.6510    0.0090    8.8733 H   0  0  0  0  0  0  0  0  0  0  0  0
    1.4639    3.2947    5.3437 C   0  0  0  0  0  0  0  0  0  0  0  0
    1.8361   -4.4627    6.9586 H   0  0  0  0  0  0  0  0  0  0  0  0
    1.3796    5.2791    4.9232 H   0  0  0  0  0  0  0  0  0  0  0  0
    1.9029    4.8866    6.5401 H   0  0  0  0  0  0  0  0  0  0  0  0
  1  2  1  6  0  0  0
  1  4  1  0  0  0  0
  1  5  1  0  0  0  0
  3  1  1  0  0  0  0
  3 21  1  0  0  0  0
  4 15  1  0  0  0  0
  5  6  1  0  0  0  0
  5 16  1  0  0  0  0
  7 24  1  0  0  0  0
  8  4  1  0  0  0  0
  8 10  2  0  0  0  0
  9  8  1  0  0  0  0
 10 12  1  0  0  0  0
 11 10  1  0  0  0  0
 12 22  1  0  0  0  0
 12 13  2  0  0  0  0
 13 14  1  0  0  0  0
 15 16  2  0  0  0  0
 15 13  1  0  0  0  0
 16 17  1  0  0  0  0
 17 18  1  0  0  0  0
 17 19  1  0  0  0  0
 17 20  1  0  0  0  0
 21  7  1  0  0  0  0
 21  6  2  0  0  0  0
 23  7  1  0  0  0  0
M  END
$$$$
