CSD_code = OGOJEZ | q = 0 | S = 0 | Stoichiometry = C20H33Cl3N3O3Rh | MND = 6
 OpenBabel04212202073D

 63 67  0  0  1  0  0  0  0  0999 V2000
   11.1045   -0.2511    1.4746 Rh  0  0  0  0  0  0  0  0  0  0  0  0
    9.7465   -1.9922    1.0493 Cl  0  0  0  0  0  0  0  0  0  0  0  0
   12.7519   -1.6416    2.1146 Cl  0  0  0  0  0  0  0  0  0  0  0  0
   10.3447   -0.1150    3.5864 Cl  0  0  0  0  0  0  0  0  0  0  0  0
   11.4929    2.1952   -0.4207 C   0  0  2  0  0  0  0  0  0  0  0  0
   11.6810    3.3891   -1.3448 C   0  0  0  0  0  0  0  0  0  0  0  0
   11.6365    0.8737   -1.1368 C   0  0  1  0  0  3  0  0  0  0  0  0
   11.6456   -0.2479   -0.5351 N   0  0  2  0  0  0  0  0  0  0  0  0
   11.7723   -1.3135   -1.5173 C   0  0  2  0  0  0  0  0  0  0  0  0
   13.0240   -2.1689   -1.2545 C   0  0  0  0  0  0  0  0  0  0  0  0
   14.3006   -1.3331   -1.2297 C   0  0  0  0  0  0  0  0  0  0  0  0
   13.1067   -3.3038   -2.2698 C   0  0  0  0  0  0  0  0  0  0  0  0
   11.7668   -0.5266   -2.8503 C   0  0  0  0  0  0  0  0  0  0  0  0
   11.7214    0.8550   -2.4649 O   0  0  0  0  0  0  0  0  0  0  0  0
   10.1295    2.1679    0.2272 C   0  0  1  0  0  3  0  0  0  0  0  0
    9.7102    1.1914    0.9279 N   0  0  2  0  0  0  0  0  0  0  0  0
    8.3648    1.4861    1.3960 C   0  0  2  0  0  0  0  0  0  0  0  0
    7.3598    0.4437    0.8726 C   0  0  0  0  0  0  0  0  0  0  0  0
    7.3720    0.3454   -0.6504 C   0  0  0  0  0  0  0  0  0  0  0  0
    5.9641    0.7411    1.4101 C   0  0  0  0  0  0  0  0  0  0  0  0
    8.1549    2.9310    0.8826 C   0  0  0  0  0  0  0  0  0  0  0  0
    9.3213    3.2173    0.0969 O   0  0  0  0  0  0  0  0  0  0  0  0
   12.4932    2.1687    0.7094 C   0  0  1  0  0  3  0  0  0  0  0  0
   12.4373    1.3360    1.6704 N   0  0  2  0  0  0  0  0  0  0  0  0
   13.5552    1.5740    2.5707 C   0  0  2  0  0  0  0  0  0  0  0  0
   13.0657    1.9034    3.9920 C   0  0  0  0  0  0  0  0  0  0  0  0
   14.2562    2.1064    4.9233 C   0  0  0  0  0  0  0  0  0  0  0  0
   12.1170    3.0986    4.0136 C   0  0  0  0  0  0  0  0  0  0  0  0
   14.3172    2.7098    1.8460 C   0  0  0  0  0  0  0  0  0  0  0  0
   13.5099    3.0271    0.7029 O   0  0  0  0  0  0  0  0  0  0  0  0
   11.5414    4.3122   -0.7888 H   0  0  0  0  0  0  0  0  0  0  0  0
   12.6827    3.3763   -1.7656 H   0  0  0  0  0  0  0  0  0  0  0  0
   10.9560    3.3485   -2.1530 H   0  0  0  0  0  0  0  0  0  0  0  0
   10.8933   -1.9606   -1.4182 H   0  0  0  0  0  0  0  0  0  0  0  0
   12.8917   -2.5975   -0.2566 H   0  0  0  0  0  0  0  0  0  0  0  0
   15.1495   -1.9772   -1.0189 H   0  0  0  0  0  0  0  0  0  0  0  0
   14.4819   -0.8298   -2.1785 H   0  0  0  0  0  0  0  0  0  0  0  0
   14.2415   -0.5897   -0.4374 H   0  0  0  0  0  0  0  0  0  0  0  0
   13.9434   -3.9522   -2.0259 H   0  0  0  0  0  0  0  0  0  0  0  0
   12.1974   -3.8988   -2.2488 H   0  0  0  0  0  0  0  0  0  0  0  0
   13.2507   -2.9268   -3.2807 H   0  0  0  0  0  0  0  0  0  0  0  0
   10.8882   -0.7370   -3.4644 H   0  0  0  0  0  0  0  0  0  0  0  0
   12.6685   -0.6824   -3.4448 H   0  0  0  0  0  0  0  0  0  0  0  0
    8.3718    1.4335    2.4902 H   0  0  0  0  0  0  0  0  0  0  0  0
    7.6923   -0.5207    1.2684 H   0  0  0  0  0  0  0  0  0  0  0  0
    6.6656   -0.4161   -0.9687 H   0  0  0  0  0  0  0  0  0  0  0  0
    7.0960    1.2856   -1.1258 H   0  0  0  0  0  0  0  0  0  0  0  0
    8.3601    0.0492   -0.9966 H   0  0  0  0  0  0  0  0  0  0  0  0
    5.2812   -0.0483    1.1088 H   0  0  0  0  0  0  0  0  0  0  0  0
    5.9766    0.7851    2.4960 H   0  0  0  0  0  0  0  0  0  0  0  0
    5.5811    1.6864    1.0295 H   0  0  0  0  0  0  0  0  0  0  0  0
    8.1022    3.6642    1.6911 H   0  0  0  0  0  0  0  0  0  0  0  0
    7.2794    3.0380    0.2410 H   0  0  0  0  0  0  0  0  0  0  0  0
   14.1432    0.6505    2.6204 H   0  0  0  0  0  0  0  0  0  0  0  0
   12.5009    1.0282    4.3268 H   0  0  0  0  0  0  0  0  0  0  0  0
   13.9036    2.2529    5.9402 H   0  0  0  0  0  0  0  0  0  0  0  0
   14.9026    1.2330    4.9094 H   0  0  0  0  0  0  0  0  0  0  0  0
   14.8441    2.9769    4.6381 H   0  0  0  0  0  0  0  0  0  0  0  0
   11.7800    3.2732    5.0314 H   0  0  0  0  0  0  0  0  0  0  0  0
   12.5930    4.0089    3.6513 H   0  0  0  0  0  0  0  0  0  0  0  0
   11.2407    2.8876    3.4040 H   0  0  0  0  0  0  0  0  0  0  0  0
   15.3030    2.4008    1.4906 H   0  0  0  0  0  0  0  0  0  0  0  0
   14.4179    3.6130    2.4500 H   0  0  0  0  0  0  0  0  0  0  0  0
  1 24  1  0  0  0  0
  1  3  1  0  0  0  0
  1  4  1  0  0  0  0
  2  1  1  0  0  0  0
  5 15  1  0  0  0  0
  5 23  1  0  0  0  0
  6 31  1  0  0  0  0
  6  5  1  0  0  0  0
  7 14  1  6  0  0  0
  7  8  1  0  0  0  0
  7  5  1  0  0  0  0
  8  1  1  0  0  0  0
  9 34  1  0  0  0  0
  9 10  1  0  0  0  0
  9  8  1  0  0  0  0
 10 11  1  0  0  0  0
 10 35  1  0  0  0  0
 11 36  1  0  0  0  0
 11 38  1  0  0  0  0
 12 40  1  0  0  0  0
 12 39  1  0  0  0  0
 12 10  1  0  0  0  0
 13 14  1  0  0  0  0
 13  9  1  0  0  0  0
 15 16  1  0  0  0  0
 16 17  1  0  0  0  0
 16  1  1  0  0  0  0
 17 44  1  0  0  0  0
 18 45  1  0  0  0  0
 18 17  1  0  0  0  0
 18 20  1  0  0  0  0
 19 18  1  0  0  0  0
 20 50  1  0  0  0  0
 21 17  1  0  0  0  0
 21 52  1  0  0  0  0
 22 15  1  0  0  0  0
 22 21  1  0  0  0  0
 23 24  1  0  0  0  0
 24 25  1  0  0  0  0
 25 54  1  0  0  0  0
 25 26  1  0  0  0  0
 26 28  1  0  0  0  0
 26 55  1  0  0  0  0
 26 27  1  0  0  0  0
 27 56  1  0  0  0  0
 28 59  1  0  0  0  0
 29 63  1  0  0  0  0
 29 25  1  0  0  0  0
 30 23  1  0  0  0  0
 30 29  1  0  0  0  0
 32  6  1  0  0  0  0
 33  6  1  0  0  0  0
 37 11  1  0  0  0  0
 41 12  1  0  0  0  0
 42 13  1  0  0  0  0
 43 13  1  0  0  0  0
 46 19  1  0  0  0  0
 47 19  1  0  0  0  0
 48 19  1  0  0  0  0
 49 20  1  0  0  0  0
 51 20  1  0  0  0  0
 53 21  1  0  0  0  0
 57 27  1  0  0  0  0
 58 27  1  0  0  0  0
 60 28  1  0  0  0  0
 61 28  1  0  0  0  0
 62 29  1  0  0  0  0
M  END
$$$$
