CSD_code = OGOLOM | q = 0 | S = 0 | Stoichiometry = C10H28B10Cl4P2Pd | MND = 4
 OpenBabel04212202073D

 55 58  0  0  1  0  0  0  0  0999 V2000
    0.4904    9.9870    0.5197 Pd  0  0  0  0  0  0  0  0  0  0  0  0
    3.9423    9.8331   -0.7745 Cl  0  0  0  0  0  0  0  0  0  0  0  0
   -0.3945   10.1611    4.0830 Cl  0  0  0  0  0  0  0  0  0  0  0  0
    0.3451    9.6002   -1.7237 Cl  0  0  0  0  0  0  0  0  0  0  0  0
   -1.7654   10.2611    0.7185 Cl  0  0  0  0  0  0  0  0  0  0  0  0
    2.6269   10.6634    0.4347 P   0  0  1  0  0  0  0  0  0  0  0  0
    0.7367    9.3980    2.6657 P   0  0  1  0  0  0  0  0  0  0  0  0
    3.3977   10.5664    2.1489 C   0  0  2  0  0  0  0  0  0  0  0  0
    2.5073    9.6918    3.2251 C   0  0  1  0  0  0  0  0  0  0  0  0
    2.6286   12.4564   -0.1773 C   0  0  0  0  0  0  0  0  0  0  0  0
    1.8588   12.4405   -1.4999 C   0  0  0  0  0  0  0  0  0  0  0  0
    1.9002   13.4261   -1.9610 H   0  0  0  0  0  0  0  0  0  0  0  0
    0.8081   12.1852   -1.3324 H   0  0  0  0  0  0  0  0  0  0  0  0
    2.2726   11.7182   -2.2027 H   0  0  0  0  0  0  0  0  0  0  0  0
    4.0319   13.0067   -0.4212 C   0  0  0  0  0  0  0  0  0  0  0  0
    3.9605   14.0632   -0.6746 H   0  0  0  0  0  0  0  0  0  0  0  0
    4.5039   12.4936   -1.2558 H   0  0  0  0  0  0  0  0  0  0  0  0
    4.6750   12.9083    0.4475 H   0  0  0  0  0  0  0  0  0  0  0  0
    1.8296   13.3075    0.8099 C   0  0  0  0  0  0  0  0  0  0  0  0
    2.3887   13.5222    1.7161 H   0  0  0  0  0  0  0  0  0  0  0  0
    0.8890   12.7976    1.0683 H   0  0  0  0  0  0  0  0  0  0  0  0
    1.5708   14.2564    0.3421 H   0  0  0  0  0  0  0  0  0  0  0  0
    0.2990    7.5566    2.7777 C   0  0  0  0  0  0  0  0  0  0  0  0
    1.2838    6.7592    1.9231 C   0  0  0  0  0  0  0  0  0  0  0  0
    2.2480    6.6424    2.4097 H   0  0  0  0  0  0  0  0  0  0  0  0
    1.4172    7.2483    0.9471 H   0  0  0  0  0  0  0  0  0  0  0  0
    0.8786    5.7651    1.7391 H   0  0  0  0  0  0  0  0  0  0  0  0
    0.2354    7.0413    4.2133 C   0  0  0  0  0  0  0  0  0  0  0  0
    0.0680    5.9654    4.1983 H   0  0  0  0  0  0  0  0  0  0  0  0
   -0.5901    7.5015    4.7510 H   0  0  0  0  0  0  0  0  0  0  0  0
    1.1517    7.2348    4.7625 H   0  0  0  0  0  0  0  0  0  0  0  0
   -1.0815    7.4307    2.1285 C   0  0  0  0  0  0  0  0  0  0  0  0
   -1.4456    6.4096    2.2323 H   0  0  0  0  0  0  0  0  0  0  0  0
   -1.0287    7.6679    1.0598 H   0  0  0  0  0  0  0  0  0  0  0  0
   -1.8087    8.1001    2.5871 H   0  0  0  0  0  0  0  0  0  0  0  0
    4.3555   11.7315    2.9899 B   0  0  2  0  0  0  0  0  0  0  0  0
    5.0715   10.2630    2.3380 B   0  0  1  0  0  0  0  0  0  0  0  0
    5.4940   10.7916    3.9739 B   0  0  0  0  0  0  0  0  0  0  0  0
    4.0188   11.4833    4.7133 B   0  0  0  0  0  2  0  0  0  0  0  0
    2.7269   11.3548    3.5203 B   0  0  1  0  0  0  0  0  0  0  0  0
    3.8719    8.9627    2.4767 B   0  0  2  0  0  0  0  0  0  0  0  0
    5.1945    9.0578    3.6354 B   0  0  0  0  0  1  0  0  0  0  0  0
    4.5486    9.8192    5.1186 B   0  0  1  0  0  0  0  0  0  0  0  0
    2.8374   10.1680    4.8375 B   0  0  2  0  0  0  0  0  0  0  0  0
    3.5422    8.6975    4.1788 B   0  0  1  0  0  0  0  0  0  0  0  0
    4.5640   12.7739    2.4984 H   0  0  0  0  0  0  0  0  0  0  0  0
    5.7429   10.3120    1.3788 H   0  0  0  0  0  0  0  0  0  0  0  0
    6.5664   11.1995    4.2184 H   0  0  0  0  0  0  0  0  0  0  0  0
    4.0470   12.3696    5.4812 H   0  0  0  0  0  0  0  0  0  0  0  0
    1.7809   12.0304    3.3630 H   0  0  0  0  0  0  0  0  0  0  0  0
    3.6905    8.1888    1.6160 H   0  0  0  0  0  0  0  0  0  0  0  0
    6.0415    8.2466    3.6533 H   0  0  0  0  0  0  0  0  0  0  0  0
    4.9392    9.5361    6.1880 H   0  0  0  0  0  0  0  0  0  0  0  0
    1.9634   10.1010    5.6145 H   0  0  0  0  0  0  0  0  0  0  0  0
    3.1678    7.6429    4.5252 H   0  0  0  0  0  0  0  0  0  0  0  0
  1  5  1  0  0  0  0
  1  7  1  0  0  0  0
  4  1  1  0  0  0  0
  6  2  1  6  0  0  0
  6  1  1  0  0  0  0
  7 23  1  0  0  0  0
  7  3  1  1  0  0  0
  8 37  1  0  0  0  0
  8 41  1  0  0  0  0
  8  9  1  0  0  0  0
  8 40  1  0  0  0  0
  9 40  1  0  0  0  0
  9 44  1  0  0  0  0
 10  6  1  0  0  0  0
 10 19  1  0  0  0  0
 11 13  1  0  0  0  0
 11 10  1  0  0  0  0
 12 11  1  0  0  0  0
 14 11  1  0  0  0  0
 15 10  1  0  0  0  0
 15 18  1  0  0  0  0
 16 15  1  0  0  0  0
 17 15  1  0  0  0  0
 19 21  1  0  0  0  0
 19 20  1  0  0  0  0
 22 19  1  0  0  0  0
 23 28  1  0  0  0  0
 24 25  1  0  0  0  0
 24 23  1  0  0  0  0
 26 24  1  0  0  0  0
 27 24  1  0  0  0  0
 28 30  1  0  0  0  0
 28 31  1  0  0  0  0
 29 28  1  0  0  0  0
 32 33  1  0  0  0  0
 32 35  1  0  0  0  0
 32 23  1  0  0  0  0
 34 32  1  0  0  0  0
 36 40  1  0  0  0  0
 36 39  1  0  0  0  0
 37 36  1  0  0  0  0
 37 38  1  0  0  0  0
 38 48  1  0  0  0  0
 38 43  1  0  0  0  0
 39 49  1  0  0  0  0
 41  9  1  0  0  0  0
 41 45  1  0  0  0  0
 42 52  1  0  0  0  0
 43 53  1  0  0  0  0
 44 43  1  0  0  0  0
 44 54  1  0  0  0  0
 45 55  1  0  0  0  0
 45 44  1  0  0  0  0
 45 43  1  0  0  0  0
 46 36  1  0  0  0  0
 47 37  1  0  0  0  0
 50 40  1  0  0  0  0
 51 41  1  0  0  0  0
M  END
$$$$
