CSD_code = OGOLEC | q = 0 | S = 0 | Stoichiometry = C14H20B10Cl4P2Pt | MND = 4
 OpenBabel04212202073D

 51 58  0  0  1  0  0  0  0  0999 V2000
    0.5382    3.0124    0.1271 Pt  0  0  0  0  0  0  0  0  0  0  0  0
   -0.7418    0.0401   -1.5978 Cl  0  0  0  0  0  0  0  0  0  0  0  0
    2.8538    5.4843   -1.2071 Cl  0  0  0  0  0  0  0  0  0  0  0  0
    1.3142    4.2741    1.8896 Cl  0  0  0  0  0  0  0  0  0  0  0  0
   -1.3994    2.3019    1.1433 Cl  0  0  0  0  0  0  0  0  0  0  0  0
   -0.2007    1.9241   -1.7006 P   0  0  1  0  0  0  0  0  0  0  0  0
    2.4492    3.5824   -0.9156 P   0  0  1  0  0  0  0  0  0  0  0  0
    1.1158    1.9925   -3.0150 C   0  0  2  0  0  0  0  0  0  0  0  0
    2.4606    2.8138   -2.6098 C   0  0  2  0  0  0  0  0  0  0  0  0
   -1.6457    2.7435   -2.4305 C   0  0  0  0  0  0  0  0  0  0  0  0
   -1.8833    4.0548   -2.0319 C   0  0  0  0  0  0  0  0  0  0  0  0
   -1.2200    4.5214   -1.3073 H   0  0  0  0  0  0  0  0  0  0  0  0
   -2.9745    4.7427   -2.5278 C   0  0  0  0  0  0  0  0  0  0  0  0
   -3.1616    5.7574   -2.2117 H   0  0  0  0  0  0  0  0  0  0  0  0
   -3.8339    4.1199   -3.4189 C   0  0  0  0  0  0  0  0  0  0  0  0
   -4.6911    4.6530   -3.8016 H   0  0  0  0  0  0  0  0  0  0  0  0
   -3.6063    2.8093   -3.8073 C   0  0  0  0  0  0  0  0  0  0  0  0
   -4.2850    2.3227   -4.4914 H   0  0  0  0  0  0  0  0  0  0  0  0
   -2.5156    2.1158   -3.3145 C   0  0  0  0  0  0  0  0  0  0  0  0
   -2.3453    1.0898   -3.6063 H   0  0  0  0  0  0  0  0  0  0  0  0
    3.9407    2.9525   -0.0996 C   0  0  0  0  0  0  0  0  0  0  0  0
    5.2098    3.4735   -0.3246 C   0  0  0  0  0  0  0  0  0  0  0  0
    5.3465    4.2876   -1.0215 H   0  0  0  0  0  0  0  0  0  0  0  0
    6.2934    2.9480    0.3553 C   0  0  0  0  0  0  0  0  0  0  0  0
    7.2795    3.3527    0.1846 H   0  0  0  0  0  0  0  0  0  0  0  0
    6.1149    1.9114    1.2578 C   0  0  0  0  0  0  0  0  0  0  0  0
    6.9641    1.5107    1.7903 H   0  0  0  0  0  0  0  0  0  0  0  0
    4.8488    1.3982    1.4897 C   0  0  0  0  0  0  0  0  0  0  0  0
    4.7083    0.6020    2.2044 H   0  0  0  0  0  0  0  0  0  0  0  0
    3.7618    1.9195    0.8138 C   0  0  0  0  0  0  0  0  0  0  0  0
    2.7596    1.5493    1.0103 H   0  0  0  0  0  0  0  0  0  0  0  0
    2.5336    1.1058   -2.6651 B   0  0  2  0  0  0  0  0  0  0  0  0
    1.4863    0.6607   -4.0225 B   0  0  1  0  0  0  0  0  0  0  0  0
    0.7835    2.1430   -4.6825 B   0  0  2  0  0  0  0  0  0  0  0  0
    1.3973    3.5119   -3.7518 B   0  0  2  0  0  0  0  0  0  0  0  0
    3.8503    2.0960   -3.3019 B   0  0  2  0  0  0  0  0  0  0  0  0
    3.2462    0.7114   -4.2300 B   0  0  0  0  0  0  0  0  0  0  0  0
    2.1564    1.3688   -5.4994 B   0  0  1  0  0  0  0  0  0  0  0  0
    2.0938    3.1530   -5.3296 B   0  0  0  0  0  0  0  0  0  0  0  0
    3.1537    3.5775   -3.9703 B   0  0  1  0  0  0  0  0  0  0  0  0
    3.6278    2.2588   -5.0537 B   0  0  1  0  0  0  0  0  0  0  0  0
    2.5576    0.5469   -1.6305 H   0  0  0  0  0  0  0  0  0  0  0  0
    0.8262   -0.3027   -3.9343 H   0  0  0  0  0  0  0  0  0  0  0  0
   -0.3402    2.1585   -5.0198 H   0  0  0  0  0  0  0  0  0  0  0  0
    0.7386    4.4102   -3.3765 H   0  0  0  0  0  0  0  0  0  0  0  0
    4.8543    2.1443   -2.6968 H   0  0  0  0  0  0  0  0  0  0  0  0
    3.8831   -0.2613   -4.3835 H   0  0  0  0  0  0  0  0  0  0  0  0
    2.0285    0.8403   -6.5389 H   0  0  0  0  0  0  0  0  0  0  0  0
    1.9352    3.8698   -6.2442 H   0  0  0  0  0  0  0  0  0  0  0  0
    3.7037    4.5995   -3.8092 H   0  0  0  0  0  0  0  0  0  0  0  0
    4.5448    2.3666   -5.7774 H   0  0  0  0  0  0  0  0  0  0  0  0
  1  5  1  0  0  0  0
  1  4  1  0  0  0  0
  6  2  1  1  0  0  0
  6  1  1  0  0  0  0
  7  3  1  1  0  0  0
  7 21  1  0  0  0  0
  7  1  1  0  0  0  0
  8 32  1  0  0  0  0
  8  9  1  0  0  0  0
 10 11  1  0  0  0  0
 10  6  1  0  0  0  0
 11 12  1  0  0  0  0
 13 14  1  0  0  0  0
 13 11  2  0  0  0  0
 15 13  1  0  0  0  0
 16 15  1  0  0  0  0
 17 15  2  0  0  0  0
 17 19  1  0  0  0  0
 18 17  1  0  0  0  0
 19 10  2  0  0  0  0
 20 19  1  0  0  0  0
 21 30  1  0  0  0  0
 22 21  2  0  0  0  0
 22 24  1  0  0  0  0
 23 22  1  0  0  0  0
 24 26  2  0  0  0  0
 25 24  1  0  0  0  0
 26 28  1  0  0  0  0
 26 27  1  0  0  0  0
 28 29  1  0  0  0  0
 30 31  1  0  0  0  0
 30 28  2  0  0  0  0
 32  9  1  0  0  0  0
 32 42  1  0  0  0  0
 33 43  1  0  0  0  0
 33  8  1  0  0  0  0
 34 33  1  0  0  0  0
 34 35  1  0  0  0  0
 34  8  1  0  0  0  0
 35 45  1  0  0  0  0
 35  9  1  0  0  0  0
 36 46  1  0  0  0  0
 37 36  1  0  0  0  0
 37 32  1  0  0  0  0
 38 39  1  0  0  0  0
 38 41  1  0  0  0  0
 38 33  1  0  0  0  0
 39 35  1  0  0  0  0
 40 50  1  0  0  0  0
 40 36  1  0  0  0  0
 40  9  1  0  0  0  0
 41 40  1  0  0  0  0
 41 36  1  0  0  0  0
 44 34  1  0  0  0  0
 47 37  1  0  0  0  0
 48 38  1  0  0  0  0
 49 39  1  0  0  0  0
 51 41  1  0  0  0  0
M  END
$$$$
