CSD_code = OGOMUT | q = 0 | S = 0 | Stoichiometry = C13H10Cl2N4Pt | MND = 4
 OpenBabel04212202073D

 30 33  0  0  0  0  0  0  0  0999 V2000
    2.1759   -1.0564   -1.1476 Pt  0  0  0  0  0  0  0  0  0  0  0  0
    1.2430   -1.5635    0.5919 N   0  0  0  0  0  0  0  0  0  0  0  0
    2.1853    0.7011   -0.2815 N   0  0  0  0  0  0  0  0  0  0  0  0
    2.5997    1.8725   -0.5909 N   0  0  0  0  0  2  0  0  0  0  0  0
    2.3193    2.6912    0.4174 N   0  0  0  0  0  0  0  0  0  0  0  0
    3.2117   -0.3401   -2.9816 Cl  0  0  0  0  0  0  0  0  0  0  0  0
    2.0825   -3.1112   -1.9925 Cl  0  0  0  0  0  0  0  0  0  0  0  0
    0.7964   -2.7689    0.9376 C   0  0  0  0  0  3  0  0  0  0  0  0
    0.9481   -3.5496    0.2025 H   0  0  0  0  0  0  0  0  0  0  0  0
    0.1813   -3.0073    2.1526 C   0  0  0  0  0  0  0  0  0  0  0  0
   -0.1652   -3.9995    2.3912 H   0  0  0  0  0  0  0  0  0  0  0  0
    0.0194   -1.9587    3.0508 C   0  0  0  0  0  0  0  0  0  0  0  0
   -0.4563   -2.1176    4.0059 H   0  0  0  0  0  0  0  0  0  0  0  0
    0.4806   -0.7036    2.6971 C   0  0  0  0  0  0  0  0  0  0  0  0
    0.3773    0.1399    3.3610 H   0  0  0  0  0  0  0  0  0  0  0  0
    1.0892   -0.5354    1.4580 C   0  0  0  0  0  0  0  0  0  0  0  0
    1.6117    0.7153    0.9627 C   0  0  0  0  0  0  0  0  0  0  0  0
    1.7010    2.0152    1.4149 C   0  0  0  0  0  0  0  0  0  0  0  0
    1.3918    2.4627    2.3341 H   0  0  0  0  0  0  0  0  0  0  0  0
    2.6658    4.0492    0.3417 C   0  0  0  0  0  0  0  0  0  0  0  0
    2.2080    4.9660    1.2813 C   0  0  0  0  0  0  0  0  0  0  0  0
    1.5654    4.6593    2.0917 H   0  0  0  0  0  0  0  0  0  0  0  0
    2.5727    6.2953    1.1645 C   0  0  0  0  0  0  0  0  0  0  0  0
    2.2169    7.0086    1.8920 H   0  0  0  0  0  0  0  0  0  0  0  0
    3.3834    6.7111    0.1212 C   0  0  0  0  0  0  0  0  0  0  0  0
    3.6618    7.7502    0.0375 H   0  0  0  0  0  0  0  0  0  0  0  0
    3.8320    5.7930   -0.8155 C   0  0  0  0  0  0  0  0  0  0  0  0
    4.4608    6.1140   -1.6312 H   0  0  0  0  0  0  0  0  0  0  0  0
    3.4777    4.4618   -0.7115 C   0  0  0  0  0  0  0  0  0  0  0  0
    3.8119    3.7307   -1.4299 H   0  0  0  0  0  0  0  0  0  0  0  0
  1  3  1  0  0  0  0
  1  2  1  0  0  0  0
  2  8  1  0  0  0  0
  2 16  1  0  0  0  0
  3 17  1  0  0  0  0
  4  3  1  0  0  0  0
  4  5  1  0  0  0  0
  5 18  1  0  0  0  0
  6  1  1  0  0  0  0
  7  1  1  0  0  0  0
  8 10  1  0  0  0  0
  9  8  1  0  0  0  0
 10 11  1  0  0  0  0
 10 12  2  0  0  0  0
 12 13  1  0  0  0  0
 14 12  1  0  0  0  0
 14 15  1  0  0  0  0
 16 14  2  0  0  0  0
 17 18  2  0  0  0  0
 17 16  1  0  0  0  0
 18 19  1  0  0  0  0
 20  5  1  0  0  0  0
 20 21  1  0  0  0  0
 21 22  1  0  0  0  0
 23 21  2  0  0  0  0
 23 24  1  0  0  0  0
 25 23  1  0  0  0  0
 26 25  1  0  0  0  0
 27 29  1  0  0  0  0
 27 25  2  0  0  0  0
 28 27  1  0  0  0  0
 29 20  2  0  0  0  0
 30 29  1  0  0  0  0
M  END
$$$$
