CSD_code = OGONUT | q = 0 | S = 0 | Stoichiometry = C4H12Cl2PdS2 | MND = 4
 OpenBabel04212202073D

 21 20  0  0  0  0  0  0  0  0999 V2000
    2.7634    2.9696    4.8299 Pd  0  0  0  0  0  0  0  0  0  0  0  0
    0.6076    3.5576    5.3405 Cl  0  0  0  0  0  0  0  0  0  0  0  0
    2.3828    3.9364    2.7581 S   0  0  0  0  0  3  0  0  0  0  0  0
    3.4875    3.2145    1.5150 C   0  0  0  0  0  0  0  0  0  0  0  0
    3.3873    5.3801    3.2379 C   0  0  0  0  0  0  0  0  0  0  0  0
    2.9906    2.3343    1.1176 H   0  0  0  0  0  0  0  0  0  0  0  0
    3.6349    3.9464    0.7256 H   0  0  0  0  0  0  0  0  0  0  0  0
    4.4282    2.9344    1.9855 H   0  0  0  0  0  0  0  0  0  0  0  0
    3.4147    6.0852    2.4104 H   0  0  0  0  0  0  0  0  0  0  0  0
    2.8988    5.8387    4.1014 H   0  0  0  0  0  0  0  0  0  0  0  0
    4.3928    5.0434    3.4980 H   0  0  0  0  0  0  0  0  0  0  0  0
    4.9200    2.3815    4.3191 Cl  0  0  0  0  0  0  0  0  0  0  0  0
    3.1456    2.0037    6.9017 S   0  0  0  0  0  3  0  0  0  0  0  0
    2.0403    2.7250    8.1448 C   0  0  0  0  0  0  0  0  0  0  0  0
    2.5368    3.6053    8.5422 H   0  0  0  0  0  0  0  0  0  0  0  0
    1.8930    1.9929    8.9341 H   0  0  0  0  0  0  0  0  0  0  0  0
    1.0996    3.0047    7.6742 H   0  0  0  0  0  0  0  0  0  0  0  0
    2.1416    0.5598    6.4216 C   0  0  0  0  0  0  0  0  0  0  0  0
    2.1141   -0.1454    7.2490 H   0  0  0  0  0  0  0  0  0  0  0  0
    2.6305    0.1014    5.5582 H   0  0  0  0  0  0  0  0  0  0  0  0
    1.1360    0.8961    6.1611 H   0  0  0  0  0  0  0  0  0  0  0  0
  1  2  1  0  0  0  0
  1 13  1  0  0  0  0
  3  5  1  0  0  0  0
  3  1  1  0  0  0  0
  4  8  1  0  0  0  0
  4  3  1  0  0  0  0
  5 11  1  0  0  0  0
  5 10  1  0  0  0  0
  6  4  1  0  0  0  0
  7  4  1  0  0  0  0
  9  5  1  0  0  0  0
 12  1  1  0  0  0  0
 13 14  1  0  0  0  0
 14 15  1  0  0  0  0
 14 16  1  0  0  0  0
 17 14  1  0  0  0  0
 18 13  1  0  0  0  0
 18 19  1  0  0  0  0
 20 18  1  0  0  0  0
 21 18  1  0  0  0  0
M  END
$$$$
