CSD_code = OGULEH | q = -1 | S = 0 | Stoichiometry = C14H24Cl3Pd(1-) | MND = 7
 OpenBabel04212202073D

 42 39  0  0  1  0  0  0  0  0999 V2000
    0.4322    7.1704   -8.9241 Pd  0  0  0  0  0  0  0  0  0  0  0  0
   -0.2347    7.8314  -11.1669 Cl  0  0  0  0  0 15  0  0  0  0  0  0
   -0.9182    5.2194   -8.9172 Cl  0  0  0  0  0 15  0  0  0  0  0  0
    2.4218    5.9295   -9.6062 Cl  0  0  0  0  0 15  0  0  0  0  0  0
   -0.4003    8.6457   -7.7865 C   0  0  1  0  0  0  0  0  0  0  0  0
    0.3877    7.7453   -6.9245 C   0  0  1  0  0  3  0  0  0  0  0  0
    1.6090    8.2733   -7.5062 C   0  0  0  0  0  0  0  0  0  0  0  0
    0.8608    9.1299   -8.3727 C   0  0  0  0  0  0  0  0  0  0  0  0
   -1.7997    9.2008   -7.8411 C   0  0  0  0  0  0  0  0  0  0  0  0
   -1.8874   10.2379   -8.9679 C   0  0  0  0  0  0  0  0  0  0  0  0
   -2.9144   10.5848   -9.0689 H   0  0  0  0  0  0  0  0  0  0  0  0
   -1.5834    9.7783   -9.9074 H   0  0  0  0  0  0  0  0  0  0  0  0
   -1.2554   11.0991   -8.7642 H   0  0  0  0  0  0  0  0  0  0  0  0
   -2.8071    8.0893   -8.1638 C   0  0  0  0  0  0  0  0  0  0  0  0
   -2.8521    7.3425   -7.3787 H   0  0  0  0  0  0  0  0  0  0  0  0
   -2.5082    7.5910   -9.0884 H   0  0  0  0  0  0  0  0  0  0  0  0
   -3.8008    8.5139   -8.3009 H   0  0  0  0  0  0  0  0  0  0  0  0
   -2.1385    9.8745   -6.5027 C   0  0  0  0  0  0  0  0  0  0  0  0
   -2.1214    9.1564   -5.6868 H   0  0  0  0  0  0  0  0  0  0  0  0
   -3.1325   10.3158   -6.5511 H   0  0  0  0  0  0  0  0  0  0  0  0
   -1.4201   10.6632   -6.2807 H   0  0  0  0  0  0  0  0  0  0  0  0
    0.2275    6.8446   -5.7280 C   0  0  0  0  0  0  0  0  0  0  0  0
   -1.1841    6.2703   -5.5976 C   0  0  0  0  0  0  0  0  0  0  0  0
   -1.9153    7.0507   -5.3999 H   0  0  0  0  0  0  0  0  0  0  0  0
   -1.2163    5.5621   -4.7708 H   0  0  0  0  0  0  0  0  0  0  0  0
   -1.4447    5.7444   -6.5160 H   0  0  0  0  0  0  0  0  0  0  0  0
    0.5785    7.6520   -4.4657 C   0  0  0  0  0  0  0  0  0  0  0  0
   -0.1072    8.4889   -4.3424 H   0  0  0  0  0  0  0  0  0  0  0  0
    1.5903    8.0478   -4.5245 H   0  0  0  0  0  0  0  0  0  0  0  0
    0.5082    7.0141   -3.5865 H   0  0  0  0  0  0  0  0  0  0  0  0
    1.2013    5.6663   -5.8905 C   0  0  0  0  0  0  0  0  0  0  0  0
    1.0379    4.9331   -5.1025 H   0  0  0  0  0  0  0  0  0  0  0  0
    2.2366    5.9922   -5.8495 H   0  0  0  0  0  0  0  0  0  0  0  0
    1.0295    5.1837   -6.8560 H   0  0  0  0  0  0  0  0  0  0  0  0
    3.0715    8.1355   -7.2715 C   0  0  0  0  0  0  0  0  0  0  0  0
    3.2934    8.0126   -6.2117 H   0  0  0  0  0  0  0  0  0  0  0  0
    3.5895    9.0195   -7.6446 H   0  0  0  0  0  0  0  0  0  0  0  0
    3.4529    7.2635   -7.8172 H   0  0  0  0  0  0  0  0  0  0  0  0
    1.3016   10.2269   -9.2797 C   0  0  0  0  0  0  0  0  0  0  0  0
    0.7686   10.1800  -10.2296 H   0  0  0  0  0  0  0  0  0  0  0  0
    2.3680   10.1200   -9.4802 H   0  0  0  0  0  0  0  0  0  0  0  0
    1.1252   11.2035   -8.8208 H   0  0  0  0  0  0  0  0  0  0  0  0
  5  1  1  6  0  0  0
  5  6  1  0  0  0  0
  6 22  1  1  0  0  0
  7 35  1  0  0  0  0
  7  6  1  0  0  0  0
  8  5  1  0  0  0  0
  8  7  2  0  0  0  0
  9  5  1  0  0  0  0
  9 18  1  0  0  0  0
 10 13  1  0  0  0  0
 10  9  1  0  0  0  0
 11 10  1  0  0  0  0
 12 10  1  0  0  0  0
 14  9  1  0  0  0  0
 14 15  1  0  0  0  0
 16 14  1  0  0  0  0
 17 14  1  0  0  0  0
 18 21  1  0  0  0  0
 18 19  1  0  0  0  0
 20 18  1  0  0  0  0
 22 23  1  0  0  0  0
 22 27  1  0  0  0  0
 23 24  1  0  0  0  0
 23 25  1  0  0  0  0
 26 23  1  0  0  0  0
 27 28  1  0  0  0  0
 27 30  1  0  0  0  0
 29 27  1  0  0  0  0
 31 33  1  0  0  0  0
 31 22  1  0  0  0  0
 31 32  1  0  0  0  0
 34 31  1  0  0  0  0
 35 36  1  0  0  0  0
 37 35  1  0  0  0  0
 38 35  1  0  0  0  0
 39 42  1  0  0  0  0
 39  8  1  0  0  0  0
 40 39  1  0  0  0  0
 41 39  1  0  0  0  0
M  END
$$$$
