CSD_code = OGUYAQ | q = 0 | S = 0 | Stoichiometry = C28H27I2IrOP2S | MND = 6
 OpenBabel04212202073D

 62 66  0  0  0  0  0  0  0  0999 V2000
    3.6156   12.6243   13.6129 Ir  0  0  0  0  0  0  0  0  0  0  0  0
    3.6999   15.0449   14.7641 I   0  0  0  0  0  0  0  0  0  0  0  0
    4.1470   11.1481   15.9511 I   0  0  0  0  0  0  0  0  0  0  0  0
    6.6867   10.9532   13.3503 P   0  0  0  0  0  4  0  0  0  0  0  0
    3.7717   10.4730   12.7161 P   0  0  0  0  0  4  0  0  0  0  0  0
    6.0575   12.7669   12.9096 S   0  0  0  0  0  0  0  0  0  0  0  0
    0.7127   12.7301   14.3533 O   0  0  0  0  0  1  0  0  0  0  0  0
    1.8162   12.6566   14.0531 C   0  0  0  0  0  2  0  0  0  0  0  0
    3.2500   13.5425   11.7189 C   0  0  0  0  0  0  0  0  0  0  0  0
    3.8035   14.4834   11.7219 H   0  0  0  0  0  0  0  0  0  0  0  0
    3.7147   12.8961   10.9691 H   0  0  0  0  0  0  0  0  0  0  0  0
    1.8138   13.8142   11.3204 C   0  0  0  0  0  0  0  0  0  0  0  0
    1.8013   14.2769   10.3309 H   0  0  0  0  0  0  0  0  0  0  0  0
    1.3294   14.5021   12.0109 H   0  0  0  0  0  0  0  0  0  0  0  0
    1.2279   12.8968   11.2635 H   0  0  0  0  0  0  0  0  0  0  0  0
    5.3902    9.6526   13.1236 C   0  0  0  0  0  0  0  0  0  0  0  0
    5.2584    9.0930   14.0545 H   0  0  0  0  0  0  0  0  0  0  0  0
    5.6815    8.9723   12.3162 H   0  0  0  0  0  0  0  0  0  0  0  0
    8.0239   10.4841   12.2051 C   0  0  0  0  0  0  0  0  0  0  0  0
    8.5142    9.1826   12.2071 C   0  0  0  0  0  0  0  0  0  0  0  0
    8.0953    8.4443   12.8768 H   0  0  0  0  0  0  0  0  0  0  0  0
    9.5422    8.8368   11.3509 C   0  0  0  0  0  0  0  0  0  0  0  0
    9.9213    7.8257   11.3497 H   0  0  0  0  0  0  0  0  0  0  0  0
   10.0861    9.7851   10.4981 C   0  0  0  0  0  0  0  0  0  0  0  0
   10.8888    9.5098    9.8309 H   0  0  0  0  0  0  0  0  0  0  0  0
    9.6047   11.0833   10.5035 C   0  0  0  0  0  0  0  0  0  0  0  0
   10.0299   11.8241    9.8433 H   0  0  0  0  0  0  0  0  0  0  0  0
    8.5754   11.4359   11.3580 C   0  0  0  0  0  0  0  0  0  0  0  0
    8.1905   12.4467   11.3654 H   0  0  0  0  0  0  0  0  0  0  0  0
    7.4634   10.7844   14.9842 C   0  0  0  0  0  0  0  0  0  0  0  0
    7.8975   11.9513   15.6004 C   0  0  0  0  0  0  0  0  0  0  0  0
    7.7176   12.9088   15.1291 H   0  0  0  0  0  0  0  0  0  0  0  0
    8.5210   11.8833   16.8318 C   0  0  0  0  0  0  0  0  0  0  0  0
    8.8413   12.7907   17.3199 H   0  0  0  0  0  0  0  0  0  0  0  0
    8.7170   10.6544   17.4388 C   0  0  0  0  0  0  0  0  0  0  0  0
    9.1943   10.6009   18.4053 H   0  0  0  0  0  0  0  0  0  0  0  0
    8.2912    9.4915   16.8165 C   0  0  0  0  0  0  0  0  0  0  0  0
    8.4372    8.5354   17.2960 H   0  0  0  0  0  0  0  0  0  0  0  0
    7.6653    9.5487   15.5864 C   0  0  0  0  0  0  0  0  0  0  0  0
    7.3167    8.6392   15.1176 H   0  0  0  0  0  0  0  0  0  0  0  0
    3.7796   10.3838   10.8998 C   0  0  0  0  0  0  0  0  0  0  0  0
    4.9420   10.5375   10.1518 C   0  0  0  0  0  0  0  0  0  0  0  0
    5.9028   10.6430   10.6428 H   0  0  0  0  0  0  0  0  0  0  0  0
    4.8781   10.5714    8.7707 C   0  0  0  0  0  0  0  0  0  0  0  0
    5.7860   10.6871    8.1971 H   0  0  0  0  0  0  0  0  0  0  0  0
    3.6551   10.4669    8.1295 C   0  0  0  0  0  0  0  0  0  0  0  0
    3.6081   10.4971    7.0515 H   0  0  0  0  0  0  0  0  0  0  0  0
    2.4907   10.3351    8.8707 C   0  0  0  0  0  0  0  0  0  0  0  0
    1.5359   10.2653    8.3716 H   0  0  0  0  0  0  0  0  0  0  0  0
    2.5496   10.3022   10.2501 C   0  0  0  0  0  0  0  0  0  0  0  0
    1.6455   10.2079   10.8380 H   0  0  0  0  0  0  0  0  0  0  0  0
    2.6308    9.1142   13.1114 C   0  0  0  0  0  0  0  0  0  0  0  0
    2.8198    7.8879   12.4756 C   0  0  0  0  0  0  0  0  0  0  0  0
    3.6180    7.7682   11.7541 H   0  0  0  0  0  0  0  0  0  0  0  0
    1.9776    6.8294   12.7536 C   0  0  0  0  0  0  0  0  0  0  0  0
    2.1285    5.8808   12.2596 H   0  0  0  0  0  0  0  0  0  0  0  0
    0.9418    6.9850   13.6622 C   0  0  0  0  0  0  0  0  0  0  0  0
    0.2867    6.1546   13.8782 H   0  0  0  0  0  0  0  0  0  0  0  0
    0.7474    8.2033   14.2893 C   0  0  0  0  0  0  0  0  0  0  0  0
   -0.0576    8.3295   14.9967 H   0  0  0  0  0  0  0  0  0  0  0  0
    1.5885    9.2677   14.0146 C   0  0  0  0  0  0  0  0  0  0  0  0
    1.4393   10.2129   14.5140 H   0  0  0  0  0  0  0  0  0  0  0  0
  1  8  1  0  0  0  0
  1  2  1  0  0  0  0
  1  3  1  0  0  0  0
  4 30  1  0  0  0  0
  5 52  1  0  0  0  0
  5 16  1  0  0  0  0
  5  1  1  0  0  0  0
  6  4  1  0  0  0  0
  6  1  1  0  0  0  0
  8  7  1  0  0  0  0
  9 10  1  0  0  0  0
  9  1  1  0  0  0  0
 11  9  1  0  0  0  0
 12  9  1  0  0  0  0
 12 14  1  0  0  0  0
 13 12  1  0  0  0  0
 15 12  1  0  0  0  0
 16  4  1  0  0  0  0
 16 17  1  0  0  0  0
 18 16  1  0  0  0  0
 19 20  1  0  0  0  0
 19  4  1  0  0  0  0
 20 21  1  0  0  0  0
 22 20  2  0  0  0  0
 23 22  1  0  0  0  0
 24 26  2  0  0  0  0
 24 22  1  0  0  0  0
 25 24  1  0  0  0  0
 26 28  1  0  0  0  0
 27 26  1  0  0  0  0
 28 29  1  0  0  0  0
 28 19  2  0  0  0  0
 30 39  2  0  0  0  0
 30 31  1  0  0  0  0
 31 33  2  0  0  0  0
 32 31  1  0  0  0  0
 33 34  1  0  0  0  0
 33 35  1  0  0  0  0
 35 36  1  0  0  0  0
 37 38  1  0  0  0  0
 37 35  2  0  0  0  0
 39 37  1  0  0  0  0
 40 39  1  0  0  0  0
 41  5  1  0  0  0  0
 42 43  1  0  0  0  0
 42 41  2  0  0  0  0
 44 42  1  0  0  0  0
 45 44  1  0  0  0  0
 46 44  2  0  0  0  0
 46 48  1  0  0  0  0
 47 46  1  0  0  0  0
 48 50  2  0  0  0  0
 49 48  1  0  0  0  0
 50 51  1  0  0  0  0
 50 41  1  0  0  0  0
 52 61  1  0  0  0  0
 53 55  1  0  0  0  0
 53 52  2  0  0  0  0
 54 53  1  0  0  0  0
 55 57  2  0  0  0  0
 56 55  1  0  0  0  0
 57 58  1  0  0  0  0
 57 59  1  0  0  0  0
 59 60  1  0  0  0  0
 61 59  2  0  0  0  0
 61 62  1  0  0  0  0
M  END
$$$$
