CSD_code = OHAQIY | q = 0 | S = 0 | Stoichiometry = C16H40Cl2N2P2Ru | MND = 6
 OpenBabel04212202073D

 63 64  0  0  0  0  0  0  0  0999 V2000
    1.6601    0.5154    2.4183 Ru  0  0  0  0  0  0  0  0  0  0  0  0
    2.8776    2.6071    2.4627 Cl  0  0  0  0  0  0  0  0  0  0  0  0
    0.3124   -1.3071    1.6748 Cl  0  0  0  0  0  0  0  0  0  0  0  0
    0.4779    0.8040    4.3976 P   0  0  0  0  0  4  0  0  0  0  0  0
    3.5534   -0.7045    2.8514 P   0  0  0  0  0  4  0  0  0  0  0  0
    0.0766    1.7695    1.6104 N   0  0  0  0  0  4  0  0  0  0  0  0
    0.5172    2.6966    1.5891 H   0  0  0  0  0  0  0  0  0  0  0  0
   -0.1672    1.4996    0.6558 H   0  0  0  0  0  0  0  0  0  0  0  0
    2.4517    0.5109    0.3895 N   0  0  0  0  0  4  0  0  0  0  0  0
    1.7090    0.4202   -0.3058 H   0  0  0  0  0  0  0  0  0  0  0  0
    2.8480    1.4574    0.3378 H   0  0  0  0  0  0  0  0  0  0  0  0
   -0.7385    2.1042    3.8608 C   0  0  0  0  0  0  0  0  0  0  0  0
   -1.6092    2.1495    4.5137 H   0  0  0  0  0  0  0  0  0  0  0  0
   -0.2069    3.0607    3.9008 H   0  0  0  0  0  0  0  0  0  0  0  0
   -1.1356    1.8132    2.4218 C   0  0  0  0  0  0  0  0  0  0  0  0
   -1.6119    0.8290    2.3526 H   0  0  0  0  0  0  0  0  0  0  0  0
   -1.8404    2.5747    2.0519 H   0  0  0  0  0  0  0  0  0  0  0  0
    4.4891   -0.4752    1.2592 C   0  0  0  0  0  0  0  0  0  0  0  0
    4.9639    0.5099    1.3256 H   0  0  0  0  0  0  0  0  0  0  0  0
    5.2574   -1.2380    1.1231 H   0  0  0  0  0  0  0  0  0  0  0  0
    3.4962   -0.4695    0.1041 C   0  0  0  0  0  0  0  0  0  0  0  0
    4.0115   -0.2368   -0.8412 H   0  0  0  0  0  0  0  0  0  0  0  0
    3.0166   -1.4463    0.0081 H   0  0  0  0  0  0  0  0  0  0  0  0
    1.0678    1.5593    6.0088 C   0  0  0  0  0  0  0  0  0  0  0  0
    1.5595    0.7394    6.5447 H   0  0  0  0  0  0  0  0  0  0  0  0
   -0.0318    2.1243    6.9041 C   0  0  0  0  0  0  0  0  0  0  0  0
    0.4104    2.4464    7.8466 H   0  0  0  0  0  0  0  0  0  0  0  0
   -0.7948    1.3852    7.1294 H   0  0  0  0  0  0  0  0  0  0  0  0
   -0.5052    2.9900    6.4482 H   0  0  0  0  0  0  0  0  0  0  0  0
    2.1141    2.6315    5.7250 C   0  0  0  0  0  0  0  0  0  0  0  0
    2.6193    2.9212    6.6451 H   0  0  0  0  0  0  0  0  0  0  0  0
    1.6569    3.5205    5.2958 H   0  0  0  0  0  0  0  0  0  0  0  0
    2.8564    2.2647    5.0210 H   0  0  0  0  0  0  0  0  0  0  0  0
   -0.6183   -0.6370    4.9199 C   0  0  0  0  0  0  0  0  0  0  0  0
   -0.5503   -1.3046    4.0515 H   0  0  0  0  0  0  0  0  0  0  0  0
   -0.0275   -1.3712    6.1219 C   0  0  0  0  0  0  0  0  0  0  0  0
   -0.4699   -2.3627    6.2016 H   0  0  0  0  0  0  0  0  0  0  0  0
   -0.2269   -0.8382    7.0491 H   0  0  0  0  0  0  0  0  0  0  0  0
    1.0469   -1.4899    6.0097 H   0  0  0  0  0  0  0  0  0  0  0  0
   -2.0987   -0.3464    5.1547 C   0  0  0  0  0  0  0  0  0  0  0  0
   -2.5923   -1.2784    5.4280 H   0  0  0  0  0  0  0  0  0  0  0  0
   -2.5835    0.0292    4.2577 H   0  0  0  0  0  0  0  0  0  0  0  0
   -2.2589    0.3620    5.9644 H   0  0  0  0  0  0  0  0  0  0  0  0
    3.6157   -2.5575    3.1115 C   0  0  0  0  0  0  0  0  0  0  0  0
    4.6290   -2.8092    3.4483 H   0  0  0  0  0  0  0  0  0  0  0  0
    2.5968   -2.9330    4.1813 C   0  0  0  0  0  0  0  0  0  0  0  0
    2.5578   -4.0139    4.3077 H   0  0  0  0  0  0  0  0  0  0  0  0
    1.6151   -2.5842    3.8651 H   0  0  0  0  0  0  0  0  0  0  0  0
    2.8401   -2.4857    5.1403 H   0  0  0  0  0  0  0  0  0  0  0  0
    3.2960   -3.3390    1.8415 C   0  0  0  0  0  0  0  0  0  0  0  0
    3.2625   -4.4034    2.0718 H   0  0  0  0  0  0  0  0  0  0  0  0
    4.0439   -3.1917    1.0659 H   0  0  0  0  0  0  0  0  0  0  0  0
    2.3151   -3.0473    1.4711 H   0  0  0  0  0  0  0  0  0  0  0  0
    4.8308   -0.0314    4.0371 C   0  0  0  0  0  0  0  0  0  0  0  0
    4.7909    1.0476    3.8354 H   0  0  0  0  0  0  0  0  0  0  0  0
    6.2620   -0.5143    3.8247 C   0  0  0  0  0  0  0  0  0  0  0  0
    6.9053   -0.0502    4.5712 H   0  0  0  0  0  0  0  0  0  0  0  0
    6.6421   -0.2445    2.8436 H   0  0  0  0  0  0  0  0  0  0  0  0
    6.3398   -1.5929    3.9445 H   0  0  0  0  0  0  0  0  0  0  0  0
    4.3950   -0.2690    5.4793 C   0  0  0  0  0  0  0  0  0  0  0  0
    4.9061    0.4170    6.1527 H   0  0  0  0  0  0  0  0  0  0  0  0
    4.6298   -1.2855    5.7893 H   0  0  0  0  0  0  0  0  0  0  0  0
    3.3210   -0.1084    5.5660 H   0  0  0  0  0  0  0  0  0  0  0  0
  1  2  1  0  0  0  0
  1  5  1  0  0  0  0
  1  4  1  0  0  0  0
  3  1  1  0  0  0  0
  4 34  1  0  0  0  0
  4 24  1  0  0  0  0
  5 44  1  0  0  0  0
  5 54  1  0  0  0  0
  6  1  1  0  0  0  0
  6 15  1  0  0  0  0
  7  6  1  0  0  0  0
  8  6  1  0  0  0  0
  9  1  1  0  0  0  0
 10  9  1  0  0  0  0
 11  9  1  0  0  0  0
 12 14  1  0  0  0  0
 12  4  1  0  0  0  0
 12 13  1  0  0  0  0
 15 12  1  0  0  0  0
 16 15  1  0  0  0  0
 17 15  1  0  0  0  0
 18 19  1  0  0  0  0
 18  5  1  0  0  0  0
 20 18  1  0  0  0  0
 21  9  1  0  0  0  0
 21 18  1  0  0  0  0
 22 21  1  0  0  0  0
 23 21  1  0  0  0  0
 24 25  1  0  0  0  0
 24 26  1  0  0  0  0
 26 28  1  0  0  0  0
 26 27  1  0  0  0  0
 29 26  1  0  0  0  0
 30 24  1  0  0  0  0
 30 31  1  0  0  0  0
 32 30  1  0  0  0  0
 33 30  1  0  0  0  0
 34 40  1  0  0  0  0
 34 36  1  0  0  0  0
 35 34  1  0  0  0  0
 36 37  1  0  0  0  0
 36 38  1  0  0  0  0
 39 36  1  0  0  0  0
 40 41  1  0  0  0  0
 40 43  1  0  0  0  0
 42 40  1  0  0  0  0
 44 45  1  0  0  0  0
 44 46  1  0  0  0  0
 46 47  1  0  0  0  0
 46 49  1  0  0  0  0
 48 46  1  0  0  0  0
 50 51  1  0  0  0  0
 50 44  1  0  0  0  0
 52 50  1  0  0  0  0
 53 50  1  0  0  0  0
 54 60  1  0  0  0  0
 55 54  1  0  0  0  0
 56 59  1  0  0  0  0
 56 54  1  0  0  0  0
 56 57  1  0  0  0  0
 58 56  1  0  0  0  0
 60 63  1  0  0  0  0
 60 62  1  0  0  0  0
 60 61  1  0  0  0  0
M  END
$$$$
