CSD_code = OHEBEI | q = 0 | S = 0 | Stoichiometry = C18H33ClN4SiTi | MND = 5
 OpenBabel04212202073D

 58 60  0  0  1  0  0  0  0  0999 V2000
    2.2470    0.4346    7.4875 Ti  0  0  0  0  0  0  0  0  0  0  0  0
    2.4046   -0.9452    8.4320 N   0  0  0  0  0  2  0  0  0  0  0  0
    2.9521    0.4604    5.5934 N   0  0  0  0  0  0  0  0  0  0  0  0
    4.0174    1.3694    7.2859 N   0  0  1  0  0  0  0  0  0  0  0  0
    2.1305    2.0249    8.9662 N   0  0  0  0  0  4  0  0  0  0  0  0
    2.3147   -0.0205    4.0636 Si  0  0  0  0  0  0  0  0  0  0  0  0
    0.0514    0.5890    7.0643 Cl  0  0  0  0  0  0  0  0  0  0  0  0
    3.1802   -2.0694    8.7800 C   0  0  0  0  0  0  0  0  0  0  0  0
    4.4072   -1.6012    9.5980 C   0  0  0  0  0  0  0  0  0  0  0  0
    2.3559   -3.0748    9.6086 C   0  0  0  0  0  0  0  0  0  0  0  0
    3.6809   -2.7507    7.4851 C   0  0  0  0  0  0  0  0  0  0  0  0
    3.6711    1.4760    6.0159 C   0  0  2  0  0  3  0  0  0  0  0  0
    4.0532    2.6247    5.1558 C   0  0  0  0  0  0  0  0  0  0  0  0
    3.0779    3.4871    4.6659 C   0  0  0  0  0  0  0  0  0  0  0  0
    3.4353    4.5488    3.8540 C   0  0  0  0  0  0  0  0  0  0  0  0
    4.7646    4.7532    3.5227 C   0  0  0  0  0  0  0  0  0  0  0  0
    5.7391    3.8994    4.0131 C   0  0  0  0  0  0  0  0  0  0  0  0
    5.3886    2.8424    4.8343 C   0  0  0  0  0  0  0  0  0  0  0  0
    4.3966    2.4778    8.1149 C   0  0  0  0  0  0  0  0  0  0  0  0
    3.4995    2.3672    9.3652 C   0  0  0  0  0  0  0  0  0  0  0  0
    1.4603    3.1855    8.3847 C   0  0  0  0  0  0  0  0  0  0  0  0
    1.3578    1.5445   10.1105 C   0  0  0  0  0  0  0  0  0  0  0  0
    3.7169   -0.0692    2.7637 C   0  0  0  0  0  0  0  0  0  0  0  0
    0.9012    1.0948    3.4055 C   0  0  0  0  0  0  0  0  0  0  0  0
    1.6260   -1.7524    4.4843 C   0  0  0  0  0  0  0  0  0  0  0  0
    5.0670   -2.4364    9.8222 H   0  0  0  0  0  0  0  0  0  0  0  0
    4.0787   -1.1525   10.5345 H   0  0  0  0  0  0  0  0  0  0  0  0
    4.9444   -0.8532    9.0131 H   0  0  0  0  0  0  0  0  0  0  0  0
    2.9377   -3.9681    9.8237 H   0  0  0  0  0  0  0  0  0  0  0  0
    2.0448   -2.6166   10.5454 H   0  0  0  0  0  0  0  0  0  0  0  0
    1.4637   -3.3511    9.0506 H   0  0  0  0  0  0  0  0  0  0  0  0
    4.4148   -3.5233    7.7070 H   0  0  0  0  0  0  0  0  0  0  0  0
    4.1245   -1.9835    6.8433 H   0  0  0  0  0  0  0  0  0  0  0  0
    2.8373   -3.1985    6.9638 H   0  0  0  0  0  0  0  0  0  0  0  0
    2.0406    3.3220    4.9251 H   0  0  0  0  0  0  0  0  0  0  0  0
    2.6742    5.2167    3.4777 H   0  0  0  0  0  0  0  0  0  0  0  0
    5.0413    5.5785    2.8835 H   0  0  0  0  0  0  0  0  0  0  0  0
    6.7761    4.0580    3.7562 H   0  0  0  0  0  0  0  0  0  0  0  0
    6.1428    2.1715    5.2205 H   0  0  0  0  0  0  0  0  0  0  0  0
    5.4503    2.3964    8.4200 H   0  0  0  0  0  0  0  0  0  0  0  0
    4.2720    3.4518    7.6098 H   0  0  0  0  0  0  0  0  0  0  0  0
    3.5230    3.2994    9.9541 H   0  0  0  0  0  0  0  0  0  0  0  0
    3.8792    1.5398    9.9731 H   0  0  0  0  0  0  0  0  0  0  0  0
    0.4591    2.8975    8.0538 H   0  0  0  0  0  0  0  0  0  0  0  0
    1.3756    3.9991    9.1226 H   0  0  0  0  0  0  0  0  0  0  0  0
    2.0171    3.5608    7.5232 H   0  0  0  0  0  0  0  0  0  0  0  0
    0.3488    1.2875    9.7756 H   0  0  0  0  0  0  0  0  0  0  0  0
    1.2966    2.3102   10.8997 H   0  0  0  0  0  0  0  0  0  0  0  0
    1.8257    0.6384   10.5030 H   0  0  0  0  0  0  0  0  0  0  0  0
    3.3636   -0.5003    1.8341 H   0  0  0  0  0  0  0  0  0  0  0  0
    4.5562   -0.6647    3.1089 H   0  0  0  0  0  0  0  0  0  0  0  0
    4.0869    0.9287    2.5465 H   0  0  0  0  0  0  0  0  0  0  0  0
    0.3404    0.5766    2.6334 H   0  0  0  0  0  0  0  0  0  0  0  0
    0.2031    1.3409    4.2025 H   0  0  0  0  0  0  0  0  0  0  0  0
    1.2700    2.0208    2.9722 H   0  0  0  0  0  0  0  0  0  0  0  0
    0.8036   -2.0322    3.8337 H   0  0  0  0  0  0  0  0  0  0  0  0
    2.3873   -2.5233    4.4035 H   0  0  0  0  0  0  0  0  0  0  0  0
    1.2617   -1.7467    5.5163 H   0  0  0  0  0  0  0  0  0  0  0  0
  1  2  1  0  0  0  0
  1  5  1  0  0  0  0
  2  8  1  0  0  0  0
  3 12  1  0  0  0  0
  3  1  1  0  0  0  0
  4  1  1  0  0  0  0
  4 19  1  1  0  0  0
  5 20  1  0  0  0  0
  5 22  1  0  0  0  0
  6 25  1  0  0  0  0
  6  3  1  0  0  0  0
  7  1  1  0  0  0  0
  8  9  1  0  0  0  0
  8 10  1  0  0  0  0
  9 26  1  0  0  0  0
  9 27  1  0  0  0  0
 10 29  1  0  0  0  0
 10 30  1  0  0  0  0
 11 32  1  0  0  0  0
 11  8  1  0  0  0  0
 12 13  1  1  0  0  0
 12  4  1  0  0  0  0
 14 35  1  0  0  0  0
 14 13  2  0  0  0  0
 15 14  1  0  0  0  0
 16 15  2  0  0  0  0
 16 17  1  0  0  0  0
 17 18  2  0  0  0  0
 18 13  1  0  0  0  0
 18 39  1  0  0  0  0
 19 40  1  0  0  0  0
 19 20  1  0  0  0  0
 20 42  1  0  0  0  0
 20 43  1  0  0  0  0
 21  5  1  0  0  0  0
 21 45  1  0  0  0  0
 22 49  1  0  0  0  0
 22 48  1  0  0  0  0
 23 51  1  0  0  0  0
 23  6  1  0  0  0  0
 24  6  1  0  0  0  0
 24 54  1  0  0  0  0
 25 58  1  0  0  0  0
 28  9  1  0  0  0  0
 31 10  1  0  0  0  0
 33 11  1  0  0  0  0
 34 11  1  0  0  0  0
 36 15  1  0  0  0  0
 37 16  1  0  0  0  0
 38 17  1  0  0  0  0
 41 19  1  0  0  0  0
 44 21  1  0  0  0  0
 46 21  1  0  0  0  0
 47 22  1  0  0  0  0
 50 23  1  0  0  0  0
 52 23  1  0  0  0  0
 53 24  1  0  0  0  0
 55 24  1  0  0  0  0
 56 25  1  0  0  0  0
 57 25  1  0  0  0  0
M  END
$$$$
