CSD_code = OHEDOU | q = 0 | S = 0 | Stoichiometry = C26H26Cl2FeN4O2 | MND = 6
 OpenBabel04212202073D

 61 67  0  0  1  0  0  0  0  0999 V2000
   10.6019    6.9605    4.0214 Fe  0  0  0  0  0  0  0  0  0  0  0  0
   12.3805    7.0591    5.2812 Cl  0  0  0  0  0  0  0  0  0  0  0  0
    9.5954    8.4478    5.2711 Cl  0  0  0  0  0  0  0  0  0  0  0  0
    6.1777    5.1887    6.0068 O   0  0  0  0  0  0  0  0  0  0  0  0
    9.8551    7.9792    9.0583 O   0  0  0  0  0  0  0  0  0  0  0  0
   10.0251    4.9909    4.9049 N   0  0  0  0  0  0  0  0  0  0  0  0
    9.0524    6.5680    3.0123 N   0  0  0  0  0  0  0  0  0  0  0  0
   11.2854    8.2930    2.8294 N   0  0  0  0  0  0  0  0  0  0  0  0
   11.5590    5.7316    2.7164 N   0  0  1  0  0  4  0  0  0  0  0  0
   11.8483    4.4983    3.4372 C   0  0  0  0  0  0  0  0  0  0  0  0
   10.5914    4.0583    4.1316 C   0  0  2  0  0  3  0  0  0  0  0  0
   10.0587    2.7929    3.9712 C   0  0  0  0  0  0  0  0  0  0  0  0
    8.8813    2.4793    4.6392 C   0  0  0  0  0  0  0  0  0  0  0  0
    8.3153    3.4273    5.4627 C   0  0  0  0  0  0  0  0  0  0  0  0
    8.9233    4.6806    5.5978 C   0  0  0  0  0  0  0  0  0  0  0  0
    8.4352    5.6531    6.5747 C   0  0  0  0  0  0  0  0  0  0  0  0
    7.0673    5.8642    6.8096 C   0  0  0  0  0  0  0  0  0  0  0  0
    6.6902    6.7533    7.8066 C   0  0  0  0  0  0  0  0  0  0  0  0
    7.6393    7.4298    8.5476 C   0  0  0  0  0  0  0  0  0  0  0  0
    8.9992    7.2572    8.2994 C   0  0  0  0  0  0  0  0  0  0  0  0
    9.3827    6.3565    7.3135 C   0  0  0  0  0  0  0  0  0  0  0  0
    4.8172    5.5300    6.0938 C   0  0  0  0  0  0  0  0  0  0  0  0
   11.2062    8.0407    8.6442 C   0  0  0  0  0  0  0  0  0  0  0  0
   10.6537    5.4993    1.5883 C   0  0  0  0  0  0  0  0  0  0  0  0
    9.2292    5.6609    2.0331 C   0  0  2  0  0  3  0  0  0  0  0  0
    8.1864    4.9519    1.4721 C   0  0  0  0  0  0  0  0  0  0  0  0
    6.8891    5.1931    1.9044 C   0  0  0  0  0  0  0  0  0  0  0  0
    6.7010    6.1608    2.8802 C   0  0  0  0  0  0  0  0  0  0  0  0
    7.7976    6.8140    3.4032 C   0  0  0  0  0  0  0  0  0  0  0  0
   12.7499    6.4696    2.2980 C   0  0  0  0  0  0  0  0  0  0  0  0
   12.3344    7.8976    2.0825 C   0  0  2  0  0  3  0  0  0  0  0  0
   12.9740    8.7415    1.1953 C   0  0  0  0  0  0  0  0  0  0  0  0
   12.5329   10.0517    1.0637 C   0  0  0  0  0  0  0  0  0  0  0  0
   11.4478   10.4530    1.8260 C   0  0  0  0  0  0  0  0  0  0  0  0
   10.8564    9.5471    2.6872 C   0  0  0  0  0  0  0  0  0  0  0  0
   12.5867    4.7417    4.2074 H   0  0  0  0  0  0  0  0  0  0  0  0
   12.2415    3.7129    2.7775 H   0  0  0  0  0  0  0  0  0  0  0  0
   10.5520    2.0691    3.3408 H   0  0  0  0  0  0  0  0  0  0  0  0
    8.4318    1.5040    4.5270 H   0  0  0  0  0  0  0  0  0  0  0  0
    7.4226    3.2138    6.0241 H   0  0  0  0  0  0  0  0  0  0  0  0
    5.6482    6.9366    8.0149 H   0  0  0  0  0  0  0  0  0  0  0  0
    7.3380    8.1225    9.3170 H   0  0  0  0  0  0  0  0  0  0  0  0
   10.4226    6.1830    7.0903 H   0  0  0  0  0  0  0  0  0  0  0  0
    4.3192    4.9510    5.3162 H   0  0  0  0  0  0  0  0  0  0  0  0
    4.3921    5.2597    7.0664 H   0  0  0  0  0  0  0  0  0  0  0  0
    4.6570    6.5978    5.9140 H   0  0  0  0  0  0  0  0  0  0  0  0
   11.6676    8.8144    9.2552 H   0  0  0  0  0  0  0  0  0  0  0  0
   11.7219    7.0903    8.8129 H   0  0  0  0  0  0  0  0  0  0  0  0
   11.2826    8.3124    7.5901 H   0  0  0  0  0  0  0  0  0  0  0  0
   10.8178    4.5116    1.1390 H   0  0  0  0  0  0  0  0  0  0  0  0
   10.8488    6.2576    0.8229 H   0  0  0  0  0  0  0  0  0  0  0  0
    8.3884    4.2198    0.7046 H   0  0  0  0  0  0  0  0  0  0  0  0
    6.0587    4.6461    1.4871 H   0  0  0  0  0  0  0  0  0  0  0  0
    5.7144    6.4029    3.2389 H   0  0  0  0  0  0  0  0  0  0  0  0
    7.7004    7.5653    4.1716 H   0  0  0  0  0  0  0  0  0  0  0  0
   13.2200    6.0361    1.4054 H   0  0  0  0  0  0  0  0  0  0  0  0
   13.4615    6.4524    3.1293 H   0  0  0  0  0  0  0  0  0  0  0  0
   13.8132    8.3774    0.6223 H   0  0  0  0  0  0  0  0  0  0  0  0
   13.0245   10.7322    0.3865 H   0  0  0  0  0  0  0  0  0  0  0  0
   11.0635   11.4581    1.7639 H   0  0  0  0  0  0  0  0  0  0  0  0
   10.0238    9.8223    3.3166 H   0  0  0  0  0  0  0  0  0  0  0  0
  1  6  1  0  0  0  0
  1  3  1  0  0  0  0
  1  2  1  0  0  0  0
  4 22  1  0  0  0  0
  4 17  1  0  0  0  0
  6 15  1  0  0  0  0
  7 29  1  0  0  0  0
  7  1  1  0  0  0  0
  8  1  1  0  0  0  0
  9 24  1  6  0  0  0
  9 10  1  0  0  0  0
  9  1  1  0  0  0  0
 10 11  1  0  0  0  0
 10 36  1  0  0  0  0
 11 12  1  6  0  0  0
 11  6  1  0  0  0  0
 12 13  2  0  0  0  0
 13 14  1  0  0  0  0
 14 15  2  0  0  0  0
 14 40  1  0  0  0  0
 15 16  1  0  0  0  0
 16 17  2  0  0  0  0
 16 21  1  0  0  0  0
 17 18  1  0  0  0  0
 18 41  1  0  0  0  0
 18 19  2  0  0  0  0
 19 42  1  0  0  0  0
 20 19  1  0  0  0  0
 20  5  1  0  0  0  0
 21 20  2  0  0  0  0
 22 45  1  0  0  0  0
 23 48  1  0  0  0  0
 23  5  1  0  0  0  0
 23 47  1  0  0  0  0
 24 25  1  0  0  0  0
 25 26  1  6  0  0  0
 25  7  1  0  0  0  0
 26 27  2  0  0  0  0
 27 28  1  0  0  0  0
 28 54  1  0  0  0  0
 28 29  2  0  0  0  0
 29 55  1  0  0  0  0
 30  9  1  0  0  0  0
 30 57  1  0  0  0  0
 31 32  1  1  0  0  0
 31 30  1  0  0  0  0
 31  8  1  0  0  0  0
 33 32  2  0  0  0  0
 33 34  1  0  0  0  0
 34 35  2  0  0  0  0
 35  8  1  0  0  0  0
 35 61  1  0  0  0  0
 37 10  1  0  0  0  0
 38 12  1  0  0  0  0
 39 13  1  0  0  0  0
 43 21  1  0  0  0  0
 44 22  1  0  0  0  0
 46 22  1  0  0  0  0
 49 23  1  0  0  0  0
 50 24  1  0  0  0  0
 51 24  1  0  0  0  0
 52 26  1  0  0  0  0
 53 27  1  0  0  0  0
 56 30  1  0  0  0  0
 58 32  1  0  0  0  0
 59 33  1  0  0  0  0
 60 34  1  0  0  0  0
M  END
$$$$
