CSD_code = OHEFEN | q = 0 | S = 0 | Stoichiometry = C22H31ClN3Rh | MND = 6
 OpenBabel04212202073D

 58 59  0  0  1  0  0  0  0  0999 V2000
    6.2517    5.1551    3.1977 Rh  0  0  0  0  0  0  0  0  0  0  0  0
    4.5500    6.4866    2.4662 Cl  0  0  0  0  0 15  0  0  0  0  0  0
    7.6772    5.7120    0.6048 N   0  0  0  0  0  0  0  0  0  0  0  0
    7.6474    5.5018   -0.7259 N   0  0  0  0  0  0  0  0  0  0  0  0
    6.0193    4.4301    0.2577 N   0  0  0  0  0  0  0  0  0  0  0  0
    6.7058    5.0524    1.2526 C   0  0  2  0  0  3  0  0  0  0  0  0
    6.6304    4.7269   -0.9166 C   0  0  0  0  0  0  0  0  0  0  0  0
    6.3122    4.3688   -1.8743 H   0  0  0  0  0  0  0  0  0  0  0  0
    8.6045    6.6457    1.1859 C   0  0  0  0  0  0  0  0  0  0  0  0
    9.6260    6.2977    1.0025 H   0  0  0  0  0  0  0  0  0  0  0  0
    8.3960    6.6448    2.2615 H   0  0  0  0  0  0  0  0  0  0  0  0
    8.4483    8.0886    0.6575 C   0  0  0  0  0  0  0  0  0  0  0  0
    9.1572    9.0120    1.6519 C   0  0  0  0  0  0  0  0  0  0  0  0
    9.1565   10.0336    1.2805 H   0  0  0  0  0  0  0  0  0  0  0  0
   10.1904    8.7029    1.7991 H   0  0  0  0  0  0  0  0  0  0  0  0
    8.6493    8.9980    2.6135 H   0  0  0  0  0  0  0  0  0  0  0  0
    9.0958    8.2203   -0.7215 C   0  0  0  0  0  0  0  0  0  0  0  0
    8.6721    7.4925   -1.4080 H   0  0  0  0  0  0  0  0  0  0  0  0
   10.1695    8.0538   -0.6585 H   0  0  0  0  0  0  0  0  0  0  0  0
    8.9264    9.2174   -1.1205 H   0  0  0  0  0  0  0  0  0  0  0  0
    6.9679    8.4595    0.5827 C   0  0  0  0  0  0  0  0  0  0  0  0
    6.4537    8.1946    1.5047 H   0  0  0  0  0  0  0  0  0  0  0  0
    6.4779    7.9417   -0.2386 H   0  0  0  0  0  0  0  0  0  0  0  0
    6.8552    9.5283    0.4201 H   0  0  0  0  0  0  0  0  0  0  0  0
    4.7795    3.7135    0.4309 C   0  0  0  0  0  0  0  0  0  0  0  0
    4.4512    3.3657   -0.5535 H   0  0  0  0  0  0  0  0  0  0  0  0
    4.0416    4.4162    0.8338 H   0  0  0  0  0  0  0  0  0  0  0  0
    4.9420    2.5506    1.3744 C   0  0  0  0  0  0  0  0  0  0  0  0
    5.7930    1.5023    1.0431 C   0  0  0  0  0  0  0  0  0  0  0  0
    6.3548    1.5387    0.1195 H   0  0  0  0  0  0  0  0  0  0  0  0
    5.9244    0.4147    1.8873 C   0  0  0  0  0  0  0  0  0  0  0  0
    6.5924   -0.3929    1.6258 H   0  0  0  0  0  0  0  0  0  0  0  0
    5.1877    0.3561    3.0587 C   0  0  0  0  0  0  0  0  0  0  0  0
    5.2748   -0.5028    3.7080 H   0  0  0  0  0  0  0  0  0  0  0  0
    4.3396    1.3974    3.3933 C   0  0  0  0  0  0  0  0  0  0  0  0
    3.7555    1.3411    4.3002 H   0  0  0  0  0  0  0  0  0  0  0  0
    4.2303    2.5041    2.5665 C   0  0  0  0  0  0  0  0  0  0  0  0
    3.5688    3.3189    2.8264 H   0  0  0  0  0  0  0  0  0  0  0  0
    7.2547    3.4355    3.9575 C   0  0  0  0  0  3  0  0  0  0  0  0
    7.2548    2.6518    3.2015 H   0  0  0  0  0  0  0  0  0  0  0  0
    6.7662    2.9819    5.3177 C   0  0  0  0  0  0  0  0  0  0  0  0
    7.5727    3.1231    6.0406 H   0  0  0  0  0  0  0  0  0  0  0  0
    6.5558    1.9116    5.2729 H   0  0  0  0  0  0  0  0  0  0  0  0
    5.4969    3.7191    5.7879 C   0  0  0  0  0  0  0  0  0  0  0  0
    4.6215    3.1154    5.5486 H   0  0  0  0  0  0  0  0  0  0  0  0
    5.5174    3.8407    6.8772 H   0  0  0  0  0  0  0  0  0  0  0  0
    5.3276    5.0743    5.1446 C   0  0  0  0  0  3  0  0  0  0  0  0
    4.2908    5.3867    5.0237 H   0  0  0  0  0  0  0  0  0  0  0  0
    6.3047    6.0496    5.1583 C   0  0  0  0  0  3  0  0  0  0  0  0
    5.9995    7.0855    5.0005 H   0  0  0  0  0  0  0  0  0  0  0  0
    7.6345    5.8693    5.8573 C   0  0  0  0  0  0  0  0  0  0  0  0
    7.4941    5.2050    6.7118 H   0  0  0  0  0  0  0  0  0  0  0  0
    7.9656    6.8335    6.2490 H   0  0  0  0  0  0  0  0  0  0  0  0
    8.7254    5.3089    4.9243 C   0  0  0  0  0  0  0  0  0  0  0  0
    9.2903    6.1404    4.4943 H   0  0  0  0  0  0  0  0  0  0  0  0
    9.4367    4.7070    5.5018 H   0  0  0  0  0  0  0  0  0  0  0  0
    8.1735    4.4727    3.7903 C   0  0  2  0  0  0  0  0  0  0  0  0
    8.8627    4.3876    2.9504 H   0  0  0  0  0  0  0  0  0  0  0  0
  1 57  1  0  0  0  0
  3  9  1  0  0  0  0
  3  6  1  0  0  0  0
  4  3  1  0  0  0  0
  5 25  1  0  0  0  0
  5  6  1  0  0  0  0
  6  1  1  6  0  0  0
  7  4  2  0  0  0  0
  7  5  1  0  0  0  0
  8  7  1  0  0  0  0
  9 11  1  0  0  0  0
 10  9  1  0  0  0  0
 12  9  1  0  0  0  0
 12 13  1  0  0  0  0
 13 15  1  0  0  0  0
 13 16  1  0  0  0  0
 14 13  1  0  0  0  0
 17 19  1  0  0  0  0
 17 12  1  0  0  0  0
 18 17  1  0  0  0  0
 20 17  1  0  0  0  0
 21 12  1  0  0  0  0
 21 22  1  0  0  0  0
 23 21  1  0  0  0  0
 24 21  1  0  0  0  0
 25 27  1  0  0  0  0
 25 28  1  0  0  0  0
 26 25  1  0  0  0  0
 28 37  1  0  0  0  0
 29 28  2  0  0  0  0
 29 31  1  0  0  0  0
 30 29  1  0  0  0  0
 31 33  2  0  0  0  0
 32 31  1  0  0  0  0
 33 35  1  0  0  0  0
 33 34  1  0  0  0  0
 35 36  1  0  0  0  0
 37 38  1  0  0  0  0
 37 35  2  0  0  0  0
 39 41  1  0  0  0  0
 40 39  1  0  0  0  0
 41 44  1  0  0  0  0
 41 42  1  0  0  0  0
 43 41  1  0  0  0  0
 44 46  1  0  0  0  0
 45 44  1  0  0  0  0
 47 49  1  0  0  0  0
 47 44  1  0  0  0  0
 48 47  1  0  0  0  0
 49 51  1  0  0  0  0
 50 49  1  0  0  0  0
 51 53  1  0  0  0  0
 51 52  1  0  0  0  0
 54 56  1  0  0  0  0
 54 51  1  0  0  0  0
 55 54  1  0  0  0  0
 57 58  1  6  0  0  0
 57 39  1  0  0  0  0
 57 54  1  0  0  0  0
M  END
$$$$
