CSD_code = OHEHEP | q = 0 | S = 0 | Stoichiometry = C20H30Cl2N6Zn | MND = 4
 OpenBabel04212202073D

 59 61  0  0  0  0  0  0  0  0999 V2000
    2.4827    2.8073   15.7633 Zn  0  0  0  0  0  0  0  0  0  0  0  0
    2.8722    1.4034   14.1198 Cl  0  0  0  0  0  0  0  0  0  0  0  0
    3.9907    3.0750   17.4381 Cl  0  0  0  0  0  0  0  0  0  0  0  0
    1.9983    4.6868   15.2372 N   0  0  0  0  0  0  0  0  0  0  0  0
    2.4594    6.9180   15.8549 N   0  0  0  0  0  0  0  0  0  0  0  0
    4.1601    5.5197   15.1811 N   0  0  0  0  0  0  0  0  0  0  0  0
    0.7634    2.6064   16.7829 N   0  0  0  0  0  0  0  0  0  0  0  0
    0.1822    2.7691   19.0604 N   0  0  0  0  0  0  0  0  0  0  0  0
    1.5527    1.0661   18.3219 N   0  0  0  0  0  0  0  0  0  0  0  0
    0.6890    4.9261   14.8157 C   0  0  0  0  0  0  0  0  0  0  0  0
    0.5235    5.8742   13.8200 C   0  0  0  0  0  0  0  0  0  0  0  0
    1.4031    6.3636   13.4245 H   0  0  0  0  0  0  0  0  0  0  0  0
   -0.7281    6.1946   13.3005 C   0  0  0  0  0  0  0  0  0  0  0  0
   -0.8077    6.9392   12.5220 H   0  0  0  0  0  0  0  0  0  0  0  0
   -1.8349    5.5637   13.7876 C   0  0  0  0  0  0  0  0  0  0  0  0
   -2.8187    5.8028   13.4121 H   0  0  0  0  0  0  0  0  0  0  0  0
   -1.7186    4.5647   14.7759 C   0  0  0  0  0  0  0  0  0  0  0  0
   -2.8943    3.9282   15.2230 C   0  0  0  0  0  0  0  0  0  0  0  0
   -3.8393    4.2371   14.8015 H   0  0  0  0  0  0  0  0  0  0  0  0
   -2.8346    2.9279   16.1484 C   0  0  0  0  0  0  0  0  0  0  0  0
   -3.7293    2.4222   16.4810 H   0  0  0  0  0  0  0  0  0  0  0  0
   -1.5980    2.5395   16.6562 C   0  0  0  0  0  0  0  0  0  0  0  0
   -1.5497    1.7091   17.3471 H   0  0  0  0  0  0  0  0  0  0  0  0
   -0.4137    3.1498   16.2734 C   0  0  0  0  0  0  0  0  0  0  0  0
   -0.4413    4.2013   15.3050 C   0  0  0  0  0  0  0  0  0  0  0  0
    2.8402    5.6800   15.4148 C   0  0  0  0  0  3  0  0  0  0  0  0
    1.2288    7.1459   16.5664 C   0  0  0  0  0  0  0  0  0  0  0  0
    0.4488    7.5582   15.9167 H   0  0  0  0  0  0  0  0  0  0  0  0
    1.4211    7.8516   17.3786 H   0  0  0  0  0  0  0  0  0  0  0  0
    0.8678    6.2139   16.9906 H   0  0  0  0  0  0  0  0  0  0  0  0
    3.1018    8.1246   15.3874 C   0  0  0  0  0  0  0  0  0  0  0  0
    3.8958    7.8825   14.6872 H   0  0  0  0  0  0  0  0  0  0  0  0
    3.5174    8.6993   16.2193 H   0  0  0  0  0  0  0  0  0  0  0  0
    2.3621    8.7494   14.8760 H   0  0  0  0  0  0  0  0  0  0  0  0
    5.1631    6.0197   16.0981 C   0  0  0  0  0  0  0  0  0  0  0  0
    4.7087    6.6594   16.8478 H   0  0  0  0  0  0  0  0  0  0  0  0
    5.9342    6.5726   15.5572 H   0  0  0  0  0  0  0  0  0  0  0  0
    5.6244    5.1722   16.6122 H   0  0  0  0  0  0  0  0  0  0  0  0
    4.6509    4.4937   14.2886 C   0  0  0  0  0  0  0  0  0  0  0  0
    3.8716    4.1941   13.5916 H   0  0  0  0  0  0  0  0  0  0  0  0
    5.0032    3.6113   14.8288 H   0  0  0  0  0  0  0  0  0  0  0  0
    5.4915    4.9085   13.7269 H   0  0  0  0  0  0  0  0  0  0  0  0
    0.8225    2.1564   18.0198 C   0  0  0  0  0  3  0  0  0  0  0  0
   -0.1823    4.1600   18.9957 C   0  0  0  0  0  0  0  0  0  0  0  0
    0.4955    4.6703   18.3160 H   0  0  0  0  0  0  0  0  0  0  0  0
   -0.0716    4.5943   19.9914 H   0  0  0  0  0  0  0  0  0  0  0  0
   -1.2134    4.3096   18.6549 H   0  0  0  0  0  0  0  0  0  0  0  0
   -0.4379    2.0270   20.1327 C   0  0  0  0  0  0  0  0  0  0  0  0
   -0.2729    0.9620   19.9983 H   0  0  0  0  0  0  0  0  0  0  0  0
   -1.5165    2.2174   20.1259 H   0  0  0  0  0  0  0  0  0  0  0  0
   -0.0422    2.3331   21.1047 H   0  0  0  0  0  0  0  0  0  0  0  0
    2.3464    0.9815   19.5292 C   0  0  0  0  0  0  0  0  0  0  0  0
    3.4040    0.9755   19.2554 H   0  0  0  0  0  0  0  0  0  0  0  0
    2.1142    0.0668   20.0795 H   0  0  0  0  0  0  0  0  0  0  0  0
    2.1724    1.8476   20.1593 H   0  0  0  0  0  0  0  0  0  0  0  0
    1.9375    0.1153   17.3035 C   0  0  0  0  0  0  0  0  0  0  0  0
    1.2516    0.1674   16.4608 H   0  0  0  0  0  0  0  0  0  0  0  0
    1.8957   -0.8854   17.7392 H   0  0  0  0  0  0  0  0  0  0  0  0
    2.9543    0.2913   16.9425 H   0  0  0  0  0  0  0  0  0  0  0  0
  1  7  1  0  0  0  0
  1  3  1  0  0  0  0
  2  1  1  0  0  0  0
  4 26  1  0  0  0  0
  4  1  1  0  0  0  0
  5 27  1  0  0  0  0
  6 26  1  0  0  0  0
  6 35  1  0  0  0  0
  7 43  1  0  0  0  0
  8 48  1  0  0  0  0
  9 52  1  0  0  0  0
 10  4  1  0  0  0  0
 10 25  1  0  0  0  0
 11 10  2  0  0  0  0
 12 11  1  0  0  0  0
 13 15  2  0  0  0  0
 13 11  1  0  0  0  0
 14 13  1  0  0  0  0
 15 17  1  0  0  0  0
 16 15  1  0  0  0  0
 17 18  2  0  0  0  0
 17 25  1  0  0  0  0
 18 20  1  0  0  0  0
 19 18  1  0  0  0  0
 20 21  1  0  0  0  0
 20 22  2  0  0  0  0
 22 23  1  0  0  0  0
 24 22  1  0  0  0  0
 24  7  1  0  0  0  0
 25 24  2  0  0  0  0
 26  5  1  0  0  0  0
 27 30  1  0  0  0  0
 27 29  1  0  0  0  0
 28 27  1  0  0  0  0
 31  5  1  0  0  0  0
 31 33  1  0  0  0  0
 32 31  1  0  0  0  0
 34 31  1  0  0  0  0
 35 38  1  0  0  0  0
 35 36  1  0  0  0  0
 37 35  1  0  0  0  0
 39 41  1  0  0  0  0
 39  6  1  0  0  0  0
 40 39  1  0  0  0  0
 42 39  1  0  0  0  0
 43  9  1  0  0  0  0
 43  8  1  0  0  0  0
 44  8  1  0  0  0  0
 44 46  1  0  0  0  0
 45 44  1  0  0  0  0
 47 44  1  0  0  0  0
 48 51  1  0  0  0  0
 49 48  1  0  0  0  0
 50 48  1  0  0  0  0
 52 54  1  0  0  0  0
 52 55  1  0  0  0  0
 53 52  1  0  0  0  0
 56 58  1  0  0  0  0
 56  9  1  0  0  0  0
 57 56  1  0  0  0  0
 59 56  1  0  0  0  0
M  END
$$$$
