CSD_code = OHEQUN | q = 0 | S = 0 | Stoichiometry = C32H29Cl2NP2PdS | MND = 4
 OpenBabel04212202073D

 68 73  0  0  1  0  0  0  0  0999 V2000
    8.3923    7.8676    0.7209 Pd  0  0  0  0  0  0  0  0  0  0  0  0
    9.9478    6.9629   -0.6220 Cl  0  0  0  0  0  0  0  0  0  0  0  0
    6.7385    6.8515   -0.4502 Cl  0  0  0  0  0  0  0  0  0  0  0  0
    6.7556    8.8356    2.2854 S   0  0  0  0  0  0  0  0  0  0  0  0
    9.9780    9.2048    1.5825 P   0  0  0  0  0  4  0  0  0  0  0  0
    8.2153    8.1970    3.4500 P   0  0  0  0  0  4  0  0  0  0  0  0
    9.6472    9.1297    3.2781 N   0  0  0  0  0  0  0  0  0  0  0  0
   10.2003   10.0847    4.2505 C   0  0  1  0  0  0  0  0  0  0  0  0
    9.1963   11.1787    4.5950 C   0  0  0  0  0  0  0  0  0  0  0  0
   10.7676    9.3466    5.4419 C   0  0  0  0  0  0  0  0  0  0  0  0
   10.2721    9.4726    6.7322 C   0  0  0  0  0  0  0  0  0  0  0  0
   10.8382    8.7551    7.7731 C   0  0  0  0  0  0  0  0  0  0  0  0
   11.9015    7.9017    7.5411 C   0  0  0  0  0  0  0  0  0  0  0  0
   12.4146    7.7826    6.2600 C   0  0  0  0  0  0  0  0  0  0  0  0
   11.8564    8.5062    5.2228 C   0  0  0  0  0  0  0  0  0  0  0  0
   11.7819    9.0625    1.4777 C   0  0  0  0  0  0  0  0  0  0  0  0
   12.2978    7.7860    1.6978 C   0  0  0  0  0  0  0  0  0  0  0  0
   13.6566    7.5585    1.6006 C   0  0  0  0  0  0  0  0  0  0  0  0
   14.5088    8.5991    1.2645 C   0  0  0  0  0  0  0  0  0  0  0  0
   13.9952    9.8580    1.0026 C   0  0  0  0  0  0  0  0  0  0  0  0
   12.6340   10.0928    1.0970 C   0  0  0  0  0  0  0  0  0  0  0  0
    9.5589   10.8783    0.9661 C   0  0  0  0  0  0  0  0  0  0  0  0
   10.0495   12.0841    1.4653 C   0  0  0  0  0  0  0  0  0  0  0  0
    9.6417   13.2837    0.9088 C   0  0  0  0  0  0  0  0  0  0  0  0
    8.7519   13.2973   -0.1527 C   0  0  0  0  0  0  0  0  0  0  0  0
    8.2685   12.1043   -0.6646 C   0  0  0  0  0  0  0  0  0  0  0  0
    8.6673   10.9010   -0.1104 C   0  0  0  0  0  0  0  0  0  0  0  0
    8.7565    6.4733    3.1375 C   0  0  0  0  0  0  0  0  0  0  0  0
   10.0041    6.0136    3.5481 C   0  0  0  0  0  0  0  0  0  0  0  0
   10.4067    4.7323    3.2082 C   0  0  0  0  0  0  0  0  0  0  0  0
    9.5762    3.9145    2.4605 C   0  0  0  0  0  0  0  0  0  0  0  0
    8.3145    4.3536    2.0870 C   0  0  0  0  0  0  0  0  0  0  0  0
    7.8922    5.6275    2.4305 C   0  0  0  0  0  0  0  0  0  0  0  0
    7.6788    8.2063    5.1866 C   0  0  0  0  0  0  0  0  0  0  0  0
    8.2389    7.3442    6.1209 C   0  0  0  0  0  0  0  0  0  0  0  0
    7.7432    7.3183    7.4121 C   0  0  0  0  0  0  0  0  0  0  0  0
    6.6889    8.1414    7.7719 C   0  0  0  0  0  0  0  0  0  0  0  0
    6.1140    8.9844    6.8338 C   0  0  0  0  0  0  0  0  0  0  0  0
    6.6000    9.0099    5.5400 C   0  0  0  0  0  0  0  0  0  0  0  0
   11.0549   10.5383    3.7256 H   0  0  0  0  0  0  0  0  0  0  0  0
    8.3419   10.7664    5.1249 H   0  0  0  0  0  0  0  0  0  0  0  0
    9.6687   11.9387    5.2138 H   0  0  0  0  0  0  0  0  0  0  0  0
    8.8316   11.6442    3.6814 H   0  0  0  0  0  0  0  0  0  0  0  0
    9.4437   10.1301    6.9426 H   0  0  0  0  0  0  0  0  0  0  0  0
   10.4406    8.8660    8.7709 H   0  0  0  0  0  0  0  0  0  0  0  0
   12.3360    7.3402    8.3543 H   0  0  0  0  0  0  0  0  0  0  0  0
   13.2551    7.1319    6.0688 H   0  0  0  0  0  0  0  0  0  0  0  0
   12.2731    8.4315    4.2270 H   0  0  0  0  0  0  0  0  0  0  0  0
   11.6154    6.9737    1.9096 H   0  0  0  0  0  0  0  0  0  0  0  0
   14.0510    6.5676    1.7695 H   0  0  0  0  0  0  0  0  0  0  0  0
   15.5712    8.4233    1.1840 H   0  0  0  0  0  0  0  0  0  0  0  0
   14.6557   10.6613    0.7111 H   0  0  0  0  0  0  0  0  0  0  0  0
   12.2410   11.0691    0.8560 H   0  0  0  0  0  0  0  0  0  0  0  0
   10.7480   12.0990    2.2896 H   0  0  0  0  0  0  0  0  0  0  0  0
   10.0238   14.2123    1.3075 H   0  0  0  0  0  0  0  0  0  0  0  0
    8.4382   14.2376   -0.5805 H   0  0  0  0  0  0  0  0  0  0  0  0
    7.5782   12.1096   -1.4943 H   0  0  0  0  0  0  0  0  0  0  0  0
    8.2788    9.9580   -0.5308 H   0  0  0  0  0  0  0  0  0  0  0  0
   10.6573    6.6618    4.1170 H   0  0  0  0  0  0  0  0  0  0  0  0
   11.3815    4.3824    3.5156 H   0  0  0  0  0  0  0  0  0  0  0  0
    9.9103    2.9296    2.1715 H   0  0  0  0  0  0  0  0  0  0  0  0
    7.6596    3.7136    1.5160 H   0  0  0  0  0  0  0  0  0  0  0  0
    6.8839    5.9545    2.1782 H   0  0  0  0  0  0  0  0  0  0  0  0
    9.0569    6.6971    5.8431 H   0  0  0  0  0  0  0  0  0  0  0  0
    8.1807    6.6490    8.1375 H   0  0  0  0  0  0  0  0  0  0  0  0
    6.3049    8.1165    8.7807 H   0  0  0  0  0  0  0  0  0  0  0  0
    5.2805    9.6138    7.1072 H   0  0  0  0  0  0  0  0  0  0  0  0
    6.1423    9.6397    4.7887 H   0  0  0  0  0  0  0  0  0  0  0  0
  1  5  1  0  0  0  0
  1  4  1  0  0  0  0
  2  1  1  0  0  0  0
  3  1  1  0  0  0  0
  4  6  1  0  0  0  0
  5  7  1  0  0  0  0
  6 34  1  0  0  0  0
  7  6  1  0  0  0  0
  7  8  1  0  0  0  0
  8 40  1  6  0  0  0
  8  9  1  0  0  0  0
  8 10  1  0  0  0  0
  9 41  1  0  0  0  0
  9 42  1  0  0  0  0
 10 11  1  0  0  0  0
 11 44  1  0  0  0  0
 11 12  2  0  0  0  0
 12 45  1  0  0  0  0
 13 12  1  0  0  0  0
 13 46  1  0  0  0  0
 14 13  2  0  0  0  0
 15 10  2  0  0  0  0
 15 14  1  0  0  0  0
 16  5  1  0  0  0  0
 16 17  1  0  0  0  0
 17 49  1  0  0  0  0
 18 17  2  0  0  0  0
 18 50  1  0  0  0  0
 19 18  1  0  0  0  0
 20 21  1  0  0  0  0
 20 19  2  0  0  0  0
 21 16  2  0  0  0  0
 22 23  1  0  0  0  0
 22  5  1  0  0  0  0
 23 54  1  0  0  0  0
 24 55  1  0  0  0  0
 24 23  2  0  0  0  0
 25 24  1  0  0  0  0
 26 25  2  0  0  0  0
 26 27  1  0  0  0  0
 27 22  2  0  0  0  0
 28  6  1  0  0  0  0
 28 29  1  0  0  0  0
 29 59  1  0  0  0  0
 30 60  1  0  0  0  0
 30 29  2  0  0  0  0
 31 30  1  0  0  0  0
 32 33  1  0  0  0  0
 32 31  2  0  0  0  0
 33 28  2  0  0  0  0
 34 39  2  0  0  0  0
 34 35  1  0  0  0  0
 35 36  2  0  0  0  0
 36 37  1  0  0  0  0
 36 65  1  0  0  0  0
 37 66  1  0  0  0  0
 38 67  1  0  0  0  0
 38 37  2  0  0  0  0
 39 38  1  0  0  0  0
 43  9  1  0  0  0  0
 47 14  1  0  0  0  0
 48 15  1  0  0  0  0
 51 19  1  0  0  0  0
 52 20  1  0  0  0  0
 53 21  1  0  0  0  0
 56 25  1  0  0  0  0
 57 26  1  0  0  0  0
 58 27  1  0  0  0  0
 61 31  1  0  0  0  0
 62 32  1  0  0  0  0
 63 33  1  0  0  0  0
 64 35  1  0  0  0  0
 68 39  1  0  0  0  0
M  END
$$$$
