CSD_code = OHEREY | q = 0 | S = 0 | Stoichiometry = C32H29Cl2NP2PdSe | MND = 4
 OpenBabel04212202073D

 68 74  0  0  1  0  0  0  0  0999 V2000
    7.9410    1.4363    6.2309 Pd  0  0  0  0  0  0  0  0  0  0  0  0
    6.2417    2.8640    7.4015 Se  0  0  0  0  0  0  0  0  0  0  0  0
    9.3842    0.1068    5.1098 Cl  0  0  0  0  0  0  0  0  0  0  0  0
    8.9433    3.2931    5.3927 Cl  0  0  0  0  0  0  0  0  0  0  0  0
    7.2795   -0.3757    7.3872 P   0  0  0  0  0  4  0  0  0  0  0  0
    5.2035    1.2265    6.5227 P   0  0  0  0  0  0  0  0  0  0  0  0
    5.5549   -0.2589    7.3071 N   0  0  0  0  0  0  0  0  0  0  0  0
    4.6610   -0.9826    8.2246 C   0  0  1  0  0  0  0  0  0  0  0  0
    4.2128   -0.0975    9.3813 C   0  0  0  0  0  0  0  0  0  0  0  0
    3.5387   -1.6341    7.4484 C   0  0  0  0  0  0  0  0  0  0  0  0
    2.1966   -1.3402    7.6444 C   0  0  0  0  0  0  0  0  0  0  0  0
    1.2238   -1.9731    6.8884 C   0  0  0  0  0  0  0  0  0  0  0  0
    1.5760   -2.9019    5.9261 C   0  0  0  0  0  0  0  0  0  0  0  0
    2.9118   -3.2149    5.7355 C   0  0  0  0  0  0  0  0  0  0  0  0
    3.8820   -2.5923    6.4981 C   0  0  0  0  0  0  0  0  0  0  0  0
    7.6010   -2.1349    7.0933 C   0  0  0  0  0  0  0  0  0  0  0  0
    7.4631   -2.5656    5.7745 C   0  0  0  0  0  0  0  0  0  0  0  0
    7.7206   -3.8813    5.4424 C   0  0  0  0  0  0  0  0  0  0  0  0
    8.1334   -4.7730    6.4203 C   0  0  0  0  0  0  0  0  0  0  0  0
    8.3105   -4.3389    7.7232 C   0  0  0  0  0  0  0  0  0  0  0  0
    8.0566   -3.0212    8.0630 C   0  0  0  0  0  0  0  0  0  0  0  0
    7.8519   -0.0436    9.0975 C   0  0  0  0  0  0  0  0  0  0  0  0
    7.4025   -0.6708   10.2585 C   0  0  0  0  0  0  0  0  0  0  0  0
    7.9270   -0.3143   11.4886 C   0  0  0  0  0  0  0  0  0  0  0  0
    8.9090    0.6582   11.5776 C   0  0  0  0  0  0  0  0  0  0  0  0
    9.3749    1.2761   10.4288 C   0  0  0  0  0  0  0  0  0  0  0  0
    8.8513    0.9300    9.1961 C   0  0  0  0  0  0  0  0  0  0  0  0
    5.6189    0.9180    4.7629 C   0  0  0  0  0  0  0  0  0  0  0  0
    6.2009    1.9588    4.0278 C   0  0  0  0  0  0  0  0  0  0  0  0
    6.6281    1.7227    2.7314 C   0  0  0  0  0  0  0  0  0  0  0  0
    6.4620    0.4688    2.1621 C   0  0  0  0  0  0  0  0  0  0  0  0
    5.8364   -0.5425    2.8715 C   0  0  0  0  0  0  0  0  0  0  0  0
    5.4143   -0.3258    4.1730 C   0  0  0  0  0  0  0  0  0  0  0  0
    3.4008    1.4921    6.5123 C   0  0  0  0  0  0  0  0  0  0  0  0
    2.5861    0.8437    5.5922 C   0  0  0  0  0  0  0  0  0  0  0  0
    1.2328    1.1281    5.5570 C   0  0  0  0  0  0  0  0  0  0  0  0
    0.6921    2.0605    6.4267 C   0  0  0  0  0  0  0  0  0  0  0  0
    1.5091    2.7271    7.3265 C   0  0  0  0  0  0  0  0  0  0  0  0
    2.8630    2.4513    7.3623 C   0  0  0  0  0  0  0  0  0  0  0  0
    5.2847   -1.7995    8.6191 H   0  0  0  0  0  0  0  0  0  0  0  0
    3.6795   -0.6895   10.1220 H   0  0  0  0  0  0  0  0  0  0  0  0
    5.0806    0.3589    9.8538 H   0  0  0  0  0  0  0  0  0  0  0  0
    3.5667    0.7015    9.0277 H   0  0  0  0  0  0  0  0  0  0  0  0
    1.8933   -0.6177    8.3850 H   0  0  0  0  0  0  0  0  0  0  0  0
    0.1841   -1.7333    7.0545 H   0  0  0  0  0  0  0  0  0  0  0  0
    0.8148   -3.3880    5.3347 H   0  0  0  0  0  0  0  0  0  0  0  0
    3.1984   -3.9506    4.9986 H   0  0  0  0  0  0  0  0  0  0  0  0
    4.9233   -2.8567    6.3677 H   0  0  0  0  0  0  0  0  0  0  0  0
    7.1897   -1.8477    5.0136 H   0  0  0  0  0  0  0  0  0  0  0  0
    7.6163   -4.2090    4.4188 H   0  0  0  0  0  0  0  0  0  0  0  0
    8.3387   -5.8013    6.1623 H   0  0  0  0  0  0  0  0  0  0  0  0
    8.6594   -5.0266    8.4796 H   0  0  0  0  0  0  0  0  0  0  0  0
    8.2314   -2.6860    9.0745 H   0  0  0  0  0  0  0  0  0  0  0  0
    6.6410   -1.4362   10.2166 H   0  0  0  0  0  0  0  0  0  0  0  0
    7.5650   -0.8023   12.3820 H   0  0  0  0  0  0  0  0  0  0  0  0
    9.3115    0.9314   12.5413 H   0  0  0  0  0  0  0  0  0  0  0  0
   10.1439    2.0310   10.4913 H   0  0  0  0  0  0  0  0  0  0  0  0
    9.2383    1.4272    8.2899 H   0  0  0  0  0  0  0  0  0  0  0  0
    6.2911    2.9573    4.4564 H   0  0  0  0  0  0  0  0  0  0  0  0
    7.1042    2.5167    2.1766 H   0  0  0  0  0  0  0  0  0  0  0  0
    6.8191    0.2811    1.1609 H   0  0  0  0  0  0  0  0  0  0  0  0
    5.6912   -1.5134    2.4203 H   0  0  0  0  0  0  0  0  0  0  0  0
    4.9419   -1.1192    4.7372 H   0  0  0  0  0  0  0  0  0  0  0  0
    3.0019    0.1201    4.9080 H   0  0  0  0  0  0  0  0  0  0  0  0
    0.6009    0.6204    4.8441 H   0  0  0  0  0  0  0  0  0  0  0  0
   -0.3647    2.2788    6.3943 H   0  0  0  0  0  0  0  0  0  0  0  0
    1.0937    3.4682    7.9924 H   0  0  0  0  0  0  0  0  0  0  0  0
    3.5213    2.9842    8.0381 H   0  0  0  0  0  0  0  0  0  0  0  0
  1  6  1  0  0  0  0
  1  5  1  0  0  0  0
  1  2  1  0  0  0  0
  3  1  1  0  0  0  0
  4  1  1  0  0  0  0
  5 22  1  0  0  0  0
  6  7  1  0  0  0  0
  6  2  1  0  0  0  0
  7  5  1  0  0  0  0
  7  8  1  0  0  0  0
  8 40  1  1  0  0  0
  8  9  1  0  0  0  0
  9 42  1  0  0  0  0
  9 41  1  0  0  0  0
 10 11  1  0  0  0  0
 10  8  1  0  0  0  0
 11 44  1  0  0  0  0
 12 45  1  0  0  0  0
 12 11  2  0  0  0  0
 13 12  1  0  0  0  0
 14 13  2  0  0  0  0
 14 15  1  0  0  0  0
 15 10  2  0  0  0  0
 16  5  1  0  0  0  0
 16 21  1  0  0  0  0
 17 16  2  0  0  0  0
 18 17  1  0  0  0  0
 18 19  2  0  0  0  0
 19 20  1  0  0  0  0
 20 21  2  0  0  0  0
 20 52  1  0  0  0  0
 21 53  1  0  0  0  0
 22 27  2  0  0  0  0
 22 23  1  0  0  0  0
 23 24  2  0  0  0  0
 24 25  1  0  0  0  0
 24 55  1  0  0  0  0
 25 56  1  0  0  0  0
 26 57  1  0  0  0  0
 26 25  2  0  0  0  0
 27 26  1  0  0  0  0
 28  6  1  0  0  0  0
 29 59  1  0  0  0  0
 29 28  2  0  0  0  0
 30 29  1  0  0  0  0
 31 30  2  0  0  0  0
 31 32  1  0  0  0  0
 32 33  2  0  0  0  0
 33 63  1  0  0  0  0
 33 28  1  0  0  0  0
 34  6  1  0  0  0  0
 34 39  1  0  0  0  0
 35 34  2  0  0  0  0
 36 35  1  0  0  0  0
 36 37  2  0  0  0  0
 37 38  1  0  0  0  0
 38 39  2  0  0  0  0
 38 67  1  0  0  0  0
 39 68  1  0  0  0  0
 43  9  1  0  0  0  0
 46 13  1  0  0  0  0
 47 14  1  0  0  0  0
 48 15  1  0  0  0  0
 49 17  1  0  0  0  0
 50 18  1  0  0  0  0
 51 19  1  0  0  0  0
 54 23  1  0  0  0  0
 58 27  1  0  0  0  0
 60 30  1  0  0  0  0
 61 31  1  0  0  0  0
 62 32  1  0  0  0  0
 64 35  1  0  0  0  0
 65 36  1  0  0  0  0
 66 37  1  0  0  0  0
M  END
$$$$
