CSD_code = OHERIC | q = 0 | S = 0 | Stoichiometry = C32H29Cl2NP2PtSe | MND = 4
 OpenBabel04212202073D

 68 74  0  0  1  0  0  0  0  0999 V2000
    8.0952    1.3934    6.1932 Pt  0  0  0  0  0  0  0  0  0  0  0  0
    6.3185    2.9261    7.2834 Se  0  0  0  0  0  0  0  0  0  0  0  0
    9.5453   -0.0334    5.1535 Cl  0  0  0  0  0  0  0  0  0  0  0  0
    9.0290    3.1504    5.0841 Cl  0  0  0  0  0  0  0  0  0  0  0  0
    7.3530   -0.3300    7.4607 P   0  0  0  0  0  4  0  0  0  0  0  0
    5.2811    1.2487    6.4694 P   0  0  0  0  0  0  0  0  0  0  0  0
    5.6328   -0.2133    7.2960 N   0  0  0  0  0  0  0  0  0  0  0  0
    4.7216   -0.9367    8.1966 C   0  0  1  0  0  0  0  0  0  0  0  0
    4.2679   -0.0636    9.3607 C   0  0  0  0  0  0  0  0  0  0  0  0
    3.5996   -1.5785    7.4119 C   0  0  0  0  0  0  0  0  0  0  0  0
    2.2596   -1.2637    7.5899 C   0  0  0  0  0  0  0  0  0  0  0  0
    1.2854   -1.8935    6.8332 C   0  0  0  0  0  0  0  0  0  0  0  0
    1.6339   -2.8407    5.8877 C   0  0  0  0  0  0  0  0  0  0  0  0
    2.9668   -3.1759    5.7161 C   0  0  0  0  0  0  0  0  0  0  0  0
    3.9382   -2.5565    6.4801 C   0  0  0  0  0  0  0  0  0  0  0  0
    7.6991   -2.0824    7.1602 C   0  0  0  0  0  0  0  0  0  0  0  0
    7.4806   -2.5440    5.8630 C   0  0  0  0  0  0  0  0  0  0  0  0
    7.7849   -3.8485    5.5267 C   0  0  0  0  0  0  0  0  0  0  0  0
    8.3305   -4.6982    6.4762 C   0  0  0  0  0  0  0  0  0  0  0  0
    8.5924   -4.2309    7.7528 C   0  0  0  0  0  0  0  0  0  0  0  0
    8.2899   -2.9244    8.0960 C   0  0  0  0  0  0  0  0  0  0  0  0
    7.8044   -0.0373    9.2068 C   0  0  0  0  0  0  0  0  0  0  0  0
    7.3610   -0.7617   10.3124 C   0  0  0  0  0  0  0  0  0  0  0  0
    7.8037   -0.4297   11.5804 C   0  0  0  0  0  0  0  0  0  0  0  0
    8.6973    0.6137   11.7621 C   0  0  0  0  0  0  0  0  0  0  0  0
    9.1569    1.3272   10.6680 C   0  0  0  0  0  0  0  0  0  0  0  0
    8.7131    1.0018    9.3997 C   0  0  0  0  0  0  0  0  0  0  0  0
    5.6508    0.9164    4.7152 C   0  0  0  0  0  0  0  0  0  0  0  0
    6.1440    1.9624    3.9363 C   0  0  0  0  0  0  0  0  0  0  0  0
    6.4678    1.7356    2.6108 C   0  0  0  0  0  0  0  0  0  0  0  0
    6.2884    0.4774    2.0582 C   0  0  0  0  0  0  0  0  0  0  0  0
    5.7503   -0.5477    2.8187 C   0  0  0  0  0  0  0  0  0  0  0  0
    5.4223   -0.3327    4.1459 C   0  0  0  0  0  0  0  0  0  0  0  0
    3.4792    1.5294    6.4827 C   0  0  0  0  0  0  0  0  0  0  0  0
    2.6502    0.9119    5.5542 C   0  0  0  0  0  0  0  0  0  0  0  0
    1.3009    1.2163    5.5300 C   0  0  0  0  0  0  0  0  0  0  0  0
    0.7765    2.1379    6.4208 C   0  0  0  0  0  0  0  0  0  0  0  0
    1.6068    2.7740    7.3302 C   0  0  0  0  0  0  0  0  0  0  0  0
    2.9570    2.4791    7.3533 C   0  0  0  0  0  0  0  0  0  0  0  0
    5.3356   -1.7611    8.5905 H   0  0  0  0  0  0  0  0  0  0  0  0
    3.7131   -0.6604   10.0816 H   0  0  0  0  0  0  0  0  0  0  0  0
    5.1350    0.3679    9.8567 H   0  0  0  0  0  0  0  0  0  0  0  0
    3.6396    0.7509    9.0119 H   0  0  0  0  0  0  0  0  0  0  0  0
    1.9584   -0.5276    8.3179 H   0  0  0  0  0  0  0  0  0  0  0  0
    0.2476   -1.6371    6.9860 H   0  0  0  0  0  0  0  0  0  0  0  0
    0.8717   -3.3246    5.2958 H   0  0  0  0  0  0  0  0  0  0  0  0
    3.2501   -3.9270    4.9935 H   0  0  0  0  0  0  0  0  0  0  0  0
    4.9762   -2.8408    6.3675 H   0  0  0  0  0  0  0  0  0  0  0  0
    7.1053   -1.8581    5.1177 H   0  0  0  0  0  0  0  0  0  0  0  0
    7.6142   -4.1989    4.5197 H   0  0  0  0  0  0  0  0  0  0  0  0
    8.5733   -5.7174    6.2146 H   0  0  0  0  0  0  0  0  0  0  0  0
    9.0457   -4.8831    8.4851 H   0  0  0  0  0  0  0  0  0  0  0  0
    8.5304   -2.5617    9.0844 H   0  0  0  0  0  0  0  0  0  0  0  0
    6.6715   -1.5859   10.1974 H   0  0  0  0  0  0  0  0  0  0  0  0
    7.4498   -0.9933   12.4316 H   0  0  0  0  0  0  0  0  0  0  0  0
    9.0369    0.8646   12.7558 H   0  0  0  0  0  0  0  0  0  0  0  0
    9.8594    2.1356   10.8006 H   0  0  0  0  0  0  0  0  0  0  0  0
    9.0785    1.5558    8.5349 H   0  0  0  0  0  0  0  0  0  0  0  0
    6.2686    2.9503    4.3638 H   0  0  0  0  0  0  0  0  0  0  0  0
    6.8766    2.5392    2.0185 H   0  0  0  0  0  0  0  0  0  0  0  0
    6.5645    0.2959    1.0305 H   0  0  0  0  0  0  0  0  0  0  0  0
    5.5926   -1.5232    2.3820 H   0  0  0  0  0  0  0  0  0  0  0  0
    4.9958   -1.1267    4.7434 H   0  0  0  0  0  0  0  0  0  0  0  0
    3.0528    0.1961    4.8537 H   0  0  0  0  0  0  0  0  0  0  0  0
    0.6594    0.7327    4.8089 H   0  0  0  0  0  0  0  0  0  0  0  0
   -0.2772    2.3720    6.3975 H   0  0  0  0  0  0  0  0  0  0  0  0
    1.2048    3.5067    8.0135 H   0  0  0  0  0  0  0  0  0  0  0  0
    3.6216    2.9928    8.0373 H   0  0  0  0  0  0  0  0  0  0  0  0
  1  6  1  0  0  0  0
  1  2  1  0  0  0  0
  1  5  1  0  0  0  0
  3  1  1  0  0  0  0
  4  1  1  0  0  0  0
  5 22  1  0  0  0  0
  6 34  1  0  0  0  0
  6  2  1  0  0  0  0
  6  7  1  0  0  0  0
  7  5  1  0  0  0  0
  7  8  1  0  0  0  0
  8 40  1  1  0  0  0
  8  9  1  0  0  0  0
  9 42  1  0  0  0  0
  9 41  1  0  0  0  0
 10 11  1  0  0  0  0
 10  8  1  0  0  0  0
 11 44  1  0  0  0  0
 12 45  1  0  0  0  0
 12 11  2  0  0  0  0
 13 12  1  0  0  0  0
 14 13  2  0  0  0  0
 14 15  1  0  0  0  0
 15 10  2  0  0  0  0
 16  5  1  0  0  0  0
 16 21  1  0  0  0  0
 17 16  2  0  0  0  0
 18 17  1  0  0  0  0
 18 19  2  0  0  0  0
 19 20  1  0  0  0  0
 20 21  2  0  0  0  0
 20 52  1  0  0  0  0
 21 53  1  0  0  0  0
 22 27  2  0  0  0  0
 22 23  1  0  0  0  0
 23 24  2  0  0  0  0
 24 25  1  0  0  0  0
 24 55  1  0  0  0  0
 25 56  1  0  0  0  0
 26 57  1  0  0  0  0
 26 25  2  0  0  0  0
 27 26  1  0  0  0  0
 28  6  1  0  0  0  0
 29 59  1  0  0  0  0
 29 28  2  0  0  0  0
 30 29  1  0  0  0  0
 31 30  2  0  0  0  0
 31 32  1  0  0  0  0
 32 33  2  0  0  0  0
 33 28  1  0  0  0  0
 33 63  1  0  0  0  0
 34 39  1  0  0  0  0
 35 34  2  0  0  0  0
 36 35  1  0  0  0  0
 36 37  2  0  0  0  0
 37 38  1  0  0  0  0
 38 39  2  0  0  0  0
 38 67  1  0  0  0  0
 39 68  1  0  0  0  0
 43  9  1  0  0  0  0
 46 13  1  0  0  0  0
 47 14  1  0  0  0  0
 48 15  1  0  0  0  0
 49 17  1  0  0  0  0
 50 18  1  0  0  0  0
 51 19  1  0  0  0  0
 54 23  1  0  0  0  0
 58 27  1  0  0  0  0
 60 30  1  0  0  0  0
 61 31  1  0  0  0  0
 62 32  1  0  0  0  0
 64 35  1  0  0  0  0
 65 36  1  0  0  0  0
 66 37  1  0  0  0  0
M  END
$$$$
