CSD_code = OHERAU | q = 0 | S = 0 | Stoichiometry = C32H29Cl2NP2PtS | MND = 4
 OpenBabel04212202073D

 68 73  0  0  1  0  0  0  0  0999 V2000
   -1.7584    7.8531    0.5731 Pt  0  0  0  0  0  0  0  0  0  0  0  0
   -0.1047    7.1167   -0.8084 Cl  0  0  0  0  0  0  0  0  0  0  0  0
   -3.2763    6.5791   -0.5445 Cl  0  0  0  0  0  0  0  0  0  0  0  0
   -3.4801    8.6500    2.1808 S   0  0  0  0  0  0  0  0  0  0  0  0
   -0.2741    9.2752    1.5142 P   0  0  0  0  0  4  0  0  0  0  0  0
   -1.9922    8.1096    3.3729 P   0  0  0  0  0  4  0  0  0  0  0  0
   -0.6025    9.1037    3.2061 N   0  0  0  0  0  0  0  0  0  0  0  0
   -0.0703   10.0552    4.1941 C   0  0  1  0  0  0  0  0  0  0  0  0
   -1.0701   11.1610    4.5131 C   0  0  0  0  0  0  0  0  0  0  0  0
    0.4661    9.3270    5.4057 C   0  0  0  0  0  0  0  0  0  0  0  0
   -0.0865    9.4383    6.6743 C   0  0  0  0  0  0  0  0  0  0  0  0
    0.4568    8.7399    7.7398 C   0  0  0  0  0  0  0  0  0  0  0  0
    1.5552    7.9202    7.5551 C   0  0  0  0  0  0  0  0  0  0  0  0
    2.1264    7.8175    6.2976 C   0  0  0  0  0  0  0  0  0  0  0  0
    1.5904    8.5227    5.2358 C   0  0  0  0  0  0  0  0  0  0  0  0
    1.5232    9.1117    1.3784 C   0  0  0  0  0  0  0  0  0  0  0  0
    2.0709    7.8898    1.7651 C   0  0  0  0  0  0  0  0  0  0  0  0
    3.4211    7.6486    1.6054 C   0  0  0  0  0  0  0  0  0  0  0  0
    4.2333    8.6162    1.0343 C   0  0  0  0  0  0  0  0  0  0  0  0
    3.6847    9.8114    0.6016 C   0  0  0  0  0  0  0  0  0  0  0  0
    2.3321   10.0591    0.7602 C   0  0  0  0  0  0  0  0  0  0  0  0
   -0.6558   10.9974    1.0478 C   0  0  0  0  0  0  0  0  0  0  0  0
    0.0005   12.1347    1.5169 C   0  0  0  0  0  0  0  0  0  0  0  0
   -0.3874   13.3874    1.0768 C   0  0  0  0  0  0  0  0  0  0  0  0
   -1.4222   13.5211    0.1642 C   0  0  0  0  0  0  0  0  0  0  0  0
   -2.0708   12.3957   -0.3158 C   0  0  0  0  0  0  0  0  0  0  0  0
   -1.6878   11.1413    0.1230 C   0  0  0  0  0  0  0  0  0  0  0  0
   -1.4064    6.4023    3.1272 C   0  0  0  0  0  0  0  0  0  0  0  0
   -0.1749    5.9807    3.6191 C   0  0  0  0  0  0  0  0  0  0  0  0
    0.2453    4.6829    3.3869 C   0  0  0  0  0  0  0  0  0  0  0  0
   -0.5600    3.8058    2.6785 C   0  0  0  0  0  0  0  0  0  0  0  0
   -1.8063    4.2119    2.2292 C   0  0  0  0  0  0  0  0  0  0  0  0
   -2.2386    5.5063    2.4578 C   0  0  0  0  0  0  0  0  0  0  0  0
   -2.5767    8.1522    5.0950 C   0  0  0  0  0  0  0  0  0  0  0  0
   -2.0715    7.2847    6.0552 C   0  0  0  0  0  0  0  0  0  0  0  0
   -2.6093    7.2831    7.3299 C   0  0  0  0  0  0  0  0  0  0  0  0
   -3.6513    8.1376    7.6491 C   0  0  0  0  0  0  0  0  0  0  0  0
   -4.1734    8.9857    6.6851 C   0  0  0  0  0  0  0  0  0  0  0  0
   -3.6464    8.9853    5.4072 C   0  0  0  0  0  0  0  0  0  0  0  0
    0.7986   10.5037    3.6890 H   0  0  0  0  0  0  0  0  0  0  0  0
   -1.9530   10.7575    5.0006 H   0  0  0  0  0  0  0  0  0  0  0  0
   -0.6095   11.9022    5.1628 H   0  0  0  0  0  0  0  0  0  0  0  0
   -1.3849   11.6491    3.5932 H   0  0  0  0  0  0  0  0  0  0  0  0
   -0.9422   10.0707    6.8488 H   0  0  0  0  0  0  0  0  0  0  0  0
    0.0139    8.8399    8.7196 H   0  0  0  0  0  0  0  0  0  0  0  0
    1.9724    7.3736    8.3874 H   0  0  0  0  0  0  0  0  0  0  0  0
    2.9951    7.1944    6.1441 H   0  0  0  0  0  0  0  0  0  0  0  0
    2.0539    8.4632    4.2599 H   0  0  0  0  0  0  0  0  0  0  0  0
    1.4190    7.1231    2.1583 H   0  0  0  0  0  0  0  0  0  0  0  0
    3.8388    6.6998    1.9078 H   0  0  0  0  0  0  0  0  0  0  0  0
    5.2884    8.4279    0.9035 H   0  0  0  0  0  0  0  0  0  0  0  0
    4.3100   10.5518    0.1248 H   0  0  0  0  0  0  0  0  0  0  0  0
    1.9078   10.9790    0.3863 H   0  0  0  0  0  0  0  0  0  0  0  0
    0.8148   12.0520    2.2229 H   0  0  0  0  0  0  0  0  0  0  0  0
    0.1242   14.2641    1.4467 H   0  0  0  0  0  0  0  0  0  0  0  0
   -1.7168   14.5031   -0.1745 H   0  0  0  0  0  0  0  0  0  0  0  0
   -2.8722   12.4933   -1.0319 H   0  0  0  0  0  0  0  0  0  0  0  0
   -2.1868   10.2514   -0.2583 H   0  0  0  0  0  0  0  0  0  0  0  0
    0.4468    6.6690    4.1755 H   0  0  0  0  0  0  0  0  0  0  0  0
    1.2087    4.3604    3.7545 H   0  0  0  0  0  0  0  0  0  0  0  0
   -0.2165    2.8015    2.4815 H   0  0  0  0  0  0  0  0  0  0  0  0
   -2.4408    3.5286    1.6868 H   0  0  0  0  0  0  0  0  0  0  0  0
   -3.2212    5.8167    2.1244 H   0  0  0  0  0  0  0  0  0  0  0  0
   -1.2629    6.6127    5.8109 H   0  0  0  0  0  0  0  0  0  0  0  0
   -2.2138    6.6082    8.0739 H   0  0  0  0  0  0  0  0  0  0  0  0
   -4.0675    8.1329    8.6453 H   0  0  0  0  0  0  0  0  0  0  0  0
   -4.9985    9.6392    6.9257 H   0  0  0  0  0  0  0  0  0  0  0  0
   -4.0683    9.6169    4.6367 H   0  0  0  0  0  0  0  0  0  0  0  0
  1  5  1  0  0  0  0
  1  4  1  0  0  0  0
  2  1  1  0  0  0  0
  3  1  1  0  0  0  0
  4  6  1  0  0  0  0
  5  7  1  0  0  0  0
  6 34  1  0  0  0  0
  7  6  1  0  0  0  0
  7  8  1  0  0  0  0
  8 40  1  6  0  0  0
  8  9  1  0  0  0  0
  8 10  1  0  0  0  0
  9 41  1  0  0  0  0
  9 42  1  0  0  0  0
 10 11  1  0  0  0  0
 11 44  1  0  0  0  0
 11 12  2  0  0  0  0
 12 45  1  0  0  0  0
 13 12  1  0  0  0  0
 13 46  1  0  0  0  0
 14 13  2  0  0  0  0
 15 10  2  0  0  0  0
 15 14  1  0  0  0  0
 16  5  1  0  0  0  0
 16 17  1  0  0  0  0
 17 49  1  0  0  0  0
 18 17  2  0  0  0  0
 18 50  1  0  0  0  0
 19 18  1  0  0  0  0
 20 21  1  0  0  0  0
 20 19  2  0  0  0  0
 21 16  2  0  0  0  0
 22  5  1  0  0  0  0
 22 23  1  0  0  0  0
 23 54  1  0  0  0  0
 24 55  1  0  0  0  0
 24 23  2  0  0  0  0
 25 24  1  0  0  0  0
 26 27  1  0  0  0  0
 26 25  2  0  0  0  0
 27 22  2  0  0  0  0
 28  6  1  0  0  0  0
 28 29  1  0  0  0  0
 29 59  1  0  0  0  0
 30 29  2  0  0  0  0
 30 60  1  0  0  0  0
 31 30  1  0  0  0  0
 32 33  1  0  0  0  0
 32 31  2  0  0  0  0
 33 28  2  0  0  0  0
 34 39  2  0  0  0  0
 34 35  1  0  0  0  0
 35 36  2  0  0  0  0
 36 37  1  0  0  0  0
 36 65  1  0  0  0  0
 37 66  1  0  0  0  0
 38 67  1  0  0  0  0
 38 37  2  0  0  0  0
 39 38  1  0  0  0  0
 43  9  1  0  0  0  0
 47 14  1  0  0  0  0
 48 15  1  0  0  0  0
 51 19  1  0  0  0  0
 52 20  1  0  0  0  0
 53 21  1  0  0  0  0
 56 25  1  0  0  0  0
 57 26  1  0  0  0  0
 58 27  1  0  0  0  0
 61 31  1  0  0  0  0
 62 32  1  0  0  0  0
 63 33  1  0  0  0  0
 64 35  1  0  0  0  0
 68 39  1  0  0  0  0
M  END
$$$$
