CSD_code = OHEYUX | q = 0 | S = 0 | Stoichiometry = C20H20Br2FeN4 | MND = 6
 OpenBabel04212202073D

 47 50  0  0  0  0  0  0  0  0999 V2000
    7.4011    5.2250    4.3111 Br  0  0  0  0  0  0  0  0  0  0  0  0
    7.4023    2.8505    4.3107 Fe  0  0  0  0  0  0  0  0  0  0  0  0
    7.4023    2.8508    2.3147 N   0  0  0  0  0  0  0  0  0  0  0  0
    8.2336    2.0719    1.6168 C   0  0  0  0  0  3  0  0  0  0  0  0
    8.8944    1.4350    2.1838 H   0  0  0  0  0  0  0  0  0  0  0  0
    8.2670    2.0389    0.2361 C   0  0  0  0  0  0  0  0  0  0  0  0
    8.9610    1.3812   -0.2624 H   0  0  0  0  0  0  0  0  0  0  0  0
    7.4025    2.8511   -0.4808 C   0  0  0  0  0  0  0  0  0  0  0  0
    7.4026    2.8512   -1.5598 H   0  0  0  0  0  0  0  0  0  0  0  0
    5.4063    2.8507    4.3109 N   0  0  0  0  0  0  0  0  0  0  0  0
    4.7083    2.0754    3.4763 C   0  0  0  0  0  3  0  0  0  0  0  0
    5.2754    1.4412    2.8129 H   0  0  0  0  0  0  0  0  0  0  0  0
    3.3277    2.0430    3.4425 C   0  0  0  0  0  0  0  0  0  0  0  0
    2.8290    1.3889    2.7451 H   0  0  0  0  0  0  0  0  0  0  0  0
    2.6109    2.8507    4.3112 C   0  0  0  0  0  0  0  0  0  0  0  0
    1.5318    2.8506    4.3114 H   0  0  0  0  0  0  0  0  0  0  0  0
    6.5710    3.6297    1.6168 C   0  0  0  0  0  0  0  0  0  0  0  0
    5.9100    4.2664    2.1839 H   0  0  0  0  0  0  0  0  0  0  0  0
    6.5379    3.6631    0.2362 C   0  0  0  0  0  0  0  0  0  0  0  0
    5.8440    4.3209   -0.2624 H   0  0  0  0  0  0  0  0  0  0  0  0
    4.7085    3.6261    5.1456 C   0  0  0  0  0  0  0  0  0  0  0  0
    5.2758    4.2604    5.8087 H   0  0  0  0  0  0  0  0  0  0  0  0
    3.3279    3.6585    5.1797 C   0  0  0  0  0  0  0  0  0  0  0  0
    2.8293    4.3124    5.8773 H   0  0  0  0  0  0  0  0  0  0  0  0
    7.4016    0.4765    4.3109 Br  0  0  0  0  0  0  0  0  0  0  0  0
    9.3982    2.8506    4.3107 N   0  0  0  0  0  0  0  0  0  0  0  0
   10.0961    3.6260    3.4761 C   0  0  0  0  0  3  0  0  0  0  0  0
    9.5290    4.2602    2.8128 H   0  0  0  0  0  0  0  0  0  0  0  0
   11.4767    3.6584    3.4422 C   0  0  0  0  0  0  0  0  0  0  0  0
   11.9754    4.3124    2.7448 H   0  0  0  0  0  0  0  0  0  0  0  0
   12.1935    2.8507    4.3109 C   0  0  0  0  0  0  0  0  0  0  0  0
   13.2726    2.8507    4.3110 H   0  0  0  0  0  0  0  0  0  0  0  0
   10.0960    2.0754    5.1454 C   0  0  0  0  0  0  0  0  0  0  0  0
    9.5288    1.4411    5.8087 H   0  0  0  0  0  0  0  0  0  0  0  0
   11.4766    2.0429    5.1795 C   0  0  0  0  0  0  0  0  0  0  0  0
   11.9752    1.3890    5.8770 H   0  0  0  0  0  0  0  0  0  0  0  0
    7.4020    2.8510    6.3068 N   0  0  0  0  0  0  0  0  0  0  0  0
    8.2334    3.6299    7.0047 C   0  0  0  0  0  3  0  0  0  0  0  0
    8.8943    4.2666    6.4376 H   0  0  0  0  0  0  0  0  0  0  0  0
    8.2666    3.6631    8.3854 C   0  0  0  0  0  0  0  0  0  0  0  0
    8.9605    4.3209    8.8839 H   0  0  0  0  0  0  0  0  0  0  0  0
    7.4021    2.8510    9.1023 C   0  0  0  0  0  0  0  0  0  0  0  0
    7.4020    2.8512   10.1814 H   0  0  0  0  0  0  0  0  0  0  0  0
    6.5708    2.0720    7.0048 C   0  0  0  0  0  0  0  0  0  0  0  0
    5.9101    1.4350    6.4377 H   0  0  0  0  0  0  0  0  0  0  0  0
    6.5376    2.0388    8.3854 C   0  0  0  0  0  0  0  0  0  0  0  0
    5.8437    1.3811    8.8840 H   0  0  0  0  0  0  0  0  0  0  0  0
  2 26  1  0  0  0  0
  2 25  1  0  0  0  0
  2 10  1  0  0  0  0
  2  1  1  0  0  0  0
  2 37  1  0  0  0  0
  3  2  1  0  0  0  0
  4  5  1  0  0  0  0
  4  3  1  0  0  0  0
  6  4  1  0  0  0  0
  7  6  1  0  0  0  0
  8  6  2  0  0  0  0
  8 19  1  0  0  0  0
  9  8  1  0  0  0  0
 10 21  1  0  0  0  0
 11 10  1  0  0  0  0
 12 11  1  0  0  0  0
 13 11  1  0  0  0  0
 13 15  2  0  0  0  0
 14 13  1  0  0  0  0
 15 16  1  0  0  0  0
 15 23  1  0  0  0  0
 17 18  1  0  0  0  0
 17  3  1  0  0  0  0
 19 17  2  0  0  0  0
 20 19  1  0  0  0  0
 21 23  2  0  0  0  0
 21 22  1  0  0  0  0
 23 24  1  0  0  0  0
 26 33  1  0  0  0  0
 27 26  1  0  0  0  0
 28 27  1  0  0  0  0
 29 27  1  0  0  0  0
 29 31  2  0  0  0  0
 30 29  1  0  0  0  0
 31 32  1  0  0  0  0
 31 35  1  0  0  0  0
 33 35  2  0  0  0  0
 33 34  1  0  0  0  0
 35 36  1  0  0  0  0
 37 38  1  0  0  0  0
 37 44  1  0  0  0  0
 38 40  1  0  0  0  0
 39 38  1  0  0  0  0
 40 41  1  0  0  0  0
 40 42  2  0  0  0  0
 42 43  1  0  0  0  0
 44 46  2  0  0  0  0
 45 44  1  0  0  0  0
 46 47  1  0  0  0  0
 46 42  1  0  0  0  0
M  END
$$$$
