CSD_code = OHIPUS | q = 0 | S = 0 | Stoichiometry = C16H18Cl2MoN2O3 | MND = 6
 OpenBabel04212202073D

 42 43  0  0  0  0  0  0  0  0999 V2000
    6.4972   11.3291   13.5458 Mo  0  0  0  0  0  0  0  0  0  0  0  0
    4.9769   12.7803   12.5907 Cl  0  0  0  0  0  0  0  0  0  0  0  0
    8.4990   10.1399   13.3534 Cl  0  0  0  0  0  0  0  0  0  0  0  0
    6.8302   12.1732   15.0526 N   0  0  0  0  0  2  0  0  0  0  0  0
    6.4805   12.4744   16.3019 C   0  0  0  0  0  0  0  0  0  0  0  0
    7.3282   13.0732   17.2434 C   0  0  0  0  0  0  0  0  0  0  0  0
    8.3420   13.3003   16.9467 H   0  0  0  0  0  0  0  0  0  0  0  0
    6.8861   13.3447   18.5219 C   0  0  0  0  0  0  0  0  0  0  0  0
    7.5585   13.7990   19.2347 H   0  0  0  0  0  0  0  0  0  0  0  0
    5.5858   13.0453   18.8915 C   0  0  0  0  0  0  0  0  0  0  0  0
    5.2387   13.2668   19.8891 H   0  0  0  0  0  0  0  0  0  0  0  0
    4.7196   12.4613   17.9780 C   0  0  0  0  0  0  0  0  0  0  0  0
    3.7022   12.2430   18.2641 H   0  0  0  0  0  0  0  0  0  0  0  0
    5.1480   12.1605   16.7004 C   0  0  0  0  0  0  0  0  0  0  0  0
    4.3071   11.6363   15.7365 O   0  0  0  0  0  0  0  0  0  0  0  0
    5.4159   10.0002   13.9456 N   0  0  0  0  0  2  0  0  0  0  0  0
    4.5470    9.4482   14.7904 C   0  0  0  0  0  0  0  0  0  0  0  0
    3.9772   10.2942   15.7862 C   0  0  0  0  0  0  0  0  0  0  0  0
    3.0721    9.7812   16.6940 C   0  0  0  0  0  0  0  0  0  0  0  0
    2.6311   10.4318   17.4333 H   0  0  0  0  0  0  0  0  0  0  0  0
    2.7262    8.4377   16.6596 C   0  0  0  0  0  0  0  0  0  0  0  0
    2.0239    8.0494   17.3812 H   0  0  0  0  0  0  0  0  0  0  0  0
    3.2768    7.6029   15.7019 C   0  0  0  0  0  0  0  0  0  0  0  0
    3.0052    6.5579   15.6768 H   0  0  0  0  0  0  0  0  0  0  0  0
    4.1681    8.0992   14.7728 C   0  0  0  0  0  0  0  0  0  0  0  0
    4.6074    7.4546   14.0253 H   0  0  0  0  0  0  0  0  0  0  0  0
    7.9878   14.2642   12.6214 C   0  0  0  0  0  0  0  0  0  0  0  0
    8.7683   14.8192   12.0873 H   0  0  0  0  0  0  0  0  0  0  0  0
    8.2134   14.2420   13.6870 H   0  0  0  0  0  0  0  0  0  0  0  0
    7.0163   14.7464   12.4607 H   0  0  0  0  0  0  0  0  0  0  0  0
    7.9639   12.9191   12.1842 O   0  0  0  0  0  0  0  0  0  0  0  0
    7.6983   12.8009   10.7998 C   0  0  0  0  0  0  0  0  0  0  0  0
    8.4890   13.3115   10.2294 H   0  0  0  0  0  0  0  0  0  0  0  0
    6.7222   13.2545   10.5637 H   0  0  0  0  0  0  0  0  0  0  0  0
    7.6789   11.3228   10.4302 C   0  0  0  0  0  0  0  0  0  0  0  0
    7.5769   11.2186    9.3392 H   0  0  0  0  0  0  0  0  0  0  0  0
    8.6156   10.8459   10.7595 H   0  0  0  0  0  0  0  0  0  0  0  0
    6.5738   10.7112   11.0678 O   0  0  0  0  0  0  0  0  0  0  0  0
    6.4788    9.3280   10.7860 C   0  0  0  0  0  0  0  0  0  0  0  0
    6.3814    9.1701    9.7053 H   0  0  0  0  0  0  0  0  0  0  0  0
    5.5838    8.9690   11.2932 H   0  0  0  0  0  0  0  0  0  0  0  0
    7.3582    8.7904   11.1595 H   0  0  0  0  0  0  0  0  0  0  0  0
  1 16  1  0  0  0  0
  1  4  1  0  0  0  0
  2  1  1  0  0  0  0
  3  1  1  0  0  0  0
  4  5  1  0  0  0  0
  5 14  2  0  0  0  0
  5  6  1  0  0  0  0
  6  8  2  0  0  0  0
  7  6  1  0  0  0  0
  8 10  1  0  0  0  0
  8  9  1  0  0  0  0
 10 11  1  0  0  0  0
 12 13  1  0  0  0  0
 12 10  2  0  0  0  0
 14 12  1  0  0  0  0
 15 18  1  0  0  0  0
 15 14  1  0  0  0  0
 16 17  1  0  0  0  0
 17 18  1  0  0  0  0
 18 19  2  0  0  0  0
 19 20  1  0  0  0  0
 21 19  1  0  0  0  0
 21 22  1  0  0  0  0
 23 21  2  0  0  0  0
 24 23  1  0  0  0  0
 25 17  2  0  0  0  0
 25 23  1  0  0  0  0
 26 25  1  0  0  0  0
 27 29  1  0  0  0  0
 28 27  1  0  0  0  0
 30 27  1  0  0  0  0
 31 27  1  0  0  0  0
 32 31  1  0  0  0  0
 33 32  1  0  0  0  0
 34 32  1  0  0  0  0
 35 37  1  0  0  0  0
 35 32  1  0  0  0  0
 35 38  1  0  0  0  0
 36 35  1  0  0  0  0
 39 38  1  0  0  0  0
 39 42  1  0  0  0  0
 39 41  1  0  0  0  0
 40 39  1  0  0  0  0
M  END
$$$$
