CSD_code = OHONIJ | q = 0 | S = 0 | Stoichiometry = C22H25ClN5OPPd | MND = 4
 OpenBabel04212202083D

 56 62  0  0  1  0  0  0  0  0999 V2000
    3.2250    9.7074    5.6651 C   0  0  0  0  0  0  0  0  0  0  0  0
    3.2754   10.4502    4.8563 H   0  0  0  0  0  0  0  0  0  0  0  0
    3.3238   10.1954    6.6405 H   0  0  0  0  0  0  0  0  0  0  0  0
    1.8859    8.9730    5.6240 C   0  0  0  0  0  0  0  0  0  0  0  0
    2.2637    8.7582    3.2158 C   0  0  0  0  0  0  0  0  0  0  0  0
    1.6028    9.1260    2.0427 C   0  0  0  0  0  0  0  0  0  0  0  0
    0.5336    9.2649    2.0586 H   0  0  0  0  0  0  0  0  0  0  0  0
    2.3031    9.3425    0.8740 C   0  0  0  0  0  0  0  0  0  0  0  0
    1.7736    9.6399   -0.0183 H   0  0  0  0  0  0  0  0  0  0  0  0
    3.6822    9.1936    0.8488 C   0  0  0  0  0  0  0  0  0  0  0  0
    4.2334    9.3807   -0.0596 H   0  0  0  0  0  0  0  0  0  0  0  0
    4.3467    8.8036    1.9927 C   0  0  0  0  0  0  0  0  0  0  0  0
    5.4210    8.6959    1.9881 H   0  0  0  0  0  0  0  0  0  0  0  0
    3.6557    8.5690    3.1830 C   0  0  0  0  0  0  0  0  0  0  0  0
    4.4034    8.1344    4.3690 C   0  0  0  0  0  0  0  0  0  0  0  0
    5.3575    7.0358    4.3225 C   0  0  0  0  0  0  0  0  0  0  0  0
    5.5103    6.1971    3.2170 C   0  0  0  0  0  0  0  0  0  0  0  0
    4.9202    6.3587    2.3260 H   0  0  0  0  0  0  0  0  0  0  0  0
    6.4029    5.1455    3.2693 C   0  0  0  0  0  0  0  0  0  0  0  0
    6.5261    4.4968    2.4145 H   0  0  0  0  0  0  0  0  0  0  0  0
    7.1297    4.9209    4.4274 C   0  0  0  0  0  0  0  0  0  0  0  0
    7.8267    4.0957    4.4724 H   0  0  0  0  0  0  0  0  0  0  0  0
    6.9578    5.7362    5.5378 C   0  0  0  0  0  0  0  0  0  0  0  0
    7.5265    5.5163    6.4307 H   0  0  0  0  0  0  0  0  0  0  0  0
    6.0693    6.8060    5.5251 C   0  0  0  0  0  0  0  0  0  0  0  0
    0.2174    7.9039    4.2634 C   0  0  0  0  0  0  0  0  0  0  0  0
   -0.0047    7.4257    5.2170 H   0  0  0  0  0  0  0  0  0  0  0  0
    0.2371    7.1587    3.4705 H   0  0  0  0  0  0  0  0  0  0  0  0
   -0.5636    8.6405    4.0616 H   0  0  0  0  0  0  0  0  0  0  0  0
    8.2842    6.3302    8.8157 C   0  0  0  0  0  0  0  0  0  0  0  0
    7.8047    5.3515    8.6979 H   0  0  0  0  0  0  0  0  0  0  0  0
    9.0394    6.4484    8.0300 H   0  0  0  0  0  0  0  0  0  0  0  0
    8.0174    6.1469   11.1969 C   0  0  0  0  0  0  0  0  0  0  0  0
    7.4576    5.2247   11.0182 H   0  0  0  0  0  0  0  0  0  0  0  0
    8.5975    6.0384   12.1190 H   0  0  0  0  0  0  0  0  0  0  0  0
    6.1444    7.3399   10.2766 C   0  0  0  0  0  0  0  0  0  0  0  0
    5.4326    8.1474   10.4801 H   0  0  0  0  0  0  0  0  0  0  0  0
    5.5875    6.3974   10.1966 H   0  0  0  0  0  0  0  0  0  0  0  0
    8.0901    9.0731    9.2365 C   0  0  0  0  0  0  0  0  0  0  0  0
    8.8369    9.2903    8.4625 H   0  0  0  0  0  0  0  0  0  0  0  0
    7.4748    9.9665    9.3878 H   0  0  0  0  0  0  0  0  0  0  0  0
    9.6568    7.6082   10.3201 C   0  0  0  0  0  0  0  0  0  0  0  0
   10.2465    7.5079   11.2371 H   0  0  0  0  0  0  0  0  0  0  0  0
   10.3334    7.7888    9.4801 H   0  0  0  0  0  0  0  0  0  0  0  0
    7.8308    8.4804   11.5499 C   0  0  0  0  0  0  0  0  0  0  0  0
    7.1278    9.3132   11.6226 H   0  0  0  0  0  0  0  0  0  0  0  0
    8.3978    8.4041   12.4834 H   0  0  0  0  0  0  0  0  0  0  0  0
    4.2425    8.6973    5.5249 N   0  0  0  0  0  0  0  0  0  0  0  0
    1.5238    8.5265    4.3807 N   0  0  0  0  0  0  0  0  0  0  0  0
    8.9520    6.3551   10.1017 N   0  0  2  0  0  0  0  0  0  0  0  0
    7.0849    7.2445   11.3739 N   0  0  2  0  0  0  0  0  0  0  0  0
    8.7709    8.7474   10.4723 N   0  0  2  0  0  0  0  0  0  0  0  0
    1.2071    8.7729    6.6011 O   0  0  0  0  0  0  0  0  0  0  0  0
    6.9926    7.6822    8.6512 P   0  0  1  0  0  4  0  0  0  0  0  0
    4.9881    9.8202    8.4271 Cl  0  0  0  0  0  0  0  0  0  0  0  0
    5.5862    8.1397    6.9516 Pd  0  0  1  0  0  0  0  0  0  0  0  0
  1  3  1  0  0  0  0
  2  1  1  0  0  0  0
  4  1  1  0  0  0  0
  4 53  2  0  0  0  0
  5 49  1  0  0  0  0
  6  7  1  0  0  0  0
  6  5  2  0  0  0  0
  8  6  1  0  0  0  0
  9  8  1  0  0  0  0
 10  8  2  0  0  0  0
 10 12  1  0  0  0  0
 11 10  1  0  0  0  0
 12 14  2  0  0  0  0
 13 12  1  0  0  0  0
 14  5  1  0  0  0  0
 14 15  1  0  0  0  0
 15 48  1  0  0  0  0
 16 15  2  0  0  0  0
 16 25  1  0  0  0  0
 17 19  2  0  0  0  0
 17 16  1  0  0  0  0
 18 17  1  0  0  0  0
 19 21  1  0  0  0  0
 20 19  1  0  0  0  0
 21 22  1  0  0  0  0
 21 23  2  0  0  0  0
 23 24  1  0  0  0  0
 25 23  1  0  0  0  0
 25 56  2  0  0  0  0
 26 49  1  0  0  0  0
 26 27  1  0  0  0  0
 28 26  1  0  0  0  0
 29 26  1  0  0  0  0
 31 30  1  0  0  0  0
 32 30  1  0  0  0  0
 33 51  1  0  0  0  0
 33 35  1  0  0  0  0
 34 33  1  0  0  0  0
 36 37  1  0  0  0  0
 38 36  1  0  0  0  0
 39 41  1  0  0  0  0
 40 39  1  0  0  0  0
 42 52  1  0  0  0  0
 42 43  1  0  0  0  0
 44 42  1  0  0  0  0
 45 46  1  0  0  0  0
 45 47  1  0  0  0  0
 48  1  1  0  0  0  0
 48 56  1  0  0  0  0
 49  4  1  0  0  0  0
 50 30  1  6  0  0  0
 50 42  1  0  0  0  0
 50 33  1  0  0  0  0
 51 36  1  6  0  0  0
 51 45  1  0  0  0  0
 52 39  1  6  0  0  0
 52 45  1  0  0  0  0
 54 30  1  6  0  0  0
 54 39  1  0  0  0  0
 54 36  1  0  0  0  0
 56 55  1  6  0  0  0
 56 54  1  0  0  0  0
M  END
$$$$
