CSD_code = OHUMOT | q = 0 | S = 0 | Stoichiometry = C16H6BrN2O6Re | MND = 6
 OpenBabel04212202083D

 32 34  0  0  0  0  0  0  0  0999 V2000
    5.7172    9.4504    2.5443 Re  0  0  0  0  0  0  0  0  0  0  0  0
    3.7677    9.4146    4.2594 Br  0  0  0  0  0  0  0  0  0  0  0  0
    7.0378    9.3778    3.9980 C   0  0  0  0  0  2  0  0  0  0  0  0
    7.7462    9.3337    4.8889 O   0  0  0  0  0  1  0  0  0  0  0  0
    5.5843    7.4772    2.5280 C   0  0  0  0  0  2  0  0  0  0  0  0
    5.4209    6.3586    2.6163 O   0  0  0  0  0  1  0  0  0  0  0  0
    7.0502    9.5348    1.1213 C   0  0  0  0  0  2  0  0  0  0  0  0
    7.8199    9.5911    0.2776 O   0  0  0  0  0  1  0  0  0  0  0  0
    5.5070   11.4061    2.7668 C   0  0  0  0  0  2  0  0  0  0  0  0
    5.2609   12.4900    2.9935 O   0  0  0  0  0  1  0  0  0  0  0  0
    4.0424    9.5456    0.9873 N   0  0  0  0  0  0  0  0  0  0  0  0
    3.9951   10.5145    0.0635 C   0  0  0  0  0  3  0  0  0  0  0  0
    4.8482   11.1795    0.0083 H   0  0  0  0  0  0  0  0  0  0  0  0
    2.9243   10.6876   -0.7901 C   0  0  0  0  0  0  0  0  0  0  0  0
    2.9107   11.4902   -1.5111 H   0  0  0  0  0  0  0  0  0  0  0  0
    1.8431    9.8124   -0.7198 C   0  0  0  0  0  0  0  0  0  0  0  0
    0.6761    9.9931   -1.6260 C   0  0  0  0  0  0  0  0  0  0  0  0
    0.6617   10.8584   -2.4753 O   0  0  0  0  0  0  0  0  0  0  0  0
   -0.4410    9.0595   -1.4012 C   0  0  0  0  0  0  0  0  0  0  0  0
   -1.6197    9.1971   -2.1413 C   0  0  0  0  0  0  0  0  0  0  0  0
   -1.7024    9.9894   -2.8735 H   0  0  0  0  0  0  0  0  0  0  0  0
   -2.6639    8.4075   -2.0020 N   0  0  0  0  0  0  0  0  0  0  0  0
   -2.6005    7.4260   -1.1168 C   0  0  0  0  0  0  0  0  0  0  0  0
   -3.4838    6.8066   -1.0418 H   0  0  0  0  0  0  0  0  0  0  0  0
   -1.4851    7.1845   -0.3269 C   0  0  0  0  0  0  0  0  0  0  0  0
   -1.4547    6.3757    0.3865 H   0  0  0  0  0  0  0  0  0  0  0  0
   -0.3775    8.0162   -0.4657 C   0  0  0  0  0  0  0  0  0  0  0  0
    0.8297    7.7659    0.3572 C   0  0  0  0  0  0  0  0  0  0  0  0
    0.9433    6.7998    1.0778 O   0  0  0  0  0  0  0  0  0  0  0  0
    1.9040    8.7809    0.2207 C   0  0  0  0  0  0  0  0  0  0  0  0
    3.0166    8.7020    1.0531 C   0  0  0  0  0  0  0  0  0  0  0  0
    3.0346    7.9182    1.8015 H   0  0  0  0  0  0  0  0  0  0  0  0
  1  9  1  0  0  0  0
  1  3  1  0  0  0  0
  1  2  1  0  0  0  0
  3  4  1  0  0  0  0
  5  1  1  0  0  0  0
  5  6  1  0  0  0  0
  7  1  1  0  0  0  0
  8  7  1  0  0  0  0
  9 10  1  0  0  0  0
 11 31  1  0  0  0  0
 11  1  1  0  0  0  0
 12 11  1  0  0  0  0
 13 12  1  0  0  0  0
 14 16  2  0  0  0  0
 14 12  1  0  0  0  0
 15 14  1  0  0  0  0
 16 30  1  0  0  0  0
 17 19  1  0  0  0  0
 17 16  1  0  0  0  0
 18 17  2  0  0  0  0
 19 27  1  0  0  0  0
 20 22  1  0  0  0  0
 20 19  2  0  0  0  0
 21 20  1  0  0  0  0
 22 23  2  0  0  0  0
 23 24  1  0  0  0  0
 23 25  1  0  0  0  0
 25 26  1  0  0  0  0
 27 25  2  0  0  0  0
 27 28  1  0  0  0  0
 28 29  2  0  0  0  0
 30 28  1  0  0  0  0
 30 31  2  0  0  0  0
 31 32  1  0  0  0  0
M  END
$$$$
