CSD_code = OHUSOA | q = 0 | S = 0 | Stoichiometry = C13H15I2N3PdS | MND = 4
 OpenBabel04212202083D

 35 37  0  0  0  0  0  0  0  0999 V2000
    5.2641    2.7961    6.3953 Pd  0  0  0  0  0  0  0  0  0  0  0  0
    2.9828    3.0693    5.1477 I   0  0  0  0  0  0  0  0  0  0  0  0
    7.4507    2.6992    7.8172 I   0  0  0  0  0  0  0  0  0  0  0  0
    6.5881    5.0399    4.5261 S   0  0  0  0  0  0  0  0  0  0  0  0
    5.3501    5.6949    6.6444 N   0  0  0  0  0  0  0  0  0  0  0  0
    4.8586    0.8141    6.7630 N   0  0  0  0  0  0  0  0  0  0  0  0
    3.9319   -1.1242    7.1381 N   0  0  0  0  0  0  0  0  0  0  0  0
    3.2681   -1.8145    7.4489 H   0  0  0  0  0  0  0  0  0  0  0  0
    5.6948    4.6218    5.9369 C   0  0  0  0  0  0  0  0  0  0  0  0
    5.7689    6.9083    6.1213 C   0  0  0  0  0  0  0  0  0  0  0  0
    5.5825    8.1994    6.6066 C   0  0  0  0  0  0  0  0  0  0  0  0
    5.0472    8.3873    7.5213 H   0  0  0  0  0  0  0  0  0  0  0  0
    6.1003    9.2629    5.8940 C   0  0  0  0  0  0  0  0  0  0  0  0
    5.9553   10.2639    6.2699 H   0  0  0  0  0  0  0  0  0  0  0  0
    6.8011    9.0728    4.7078 C   0  0  0  0  0  0  0  0  0  0  0  0
    7.1924    9.9238    4.1731 H   0  0  0  0  0  0  0  0  0  0  0  0
    6.9992    7.8003    4.2113 C   0  0  0  0  0  0  0  0  0  0  0  0
    7.5402    7.6271    3.2950 H   0  0  0  0  0  0  0  0  0  0  0  0
    6.4806    6.7347    4.9259 C   0  0  0  0  0  0  0  0  0  0  0  0
    3.8227    0.2092    7.2890 C   0  0  0  0  0  3  0  0  0  0  0  0
    2.9925    0.6959    7.7680 H   0  0  0  0  0  0  0  0  0  0  0  0
    4.5787    5.5165    7.8821 C   0  0  0  0  0  0  0  0  0  0  0  0
    4.4229    4.4138    7.9789 H   0  0  0  0  0  0  0  0  0  0  0  0
    5.6671   -0.1525    6.2448 C   0  0  0  0  0  0  0  0  0  0  0  0
    6.5980    0.0859    5.7552 H   0  0  0  0  0  0  0  0  0  0  0  0
    3.2035    6.1680    7.7685 C   0  0  0  0  0  0  0  0  0  0  0  0
    3.2666    7.2498    7.7043 H   0  0  0  0  0  0  0  0  0  0  0  0
    2.6137    5.9089    8.6438 H   0  0  0  0  0  0  0  0  0  0  0  0
    2.6849    5.7979    6.8862 H   0  0  0  0  0  0  0  0  0  0  0  0
    5.0977   -1.3696    6.4742 C   0  0  0  0  0  0  0  0  0  0  0  0
    5.4230   -2.3575    6.2242 H   0  0  0  0  0  0  0  0  0  0  0  0
    5.3794    5.9758    9.0971 C   0  0  0  0  0  0  0  0  0  0  0  0
    6.3475    5.4790    9.1175 H   0  0  0  0  0  0  0  0  0  0  0  0
    4.8402    5.7058   10.0013 H   0  0  0  0  0  0  0  0  0  0  0  0
    5.5407    7.0493    9.0999 H   0  0  0  0  0  0  0  0  0  0  0  0
  1  6  1  0  0  0  0
  1  3  1  0  0  0  0
  2  1  1  0  0  0  0
  4 19  1  0  0  0  0
  4  9  1  0  0  0  0
  5 22  1  0  0  0  0
  6 20  1  0  0  0  0
  7 20  1  0  0  0  0
  7  8  1  0  0  0  0
  9  1  2  0  0  0  0
  9  5  1  0  0  0  0
 10 11  1  0  0  0  0
 10  5  1  0  0  0  0
 11 12  1  0  0  0  0
 13 14  1  0  0  0  0
 13 11  2  0  0  0  0
 15 13  1  0  0  0  0
 16 15  1  0  0  0  0
 17 15  2  0  0  0  0
 17 19  1  0  0  0  0
 18 17  1  0  0  0  0
 19 10  2  0  0  0  0
 20 21  1  0  0  0  0
 22 23  1  0  0  0  0
 22 32  1  0  0  0  0
 24 30  2  0  0  0  0
 24  6  1  0  0  0  0
 25 24  1  0  0  0  0
 26 22  1  0  0  0  0
 26 28  1  0  0  0  0
 27 26  1  0  0  0  0
 29 26  1  0  0  0  0
 30  7  1  0  0  0  0
 31 30  1  0  0  0  0
 32 35  1  0  0  0  0
 32 33  1  0  0  0  0
 32 34  1  0  0  0  0
M  END
$$$$
