CSD_code = OHUTUH | q = 0 | S = 0 | Stoichiometry = C17H16Br2N2PdS2 | MND = 4
 OpenBabel04212202083D

 40 43  0  0  0  0  0  0  0  0999 V2000
    1.7831    4.3213    5.3301 Pd  0  0  0  0  0  0  0  0  0  0  0  0
    0.1121    2.5915    5.6734 Br  0  0  0  0  0  0  0  0  0  0  0  0
    3.4680    6.0378    4.9414 Br  0  0  0  0  0  0  0  0  0  0  0  0
    0.4144    6.0109    7.7555 S   0  0  0  0  0  0  0  0  0  0  0  0
    4.5321    1.1887    3.3699 S   0  0  0  0  0  0  0  0  0  0  0  0
   -0.1661    6.4359    5.3308 N   0  0  0  0  0  0  0  0  0  0  0  0
    3.0669    2.9034    4.5934 N   0  0  0  0  0  0  0  0  0  0  0  0
    0.6059    5.6553    6.0818 C   0  0  0  0  0  0  0  0  0  0  0  0
   -0.9533    7.3412    6.0158 C   0  0  0  0  0  0  0  0  0  0  0  0
   -1.8522    8.2673    5.4988 C   0  0  0  0  0  0  0  0  0  0  0  0
   -2.0154    8.3511    4.4364 H   0  0  0  0  0  0  0  0  0  0  0  0
   -2.5352    9.0816    6.3802 C   0  0  0  0  0  0  0  0  0  0  0  0
   -3.2370    9.8046    5.9944 H   0  0  0  0  0  0  0  0  0  0  0  0
   -2.3375    8.9872    7.7549 C   0  0  0  0  0  0  0  0  0  0  0  0
   -2.8874    9.6362    8.4181 H   0  0  0  0  0  0  0  0  0  0  0  0
   -1.4461    8.0726    8.2809 C   0  0  0  0  0  0  0  0  0  0  0  0
   -1.2826    7.9895    9.3431 H   0  0  0  0  0  0  0  0  0  0  0  0
   -0.7603    7.2542    7.3998 C   0  0  0  0  0  0  0  0  0  0  0  0
   -0.2057    6.2853    3.8863 C   0  0  0  0  0  0  0  0  0  0  0  0
    0.7448    5.8132    3.5628 H   0  0  0  0  0  0  0  0  0  0  0  0
   -0.2698    7.2781    3.4331 H   0  0  0  0  0  0  0  0  0  0  0  0
   -1.3755    5.3988    3.4501 C   0  0  0  0  0  0  0  0  0  0  0  0
   -1.3242    4.4528    3.9964 H   0  0  0  0  0  0  0  0  0  0  0  0
   -2.3219    5.8832    3.7002 H   0  0  0  0  0  0  0  0  0  0  0  0
   -1.3065    5.1190    1.9554 C   0  0  0  0  0  0  0  0  0  0  0  0
   -1.3434    6.0438    1.3831 H   0  0  0  0  0  0  0  0  0  0  0  0
   -2.1399    4.4913    1.6531 H   0  0  0  0  0  0  0  0  0  0  0  0
   -0.3818    4.5989    1.7129 H   0  0  0  0  0  0  0  0  0  0  0  0
    3.3124    2.4127    3.4294 C   0  0  0  0  0  3  0  0  0  0  0  0
    2.8083    2.7210    2.5297 H   0  0  0  0  0  0  0  0  0  0  0  0
    3.8447    2.3374    5.5710 C   0  0  0  0  0  0  0  0  0  0  0  0
    3.8084    2.6594    6.9301 C   0  0  0  0  0  0  0  0  0  0  0  0
    3.1146    3.4275    7.3006 H   0  0  0  0  0  0  0  0  0  0  0  0
    4.6612    1.9889    7.7785 C   0  0  0  0  0  0  0  0  0  0  0  0
    4.6538    2.2172    8.8331 H   0  0  0  0  0  0  0  0  0  0  0  0
    5.5377    1.0154    7.2960 C   0  0  0  0  0  0  0  0  0  0  0  0
    6.1931    0.5074    7.9865 H   0  0  0  0  0  0  0  0  0  0  0  0
    5.5850    0.6874    5.9560 C   0  0  0  0  0  0  0  0  0  0  0  0
    6.2624   -0.0649    5.5849 H   0  0  0  0  0  0  0  0  0  0  0  0
    4.7308    1.3556    5.0927 C   0  0  0  0  0  0  0  0  0  0  0  0
  1  2  1  0  0  0  0
  1  8  2  0  0  0  0
  3  1  1  0  0  0  0
  5 29  1  0  0  0  0
  5 40  1  0  0  0  0
  6  9  1  0  0  0  0
  6  8  1  0  0  0  0
  7  1  1  0  0  0  0
  7 31  1  0  0  0  0
  8  4  1  0  0  0  0
  9 18  1  0  0  0  0
 10  9  2  0  0  0  0
 10 12  1  0  0  0  0
 11 10  1  0  0  0  0
 12 14  2  0  0  0  0
 13 12  1  0  0  0  0
 14 16  1  0  0  0  0
 14 15  1  0  0  0  0
 16 17  1  0  0  0  0
 18  4  1  0  0  0  0
 18 16  2  0  0  0  0
 19  6  1  0  0  0  0
 20 19  1  0  0  0  0
 21 19  1  0  0  0  0
 22 24  1  0  0  0  0
 22 19  1  0  0  0  0
 22 23  1  0  0  0  0
 25 22  1  0  0  0  0
 26 25  1  0  0  0  0
 27 25  1  0  0  0  0
 28 25  1  0  0  0  0
 29  7  1  0  0  0  0
 30 29  1  0  0  0  0
 31 32  1  0  0  0  0
 32 33  1  0  0  0  0
 32 34  2  0  0  0  0
 34 35  1  0  0  0  0
 36 34  1  0  0  0  0
 36 37  1  0  0  0  0
 38 36  2  0  0  0  0
 39 38  1  0  0  0  0
 40 31  2  0  0  0  0
 40 38  1  0  0  0  0
M  END
$$$$
