CSD_code = OHUTOB | q = 0 | S = 0 | Stoichiometry = C21H16Br2N2PdS2 | MND = 4
 OpenBabel04212202083D

 44 48  0  0  0  0  0  0  0  0999 V2000
    3.9443    7.7266    6.9333 Pd  0  0  0  0  0  0  0  0  0  0  0  0
    2.2080    6.7805    4.3558 S   0  0  0  0  0  0  0  0  0  0  0  0
    5.0855    7.9963   11.3881 S   0  0  0  0  0  0  0  0  0  0  0  0
    2.3360    9.5140    7.2732 Br  0  0  0  0  0  0  0  0  0  0  0  0
    5.6067    5.9719    6.6134 Br  0  0  0  0  0  0  0  0  0  0  0  0
    4.2987    8.1814    4.1063 N   0  0  0  0  0  0  0  0  0  0  0  0
    4.3493    7.7383    8.9438 N   0  0  0  0  0  0  0  0  0  0  0  0
    3.5345    7.6354    5.0469 C   0  0  0  0  0  0  0  0  0  0  0  0
    3.9014    7.9564    2.8019 C   0  0  0  0  0  0  0  0  0  0  0  0
    4.5125    8.3876    1.6304 C   0  0  0  0  0  0  0  0  0  0  0  0
    5.4070    8.9869    1.6610 H   0  0  0  0  0  0  0  0  0  0  0  0
    3.9381    8.0347    0.4255 C   0  0  0  0  0  0  0  0  0  0  0  0
    4.3998    8.3612   -0.4933 H   0  0  0  0  0  0  0  0  0  0  0  0
    2.7778    7.2673    0.3724 C   0  0  0  0  0  0  0  0  0  0  0  0
    2.3532    7.0084   -0.5848 H   0  0  0  0  0  0  0  0  0  0  0  0
    2.1634    6.8311    1.5300 C   0  0  0  0  0  0  0  0  0  0  0  0
    1.2662    6.2343    1.5032 H   0  0  0  0  0  0  0  0  0  0  0  0
    2.7373    7.1820    2.7398 C   0  0  0  0  0  0  0  0  0  0  0  0
    5.4805    8.9670    4.4335 C   0  0  0  0  0  0  0  0  0  0  0  0
    6.3592    8.4746    4.0033 H   0  0  0  0  0  0  0  0  0  0  0  0
    5.5855    8.9668    5.5434 H   0  0  0  0  0  0  0  0  0  0  0  0
    5.3556   10.3866    3.9420 C   0  0  0  0  0  0  0  0  0  0  0  0
    6.3744   10.9740    3.2041 C   0  0  0  0  0  0  0  0  0  0  0  0
    7.2709   10.4119    2.9805 H   0  0  0  0  0  0  0  0  0  0  0  0
    6.2501   12.2800    2.7637 C   0  0  0  0  0  0  0  0  0  0  0  0
    7.0478   12.7307    2.1921 H   0  0  0  0  0  0  0  0  0  0  0  0
    5.1064   13.0044    3.0538 C   0  0  0  0  0  0  0  0  0  0  0  0
    5.0099   14.0223    2.7069 H   0  0  0  0  0  0  0  0  0  0  0  0
    4.0912   12.4242    3.7956 C   0  0  0  0  0  0  0  0  0  0  0  0
    3.2022   12.9869    4.0359 H   0  0  0  0  0  0  0  0  0  0  0  0
    4.2152   11.1212    4.2416 C   0  0  0  0  0  0  0  0  0  0  0  0
    3.4277   10.6816    4.8369 H   0  0  0  0  0  0  0  0  0  0  0  0
    5.1990    8.3427    9.6981 C   0  0  0  0  0  3  0  0  0  0  0  0
    5.9447    9.0278    9.3325 H   0  0  0  0  0  0  0  0  0  0  0  0
    3.5095    6.9213    9.6568 C   0  0  0  0  0  0  0  0  0  0  0  0
    2.4874    6.1347    9.1195 C   0  0  0  0  0  0  0  0  0  0  0  0
    2.2995    6.1326    8.0364 H   0  0  0  0  0  0  0  0  0  0  0  0
    1.7325    5.3733    9.9835 C   0  0  0  0  0  0  0  0  0  0  0  0
    0.9354    4.7580    9.5957 H   0  0  0  0  0  0  0  0  0  0  0  0
    1.9808    5.3850   11.3571 C   0  0  0  0  0  0  0  0  0  0  0  0
    1.3704    4.7784   12.0082 H   0  0  0  0  0  0  0  0  0  0  0  0
    2.9892    6.1546   11.9017 C   0  0  0  0  0  0  0  0  0  0  0  0
    3.1799    6.1620   12.9629 H   0  0  0  0  0  0  0  0  0  0  0  0
    3.7555    6.9252   11.0414 C   0  0  0  0  0  0  0  0  0  0  0  0
  1  4  1  0  0  0  0
  1  7  1  0  0  0  0
  2  8  1  0  0  0  0
  5  1  1  0  0  0  0
  6 19  1  0  0  0  0
  6  8  1  0  0  0  0
  7 35  1  0  0  0  0
  7 33  1  0  0  0  0
  8  1  2  0  0  0  0
  9  6  1  0  0  0  0
 10 11  1  0  0  0  0
 10  9  2  0  0  0  0
 12 10  1  0  0  0  0
 13 12  1  0  0  0  0
 14 12  2  0  0  0  0
 14 16  1  0  0  0  0
 15 14  1  0  0  0  0
 16 18  2  0  0  0  0
 17 16  1  0  0  0  0
 18  9  1  0  0  0  0
 18  2  1  0  0  0  0
 19 21  1  0  0  0  0
 20 19  1  0  0  0  0
 22 31  1  0  0  0  0
 22 19  1  0  0  0  0
 23 22  2  0  0  0  0
 24 23  1  0  0  0  0
 25 27  2  0  0  0  0
 25 23  1  0  0  0  0
 26 25  1  0  0  0  0
 27 29  1  0  0  0  0
 28 27  1  0  0  0  0
 29 30  1  0  0  0  0
 29 31  2  0  0  0  0
 31 32  1  0  0  0  0
 33  3  1  0  0  0  0
 34 33  1  0  0  0  0
 35 44  1  0  0  0  0
 36 35  2  0  0  0  0
 36 38  1  0  0  0  0
 37 36  1  0  0  0  0
 38 40  2  0  0  0  0
 39 38  1  0  0  0  0
 40 42  1  0  0  0  0
 40 41  1  0  0  0  0
 42 43  1  0  0  0  0
 44  3  1  0  0  0  0
 44 42  2  0  0  0  0
M  END
$$$$
