CSD_code = OHUTIV | q = 0 | S = 0 | Stoichiometry = C17H16I2N2OPdS | MND = 4
 OpenBabel04212202083D

 40 43  0  0  0  0  0  0  0  0999 V2000
    4.6485    7.6314   14.5603 Pd  0  0  0  0  0  0  0  0  0  0  0  0
    5.4367   10.5566   13.5089 S   0  0  0  0  0  0  0  0  0  0  0  0
    6.1038    8.0103   16.6889 I   0  0  0  0  0  0  0  0  0  0  0  0
    3.2832    7.2334   12.3762 I   0  0  0  0  0  0  0  0  0  0  0  0
    6.8658    8.5339   12.9469 N   0  0  0  0  0  0  0  0  0  0  0  0
    3.3637    6.3971   15.6206 N   0  0  0  0  0  0  0  0  0  0  0  0
    1.9791    5.0843   16.7449 O   0  0  0  0  0  0  0  0  0  0  0  0
    5.7621    8.8705   13.6071 C   0  0  0  0  0  0  0  0  0  0  0  0
    7.5224    9.5840   12.3235 C   0  0  0  0  0  0  0  0  0  0  0  0
    8.6876    9.5787   11.5626 C   0  0  0  0  0  0  0  0  0  0  0  0
    9.2343    8.6712   11.3735 H   0  0  0  0  0  0  0  0  0  0  0  0
    9.1498   10.7700   11.0391 C   0  0  0  0  0  0  0  0  0  0  0  0
   10.0532   10.7660   10.4491 H   0  0  0  0  0  0  0  0  0  0  0  0
    8.4795   11.9691   11.2544 C   0  0  0  0  0  0  0  0  0  0  0  0
    8.8653   12.8832   10.8317 H   0  0  0  0  0  0  0  0  0  0  0  0
    7.3225   11.9961   12.0066 C   0  0  0  0  0  0  0  0  0  0  0  0
    6.7857   12.9133   12.1873 H   0  0  0  0  0  0  0  0  0  0  0  0
    6.8602   10.8021   12.5312 C   0  0  0  0  0  0  0  0  0  0  0  0
    7.2905    7.1258   12.9269 C   0  0  0  0  0  0  0  0  0  0  0  0
    6.5273    6.5698   13.5285 H   0  0  0  0  0  0  0  0  0  0  0  0
    8.6360    6.9530   13.6253 C   0  0  0  0  0  0  0  0  0  0  0  0
    9.4444    7.4367   13.0859 H   0  0  0  0  0  0  0  0  0  0  0  0
    8.8617    5.8929   13.7059 H   0  0  0  0  0  0  0  0  0  0  0  0
    8.5920    7.3693   14.6302 H   0  0  0  0  0  0  0  0  0  0  0  0
    7.2493    6.5653   11.5083 C   0  0  0  0  0  0  0  0  0  0  0  0
    6.2615    6.7143   11.0758 H   0  0  0  0  0  0  0  0  0  0  0  0
    7.4485    5.4975   11.5416 H   0  0  0  0  0  0  0  0  0  0  0  0
    7.9842    7.0323   10.8602 H   0  0  0  0  0  0  0  0  0  0  0  0
    3.0857    5.1977   16.0054 C   0  0  0  0  0  3  0  0  0  0  0  0
    3.6532    4.3112   15.7870 H   0  0  0  0  0  0  0  0  0  0  0  0
    2.3607    7.1924   16.1376 C   0  0  0  0  0  0  0  0  0  0  0  0
    2.1452    8.5649   16.0436 C   0  0  0  0  0  0  0  0  0  0  0  0
    2.8298    9.2184   15.4858 H   0  0  0  0  0  0  0  0  0  0  0  0
    1.0276    9.0516   16.6885 C   0  0  0  0  0  0  0  0  0  0  0  0
    0.8112   10.1081   16.6493 H   0  0  0  0  0  0  0  0  0  0  0  0
    0.1635    8.2103   17.3945 C   0  0  0  0  0  0  0  0  0  0  0  0
   -0.6975    8.6425   17.8807 H   0  0  0  0  0  0  0  0  0  0  0  0
    0.3703    6.8469   17.4919 C   0  0  0  0  0  0  0  0  0  0  0  0
   -0.2983    6.2013   18.0366 H   0  0  0  0  0  0  0  0  0  0  0  0
    1.4900    6.3514   16.8475 C   0  0  0  0  0  0  0  0  0  0  0  0
  1  6  1  0  0  0  0
  1  3  1  0  0  0  0
  2  8  1  0  0  0  0
  4  1  1  0  0  0  0
  5  8  1  0  0  0  0
  6 29  1  0  0  0  0
  6 31  1  0  0  0  0
  7 40  1  0  0  0  0
  8  1  2  0  0  0  0
  9 18  1  0  0  0  0
  9  5  1  0  0  0  0
 10  9  2  0  0  0  0
 11 10  1  0  0  0  0
 12 14  2  0  0  0  0
 12 10  1  0  0  0  0
 13 12  1  0  0  0  0
 14 16  1  0  0  0  0
 15 14  1  0  0  0  0
 16 17  1  0  0  0  0
 16 18  2  0  0  0  0
 18  2  1  0  0  0  0
 19  5  1  0  0  0  0
 19 20  1  0  0  0  0
 19 21  1  0  0  0  0
 21 23  1  0  0  0  0
 21 24  1  0  0  0  0
 22 21  1  0  0  0  0
 25 27  1  0  0  0  0
 25 19  1  0  0  0  0
 26 25  1  0  0  0  0
 28 25  1  0  0  0  0
 29  7  1  0  0  0  0
 30 29  1  0  0  0  0
 31 40  1  0  0  0  0
 32 31  2  0  0  0  0
 32 34  1  0  0  0  0
 33 32  1  0  0  0  0
 34 36  2  0  0  0  0
 35 34  1  0  0  0  0
 36 38  1  0  0  0  0
 36 37  1  0  0  0  0
 38 39  1  0  0  0  0
 40 38  2  0  0  0  0
M  END
$$$$
