CSD_code = OJAGIP | q = 0 | S = 0 | Stoichiometry = C10H9Cl2N3Pd | MND = 4
 OpenBabel04212202083D

 25 27  0  0  0  0  0  0  0  0999 V2000
    3.8302    2.4428    2.9550 Pd  0  0  0  0  0  0  0  0  0  0  0  0
    2.6384    0.6561    2.3995 Cl  0  0  0  0  0  0  0  0  0  0  0  0
    4.3813    2.7340    0.8262 Cl  0  0  0  0  0  0  0  0  0  0  0  0
    3.4560    2.1076    4.9421 N   0  0  0  0  0  0  0  0  0  0  0  0
    5.0403    4.0001    3.5096 N   0  0  0  0  0  0  0  0  0  0  0  0
    2.3160    1.5285    5.3294 C   0  0  0  0  0  3  0  0  0  0  0  0
    1.5105    1.5434    4.6058 H   0  0  0  0  0  0  0  0  0  0  0  0
    2.1680    0.9223    6.5614 C   0  0  0  0  0  0  0  0  0  0  0  0
    1.2306    0.4650    6.8291 H   0  0  0  0  0  0  0  0  0  0  0  0
    3.2542    0.8983    7.4272 C   0  0  0  0  0  0  0  0  0  0  0  0
    3.1875    0.4111    8.3874 H   0  0  0  0  0  0  0  0  0  0  0  0
    4.4237    1.5230    7.0447 C   0  0  0  0  0  0  0  0  0  0  0  0
    5.2835    1.5398    7.6971 H   0  0  0  0  0  0  0  0  0  0  0  0
    4.4887    2.1406    5.7902 C   0  0  0  0  0  0  0  0  0  0  0  0
    5.6584    2.7998    5.4502 N   0  0  0  0  0  0  0  0  0  0  0  0
    6.3933    2.7059    6.1386 H   0  0  0  0  0  0  0  0  0  0  0  0
    5.2428    5.0300    2.6830 C   0  0  0  0  0  3  0  0  0  0  0  0
    4.5238    5.1382    1.8805 H   0  0  0  0  0  0  0  0  0  0  0  0
    6.3119    5.8941    2.8155 C   0  0  0  0  0  0  0  0  0  0  0  0
    6.4366    6.7091    2.1228 H   0  0  0  0  0  0  0  0  0  0  0  0
    7.2239    5.6741    3.8402 C   0  0  0  0  0  0  0  0  0  0  0  0
    8.0862    6.3109    3.9616 H   0  0  0  0  0  0  0  0  0  0  0  0
    7.0021    4.6302    4.7151 C   0  0  0  0  0  0  0  0  0  0  0  0
    7.6797    4.4379    5.5330 H   0  0  0  0  0  0  0  0  0  0  0  0
    5.8806    3.8129    4.5322 C   0  0  0  0  0  0  0  0  0  0  0  0
  1  5  1  0  0  0  0
  1  4  1  0  0  0  0
  2  1  1  0  0  0  0
  3  1  1  0  0  0  0
  4  6  1  0  0  0  0
  4 14  1  0  0  0  0
  5 25  1  0  0  0  0
  6  8  1  0  0  0  0
  7  6  1  0  0  0  0
  8  9  1  0  0  0  0
  8 10  2  0  0  0  0
 10 11  1  0  0  0  0
 12 10  1  0  0  0  0
 12 13  1  0  0  0  0
 14 12  2  0  0  0  0
 15 14  1  0  0  0  0
 15 16  1  0  0  0  0
 17 19  1  0  0  0  0
 17  5  1  0  0  0  0
 18 17  1  0  0  0  0
 19 21  2  0  0  0  0
 20 19  1  0  0  0  0
 21 22  1  0  0  0  0
 21 23  1  0  0  0  0
 23 24  1  0  0  0  0
 25 23  2  0  0  0  0
 25 15  1  0  0  0  0
M  END
$$$$
