CSD_code = OJAPOF | q = 1 | S = 0 | Stoichiometry = C22H20ClN4Ru(1+) | MND = 9
 OpenBabel04212202083D

 48 53  0  0  1  0  0  0  0  0999 V2000
    7.8238    8.7724    7.5109 Ru  0  0  0  0  0  0  0  0  0  0  0  0
   10.0288    9.2235    6.9447 Cl  0  0  0  0  0 15  0  0  0  0  0  0
    8.9194   13.0654    8.6194 C   0  0  0  0  0  0  0  0  0  0  0  0
    9.3524   12.4281    9.7846 C   0  0  0  0  0  0  0  0  0  0  0  0
    9.5026   13.1809   10.9460 C   0  0  0  0  0  0  0  0  0  0  0  0
    9.8697   12.7015   11.8418 H   0  0  0  0  0  0  0  0  0  0  0  0
    9.2195   14.5332   10.9770 C   0  0  0  0  0  0  0  0  0  0  0  0
    9.3475   15.0922   11.8906 H   0  0  0  0  0  0  0  0  0  0  0  0
    8.7899   15.1641    9.8234 C   0  0  0  0  0  0  0  0  0  0  0  0
    8.5775   16.2216    9.8250 H   0  0  0  0  0  0  0  0  0  0  0  0
    8.6522   14.4310    8.6600 C   0  0  0  0  0  0  0  0  0  0  0  0
    8.3494   14.9364    7.7547 H   0  0  0  0  0  0  0  0  0  0  0  0
    8.7358   12.3526    7.2979 C   0  0  0  0  0  0  0  0  0  0  0  0
    8.9246   13.0595    6.4859 H   0  0  0  0  0  0  0  0  0  0  0  0
    9.4127   11.5021    7.1871 H   0  0  0  0  0  0  0  0  0  0  0  0
    7.3814   11.8533    7.1506 N   0  0  0  0  0  0  0  0  0  0  0  0
    7.0059   10.5698    7.1949 C   0  0  2  0  0  3  0  0  0  0  0  0
    5.6557   10.5663    7.0437 N   0  0  0  0  0  0  0  0  0  0  0  0
    5.1999   11.8473    6.8836 C   0  0  0  0  0  0  0  0  0  0  0  0
    4.1666   12.0815    6.7313 H   0  0  0  0  0  0  0  0  0  0  0  0
    6.2859   12.6521    6.9541 C   0  0  0  0  0  0  0  0  0  0  0  0
    6.3566   13.7168    6.8781 H   0  0  0  0  0  0  0  0  0  0  0  0
    4.8575    9.3504    7.0527 C   0  0  0  0  0  0  0  0  0  0  0  0
    4.2393    9.3184    6.1489 H   0  0  0  0  0  0  0  0  0  0  0  0
    4.1890    9.3592    7.9205 H   0  0  0  0  0  0  0  0  0  0  0  0
    6.2661    7.5410    8.2656 C   0  0  1  0  0  0  0  0  0  0  0  0
    5.8283    8.1890    7.0745 C   0  0  2  0  0  3  0  0  0  0  0  0
    6.4145    7.8120    5.8255 C   0  0  0  0  0  0  0  0  0  0  0  0
    6.0126    8.2202    4.9054 H   0  0  0  0  0  0  0  0  0  0  0  0
    7.5154    6.9751    5.7949 C   0  0  0  0  0  0  0  0  0  0  0  0
    7.9981    6.7399    4.8553 H   0  0  0  0  0  0  0  0  0  0  0  0
    7.9520    6.3270    6.9845 C   0  0  0  0  0  0  0  0  0  0  0  0
    8.7600    5.6090    6.9314 H   0  0  0  0  0  0  0  0  0  0  0  0
    7.2770    6.5333    8.1741 C   0  0  0  0  0  0  0  0  0  0  0  0
    7.5369    5.9602    9.0566 H   0  0  0  0  0  0  0  0  0  0  0  0
    5.8156    7.9346    9.6561 C   0  0  0  0  0  0  0  0  0  0  0  0
    4.8333    8.4198    9.6607 H   0  0  0  0  0  0  0  0  0  0  0  0
    5.7626    7.0554   10.3074 H   0  0  0  0  0  0  0  0  0  0  0  0
    6.8132    8.8564   10.1766 N   0  0  0  0  0  0  0  0  0  0  0  0
    7.8308    9.3521    9.4250 C   0  0  2  0  0  3  0  0  0  0  0  0
    8.5219   10.1691   10.2283 N   0  0  0  0  0  0  0  0  0  0  0  0
    7.9619   10.1760   11.4784 C   0  0  0  0  0  0  0  0  0  0  0  0
    8.3603   10.7563   12.2840 H   0  0  0  0  0  0  0  0  0  0  0  0
    6.8895    9.3505   11.4511 C   0  0  0  0  0  0  0  0  0  0  0  0
    6.1972    9.0804   12.2214 H   0  0  0  0  0  0  0  0  0  0  0  0
    9.6840   10.9538    9.8550 C   0  0  0  0  0  0  0  0  0  0  0  0
   10.0513   10.5643    8.9025 H   0  0  0  0  0  0  0  0  0  0  0  0
   10.4527   10.8008   10.6167 H   0  0  0  0  0  0  0  0  0  0  0  0
  1 26  1  0  0  0  0
  3 11  2  0  0  0  0
  3  4  1  0  0  0  0
  4 46  1  0  0  0  0
  4  5  2  0  0  0  0
  5  7  1  0  0  0  0
  5  6  1  0  0  0  0
  7  8  1  0  0  0  0
  9 10  1  0  0  0  0
  9  7  2  0  0  0  0
 11  9  1  0  0  0  0
 12 11  1  0  0  0  0
 13  3  1  0  0  0  0
 14 13  1  0  0  0  0
 15 13  1  0  0  0  0
 16 17  1  0  0  0  0
 16 13  1  0  0  0  0
 17 18  1  1  0  0  0
 17  1  1  0  0  0  0
 18 23  1  0  0  0  0
 19 21  2  0  0  0  0
 19 18  1  0  0  0  0
 20 19  1  0  0  0  0
 21 16  1  0  0  0  0
 22 21  1  0  0  0  0
 23 27  1  0  0  0  0
 23 25  1  0  0  0  0
 24 23  1  0  0  0  0
 26 34  1  6  0  0  0
 26 36  1  0  0  0  0
 27 28  1  1  0  0  0
 27 26  1  0  0  0  0
 29 28  1  0  0  0  0
 30 28  2  0  0  0  0
 30 32  1  0  0  0  0
 31 30  1  0  0  0  0
 32 34  2  0  0  0  0
 33 32  1  0  0  0  0
 34 35  1  0  0  0  0
 36 37  1  0  0  0  0
 36 39  1  0  0  0  0
 36 38  1  0  0  0  0
 39 44  1  0  0  0  0
 40  1  1  6  0  0  0
 40 39  1  0  0  0  0
 40 41  1  0  0  0  0
 41 42  1  0  0  0  0
 42 43  1  0  0  0  0
 44 42  2  0  0  0  0
 44 45  1  0  0  0  0
 46 41  1  0  0  0  0
 46 48  1  0  0  0  0
 47 46  1  0  0  0  0
M  END
$$$$
