CSD_code = OJEFAM | q = 0 | S = 0 | Stoichiometry = C11H25CuIN3S | MND = 3
 OpenBabel04212202083D

 42 42  0  0  0  0  0  0  0  0999 V2000
    2.3641    3.8598    3.2173 I   0  0  0  0  0  0  0  0  0  0  0  0
    0.4732    5.0652    4.2691 Cu  0  0  0  0  0  0  0  0  0  0  0  0
   -1.8247    4.9108    3.7083 S   0  0  1  0  0  3  0  0  0  0  0  0
   -0.0286    6.3975    5.6874 N   0  0  0  0  0  0  0  0  0  0  0  0
    2.0403    7.3532    6.0388 N   0  0  0  0  0  0  0  0  0  0  0  0
    0.7024    6.8728    7.8791 N   0  0  0  0  0  0  0  0  0  0  0  0
    0.8774    6.8192    6.5177 C   0  0  0  0  0  3  0  0  0  0  0  0
    2.1269    7.7465    4.6517 C   0  0  0  0  0  0  0  0  0  0  0  0
    2.4301    6.9179    4.0054 H   0  0  0  0  0  0  0  0  0  0  0  0
    2.8680    8.5423    4.5674 H   0  0  0  0  0  0  0  0  0  0  0  0
    1.1598    8.1178    4.3217 H   0  0  0  0  0  0  0  0  0  0  0  0
    3.3129    6.9517    6.6032 C   0  0  0  0  0  0  0  0  0  0  0  0
    3.1692    6.4503    7.5554 H   0  0  0  0  0  0  0  0  0  0  0  0
    3.9520    7.8252    6.7473 H   0  0  0  0  0  0  0  0  0  0  0  0
    3.8177    6.2576    5.9241 H   0  0  0  0  0  0  0  0  0  0  0  0
    1.2692    7.9259    8.6853 C   0  0  0  0  0  0  0  0  0  0  0  0
    1.6308    8.7234    8.0418 H   0  0  0  0  0  0  0  0  0  0  0  0
    2.0928    7.5713    9.3145 H   0  0  0  0  0  0  0  0  0  0  0  0
    0.4906    8.3262    9.3415 H   0  0  0  0  0  0  0  0  0  0  0  0
    0.1216    5.7754    8.6153 C   0  0  0  0  0  0  0  0  0  0  0  0
   -0.8668    6.0274    9.0137 H   0  0  0  0  0  0  0  0  0  0  0  0
    0.7740    5.5205    9.4555 H   0  0  0  0  0  0  0  0  0  0  0  0
    0.0404    4.8985    7.9774 H   0  0  0  0  0  0  0  0  0  0  0  0
   -1.4220    6.2827    6.0493 C   0  0  0  0  0  0  0  0  0  0  0  0
   -1.7153    7.1065    6.7138 H   0  0  0  0  0  0  0  0  0  0  0  0
   -1.6449    5.3354    6.5591 H   0  0  0  0  0  0  0  0  0  0  0  0
   -2.2609    6.3357    4.7732 C   0  0  0  0  0  0  0  0  0  0  0  0
   -2.0574    7.2521    4.2227 H   0  0  0  0  0  0  0  0  0  0  0  0
   -3.3233    6.2707    5.0094 H   0  0  0  0  0  0  0  0  0  0  0  0
   -1.8033    5.5895    1.9728 C   0  0  0  0  0  0  0  0  0  0  0  0
   -3.1991    6.0958    1.6357 C   0  0  0  0  0  0  0  0  0  0  0  0
   -3.2331    6.4121    0.5945 H   0  0  0  0  0  0  0  0  0  0  0  0
   -3.4760    6.9452    2.2579 H   0  0  0  0  0  0  0  0  0  0  0  0
   -3.9336    5.3066    1.7807 H   0  0  0  0  0  0  0  0  0  0  0  0
   -0.7568    6.6824    1.8234 C   0  0  0  0  0  0  0  0  0  0  0  0
   -0.6926    6.9825    0.7788 H   0  0  0  0  0  0  0  0  0  0  0  0
    0.2220    6.3180    2.1328 H   0  0  0  0  0  0  0  0  0  0  0  0
   -1.0003    7.5670    2.4103 H   0  0  0  0  0  0  0  0  0  0  0  0
   -1.4368    4.3853    1.1108 C   0  0  0  0  0  0  0  0  0  0  0  0
   -1.4299    4.6684    0.0604 H   0  0  0  0  0  0  0  0  0  0  0  0
   -2.1553    3.5807    1.2515 H   0  0  0  0  0  0  0  0  0  0  0  0
   -0.4494    4.0120    1.3727 H   0  0  0  0  0  0  0  0  0  0  0  0
  1  2  1  0  0  0  0
  2  4  1  0  0  0  0
  3 30  1  6  0  0  0
  3  2  1  0  0  0  0
  3 27  1  0  0  0  0
  4 24  1  0  0  0  0
  4  7  1  0  0  0  0
  5  7  1  0  0  0  0
  5 12  1  0  0  0  0
  6 20  1  0  0  0  0
  6 16  1  0  0  0  0
  7  6  1  0  0  0  0
  8  5  1  0  0  0  0
  9  8  1  0  0  0  0
 10  8  1  0  0  0  0
 11  8  1  0  0  0  0
 12 14  1  0  0  0  0
 12 13  1  0  0  0  0
 15 12  1  0  0  0  0
 16 18  1  0  0  0  0
 16 19  1  0  0  0  0
 17 16  1  0  0  0  0
 20 21  1  0  0  0  0
 20 22  1  0  0  0  0
 23 20  1  0  0  0  0
 24 26  1  0  0  0  0
 24 25  1  0  0  0  0
 27 29  1  0  0  0  0
 27 24  1  0  0  0  0
 28 27  1  0  0  0  0
 31 34  1  0  0  0  0
 31 30  1  0  0  0  0
 31 33  1  0  0  0  0
 32 31  1  0  0  0  0
 35 30  1  0  0  0  0
 35 37  1  0  0  0  0
 35 38  1  0  0  0  0
 36 35  1  0  0  0  0
 39 41  1  0  0  0  0
 39 42  1  0  0  0  0
 39 30  1  0  0  0  0
 40 39  1  0  0  0  0
M  END
$$$$
