CSD_code = OJEJUI | q = 0 | S = 0 | Stoichiometry = C30H28BClN6S2Zn | MND = 4
 OpenBabel04212202083D

 69 76  0  0  1  0  0  0  0  0999 V2000
    1.2320   12.0033    4.7490 Cl  0  0  0  0  0  0  0  0  0  0  0  0
    2.1042   11.2125   -0.6052 B   0  0  2  0  0  0  0  0  0  0  0  0
    2.4077   11.3029   -1.7510 H   0  0  0  0  0  0  0  0  0  0  0  0
    1.7673   11.2941    2.7596 Zn  0  0  2  0  0  0  0  0  0  0  0  0
   -0.1286   10.0597    1.7087 S   0  0  0  0  0  0  0  0  0  0  0  0
    3.7583    9.9512    2.1782 S   0  0  0  0  0  0  0  0  0  0  0  0
    2.3502   12.7344    1.3689 N   0  0  0  0  0  0  0  0  0  0  0  0
    2.8712   12.2245    0.2327 N   0  0  2  0  0  0  0  0  0  0  0  0
    0.5938   11.5489   -0.4844 N   0  0  0  0  0  0  0  0  0  0  0  0
   -1.5039   11.7113    0.1244 N   0  0  0  0  0  0  0  0  0  0  0  0
    2.3235    9.7460   -0.1668 N   0  0  0  0  0  0  0  0  0  0  0  0
    2.8388    7.8522    0.8030 N   0  0  0  0  0  0  0  0  0  0  0  0
    4.8784   12.4829   -1.2241 C   0  0  0  0  0  0  0  0  0  0  0  0
    5.1095   11.4194   -1.2184 H   0  0  0  0  0  0  0  0  0  0  0  0
    5.8050   13.0488   -1.1877 H   0  0  0  0  0  0  0  0  0  0  0  0
    4.3607   12.7115   -2.1544 H   0  0  0  0  0  0  0  0  0  0  0  0
    4.0374   12.8313   -0.0516 C   0  0  2  0  0  3  0  0  0  0  0  0
    4.2767   13.7700    0.9335 C   0  0  0  0  0  0  0  0  0  0  0  0
    5.1129   14.4347    1.0056 H   0  0  0  0  0  0  0  0  0  0  0  0
    3.1912   13.6778    1.8095 C   0  0  0  0  0  0  0  0  0  0  0  0
    2.9188   14.4685    3.0020 C   0  0  0  0  0  0  0  0  0  0  0  0
    3.9616   14.8667    3.8345 C   0  0  0  0  0  0  0  0  0  0  0  0
    4.9722   14.5628    3.6040 H   0  0  0  0  0  0  0  0  0  0  0  0
    3.6997   15.6158    4.9656 C   0  0  0  0  0  0  0  0  0  0  0  0
    4.5120   15.9096    5.6146 H   0  0  0  0  0  0  0  0  0  0  0  0
    2.3998   15.9814    5.2734 C   0  0  0  0  0  0  0  0  0  0  0  0
    2.1978   16.5615    6.1618 H   0  0  0  0  0  0  0  0  0  0  0  0
    1.3595   15.5968    4.4446 C   0  0  0  0  0  0  0  0  0  0  0  0
    0.3445   15.8768    4.6846 H   0  0  0  0  0  0  0  0  0  0  0  0
    1.6151   14.8445    3.3149 C   0  0  0  0  0  0  0  0  0  0  0  0
    0.8086   14.5466    2.6617 H   0  0  0  0  0  0  0  0  0  0  0  0
   -0.3094   11.1551    0.4273 C   0  0  1  0  0  3  0  0  0  0  0  0
   -0.0481   12.3832   -1.3616 C   0  0  0  0  0  0  0  0  0  0  0  0
    0.4758   12.8365   -2.1767 H   0  0  0  0  0  0  0  0  0  0  0  0
   -1.3467   12.4830   -0.9980 C   0  0  0  0  0  0  0  0  0  0  0  0
   -2.1623   13.0301   -1.4233 H   0  0  0  0  0  0  0  0  0  0  0  0
   -2.7127   11.5249    0.8455 C   0  0  0  0  0  0  0  0  0  0  0  0
   -3.6940   10.7186    0.2869 C   0  0  0  0  0  0  0  0  0  0  0  0
   -3.5123   10.2516   -0.6700 H   0  0  0  0  0  0  0  0  0  0  0  0
   -4.8824   10.5127    0.9614 C   0  0  0  0  0  0  0  0  0  0  0  0
   -5.6455    9.8834    0.5299 H   0  0  0  0  0  0  0  0  0  0  0  0
   -5.0801   11.1129    2.1938 C   0  0  0  0  0  0  0  0  0  0  0  0
   -6.0026   10.9507    2.7307 H   0  0  0  0  0  0  0  0  0  0  0  0
   -4.1017   11.9237    2.7377 C   0  0  0  0  0  0  0  0  0  0  0  0
   -4.2640   12.3929    3.6966 H   0  0  0  0  0  0  0  0  0  0  0  0
   -2.9008   12.1540    2.0760 C   0  0  0  0  0  0  0  0  0  0  0  0
   -1.8591   13.0457    2.6677 C   0  0  0  0  0  0  0  0  0  0  0  0
   -1.3250   13.5947    1.8933 H   0  0  0  0  0  0  0  0  0  0  0  0
   -1.1301   12.4575    3.2296 H   0  0  0  0  0  0  0  0  0  0  0  0
   -2.3088   13.7547    3.3578 H   0  0  0  0  0  0  0  0  0  0  0  0
    2.9385    9.1984    0.8934 C   0  0  1  0  0  3  0  0  0  0  0  0
    1.8216    8.7188   -0.9247 C   0  0  0  0  0  0  0  0  0  0  0  0
    1.2819    8.9129   -1.8277 H   0  0  0  0  0  0  0  0  0  0  0  0
    2.1324    7.5464   -0.3298 C   0  0  0  0  0  0  0  0  0  0  0  0
    1.9320    6.5350   -0.6153 H   0  0  0  0  0  0  0  0  0  0  0  0
    3.3435    6.9285    1.7525 C   0  0  0  0  0  0  0  0  0  0  0  0
    4.7169    6.7815    1.8761 C   0  0  0  0  0  0  0  0  0  0  0  0
    5.3690    7.3770    1.2557 H   0  0  0  0  0  0  0  0  0  0  0  0
    5.2322    5.8895    2.7979 C   0  0  0  0  0  0  0  0  0  0  0  0
    6.3005    5.7760    2.8983 H   0  0  0  0  0  0  0  0  0  0  0  0
    4.3702    5.1518    3.5908 C   0  0  0  0  0  0  0  0  0  0  0  0
    4.7649    4.4547    4.3146 H   0  0  0  0  0  0  0  0  0  0  0  0
    3.0018    5.3144    3.4695 C   0  0  0  0  0  0  0  0  0  0  0  0
    2.3366    4.7480    4.1047 H   0  0  0  0  0  0  0  0  0  0  0  0
    2.4584    6.2074    2.5546 C   0  0  0  0  0  0  0  0  0  0  0  0
    0.9779    6.3980    2.4460 C   0  0  0  0  0  0  0  0  0  0  0  0
    0.7216    7.4548    2.3824 H   0  0  0  0  0  0  0  0  0  0  0  0
    0.4773    5.9740    3.3121 H   0  0  0  0  0  0  0  0  0  0  0  0
    0.5874    5.9087    1.5536 H   0  0  0  0  0  0  0  0  0  0  0  0
  2  3  1  6  0  0  0
  2  9  1  0  0  0  0
  2 11  1  0  0  0  0
  2  8  1  0  0  0  0
  4  1  1  1  0  0  0
  5  4  1  0  0  0  0
  6  4  1  0  0  0  0
  7 20  1  0  0  0  0
  7  4  1  0  0  0  0
  8  7  1  6  0  0  0
  9 32  1  0  0  0  0
 10 32  1  0  0  0  0
 10 37  1  0  0  0  0
 11 51  1  0  0  0  0
 12 51  1  0  0  0  0
 12 56  1  0  0  0  0
 13 14  1  0  0  0  0
 13 15  1  0  0  0  0
 16 13  1  0  0  0  0
 17 13  1  1  0  0  0
 17  8  1  0  0  0  0
 17 18  1  0  0  0  0
 18 19  1  0  0  0  0
 18 20  2  0  0  0  0
 20 21  1  0  0  0  0
 21 30  2  0  0  0  0
 21 22  1  0  0  0  0
 22 24  2  0  0  0  0
 23 22  1  0  0  0  0
 24 26  1  0  0  0  0
 24 25  1  0  0  0  0
 26 27  1  0  0  0  0
 28 29  1  0  0  0  0
 28 26  2  0  0  0  0
 30 28  1  0  0  0  0
 31 30  1  0  0  0  0
 32  5  1  6  0  0  0
 33 35  2  0  0  0  0
 33  9  1  0  0  0  0
 34 33  1  0  0  0  0
 35 10  1  0  0  0  0
 36 35  1  0  0  0  0
 37 46  1  0  0  0  0
 38 37  2  0  0  0  0
 38 40  1  0  0  0  0
 39 38  1  0  0  0  0
 40 42  2  0  0  0  0
 41 40  1  0  0  0  0
 42 43  1  0  0  0  0
 42 44  1  0  0  0  0
 44 45  1  0  0  0  0
 46 47  1  0  0  0  0
 46 44  2  0  0  0  0
 47 49  1  0  0  0  0
 47 50  1  0  0  0  0
 48 47  1  0  0  0  0
 51  6  1  6  0  0  0
 52 54  2  0  0  0  0
 52 11  1  0  0  0  0
 53 52  1  0  0  0  0
 54 12  1  0  0  0  0
 55 54  1  0  0  0  0
 56 57  2  0  0  0  0
 56 65  1  0  0  0  0
 57 59  1  0  0  0  0
 58 57  1  0  0  0  0
 59 60  1  0  0  0  0
 59 61  2  0  0  0  0
 61 62  1  0  0  0  0
 63 61  1  0  0  0  0
 63 64  1  0  0  0  0
 65 63  2  0  0  0  0
 66 65  1  0  0  0  0
 66 68  1  0  0  0  0
 67 66  1  0  0  0  0
 69 66  1  0  0  0  0
M  END
$$$$
