CSD_code = OJEVOQ | q = 0 | S = 0 | Stoichiometry = C26H24As2Cl2Pt | MND = 4
 OpenBabel04212202083D

 55 57  0  0  0  0  0  0  0  0999 V2000
    5.1917    4.9005   14.5696 Pt  0  0  0  0  0  0  0  0  0  0  0  0
    7.1427    5.6164   13.5983 Cl  0  0  0  0  0  0  0  0  0  0  0  0
    5.7224    5.2969   16.7732 Cl  0  0  0  0  0  0  0  0  0  0  0  0
    4.4287    4.3102   12.4213 As  0  0  0  0  0  0  0  0  0  0  0  0
    3.0878    4.2868   15.4249 As  0  0  0  0  0  0  0  0  0  0  0  0
    4.7277    5.1009   10.6795 C   0  0  0  0  0  0  0  0  0  0  0  0
    3.7481    5.8001    9.9849 C   0  0  0  0  0  0  0  0  0  0  0  0
    2.7509    5.8951   10.4022 H   0  0  0  0  0  0  0  0  0  0  0  0
    4.0461    6.3777    8.7617 C   0  0  0  0  0  0  0  0  0  0  0  0
    3.2816    6.9168    8.2210 H   0  0  0  0  0  0  0  0  0  0  0  0
    5.3225    6.2709    8.2357 C   0  0  0  0  0  0  0  0  0  0  0  0
    5.5519    6.7270    7.2841 H   0  0  0  0  0  0  0  0  0  0  0  0
    6.3082    5.5897    8.9332 C   0  0  0  0  0  0  0  0  0  0  0  0
    7.3066    5.5191    8.5278 H   0  0  0  0  0  0  0  0  0  0  0  0
    6.0142    5.0084   10.1530 C   0  0  0  0  0  0  0  0  0  0  0  0
    6.7772    4.4891   10.7260 H   0  0  0  0  0  0  0  0  0  0  0  0
    4.8636    2.4405   12.1354 C   0  0  0  0  0  0  0  0  0  0  0  0
    5.2839    1.7002   13.2357 C   0  0  0  0  0  0  0  0  0  0  0  0
    5.4203    2.2070   14.1950 H   0  0  0  0  0  0  0  0  0  0  0  0
    5.5522    0.3487   13.1077 C   0  0  0  0  0  0  0  0  0  0  0  0
    5.8819   -0.2216   13.9637 H   0  0  0  0  0  0  0  0  0  0  0  0
    5.4053   -0.2677   11.8754 C   0  0  0  0  0  0  0  0  0  0  0  0
    5.6192   -1.3211   11.7709 H   0  0  0  0  0  0  0  0  0  0  0  0
    4.9934    0.4653   10.7736 C   0  0  0  0  0  0  0  0  0  0  0  0
    4.8865   -0.0179    9.8131 H   0  0  0  0  0  0  0  0  0  0  0  0
    4.7209    1.8163   10.9013 C   0  0  0  0  0  0  0  0  0  0  0  0
    4.4023    2.3992   10.0421 H   0  0  0  0  0  0  0  0  0  0  0  0
    2.0548    5.9115   15.6294 C   0  0  0  0  0  0  0  0  0  0  0  0
    2.5892    7.0873   15.1143 C   0  0  0  0  0  0  0  0  0  0  0  0
    3.5932    7.0672   14.6829 H   0  0  0  0  0  0  0  0  0  0  0  0
    1.8678    8.2669   15.1738 C   0  0  0  0  0  0  0  0  0  0  0  0
    2.2881    9.1794   14.7775 H   0  0  0  0  0  0  0  0  0  0  0  0
    0.6078    8.2738   15.7500 C   0  0  0  0  0  0  0  0  0  0  0  0
    0.0438    9.1934   15.8017 H   0  0  0  0  0  0  0  0  0  0  0  0
    0.0701    7.1054   16.2673 C   0  0  0  0  0  0  0  0  0  0  0  0
   -0.9112    7.1166   16.7195 H   0  0  0  0  0  0  0  0  0  0  0  0
    0.7898    5.9250   16.2068 C   0  0  0  0  0  0  0  0  0  0  0  0
    0.3788    5.0055   16.6143 H   0  0  0  0  0  0  0  0  0  0  0  0
    2.6053    3.2461   16.9834 C   0  0  0  0  0  0  0  0  0  0  0  0
    2.6685    3.8694   18.2275 C   0  0  0  0  0  0  0  0  0  0  0  0
    2.9473    4.9181   18.2744 H   0  0  0  0  0  0  0  0  0  0  0  0
    2.3977    3.1518   19.3782 C   0  0  0  0  0  0  0  0  0  0  0  0
    2.4484    3.6375   20.3414 H   0  0  0  0  0  0  0  0  0  0  0  0
    2.0700    1.8075   19.2954 C   0  0  0  0  0  0  0  0  0  0  0  0
    1.8597    1.2465   20.1938 H   0  0  0  0  0  0  0  0  0  0  0  0
    2.0238    1.1784   18.0626 C   0  0  0  0  0  0  0  0  0  0  0  0
    1.7800    0.1275   18.0004 H   0  0  0  0  0  0  0  0  0  0  0  0
    2.2984    1.8924   16.9082 C   0  0  0  0  0  0  0  0  0  0  0  0
    2.2774    1.3944   15.9440 H   0  0  0  0  0  0  0  0  0  0  0  0
    2.4525    4.1771   12.6151 C   0  0  0  0  0  0  0  0  0  0  0  0
    2.0517    5.2001   12.6520 H   0  0  0  0  0  0  0  0  0  0  0  0
    2.0201    3.6688   11.7441 H   0  0  0  0  0  0  0  0  0  0  0  0
    2.1107    3.4442   13.9075 C   0  0  0  0  0  0  0  0  0  0  0  0
    2.4311    2.3968   13.8305 H   0  0  0  0  0  0  0  0  0  0  0  0
    1.0311    3.4584   14.1011 H   0  0  0  0  0  0  0  0  0  0  0  0
  1  3  1  0  0  0  0
  2  1  1  0  0  0  0
  4 50  1  0  0  0  0
  5 28  1  0  0  0  0
  5 39  1  0  0  0  0
  6  4  1  0  0  0  0
  7  8  1  0  0  0  0
  7  6  2  0  0  0  0
  9  7  1  0  0  0  0
 10  9  1  0  0  0  0
 11  9  2  0  0  0  0
 11 13  1  0  0  0  0
 12 11  1  0  0  0  0
 13 15  2  0  0  0  0
 14 13  1  0  0  0  0
 15  6  1  0  0  0  0
 15 16  1  0  0  0  0
 17  4  1  0  0  0  0
 17 18  1  0  0  0  0
 18 19  1  0  0  0  0
 20 18  2  0  0  0  0
 20 21  1  0  0  0  0
 22 20  1  0  0  0  0
 23 22  1  0  0  0  0
 24 26  1  0  0  0  0
 24 22  2  0  0  0  0
 25 24  1  0  0  0  0
 26 17  2  0  0  0  0
 27 26  1  0  0  0  0
 28 37  1  0  0  0  0
 29 31  1  0  0  0  0
 29 28  2  0  0  0  0
 30 29  1  0  0  0  0
 31 33  2  0  0  0  0
 32 31  1  0  0  0  0
 33 34  1  0  0  0  0
 33 35  1  0  0  0  0
 35 36  1  0  0  0  0
 37 35  2  0  0  0  0
 37 38  1  0  0  0  0
 39 40  1  0  0  0  0
 40 41  1  0  0  0  0
 40 42  2  0  0  0  0
 42 43  1  0  0  0  0
 44 42  1  0  0  0  0
 44 45  1  0  0  0  0
 46 44  2  0  0  0  0
 47 46  1  0  0  0  0
 48 39  2  0  0  0  0
 48 46  1  0  0  0  0
 49 48  1  0  0  0  0
 50 51  1  0  0  0  0
 50 53  1  0  0  0  0
 52 50  1  0  0  0  0
 53 55  1  0  0  0  0
 53  5  1  0  0  0  0
 54 53  1  0  0  0  0
M  END
$$$$
