CSD_code = OJEWUW | q = 0 | S = 0 | Stoichiometry = C23H20Cl2N2OTi | MND = 9
 OpenBabel04212202083D

 49 53  0  0  1  0  0  0  0  0999 V2000
    3.6969    6.5667   11.1529 Ti  0  0  0  0  0  0  0  0  0  0  0  0
    4.7765    8.3502   11.8754 Cl  0  0  0  0  0  0  0  0  0  0  0  0
    3.1176    6.1563   13.2329 Cl  0  0  0  0  0  0  0  0  0  0  0  0
    6.3023    5.9724    7.8866 C   0  0  0  0  0  0  0  0  0  0  0  0
    5.3190    4.9126   10.4618 C   0  0  2  0  0  3  0  0  0  0  0  0
    5.4550    6.1777   10.1405 N   0  0  0  0  0  0  0  0  0  0  0  0
    4.2589    4.6898   11.1433 O   0  0  0  0  0  0  0  0  0  0  0  0
    5.5387    4.8730    7.7505 N   0  0  0  0  0  0  0  0  0  0  0  0
    6.2627    6.6716    9.1310 C   0  0  0  0  0  0  0  0  0  0  0  0
    1.8557    5.7829    9.9311 C   0  0  0  0  0  0  0  0  0  0  0  0
    1.4820    4.7670    9.9371 H   0  0  0  0  0  0  0  0  0  0  0  0
    6.2675    3.8251   10.1725 C   0  0  0  0  0  0  0  0  0  0  0  0
    7.1269    6.4608    6.8426 C   0  0  0  0  0  0  0  0  0  0  0  0
    7.8531    7.6517    7.0337 C   0  0  0  0  0  0  0  0  0  0  0  0
    8.4809    8.0149    6.2331 H   0  0  0  0  0  0  0  0  0  0  0  0
    6.9666    7.8500    9.2684 C   0  0  0  0  0  0  0  0  0  0  0  0
    6.9042    8.3912   10.2014 H   0  0  0  0  0  0  0  0  0  0  0  0
    2.7705    6.3251    9.0024 C   0  0  0  0  0  0  0  0  0  0  0  0
    3.2258    5.7927    8.1774 H   0  0  0  0  0  0  0  0  0  0  0  0
    5.5847    4.1847    6.6403 C   0  0  0  0  0  0  0  0  0  0  0  0
    7.7553    8.3331    8.2182 C   0  0  0  0  0  0  0  0  0  0  0  0
    8.3026    9.2531    8.3589 H   0  0  0  0  0  0  0  0  0  0  0  0
    2.9048    7.7042    9.2733 C   0  0  0  0  0  3  0  0  0  0  0  0
    3.4739    8.4158    8.6876 H   0  0  0  0  0  0  0  0  0  0  0  0
    1.4165    6.8275   10.7744 C   0  0  0  0  0  3  0  0  0  0  0  0
    0.6399    6.7547   11.5261 H   0  0  0  0  0  0  0  0  0  0  0  0
    6.4130    4.5601    5.5585 C   0  0  0  0  0  0  0  0  0  0  0  0
    6.4268    3.9526    4.6662 H   0  0  0  0  0  0  0  0  0  0  0  0
    4.7175    2.9698    6.5511 C   0  0  0  0  0  0  0  0  0  0  0  0
    4.1193    2.8812    7.4533 H   0  0  0  0  0  0  0  0  0  0  0  0
    5.3361    2.0796    6.4465 H   0  0  0  0  0  0  0  0  0  0  0  0
    4.0628    3.0311    5.6833 H   0  0  0  0  0  0  0  0  0  0  0  0
    7.1634    5.6970    5.6548 C   0  0  0  0  0  0  0  0  0  0  0  0
    7.7878    6.0265    4.8358 H   0  0  0  0  0  0  0  0  0  0  0  0
    7.6277    4.0582    9.9855 C   0  0  0  0  0  0  0  0  0  0  0  0
    8.0211    5.0604   10.0741 H   0  0  0  0  0  0  0  0  0  0  0  0
    8.4750    3.0044    9.7045 C   0  0  0  0  0  0  0  0  0  0  0  0
    9.5291    3.1941    9.5616 H   0  0  0  0  0  0  0  0  0  0  0  0
    6.6367    1.4768    9.8149 C   0  0  0  0  0  0  0  0  0  0  0  0
    6.2521    0.4688    9.7529 H   0  0  0  0  0  0  0  0  0  0  0  0
    5.7823    2.5199   10.1032 C   0  0  0  0  0  0  0  0  0  0  0  0
    4.7294    2.3484   10.2710 H   0  0  0  0  0  0  0  0  0  0  0  0
    7.9940    1.7036    9.6058 C   0  0  0  0  0  0  0  0  0  0  0  0
    2.0683    8.0176   10.3701 C   0  0  1  0  0  0  0  0  0  0  0  0
    1.8747    9.0117   10.7585 H   0  0  0  0  0  0  0  0  0  0  0  0
    8.9150    0.5606    9.3124 C   0  0  0  0  0  0  0  0  0  0  0  0
    9.8643    0.9140    8.9183 H   0  0  0  0  0  0  0  0  0  0  0  0
    8.4656   -0.1235    8.5954 H   0  0  0  0  0  0  0  0  0  0  0  0
    9.1122    0.0003   10.2266 H   0  0  0  0  0  0  0  0  0  0  0  0
  1  2  1  0  0  0  0
  1  3  1  0  0  0  0
  4  9  1  0  0  0  0
  5 12  1  1  0  0  0
  5  7  1  0  0  0  0
  6  5  1  0  0  0  0
  6  1  1  0  0  0  0
  7  1  1  0  0  0  0
  8  4  1  0  0  0  0
  9 16  2  0  0  0  0
  9  6  1  0  0  0  0
 10 11  1  0  0  0  0
 10 25  1  0  0  0  0
 13 14  1  0  0  0  0
 13  4  2  0  0  0  0
 14 21  2  0  0  0  0
 15 14  1  0  0  0  0
 16 17  1  0  0  0  0
 18 23  1  0  0  0  0
 18 10  2  0  0  0  0
 19 18  1  0  0  0  0
 20  8  2  0  0  0  0
 21 22  1  0  0  0  0
 21 16  1  0  0  0  0
 23 44  1  0  0  0  0
 24 23  1  0  0  0  0
 25 26  1  0  0  0  0
 27 33  2  0  0  0  0
 27 20  1  0  0  0  0
 28 27  1  0  0  0  0
 29 20  1  0  0  0  0
 29 30  1  0  0  0  0
 31 29  1  0  0  0  0
 32 29  1  0  0  0  0
 33 13  1  0  0  0  0
 34 33  1  0  0  0  0
 35 36  1  0  0  0  0
 35 12  2  0  0  0  0
 37 35  1  0  0  0  0
 38 37  1  0  0  0  0
 39 41  2  0  0  0  0
 40 39  1  0  0  0  0
 41 12  1  0  0  0  0
 41 42  1  0  0  0  0
 43 37  2  0  0  0  0
 43 39  1  0  0  0  0
 44 45  1  1  0  0  0
 44 25  1  0  0  0  0
 44  1  1  0  0  0  0
 46 43  1  0  0  0  0
 46 49  1  0  0  0  0
 47 46  1  0  0  0  0
 48 46  1  0  0  0  0
M  END
$$$$
