CSD_code = OJEXAD | q = 0 | S = 0 | Stoichiometry = C22H17Cl2FN2OTi | MND = 9
 OpenBabel04212202083D

 46 50  0  0  1  0  0  0  0  0999 V2000
    3.1178    2.5804    0.7047 Ti  0  0  0  0  0  0  0  0  0  0  0  0
    2.0496    0.8090   -0.0506 Cl  0  0  0  0  0  0  0  0  0  0  0  0
    3.7210    3.0255   -1.3572 Cl  0  0  0  0  0  0  0  0  0  0  0  0
    1.2327    4.2347    4.1195 N   0  0  0  0  0  0  0  0  0  0  0  0
    2.5242    4.4554    0.7296 O   0  0  0  0  0  0  0  0  0  0  0  0
   -0.8488    5.0375    1.8958 C   0  0  0  0  0  0  0  0  0  0  0  0
   -1.2320    4.0349    1.7790 H   0  0  0  0  0  0  0  0  0  0  0  0
    1.3440    2.9450    1.7196 N   0  0  0  0  0  0  0  0  0  0  0  0
    0.4938    3.1189    3.9763 C   0  0  0  0  0  0  0  0  0  0  0  0
    0.5103    5.2902    1.7186 C   0  0  0  0  0  0  0  0  0  0  0  0
   -0.3117    2.5997    5.0203 C   0  0  0  0  0  0  0  0  0  0  0  0
    1.4691    4.2113    1.4096 C   0  0  2  0  0  3  0  0  0  0  0  0
    0.9935    6.5942    1.8163 C   0  0  0  0  0  0  0  0  0  0  0  0
    2.0446    6.7724    1.6468 H   0  0  0  0  0  0  0  0  0  0  0  0
   -1.7100    6.0714    2.2074 C   0  0  0  0  0  0  0  0  0  0  0  0
   -2.7650    5.8993    2.3505 H   0  0  0  0  0  0  0  0  0  0  0  0
    1.1833    4.9057    5.2405 C   0  0  0  0  0  0  0  0  0  0  0  0
    0.5426    2.4321    2.7255 C   0  0  0  0  0  0  0  0  0  0  0  0
    5.3849    2.2765    1.0980 C   0  0  0  0  0  0  0  0  0  0  0  0
    6.1664    2.3154    0.3486 H   0  0  0  0  0  0  0  0  0  0  0  0
    4.9638    3.3503    1.9146 C   0  0  0  0  0  0  0  0  0  0  0  0
    5.3582    4.3581    1.8855 H   0  0  0  0  0  0  0  0  0  0  0  0
   -0.9127    0.7316    3.6264 C   0  0  0  0  0  0  0  0  0  0  0  0
   -1.4421   -0.1975    3.4783 H   0  0  0  0  0  0  0  0  0  0  0  0
   -1.0150    1.3967    4.8197 C   0  0  0  0  0  0  0  0  0  0  0  0
   -1.6284    1.0109    5.6206 H   0  0  0  0  0  0  0  0  0  0  0  0
   -0.1386    1.2418    2.5781 C   0  0  0  0  0  0  0  0  0  0  0  0
   -0.0680    0.7116    1.6394 H   0  0  0  0  0  0  0  0  0  0  0  0
    4.7095    1.1090    1.5300 C   0  0  1  0  0  0  0  0  0  0  0  0
    4.8862    0.1020    1.1679 H   0  0  0  0  0  0  0  0  0  0  0  0
    3.8765    1.4655    2.6157 C   0  0  0  0  0  0  0  0  0  0  0  0
    3.2925    0.7796    3.2170 H   0  0  0  0  0  0  0  0  0  0  0  0
    4.0364    2.8482    2.8534 C   0  0  0  0  0  0  0  0  0  0  0  0
    3.5889    3.4078    3.6647 H   0  0  0  0  0  0  0  0  0  0  0  0
   -1.1993    7.3522    2.3340 C   0  0  0  0  0  0  0  0  0  0  0  0
    2.0245    6.1376    5.3412 C   0  0  0  0  0  0  0  0  0  0  0  0
    2.6197    6.2505    4.4397 H   0  0  0  0  0  0  0  0  0  0  0  0
    2.6817    6.0798    6.2074 H   0  0  0  0  0  0  0  0  0  0  0  0
    1.3878    7.0133    5.4590 H   0  0  0  0  0  0  0  0  0  0  0  0
    0.1414    7.6329    2.1336 C   0  0  0  0  0  0  0  0  0  0  0  0
    0.4964    8.6473    2.2248 H   0  0  0  0  0  0  0  0  0  0  0  0
    0.3743    4.4967    6.3248 C   0  0  0  0  0  0  0  0  0  0  0  0
    0.3569    5.0910    7.2257 H   0  0  0  0  0  0  0  0  0  0  0  0
   -0.3538    3.3464    6.2189 C   0  0  0  0  0  0  0  0  0  0  0  0
   -0.9643    2.9930    7.0382 H   0  0  0  0  0  0  0  0  0  0  0  0
   -2.0352    8.3575    2.6569 F   0  0  0  0  0  0  0  0  0  0  0  0
  1  5  1  0  0  0  0
  1 29  1  0  0  0  0
  1  8  1  0  0  0  0
  2  1  1  0  0  0  0
  3  1  1  0  0  0  0
  4 17  1  0  0  0  0
  5 12  1  0  0  0  0
  6 15  1  0  0  0  0
  7  6  1  0  0  0  0
  8 18  1  0  0  0  0
  9  4  2  0  0  0  0
  9 11  1  0  0  0  0
 10 13  1  0  0  0  0
 10  6  2  0  0  0  0
 11 44  2  0  0  0  0
 12 10  1  6  0  0  0
 12  8  1  0  0  0  0
 13 40  2  0  0  0  0
 14 13  1  0  0  0  0
 15 35  2  0  0  0  0
 15 16  1  0  0  0  0
 17 36  1  0  0  0  0
 17 42  2  0  0  0  0
 18  9  1  0  0  0  0
 19 29  1  0  0  0  0
 19 21  2  0  0  0  0
 20 19  1  0  0  0  0
 21 33  1  0  0  0  0
 22 21  1  0  0  0  0
 23 25  2  0  0  0  0
 24 23  1  0  0  0  0
 25 11  1  0  0  0  0
 25 26  1  0  0  0  0
 27 18  2  0  0  0  0
 27 23  1  0  0  0  0
 28 27  1  0  0  0  0
 29 30  1  6  0  0  0
 29 31  1  0  0  0  0
 31 33  2  0  0  0  0
 31 32  1  0  0  0  0
 33 34  1  0  0  0  0
 35 46  1  0  0  0  0
 36 39  1  0  0  0  0
 36 38  1  0  0  0  0
 37 36  1  0  0  0  0
 40 41  1  0  0  0  0
 40 35  1  0  0  0  0
 42 43  1  0  0  0  0
 44 42  1  0  0  0  0
 44 45  1  0  0  0  0
M  END
$$$$
