CSD_code = OJEYOT | q = 0 | S = 0 | Stoichiometry = C15H26Cl2N2O3Pd | MND = 4
 OpenBabel04212202083D

 49 51  0  0  1  0  0  0  0  0999 V2000
    5.2212   12.9373    1.7174 Pd  0  0  0  0  0  0  0  0  0  0  0  0
    5.0093   15.0053    2.5858 Cl  0  0  0  0  0  0  0  0  0  0  0  0
    3.1003   12.9187    1.0409 Cl  0  0  0  0  0  0  0  0  0  0  0  0
    7.5183   13.6745    3.3436 O   0  0  0  0  0  0  0  0  0  0  0  0
    6.8171   14.3877    3.4113 H   0  0  0  0  0  0  0  0  0  0  0  0
    4.8164    9.2760    3.0819 O   0  0  0  0  0  0  0  0  0  0  0  0
    2.7988    8.3766    2.7034 O   0  0  0  0  0  0  0  0  0  0  0  0
    7.0919   12.9256    2.2836 N   0  0  0  0  0  0  0  0  0  0  0  0
    5.8049   10.9182    1.1319 N   0  0  0  0  0  4  0  0  0  0  0  0
    5.8224   10.4573    2.0523 H   0  0  0  0  0  0  0  0  0  0  0  0
    7.8153   11.9673    1.8515 C   0  0  1  0  0  3  0  0  0  0  0  0
    9.0747   11.5181    2.5344 C   0  0  0  0  0  0  0  0  0  0  0  0
    8.8640   11.4753    3.6088 H   0  0  0  0  0  0  0  0  0  0  0  0
    9.8650   12.2628    2.4098 H   0  0  0  0  0  0  0  0  0  0  0  0
    9.5013   10.1488    2.0205 C   0  0  2  0  0  0  0  0  0  0  0  0
   10.3613    9.7647    2.5678 H   0  0  0  0  0  0  0  0  0  0  0  0
    9.5699   10.1534    0.4771 C   0  0  0  0  0  0  0  0  0  0  0  0
    8.0339    9.9033    0.5188 C   0  0  2  0  0  0  0  0  0  0  0  0
    7.6410    9.2753   -0.2804 H   0  0  0  0  0  0  0  0  0  0  0  0
    7.2026   11.1828    0.6964 C   0  0  1  0  0  0  0  0  0  0  0  0
    8.2455    9.2708    1.9096 C   0  0  0  0  0  0  0  0  0  0  0  0
    7.4747    9.4326    2.6604 H   0  0  0  0  0  0  0  0  0  0  0  0
    8.4639    8.2080    1.8669 H   0  0  0  0  0  0  0  0  0  0  0  0
    7.1009   12.0222   -0.5924 C   0  0  0  0  0  0  0  0  0  0  0  0
    8.0052   12.5858   -0.7863 H   0  0  0  0  0  0  0  0  0  0  0  0
    6.2639   12.7372   -0.4982 H   0  0  0  0  0  0  0  0  0  0  0  0
    6.9115   11.3724   -1.4431 H   0  0  0  0  0  0  0  0  0  0  0  0
    4.9905   10.0348    0.2930 C   0  0  0  0  0  0  0  0  0  0  0  0
    4.7664   10.5309   -0.6549 H   0  0  0  0  0  0  0  0  0  0  0  0
    5.5215    9.0946    0.0932 H   0  0  0  0  0  0  0  0  0  0  0  0
    3.6731    9.7255    1.0060 C   0  0  0  0  0  0  0  0  0  0  0  0
    3.0369    9.0860    0.3971 H   0  0  0  0  0  0  0  0  0  0  0  0
    3.1440   10.6845    1.1548 H   0  0  0  0  0  0  0  0  0  0  0  0
    3.8483    9.1126    2.3654 C   0  0  0  0  0  0  0  0  0  0  0  0
    2.7576    7.8464    4.0318 C   0  0  0  0  0  0  0  0  0  0  0  0
    3.7627    7.5156    4.3136 H   0  0  0  0  0  0  0  0  0  0  0  0
    2.0859    6.9882    3.9719 H   0  0  0  0  0  0  0  0  0  0  0  0
    2.2422    8.8837    5.0179 C   0  0  0  0  0  0  0  0  0  0  0  0
    2.9244    9.7294    5.0606 H   0  0  0  0  0  0  0  0  0  0  0  0
    2.1666    8.4414    6.0070 H   0  0  0  0  0  0  0  0  0  0  0  0
    1.2626    9.2395    4.7093 H   0  0  0  0  0  0  0  0  0  0  0  0
   10.2932    8.9256   -0.0773 C   0  0  0  0  0  0  0  0  0  0  0  0
   10.1692    8.8795   -1.1574 H   0  0  0  0  0  0  0  0  0  0  0  0
    9.9206    7.9984    0.3459 H   0  0  0  0  0  0  0  0  0  0  0  0
   11.3571    8.9920    0.1399 H   0  0  0  0  0  0  0  0  0  0  0  0
   10.1725   11.3749   -0.2034 C   0  0  0  0  0  0  0  0  0  0  0  0
   11.2494   11.3671   -0.0431 H   0  0  0  0  0  0  0  0  0  0  0  0
    9.7903   12.3127    0.1831 H   0  0  0  0  0  0  0  0  0  0  0  0
    9.9940   11.3353   -1.2756 H   0  0  0  0  0  0  0  0  0  0  0  0
  1  8  1  0  0  0  0
  1  2  1  0  0  0  0
  3  1  1  0  0  0  0
  4  5  1  0  0  0  0
  7 35  1  0  0  0  0
  8  4  1  0  0  0  0
  9  1  1  0  0  0  0
  9 10  1  0  0  0  0
 11  8  1  1  0  0  0
 11 12  1  0  0  0  0
 12 13  1  0  0  0  0
 14 12  1  0  0  0  0
 15 12  1  0  0  0  0
 15 16  1  1  0  0  0
 17 18  1  0  0  0  0
 17 15  1  0  0  0  0
 18 19  1  6  0  0  0
 18 20  1  0  0  0  0
 18 21  1  0  0  0  0
 20 24  1  6  0  0  0
 20  9  1  0  0  0  0
 20 11  1  0  0  0  0
 21 15  1  0  0  0  0
 21 22  1  0  0  0  0
 23 21  1  0  0  0  0
 24 26  1  0  0  0  0
 25 24  1  0  0  0  0
 27 24  1  0  0  0  0
 28 31  1  0  0  0  0
 28  9  1  0  0  0  0
 29 28  1  0  0  0  0
 30 28  1  0  0  0  0
 31 33  1  0  0  0  0
 31 34  1  0  0  0  0
 32 31  1  0  0  0  0
 34  7  1  0  0  0  0
 34  6  2  0  0  0  0
 35 36  1  0  0  0  0
 35 38  1  0  0  0  0
 37 35  1  0  0  0  0
 38 39  1  0  0  0  0
 38 40  1  0  0  0  0
 41 38  1  0  0  0  0
 42 45  1  0  0  0  0
 42 44  1  0  0  0  0
 42 17  1  0  0  0  0
 43 42  1  0  0  0  0
 46 47  1  0  0  0  0
 46 48  1  0  0  0  0
 46 17  1  0  0  0  0
 49 46  1  0  0  0  0
M  END
$$$$
