CSD_code = OJIHOF | q = 0 | S = 0 | Stoichiometry = C16H36ClN2OOsP | MND = 6
 OpenBabel04212202083D

 58 58  0  0  0  0  0  0  0  0999 V2000
    8.8962   10.4012    8.6562 Os  0  0  0  0  0  0  0  0  0  0  0  0
    9.6252    8.2547    7.9976 P   0  0  0  0  0  4  0  0  0  0  0  0
    9.3593   10.0183   11.0455 Cl  0  0  0  0  0  0  0  0  0  0  0  0
   10.9566   11.2954    8.6872 N   0  0  0  0  0  4  0  0  0  0  0  0
   10.9276   11.9827    9.4404 H   0  0  0  0  0  0  0  0  0  0  0  0
   11.6904   10.6433    8.9532 H   0  0  0  0  0  0  0  0  0  0  0  0
    8.2963   12.4067    9.5007 N   0  0  0  0  0  4  0  0  0  0  0  0
    8.4842   12.2011   10.4892 H   0  0  0  0  0  0  0  0  0  0  0  0
    8.9485   13.1355    9.2041 H   0  0  0  0  0  0  0  0  0  0  0  0
    5.9710    9.7326    8.4534 O   0  0  0  0  0  1  0  0  0  0  0  0
   11.2797   11.9496    7.4045 C   0  0  0  0  0  0  0  0  0  0  0  0
   11.7359   12.9377    7.5621 H   0  0  0  0  0  0  0  0  0  0  0  0
   12.0184   11.3414    6.8654 H   0  0  0  0  0  0  0  0  0  0  0  0
   10.0337   12.0689    6.5622 C   0  0  0  0  0  0  0  0  0  0  0  0
   10.1307   12.7244    5.7004 H   0  0  0  0  0  0  0  0  0  0  0  0
    8.9423   11.3599    6.8364 C   0  0  0  0  0  0  0  0  0  0  0  0
    8.1053   11.4900    6.1485 H   0  0  0  0  0  0  0  0  0  0  0  0
    6.9398   12.9460    9.3782 C   0  0  0  0  0  0  0  0  0  0  0  0
    6.2368   12.2012    9.7574 H   0  0  0  0  0  0  0  0  0  0  0  0
    6.7284   13.1035    8.3170 H   0  0  0  0  0  0  0  0  0  0  0  0
    6.7634   14.2582   10.1463 C   0  0  0  0  0  0  0  0  0  0  0  0
    6.9905   14.0917   11.2028 H   0  0  0  0  0  0  0  0  0  0  0  0
    7.4690   15.0024    9.7642 H   0  0  0  0  0  0  0  0  0  0  0  0
    5.3437   14.7928   10.0119 C   0  0  0  0  0  0  0  0  0  0  0  0
    5.1045   14.9768    8.9672 H   0  0  0  0  0  0  0  0  0  0  0  0
    5.2322   15.7246   10.5610 H   0  0  0  0  0  0  0  0  0  0  0  0
    4.6298   14.0731   10.4046 H   0  0  0  0  0  0  0  0  0  0  0  0
    7.1141    9.9234    8.5336 C   0  0  0  0  0  2  0  0  0  0  0  0
    9.2428    7.7470    6.2384 C   0  0  0  0  0  0  0  0  0  0  0  0
    9.5176    6.6962    6.1100 H   0  0  0  0  0  0  0  0  0  0  0  0
   10.0204    8.6039    5.2453 C   0  0  0  0  0  0  0  0  0  0  0  0
    9.6935    8.3809    4.2309 H   0  0  0  0  0  0  0  0  0  0  0  0
   11.0911    8.4245    5.2997 H   0  0  0  0  0  0  0  0  0  0  0  0
    9.8287    9.6555    5.4477 H   0  0  0  0  0  0  0  0  0  0  0  0
    7.7470    7.9109    5.9947 C   0  0  0  0  0  0  0  0  0  0  0  0
    7.4717    8.9549    6.1289 H   0  0  0  0  0  0  0  0  0  0  0  0
    7.1623    7.3147    6.6899 H   0  0  0  0  0  0  0  0  0  0  0  0
    7.4933    7.6047    4.9810 H   0  0  0  0  0  0  0  0  0  0  0  0
   11.4937    8.0351    8.0900 C   0  0  0  0  0  0  0  0  0  0  0  0
   11.8653    8.8886    7.5075 H   0  0  0  0  0  0  0  0  0  0  0  0
   12.0845    6.7665    7.4777 C   0  0  0  0  0  0  0  0  0  0  0  0
   13.1718    6.8500    7.4739 H   0  0  0  0  0  0  0  0  0  0  0  0
   11.7582    6.6080    6.4541 H   0  0  0  0  0  0  0  0  0  0  0  0
   11.8267    5.8923    8.0695 H   0  0  0  0  0  0  0  0  0  0  0  0
   11.9736    8.1676    9.5393 C   0  0  0  0  0  0  0  0  0  0  0  0
   11.9770    7.1959   10.0293 H   0  0  0  0  0  0  0  0  0  0  0  0
   11.3244    8.8195   10.1234 H   0  0  0  0  0  0  0  0  0  0  0  0
   12.9933    8.5520    9.5782 H   0  0  0  0  0  0  0  0  0  0  0  0
    9.0205    6.8066    9.0406 C   0  0  0  0  0  0  0  0  0  0  0  0
    9.7743    6.7335    9.8329 H   0  0  0  0  0  0  0  0  0  0  0  0
    8.9253    5.4582    8.3278 C   0  0  0  0  0  0  0  0  0  0  0  0
    8.7193    4.6852    9.0675 H   0  0  0  0  0  0  0  0  0  0  0  0
    9.8423    5.1889    7.8129 H   0  0  0  0  0  0  0  0  0  0  0  0
    8.1092    5.4538    7.6102 H   0  0  0  0  0  0  0  0  0  0  0  0
    7.6877    7.1172    9.7168 C   0  0  0  0  0  0  0  0  0  0  0  0
    6.8855    7.2127    8.9899 H   0  0  0  0  0  0  0  0  0  0  0  0
    7.7546    8.0444   10.2799 H   0  0  0  0  0  0  0  0  0  0  0  0
    7.4303    6.3164   10.4088 H   0  0  0  0  0  0  0  0  0  0  0  0
  1  4  1  0  0  0  0
  1  7  1  0  0  0  0
  1  3  1  0  0  0  0
  2 39  1  0  0  0  0
  2  1  1  0  0  0  0
  2 49  1  0  0  0  0
  4  6  1  0  0  0  0
  4  5  1  0  0  0  0
  7  8  1  0  0  0  0
  9  7  1  0  0  0  0
 10 28  1  0  0  0  0
 11 12  1  0  0  0  0
 11  4  1  0  0  0  0
 13 11  1  0  0  0  0
 14 16  2  0  0  0  0
 14 11  1  0  0  0  0
 15 14  1  0  0  0  0
 16  1  1  0  0  0  0
 17 16  1  0  0  0  0
 18  7  1  0  0  0  0
 18 19  1  0  0  0  0
 18 21  1  0  0  0  0
 20 18  1  0  0  0  0
 21 22  1  0  0  0  0
 23 21  1  0  0  0  0
 24 21  1  0  0  0  0
 24 27  1  0  0  0  0
 24 26  1  0  0  0  0
 25 24  1  0  0  0  0
 28  1  1  0  0  0  0
 29  2  1  0  0  0  0
 30 29  1  0  0  0  0
 31 33  1  0  0  0  0
 31 34  1  0  0  0  0
 31 29  1  0  0  0  0
 32 31  1  0  0  0  0
 35 36  1  0  0  0  0
 35 29  1  0  0  0  0
 35 37  1  0  0  0  0
 38 35  1  0  0  0  0
 39 45  1  0  0  0  0
 40 39  1  0  0  0  0
 41 44  1  0  0  0  0
 41 39  1  0  0  0  0
 42 41  1  0  0  0  0
 43 41  1  0  0  0  0
 45 48  1  0  0  0  0
 45 46  1  0  0  0  0
 45 47  1  0  0  0  0
 49 55  1  0  0  0  0
 49 50  1  0  0  0  0
 51 49  1  0  0  0  0
 51 52  1  0  0  0  0
 53 51  1  0  0  0  0
 54 51  1  0  0  0  0
 55 57  1  0  0  0  0
 55 58  1  0  0  0  0
 56 55  1  0  0  0  0
M  END
$$$$
