CSD_code = OJIKAU | q = 0 | S = 0 | Stoichiometry = C24H28I2N4Pd | MND = 4
 OpenBabel04212202083D

 59 62  0  0  1  0  0  0  0  0999 V2000
    4.3069    6.2385    4.9570 Pd  0  0  0  0  0  0  0  0  0  0  0  0
    4.5226    4.2440    4.9461 C   0  0  1  0  0  3  0  0  0  0  0  0
    4.9191    2.1534    5.6194 C   0  0  0  0  0  0  0  0  0  0  0  0
    5.2546    1.3752    6.2731 H   0  0  0  0  0  0  0  0  0  0  0  0
    4.4131    2.0984    4.3680 C   0  0  0  0  0  0  0  0  0  0  0  0
    4.2128    1.2542    3.7422 H   0  0  0  0  0  0  0  0  0  0  0  0
    5.3959    3.9897    7.2099 C   0  0  0  0  0  0  0  0  0  0  0  0
    6.1560    5.1554    7.2684 C   0  0  0  0  0  0  0  0  0  0  0  0
    6.4949    5.6408    6.3514 H   0  0  0  0  0  0  0  0  0  0  0  0
    6.5438    5.6500    8.5028 C   0  0  0  0  0  0  0  0  0  0  0  0
    7.1549    6.5386    8.5516 H   0  0  0  0  0  0  0  0  0  0  0  0
    6.1655    5.0049    9.6678 C   0  0  0  0  0  0  0  0  0  0  0  0
    6.4657    5.4010   10.6260 H   0  0  0  0  0  0  0  0  0  0  0  0
    5.4029    3.8510    9.6031 C   0  0  0  0  0  0  0  0  0  0  0  0
    5.0991    3.3496   10.5092 H   0  0  0  0  0  0  0  0  0  0  0  0
    5.0187    3.3385    8.3782 C   0  0  0  0  0  0  0  0  0  0  0  0
    4.4056    2.4514    8.3249 H   0  0  0  0  0  0  0  0  0  0  0  0
    3.5658    3.7940    2.7191 C   0  0  0  0  0  0  0  0  0  0  0  0
    3.5536    4.9001    2.7271 H   0  0  0  0  0  0  0  0  0  0  0  0
    2.1312    3.2742    2.6556 C   0  0  0  0  0  0  0  0  0  0  0  0
    2.1132    2.1869    2.6939 H   0  0  0  0  0  0  0  0  0  0  0  0
    1.6614    3.5897    1.7283 H   0  0  0  0  0  0  0  0  0  0  0  0
    1.5515    3.6604    3.4929 H   0  0  0  0  0  0  0  0  0  0  0  0
    4.4081    3.3216    1.5391 C   0  0  0  0  0  0  0  0  0  0  0  0
    5.4292    3.6844    1.6365 H   0  0  0  0  0  0  0  0  0  0  0  0
    3.9939    3.7152    0.6150 H   0  0  0  0  0  0  0  0  0  0  0  0
    4.4238    2.2356    1.4780 H   0  0  0  0  0  0  0  0  0  0  0  0
    6.3345    6.5252    3.3211 I   0  0  0  0  0  0  0  0  0  0  0  0
    4.9872    3.4821    5.9615 N   0  0  0  0  0  0  0  0  0  0  0  0
    4.1707    3.3898    3.9746 N   0  0  0  0  0  0  0  0  0  0  0  0
    4.0914    8.2331    4.9680 C   0  0  0  0  0  0  0  0  0  0  0  0
    3.6949   10.3236    4.2946 C   0  0  0  0  0  0  0  0  0  0  0  0
    3.3594   11.1018    3.6409 H   0  0  0  0  0  0  0  0  0  0  0  0
    4.2009   10.3786    5.5460 C   0  0  0  0  0  0  0  0  0  0  0  0
    4.4012   11.2228    6.1719 H   0  0  0  0  0  0  0  0  0  0  0  0
    3.2181    8.4873    2.7041 C   0  0  0  0  0  0  0  0  0  0  0  0
    2.4579    7.3216    2.6458 C   0  0  0  0  0  0  0  0  0  0  0  0
    2.1190    6.8363    3.5627 H   0  0  0  0  0  0  0  0  0  0  0  0
    2.0702    6.8269    1.4114 C   0  0  0  0  0  0  0  0  0  0  0  0
    1.4590    5.9383    1.3626 H   0  0  0  0  0  0  0  0  0  0  0  0
    2.4486    7.4719    0.2464 C   0  0  0  0  0  0  0  0  0  0  0  0
    2.1484    7.0757   -0.7119 H   0  0  0  0  0  0  0  0  0  0  0  0
    3.2113    8.6258    0.3110 C   0  0  0  0  0  0  0  0  0  0  0  0
    3.5151    9.1271   -0.5952 H   0  0  0  0  0  0  0  0  0  0  0  0
    3.5955    9.1383    1.5359 C   0  0  0  0  0  0  0  0  0  0  0  0
    4.2086   10.0254    1.5891 H   0  0  0  0  0  0  0  0  0  0  0  0
    5.0483    8.6830    7.1949 C   0  0  0  0  0  0  0  0  0  0  0  0
    5.0604    7.5770    7.1871 H   0  0  0  0  0  0  0  0  0  0  0  0
    6.4829    9.2027    7.2583 C   0  0  0  0  0  0  0  0  0  0  0  0
    6.5009   10.2901    7.2199 H   0  0  0  0  0  0  0  0  0  0  0  0
    6.9528    8.8872    8.1856 H   0  0  0  0  0  0  0  0  0  0  0  0
    7.0625    8.8165    6.4210 H   0  0  0  0  0  0  0  0  0  0  0  0
    4.2060    9.1556    8.3750 C   0  0  0  0  0  0  0  0  0  0  0  0
    3.1850    8.7928    8.2776 H   0  0  0  0  0  0  0  0  0  0  0  0
    4.6203    8.7619    9.2991 H   0  0  0  0  0  0  0  0  0  0  0  0
    4.1904   10.2416    8.4361 H   0  0  0  0  0  0  0  0  0  0  0  0
    2.2796    5.9511    6.5931 I   0  0  0  0  0  0  0  0  0  0  0  0
    3.6269    8.9949    3.9526 N   0  0  0  0  0  0  0  0  0  0  0  0
    4.4433    9.0872    5.9395 N   0  0  0  0  0  0  0  0  0  0  0  0
  1 31  2  0  0  0  0
  1 57  1  0  0  0  0
  2  1  1  1  0  0  0
  2 29  1  0  0  0  0
  3 29  1  0  0  0  0
  3  4  1  0  0  0  0
  5  3  2  0  0  0  0
  6  5  1  0  0  0  0
  7  8  2  0  0  0  0
  7 16  1  0  0  0  0
  8 10  1  0  0  0  0
  9  8  1  0  0  0  0
 10 11  1  0  0  0  0
 10 12  2  0  0  0  0
 12 13  1  0  0  0  0
 14 12  1  0  0  0  0
 14 15  1  0  0  0  0
 16 14  2  0  0  0  0
 17 16  1  0  0  0  0
 18 19  1  0  0  0  0
 18 30  1  0  0  0  0
 20 21  1  0  0  0  0
 20 18  1  0  0  0  0
 20 23  1  0  0  0  0
 22 20  1  0  0  0  0
 24 25  1  0  0  0  0
 24 18  1  0  0  0  0
 26 24  1  0  0  0  0
 27 24  1  0  0  0  0
 28  1  1  0  0  0  0
 29  7  1  0  0  0  0
 30  5  1  0  0  0  0
 30  2  1  0  0  0  0
 31 59  1  0  0  0  0
 32 34  2  0  0  0  0
 33 32  1  0  0  0  0
 34 59  1  0  0  0  0
 34 35  1  0  0  0  0
 36 58  1  0  0  0  0
 37 36  1  0  0  0  0
 37 38  1  0  0  0  0
 39 37  2  0  0  0  0
 40 39  1  0  0  0  0
 41 43  2  0  0  0  0
 41 39  1  0  0  0  0
 42 41  1  0  0  0  0
 43 45  1  0  0  0  0
 44 43  1  0  0  0  0
 45 46  1  0  0  0  0
 45 36  2  0  0  0  0
 47 49  1  0  0  0  0
 47 53  1  0  0  0  0
 48 47  1  0  0  0  0
 49 51  1  0  0  0  0
 50 49  1  0  0  0  0
 52 49  1  0  0  0  0
 53 56  1  0  0  0  0
 53 55  1  0  0  0  0
 54 53  1  0  0  0  0
 58 32  1  0  0  0  0
 58 31  1  0  0  0  0
 59 47  1  0  0  0  0
M  END
$$$$
