CSD_code = OJIWUA | q = 1 | S = 0 | Stoichiometry = C13H13ClN5Pt(1+) | MND = 4
 OpenBabel04212202083D

 33 37  0  0  0  0  0  0  0  0999 V2000
    5.2293    4.8713   -2.5457 C   0  0  0  0  0  0  0  0  0  0  0  0
    4.9800    5.4281   -3.4453 H   0  0  0  0  0  0  0  0  0  0  0  0
    5.6852    5.5412   -1.8139 H   0  0  0  0  0  0  0  0  0  0  0  0
    4.3189    4.4632   -2.1021 H   0  0  0  0  0  0  0  0  0  0  0  0
    6.6332    3.5244   -4.0896 C   0  0  0  0  0  3  0  0  0  0  0  0
    6.3780    4.0972   -4.9582 H   0  0  0  0  0  0  0  0  0  0  0  0
    7.4660    2.4303   -3.9691 C   0  0  0  0  0  0  0  0  0  0  0  0
    8.0199    1.9471   -4.7458 H   0  0  0  0  0  0  0  0  0  0  0  0
    7.4242    2.0959   -2.6136 C   0  0  0  0  0  0  0  0  0  0  0  0
    8.0538    1.0633   -1.8100 C   0  0  0  0  0  0  0  0  0  0  0  0
    8.9362    0.0664   -2.2125 C   0  0  0  0  0  0  0  0  0  0  0  0
    9.2384   -0.0138   -3.2431 H   0  0  0  0  0  0  0  0  0  0  0  0
    9.4143   -0.8170   -1.2525 C   0  0  0  0  0  0  0  0  0  0  0  0
   10.1001   -1.5976   -1.5411 H   0  0  0  0  0  0  0  0  0  0  0  0
    9.0199   -0.7059    0.0751 C   0  0  0  0  0  0  0  0  0  0  0  0
    9.3872   -1.3868    0.8244 H   0  0  0  0  0  0  0  0  0  0  0  0
    8.1350    0.3112    0.4173 C   0  0  0  0  0  0  0  0  0  0  0  0
    7.5814    0.6317    1.7209 C   0  0  0  0  0  0  0  0  0  0  0  0
    7.7193    0.0783    2.9959 C   0  0  0  0  0  0  0  0  0  0  0  0
    8.3135   -0.7630    3.2838 H   0  0  0  0  0  0  0  0  0  0  0  0
    6.9183    0.8557    3.8078 C   0  0  0  0  0  0  0  0  0  0  0  0
    6.7324    0.7795    4.8600 H   0  0  0  0  0  0  0  0  0  0  0  0
    5.4418    2.8273    3.4892 C   0  0  0  0  0  0  0  0  0  0  0  0
    5.8659    3.8147    3.2960 H   0  0  0  0  0  0  0  0  0  0  0  0
    5.2544    2.7122    4.5537 H   0  0  0  0  0  0  0  0  0  0  0  0
    4.5007    2.7557    2.9404 H   0  0  0  0  0  0  0  0  0  0  0  0
    5.0682    4.1871    0.5953 Cl  0  0  0  0  0  0  0  0  0  0  0  0
    6.4691    2.5569   -0.0058 Pt  0  0  2  0  0  0  0  0  0  0  0  0
    6.5997    2.9617   -1.9726 N   0  0  0  0  0  0  0  0  0  0  0  0
    6.1355    3.8113   -2.8786 N   0  0  0  0  0  0  0  0  0  0  0  0
    6.7341    1.6888    1.7900 N   0  0  0  0  0  0  0  0  0  0  0  0
    6.3475    1.8050    3.0530 N   0  0  0  0  0  0  0  0  0  0  0  0
    7.6884    1.1494   -0.5255 N   0  0  0  0  0  0  0  0  0  0  0  0
  1  4  1  0  0  0  0
  1  3  1  0  0  0  0
  2  1  1  0  0  0  0
  5  7  1  0  0  0  0
  5 30  1  0  0  0  0
  6  5  1  0  0  0  0
  7  9  2  0  0  0  0
  8  7  1  0  0  0  0
  9 29  1  0  0  0  0
  9 10  1  0  0  0  0
 10 33  1  0  0  0  0
 11 10  2  0  0  0  0
 11 13  1  0  0  0  0
 12 11  1  0  0  0  0
 13 15  2  0  0  0  0
 14 13  1  0  0  0  0
 15 17  1  0  0  0  0
 15 16  1  0  0  0  0
 17 18  2  0  0  0  0
 18 31  1  0  0  0  0
 18 19  1  0  0  0  0
 19 20  1  0  0  0  0
 19 21  2  0  0  0  0
 21 22  1  0  0  0  0
 23 25  1  0  0  0  0
 24 23  1  0  0  0  0
 26 23  1  0  0  0  0
 28 27  1  1  0  0  0
 28 31  1  0  0  0  0
 29 28  1  0  0  0  0
 30  1  1  0  0  0  0
 30 29  1  0  0  0  0
 31 32  1  0  0  0  0
 32 23  1  0  0  0  0
 32 21  1  0  0  0  0
 33 28  1  0  0  0  0
 33 17  1  0  0  0  0
M  END
$$$$
