CSD_code = OJIWEL | q = 1 | S = 0 | Stoichiometry = C25H15ClN3PtS2(1+) | MND = 4
 OpenBabel04212202083D

 47 54  0  0  1  0  0  0  0  0999 V2000
    4.9428    5.2597    9.3715 Pt  0  0  2  0  0  0  0  0  0  0  0  0
    4.8121    5.5183   11.5630 Cl  0  0  0  0  0  0  0  0  0  0  0  0
    7.8149    7.8693    7.2966 S   0  0  0  0  0  0  0  0  0  0  0  0
    2.2979    2.2002    7.6370 S   0  0  0  0  0  0  0  0  0  0  0  0
    5.0561    5.0354    7.4732 N   0  0  0  0  0  0  0  0  0  0  0  0
    6.3386    6.6440    8.9843 N   0  0  0  0  0  0  0  0  0  0  0  0
    3.5830    3.8040    9.1553 N   0  0  0  0  0  0  0  0  0  0  0  0
    5.9265    5.7950    6.7840 C   0  0  0  0  0  0  0  0  0  0  0  0
    6.0376    5.6475    5.4099 C   0  0  0  0  0  0  0  0  0  0  0  0
    6.7249    6.2562    4.8443 H   0  0  0  0  0  0  0  0  0  0  0  0
    5.2197    4.7130    4.7566 C   0  0  0  0  0  0  0  0  0  0  0  0
    4.3169    3.9455    5.5083 C   0  0  0  0  0  0  0  0  0  0  0  0
    3.6930    3.2120    5.0231 H   0  0  0  0  0  0  0  0  0  0  0  0
    4.2626    4.1241    6.8821 C   0  0  0  0  0  0  0  0  0  0  0  0
    6.6256    6.6923    7.6792 C   0  0  1  0  0  3  0  0  0  0  0  0
    7.9059    8.2910    8.9562 C   0  0  0  0  0  0  0  0  0  0  0  0
    8.5726    9.0604    9.2894 H   0  0  0  0  0  0  0  0  0  0  0  0
    7.0536    7.5383    9.7018 C   0  0  0  0  0  0  0  0  0  0  0  0
    6.9134    7.5995   10.7677 H   0  0  0  0  0  0  0  0  0  0  0  0
    3.4506    3.4499    7.8727 C   0  0  0  0  0  0  0  0  0  0  0  0
    2.0067    2.1742    9.3266 C   0  0  0  0  0  0  0  0  0  0  0  0
    1.2947    1.4943    9.7487 H   0  0  0  0  0  0  0  0  0  0  0  0
    2.7761    3.0912    9.9718 C   0  0  0  0  0  0  0  0  0  0  0  0
    2.7893    3.2811   11.0317 H   0  0  0  0  0  0  0  0  0  0  0  0
    5.3078    4.5395    3.3035 C   0  0  0  0  0  0  0  0  0  0  0  0
    4.1703    4.7742    2.5065 C   0  0  0  0  0  0  0  0  0  0  0  0
    2.9400    5.2397    3.0360 C   0  0  0  0  0  0  0  0  0  0  0  0
    2.8578    5.4263    4.0973 H   0  0  0  0  0  0  0  0  0  0  0  0
    1.8674    5.4741    2.2276 C   0  0  0  0  0  0  0  0  0  0  0  0
    0.9395    5.8284    2.6505 H   0  0  0  0  0  0  0  0  0  0  0  0
    1.9549    5.2706    0.8365 C   0  0  0  0  0  0  0  0  0  0  0  0
    1.0917    5.4625    0.2187 H   0  0  0  0  0  0  0  0  0  0  0  0
    3.1262    4.8519    0.2839 C   0  0  0  0  0  0  0  0  0  0  0  0
    3.2160    4.7109   -0.7827 H   0  0  0  0  0  0  0  0  0  0  0  0
    4.2656    4.6010    1.0904 C   0  0  0  0  0  0  0  0  0  0  0  0
    5.4756    4.2063    0.5276 C   0  0  0  0  0  0  0  0  0  0  0  0
    5.5403    4.0777   -0.5431 H   0  0  0  0  0  0  0  0  0  0  0  0
    6.6044    3.9728    1.3072 C   0  0  0  0  0  0  0  0  0  0  0  0
    7.8277    3.5549    0.7237 C   0  0  0  0  0  0  0  0  0  0  0  0
    7.8672    3.4390   -0.3488 H   0  0  0  0  0  0  0  0  0  0  0  0
    8.9190    3.2949    1.4946 C   0  0  0  0  0  0  0  0  0  0  0  0
    9.8466    2.9747    1.0465 H   0  0  0  0  0  0  0  0  0  0  0  0
    8.8378    3.4266    2.8947 C   0  0  0  0  0  0  0  0  0  0  0  0
    9.7039    3.1952    3.4963 H   0  0  0  0  0  0  0  0  0  0  0  0
    7.6804    3.8299    3.4917 C   0  0  0  0  0  0  0  0  0  0  0  0
    7.6335    3.9002    4.5692 H   0  0  0  0  0  0  0  0  0  0  0  0
    6.5284    4.1399    2.7252 C   0  0  0  0  0  0  0  0  0  0  0  0
  1  2  1  1  0  0  0
  3 15  1  0  0  0  0
  3 16  1  0  0  0  0
  4 20  1  0  0  0  0
  4 21  1  0  0  0  0
  5  1  1  0  0  0  0
  6  1  1  0  0  0  0
  6 18  1  0  0  0  0
  7  1  1  0  0  0  0
  7 23  1  0  0  0  0
  8  5  1  0  0  0  0
  9  8  2  0  0  0  0
 10  9  1  0  0  0  0
 11  9  1  0  0  0  0
 11 12  2  0  0  0  0
 12 14  1  0  0  0  0
 13 12  1  0  0  0  0
 14  5  1  0  0  0  0
 14 20  2  0  0  0  0
 15  8  1  6  0  0  0
 15  6  1  0  0  0  0
 16 17  1  0  0  0  0
 16 18  2  0  0  0  0
 18 19  1  0  0  0  0
 20  7  1  0  0  0  0
 21 22  1  0  0  0  0
 21 23  2  0  0  0  0
 23 24  1  0  0  0  0
 25 11  1  0  0  0  0
 26 27  1  0  0  0  0
 26 25  2  0  0  0  0
 27 28  1  0  0  0  0
 29 30  1  0  0  0  0
 29 27  2  0  0  0  0
 31 29  1  0  0  0  0
 32 31  1  0  0  0  0
 33 31  2  0  0  0  0
 33 35  1  0  0  0  0
 34 33  1  0  0  0  0
 35 26  1  0  0  0  0
 36 35  2  0  0  0  0
 36 38  1  0  0  0  0
 37 36  1  0  0  0  0
 38 47  1  0  0  0  0
 39 38  2  0  0  0  0
 39 41  1  0  0  0  0
 40 39  1  0  0  0  0
 41 43  2  0  0  0  0
 42 41  1  0  0  0  0
 43 45  1  0  0  0  0
 43 44  1  0  0  0  0
 45 46  1  0  0  0  0
 47 25  1  0  0  0  0
 47 45  2  0  0  0  0
M  END
$$$$
