CSD_code = OJIXEL | q = 1 | S = 0 | Stoichiometry = C11H9ClN5Pt(1+) | MND = 4
 OpenBabel04212202083D

 27 31  0  0  1  0  0  0  0  0999 V2000
    3.0261    1.6746   13.4202 Pt  0  0  1  0  0  0  0  0  0  0  0  0
    0.9614    1.4226   12.6967 Cl  0  0  0  0  0  0  0  0  0  0  0  0
    2.7610    1.0610   15.3011 N   0  0  0  0  0  0  0  0  0  0  0  0
    3.6846    0.6944   17.2584 N   0  0  0  0  0  0  0  0  0  0  0  0
    4.3643    0.6307   18.0007 H   0  0  0  0  0  0  0  0  0  0  0  0
    4.8338    1.8951   14.0532 N   0  0  0  0  0  0  0  0  0  0  0  0
    3.8514    2.3575   11.7357 N   0  0  0  0  0  0  0  0  0  0  0  0
    5.6775    3.0630   10.7427 N   0  0  0  0  0  0  0  0  0  0  0  0
    6.6357    3.3289   10.5752 H   0  0  0  0  0  0  0  0  0  0  0  0
    1.8020    0.6000   16.1360 C   0  0  0  0  0  0  0  0  0  0  0  0
    0.7883    0.4664   15.8127 H   0  0  0  0  0  0  0  0  0  0  0  0
    2.3685    0.3679   17.3619 C   0  0  0  0  0  0  0  0  0  0  0  0
    1.9357    0.0036   18.2705 H   0  0  0  0  0  0  0  0  0  0  0  0
    3.9119    1.1158   15.9967 C   0  0  1  0  0  3  0  0  0  0  0  0
    5.1114    1.5803   15.3316 C   0  0  0  0  0  0  0  0  0  0  0  0
    6.4084    1.7277   15.8137 C   0  0  0  0  0  0  0  0  0  0  0  0
    6.6556    1.4817   16.8332 H   0  0  0  0  0  0  0  0  0  0  0  0
    7.3853    2.2016   14.9449 C   0  0  0  0  0  0  0  0  0  0  0  0
    8.3966    2.3231   15.2985 H   0  0  0  0  0  0  0  0  0  0  0  0
    7.0772    2.5214   13.6271 C   0  0  0  0  0  0  0  0  0  0  0  0
    7.8402    2.8874   12.9602 H   0  0  0  0  0  0  0  0  0  0  0  0
    5.7644    2.3555   13.1972 C   0  0  0  0  0  0  0  0  0  0  0  0
    5.1639    2.6032   11.9029 C   0  0  0  0  0  0  0  0  0  0  0  0
    4.6729    3.1085    9.8272 C   0  0  0  0  0  0  0  0  0  0  0  0
    4.8257    3.4411    8.8213 H   0  0  0  0  0  0  0  0  0  0  0  0
    3.5389    2.6665   10.4564 C   0  0  0  0  0  0  0  0  0  0  0  0
    2.5426    2.5548   10.0757 H   0  0  0  0  0  0  0  0  0  0  0  0
  1  2  1  6  0  0  0
  1  6  1  0  0  0  0
  1  3  1  0  0  0  0
  3 14  1  0  0  0  0
  3 10  1  0  0  0  0
  4 12  1  0  0  0  0
  4  5  1  0  0  0  0
  6 15  1  0  0  0  0
  7 23  1  0  0  0  0
  7  1  1  0  0  0  0
  8 23  1  0  0  0  0
  9  8  1  0  0  0  0
 10 12  2  0  0  0  0
 11 10  1  0  0  0  0
 12 13  1  0  0  0  0
 14 15  1  6  0  0  0
 14  4  1  0  0  0  0
 15 16  2  0  0  0  0
 16 17  1  0  0  0  0
 18 19  1  0  0  0  0
 18 16  1  0  0  0  0
 20 18  2  0  0  0  0
 21 20  1  0  0  0  0
 22 20  1  0  0  0  0
 22  6  1  0  0  0  0
 23 22  2  0  0  0  0
 24 26  2  0  0  0  0
 24  8  1  0  0  0  0
 25 24  1  0  0  0  0
 26  7  1  0  0  0  0
 27 26  1  0  0  0  0
M  END
$$$$
