CSD_code = OJIYOV | q = 0 | S = 0 | Stoichiometry = C12H12ClN3OPt | MND = 4
 OpenBabel04212202083D

 30 33  0  0  1  0  0  0  0  0999 V2000
    4.4991    1.2444    2.2515 Pt  0  0  2  0  0  0  0  0  0  0  0  0
    2.9068    0.4156    0.8607 Cl  0  0  0  0  0  0  0  0  0  0  0  0
    8.2231    1.8855    3.7054 O   0  0  0  0  0  0  0  0  0  0  0  0
    3.3634    2.3581    3.3962 N   0  0  0  0  0  0  0  0  0  0  0  0
    6.0411    0.3087    1.2629 N   0  0  0  0  0  4  0  0  0  0  0  0
    5.9467    1.9237    3.3897 N   0  0  0  0  0  0  0  0  0  0  0  0
    2.0557    2.5254    3.3669 C   0  0  0  0  0  0  0  0  0  0  0  0
    1.5078    1.9536    2.6289 H   0  0  0  0  0  0  0  0  0  0  0  0
    1.3934    3.3982    4.2389 C   0  0  0  0  0  0  0  0  0  0  0  0
    0.3218    3.4950    4.1689 H   0  0  0  0  0  0  0  0  0  0  0  0
    2.1127    4.1118    5.1609 C   0  0  0  0  0  0  0  0  0  0  0  0
    1.6272    4.7921    5.8448 H   0  0  0  0  0  0  0  0  0  0  0  0
    3.5139    3.9565    5.2208 C   0  0  0  0  0  0  0  0  0  0  0  0
    4.3433    4.6402    6.1302 C   0  0  0  0  0  0  0  0  0  0  0  0
    3.8938    5.3291    6.8287 H   0  0  0  0  0  0  0  0  0  0  0  0
    5.6994    4.4275    6.1223 C   0  0  0  0  0  0  0  0  0  0  0  0
    6.3268    4.9566    6.8239 H   0  0  0  0  0  0  0  0  0  0  0  0
    6.2997    3.5393    5.2277 C   0  0  0  0  0  0  0  0  0  0  0  0
    7.3660    3.3834    5.2377 H   0  0  0  0  0  0  0  0  0  0  0  0
    5.5233    2.8456    4.3156 C   0  0  0  0  0  0  0  0  0  0  0  0
    4.1107    3.0544    4.3052 C   0  0  1  0  0  3  0  0  0  0  0  0
    7.2356    0.3228    2.1453 C   0  0  1  0  0  0  0  0  0  0  0  0
    7.2087   -0.5872    2.7584 H   0  0  0  0  0  0  0  0  0  0  0  0
    8.5275    0.3536    1.3385 C   0  0  0  0  0  0  0  0  0  0  0  0
    9.3670    0.4536    2.0211 H   0  0  0  0  0  0  0  0  0  0  0  0
    8.5356    1.2136    0.6705 H   0  0  0  0  0  0  0  0  0  0  0  0
    8.6508   -0.5553    0.7530 H   0  0  0  0  0  0  0  0  0  0  0  0
    7.2004    1.4979    3.1707 C   0  0  0  0  0  0  0  0  0  0  0  0
    5.8512   -0.6342    0.9168 H   0  0  0  0  0  0  0  0  0  0  0  0
    6.2242    0.8941    0.4406 H   0  0  0  0  0  0  0  0  0  0  0  0
  1  2  1  1  0  0  0
  1  6  1  0  0  0  0
  1  4  1  0  0  0  0
  4 21  1  0  0  0  0
  5 22  1  0  0  0  0
  5  1  1  0  0  0  0
  6 20  1  0  0  0  0
  7  4  1  0  0  0  0
  7  9  2  0  0  0  0
  8  7  1  0  0  0  0
  9 11  1  0  0  0  0
 10  9  1  0  0  0  0
 11 13  2  0  0  0  0
 11 12  1  0  0  0  0
 13 14  1  0  0  0  0
 14 15  1  0  0  0  0
 16 14  2  0  0  0  0
 16 17  1  0  0  0  0
 18 19  1  0  0  0  0
 18 16  1  0  0  0  0
 20 18  2  0  0  0  0
 21 20  1  1  0  0  0
 21 13  1  0  0  0  0
 22 23  1  1  0  0  0
 22 28  1  0  0  0  0
 24 25  1  0  0  0  0
 24 22  1  0  0  0  0
 26 24  1  0  0  0  0
 27 24  1  0  0  0  0
 28  6  1  0  0  0  0
 28  3  2  0  0  0  0
 29  5  1  0  0  0  0
 30  5  1  0  0  0  0
M  END
$$$$
