CSD_code = OJIYUB | q = 0 | S = 0 | Stoichiometry = C19H24ClN3O3PtS | MND = 4
 OpenBabel04212202083D

 52 55  0  0  1  0  0  0  0  0999 V2000
   -0.1456   12.0679   10.9585 Pt  0  0  2  0  0  0  0  0  0  0  0  0
   -2.0093   13.2394   11.5309 Cl  0  0  0  0  0  0  0  0  0  0  0  0
   -0.0257   11.5563   13.2347 S   0  0  1  0  0  3  0  0  0  0  0  0
    2.9840    9.3098   10.1857 O   0  0  0  0  0  0  0  0  0  0  0  0
   -0.5034    7.0493   12.6259 O   0  0  0  0  0  0  0  0  0  0  0  0
    0.7579    5.5706   11.4258 O   0  0  0  0  0  0  0  0  0  0  0  0
   -0.1063   12.7689    9.0898 N   0  0  0  0  0  0  0  0  0  0  0  0
    1.5243   11.0760   10.2869 N   0  0  0  0  0  0  0  0  0  0  0  0
    1.2459    7.7172   11.3647 N   0  0  0  0  0  0  0  0  0  0  0  0
    2.0307    7.4492   10.7859 H   0  0  0  0  0  0  0  0  0  0  0  0
   -1.0180   13.5008    8.4821 C   0  0  0  0  0  0  0  0  0  0  0  0
   -1.9759   13.6049    8.9737 H   0  0  0  0  0  0  0  0  0  0  0  0
   -0.7656   14.1436    7.2642 C   0  0  0  0  0  0  0  0  0  0  0  0
   -1.5474   14.7316    6.8110 H   0  0  0  0  0  0  0  0  0  0  0  0
    0.4680   14.0274    6.6798 C   0  0  0  0  0  0  0  0  0  0  0  0
    0.6977   14.5293    5.7516 H   0  0  0  0  0  0  0  0  0  0  0  0
    1.4566   13.2334    7.2967 C   0  0  0  0  0  0  0  0  0  0  0  0
    2.7483   13.0368    6.7739 C   0  0  0  0  0  3  0  0  0  0  0  0
    3.0191   13.5258    5.8508 H   0  0  0  0  0  0  0  0  0  0  0  0
    3.6365   12.2304    7.4371 C   0  0  0  0  0  0  0  0  0  0  0  0
    4.6294   12.0863    7.0378 H   0  0  0  0  0  0  0  0  0  0  0  0
    3.2930   11.5680    8.6190 C   0  0  0  0  0  0  0  0  0  0  0  0
    4.0074   10.9167    9.0920 H   0  0  0  0  0  0  0  0  0  0  0  0
    2.0330   11.7260    9.1704 C   0  0  0  0  0  0  0  0  0  0  0  0
    1.1147   12.5979    8.5171 C   0  0  0  0  0  0  0  0  0  0  0  0
    1.9926    9.8654   10.6371 C   0  0  0  0  0  0  0  0  0  0  0  0
    1.1423    9.1176   11.6801 C   0  0  2  0  0  0  0  0  0  0  0  0
    0.0840    9.4169   11.6135 H   0  0  0  0  0  0  0  0  0  0  0  0
    1.6607    9.3803   13.1055 C   0  0  0  0  0  0  0  0  0  0  0  0
    1.0246    8.8222   13.7948 H   0  0  0  0  0  0  0  0  0  0  0  0
    2.6804    8.9946   13.1804 H   0  0  0  0  0  0  0  0  0  0  0  0
    1.6540   10.8542   13.4647 C   0  0  0  0  0  0  0  0  0  0  0  0
    2.3518   11.4177   12.8439 H   0  0  0  0  0  0  0  0  0  0  0  0
    1.9072   10.9918   14.5169 H   0  0  0  0  0  0  0  0  0  0  0  0
    0.3266   13.2280   13.8644 C   0  0  0  0  0  0  0  0  0  0  0  0
    0.5750   13.1509   14.9197 H   0  0  0  0  0  0  0  0  0  0  0  0
   -0.5791   13.8140   13.7351 H   0  0  0  0  0  0  0  0  0  0  0  0
    1.1455   13.6782   13.3080 H   0  0  0  0  0  0  0  0  0  0  0  0
    0.4096    6.7885   11.8768 C   0  0  0  0  0  0  0  0  0  0  0  0
   -0.0096    4.4040   11.8030 C   0  0  0  0  0  0  0  0  0  0  0  0
    0.0355    4.2023   13.3177 C   0  0  0  0  0  0  0  0  0  0  0  0
   -0.4591    5.0298   13.8184 H   0  0  0  0  0  0  0  0  0  0  0  0
    1.0682    4.1511   13.6563 H   0  0  0  0  0  0  0  0  0  0  0  0
   -0.4688    3.2764   13.5794 H   0  0  0  0  0  0  0  0  0  0  0  0
    0.6949    3.2500   11.0882 C   0  0  0  0  0  0  0  0  0  0  0  0
    1.7264    3.1799   11.4229 H   0  0  0  0  0  0  0  0  0  0  0  0
    0.6922    3.4210   10.0152 H   0  0  0  0  0  0  0  0  0  0  0  0
    0.1868    2.3142   11.3014 H   0  0  0  0  0  0  0  0  0  0  0  0
   -1.4510    4.5369   11.3119 C   0  0  0  0  0  0  0  0  0  0  0  0
   -1.9420    5.3640   11.8167 H   0  0  0  0  0  0  0  0  0  0  0  0
   -1.9962    3.6204   11.5190 H   0  0  0  0  0  0  0  0  0  0  0  0
   -1.4635    4.7221   10.2400 H   0  0  0  0  0  0  0  0  0  0  0  0
  1  2  1  6  0  0  0
  1  3  1  0  0  0  0
  3 32  1  0  0  0  0
  3 35  1  1  0  0  0
  4 26  2  0  0  0  0
  6 40  1  0  0  0  0
  6 39  1  0  0  0  0
  7  1  1  0  0  0  0
  8 26  1  0  0  0  0
  8  1  1  0  0  0  0
  9 27  1  0  0  0  0
  9 39  1  0  0  0  0
 10  9  1  0  0  0  0
 11 12  1  0  0  0  0
 11  7  1  0  0  0  0
 13 11  2  0  0  0  0
 14 13  1  0  0  0  0
 15 13  1  0  0  0  0
 15 17  2  0  0  0  0
 16 15  1  0  0  0  0
 17 25  1  0  0  0  0
 18 17  1  0  0  0  0
 18 20  1  0  0  0  0
 19 18  1  0  0  0  0
 20 22  2  0  0  0  0
 21 20  1  0  0  0  0
 22 23  1  0  0  0  0
 22 24  1  0  0  0  0
 24  8  1  0  0  0  0
 25  7  1  0  0  0  0
 25 24  2  0  0  0  0
 26 27  1  0  0  0  0
 27 28  1  6  0  0  0
 27 29  1  0  0  0  0
 29 31  1  0  0  0  0
 29 32  1  0  0  0  0
 29 30  1  0  0  0  0
 32 34  1  0  0  0  0
 33 32  1  0  0  0  0
 35 36  1  0  0  0  0
 37 35  1  0  0  0  0
 38 35  1  0  0  0  0
 39  5  2  0  0  0  0
 40 41  1  0  0  0  0
 41 44  1  0  0  0  0
 41 43  1  0  0  0  0
 41 42  1  0  0  0  0
 45 48  1  0  0  0  0
 45 46  1  0  0  0  0
 45 40  1  0  0  0  0
 47 45  1  0  0  0  0
 49 51  1  0  0  0  0
 49 40  1  0  0  0  0
 49 50  1  0  0  0  0
 52 49  1  0  0  0  0
M  END
$$$$
