CSD_code = OJOFID | q = 0 | S = 0 | Stoichiometry = C21H24CuFN2 | MND = 2
 OpenBabel04212202083D

 49 51  0  0  1  0  0  0  0  0999 V2000
    7.2771    0.0001    3.3822 Cu  0  0  0  0  0  0  0  0  0  0  0  0
    7.2772    0.0004    5.0837 F   0  0  0  0  0  0  0  0  0  0  0  0
    6.4589    0.6912    0.6748 N   0  0  0  0  0  0  0  0  0  0  0  0
    7.2770    0.0000    1.5013 C   0  0  1  0  0  3  0  0  0  0  0  0
    6.7606    0.4369   -0.6363 C   0  0  0  0  0  0  0  0  0  0  0  0
    5.4265    1.5673    1.1037 C   0  0  0  0  0  0  0  0  0  0  0  0
    5.7060    2.9245    1.2531 C   0  0  0  0  0  0  0  0  0  0  0  0
    4.6802    3.7675    1.6497 C   0  0  0  0  0  0  0  0  0  0  0  0
    3.4026    3.2855    1.8992 C   0  0  0  0  0  0  0  0  0  0  0  0
    3.1578    1.9272    1.7509 C   0  0  0  0  0  0  0  0  0  0  0  0
    4.1564    1.0515    1.3555 C   0  0  0  0  0  0  0  0  0  0  0  0
    7.0930    3.4365    1.0125 C   0  0  0  0  0  0  0  0  0  0  0  0
    2.3154    4.2098    2.3536 C   0  0  0  0  0  0  0  0  0  0  0  0
    3.9029   -0.4185    1.2234 C   0  0  0  0  0  0  0  0  0  0  0  0
    6.2217    0.8909   -1.4424 H   0  0  0  0  0  0  0  0  0  0  0  0
    4.8832    4.8215    1.7732 H   0  0  0  0  0  0  0  0  0  0  0  0
    2.1693    1.5411    1.9535 H   0  0  0  0  0  0  0  0  0  0  0  0
    7.7859    2.9579    1.7048 H   0  0  0  0  0  0  0  0  0  0  0  0
    7.1371    4.5114    1.1623 H   0  0  0  0  0  0  0  0  0  0  0  0
    7.4231    3.2111   -0.0013 H   0  0  0  0  0  0  0  0  0  0  0  0
    2.3143    4.2680    3.4423 H   0  0  0  0  0  0  0  0  0  0  0  0
    1.3400    3.8498    2.0353 H   0  0  0  0  0  0  0  0  0  0  0  0
    2.4688    5.2131    1.9633 H   0  0  0  0  0  0  0  0  0  0  0  0
    4.1735   -0.7751    0.2297 H   0  0  0  0  0  0  0  0  0  0  0  0
    2.8563   -0.6465    1.4043 H   0  0  0  0  0  0  0  0  0  0  0  0
    4.5098   -0.9594    1.9507 H   0  0  0  0  0  0  0  0  0  0  0  0
    8.0951   -0.6912    0.6748 N   0  0  0  0  0  0  0  0  0  0  0  0
    7.7934   -0.4369   -0.6363 C   0  0  0  0  0  0  0  0  0  0  0  0
    9.1275   -1.5673    1.1037 C   0  0  0  0  0  0  0  0  0  0  0  0
    8.8480   -2.9245    1.2531 C   0  0  0  0  0  0  0  0  0  0  0  0
    9.8738   -3.7675    1.6496 C   0  0  0  0  0  0  0  0  0  0  0  0
   11.1514   -3.2855    1.8992 C   0  0  0  0  0  0  0  0  0  0  0  0
   11.3962   -1.9272    1.7509 C   0  0  0  0  0  0  0  0  0  0  0  0
   10.3976   -1.0515    1.3555 C   0  0  0  0  0  0  0  0  0  0  0  0
    7.4610   -3.4365    1.0125 C   0  0  0  0  0  0  0  0  0  0  0  0
   12.2386   -4.2099    2.3536 C   0  0  0  0  0  0  0  0  0  0  0  0
   10.6510    0.4185    1.2235 C   0  0  0  0  0  0  0  0  0  0  0  0
    8.3323   -0.8910   -1.4424 H   0  0  0  0  0  0  0  0  0  0  0  0
    9.6708   -4.8215    1.7732 H   0  0  0  0  0  0  0  0  0  0  0  0
   12.3846   -1.5411    1.9535 H   0  0  0  0  0  0  0  0  0  0  0  0
    6.7680   -2.9579    1.7048 H   0  0  0  0  0  0  0  0  0  0  0  0
    7.4169   -4.5115    1.1623 H   0  0  0  0  0  0  0  0  0  0  0  0
    7.1309   -3.2111   -0.0014 H   0  0  0  0  0  0  0  0  0  0  0  0
   12.2396   -4.2681    3.4423 H   0  0  0  0  0  0  0  0  0  0  0  0
   13.2140   -3.8498    2.0354 H   0  0  0  0  0  0  0  0  0  0  0  0
   12.0852   -5.2131    1.9633 H   0  0  0  0  0  0  0  0  0  0  0  0
   10.3805    0.7751    0.2298 H   0  0  0  0  0  0  0  0  0  0  0  0
   11.6977    0.6465    1.4044 H   0  0  0  0  0  0  0  0  0  0  0  0
   10.0442    0.9594    1.9508 H   0  0  0  0  0  0  0  0  0  0  0  0
  1  2  1  0  0  0  0
  3  6  1  0  0  0  0
  3  4  1  0  0  0  0
  4  1  1  6  0  0  0
  5 28  2  0  0  0  0
  5  3  1  0  0  0  0
  6  7  2  0  0  0  0
  6 11  1  0  0  0  0
  7  8  1  0  0  0  0
  8 16  1  0  0  0  0
  8  9  2  0  0  0  0
  9 13  1  0  0  0  0
 10  9  1  0  0  0  0
 10 17  1  0  0  0  0
 11 10  2  0  0  0  0
 12 19  1  0  0  0  0
 12  7  1  0  0  0  0
 12 18  1  0  0  0  0
 13 21  1  0  0  0  0
 14 11  1  0  0  0  0
 14 25  1  0  0  0  0
 14 26  1  0  0  0  0
 15  5  1  0  0  0  0
 20 12  1  0  0  0  0
 22 13  1  0  0  0  0
 23 13  1  0  0  0  0
 24 14  1  0  0  0  0
 27 29  1  0  0  0  0
 27  4  1  0  0  0  0
 28 27  1  0  0  0  0
 29 30  2  0  0  0  0
 29 34  1  0  0  0  0
 30 31  1  0  0  0  0
 31 39  1  0  0  0  0
 31 32  2  0  0  0  0
 32 36  1  0  0  0  0
 33 32  1  0  0  0  0
 33 40  1  0  0  0  0
 34 33  2  0  0  0  0
 35 42  1  0  0  0  0
 35 30  1  0  0  0  0
 35 41  1  0  0  0  0
 36 44  1  0  0  0  0
 37 34  1  0  0  0  0
 37 48  1  0  0  0  0
 37 49  1  0  0  0  0
 38 28  1  0  0  0  0
 43 35  1  0  0  0  0
 45 36  1  0  0  0  0
 46 36  1  0  0  0  0
 47 37  1  0  0  0  0
M  END
$$$$
