CSD_code = OJOLEE | q = 0 | S = 0 | Stoichiometry = C8H22Cl2N2O2Pt | MND = 4
 OpenBabel04212202083D

 37 36  0  0  1  0  0  0  0  0999 V2000
   -2.1922    0.9445    7.2101 Pt  0  0  0  0  0  0  0  0  0  0  0  0
   -3.9750    1.4085    8.5142 Cl  0  0  0  0  0  0  0  0  0  0  0  0
   -1.0253   -0.0550    8.8699 Cl  0  0  0  0  0  0  0  0  0  0  0  0
   -2.7541   -0.6045    4.1571 O   0  0  0  0  0  0  0  0  0  0  0  0
   -2.5245   -1.5241    3.9950 H   0  0  0  0  0  0  0  0  0  0  0  0
   -1.0085    2.4813    3.9428 O   0  0  0  0  0  0  0  0  0  0  0  0
   -0.4485    2.1693    3.2237 H   0  0  0  0  0  0  0  0  0  0  0  0
   -3.3386    1.7368    5.6095 N   0  0  0  0  0  4  0  0  0  0  0  0
   -3.7527    2.6015    5.9549 H   0  0  0  0  0  0  0  0  0  0  0  0
   -2.7307    1.9536    4.8157 H   0  0  0  0  0  0  0  0  0  0  0  0
   -0.5408    0.4918    5.9286 N   0  0  0  0  0  4  0  0  0  0  0  0
   -0.1039   -0.2943    6.4123 H   0  0  0  0  0  0  0  0  0  0  0  0
   -0.9755    0.1633    5.0632 H   0  0  0  0  0  0  0  0  0  0  0  0
   -3.8741   -0.5822    5.0336 C   0  0  0  0  0  0  0  0  0  0  0  0
   -3.5748   -0.9309    6.0354 H   0  0  0  0  0  0  0  0  0  0  0  0
   -4.6699   -1.2332    4.6543 H   0  0  0  0  0  0  0  0  0  0  0  0
   -4.4121    0.8477    5.1560 C   0  0  2  0  0  0  0  0  0  0  0  0
   -5.1830    0.8344    5.9338 H   0  0  0  0  0  0  0  0  0  0  0  0
   -5.0097    1.3274    3.8284 C   0  0  0  0  0  0  0  0  0  0  0  0
   -4.2320    1.2969    3.0624 H   0  0  0  0  0  0  0  0  0  0  0  0
   -5.7984    0.6331    3.5345 H   0  0  0  0  0  0  0  0  0  0  0  0
   -5.5910    2.7335    3.9243 C   0  0  0  0  0  0  0  0  0  0  0  0
   -6.2954    2.7978    4.7506 H   0  0  0  0  0  0  0  0  0  0  0  0
   -6.1180    2.9830    3.0069 H   0  0  0  0  0  0  0  0  0  0  0  0
   -4.8111    3.4769    4.0720 H   0  0  0  0  0  0  0  0  0  0  0  0
   -0.2077    2.7574    5.0736 C   0  0  0  0  0  0  0  0  0  0  0  0
   -0.8860    3.1643    5.8302 H   0  0  0  0  0  0  0  0  0  0  0  0
    0.5479    3.5152    4.8345 H   0  0  0  0  0  0  0  0  0  0  0  0
    0.4762    1.5074    5.6437 C   0  0  1  0  0  0  0  0  0  0  0  0
    1.1865    1.1207    4.8917 H   0  0  0  0  0  0  0  0  0  0  0  0
    1.2395    1.8660    6.9195 C   0  0  0  0  0  0  0  0  0  0  0  0
    0.5089    2.1048    7.6964 H   0  0  0  0  0  0  0  0  0  0  0  0
    1.8426    2.7547    6.7260 H   0  0  0  0  0  0  0  0  0  0  0  0
    2.1331    0.7345    7.4148 C   0  0  0  0  0  0  0  0  0  0  0  0
    1.5330   -0.0744    7.8230 H   0  0  0  0  0  0  0  0  0  0  0  0
    2.7733    1.0974    8.2133 H   0  0  0  0  0  0  0  0  0  0  0  0
    2.7664    0.3534    6.6153 H   0  0  0  0  0  0  0  0  0  0  0  0
  1  2  1  0  0  0  0
  1  3  1  0  0  0  0
  4 14  1  0  0  0  0
  5  4  1  0  0  0  0
  6 26  1  0  0  0  0
  7  6  1  0  0  0  0
  8  9  1  0  0  0  0
  8  1  1  0  0  0  0
 10  8  1  0  0  0  0
 11 12  1  0  0  0  0
 11  1  1  0  0  0  0
 13 11  1  0  0  0  0
 14 17  1  0  0  0  0
 14 15  1  0  0  0  0
 16 14  1  0  0  0  0
 17  8  1  0  0  0  0
 17 18  1  1  0  0  0
 19 22  1  0  0  0  0
 19 17  1  0  0  0  0
 20 19  1  0  0  0  0
 21 19  1  0  0  0  0
 22 25  1  0  0  0  0
 22 23  1  0  0  0  0
 24 22  1  0  0  0  0
 26 29  1  0  0  0  0
 26 27  1  0  0  0  0
 28 26  1  0  0  0  0
 29 30  1  6  0  0  0
 29 11  1  0  0  0  0
 29 31  1  0  0  0  0
 31 34  1  0  0  0  0
 31 32  1  0  0  0  0
 33 31  1  0  0  0  0
 34 35  1  0  0  0  0
 34 36  1  0  0  0  0
 37 34  1  0  0  0  0
M  END
$$$$
