CSD_code = OJUHOQ | q = 0 | S = 0 | Stoichiometry = C8H10Cl2N4SZn | MND = 5
 OpenBabel04212202083D

 26 28  0  0  1  0  0  0  0  0999 V2000
    1.9520    1.9905    7.8720 Zn  0  0  0  0  0  0  0  0  0  0  0  0
    1.1141    3.0771    6.1476 Cl  0  0  0  0  0  0  0  0  0  0  0  0
    0.5808    1.2599    9.5595 Cl  0  0  0  0  0  0  0  0  0  0  0  0
    3.5021    3.6424    9.2894 S   0  0  0  0  0  0  0  0  0  0  0  0
    3.4191    0.7323    9.1564 N   0  0  1  0  0  0  0  0  0  0  0  0
    3.5416    1.2271   10.3868 N   0  0  0  0  0  0  0  0  0  0  0  0
    3.5694    3.0202   11.8292 N   0  0  0  0  0  0  0  0  0  0  0  0
    2.5462    0.1751    6.7688 N   0  0  0  0  0  0  0  0  0  0  0  0
    3.0802   -0.8170    7.4885 C   0  0  1  0  0  3  0  0  0  0  0  0
    3.5040    2.5765   10.5619 C   0  0  1  0  0  3  0  0  0  0  0  0
    3.2963   -0.5149    8.9055 C   0  0  2  0  0  3  0  0  0  0  0  0
    3.1398   -2.2286    5.5570 C   0  0  0  0  0  0  0  0  0  0  0  0
    3.3780   -3.1697    5.0840 H   0  0  0  0  0  0  0  0  0  0  0  0
    3.2565   -1.5843    9.9529 C   0  0  0  0  0  0  0  0  0  0  0  0
    2.4297   -1.3693   10.6330 H   0  0  0  0  0  0  0  0  0  0  0  0
    4.1849   -1.6083   10.5244 H   0  0  0  0  0  0  0  0  0  0  0  0
    3.0828   -2.5614    9.5171 H   0  0  0  0  0  0  0  0  0  0  0  0
    3.3935   -2.0435    6.9058 C   0  0  0  0  0  0  0  0  0  0  0  0
    3.8500   -2.8287    7.4873 H   0  0  0  0  0  0  0  0  0  0  0  0
    2.5815   -1.1908    4.8282 C   0  0  0  0  0  0  0  0  0  0  0  0
    2.3642   -1.2977    3.7780 H   0  0  0  0  0  0  0  0  0  0  0  0
    2.3041    0.0010    5.4826 C   0  0  0  0  0  0  0  0  0  0  0  0
    1.8678    0.8496    4.9734 H   0  0  0  0  0  0  0  0  0  0  0  0
    3.3404    0.6315   11.1904 H   0  0  0  0  0  0  0  0  0  0  0  0
    3.3740    2.4122   12.6083 H   0  0  0  0  0  0  0  0  0  0  0  0
    3.4571    4.0112   11.9662 H   0  0  0  0  0  0  0  0  0  0  0  0
  1  5  1  0  0  0  0
  1  4  1  0  0  0  0
  1  3  1  0  0  0  0
  2  1  1  0  0  0  0
  4 10  1  0  0  0  0
  5  6  1  1  0  0  0
  6 10  1  0  0  0  0
  6 24  1  0  0  0  0
  7 26  1  0  0  0  0
  7 25  1  0  0  0  0
  8  9  1  0  0  0  0
  8  1  1  0  0  0  0
  9 18  1  1  0  0  0
  9 11  1  0  0  0  0
 10  7  1  1  0  0  0
 11  5  1  0  0  0  0
 11 14  1  1  0  0  0
 12 18  2  0  0  0  0
 13 12  1  0  0  0  0
 14 16  1  0  0  0  0
 14 15  1  0  0  0  0
 17 14  1  0  0  0  0
 18 19  1  0  0  0  0
 20 22  2  0  0  0  0
 20 12  1  0  0  0  0
 21 20  1  0  0  0  0
 22  8  1  0  0  0  0
 23 22  1  0  0  0  0
M  END
$$$$
