CSD_code = OJUJIM | q = 0 | S = 0 | Stoichiometry = C8H10Cl2N4OZn | MND = 5
 OpenBabel04212202083D

 26 28  0  0  1  0  0  0  0  0999 V2000
    0.4935   11.6334    2.5289 Zn  0  0  0  0  0  0  0  0  0  0  0  0
    1.5072   12.9012    0.9181 Cl  0  0  0  0  0  0  0  0  0  0  0  0
    1.2999    9.8626    3.5081 Cl  0  0  0  0  0  0  0  0  0  0  0  0
   -1.1169   13.1569    2.2214 N   0  0  2  0  0  0  0  0  0  0  0  0
   -1.6578   11.7745   -0.9434 N   0  0  0  0  0  0  0  0  0  0  0  0
    0.3666   12.9338    4.3233 N   0  0  0  0  0  0  0  0  0  0  0  0
   -0.9595   10.8772    1.0079 O   0  0  0  0  0  0  0  0  0  0  0  0
   -1.5785   13.0639    0.9720 N   0  0  0  0  0  0  0  0  0  0  0  0
   -1.3404   11.8380    0.3655 C   0  0  2  0  0  3  0  0  0  0  0  0
   -0.4546   14.9722    5.2311 C   0  0  0  0  0  0  0  0  0  0  0  0
   -1.0496   15.8650    5.1227 H   0  0  0  0  0  0  0  0  0  0  0  0
   -0.3403   14.0600    4.1844 C   0  0  1  0  0  3  0  0  0  0  0  0
    0.9725   12.6692    5.4651 C   0  0  0  0  0  0  0  0  0  0  0  0
    1.5158   11.7347    5.4978 H   0  0  0  0  0  0  0  0  0  0  0  0
   -1.2855   15.6026    2.3241 C   0  0  0  0  0  0  0  0  0  0  0  0
   -0.7414   15.7441    1.3884 H   0  0  0  0  0  0  0  0  0  0  0  0
   -0.9836   16.3882    3.0076 H   0  0  0  0  0  0  0  0  0  0  0  0
   -2.3533   15.6944    2.1228 H   0  0  0  0  0  0  0  0  0  0  0  0
    0.9154   13.5291    6.5533 C   0  0  0  0  0  0  0  0  0  0  0  0
    1.4286   13.2837    7.4687 H   0  0  0  0  0  0  0  0  0  0  0  0
   -0.9619   14.2450    2.8683 C   0  0  1  0  0  3  0  0  0  0  0  0
    0.1845   14.6995    6.4297 C   0  0  0  0  0  0  0  0  0  0  0  0
    0.1072   15.3915    7.2551 H   0  0  0  0  0  0  0  0  0  0  0  0
   -1.7574   12.6069   -1.4979 H   0  0  0  0  0  0  0  0  0  0  0  0
   -1.3889   10.9304   -1.4230 H   0  0  0  0  0  0  0  0  0  0  0  0
   -1.6432   13.8992    0.3941 H   0  0  0  0  0  0  0  0  0  0  0  0
  1  3  1  0  0  0  0
  1  6  1  0  0  0  0
  2  1  1  0  0  0  0
  4  8  1  6  0  0  0
  4  1  1  0  0  0  0
  4 21  1  0  0  0  0
  6 13  1  0  0  0  0
  7  1  1  0  0  0  0
  9  5  1  1  0  0  0
  9  8  1  0  0  0  0
  9  7  1  0  0  0  0
 10 22  2  0  0  0  0
 11 10  1  0  0  0  0
 12  6  1  0  0  0  0
 12 10  1  6  0  0  0
 13 14  1  0  0  0  0
 13 19  2  0  0  0  0
 15 17  1  0  0  0  0
 16 15  1  0  0  0  0
 18 15  1  0  0  0  0
 19 20  1  0  0  0  0
 21 15  1  6  0  0  0
 21 12  1  0  0  0  0
 22 19  1  0  0  0  0
 22 23  1  0  0  0  0
 24  5  1  0  0  0  0
 25  5  1  0  0  0  0
 26  8  1  0  0  0  0
M  END
$$$$
