CSD_code = OJUQOA | q = 1 | S = 0 | Stoichiometry = C21H26ClN4Ni(1+) | MND = 4
 OpenBabel04212202083D

 53 58  0  0  1  0  0  0  0  0999 V2000
    2.1769   14.2081   20.7269 C   0  0  0  0  0  3  0  0  0  0  0  0
    1.3113   13.7441   21.1808 H   0  0  0  0  0  0  0  0  0  0  0  0
    2.4985   15.5247   21.0084 C   0  0  0  0  0  0  0  0  0  0  0  0
    1.8746   16.0956   21.6761 H   0  0  0  0  0  0  0  0  0  0  0  0
    3.6291   16.0780   20.4314 C   0  0  0  0  0  0  0  0  0  0  0  0
    3.9168   17.0966   20.6385 H   0  0  0  0  0  0  0  0  0  0  0  0
    4.3836   15.2937   19.5725 C   0  0  0  0  0  0  0  0  0  0  0  0
    5.2667   15.6914   19.0978 H   0  0  0  0  0  0  0  0  0  0  0  0
    4.0001   13.9836   19.3339 C   0  0  0  0  0  0  0  0  0  0  0  0
    4.7758   13.0927   18.3895 C   0  0  0  0  0  0  0  0  0  0  0  0
    5.6023   13.6457   17.9552 H   0  0  0  0  0  0  0  0  0  0  0  0
    5.1849   12.2479   18.9656 H   0  0  0  0  0  0  0  0  0  0  0  0
    2.8220   11.9247   17.7597 C   0  0  0  0  0  0  0  0  0  0  0  0
    4.1432   12.8073   15.9019 C   0  0  1  0  0  0  0  0  0  0  0  0
    3.1259   13.8656   15.4260 C   0  0  0  0  0  0  0  0  0  0  0  0
    2.9468   14.5980   16.2135 H   0  0  0  0  0  0  0  0  0  0  0  0
    3.5113   14.4040   14.5620 H   0  0  0  0  0  0  0  0  0  0  0  0
    1.8450   13.0823   15.0738 C   0  0  0  0  0  0  0  0  0  0  0  0
    0.9813   13.4414   15.6324 H   0  0  0  0  0  0  0  0  0  0  0  0
    1.6090   13.1597   14.0144 H   0  0  0  0  0  0  0  0  0  0  0  0
    2.1715   11.6319   15.4483 C   0  0  1  0  0  0  0  0  0  0  0  0
    1.5764   10.8998   14.9025 H   0  0  0  0  0  0  0  0  0  0  0  0
    3.6829   11.5065   15.1847 C   0  0  0  0  0  0  0  0  0  0  0  0
    5.5801   13.2036   15.6087 C   0  0  0  0  0  0  0  0  0  0  0  0
    6.2836   12.5032   16.0519 H   0  0  0  0  0  0  0  0  0  0  0  0
    5.7936   14.2095   15.9624 H   0  0  0  0  0  0  0  0  0  0  0  0
    5.7351   13.2045   14.5343 H   0  0  0  0  0  0  0  0  0  0  0  0
    3.9565   11.5271   13.6793 C   0  0  0  0  0  0  0  0  0  0  0  0
    3.3744   10.7464   13.1952 H   0  0  0  0  0  0  0  0  0  0  0  0
    5.0049   11.3236   13.4808 H   0  0  0  0  0  0  0  0  0  0  0  0
    3.6958   12.4754   13.2226 H   0  0  0  0  0  0  0  0  0  0  0  0
    4.2936   10.2260   15.7549 C   0  0  0  0  0  0  0  0  0  0  0  0
    3.8602    9.3626   15.2550 H   0  0  0  0  0  0  0  0  0  0  0  0
    4.1328   10.1124   16.8248 H   0  0  0  0  0  0  0  0  0  0  0  0
    5.3650   10.2139   15.5726 H   0  0  0  0  0  0  0  0  0  0  0  0
    0.8005   10.7206   17.3730 C   0  0  0  0  0  0  0  0  0  0  0  0
    0.1883   10.3963   16.5324 H   0  0  0  0  0  0  0  0  0  0  0  0
    0.1914   11.3718   18.0181 H   0  0  0  0  0  0  0  0  0  0  0  0
    1.2645    9.5327   18.1864 C   0  0  1  0  0  3  0  0  0  0  0  0
    0.8455    8.2441   17.8985 C   0  0  0  0  0  0  0  0  0  0  0  0
    0.1418    8.0732   17.0993 H   0  0  0  0  0  0  0  0  0  0  0  0
    1.3313    7.1873   18.6529 C   0  0  0  0  0  0  0  0  0  0  0  0
    1.0089    6.1777   18.4528 H   0  0  0  0  0  0  0  0  0  0  0  0
    2.2432    7.4588   19.6589 C   0  0  0  0  0  0  0  0  0  0  0  0
    2.6591    6.6708   20.2648 H   0  0  0  0  0  0  0  0  0  0  0  0
    2.6126    8.7719   19.8937 C   0  0  0  0  0  0  0  0  0  0  0  0
    3.3062    9.0149   20.6877 H   0  0  0  0  0  0  0  0  0  0  0  0
    2.2063   11.2713   21.6204 Cl  0  0  0  0  0  0  0  0  0  0  0  0
    2.5239   11.6113   19.6109 Ni  0  0  1  0  0  0  0  0  0  0  0  0
    2.9182   13.4495   19.9174 N   0  0  0  0  0  0  0  0  0  0  0  0
    3.8997   12.5776   17.3433 N   0  0  0  0  0  0  0  0  0  0  0  0
    1.9486   11.4626   16.8780 N   0  0  0  0  0  0  0  0  0  0  0  0
    2.1239    9.7898   19.1827 N   0  0  0  0  0  0  0  0  0  0  0  0
  1  3  1  0  0  0  0
  1  2  1  0  0  0  0
  3  4  1  0  0  0  0
  5  6  1  0  0  0  0
  5  3  2  0  0  0  0
  7  5  1  0  0  0  0
  8  7  1  0  0  0  0
  9  7  2  0  0  0  0
  9 50  1  0  0  0  0
 10 12  1  0  0  0  0
 10  9  1  0  0  0  0
 11 10  1  0  0  0  0
 13 49  2  0  0  0  0
 14 24  1  6  0  0  0
 14 51  1  0  0  0  0
 15 14  1  0  0  0  0
 15 16  1  0  0  0  0
 17 15  1  0  0  0  0
 18 15  1  0  0  0  0
 18 21  1  0  0  0  0
 18 19  1  0  0  0  0
 20 18  1  0  0  0  0
 21 22  1  6  0  0  0
 21 52  1  0  0  0  0
 23 21  1  0  0  0  0
 23 32  1  0  0  0  0
 23 14  1  0  0  0  0
 24 26  1  0  0  0  0
 24 25  1  0  0  0  0
 27 24  1  0  0  0  0
 28 23  1  0  0  0  0
 29 28  1  0  0  0  0
 30 28  1  0  0  0  0
 31 28  1  0  0  0  0
 32 34  1  0  0  0  0
 33 32  1  0  0  0  0
 35 32  1  0  0  0  0
 36 38  1  0  0  0  0
 36 39  1  0  0  0  0
 37 36  1  0  0  0  0
 39 40  1  6  0  0  0
 39 53  1  0  0  0  0
 40 42  2  0  0  0  0
 41 40  1  0  0  0  0
 42 44  1  0  0  0  0
 43 42  1  0  0  0  0
 44 46  2  0  0  0  0
 44 45  1  0  0  0  0
 46 47  1  0  0  0  0
 49 50  1  0  0  0  0
 49 48  1  1  0  0  0
 50  1  1  0  0  0  0
 51 13  1  0  0  0  0
 51 10  1  0  0  0  0
 52 36  1  0  0  0  0
 52 13  1  0  0  0  0
 53 49  1  0  0  0  0
 53 46  1  0  0  0  0
M  END
$$$$
