CSD_code = OKEMEW | q = 0 | S = 0 | Stoichiometry = C11H20BrO3P2ReS2 | MND = 6
 OpenBabel04212202083D

 40 38  0  0  0  0  0  0  0  0999 V2000
    6.2366    1.8950    8.3033 Re  0  0  0  0  0  0  0  0  0  0  0  0
    6.6363    3.3610    6.5384 Br  0  0  0  0  0  0  0  0  0  0  0  0
    3.9571    4.0614    9.1833 S   0  0  0  0  0  1  0  0  0  0  0  0
    3.6643    0.7134    6.5780 S   0  0  0  0  0  1  0  0  0  0  0  0
    2.2759    3.4234    8.4189 P   0  0  0  0  0  4  0  0  0  0  0  0
    2.5189    2.2924    6.4456 P   0  0  0  0  0  4  0  0  0  0  0  0
    7.0609    0.1550    8.0080 C   0  0  0  0  0  2  0  0  0  0  0  0
    7.2587    2.3238    9.9054 C   0  0  0  0  0  2  0  0  0  0  0  0
    4.8752    1.0671    9.4012 C   0  0  0  0  0  2  0  0  0  0  0  0
    1.0527    4.8003    8.1885 C   0  0  0  0  0  0  0  0  0  0  0  0
    0.2702    4.4766    7.4983 H   0  0  0  0  0  0  0  0  0  0  0  0
    0.6024    4.9302    9.1779 H   0  0  0  0  0  0  0  0  0  0  0  0
    1.6964    6.1004    7.7370 C   0  0  0  0  0  0  0  0  0  0  0  0
    0.9744    6.9124    7.7911 H   0  0  0  0  0  0  0  0  0  0  0  0
    2.0608    6.0330    6.7147 H   0  0  0  0  0  0  0  0  0  0  0  0
    2.5385    6.3426    8.3833 H   0  0  0  0  0  0  0  0  0  0  0  0
    1.3569    2.1730    9.4284 C   0  0  0  0  0  0  0  0  0  0  0  0
    0.3137    2.1726    9.0999 H   0  0  0  0  0  0  0  0  0  0  0  0
    1.7971    1.1940    9.2139 H   0  0  0  0  0  0  0  0  0  0  0  0
    1.4665    2.4870   10.9130 C   0  0  0  0  0  0  0  0  0  0  0  0
    0.9652    1.7174   11.4950 H   0  0  0  0  0  0  0  0  0  0  0  0
    1.0143    3.4496   11.1480 H   0  0  0  0  0  0  0  0  0  0  0  0
    2.5125    2.5168   11.2134 H   0  0  0  0  0  0  0  0  0  0  0  0
    0.8385    1.8860    5.7731 C   0  0  0  0  0  0  0  0  0  0  0  0
    0.1492    2.7013    6.0039 H   0  0  0  0  0  0  0  0  0  0  0  0
    0.9800    1.8564    4.6881 H   0  0  0  0  0  0  0  0  0  0  0  0
    0.3109    0.5486    6.2630 C   0  0  0  0  0  0  0  0  0  0  0  0
   -0.5782    0.2702    5.7013 H   0  0  0  0  0  0  0  0  0  0  0  0
    0.0536    0.5825    7.3189 H   0  0  0  0  0  0  0  0  0  0  0  0
    1.0658   -0.2230    6.1211 H   0  0  0  0  0  0  0  0  0  0  0  0
    3.1263    3.6453    5.3375 C   0  0  0  0  0  0  0  0  0  0  0  0
    2.2833    4.3024    5.1051 H   0  0  0  0  0  0  0  0  0  0  0  0
    3.8702    4.2189    5.9008 H   0  0  0  0  0  0  0  0  0  0  0  0
    3.7478    3.0756    4.0712 C   0  0  0  0  0  0  0  0  0  0  0  0
    4.1586    3.8783    3.4634 H   0  0  0  0  0  0  0  0  0  0  0  0
    3.0136    2.5303    3.4798 H   0  0  0  0  0  0  0  0  0  0  0  0
    4.5566    2.3914    4.3225 H   0  0  0  0  0  0  0  0  0  0  0  0
    7.5621   -0.8316    7.7110 O   0  0  0  0  0  1  0  0  0  0  0  0
    7.8813    2.6923   10.7940 O   0  0  0  0  0  1  0  0  0  0  0  0
    4.0306    0.6088   10.0293 O   0  0  0  0  0  1  0  0  0  0  0  0
  1  9  1  0  0  0  0
  1  8  1  0  0  0  0
  2  1  1  0  0  0  0
  5  3  1  0  0  0  0
  5 17  1  0  0  0  0
  6  4  1  0  0  0  0
  6  5  1  0  0  0  0
  7  1  1  0  0  0  0
  8 39  1  0  0  0  0
  9 40  1  0  0  0  0
 10  5  1  0  0  0  0
 10 12  1  0  0  0  0
 11 10  1  0  0  0  0
 13 14  1  0  0  0  0
 13 10  1  0  0  0  0
 13 16  1  0  0  0  0
 15 13  1  0  0  0  0
 17 20  1  0  0  0  0
 18 17  1  0  0  0  0
 19 17  1  0  0  0  0
 20 22  1  0  0  0  0
 20 23  1  0  0  0  0
 20 21  1  0  0  0  0
 24 25  1  0  0  0  0
 24 27  1  0  0  0  0
 24  6  1  0  0  0  0
 26 24  1  0  0  0  0
 27 29  1  0  0  0  0
 28 27  1  0  0  0  0
 30 27  1  0  0  0  0
 31 33  1  0  0  0  0
 31  6  1  0  0  0  0
 32 31  1  0  0  0  0
 34 37  1  0  0  0  0
 34 31  1  0  0  0  0
 35 34  1  0  0  0  0
 36 34  1  0  0  0  0
 38  7  1  0  0  0  0
M  END
$$$$
