CSD_code = OKENAU | q = 0 | S = 0 | Stoichiometry = C6H14ClPPd | MND = 5
 OpenBabel04212202083D

 23 20  0  0  0  0  0  0  0  0999 V2000
    9.0057    1.1789    8.9118 Pd  0  0  0  0  0  0  0  0  0  0  0  0
   10.4372    2.8465    9.5150 Cl  0  0  0  0  0 15  0  0  0  0  0  0
    7.7952    1.7193   10.7486 P   0  0  0  0  0  0  0  0  0  0  0  0
    7.8736   -0.2828    7.8794 C   0  0  0  0  0  3  0  0  0  0  0  0
    9.2334   -0.4050    7.5278 C   0  0  0  0  0  0  0  0  0  0  0  0
    9.9151    0.7193    7.0421 C   0  0  0  0  0  3  0  0  0  0  0  0
    8.7616    1.6702   12.2990 C   0  0  0  0  0  0  0  0  0  0  0  0
    7.2213    3.4548   10.7118 C   0  0  0  0  0  0  0  0  0  0  0  0
    6.2626    0.8191   11.2224 C   0  0  0  0  0  0  0  0  0  0  0  0
    7.2278    0.3504    7.2651 H   0  0  0  0  0  0  0  0  0  0  0  0
    7.3744   -1.1355    8.3271 H   0  0  0  0  0  0  0  0  0  0  0  0
    9.7949   -1.2855    7.8423 H   0  0  0  0  0  0  0  0  0  0  0  0
    9.3805    1.4429    6.4148 H   0  0  0  0  0  0  0  0  0  0  0  0
   10.9833    0.6538    6.8577 H   0  0  0  0  0  0  0  0  0  0  0  0
    9.0803    0.6467   12.4960 H   0  0  0  0  0  0  0  0  0  0  0  0
    8.1664    2.0386   13.1340 H   0  0  0  0  0  0  0  0  0  0  0  0
    9.6451    2.2928   12.1610 H   0  0  0  0  0  0  0  0  0  0  0  0
    8.0921    4.0901   10.5528 H   0  0  0  0  0  0  0  0  0  0  0  0
    6.7293    3.7173   11.6476 H   0  0  0  0  0  0  0  0  0  0  0  0
    6.5295    3.5912    9.8806 H   0  0  0  0  0  0  0  0  0  0  0  0
    5.5425    0.8734   10.4077 H   0  0  0  0  0  0  0  0  0  0  0  0
    5.8294    1.2581   12.1198 H   0  0  0  0  0  0  0  0  0  0  0  0
    6.5001   -0.2268   11.4090 H   0  0  0  0  0  0  0  0  0  0  0  0
  3  9  1  0  0  0  0
  3  7  1  0  0  0  0
  4 11  1  0  0  0  0
  5 12  1  0  0  0  0
  5  4  1  0  0  0  0
  5  1  1  0  0  0  0
  6  5  1  0  0  0  0
  7 15  1  0  0  0  0
  7 16  1  0  0  0  0
  8  3  1  0  0  0  0
  8 19  1  0  0  0  0
  9 23  1  0  0  0  0
  9 22  1  0  0  0  0
 10  4  1  0  0  0  0
 13  6  1  0  0  0  0
 14  6  1  0  0  0  0
 17  7  1  0  0  0  0
 18  8  1  0  0  0  0
 20  8  1  0  0  0  0
 21  9  1  0  0  0  0
M  END
$$$$
