CSD_code = OKEPEA | q = 0 | S = 0 | Stoichiometry = C21H36Cl2IrN2P | MND = 8
 OpenBabel04212202083D

 63 61  0  0  1  0  0  0  0  0999 V2000
   10.4093    4.0597   12.5619 C   0  0  0  0  0  0  0  0  0  0  0  0
   11.7382    3.7277   12.1893 C   0  0  0  0  0  0  0  0  0  0  0  0
   11.9133    2.3151   12.3997 C   0  0  0  0  0  0  0  0  0  0  0  0
   10.7096    1.8068   12.9878 C   0  0  0  0  0  0  0  0  0  0  0  0
    9.7673    2.8632   13.0502 C   0  0  1  0  0  0  0  0  0  0  0  0
    9.8107    5.4241   12.6603 C   0  0  0  0  0  0  0  0  0  0  0  0
    9.7454    5.7192   13.7090 H   0  0  0  0  0  0  0  0  0  0  0  0
    8.8026    5.4336   12.2478 H   0  0  0  0  0  0  0  0  0  0  0  0
   10.4071    6.1630   12.1307 H   0  0  0  0  0  0  0  0  0  0  0  0
   12.8373    4.7084   11.9323 C   0  0  0  0  0  0  0  0  0  0  0  0
   12.4564    5.6341   11.5098 H   0  0  0  0  0  0  0  0  0  0  0  0
   13.5963    4.3111   11.2628 H   0  0  0  0  0  0  0  0  0  0  0  0
   13.3222    4.9457   12.8820 H   0  0  0  0  0  0  0  0  0  0  0  0
   13.2166    1.5791   12.4254 C   0  0  0  0  0  0  0  0  0  0  0  0
   14.0121    2.1517   11.9566 H   0  0  0  0  0  0  0  0  0  0  0  0
   13.1429    0.6147   11.9254 H   0  0  0  0  0  0  0  0  0  0  0  0
   13.5004    1.3920   13.4629 H   0  0  0  0  0  0  0  0  0  0  0  0
   10.5412    0.4359   13.5489 C   0  0  0  0  0  0  0  0  0  0  0  0
   10.8149    0.4403   14.6061 H   0  0  0  0  0  0  0  0  0  0  0  0
   11.1745   -0.2796   13.0304 H   0  0  0  0  0  0  0  0  0  0  0  0
    9.5105    0.1006   13.4621 H   0  0  0  0  0  0  0  0  0  0  0  0
    8.4400    2.8291   13.7325 C   0  0  0  0  0  0  0  0  0  0  0  0
    8.0473    1.8156   13.7671 H   0  0  0  0  0  0  0  0  0  0  0  0
    7.7194    3.4583   13.2136 H   0  0  0  0  0  0  0  0  0  0  0  0
    8.5409    3.1979   14.7553 H   0  0  0  0  0  0  0  0  0  0  0  0
   10.7222    4.3261    7.7889 C   0  0  0  0  0  0  0  0  0  0  0  0
   11.2898    5.3119    8.8053 C   0  0  0  0  0  0  0  0  0  0  0  0
   12.3199    5.0728    9.0550 H   0  0  0  0  0  0  0  0  0  0  0  0
   10.6875    5.2847    9.7112 H   0  0  0  0  0  0  0  0  0  0  0  0
   11.2599    6.3232    8.4023 H   0  0  0  0  0  0  0  0  0  0  0  0
    9.2640    4.6923    7.5025 C   0  0  0  0  0  0  0  0  0  0  0  0
    8.6357    4.5332    8.3748 H   0  0  0  0  0  0  0  0  0  0  0  0
    8.8723    4.1055    6.6752 H   0  0  0  0  0  0  0  0  0  0  0  0
    9.2046    5.7442    7.2269 H   0  0  0  0  0  0  0  0  0  0  0  0
   11.4922    4.3919    6.4753 C   0  0  0  0  0  0  0  0  0  0  0  0
   11.2704    5.3381    5.9827 H   0  0  0  0  0  0  0  0  0  0  0  0
   11.1833    3.5839    5.8175 H   0  0  0  0  0  0  0  0  0  0  0  0
   12.5657    4.3462    6.6339 H   0  0  0  0  0  0  0  0  0  0  0  0
   12.3708    1.6814    8.1819 C   0  0  0  0  0  0  0  0  0  0  0  0
   12.6953    1.4552    6.7063 C   0  0  0  0  0  0  0  0  0  0  0  0
   13.1440    2.3277    6.2452 H   0  0  0  0  0  0  0  0  0  0  0  0
   11.8015    1.1787    6.1544 H   0  0  0  0  0  0  0  0  0  0  0  0
   13.4135    0.6398    6.6329 H   0  0  0  0  0  0  0  0  0  0  0  0
   12.2020    0.3101    8.8391 C   0  0  0  0  0  0  0  0  0  0  0  0
   13.1180   -0.2701    8.7384 H   0  0  0  0  0  0  0  0  0  0  0  0
   11.3905   -0.2378    8.3652 H   0  0  0  0  0  0  0  0  0  0  0  0
   11.9690    0.4060    9.8967 H   0  0  0  0  0  0  0  0  0  0  0  0
   13.5112    2.4329    8.8633 C   0  0  0  0  0  0  0  0  0  0  0  0
   13.2441    2.6483    9.8932 H   0  0  0  0  0  0  0  0  0  0  0  0
   13.7339    3.3671    8.3526 H   0  0  0  0  0  0  0  0  0  0  0  0
   14.4138    1.8233    8.8582 H   0  0  0  0  0  0  0  0  0  0  0  0
    9.5525    1.7634    7.5030 C   0  0  0  0  0  0  0  0  0  0  0  0
    7.6449    0.9884    6.7797 C   0  0  0  0  0  0  0  0  0  0  0  0
    6.6149    0.6984    6.7942 H   0  0  0  0  0  0  0  0  0  0  0  0
    8.5921    0.9222    5.7923 C   0  0  0  0  0  0  0  0  0  0  0  0
    8.5037    0.5562    4.7888 H   0  0  0  0  0  0  0  0  0  0  0  0
    8.2662    1.5285    7.8534 N   0  0  0  0  0  0  0  0  0  0  0  0
    7.8673    1.7394    8.7620 H   0  0  0  0  0  0  0  0  0  0  0  0
    9.7664    1.4108    6.2487 N   0  0  0  0  0  0  0  0  0  0  0  0
   10.7491    2.5904    8.5741 P   0  0  0  0  0  0  0  0  0  0  0  0
    9.3507    0.3675   10.4528 Cl  0  0  0  0  0 15  0  0  0  0  0  0
    8.0239    3.3569   10.3704 Cl  0  0  0  0  0 15  0  0  0  0  0  0
   10.1745    2.5260   10.8914 Ir  0  0  0  0  0  0  0  0  0  0  0  0
  1  6  1  0  0  0  0
  1  5  1  0  0  0  0
  2  3  1  0  0  0  0
  2  1  2  0  0  0  0
  3 14  1  0  0  0  0
  3  4  2  0  0  0  0
  4  5  1  0  0  0  0
  4 18  1  0  0  0  0
  5 63  1  6  0  0  0
  5 22  1  0  0  0  0
  6  7  1  0  0  0  0
  8  6  1  0  0  0  0
  9  6  1  0  0  0  0
 10  2  1  0  0  0  0
 10 13  1  0  0  0  0
 11 10  1  0  0  0  0
 12 10  1  0  0  0  0
 14 17  1  0  0  0  0
 15 14  1  0  0  0  0
 16 14  1  0  0  0  0
 18 19  1  0  0  0  0
 20 18  1  0  0  0  0
 21 18  1  0  0  0  0
 22 23  1  0  0  0  0
 22 25  1  0  0  0  0
 24 22  1  0  0  0  0
 26 60  1  0  0  0  0
 26 27  1  0  0  0  0
 27 28  1  0  0  0  0
 27 29  1  0  0  0  0
 30 27  1  0  0  0  0
 31 26  1  0  0  0  0
 31 32  1  0  0  0  0
 33 31  1  0  0  0  0
 34 31  1  0  0  0  0
 35 38  1  0  0  0  0
 35 26  1  0  0  0  0
 36 35  1  0  0  0  0
 37 35  1  0  0  0  0
 39 60  1  0  0  0  0
 39 44  1  0  0  0  0
 39 48  1  0  0  0  0
 40 39  1  0  0  0  0
 41 40  1  0  0  0  0
 42 40  1  0  0  0  0
 43 40  1  0  0  0  0
 44 47  1  0  0  0  0
 45 44  1  0  0  0  0
 46 44  1  0  0  0  0
 48 49  1  0  0  0  0
 50 48  1  0  0  0  0
 51 48  1  0  0  0  0
 52 57  1  0  0  0  0
 52 60  1  0  0  0  0
 53 54  1  0  0  0  0
 53 57  1  0  0  0  0
 55 59  1  0  0  0  0
 55 53  2  0  0  0  0
 56 55  1  0  0  0  0
 57 58  1  0  0  0  0
 59 52  2  0  0  0  0
M  END
$$$$
