CSD_code = OKEXUZ | q = 0 | S = 0 | Stoichiometry = C20H12Cl2N2SZn | MND = 4
 OpenBabel04212202083D

 38 43  0  0  1  0  0  0  0  0999 V2000
    5.3905    4.5015   10.3746 Zn  0  0  0  0  0  0  0  0  0  0  0  0
    6.2137    4.5100    5.9508 S   0  0  0  0  0  0  0  0  0  0  0  0
    3.6118    3.2090   10.4679 Cl  0  0  0  0  0  0  0  0  0  0  0  0
    6.9174    5.0706   11.8508 Cl  0  0  0  0  0  0  0  0  0  0  0  0
    6.2228    3.9964    8.4659 N   0  0  0  0  0  0  0  0  0  0  0  0
    4.8084    6.2078    9.2592 N   0  0  0  0  0  0  0  0  0  0  0  0
    3.0006    9.4120    9.2978 C   0  0  0  0  0  3  0  0  0  0  0  0
    2.6916   10.1876    8.6125 H   0  0  0  0  0  0  0  0  0  0  0  0
    4.1252    7.2819    9.6926 C   0  0  0  0  0  0  0  0  0  0  0  0
    3.7155    8.3088    8.7931 C   0  0  0  0  0  0  0  0  0  0  0  0
    7.3818    1.8077    8.5607 C   0  0  0  0  0  0  0  0  0  0  0  0
    4.7401    7.0530    7.0219 C   0  0  0  0  0  0  0  0  0  0  0  0
    5.0095    6.9050    5.9875 H   0  0  0  0  0  0  0  0  0  0  0  0
    6.8494    2.9443    7.8894 C   0  0  0  0  0  0  0  0  0  0  0  0
    7.5514    2.0461    5.7145 C   0  0  0  0  0  0  0  0  0  0  0  0
    7.6039    2.1570    4.6433 H   0  0  0  0  0  0  0  0  0  0  0  0
    3.8063    7.3918   11.0604 C   0  0  0  0  0  0  0  0  0  0  0  0
    4.1268    6.6025   11.7261 H   0  0  0  0  0  0  0  0  0  0  0  0
    7.3271    1.6442    9.9529 C   0  0  0  0  0  0  0  0  0  0  0  0
    6.8692    2.4127   10.5607 H   0  0  0  0  0  0  0  0  0  0  0  0
    5.8285    4.8892    7.6054 C   0  0  2  0  0  3  0  0  0  0  0  0
    6.9456    3.0390    6.4930 C   0  0  0  0  0  0  0  0  0  0  0  0
    5.1084    6.0829    7.9798 C   0  0  0  0  0  0  0  0  0  0  0  0
    3.1095    8.4767   11.5150 C   0  0  0  0  0  0  0  0  0  0  0  0
    2.8642    8.5604   12.5626 H   0  0  0  0  0  0  0  0  0  0  0  0
    7.8515    0.5215   10.5397 C   0  0  0  0  0  0  0  0  0  0  0  0
    7.8046    0.4043   11.6113 H   0  0  0  0  0  0  0  0  0  0  0  0
    2.7048    9.4917   10.6311 C   0  0  0  0  0  0  0  0  0  0  0  0
    2.1554   10.3381   11.0147 H   0  0  0  0  0  0  0  0  0  0  0  0
    7.9892    0.8029    7.7607 C   0  0  0  0  0  0  0  0  0  0  0  0
    8.0584    0.9510    6.3516 C   0  0  0  0  0  0  0  0  0  0  0  0
    8.5280    0.1653    5.7784 H   0  0  0  0  0  0  0  0  0  0  0  0
    4.0492    8.1581    7.4313 C   0  0  0  0  0  0  0  0  0  0  0  0
    3.7518    8.9196    6.7251 H   0  0  0  0  0  0  0  0  0  0  0  0
    8.5169   -0.3365    8.3970 C   0  0  0  0  0  0  0  0  0  0  0  0
    8.9773   -1.1023    7.7898 H   0  0  0  0  0  0  0  0  0  0  0  0
    8.4484   -0.4744    9.7583 C   0  0  0  0  0  0  0  0  0  0  0  0
    8.8554   -1.3533   10.2355 H   0  0  0  0  0  0  0  0  0  0  0  0
  1  3  1  0  0  0  0
  1  4  1  0  0  0  0
  2 22  1  0  0  0  0
  5  1  1  0  0  0  0
  6  9  1  0  0  0  0
  6  1  1  0  0  0  0
  7 28  1  0  0  0  0
  8  7  1  0  0  0  0
  9 17  2  0  0  0  0
 10  7  1  0  0  0  0
 10  9  1  0  0  0  0
 11 19  1  0  0  0  0
 12 33  1  0  0  0  0
 12 23  2  0  0  0  0
 13 12  1  0  0  0  0
 14  5  1  0  0  0  0
 14 11  1  0  0  0  0
 15 31  2  0  0  0  0
 15 22  1  0  0  0  0
 16 15  1  0  0  0  0
 17 24  1  0  0  0  0
 17 18  1  0  0  0  0
 19 26  2  0  0  0  0
 19 20  1  0  0  0  0
 21  2  1  6  0  0  0
 21 23  1  0  0  0  0
 21  5  1  0  0  0  0
 22 14  2  0  0  0  0
 23  6  1  0  0  0  0
 24 25  1  0  0  0  0
 26 27  1  0  0  0  0
 28 29  1  0  0  0  0
 28 24  2  0  0  0  0
 30 35  1  0  0  0  0
 30 11  2  0  0  0  0
 31 30  1  0  0  0  0
 32 31  1  0  0  0  0
 33 10  2  0  0  0  0
 34 33  1  0  0  0  0
 35 37  2  0  0  0  0
 36 35  1  0  0  0  0
 37 38  1  0  0  0  0
 37 26  1  0  0  0  0
M  END
$$$$
