CSD_code = OKEZOU | q = 0 | S = 0 | Stoichiometry = C21H29BClN3O3Zn | MND = 4
 OpenBabel04212202083D

 59 64  0  0  1  0  0  0  0  0999 V2000
    7.5078    9.5841    0.4855 Zn  0  0  1  0  0  0  0  0  0  0  0  0
    5.5960    9.5358   -0.4884 Cl  0  0  0  0  0  0  0  0  0  0  0  0
   11.2520    8.4734   -0.2787 O   0  0  0  0  0  0  0  0  0  0  0  0
   10.0386   12.0843    2.1874 O   0  0  0  0  0  0  0  0  0  0  0  0
    9.3709    7.7480    3.4734 O   0  0  0  0  0  0  0  0  0  0  0  0
    9.1171    8.9604   -0.4743 N   0  0  2  0  0  0  0  0  0  0  0  0
    8.2771   11.2493    1.1679 N   0  0  1  0  0  0  0  0  0  0  0  0
    7.8269    8.4864    2.0926 N   0  0  2  0  0  0  0  0  0  0  0  0
    9.4271    8.3524   -1.7651 C   0  0  0  0  0  0  0  0  0  0  0  0
   10.9304    8.0229   -1.5957 C   0  0  0  0  0  0  0  0  0  0  0  0
   11.1421    6.9522   -1.6558 H   0  0  0  0  0  0  0  0  0  0  0  0
   11.5654    8.5554   -2.3087 H   0  0  0  0  0  0  0  0  0  0  0  0
   10.1617    8.9889    0.2712 C   0  0  1  0  0  3  0  0  0  0  0  0
    9.4225   11.0183    1.6982 C   0  0  1  0  0  3  0  0  0  0  0  0
    7.9561   12.6719    1.2511 C   0  0  0  0  0  0  0  0  0  0  0  0
    9.2107   13.2274    1.9701 C   0  0  0  0  0  0  0  0  0  0  0  0
    9.7662   13.9459    1.3619 H   0  0  0  0  0  0  0  0  0  0  0  0
    8.9812   13.6780    2.9392 H   0  0  0  0  0  0  0  0  0  0  0  0
    7.7833   13.2357   -0.1576 C   0  0  0  0  0  0  0  0  0  0  0  0
    8.6935   13.0951   -0.7369 H   0  0  0  0  0  0  0  0  0  0  0  0
    7.5497   14.2966   -0.1132 H   0  0  0  0  0  0  0  0  0  0  0  0
    6.9707   12.7136   -0.6578 H   0  0  0  0  0  0  0  0  0  0  0  0
    6.6775   12.8561    2.0655 C   0  0  0  0  0  0  0  0  0  0  0  0
    5.8588   12.3353    1.5739 H   0  0  0  0  0  0  0  0  0  0  0  0
    6.4299   13.9117    2.1455 H   0  0  0  0  0  0  0  0  0  0  0  0
    6.8010   12.4420    3.0640 H   0  0  0  0  0  0  0  0  0  0  0  0
   11.5289    9.6913    2.5457 C   0  0  0  0  0  0  0  0  0  0  0  0
   12.7190    9.9354    1.8639 C   0  0  0  0  0  0  0  0  0  0  0  0
   12.7127    9.9822    0.7853 H   0  0  0  0  0  0  0  0  0  0  0  0
   13.9187   10.1175    2.5292 C   0  0  0  0  0  0  0  0  0  0  0  0
   14.8243   10.3010    1.9670 H   0  0  0  0  0  0  0  0  0  0  0  0
   13.9622   10.0700    3.9110 C   0  0  0  0  0  0  0  0  0  0  0  0
   14.8973   10.2108    4.4348 H   0  0  0  0  0  0  0  0  0  0  0  0
   12.7914    9.8487    4.6140 C   0  0  0  0  0  0  0  0  0  0  0  0
   12.8086    9.8195    5.6951 H   0  0  0  0  0  0  0  0  0  0  0  0
   11.5980    9.6691    3.9377 C   0  0  0  0  0  0  0  0  0  0  0  0
   10.6972    9.5052    4.5108 H   0  0  0  0  0  0  0  0  0  0  0  0
    9.0453    8.5716    2.4875 C   0  0  2  0  0  3  0  0  0  0  0  0
    7.1124    7.4694    2.8593 C   0  0  0  0  0  0  0  0  0  0  0  0
    6.6302    6.3702    1.9150 C   0  0  0  0  0  0  0  0  0  0  0  0
    5.9659    6.8003    1.1688 H   0  0  0  0  0  0  0  0  0  0  0  0
    6.0926    5.6053    2.4701 H   0  0  0  0  0  0  0  0  0  0  0  0
    7.4746    5.9114    1.4043 H   0  0  0  0  0  0  0  0  0  0  0  0
    8.2183    6.9822    3.8275 C   0  0  0  0  0  0  0  0  0  0  0  0
    7.9807    7.1792    4.8765 H   0  0  0  0  0  0  0  0  0  0  0  0
    8.4563    5.9225    3.7061 H   0  0  0  0  0  0  0  0  0  0  0  0
    5.9312    8.1130    3.5820 C   0  0  0  0  0  0  0  0  0  0  0  0
    6.2755    8.9088    4.2394 H   0  0  0  0  0  0  0  0  0  0  0  0
    5.3988    7.3699    4.1705 H   0  0  0  0  0  0  0  0  0  0  0  0
    5.2508    8.5396    2.8486 H   0  0  0  0  0  0  0  0  0  0  0  0
    8.5676    7.1053   -1.9596 C   0  0  0  0  0  0  0  0  0  0  0  0
    8.7586    6.3847   -1.1669 H   0  0  0  0  0  0  0  0  0  0  0  0
    8.7857    6.6434   -2.9194 H   0  0  0  0  0  0  0  0  0  0  0  0
    7.5163    7.3830   -1.9299 H   0  0  0  0  0  0  0  0  0  0  0  0
    9.1637    9.3652   -2.8773 C   0  0  0  0  0  0  0  0  0  0  0  0
    8.1139    9.6490   -2.8626 H   0  0  0  0  0  0  0  0  0  0  0  0
    9.4011    8.9328   -3.8461 H   0  0  0  0  0  0  0  0  0  0  0  0
    9.7665   10.2588   -2.7281 H   0  0  0  0  0  0  0  0  0  0  0  0
   10.1188    9.5600    1.7861 B   0  0  2  0  0  0  0  0  0  0  0  0
  1  2  1  6  0  0  0
  1  7  1  0  0  0  0
  1  8  1  0  0  0  0
  5 44  1  0  0  0  0
  6  9  1  1  0  0  0
  6 13  1  0  0  0  0
  6  1  1  0  0  0  0
  7 15  1  6  0  0  0
  7 14  1  0  0  0  0
  8 38  1  0  0  0  0
  8 39  1  6  0  0  0
  9 10  1  0  0  0  0
 10  3  1  0  0  0  0
 11 10  1  0  0  0  0
 12 10  1  0  0  0  0
 13  3  1  1  0  0  0
 13 59  1  0  0  0  0
 14 59  1  0  0  0  0
 14  4  1  6  0  0  0
 15 16  1  0  0  0  0
 15 23  1  0  0  0  0
 16  4  1  0  0  0  0
 16 18  1  0  0  0  0
 17 16  1  0  0  0  0
 19 21  1  0  0  0  0
 19 15  1  0  0  0  0
 20 19  1  0  0  0  0
 22 19  1  0  0  0  0
 23 25  1  0  0  0  0
 23 26  1  0  0  0  0
 24 23  1  0  0  0  0
 27 36  1  0  0  0  0
 28 30  1  0  0  0  0
 28 27  2  0  0  0  0
 29 28  1  0  0  0  0
 30 32  2  0  0  0  0
 31 30  1  0  0  0  0
 32 33  1  0  0  0  0
 32 34  1  0  0  0  0
 34 35  1  0  0  0  0
 36 37  1  0  0  0  0
 36 34  2  0  0  0  0
 38  5  1  6  0  0  0
 39 47  1  0  0  0  0
 39 44  1  0  0  0  0
 40 42  1  0  0  0  0
 40 39  1  0  0  0  0
 41 40  1  0  0  0  0
 43 40  1  0  0  0  0
 44 45  1  0  0  0  0
 46 44  1  0  0  0  0
 47 49  1  0  0  0  0
 47 48  1  0  0  0  0
 50 47  1  0  0  0  0
 51 54  1  0  0  0  0
 51  9  1  0  0  0  0
 51 52  1  0  0  0  0
 53 51  1  0  0  0  0
 55 56  1  0  0  0  0
 55 58  1  0  0  0  0
 55  9  1  0  0  0  0
 57 55  1  0  0  0  0
 59 38  1  0  0  0  0
 59 27  1  1  0  0  0
M  END
$$$$
