CSD_code = OKOHAX | q = 0 | S = 0 | Stoichiometry = C28H28I2P2Pd | MND = 4
 OpenBabel04212202083D

 61 65  0  0  1  0  0  0  0  0999 V2000
    4.6012   18.1064   16.2019 Pd  0  0  0  0  0  0  0  0  0  0  0  0
    5.2954   19.5595   14.1767 I   0  0  0  0  0  0  0  0  0  0  0  0
    5.3953   19.6943   18.0800 I   0  0  0  0  0  0  0  0  0  0  0  0
    3.9390   16.5520   14.7468 P   0  0  0  0  0  4  0  0  0  0  0  0
    3.7909   16.7503   17.7762 P   0  0  0  0  0  4  0  0  0  0  0  0
    2.8929   15.2860   15.6387 C   0  0  2  0  0  0  0  0  0  0  0  0
    1.9095   15.7623   15.7832 H   0  0  0  0  0  0  0  0  0  0  0  0
    3.5164   15.0636   17.0195 C   0  0  2  0  0  0  0  0  0  0  0  0
    4.5247   14.6396   16.8768 H   0  0  0  0  0  0  0  0  0  0  0  0
    2.7079   14.0023   14.8399 C   0  0  0  0  0  0  0  0  0  0  0  0
    1.9495   13.3722   15.3007 H   0  0  0  0  0  0  0  0  0  0  0  0
    3.6397   13.4411   14.7885 H   0  0  0  0  0  0  0  0  0  0  0  0
    2.3806   14.2335   13.8265 H   0  0  0  0  0  0  0  0  0  0  0  0
    2.7006   14.1283   17.9029 C   0  0  0  0  0  0  0  0  0  0  0  0
    2.7491   13.1090   17.5243 H   0  0  0  0  0  0  0  0  0  0  0  0
    1.6568   14.4372   17.9292 H   0  0  0  0  0  0  0  0  0  0  0  0
    3.0923   14.1267   18.9198 H   0  0  0  0  0  0  0  0  0  0  0  0
    5.5167   14.7045   13.2920 C   0  0  0  0  0  0  0  0  0  0  0  0
    4.6349   14.4732   12.7114 H   0  0  0  0  0  0  0  0  0  0  0  0
    6.7125   14.0647   13.0222 C   0  0  0  0  0  0  0  0  0  0  0  0
    6.7568   13.3252   12.2361 H   0  0  0  0  0  0  0  0  0  0  0  0
    7.8518   14.3745   13.7483 C   0  0  0  0  0  0  0  0  0  0  0  0
    8.7833   13.8755   13.5271 H   0  0  0  0  0  0  0  0  0  0  0  0
    7.8019   15.3331   14.7473 C   0  0  0  0  0  0  0  0  0  0  0  0
    8.6919   15.5858   15.3039 H   0  0  0  0  0  0  0  0  0  0  0  0
    6.6104   15.9786   15.0218 C   0  0  0  0  0  0  0  0  0  0  0  0
    6.5873   16.7590   15.8022 H   0  0  0  0  0  0  0  0  0  0  0  0
    5.4576   15.6647   14.2996 C   0  0  0  0  0  0  0  0  0  0  0  0
    1.6638   17.1429   13.2871 C   0  0  0  0  0  0  0  0  0  0  0  0
    1.1412   17.0769   14.2334 H   0  0  0  0  0  0  0  0  0  0  0  0
    0.9708   17.5007   12.1462 C   0  0  0  0  0  0  0  0  0  0  0  0
   -0.0901   17.6954   12.2028 H   0  0  0  0  0  0  0  0  0  0  0  0
    1.6389   17.6256   10.9389 C   0  0  0  0  0  0  0  0  0  0  0  0
    1.0962   17.9126   10.0508 H   0  0  0  0  0  0  0  0  0  0  0  0
    3.0052   17.4063   10.8757 C   0  0  0  0  0  0  0  0  0  0  0  0
    3.5319   17.5301    9.9417 H   0  0  0  0  0  0  0  0  0  0  0  0
    3.7060   17.0467   12.0117 C   0  0  0  0  0  0  0  0  0  0  0  0
    4.7774   16.9110   11.9675 H   0  0  0  0  0  0  0  0  0  0  0  0
    3.0320   16.8882   13.2199 C   0  0  0  0  0  0  0  0  0  0  0  0
    1.2802   16.8946   19.0706 C   0  0  0  0  0  0  0  0  0  0  0  0
    1.6267   16.1075   19.7253 H   0  0  0  0  0  0  0  0  0  0  0  0
    0.0114   17.4213   19.2280 C   0  0  0  0  0  0  0  0  0  0  0  0
   -0.6378   17.0302   19.9976 H   0  0  0  0  0  0  0  0  0  0  0  0
   -0.4253   18.4518   18.4099 C   0  0  0  0  0  0  0  0  0  0  0  0
   -1.4157   18.8610   18.5415 H   0  0  0  0  0  0  0  0  0  0  0  0
    0.4120   18.9692   17.4349 C   0  0  0  0  0  0  0  0  0  0  0  0
    0.0806   19.7843   16.8089 H   0  0  0  0  0  0  0  0  0  0  0  0
    1.6824   18.4475   17.2714 C   0  0  0  0  0  0  0  0  0  0  0  0
    2.3496   18.8861   16.5090 H   0  0  0  0  0  0  0  0  0  0  0  0
    2.1218   17.3986   18.0812 C   0  0  0  0  0  0  0  0  0  0  0  0
    5.5377   15.4811   19.5188 C   0  0  0  0  0  0  0  0  0  0  0  0
    5.8552   14.9064   18.6580 H   0  0  0  0  0  0  0  0  0  0  0  0
    6.1569   15.2894   20.7397 C   0  0  0  0  0  0  0  0  0  0  0  0
    6.9451   14.5567   20.8315 H   0  0  0  0  0  0  0  0  0  0  0  0
    5.7779   16.0455   21.8371 C   0  0  0  0  0  0  0  0  0  0  0  0
    6.2685   15.8979   22.7874 H   0  0  0  0  0  0  0  0  0  0  0  0
    4.7859   17.0043   21.7111 C   0  0  0  0  0  0  0  0  0  0  0  0
    4.5070   17.6115   22.5587 H   0  0  0  0  0  0  0  0  0  0  0  0
    4.1597   17.2009   20.4949 C   0  0  0  0  0  0  0  0  0  0  0  0
    3.4069   17.9697   20.3898 H   0  0  0  0  0  0  0  0  0  0  0  0
    4.5178   16.4218   19.3975 C   0  0  0  0  0  0  0  0  0  0  0  0
  1  5  1  0  0  0  0
  1  3  1  0  0  0  0
  2  1  1  0  0  0  0
  4  6  1  0  0  0  0
  4  1  1  0  0  0  0
  5 50  1  0  0  0  0
  5 61  1  0  0  0  0
  6  7  1  1  0  0  0
  6  8  1  0  0  0  0
  8  9  1  6  0  0  0
  8  5  1  0  0  0  0
  8 14  1  0  0  0  0
 10 11  1  0  0  0  0
 10  6  1  0  0  0  0
 12 10  1  0  0  0  0
 13 10  1  0  0  0  0
 14 16  1  0  0  0  0
 14 17  1  0  0  0  0
 15 14  1  0  0  0  0
 18 28  1  0  0  0  0
 19 18  1  0  0  0  0
 20 18  2  0  0  0  0
 20 22  1  0  0  0  0
 21 20  1  0  0  0  0
 22 24  2  0  0  0  0
 23 22  1  0  0  0  0
 24 26  1  0  0  0  0
 24 25  1  0  0  0  0
 26 27  1  0  0  0  0
 28  4  1  0  0  0  0
 28 26  2  0  0  0  0
 29 30  1  0  0  0  0
 31 32  1  0  0  0  0
 31 29  2  0  0  0  0
 33 31  1  0  0  0  0
 34 33  1  0  0  0  0
 35 33  2  0  0  0  0
 35 37  1  0  0  0  0
 36 35  1  0  0  0  0
 37 39  2  0  0  0  0
 38 37  1  0  0  0  0
 39 29  1  0  0  0  0
 39  4  1  0  0  0  0
 40 42  1  0  0  0  0
 40 41  1  0  0  0  0
 42 43  1  0  0  0  0
 44 45  1  0  0  0  0
 44 42  2  0  0  0  0
 46 44  1  0  0  0  0
 47 46  1  0  0  0  0
 48 46  2  0  0  0  0
 48 50  1  0  0  0  0
 49 48  1  0  0  0  0
 50 40  2  0  0  0  0
 51 53  1  0  0  0  0
 52 51  1  0  0  0  0
 53 54  1  0  0  0  0
 53 55  2  0  0  0  0
 55 56  1  0  0  0  0
 57 55  1  0  0  0  0
 57 58  1  0  0  0  0
 59 57  2  0  0  0  0
 60 59  1  0  0  0  0
 61 51  2  0  0  0  0
 61 59  1  0  0  0  0
M  END
$$$$
