CSD_code = OKOWUG | q = 0 | S = 0 | Stoichiometry = C14H24Cl2HgN4S2 | MND = 4
 OpenBabel04212202083D

 47 48  0  0  1  0  0  0  0  0999 V2000
   -5.1718    6.7735   10.7249 Hg  0  0  0  0  0  0  0  0  0  0  0  0
   -3.2962    7.6064   11.8514 Cl  0  0  0  0  0  0  0  0  0  0  0  0
   -4.9610    6.5401    8.3862 Cl  0  0  0  0  0  0  0  0  0  0  0  0
   -6.6942    4.6672   11.2105 S   0  0  0  0  0  0  0  0  0  0  0  0
   -6.7249    8.9727   10.8900 S   0  0  0  0  0  0  0  0  0  0  0  0
   -8.0468    5.1812    8.9142 N   0  0  0  0  0  0  0  0  0  0  0  0
   -6.5312    3.6312    8.6997 N   0  0  0  0  0  0  0  0  0  0  0  0
   -5.0223   10.2384   12.5615 N   0  0  0  0  0  0  0  0  0  0  0  0
   -4.5538   10.5534   10.4561 N   0  0  0  0  0  0  0  0  0  0  0  0
   -7.0832    4.5026    9.5625 C   0  0  2  0  0  3  0  0  0  0  0  0
   -8.0744    4.7552    7.6159 C   0  0  0  0  0  0  0  0  0  0  0  0
   -8.7485    5.1736    6.8981 H   0  0  0  0  0  0  0  0  0  0  0  0
   -7.1355    3.7892    7.4838 C   0  0  0  0  0  0  0  0  0  0  0  0
   -6.8500    3.2183    6.6262 H   0  0  0  0  0  0  0  0  0  0  0  0
   -8.8457    6.2287    9.4846 C   0  0  0  0  0  0  0  0  0  0  0  0
   -9.7969    6.2863    8.9598 H   0  0  0  0  0  0  0  0  0  0  0  0
   -8.3305    7.1903    9.4074 H   0  0  0  0  0  0  0  0  0  0  0  0
   -9.0139    6.0137   10.5401 H   0  0  0  0  0  0  0  0  0  0  0  0
   -5.4376    2.7293    9.0080 C   0  0  0  0  0  0  0  0  0  0  0  0
   -5.1118    2.9962   10.0204 H   0  0  0  0  0  0  0  0  0  0  0  0
   -4.2883    2.9465    8.0300 C   0  0  0  0  0  0  0  0  0  0  0  0
   -4.5390    2.5733    7.0400 H   0  0  0  0  0  0  0  0  0  0  0  0
   -3.4045    2.4229    8.3832 H   0  0  0  0  0  0  0  0  0  0  0  0
   -4.0604    4.0076    7.9574 H   0  0  0  0  0  0  0  0  0  0  0  0
   -5.9421    1.2889    9.0039 C   0  0  0  0  0  0  0  0  0  0  0  0
   -6.7493    1.1684    9.7227 H   0  0  0  0  0  0  0  0  0  0  0  0
   -5.1325    0.6185    9.2769 H   0  0  0  0  0  0  0  0  0  0  0  0
   -6.3055    1.0115    8.0166 H   0  0  0  0  0  0  0  0  0  0  0  0
   -5.3881    9.9262   11.3052 C   0  0  2  0  0  3  0  0  0  0  0  0
   -3.9169   11.0399   12.5016 C   0  0  0  0  0  0  0  0  0  0  0  0
   -3.4266   11.3932   13.3846 H   0  0  0  0  0  0  0  0  0  0  0  0
   -3.6295   11.2407   11.1950 C   0  0  0  0  0  0  0  0  0  0  0  0
   -2.8437   11.8060   10.7410 H   0  0  0  0  0  0  0  0  0  0  0  0
   -5.6012    9.6714   13.7455 C   0  0  0  0  0  0  0  0  0  0  0  0
   -6.6620    9.4920   13.5700 H   0  0  0  0  0  0  0  0  0  0  0  0
   -5.4693   10.3564   14.5804 H   0  0  0  0  0  0  0  0  0  0  0  0
   -5.1145    8.7184   13.9712 H   0  0  0  0  0  0  0  0  0  0  0  0
   -4.5777   10.4305    9.0101 C   0  0  0  0  0  0  0  0  0  0  0  0
   -5.3878    9.7271    8.7821 H   0  0  0  0  0  0  0  0  0  0  0  0
   -3.2581    9.8483    8.5160 C   0  0  0  0  0  0  0  0  0  0  0  0
   -2.4415   10.5550    8.6441 H   0  0  0  0  0  0  0  0  0  0  0  0
   -3.3442    9.5949    7.4634 H   0  0  0  0  0  0  0  0  0  0  0  0
   -3.0240    8.9379    9.0655 H   0  0  0  0  0  0  0  0  0  0  0  0
   -4.8882   11.7841    8.3790 C   0  0  0  0  0  0  0  0  0  0  0  0
   -5.8343   12.1692    8.7527 H   0  0  0  0  0  0  0  0  0  0  0  0
   -4.9605   11.6731    7.3010 H   0  0  0  0  0  0  0  0  0  0  0  0
   -4.1030   12.5034    8.6019 H   0  0  0  0  0  0  0  0  0  0  0  0
  1  5  1  0  0  0  0
  1  4  1  0  0  0  0
  1  2  1  0  0  0  0
  3  1  1  0  0  0  0
  6 15  1  0  0  0  0
  6 10  1  0  0  0  0
  7 19  1  0  0  0  0
  7 10  1  0  0  0  0
  8 34  1  0  0  0  0
  9 32  1  0  0  0  0
  9 29  1  0  0  0  0
 10  4  1  1  0  0  0
 11  6  1  0  0  0  0
 12 11  1  0  0  0  0
 13 11  2  0  0  0  0
 13  7  1  0  0  0  0
 14 13  1  0  0  0  0
 15 18  1  0  0  0  0
 16 15  1  0  0  0  0
 17 15  1  0  0  0  0
 19 20  1  0  0  0  0
 21 23  1  0  0  0  0
 21 19  1  0  0  0  0
 22 21  1  0  0  0  0
 24 21  1  0  0  0  0
 25 19  1  0  0  0  0
 25 27  1  0  0  0  0
 25 26  1  0  0  0  0
 28 25  1  0  0  0  0
 29  5  1  6  0  0  0
 29  8  1  0  0  0  0
 30  8  1  0  0  0  0
 30 31  1  0  0  0  0
 32 30  2  0  0  0  0
 33 32  1  0  0  0  0
 34 37  1  0  0  0  0
 34 36  1  0  0  0  0
 35 34  1  0  0  0  0
 38  9  1  0  0  0  0
 39 38  1  0  0  0  0
 40 41  1  0  0  0  0
 40 38  1  0  0  0  0
 40 43  1  0  0  0  0
 42 40  1  0  0  0  0
 44 47  1  0  0  0  0
 44 45  1  0  0  0  0
 44 38  1  0  0  0  0
 46 44  1  0  0  0  0
M  END
$$$$
