CSD_code = OKOXOD | q = 0 | S = 0 | Stoichiometry = C20H34ClOP3RuS | MND = 6
 OpenBabel04212202083D

 61 62  0  0  0  0  0  0  0  0999 V2000
   11.7225    3.5988    1.5327 Ru  0  0  0  0  0  0  0  0  0  0  0  0
   11.3770    2.7354    3.7226 Cl  0  0  0  0  0  0  0  0  0  0  0  0
   12.1748    4.7496   -1.1802 O   0  0  0  0  0  1  0  0  0  0  0  0
   13.7769    2.5827    1.8696 P   0  0  0  0  0  4  0  0  0  0  0  0
   12.2983    5.7150    2.3667 P   0  0  0  0  0  4  0  0  0  0  0  0
    9.4242    3.8536    1.6566 P   0  0  0  0  0  4  0  0  0  0  0  0
   10.4832   -1.2197    0.2515 S   0  0  0  0  0  0  0  0  0  0  0  0
   11.2446    1.7483    0.7655 C   0  0  0  0  0  0  0  0  0  0  0  0
   10.9640    0.9675    1.4831 H   0  0  0  0  0  0  0  0  0  0  0  0
   11.2502    1.3433   -0.5101 C   0  0  0  0  0  0  0  0  0  0  0  0
   11.5094    2.0138   -1.3238 H   0  0  0  0  0  0  0  0  0  0  0  0
   10.9293    0.0052   -0.9312 C   0  0  0  0  0  0  0  0  0  0  0  0
   10.9299   -0.4950   -2.1980 C   0  0  0  0  0  0  0  0  0  0  0  0
   11.1769    0.0988   -3.0610 H   0  0  0  0  0  0  0  0  0  0  0  0
   10.5777   -1.8696   -2.2740 C   0  0  0  0  0  0  0  0  0  0  0  0
   10.4809   -2.6999   -3.3928 C   0  0  0  0  0  0  0  0  0  0  0  0
   10.6903   -2.2985   -4.3737 H   0  0  0  0  0  0  0  0  0  0  0  0
   10.1208   -4.0191   -3.2298 C   0  0  0  0  0  0  0  0  0  0  0  0
   10.0458   -4.6649   -4.0927 H   0  0  0  0  0  0  0  0  0  0  0  0
    9.8505   -4.5376   -1.9642 C   0  0  0  0  0  0  0  0  0  0  0  0
    9.5698   -5.5752   -1.8611 H   0  0  0  0  0  0  0  0  0  0  0  0
    9.9385   -3.7391   -0.8408 C   0  0  0  0  0  0  0  0  0  0  0  0
    9.7314   -4.1322    0.1430 H   0  0  0  0  0  0  0  0  0  0  0  0
   10.3016   -2.4134   -1.0038 C   0  0  0  0  0  0  0  0  0  0  0  0
   15.0419    2.7729    0.5582 C   0  0  0  0  0  0  0  0  0  0  0  0
   15.9457    2.2177    0.8084 H   0  0  0  0  0  0  0  0  0  0  0  0
   15.2809    3.8262    0.4200 H   0  0  0  0  0  0  0  0  0  0  0  0
   14.6192    2.3883   -0.3697 H   0  0  0  0  0  0  0  0  0  0  0  0
   13.7550    0.7654    2.0512 C   0  0  0  0  0  0  0  0  0  0  0  0
   13.4181    0.3035    1.1249 H   0  0  0  0  0  0  0  0  0  0  0  0
   13.0667    0.5035    2.8548 H   0  0  0  0  0  0  0  0  0  0  0  0
   14.7587    0.4159    2.2969 H   0  0  0  0  0  0  0  0  0  0  0  0
   14.7202    2.9920    3.3887 C   0  0  0  0  0  0  0  0  0  0  0  0
   15.6398    2.4067    3.4145 H   0  0  0  0  0  0  0  0  0  0  0  0
   14.0943    2.7341    4.2433 H   0  0  0  0  0  0  0  0  0  0  0  0
   14.9625    4.0518    3.4336 H   0  0  0  0  0  0  0  0  0  0  0  0
   12.3384    6.0470    4.1647 C   0  0  0  0  0  0  0  0  0  0  0  0
   12.6200    7.0817    4.3621 H   0  0  0  0  0  0  0  0  0  0  0  0
   13.0487    5.3670    4.6332 H   0  0  0  0  0  0  0  0  0  0  0  0
   11.3538    5.8379    4.5812 H   0  0  0  0  0  0  0  0  0  0  0  0
   11.2974    7.1317    1.7597 C   0  0  0  0  0  0  0  0  0  0  0  0
   10.2601    7.0402    2.0739 H   0  0  0  0  0  0  0  0  0  0  0  0
   11.3333    7.1297    0.6700 H   0  0  0  0  0  0  0  0  0  0  0  0
   11.7078    8.0693    2.1362 H   0  0  0  0  0  0  0  0  0  0  0  0
   13.9326    6.3650    1.8341 C   0  0  0  0  0  0  0  0  0  0  0  0
   14.0853    7.3699    2.2291 H   0  0  0  0  0  0  0  0  0  0  0  0
   13.9435    6.3961    0.7443 H   0  0  0  0  0  0  0  0  0  0  0  0
   14.7395    5.7176    2.1698 H   0  0  0  0  0  0  0  0  0  0  0  0
    8.5795    4.7050    0.2714 C   0  0  0  0  0  0  0  0  0  0  0  0
    8.8135    4.1642   -0.6454 H   0  0  0  0  0  0  0  0  0  0  0  0
    8.9511    5.7242    0.1773 H   0  0  0  0  0  0  0  0  0  0  0  0
    7.5008    4.7176    0.4259 H   0  0  0  0  0  0  0  0  0  0  0  0
    8.4585    2.3057    1.7368 C   0  0  0  0  0  0  0  0  0  0  0  0
    7.4021    2.5431    1.8690 H   0  0  0  0  0  0  0  0  0  0  0  0
    8.8133    1.7182    2.5836 H   0  0  0  0  0  0  0  0  0  0  0  0
    8.5999    1.7355    0.8201 H   0  0  0  0  0  0  0  0  0  0  0  0
    8.7150    4.6952    3.1236 C   0  0  0  0  0  0  0  0  0  0  0  0
    9.0780    5.7174    3.2081 H   0  0  0  0  0  0  0  0  0  0  0  0
    9.0249    4.1356    4.0063 H   0  0  0  0  0  0  0  0  0  0  0  0
    7.6271    4.6991    3.0507 H   0  0  0  0  0  0  0  0  0  0  0  0
   11.9922    4.2697   -0.1458 C   0  0  0  0  0  2  0  0  0  0  0  0
  1  6  1  0  0  0  0
  1  4  1  0  0  0  0
  1  5  1  0  0  0  0
  1  2  1  0  0  0  0
  3 61  1  0  0  0  0
  4 29  1  0  0  0  0
  4 33  1  0  0  0  0
  5 37  1  0  0  0  0
  6 53  1  0  0  0  0
  6 57  1  0  0  0  0
  8  9  1  0  0  0  0
  8  1  1  0  0  0  0
 10  8  2  0  0  0  0
 11 10  1  0  0  0  0
 12 10  1  0  0  0  0
 12  7  1  0  0  0  0
 13 12  2  0  0  0  0
 14 13  1  0  0  0  0
 15 13  1  0  0  0  0
 15 24  1  0  0  0  0
 16 18  1  0  0  0  0
 16 15  2  0  0  0  0
 17 16  1  0  0  0  0
 18 20  2  0  0  0  0
 19 18  1  0  0  0  0
 20 21  1  0  0  0  0
 20 22  1  0  0  0  0
 22 23  1  0  0  0  0
 24 22  2  0  0  0  0
 24  7  1  0  0  0  0
 25 26  1  0  0  0  0
 25  4  1  0  0  0  0
 27 25  1  0  0  0  0
 28 25  1  0  0  0  0
 29 32  1  0  0  0  0
 29 31  1  0  0  0  0
 30 29  1  0  0  0  0
 33 34  1  0  0  0  0
 33 36  1  0  0  0  0
 33 35  1  0  0  0  0
 37 38  1  0  0  0  0
 37 40  1  0  0  0  0
 37 39  1  0  0  0  0
 41 42  1  0  0  0  0
 41 44  1  0  0  0  0
 41  5  1  0  0  0  0
 43 41  1  0  0  0  0
 45 48  1  0  0  0  0
 45 46  1  0  0  0  0
 45  5  1  0  0  0  0
 47 45  1  0  0  0  0
 49 52  1  0  0  0  0
 49  6  1  0  0  0  0
 50 49  1  0  0  0  0
 51 49  1  0  0  0  0
 53 54  1  0  0  0  0
 53 55  1  0  0  0  0
 56 53  1  0  0  0  0
 57 58  1  0  0  0  0
 57 59  1  0  0  0  0
 60 57  1  0  0  0  0
 61  1  1  0  0  0  0
M  END
$$$$
