CSD_code = OLANUL | q = 0 | S = 0 | Stoichiometry = C29H30Cl2OP2Pd | MND = 4
 OpenBabel04212202083D

 65 69  0  0  1  0  0  0  0  0999 V2000
    8.5280    0.6677    1.4511 Pd  0  0  0  0  0  0  0  0  0  0  0  0
    8.1541    0.6031   -2.0685 C   0  0  0  0  0  0  0  0  0  0  0  0
    9.0860    1.3610   -2.7734 C   0  0  0  0  0  0  0  0  0  0  0  0
    9.3887    2.3337   -2.4128 H   0  0  0  0  0  0  0  0  0  0  0  0
    9.6263    0.8732   -3.9495 C   0  0  0  0  0  0  0  0  0  0  0  0
   10.3450    1.4678   -4.4945 H   0  0  0  0  0  0  0  0  0  0  0  0
    9.2561   -0.3748   -4.4223 C   0  0  0  0  0  0  0  0  0  0  0  0
    9.6850   -0.7546   -5.3380 H   0  0  0  0  0  0  0  0  0  0  0  0
    8.3455   -1.1406   -3.7122 C   0  0  0  0  0  0  0  0  0  0  0  0
    8.0676   -2.1210   -4.0697 H   0  0  0  0  0  0  0  0  0  0  0  0
    7.7983   -0.6596   -2.5378 C   0  0  0  0  0  0  0  0  0  0  0  0
    7.1116   -1.2671   -1.9669 H   0  0  0  0  0  0  0  0  0  0  0  0
    5.8272    0.4874   -0.3581 C   0  0  0  0  0  0  0  0  0  0  0  0
    4.9569    0.3856   -1.4402 C   0  0  0  0  0  0  0  0  0  0  0  0
    5.2785    0.6903   -2.4253 H   0  0  0  0  0  0  0  0  0  0  0  0
    3.6874   -0.1331   -1.2596 C   0  0  0  0  0  0  0  0  0  0  0  0
    3.0179   -0.2153   -2.1035 H   0  0  0  0  0  0  0  0  0  0  0  0
    3.2755   -0.5551   -0.0057 C   0  0  0  0  0  0  0  0  0  0  0  0
    2.2843   -0.9627    0.1273 H   0  0  0  0  0  0  0  0  0  0  0  0
    4.1415   -0.4720    1.0725 C   0  0  0  0  0  0  0  0  0  0  0  0
    3.8288   -0.8191    2.0461 H   0  0  0  0  0  0  0  0  0  0  0  0
    5.4125    0.0438    0.8968 C   0  0  0  0  0  0  0  0  0  0  0  0
    6.1179    0.0749    1.7378 H   0  0  0  0  0  0  0  0  0  0  0  0
    7.2392    3.0045   -0.7245 C   0  0  1  0  0  0  0  0  0  0  0  0
    8.2307    3.4120   -0.9590 H   0  0  0  0  0  0  0  0  0  0  0  0
    6.3378    3.3149   -1.9216 C   0  0  0  0  0  0  0  0  0  0  0  0
    6.5753    2.6255   -2.7343 H   0  0  0  0  0  0  0  0  0  0  0  0
    5.2870    3.1980   -1.6538 H   0  0  0  0  0  0  0  0  0  0  0  0
    6.5744    4.7296   -2.4502 C   0  0  0  0  0  0  0  0  0  0  0  0
    5.8929    4.9178   -3.2912 H   0  0  0  0  0  0  0  0  0  0  0  0
    6.3663    5.4748   -1.6684 H   0  0  0  0  0  0  0  0  0  0  0  0
    6.7431    3.6461    0.5799 C   0  0  0  0  0  0  0  0  0  0  0  0
    6.1332    4.5195    0.3372 H   0  0  0  0  0  0  0  0  0  0  0  0
    6.0957    2.9397    1.1189 H   0  0  0  0  0  0  0  0  0  0  0  0
    7.8901    4.0786    1.4979 C   0  0  0  0  0  0  0  0  0  0  0  0
    7.5525    4.8592    2.1839 H   0  0  0  0  0  0  0  0  0  0  0  0
    8.7191    4.4808    0.9085 H   0  0  0  0  0  0  0  0  0  0  0  0
   10.2422    3.0681    2.7851 C   0  0  0  0  0  0  0  0  0  0  0  0
   11.1101    2.6317    1.7815 C   0  0  0  0  0  0  0  0  0  0  0  0
   10.7090    2.0668    0.9280 H   0  0  0  0  0  0  0  0  0  0  0  0
   12.4656    2.8722    1.8842 C   0  0  0  0  0  0  0  0  0  0  0  0
   13.1376    2.5272    1.1122 H   0  0  0  0  0  0  0  0  0  0  0  0
   12.9649    3.5387    2.9938 C   0  0  0  0  0  0  0  0  0  0  0  0
   14.0264    3.7176    3.0811 H   0  0  0  0  0  0  0  0  0  0  0  0
   12.1093    3.9515    4.0000 C   0  0  0  0  0  0  0  0  0  0  0  0
   12.5039    4.4487    4.8740 H   0  0  0  0  0  0  0  0  0  0  0  0
   10.7472    3.7175    3.9018 C   0  0  0  0  0  0  0  0  0  0  0  0
   10.0889    4.0127    4.7051 H   0  0  0  0  0  0  0  0  0  0  0  0
    7.5579    2.7732    4.0296 C   0  0  0  0  0  0  0  0  0  0  0  0
    6.8725    1.6447    4.4693 C   0  0  0  0  0  0  0  0  0  0  0  0
    6.9660    0.7176    3.9090 H   0  0  0  0  0  0  0  0  0  0  0  0
    6.1135    1.6967    5.6240 C   0  0  0  0  0  0  0  0  0  0  0  0
    5.5882    0.8169    5.9644 H   0  0  0  0  0  0  0  0  0  0  0  0
    6.0345    2.8757    6.3468 C   0  0  0  0  0  0  0  0  0  0  0  0
    5.4493    2.9165    7.2535 H   0  0  0  0  0  0  0  0  0  0  0  0
    6.7056    4.0057    5.9075 C   0  0  0  0  0  0  0  0  0  0  0  0
    6.6408    4.9256    6.4705 H   0  0  0  0  0  0  0  0  0  0  0  0
    7.4593    3.9614    4.7488 C   0  0  0  0  0  0  0  0  0  0  0  0
    7.9690    4.8521    4.4067 H   0  0  0  0  0  0  0  0  0  0  0  0
    8.6678   -1.3820    0.4785 Cl  0  0  0  0  0  0  0  0  0  0  0  0
    9.5504    0.0346    3.3976 Cl  0  0  0  0  0  0  0  0  0  0  0  0
    7.9190    4.8290   -2.8699 O   0  0  0  0  0  0  0  0  0  0  0  0
    8.0592    5.6837   -3.2885 H   0  0  0  0  0  0  0  0  0  0  0  0
    7.5083    1.1740   -0.4746 P   0  0  0  0  0  4  0  0  0  0  0  0
    8.5050    2.6306    2.4898 P   0  0  0  0  0  4  0  0  0  0  0  0
  1 65  1  0  0  0  0
  1 61  1  0  0  0  0
  2 64  1  0  0  0  0
  3  4  1  0  0  0  0
  3  2  2  0  0  0  0
  5  3  1  0  0  0  0
  6  5  1  0  0  0  0
  7  5  2  0  0  0  0
  7  9  1  0  0  0  0
  8  7  1  0  0  0  0
  9 11  2  0  0  0  0
 10  9  1  0  0  0  0
 11  2  1  0  0  0  0
 11 12  1  0  0  0  0
 13 22  1  0  0  0  0
 14 16  1  0  0  0  0
 14 13  2  0  0  0  0
 15 14  1  0  0  0  0
 16 18  2  0  0  0  0
 17 16  1  0  0  0  0
 18 19  1  0  0  0  0
 18 20  1  0  0  0  0
 20 21  1  0  0  0  0
 22 20  2  0  0  0  0
 22 23  1  0  0  0  0
 24 25  1  6  0  0  0
 24 64  1  0  0  0  0
 24 32  1  0  0  0  0
 26 28  1  0  0  0  0
 26 24  1  0  0  0  0
 27 26  1  0  0  0  0
 29 26  1  0  0  0  0
 29 31  1  0  0  0  0
 30 29  1  0  0  0  0
 32 34  1  0  0  0  0
 32 35  1  0  0  0  0
 33 32  1  0  0  0  0
 35 36  1  0  0  0  0
 35 65  1  0  0  0  0
 37 35  1  0  0  0  0
 38 47  1  0  0  0  0
 39 41  1  0  0  0  0
 39 38  2  0  0  0  0
 40 39  1  0  0  0  0
 41 43  2  0  0  0  0
 42 41  1  0  0  0  0
 43 44  1  0  0  0  0
 43 45  1  0  0  0  0
 45 46  1  0  0  0  0
 47 45  2  0  0  0  0
 47 48  1  0  0  0  0
 49 50  2  0  0  0  0
 49 58  1  0  0  0  0
 50 52  1  0  0  0  0
 51 50  1  0  0  0  0
 52 53  1  0  0  0  0
 52 54  2  0  0  0  0
 54 55  1  0  0  0  0
 56 54  1  0  0  0  0
 56 57  1  0  0  0  0
 58 56  2  0  0  0  0
 59 58  1  0  0  0  0
 60  1  1  0  0  0  0
 62 29  1  0  0  0  0
 63 62  1  0  0  0  0
 64 13  1  0  0  0  0
 64  1  1  0  0  0  0
 65 38  1  0  0  0  0
 65 49  1  0  0  0  0
M  END
$$$$
