CSD_code = OLEFES | q = 0 | S = 0 | Stoichiometry = C13H13F3N2OTi | MND = 6
 OpenBabel04212202083D

 33 36  0  0  1  0  0  0  0  0999 V2000
    2.8595    1.8201    8.0132 Ti  0  0  0  0  0  0  0  0  0  0  0  0
    4.5942    1.8205    7.8131 F   0  0  0  0  0  0  0  0  0  0  0  0
    2.7110    0.0973    8.3950 F   0  0  0  0  0  0  0  0  0  0  0  0
    2.1828    1.8205    6.3974 O   0  0  0  0  0  0  0  0  0  0  0  0
    2.6164    1.8209   10.2710 N   0  0  0  0  0  0  0  0  0  0  0  0
    0.8077    1.8207    8.4822 N   0  0  0  0  0  0  0  0  0  0  0  0
    3.6470    1.8207   11.0938 C   0  0  0  0  0  3  0  0  0  0  0  0
    4.6249    1.8207   10.6232 H   0  0  0  0  0  0  0  0  0  0  0  0
    3.4923    1.8205   12.4766 C   0  0  0  0  0  0  0  0  0  0  0  0
    4.3539    1.8204   13.1250 H   0  0  0  0  0  0  0  0  0  0  0  0
    2.2080    1.8205   12.9967 C   0  0  0  0  0  0  0  0  0  0  0  0
    2.0469    1.8204   14.0647 H   0  0  0  0  0  0  0  0  0  0  0  0
    1.1268    1.8205   12.1290 C   0  0  0  0  0  0  0  0  0  0  0  0
    0.1197    1.8205   12.5144 H   0  0  0  0  0  0  0  0  0  0  0  0
    1.3699    1.8207   10.7564 C   0  0  0  0  0  0  0  0  0  0  0  0
    0.3181    1.8207    9.7196 C   0  0  2  0  0  3  0  0  0  0  0  0
   -1.0574    1.8205    9.9310 C   0  0  0  0  0  0  0  0  0  0  0  0
   -1.4777    1.8205   10.9237 H   0  0  0  0  0  0  0  0  0  0  0  0
   -1.8908    1.8205    8.8186 C   0  0  0  0  0  0  0  0  0  0  0  0
   -2.9628    1.8205    8.9525 H   0  0  0  0  0  0  0  0  0  0  0  0
   -1.3519    1.8205    7.5438 C   0  0  0  0  0  0  0  0  0  0  0  0
   -1.9930    1.8205    6.6767 H   0  0  0  0  0  0  0  0  0  0  0  0
    0.0389    1.8206    7.4121 C   0  0  0  0  0  0  0  0  0  0  0  0
    0.8354    1.8205    6.1064 C   0  0  0  0  0  0  0  0  0  0  0  0
    0.4837    0.5462    5.3120 C   0  0  0  0  0  0  0  0  0  0  0  0
    1.0549    0.5443    4.3871 H   0  0  0  0  0  0  0  0  0  0  0  0
   -0.5777    0.4964    5.0838 H   0  0  0  0  0  0  0  0  0  0  0  0
    0.7783   -0.3202    5.9034 H   0  0  0  0  0  0  0  0  0  0  0  0
    0.4837    3.0948    5.3120 C   0  0  0  0  0  0  0  0  0  0  0  0
    1.0549    3.0967    4.3870 H   0  0  0  0  0  0  0  0  0  0  0  0
   -0.5777    3.1446    5.0838 H   0  0  0  0  0  0  0  0  0  0  0  0
    0.7783    3.9612    5.9033 H   0  0  0  0  0  0  0  0  0  0  0  0
    2.7104    3.5428    8.3963 F   0  0  0  0  0  0  0  0  0  0  0  0
  1  3  1  0  0  0  0
  1 33  1  0  0  0  0
  1  6  1  0  0  0  0
  1  5  1  0  0  0  0
  2  1  1  0  0  0  0
  4  1  1  0  0  0  0
  5 15  1  0  0  0  0
  5  7  1  0  0  0  0
  6 16  1  0  0  0  0
  7  9  1  0  0  0  0
  8  7  1  0  0  0  0
  9 11  2  0  0  0  0
  9 10  1  0  0  0  0
 11 12  1  0  0  0  0
 13 14  1  0  0  0  0
 13 11  1  0  0  0  0
 15 13  2  0  0  0  0
 16 17  1  6  0  0  0
 16 15  1  0  0  0  0
 17 18  1  0  0  0  0
 19 20  1  0  0  0  0
 19 17  2  0  0  0  0
 21 19  1  0  0  0  0
 22 21  1  0  0  0  0
 23 21  2  0  0  0  0
 23  6  1  0  0  0  0
 24  4  1  0  0  0  0
 24 23  1  0  0  0  0
 25 28  1  0  0  0  0
 25 24  1  0  0  0  0
 26 25  1  0  0  0  0
 27 25  1  0  0  0  0
 29 32  1  0  0  0  0
 29 24  1  0  0  0  0
 30 29  1  0  0  0  0
 31 29  1  0  0  0  0
M  END
$$$$
