CSD_code = OLEKUN | q = 0 | S = 0 | Stoichiometry = C28H21AuClP | MND = 2
 OpenBabel04212202083D

 52 57  0  0  1  0  0  0  0  0999 V2000
    5.6819    0.5556    2.8923 Au  0  0  0  0  0  0  0  0  0  0  0  0
    7.4938    0.1170    4.1724 Cl  0  0  0  0  0  0  0  0  0  0  0  0
    3.8581    1.0523    1.6893 P   0  0  0  0  0  4  0  0  0  0  0  0
    2.5429    1.5735    2.7860 C   0  0  0  0  0  0  0  0  0  0  0  0
    1.3655    0.9992    3.0354 C   0  0  0  0  0  0  0  0  0  0  0  0
    0.9743    0.1391    2.5184 H   0  0  0  0  0  0  0  0  0  0  0  0
    0.5886    1.6551    4.1504 C   0  0  1  0  0  0  0  0  0  0  0  0
   -0.3752    1.1867    4.3448 H   0  0  0  0  0  0  0  0  0  0  0  0
    1.5203    1.6352    5.3456 C   0  0  0  0  0  0  0  0  0  0  0  0
    1.2487    1.0963    6.5851 C   0  0  0  0  0  0  0  0  0  0  0  0
    0.2892    0.6441    6.7898 H   0  0  0  0  0  0  0  0  0  0  0  0
    2.2330    1.1381    7.5640 C   0  0  0  0  0  0  0  0  0  0  0  0
    2.0336    0.7143    8.5368 H   0  0  0  0  0  0  0  0  0  0  0  0
    3.4658    1.7080    7.3005 C   0  0  0  0  0  0  0  0  0  0  0  0
    4.2268    1.7230    8.0655 H   0  0  0  0  0  0  0  0  0  0  0  0
    3.7377    2.2575    6.0550 C   0  0  0  0  0  0  0  0  0  0  0  0
    4.7020    2.6961    5.8464 H   0  0  0  0  0  0  0  0  0  0  0  0
    2.7574    2.2208    5.0862 C   0  0  0  0  0  0  0  0  0  0  0  0
    2.8719    2.7550    3.6786 C   0  0  2  0  0  0  0  0  0  0  0  0
    3.8453    3.2007    3.4588 H   0  0  0  0  0  0  0  0  0  0  0  0
    1.7161    3.7082    3.5133 C   0  0  0  0  0  0  0  0  0  0  0  0
    1.7949    5.0328    3.1366 C   0  0  0  0  0  0  0  0  0  0  0  0
    2.7532    5.4871    2.9318 H   0  0  0  0  0  0  0  0  0  0  0  0
    0.6235    5.7688    3.0238 C   0  0  0  0  0  0  0  0  0  0  0  0
    0.6715    6.8069    2.7309 H   0  0  0  0  0  0  0  0  0  0  0  0
   -0.6027    5.1828    3.2849 C   0  0  0  0  0  0  0  0  0  0  0  0
   -1.5070    5.7660    3.1965 H   0  0  0  0  0  0  0  0  0  0  0  0
   -0.6821    3.8482    3.6592 C   0  0  0  0  0  0  0  0  0  0  0  0
   -1.6400    3.3912    3.8606 H   0  0  0  0  0  0  0  0  0  0  0  0
    0.4810    3.1151    3.7693 C   0  0  0  0  0  0  0  0  0  0  0  0
    4.0183    2.4629    0.5639 C   0  0  0  0  0  0  0  0  0  0  0  0
    2.9302    3.2735    0.2502 C   0  0  0  0  0  0  0  0  0  0  0  0
    1.9580    3.0576    0.6723 H   0  0  0  0  0  0  0  0  0  0  0  0
    3.1048    4.3537   -0.5946 C   0  0  0  0  0  0  0  0  0  0  0  0
    2.2634    4.9868   -0.8340 H   0  0  0  0  0  0  0  0  0  0  0  0
    4.3549    4.6251   -1.1297 C   0  0  0  0  0  0  0  0  0  0  0  0
    4.4859    5.4719   -1.7868 H   0  0  0  0  0  0  0  0  0  0  0  0
    5.4379    3.8178   -0.8197 C   0  0  0  0  0  0  0  0  0  0  0  0
    6.4112    4.0331   -1.2343 H   0  0  0  0  0  0  0  0  0  0  0  0
    5.2731    2.7396    0.0308 C   0  0  0  0  0  0  0  0  0  0  0  0
    6.1118    2.1082    0.2961 H   0  0  0  0  0  0  0  0  0  0  0  0
    3.1186   -0.2789    0.7103 C   0  0  0  0  0  0  0  0  0  0  0  0
    2.6923   -0.1210   -0.6028 C   0  0  0  0  0  0  0  0  0  0  0  0
    2.7882    0.8379   -1.0926 H   0  0  0  0  0  0  0  0  0  0  0  0
    2.1482   -1.2005   -1.2769 C   0  0  0  0  0  0  0  0  0  0  0  0
    1.8164   -1.0812   -2.2977 H   0  0  0  0  0  0  0  0  0  0  0  0
    2.0310   -2.4295   -0.6490 C   0  0  0  0  0  0  0  0  0  0  0  0
    1.6072   -3.2676   -1.1817 H   0  0  0  0  0  0  0  0  0  0  0  0
    2.4646   -2.5899    0.6586 C   0  0  0  0  0  0  0  0  0  0  0  0
    2.3801   -3.5505    1.1440 H   0  0  0  0  0  0  0  0  0  0  0  0
    3.0150   -1.5194    1.3363 C   0  0  0  0  0  0  0  0  0  0  0  0
    3.3732   -1.6294    2.3525 H   0  0  0  0  0  0  0  0  0  0  0  0
  1  2  1  0  0  0  0
  3  4  1  0  0  0  0
  3  1  1  0  0  0  0
  4  5  2  0  0  0  0
  4 19  1  0  0  0  0
  5  7  1  0  0  0  0
  6  5  1  0  0  0  0
  7  8  1  1  0  0  0
  7  9  1  0  0  0  0
  9 10  1  0  0  0  0
 10 11  1  0  0  0  0
 10 12  2  0  0  0  0
 12 13  1  0  0  0  0
 14 12  1  0  0  0  0
 14 15  1  0  0  0  0
 16 14  2  0  0  0  0
 17 16  1  0  0  0  0
 18  9  2  0  0  0  0
 18 16  1  0  0  0  0
 19 20  1  6  0  0  0
 19 18  1  0  0  0  0
 21 19  1  0  0  0  0
 21 30  1  0  0  0  0
 22 21  2  0  0  0  0
 23 22  1  0  0  0  0
 24 22  1  0  0  0  0
 24 26  2  0  0  0  0
 25 24  1  0  0  0  0
 26 28  1  0  0  0  0
 27 26  1  0  0  0  0
 28 30  2  0  0  0  0
 28 29  1  0  0  0  0
 30  7  1  0  0  0  0
 31  3  1  0  0  0  0
 32 31  1  0  0  0  0
 32 33  1  0  0  0  0
 34 32  2  0  0  0  0
 35 34  1  0  0  0  0
 36 38  2  0  0  0  0
 36 34  1  0  0  0  0
 37 36  1  0  0  0  0
 38 40  1  0  0  0  0
 39 38  1  0  0  0  0
 40 41  1  0  0  0  0
 40 31  2  0  0  0  0
 42 51  1  0  0  0  0
 42  3  1  0  0  0  0
 43 42  2  0  0  0  0
 44 43  1  0  0  0  0
 45 47  2  0  0  0  0
 45 43  1  0  0  0  0
 46 45  1  0  0  0  0
 47 49  1  0  0  0  0
 48 47  1  0  0  0  0
 49 50  1  0  0  0  0
 49 51  2  0  0  0  0
 51 52  1  0  0  0  0
M  END
$$$$
