CSD_code = OLEQAZ | q = 0 | S = 0 | Stoichiometry = C25H27Cl3N2OTi | MND = 6
 OpenBabel04212202083D

 59 63  0  0  1  0  0  0  0  0999 V2000
    6.9315    3.0297    8.6834 Ti  0  0  0  0  0  0  0  0  0  0  0  0
    6.4782    3.5948    6.5198 Cl  0  0  0  0  0  0  0  0  0  0  0  0
    6.9978    0.8678    8.4955 Cl  0  0  0  0  0  0  0  0  0  0  0  0
    7.2911    3.3230   10.9420 Cl  0  0  0  0  0  0  0  0  0  0  0  0
    8.5903    3.4220    8.4214 O   0  0  0  0  0  0  0  0  0  0  0  0
    6.5114    5.0781    8.9012 N   0  0  0  0  0  0  0  0  0  0  0  0
    4.8667    3.0532    9.1236 N   0  0  0  0  0  0  0  0  0  0  0  0
    9.2080    4.4595    7.9349 C   0  0  0  0  0  0  0  0  0  0  0  0
   10.4385    4.2785    7.2804 C   0  0  0  0  0  0  0  0  0  0  0  0
   10.8197    3.2688    7.2158 H   0  0  0  0  0  0  0  0  0  0  0  0
   11.1128    5.3394    6.7240 C   0  0  0  0  0  0  0  0  0  0  0  0
   12.0502    5.1739    6.2147 H   0  0  0  0  0  0  0  0  0  0  0  0
   10.5781    6.6201    6.8047 C   0  0  0  0  0  0  0  0  0  0  0  0
   11.0908    7.4519    6.3473 H   0  0  0  0  0  0  0  0  0  0  0  0
    9.3869    6.8258    7.4649 C   0  0  0  0  0  0  0  0  0  0  0  0
    8.9729    7.8223    7.4884 H   0  0  0  0  0  0  0  0  0  0  0  0
    8.6774    5.7740    8.0584 C   0  0  0  0  0  0  0  0  0  0  0  0
    7.4262    6.0438    8.7654 C   0  0  1  0  0  3  0  0  0  0  0  0
    7.1680    7.3201    9.3042 C   0  0  0  0  0  0  0  0  0  0  0  0
    7.9343    8.0769    9.2821 H   0  0  0  0  0  0  0  0  0  0  0  0
    5.9496    7.5896    9.8847 C   0  0  0  0  0  0  0  0  0  0  0  0
    5.7466    8.5642   10.3026 H   0  0  0  0  0  0  0  0  0  0  0  0
    4.9798    6.5953    9.9282 C   0  0  0  0  0  0  0  0  0  0  0  0
    4.0120    6.7931   10.3571 H   0  0  0  0  0  0  0  0  0  0  0  0
    5.3113    5.3367    9.4419 C   0  0  0  0  0  0  0  0  0  0  0  0
    4.3927    4.1856    9.4902 C   0  0  1  0  0  3  0  0  0  0  0  0
    2.9847    4.3965    9.9520 C   0  0  0  0  0  0  0  0  0  0  0  0
    2.5215    5.2070    9.3923 H   0  0  0  0  0  0  0  0  0  0  0  0
    2.9807    4.6590   11.0094 H   0  0  0  0  0  0  0  0  0  0  0  0
    2.4053    3.4860    9.8145 H   0  0  0  0  0  0  0  0  0  0  0  0
    4.0627    1.8757    9.1622 C   0  0  0  0  0  0  0  0  0  0  0  0
    3.9256    1.1536   10.3588 C   0  0  0  0  0  0  0  0  0  0  0  0
    3.2021   -0.0315   10.3395 C   0  0  0  0  0  0  0  0  0  0  0  0
    3.1126   -0.6052   11.2482 H   0  0  0  0  0  0  0  0  0  0  0  0
    2.5982   -0.4889    9.1865 C   0  0  0  0  0  0  0  0  0  0  0  0
    2.0465   -1.4167    9.1918 H   0  0  0  0  0  0  0  0  0  0  0  0
    2.6977    0.2557    8.0293 C   0  0  0  0  0  0  0  0  0  0  0  0
    2.2102   -0.0895    7.1314 H   0  0  0  0  0  0  0  0  0  0  0  0
    3.4172    1.4425    7.9945 C   0  0  0  0  0  0  0  0  0  0  0  0
    4.5582    1.5961   11.6566 C   0  0  0  0  0  0  0  0  0  0  0  0
    5.0092    2.5840   11.5305 H   0  0  0  0  0  0  0  0  0  0  0  0
    3.5221    1.6962   12.7801 C   0  0  0  0  0  0  0  0  0  0  0  0
    2.6820    2.3205   12.4807 H   0  0  0  0  0  0  0  0  0  0  0  0
    3.9834    2.1359   13.6610 H   0  0  0  0  0  0  0  0  0  0  0  0
    3.1377    0.7173   13.0541 H   0  0  0  0  0  0  0  0  0  0  0  0
    5.6799    0.6240   12.0330 C   0  0  0  0  0  0  0  0  0  0  0  0
    5.2836   -0.3652   12.2504 H   0  0  0  0  0  0  0  0  0  0  0  0
    6.2108    0.9933   12.9065 H   0  0  0  0  0  0  0  0  0  0  0  0
    6.3885    0.5412   11.2099 H   0  0  0  0  0  0  0  0  0  0  0  0
    3.4780    2.2230    6.7034 C   0  0  0  0  0  0  0  0  0  0  0  0
    4.0506    3.1427    6.8593 H   0  0  0  0  0  0  0  0  0  0  0  0
    4.2065    1.3961    5.6409 C   0  0  0  0  0  0  0  0  0  0  0  0
    5.1734    1.0748    6.0253 H   0  0  0  0  0  0  0  0  0  0  0  0
    4.3757    2.0004    4.7538 H   0  0  0  0  0  0  0  0  0  0  0  0
    3.6305    0.5161    5.3648 H   0  0  0  0  0  0  0  0  0  0  0  0
    2.0772    2.6198    6.2293 C   0  0  0  0  0  0  0  0  0  0  0  0
    1.4772    1.7451    5.9915 H   0  0  0  0  0  0  0  0  0  0  0  0
    2.1552    3.2324    5.3345 H   0  0  0  0  0  0  0  0  0  0  0  0
    1.5575    3.1928    6.9956 H   0  0  0  0  0  0  0  0  0  0  0  0
  1  6  1  0  0  0  0
  1  7  1  0  0  0  0
  1  4  1  0  0  0  0
  2  1  1  0  0  0  0
  3  1  1  0  0  0  0
  5  1  1  0  0  0  0
  6 25  1  0  0  0  0
  7 31  1  0  0  0  0
  7 26  1  0  0  0  0
  8 17  1  0  0  0  0
  8  5  1  0  0  0  0
  9  8  2  0  0  0  0
 10  9  1  0  0  0  0
 11 13  2  0  0  0  0
 11  9  1  0  0  0  0
 12 11  1  0  0  0  0
 13 15  1  0  0  0  0
 14 13  1  0  0  0  0
 15 16  1  0  0  0  0
 15 17  2  0  0  0  0
 18 17  1  6  0  0  0
 18  6  1  0  0  0  0
 18 19  1  0  0  0  0
 19 21  2  0  0  0  0
 20 19  1  0  0  0  0
 21 23  1  0  0  0  0
 21 22  1  0  0  0  0
 23 24  1  0  0  0  0
 25 26  1  0  0  0  0
 25 23  2  0  0  0  0
 26 27  1  6  0  0  0
 27 29  1  0  0  0  0
 28 27  1  0  0  0  0
 30 27  1  0  0  0  0
 31 32  1  0  0  0  0
 32 40  1  0  0  0  0
 33 32  2  0  0  0  0
 33 34  1  0  0  0  0
 35 36  1  0  0  0  0
 35 33  1  0  0  0  0
 37 35  2  0  0  0  0
 38 37  1  0  0  0  0
 39 37  1  0  0  0  0
 39 31  2  0  0  0  0
 40 46  1  0  0  0  0
 40 42  1  0  0  0  0
 41 40  1  0  0  0  0
 42 45  1  0  0  0  0
 42 44  1  0  0  0  0
 43 42  1  0  0  0  0
 46 47  1  0  0  0  0
 46 48  1  0  0  0  0
 49 46  1  0  0  0  0
 50 51  1  0  0  0  0
 50 39  1  0  0  0  0
 52 53  1  0  0  0  0
 52 50  1  0  0  0  0
 54 52  1  0  0  0  0
 55 52  1  0  0  0  0
 56 50  1  0  0  0  0
 56 59  1  0  0  0  0
 57 56  1  0  0  0  0
 58 56  1  0  0  0  0
M  END
$$$$
