CSD_code = OLEVIK | q = 0 | S = 0 | Stoichiometry = C14H23Cl2IrS2 | MND = 8
 OpenBabel04212202083D

 42 41  0  0  1  0  0  0  0  0999 V2000
    6.3660    5.5357   10.6398 Ir  0  0  0  0  0  0  0  0  0  0  0  0
    7.6493    6.3509   12.3994 Cl  0  0  0  0  0 15  0  0  0  0  0  0
    8.3432    5.1592    9.4512 Cl  0  0  0  0  0 15  0  0  0  0  0  0
    6.3710    7.8594    9.6231 S   0  0  0  0  0  0  0  0  0  0  0  0
    7.0241    8.9982    6.9243 S   0  0  0  0  0  0  0  0  0  0  0  0
    4.1984    5.3790   11.0844 C   0  0  1  0  0  0  0  0  0  0  0  0
    4.4333    4.8467    9.7513 C   0  0  0  0  0  0  0  0  0  0  0  0
    5.2778    3.7234    9.8671 C   0  0  0  0  0  0  0  0  0  0  0  0
    5.6445    3.5929   11.2619 C   0  0  2  0  0  0  0  0  0  0  0  0
    4.8799    4.5628   12.0134 C   0  0  2  0  0  3  0  0  0  0  0  0
    3.2399    6.4779   11.4027 C   0  0  0  0  0  0  0  0  0  0  0  0
    3.7161    5.3050    8.5243 C   0  0  0  0  0  0  0  0  0  0  0  0
    5.7019    2.7811    8.7908 C   0  0  0  0  0  0  0  0  0  0  0  0
    6.4018    2.4486   11.8513 C   0  0  0  0  0  0  0  0  0  0  0  0
    4.8254    4.6358   13.5019 C   0  0  0  0  0  0  0  0  0  0  0  0
    6.7133    7.4920    7.8649 C   0  0  0  0  0  0  0  0  0  0  0  0
    8.5615    9.4923    7.7666 C   0  0  0  0  0  0  0  0  0  0  0  0
    8.3235    9.7969    9.2380 C   0  0  0  0  0  0  0  0  0  0  0  0
    8.0059    8.5508   10.0472 C   0  0  0  0  0  0  0  0  0  0  0  0
    3.4742    6.9277   12.3637 H   0  0  0  0  0  0  0  0  0  0  0  0
    3.2756    7.2572   10.6444 H   0  0  0  0  0  0  0  0  0  0  0  0
    2.2223    6.0849   11.4391 H   0  0  0  0  0  0  0  0  0  0  0  0
    3.5765    6.3843    8.5325 H   0  0  0  0  0  0  0  0  0  0  0  0
    4.2595    5.0287    7.6235 H   0  0  0  0  0  0  0  0  0  0  0  0
    2.7291    4.8404    8.4838 H   0  0  0  0  0  0  0  0  0  0  0  0
    5.4264    1.7626    9.0636 H   0  0  0  0  0  0  0  0  0  0  0  0
    5.2316    3.0304    7.8438 H   0  0  0  0  0  0  0  0  0  0  0  0
    6.7826    2.8142    8.6553 H   0  0  0  0  0  0  0  0  0  0  0  0
    5.7147    1.6333   12.0870 H   0  0  0  0  0  0  0  0  0  0  0  0
    7.1476    2.0796   11.1515 H   0  0  0  0  0  0  0  0  0  0  0  0
    6.9038    2.7531   12.7665 H   0  0  0  0  0  0  0  0  0  0  0  0
    4.7126    3.6359   13.9182 H   0  0  0  0  0  0  0  0  0  0  0  0
    5.7467    5.0662   13.8966 H   0  0  0  0  0  0  0  0  0  0  0  0
    3.9927    5.2526   13.8288 H   0  0  0  0  0  0  0  0  0  0  0  0
    7.5703    6.8180    7.8191 H   0  0  0  0  0  0  0  0  0  0  0  0
    5.8266    7.0264    7.4456 H   0  0  0  0  0  0  0  0  0  0  0  0
    9.2854    8.6858    7.6403 H   0  0  0  0  0  0  0  0  0  0  0  0
    8.9081   10.3770    7.2350 H   0  0  0  0  0  0  0  0  0  0  0  0
    9.2307   10.2445    9.6520 H   0  0  0  0  0  0  0  0  0  0  0  0
    7.5115   10.5214    9.3344 H   0  0  0  0  0  0  0  0  0  0  0  0
    7.9513    8.7691   11.1125 H   0  0  0  0  0  0  0  0  0  0  0  0
    8.7411    7.7610    9.8827 H   0  0  0  0  0  0  0  0  0  0  0  0
  1  6  1  0  0  0  0
  1  9  1  0  0  0  0
  4 19  1  0  0  0  0
  5 17  1  0  0  0  0
  5 16  1  0  0  0  0
  6 11  1  1  0  0  0
  6 10  1  0  0  0  0
  7  8  2  0  0  0  0
  7  6  1  0  0  0  0
  8  9  1  0  0  0  0
  9 14  1  1  0  0  0
  9 10  1  0  0  0  0
 10 15  1  1  0  0  0
 11 22  1  0  0  0  0
 11 20  1  0  0  0  0
 12 23  1  0  0  0  0
 12  7  1  0  0  0  0
 13 26  1  0  0  0  0
 13  8  1  0  0  0  0
 14 29  1  0  0  0  0
 14 31  1  0  0  0  0
 15 34  1  0  0  0  0
 15 33  1  0  0  0  0
 15 32  1  0  0  0  0
 16  4  1  0  0  0  0
 17 18  1  0  0  0  0
 18 40  1  0  0  0  0
 18 39  1  0  0  0  0
 18 19  1  0  0  0  0
 19 41  1  0  0  0  0
 21 11  1  0  0  0  0
 24 12  1  0  0  0  0
 25 12  1  0  0  0  0
 27 13  1  0  0  0  0
 28 13  1  0  0  0  0
 30 14  1  0  0  0  0
 35 16  1  0  0  0  0
 36 16  1  0  0  0  0
 37 17  1  0  0  0  0
 38 17  1  0  0  0  0
 42 19  1  0  0  0  0
M  END
$$$$
