CSD_code = OLOHIH | q = 0 | S = 0 | Stoichiometry = C25H20ClN2PPdS2 | MND = 4
 OpenBabel04212202083D

 52 58  0  0  1  0  0  0  0  0999 V2000
   -0.7747    6.8235    3.9746 Pd  0  0  0  0  0  0  0  0  0  0  0  0
   -2.5085    7.9747    2.9830 Cl  0  0  0  0  0  0  0  0  0  0  0  0
    1.1396    6.7313    2.1852 P   0  0  0  0  0  0  0  0  0  0  0  0
   -0.4313    5.5562    1.9189 S   0  0  0  0  0  0  0  0  0  0  0  0
   -1.6848    7.1842    6.0593 S   0  0  0  0  0  0  0  0  0  0  0  0
   -1.4555    5.2943    7.9439 N   0  0  0  0  0  0  0  0  0  0  0  0
   -0.9896    4.4345    8.2143 H   0  0  0  0  0  0  0  0  0  0  0  0
    2.2803    6.1805    3.3038 N   0  0  0  0  0  0  0  0  0  0  0  0
    3.1684    5.8820    2.9172 H   0  0  0  0  0  0  0  0  0  0  0  0
    0.2973    5.3798    6.2923 C   0  0  0  0  0  0  0  0  0  0  0  0
    0.6246    5.8414    5.0046 C   0  0  0  0  0  0  0  0  0  0  0  0
    1.9080    5.5778    4.5172 C   0  0  0  0  0  0  0  0  0  0  0  0
    2.8102    4.8110    5.2382 C   0  0  0  0  0  0  0  0  0  0  0  0
    3.7953    4.6124    4.8391 H   0  0  0  0  0  0  0  0  0  0  0  0
    2.4463    4.3123    6.4825 C   0  0  0  0  0  0  0  0  0  0  0  0
    3.1499    3.7128    7.0402 H   0  0  0  0  0  0  0  0  0  0  0  0
    1.2107    4.6004    7.0194 C   0  0  0  0  0  0  0  0  0  0  0  0
    0.9772    4.2455    8.0138 H   0  0  0  0  0  0  0  0  0  0  0  0
    0.7865    8.4996    2.5245 C   0  0  0  0  0  0  0  0  0  0  0  0
    0.1747    9.2244    1.5091 C   0  0  0  0  0  0  0  0  0  0  0  0
    0.0538    8.7713    0.5329 H   0  0  0  0  0  0  0  0  0  0  0  0
   -0.2982   10.4996    1.7660 C   0  0  0  0  0  0  0  0  0  0  0  0
   -0.7880   11.0573    0.9828 H   0  0  0  0  0  0  0  0  0  0  0  0
   -0.1734   11.0404    3.0341 C   0  0  0  0  0  0  0  0  0  0  0  0
   -0.5698   12.0231    3.2407 H   0  0  0  0  0  0  0  0  0  0  0  0
    0.4458   10.3224    4.0483 C   0  0  0  0  0  0  0  0  0  0  0  0
    0.5441   10.7536    5.0339 H   0  0  0  0  0  0  0  0  0  0  0  0
    0.9267    9.0460    3.8069 C   0  0  0  0  0  0  0  0  0  0  0  0
    1.4581    8.4951    4.5838 H   0  0  0  0  0  0  0  0  0  0  0  0
    2.1614    6.7754    0.6841 C   0  0  0  0  0  0  0  0  0  0  0  0
    3.2271    7.6668    0.6311 C   0  0  0  0  0  0  0  0  0  0  0  0
    3.4163    8.3195    1.4736 H   0  0  0  0  0  0  0  0  0  0  0  0
    4.0245    7.7120   -0.4971 C   0  0  0  0  0  0  0  0  0  0  0  0
    4.8536    8.4021   -0.5446 H   0  0  0  0  0  0  0  0  0  0  0  0
    3.7550    6.8733   -1.5683 C   0  0  0  0  0  0  0  0  0  0  0  0
    4.3773    6.9128   -2.4499 H   0  0  0  0  0  0  0  0  0  0  0  0
    2.6887    5.9901   -1.5152 C   0  0  0  0  0  0  0  0  0  0  0  0
    2.4786    5.3436   -2.3540 H   0  0  0  0  0  0  0  0  0  0  0  0
    1.8870    5.9405   -0.3883 C   0  0  0  0  0  0  0  0  0  0  0  0
    1.0435    5.2666   -0.3264 H   0  0  0  0  0  0  0  0  0  0  0  0
   -0.9611    5.8679    6.8343 C   0  0  2  0  0  3  0  0  0  0  0  0
   -2.5927    5.5598    8.7088 C   0  0  0  0  0  0  0  0  0  0  0  0
   -3.2501    6.7862    8.7263 C   0  0  0  0  0  0  0  0  0  0  0  0
   -2.8932    7.6034    8.1247 H   0  0  0  0  0  0  0  0  0  0  0  0
   -4.3641    6.9554    9.5291 C   0  0  0  0  0  0  0  0  0  0  0  0
   -4.8690    7.9093    9.5314 H   0  0  0  0  0  0  0  0  0  0  0  0
   -4.8305    5.9229   10.3239 C   0  0  0  0  0  0  0  0  0  0  0  0
   -5.7023    6.0636   10.9440 H   0  0  0  0  0  0  0  0  0  0  0  0
   -4.1662    4.7066   10.3235 C   0  0  0  0  0  0  0  0  0  0  0  0
   -4.5158    3.8958   10.9447 H   0  0  0  0  0  0  0  0  0  0  0  0
   -3.0542    4.5260    9.5267 C   0  0  0  0  0  0  0  0  0  0  0  0
   -2.5390    3.5749    9.5268 H   0  0  0  0  0  0  0  0  0  0  0  0
  1 11  1  0  0  0  0
  1  5  1  0  0  0  0
  2  1  1  0  0  0  0
  3 19  1  0  0  0  0
  3  8  1  0  0  0  0
  3  1  1  0  0  0  0
  4  3  1  0  0  0  0
  4  1  1  0  0  0  0
  5 41  1  0  0  0  0
  6  7  1  0  0  0  0
  6 42  1  0  0  0  0
  8 12  1  0  0  0  0
  9  8  1  0  0  0  0
 10 41  1  0  0  0  0
 10 17  1  0  0  0  0
 11 10  2  0  0  0  0
 12 11  1  0  0  0  0
 12 13  2  0  0  0  0
 13 15  1  0  0  0  0
 14 13  1  0  0  0  0
 15 17  2  0  0  0  0
 15 16  1  0  0  0  0
 17 18  1  0  0  0  0
 19 28  1  0  0  0  0
 20 22  1  0  0  0  0
 20 19  2  0  0  0  0
 21 20  1  0  0  0  0
 22 24  2  0  0  0  0
 23 22  1  0  0  0  0
 24 25  1  0  0  0  0
 24 26  1  0  0  0  0
 26 27  1  0  0  0  0
 28 26  2  0  0  0  0
 28 29  1  0  0  0  0
 30  3  1  0  0  0  0
 31 30  1  0  0  0  0
 31 32  1  0  0  0  0
 33 31  2  0  0  0  0
 34 33  1  0  0  0  0
 35 37  2  0  0  0  0
 35 33  1  0  0  0  0
 36 35  1  0  0  0  0
 37 39  1  0  0  0  0
 38 37  1  0  0  0  0
 39 40  1  0  0  0  0
 39 30  2  0  0  0  0
 41  6  1  1  0  0  0
 42 43  2  0  0  0  0
 42 51  1  0  0  0  0
 43 45  1  0  0  0  0
 44 43  1  0  0  0  0
 45 46  1  0  0  0  0
 45 47  2  0  0  0  0
 47 48  1  0  0  0  0
 49 47  1  0  0  0  0
 49 50  1  0  0  0  0
 51 52  1  0  0  0  0
 51 49  2  0  0  0  0
M  END
$$$$
