CSD_code = OLOLEG | q = 0 | S = 0 | Stoichiometry = C17H23Cl2N3O2Zn | MND = 5
 OpenBabel04212202083D

 48 52  0  0  1  0  0  0  0  0999 V2000
    1.9274   -0.3041    2.7881 Zn  0  0  0  0  0  0  0  0  0  0  0  0
    0.6689   -0.4706    0.9397 Cl  0  0  0  0  0  0  0  0  0  0  0  0
    2.7709    1.3123    4.0073 Cl  0  0  0  0  0  0  0  0  0  0  0  0
    5.0090   -2.9028    1.3437 O   0  0  0  0  0  0  0  0  0  0  0  0
   -1.2038   -2.4397    4.7386 O   0  0  0  0  0  0  0  0  0  0  0  0
    3.8570   -1.0598    1.8590 N   0  0  0  0  0  0  0  0  0  0  0  0
    1.9355   -2.4296    3.0589 N   0  0  0  0  0  0  0  0  0  0  0  0
    0.1645   -0.7921    4.1118 N   0  0  2  0  0  0  0  0  0  0  0  0
    5.0585   -0.5421    1.2459 C   0  0  1  0  0  0  0  0  0  0  0  0
    5.5581    0.1006    1.9785 H   0  0  0  0  0  0  0  0  0  0  0  0
    5.8753   -1.8308    0.9571 C   0  0  0  0  0  0  0  0  0  0  0  0
    6.1228   -1.9493   -0.1001 H   0  0  0  0  0  0  0  0  0  0  0  0
    6.7898   -1.8992    1.5519 H   0  0  0  0  0  0  0  0  0  0  0  0
    3.9132   -2.3302    1.8510 C   0  0  0  0  0  0  0  0  0  0  0  0
    2.8190   -3.1397    2.3765 C   0  0  0  0  0  0  0  0  0  0  0  0
    2.6564   -4.5056    2.1612 C   0  0  0  0  0  0  0  0  0  0  0  0
    3.3958   -5.0570    1.6032 H   0  0  0  0  0  0  0  0  0  0  0  0
    1.5173   -5.1131    2.6701 C   0  0  0  0  0  0  0  0  0  0  0  0
    1.3550   -6.1700    2.5206 H   0  0  0  0  0  0  0  0  0  0  0  0
    0.5764   -4.3544    3.3512 C   0  0  0  0  0  0  0  0  0  0  0  0
   -0.3340   -4.7850    3.7359 H   0  0  0  0  0  0  0  0  0  0  0  0
    0.8308   -2.9957    3.5190 C   0  0  0  0  0  0  0  0  0  0  0  0
   -0.0771   -2.0402    4.1429 C   0  0  2  0  0  3  0  0  0  0  0  0
   -1.8624   -1.2488    5.1876 C   0  0  0  0  0  0  0  0  0  0  0  0
   -2.0120   -1.3289    6.2661 H   0  0  0  0  0  0  0  0  0  0  0  0
   -2.8328   -1.1859    4.6907 H   0  0  0  0  0  0  0  0  0  0  0  0
   -0.9053   -0.0949    4.7842 C   0  0  1  0  0  0  0  0  0  0  0  0
   -1.3763    0.5777    4.0590 H   0  0  0  0  0  0  0  0  0  0  0  0
    4.7636    0.3013   -0.0121 C   0  0  0  0  0  0  0  0  0  0  0  0
    5.7355    0.4826   -0.4899 H   0  0  0  0  0  0  0  0  0  0  0  0
    4.1506    1.6403    0.3834 C   0  0  0  0  0  0  0  0  0  0  0  0
    3.9751    2.2461   -0.5018 H   0  0  0  0  0  0  0  0  0  0  0  0
    4.8051    2.1874    1.0579 H   0  0  0  0  0  0  0  0  0  0  0  0
    3.1972    1.4826    0.8844 H   0  0  0  0  0  0  0  0  0  0  0  0
    3.8491   -0.4331   -0.9895 C   0  0  0  0  0  0  0  0  0  0  0  0
    4.2329   -1.4200   -1.2429 H   0  0  0  0  0  0  0  0  0  0  0  0
    3.7616    0.1404   -1.9087 H   0  0  0  0  0  0  0  0  0  0  0  0
    2.8546   -0.5443   -0.5638 H   0  0  0  0  0  0  0  0  0  0  0  0
   -0.3535    0.7645    5.9378 C   0  0  0  0  0  0  0  0  0  0  0  0
    0.3699    1.4467    5.4813 H   0  0  0  0  0  0  0  0  0  0  0  0
   -1.4760    1.5785    6.5734 C   0  0  0  0  0  0  0  0  0  0  0  0
   -1.0675    2.2346    7.3372 H   0  0  0  0  0  0  0  0  0  0  0  0
   -2.2168    0.9314    7.0396 H   0  0  0  0  0  0  0  0  0  0  0  0
   -1.9758    2.1923    5.8281 H   0  0  0  0  0  0  0  0  0  0  0  0
    0.3927   -0.0679    6.9765 C   0  0  0  0  0  0  0  0  0  0  0  0
    1.2078   -0.6114    6.5041 H   0  0  0  0  0  0  0  0  0  0  0  0
   -0.2636   -0.7764    7.4793 H   0  0  0  0  0  0  0  0  0  0  0  0
    0.8193    0.5906    7.7284 H   0  0  0  0  0  0  0  0  0  0  0  0
  1  7  1  0  0  0  0
  1  3  1  0  0  0  0
  2  1  1  0  0  0  0
  4 14  1  0  0  0  0
  5 24  1  0  0  0  0
  6  1  1  0  0  0  0
  7 22  1  0  0  0  0
  8  1  1  6  0  0  0
  8 23  1  0  0  0  0
  8 27  1  0  0  0  0
  9  6  1  0  0  0  0
  9 10  1  1  0  0  0
 11  9  1  0  0  0  0
 11  4  1  0  0  0  0
 11 13  1  0  0  0  0
 12 11  1  0  0  0  0
 14  6  1  0  0  0  0
 14 15  2  0  0  0  0
 15  7  1  0  0  0  0
 16 15  1  0  0  0  0
 16 18  2  0  0  0  0
 17 16  1  0  0  0  0
 18 20  1  0  0  0  0
 19 18  1  0  0  0  0
 20 22  2  0  0  0  0
 20 21  1  0  0  0  0
 23 22  1  6  0  0  0
 23  5  1  0  0  0  0
 24 25  1  0  0  0  0
 26 24  1  0  0  0  0
 27 28  1  6  0  0  0
 27 24  1  0  0  0  0
 27 39  1  0  0  0  0
 29 31  1  0  0  0  0
 29  9  1  0  0  0  0
 30 29  1  0  0  0  0
 31 34  1  0  0  0  0
 31 33  1  0  0  0  0
 32 31  1  0  0  0  0
 35 38  1  0  0  0  0
 35 29  1  0  0  0  0
 36 35  1  0  0  0  0
 37 35  1  0  0  0  0
 39 41  1  0  0  0  0
 39 45  1  0  0  0  0
 40 39  1  0  0  0  0
 41 43  1  0  0  0  0
 41 42  1  0  0  0  0
 44 41  1  0  0  0  0
 45 47  1  0  0  0  0
 45 48  1  0  0  0  0
 46 45  1  0  0  0  0
M  END
$$$$
