CSD_code = OLOPAH | q = 0 | S = 0 | Stoichiometry = C14H17ClN2OPd | MND = 4
 OpenBabel04212202083D

 36 38  0  0  1  0  0  0  0  0999 V2000
    1.4884    3.8706    2.9327 Pd  0  0  1  0  0  0  0  0  0  0  0  0
    0.4085    2.0034    2.4384 Cl  0  0  0  0  0  0  0  0  0  0  0  0
    2.7334    5.2962    3.6371 N   0  0  0  0  0  0  0  0  0  0  0  0
    3.3153    3.5795    1.6891 N   0  0  0  0  0  0  0  0  0  0  0  0
    2.6837    1.8553   -1.4005 O   0  0  0  0  0  0  0  0  0  0  0  0
    2.4164    6.2736    4.4863 C   0  0  0  0  0  0  0  0  0  0  0  0
    1.3660    6.5198    4.5657 H   0  0  0  0  0  0  0  0  0  0  0  0
    3.3503    6.9664    5.2323 C   0  0  0  0  0  0  0  0  0  0  0  0
    3.0344    7.7492    5.9029 H   0  0  0  0  0  0  0  0  0  0  0  0
    4.6904    6.6288    5.1007 C   0  0  0  0  0  0  0  0  0  0  0  0
    5.4508    7.1322    5.6773 H   0  0  0  0  0  0  0  0  0  0  0  0
    5.0320    5.6401    4.1980 C   0  0  0  0  0  0  0  0  0  0  0  0
    6.0681    5.3769    4.0646 H   0  0  0  0  0  0  0  0  0  0  0  0
    4.0406    4.9911    3.4613 C   0  0  0  0  0  0  0  0  0  0  0  0
    4.3620    4.0135    2.4084 C   0  0  0  0  0  0  0  0  0  0  0  0
    5.6605    3.6105    2.0942 C   0  0  0  0  0  0  0  0  0  0  0  0
    6.5046    3.9317    2.6815 H   0  0  0  0  0  0  0  0  0  0  0  0
    5.8559    2.7744    1.0084 C   0  0  0  0  0  0  0  0  0  0  0  0
    6.8508    2.4388    0.7560 H   0  0  0  0  0  0  0  0  0  0  0  0
    4.7717    2.3956    0.2369 C   0  0  0  0  0  0  0  0  0  0  0  0
    4.8808    1.7816   -0.6405 H   0  0  0  0  0  0  0  0  0  0  0  0
    3.5016    2.8268    0.6098 C   0  0  0  0  0  0  0  0  0  0  0  0
   -0.0726    4.3219    4.1883 C   0  0  0  0  0  0  0  0  0  0  0  0
   -0.4716    5.2987    3.8731 H   0  0  0  0  0  0  0  0  0  0  0  0
    0.2878    4.3794    5.2254 H   0  0  0  0  0  0  0  0  0  0  0  0
   -0.8831    3.5916    4.1442 H   0  0  0  0  0  0  0  0  0  0  0  0
    2.2748    2.4868   -0.2003 C   0  0  1  0  0  0  0  0  0  0  0  0
    1.6610    1.7912    0.4004 H   0  0  0  0  0  0  0  0  0  0  0  0
    1.4408    3.7540   -0.4537 C   0  0  0  0  0  0  0  0  0  0  0  0
    0.5571    3.5047   -1.0345 H   0  0  0  0  0  0  0  0  0  0  0  0
    2.0305    4.4896   -0.9977 H   0  0  0  0  0  0  0  0  0  0  0  0
    1.1078    4.1764    0.5109 H   0  0  0  0  0  0  0  0  0  0  0  0
    1.6988    1.0387   -1.9835 C   0  0  0  0  0  0  0  0  0  0  0  0
    0.8435    1.6201   -2.3435 H   0  0  0  0  0  0  0  0  0  0  0  0
    1.3388    0.2851   -1.2738 H   0  0  0  0  0  0  0  0  0  0  0  0
    2.1748    0.5458   -2.8297 H   0  0  0  0  0  0  0  0  0  0  0  0
  1  2  1  1  0  0  0
  1  3  1  0  0  0  0
  1 23  1  0  0  0  0
  3  6  1  0  0  0  0
  4 15  1  0  0  0  0
  4  1  1  0  0  0  0
  5 27  1  0  0  0  0
  6  7  1  0  0  0  0
  6  8  2  0  0  0  0
  8  9  1  0  0  0  0
 10  8  1  0  0  0  0
 10 11  1  0  0  0  0
 12 10  2  0  0  0  0
 13 12  1  0  0  0  0
 14  3  1  0  0  0  0
 14 12  1  0  0  0  0
 15 14  2  0  0  0  0
 16 15  1  0  0  0  0
 16 17  1  0  0  0  0
 18 16  2  0  0  0  0
 19 18  1  0  0  0  0
 20 22  2  0  0  0  0
 20 18  1  0  0  0  0
 21 20  1  0  0  0  0
 22  4  1  0  0  0  0
 23 25  1  0  0  0  0
 24 23  1  0  0  0  0
 26 23  1  0  0  0  0
 27 28  1  1  0  0  0
 27 22  1  0  0  0  0
 29 27  1  0  0  0  0
 29 32  1  0  0  0  0
 30 29  1  0  0  0  0
 31 29  1  0  0  0  0
 33  5  1  0  0  0  0
 33 35  1  0  0  0  0
 34 33  1  0  0  0  0
 36 33  1  0  0  0  0
M  END
$$$$
