CSD_code = OLOQUC | q = 0 | S = 0 | Stoichiometry = C19H23ClNORh | MND = 8
 OpenBabel04212202083D

 46 48  0  0  1  0  0  0  0  0999 V2000
    9.0241    1.4710   13.0067 Rh  0  0  1  0  0  0  0  0  0  0  0  0
    8.2259   -0.0630   11.4693 Cl  0  0  0  0  0 15  0  0  0  0  0  0
   10.6142    1.8243   11.9025 C   0  0  0  0  0  0  0  0  0  0  0  0
   11.3828    0.9159   11.7296 O   0  0  0  0  0  0  0  0  0  0  0  0
   10.9020    3.2180   11.5014 C   0  0  0  0  0  0  0  0  0  0  0  0
   12.2466    3.5759   11.3885 C   0  0  0  0  0  0  0  0  0  0  0  0
   12.9947    2.8250   11.5964 H   0  0  0  0  0  0  0  0  0  0  0  0
   12.6114    4.8512   11.0081 C   0  0  0  0  0  0  0  0  0  0  0  0
   13.6554    5.1134   10.9267 H   0  0  0  0  0  0  0  0  0  0  0  0
   11.6321    5.7914   10.7093 C   0  0  0  0  0  0  0  0  0  0  0  0
   11.9148    6.7859   10.3979 H   0  0  0  0  0  0  0  0  0  0  0  0
   10.2995    5.4519   10.8048 C   0  0  0  0  0  0  0  0  0  0  0  0
    9.5380    6.1821   10.5703 H   0  0  0  0  0  0  0  0  0  0  0  0
    9.9089    4.1744   11.2222 C   0  0  0  0  0  0  0  0  0  0  0  0
    8.5066    3.8753   11.3448 C   0  0  0  0  0  3  0  0  0  0  0  0
    7.8217    4.5743   10.8598 H   0  0  0  0  0  0  0  0  0  0  0  0
    8.0330    2.8892   12.0130 N   0  0  0  0  0  0  0  0  0  0  0  0
    6.6055    2.6904   12.0285 C   0  0  0  0  0  0  0  0  0  0  0  0
    6.0769    3.5015   11.5168 H   0  0  0  0  0  0  0  0  0  0  0  0
    6.2457    2.6087   13.0561 H   0  0  0  0  0  0  0  0  0  0  0  0
    6.3954    1.7407   11.5236 H   0  0  0  0  0  0  0  0  0  0  0  0
   10.3449    1.1862   14.7869 C   0  0  1  0  0  3  0  0  0  0  0  0
    9.5620    0.0214   14.5698 C   0  0  1  0  0  0  0  0  0  0  0  0
    8.1833    0.3210   14.9685 C   0  0  0  0  0  0  0  0  0  0  0  0
    8.1091    1.6742   15.2605 C   0  0  0  0  0  0  0  0  0  0  0  0
    9.4290    2.2593   15.0230 C   0  0  2  0  0  0  0  0  0  0  0  0
   11.8403    1.2480   14.8160 C   0  0  0  0  0  0  0  0  0  0  0  0
   12.1946    0.8689   15.7764 H   0  0  0  0  0  0  0  0  0  0  0  0
   12.1978    2.2687   14.6969 H   0  0  0  0  0  0  0  0  0  0  0  0
   12.2736    0.6335   14.0291 H   0  0  0  0  0  0  0  0  0  0  0  0
   10.0933   -1.3658   14.3803 C   0  0  0  0  0  0  0  0  0  0  0  0
   10.3046   -1.8187   15.3516 H   0  0  0  0  0  0  0  0  0  0  0  0
   11.0115   -1.3474   13.7975 H   0  0  0  0  0  0  0  0  0  0  0  0
    9.3686   -1.9867   13.8588 H   0  0  0  0  0  0  0  0  0  0  0  0
    7.1195   -0.7208   15.0924 C   0  0  0  0  0  0  0  0  0  0  0  0
    7.4045   -1.4513   15.8508 H   0  0  0  0  0  0  0  0  0  0  0  0
    6.9933   -1.2480   14.1472 H   0  0  0  0  0  0  0  0  0  0  0  0
    6.1659   -0.2813   15.3742 H   0  0  0  0  0  0  0  0  0  0  0  0
    6.9474    2.4327   15.8227 C   0  0  0  0  0  0  0  0  0  0  0  0
    7.0699    2.5404   16.9025 H   0  0  0  0  0  0  0  0  0  0  0  0
    6.0085    1.9142   15.6396 H   0  0  0  0  0  0  0  0  0  0  0  0
    6.8824    3.4338   15.3983 H   0  0  0  0  0  0  0  0  0  0  0  0
    9.8049    3.6535   15.4285 C   0  0  0  0  0  0  0  0  0  0  0  0
    9.9598    3.6953   16.5086 H   0  0  0  0  0  0  0  0  0  0  0  0
    9.0209    4.3638   15.1726 H   0  0  0  0  0  0  0  0  0  0  0  0
   10.7235    3.9703   14.9384 H   0  0  0  0  0  0  0  0  0  0  0  0
  1  3  1  6  0  0  0
  1 23  1  0  0  0  0
  1 26  1  0  0  0  0
  4  3  2  0  0  0  0
  5  3  1  0  0  0  0
  6  5  1  0  0  0  0
  6  7  1  0  0  0  0
  8  6  2  0  0  0  0
  9  8  1  0  0  0  0
 10 12  2  0  0  0  0
 10  8  1  0  0  0  0
 11 10  1  0  0  0  0
 12 14  1  0  0  0  0
 13 12  1  0  0  0  0
 14 15  1  0  0  0  0
 14  5  2  0  0  0  0
 15 17  1  0  0  0  0
 16 15  1  0  0  0  0
 17 18  1  0  0  0  0
 17  1  1  0  0  0  0
 18 20  1  0  0  0  0
 19 18  1  0  0  0  0
 21 18  1  0  0  0  0
 22 27  1  1  0  0  0
 22 26  1  0  0  0  0
 23 31  1  6  0  0  0
 23 22  1  0  0  0  0
 23 24  1  0  0  0  0
 24 35  1  0  0  0  0
 24 25  2  0  0  0  0
 25 39  1  0  0  0  0
 26 25  1  0  0  0  0
 26 43  1  1  0  0  0
 27 28  1  0  0  0  0
 29 27  1  0  0  0  0
 30 27  1  0  0  0  0
 31 32  1  0  0  0  0
 33 31  1  0  0  0  0
 34 31  1  0  0  0  0
 35 38  1  0  0  0  0
 35 36  1  0  0  0  0
 37 35  1  0  0  0  0
 39 40  1  0  0  0  0
 41 39  1  0  0  0  0
 42 39  1  0  0  0  0
 43 44  1  0  0  0  0
 45 43  1  0  0  0  0
 46 43  1  0  0  0  0
M  END
$$$$
