CSD_code = OLOWOB | q = 1 | S = 0 | Stoichiometry = C19H17ClCoN4O2(1+) | MND = 6
 OpenBabel04212202083D

 44 50  0  0  1  0  0  0  0  0999 V2000
    2.3779    2.4975    2.8609 Co  0  0  0  0  0  0  0  0  0  0  0  0
    3.3422    1.1047    1.5220 Cl  0  0  0  0  0  0  0  0  0  0  0  0
    2.6773    4.0542    1.8478 O   0  0  0  0  0  0  0  0  0  0  0  0
    2.3443    6.2559    1.8409 O   0  0  0  0  0  0  0  0  0  0  0  0
    1.5662    3.6599    4.0210 N   0  0  0  0  0  0  0  0  0  0  0  0
    0.7329    2.0769    2.0084 N   0  0  0  0  0  0  0  0  0  0  0  0
    4.0178    2.6215    3.8156 N   0  0  0  0  0  0  0  0  0  0  0  0
    1.8821    1.0988    4.1803 N   0  0  1  0  0  4  0  0  0  0  0  0
    1.1507    1.7184    5.3199 C   0  0  0  0  0  0  0  0  0  0  0  0
    1.0393    3.2104    5.1532 C   0  0  2  0  0  3  0  0  0  0  0  0
    0.4553    4.0969    6.0462 C   0  0  0  0  0  0  0  0  0  0  0  0
    0.4356    5.4504    5.7281 C   0  0  0  0  0  0  0  0  0  0  0  0
    0.9935    5.8932    4.5354 C   0  0  0  0  0  0  0  0  0  0  0  0
    1.5601    4.9502    3.6953 C   0  0  0  0  0  0  0  0  0  0  0  0
    2.2446    5.1651    2.3419 C   0  0  0  0  0  0  0  0  0  0  0  0
    1.0254    0.1611    3.4382 C   0  0  0  0  0  0  0  0  0  0  0  0
    0.2002    0.9222    2.4366 C   0  0  2  0  0  3  0  0  0  0  0  0
   -0.9830    0.4292    1.9112 C   0  0  0  0  0  0  0  0  0  0  0  0
   -1.6202    1.1339    0.9014 C   0  0  0  0  0  0  0  0  0  0  0  0
   -1.0455    2.3107    0.4484 C   0  0  0  0  0  0  0  0  0  0  0  0
    0.1301    2.7503    1.0315 C   0  0  0  0  0  0  0  0  0  0  0  0
    3.1619    0.5184    4.6144 C   0  0  0  0  0  0  0  0  0  0  0  0
    4.2120    1.5944    4.6567 C   0  0  1  0  0  3  0  0  0  0  0  0
    5.3538    1.4989    5.4351 C   0  0  0  0  0  0  0  0  0  0  0  0
    6.3305    2.4768    5.3255 C   0  0  0  0  0  0  0  0  0  0  0  0
    6.1317    3.5168    4.4317 C   0  0  0  0  0  0  0  0  0  0  0  0
    4.9592    3.5546    3.6978 C   0  0  0  0  0  0  0  0  0  0  0  0
    1.6642    1.4979    6.2615 H   0  0  0  0  0  0  0  0  0  0  0  0
    0.1436    1.2944    5.3915 H   0  0  0  0  0  0  0  0  0  0  0  0
    0.0267    3.7384    6.9686 H   0  0  0  0  0  0  0  0  0  0  0  0
   -0.0132    6.1542    6.4116 H   0  0  0  0  0  0  0  0  0  0  0  0
    1.0013    6.9324    4.2484 H   0  0  0  0  0  0  0  0  0  0  0  0
    0.4053   -0.4508    4.1026 H   0  0  0  0  0  0  0  0  0  0  0  0
    1.6724   -0.5004    2.8504 H   0  0  0  0  0  0  0  0  0  0  0  0
   -1.3852   -0.5023    2.2767 H   0  0  0  0  0  0  0  0  0  0  0  0
   -2.5367    0.7635    0.4702 H   0  0  0  0  0  0  0  0  0  0  0  0
   -1.4923    2.8820   -0.3485 H   0  0  0  0  0  0  0  0  0  0  0  0
    0.6156    3.6553    0.6935 H   0  0  0  0  0  0  0  0  0  0  0  0
    3.4922   -0.1900    3.8458 H   0  0  0  0  0  0  0  0  0  0  0  0
    3.0761   -0.0109    5.5698 H   0  0  0  0  0  0  0  0  0  0  0  0
    5.4800    0.6607    6.1023 H   0  0  0  0  0  0  0  0  0  0  0  0
    7.2314    2.4184    5.9154 H   0  0  0  0  0  0  0  0  0  0  0  0
    6.8714    4.2885    4.2962 H   0  0  0  0  0  0  0  0  0  0  0  0
    4.7769    4.3417    2.9797 H   0  0  0  0  0  0  0  0  0  0  0  0
  1  7  1  0  0  0  0
  1  5  1  0  0  0  0
  1  8  1  0  0  0  0
  2  1  1  0  0  0  0
  3 15  1  0  0  0  0
  3  1  1  0  0  0  0
  4 15  2  0  0  0  0
  5 10  1  0  0  0  0
  6 17  1  0  0  0  0
  6  1  1  0  0  0  0
  7 23  1  0  0  0  0
  8 16  1  6  0  0  0
  8 22  1  0  0  0  0
  8  9  1  0  0  0  0
  9 29  1  0  0  0  0
  9 28  1  0  0  0  0
 10  9  1  0  0  0  0
 10 11  1  6  0  0  0
 11 30  1  0  0  0  0
 12 11  2  0  0  0  0
 12 31  1  0  0  0  0
 13 12  1  0  0  0  0
 14  5  1  0  0  0  0
 14 13  2  0  0  0  0
 15 14  1  0  0  0  0
 16 33  1  0  0  0  0
 17 18  1  6  0  0  0
 17 16  1  0  0  0  0
 18 35  1  0  0  0  0
 19 18  2  0  0  0  0
 20 19  1  0  0  0  0
 20 21  2  0  0  0  0
 21  6  1  0  0  0  0
 22 23  1  0  0  0  0
 22 40  1  0  0  0  0
 23 24  1  6  0  0  0
 24 41  1  0  0  0  0
 25 24  2  0  0  0  0
 25 42  1  0  0  0  0
 26 25  1  0  0  0  0
 27  7  1  0  0  0  0
 27 26  2  0  0  0  0
 32 13  1  0  0  0  0
 34 16  1  0  0  0  0
 36 19  1  0  0  0  0
 37 20  1  0  0  0  0
 38 21  1  0  0  0  0
 39 22  1  0  0  0  0
 43 26  1  0  0  0  0
 44 27  1  0  0  0  0
M  END
$$$$
