CSD_code = OLUJAG | q = 1 | S = 0 | Stoichiometry = C14H22ClN4PdS(1+) | MND = 4
 OpenBabel04212202083D

 43 46  0  0  1  0  0  0  0  0999 V2000
    4.5985    4.6381    6.5111 Pd  0  0  1  0  0  0  0  0  0  0  0  0
    5.5127    6.5640    5.8562 Cl  0  0  0  0  0  0  0  0  0  0  0  0
    4.3239    2.3146    7.3040 S   0  0  2  0  0  3  0  0  0  0  0  0
    4.5838    5.2749    8.3844 N   0  0  1  0  0  0  0  0  0  0  0  0
    5.4009    4.7609    9.3166 N   0  0  0  0  0  0  0  0  0  0  0  0
    5.3883    3.0217    4.2082 N   0  0  1  0  0  0  0  0  0  0  0  0
    4.5794    4.0027    4.6376 N   0  0  0  0  0  0  0  0  0  0  0  0
    3.8566    6.2276    8.9478 C   0  0  2  0  0  3  0  0  0  0  0  0
    4.2214    6.3253   10.2981 C   0  0  0  0  0  0  0  0  0  0  0  0
    3.8207    7.0024   11.0229 H   0  0  0  0  0  0  0  0  0  0  0  0
    5.2025    5.3765   10.5069 C   0  0  0  0  0  0  0  0  0  0  0  0
    2.8455    6.9709    8.1543 C   0  0  0  0  0  0  0  0  0  0  0  0
    1.9189    7.0789    8.7128 H   0  0  0  0  0  0  0  0  0  0  0  0
    2.6526    6.4305    7.2149 H   0  0  0  0  0  0  0  0  0  0  0  0
    3.2182    7.9656    7.9113 H   0  0  0  0  0  0  0  0  0  0  0  0
    5.9568    5.0329   11.7354 C   0  0  0  0  0  0  0  0  0  0  0  0
    7.0235    5.2076   11.5968 H   0  0  0  0  0  0  0  0  0  0  0  0
    5.8109    3.9893   12.0122 H   0  0  0  0  0  0  0  0  0  0  0  0
    5.6131    5.6571   12.5544 H   0  0  0  0  0  0  0  0  0  0  0  0
    6.2399    3.6483    8.9614 C   0  0  0  0  0  0  0  0  0  0  0  0
    6.9754    3.4948    9.7546 H   0  0  0  0  0  0  0  0  0  0  0  0
    6.7743    3.9028    8.0262 H   0  0  0  0  0  0  0  0  0  0  0  0
    5.4131    2.3659    8.7879 C   0  0  0  0  0  0  0  0  0  0  0  0
    4.7340    2.2491    9.6344 H   0  0  0  0  0  0  0  0  0  0  0  0
    6.0633    1.4942    8.7380 H   0  0  0  0  0  0  0  0  0  0  0  0
    5.3940    1.4431    6.0853 C   0  0  0  0  0  0  0  0  0  0  0  0
    6.0400    0.7722    6.6491 H   0  0  0  0  0  0  0  0  0  0  0  0
    4.7035    0.8452    5.4879 H   0  0  0  0  0  0  0  0  0  0  0  0
    6.2251    2.3481    5.1643 C   0  0  0  0  0  0  0  0  0  0  0  0
    6.7680    3.1144    5.7497 H   0  0  0  0  0  0  0  0  0  0  0  0
    6.9536    1.7376    4.6255 H   0  0  0  0  0  0  0  0  0  0  0  0
    5.1855    2.7884    2.8893 C   0  0  1  0  0  3  0  0  0  0  0  0
    4.2104    3.6762    2.4802 C   0  0  0  0  0  0  0  0  0  0  0  0
    3.8086    3.7763    1.4938 H   0  0  0  0  0  0  0  0  0  0  0  0
    3.8535    4.4222    3.6123 C   0  0  0  0  0  0  0  0  0  0  0  0
    5.9295    1.7619    2.1218 C   0  0  0  0  0  0  0  0  0  0  0  0
    5.7773    0.7669    2.5387 H   0  0  0  0  0  0  0  0  0  0  0  0
    6.9978    1.9766    2.1218 H   0  0  0  0  0  0  0  0  0  0  0  0
    5.5824    1.7606    1.0933 H   0  0  0  0  0  0  0  0  0  0  0  0
    2.8516    5.5030    3.7929 C   0  0  0  0  0  0  0  0  0  0  0  0
    2.6280    5.6158    4.8647 H   0  0  0  0  0  0  0  0  0  0  0  0
    1.9378    5.2784    3.2486 H   0  0  0  0  0  0  0  0  0  0  0  0
    3.2502    6.4471    3.4218 H   0  0  0  0  0  0  0  0  0  0  0  0
  1  2  1  1  0  0  0
  1  3  1  0  0  0  0
  1  4  1  0  0  0  0
  3 26  1  6  0  0  0
  3 23  1  0  0  0  0
  4  8  1  0  0  0  0
  4  5  1  6  0  0  0
  5 11  1  0  0  0  0
  6  7  1  1  0  0  0
  6 29  1  0  0  0  0
  7  1  1  0  0  0  0
  8 12  1  1  0  0  0
  8  9  1  0  0  0  0
  9 11  2  0  0  0  0
  9 10  1  0  0  0  0
 11 16  1  0  0  0  0
 12 13  1  0  0  0  0
 14 12  1  0  0  0  0
 15 12  1  0  0  0  0
 16 18  1  0  0  0  0
 16 19  1  0  0  0  0
 17 16  1  0  0  0  0
 20  5  1  0  0  0  0
 20 21  1  0  0  0  0
 22 20  1  0  0  0  0
 23 20  1  0  0  0  0
 23 24  1  0  0  0  0
 25 23  1  0  0  0  0
 26 27  1  0  0  0  0
 28 26  1  0  0  0  0
 29 30  1  0  0  0  0
 29 26  1  0  0  0  0
 31 29  1  0  0  0  0
 32 36  1  6  0  0  0
 32  6  1  0  0  0  0
 33 32  1  0  0  0  0
 33 35  2  0  0  0  0
 34 33  1  0  0  0  0
 35 40  1  0  0  0  0
 35  7  1  0  0  0  0
 36 38  1  0  0  0  0
 36 37  1  0  0  0  0
 39 36  1  0  0  0  0
 40 41  1  0  0  0  0
 42 40  1  0  0  0  0
 43 40  1  0  0  0  0
M  END
$$$$
