CSD_code = OLUKOW | q = 0 | S = 0 | Stoichiometry = C16H14Cl2N2O2Pd | MND = 4
 OpenBabel04212202083D

 37 40  0  0  1  0  0  0  0  0999 V2000
    0.0000    6.5092   -0.0001 Pd  0  0  0  0  0  0  0  0  0  0  0  0
   -0.8284    5.8260    2.0115 Cl  0  0  0  0  0  0  0  0  0  0  0  0
    3.3929    4.2606    0.3365 O   0  0  0  0  0  0  0  0  0  0  0  0
    1.7163    5.7019    0.3986 N   0  0  0  0  0  0  0  0  0  0  0  0
    2.7515    6.2553    1.1090 C   0  0  0  0  0  0  0  0  0  0  0  0
    2.8527    7.4650    1.7798 C   0  0  0  0  0  0  0  0  0  0  0  0
    2.0097    8.1487    1.7983 H   0  0  0  0  0  0  0  0  0  0  0  0
    4.0565    7.7190    2.4052 C   0  0  0  0  0  0  0  0  0  0  0  0
    4.1936    8.6441    2.9436 H   0  0  0  0  0  0  0  0  0  0  0  0
    5.1102    6.8030    2.3616 C   0  0  0  0  0  0  0  0  0  0  0  0
    6.0318    7.0472    2.8671 H   0  0  0  0  0  0  0  0  0  0  0  0
    5.0155    5.5935    1.6954 C   0  0  0  0  0  0  0  0  0  0  0  0
    5.8313    4.8905    1.6656 H   0  0  0  0  0  0  0  0  0  0  0  0
    3.8114    5.3354    1.0663 C   0  0  0  0  0  0  0  0  0  0  0  0
    2.1339    4.5503   -0.0329 C   0  0  1  0  0  3  0  0  0  0  0  0
    1.3181    3.6374   -0.8654 C   0  0  0  0  0  0  0  0  0  0  0  0
    0.2604    3.7819   -0.5968 H   0  0  0  0  0  0  0  0  0  0  0  0
    1.6149    2.6034   -0.7106 H   0  0  0  0  0  0  0  0  0  0  0  0
    1.4487    3.8947   -1.9199 H   0  0  0  0  0  0  0  0  0  0  0  0
    0.8284    7.1923   -2.0111 Cl  0  0  0  0  0  0  0  0  0  0  0  0
   -3.3932    8.7575   -0.3364 O   0  0  0  0  0  0  0  0  0  0  0  0
   -1.7163    7.3166   -0.3986 N   0  0  0  0  0  0  0  0  0  0  0  0
   -2.7513    6.7629   -1.1090 C   0  0  0  0  0  0  0  0  0  0  0  0
   -2.8524    5.5533   -1.7798 C   0  0  0  0  0  0  0  0  0  0  0  0
   -2.0094    4.8696   -1.7983 H   0  0  0  0  0  0  0  0  0  0  0  0
   -4.0561    5.2992   -2.4055 C   0  0  0  0  0  0  0  0  0  0  0  0
   -4.1929    4.3740   -2.9438 H   0  0  0  0  0  0  0  0  0  0  0  0
   -5.1099    6.2151   -2.3620 C   0  0  0  0  0  0  0  0  0  0  0  0
   -6.0314    5.9708   -2.8676 H   0  0  0  0  0  0  0  0  0  0  0  0
   -5.0154    7.4245   -1.6957 C   0  0  0  0  0  0  0  0  0  0  0  0
   -5.8312    8.1275   -1.6661 H   0  0  0  0  0  0  0  0  0  0  0  0
   -3.8114    7.6827   -1.0664 C   0  0  0  0  0  0  0  0  0  0  0  0
   -2.1342    8.4679    0.0331 C   0  0  2  0  0  3  0  0  0  0  0  0
   -1.3186    9.3808    0.8659 C   0  0  0  0  0  0  0  0  0  0  0  0
   -0.2607    9.2371    0.5963 H   0  0  0  0  0  0  0  0  0  0  0  0
   -1.6164   10.4151    0.7119 H   0  0  0  0  0  0  0  0  0  0  0  0
   -1.4486    9.1225    1.9205 H   0  0  0  0  0  0  0  0  0  0  0  0
  1  4  1  0  0  0  0
  1  2  1  0  0  0  0
  3 14  1  0  0  0  0
  4  5  1  0  0  0  0
  5  6  1  0  0  0  0
  6  7  1  0  0  0  0
  6  8  2  0  0  0  0
  8  9  1  0  0  0  0
 10  8  1  0  0  0  0
 10 11  1  0  0  0  0
 12 10  2  0  0  0  0
 13 12  1  0  0  0  0
 14  5  2  0  0  0  0
 14 12  1  0  0  0  0
 15 16  1  6  0  0  0
 15  3  1  0  0  0  0
 15  4  1  0  0  0  0
 16 18  1  0  0  0  0
 16 17  1  0  0  0  0
 19 16  1  0  0  0  0
 20  1  1  0  0  0  0
 21 33  1  0  0  0  0
 22  1  1  0  0  0  0
 22 33  1  0  0  0  0
 23 32  1  0  0  0  0
 23 22  1  0  0  0  0
 24 23  2  0  0  0  0
 25 24  1  0  0  0  0
 26 28  2  0  0  0  0
 26 24  1  0  0  0  0
 27 26  1  0  0  0  0
 28 30  1  0  0  0  0
 29 28  1  0  0  0  0
 30 31  1  0  0  0  0
 30 32  2  0  0  0  0
 32 21  1  0  0  0  0
 33 34  1  1  0  0  0
 34 37  1  0  0  0  0
 35 34  1  0  0  0  0
 36 34  1  0  0  0  0
M  END
$$$$
