CSD_code = OLUKEM | q = 0 | S = 0 | Stoichiometry = C14H10Br2N2O2Zn | MND = 4
 OpenBabel04212202083D

 31 34  0  0  0  0  0  0  0  0999 V2000
    3.7838    3.5736    4.4596 Zn  0  0  0  0  0  0  0  0  0  0  0  0
    3.6217    5.7850    5.1882 Br  0  0  0  0  0  0  0  0  0  0  0  0
    3.8577    2.2398    2.5245 Br  0  0  0  0  0  0  0  0  0  0  0  0
    7.1637    1.3948    5.9103 O   0  0  0  0  0  0  0  0  0  0  0  0
    0.7835    1.2332    6.5185 O   0  0  0  0  0  0  0  0  0  0  0  0
    5.3891    2.6773    5.5835 N   0  0  0  0  0  0  0  0  0  0  0  0
    2.0916    2.6670    5.4499 N   0  0  0  0  0  0  0  0  0  0  0  0
    5.8986    2.9859    6.8311 C   0  0  0  0  0  0  0  0  0  0  0  0
    5.5000    3.8928    7.8046 C   0  0  0  0  0  0  0  0  0  0  0  0
    4.6500    4.5388    7.6594 H   0  0  0  0  0  0  0  0  0  0  0  0
    6.2619    3.9408    8.9541 C   0  0  0  0  0  0  0  0  0  0  0  0
    5.9911    4.6374    9.7321 H   0  0  0  0  0  0  0  0  0  0  0  0
    7.3769    3.1207    9.1395 C   0  0  0  0  0  0  0  0  0  0  0  0
    7.9392    3.2013   10.0568 H   0  0  0  0  0  0  0  0  0  0  0  0
    7.7847    2.2134    8.1800 C   0  0  0  0  0  0  0  0  0  0  0  0
    8.6461    1.5801    8.3117 H   0  0  0  0  0  0  0  0  0  0  0  0
    7.0237    2.1648    7.0256 C   0  0  0  0  0  0  0  0  0  0  0  0
    6.1713    1.7574    5.1130 C   0  0  0  0  0  3  0  0  0  0  0  0
    6.0727    1.2818    4.1540 H   0  0  0  0  0  0  0  0  0  0  0  0
   -0.0355    2.0665    5.8167 C   0  0  0  0  0  0  0  0  0  0  0  0
   -1.4151    2.0937    5.7180 C   0  0  0  0  0  0  0  0  0  0  0  0
   -2.0304    1.3834    6.2446 H   0  0  0  0  0  0  0  0  0  0  0  0
   -1.9472    3.0787    4.9078 C   0  0  0  0  0  0  0  0  0  0  0  0
   -3.0184    3.1421    4.7956 H   0  0  0  0  0  0  0  0  0  0  0  0
   -1.1408    3.9951    4.2294 C   0  0  0  0  0  0  0  0  0  0  0  0
   -1.6096    4.7444    3.6110 H   0  0  0  0  0  0  0  0  0  0  0  0
    0.2349    3.9692    4.3268 C   0  0  0  0  0  0  0  0  0  0  0  0
    0.8537    4.6819    3.8046 H   0  0  0  0  0  0  0  0  0  0  0  0
    0.7838    2.9831    5.1352 C   0  0  0  0  0  0  0  0  0  0  0  0
    2.0115    1.6519    6.2459 C   0  0  0  0  0  3  0  0  0  0  0  0
    2.8435    1.1402    6.6912 H   0  0  0  0  0  0  0  0  0  0  0  0
  1  2  1  0  0  0  0
  1  7  1  0  0  0  0
  1  6  1  0  0  0  0
  3  1  1  0  0  0  0
  4 17  1  0  0  0  0
  6  8  1  0  0  0  0
  7 30  1  0  0  0  0
  8 17  2  0  0  0  0
  8  9  1  0  0  0  0
  9 11  2  0  0  0  0
 10  9  1  0  0  0  0
 11 13  1  0  0  0  0
 11 12  1  0  0  0  0
 13 14  1  0  0  0  0
 15 16  1  0  0  0  0
 15 13  2  0  0  0  0
 17 15  1  0  0  0  0
 18  6  1  0  0  0  0
 18  4  1  0  0  0  0
 19 18  1  0  0  0  0
 20  5  1  0  0  0  0
 21 20  1  0  0  0  0
 21 22  1  0  0  0  0
 23 21  2  0  0  0  0
 24 23  1  0  0  0  0
 25 27  2  0  0  0  0
 25 23  1  0  0  0  0
 26 25  1  0  0  0  0
 27 29  1  0  0  0  0
 28 27  1  0  0  0  0
 29  7  1  0  0  0  0
 29 20  2  0  0  0  0
 30  5  1  0  0  0  0
 30 31  1  0  0  0  0
M  END
$$$$
