CSD_code = OLUPIV | q = 0 | S = 0 | Stoichiometry = C13H16AuCl3N2 | MND = 4
 OpenBabel04212202083D

 35 36  0  0  0  0  0  0  0  0999 V2000
    8.6710   11.8749    9.6369 Au  0  0  0  0  0  0  0  0  0  0  0  0
    9.6343    9.8499    9.8443 Cl  0  0  0  0  0  0  0  0  0  0  0  0
    9.9142   12.6910   11.3457 Cl  0  0  0  0  0  0  0  0  0  0  0  0
    7.5182   11.2229    7.7803 Cl  0  0  0  0  0  0  0  0  0  0  0  0
    7.7708   13.6528    9.4317 C   0  0  0  0  0  0  0  0  0  0  0  0
    8.0275   14.5572    8.4802 N   0  0  0  0  0  0  0  0  0  0  0  0
    7.1721   15.6113    8.6160 C   0  0  0  0  0  0  0  0  0  0  0  0
    7.1946   16.4566    7.9597 H   0  0  0  0  0  0  0  0  0  0  0  0
    6.3731   15.3404    9.6792 C   0  0  0  0  0  0  0  0  0  0  0  0
    5.5725   15.8986   10.1191 H   0  0  0  0  0  0  0  0  0  0  0  0
    6.7599   14.1256   10.1662 N   0  0  0  0  0  0  0  0  0  0  0  0
    9.0263   14.4143    7.4569 C   0  0  0  0  0  0  0  0  0  0  0  0
   10.0097   14.2743    7.9076 H   0  0  0  0  0  0  0  0  0  0  0  0
    9.0369   15.3073    6.8360 H   0  0  0  0  0  0  0  0  0  0  0  0
    8.7970   13.5438    6.8394 H   0  0  0  0  0  0  0  0  0  0  0  0
    6.1716   13.4616   11.2835 C   0  0  0  0  0  0  0  0  0  0  0  0
    5.1664   12.5219   11.0549 C   0  0  0  0  0  0  0  0  0  0  0  0
    4.6369   11.8581   12.1515 C   0  0  0  0  0  0  0  0  0  0  0  0
    3.8655   11.1192   11.9918 H   0  0  0  0  0  0  0  0  0  0  0  0
    5.0752   12.1207   13.4417 C   0  0  0  0  0  0  0  0  0  0  0  0
    6.0429   13.0974   13.6339 C   0  0  0  0  0  0  0  0  0  0  0  0
    6.3744   13.3252   14.6361 H   0  0  0  0  0  0  0  0  0  0  0  0
    6.6028   13.7871   12.5698 C   0  0  0  0  0  0  0  0  0  0  0  0
    4.6522   12.2618    9.6737 C   0  0  0  0  0  0  0  0  0  0  0  0
    5.4193   11.8127    9.0443 H   0  0  0  0  0  0  0  0  0  0  0  0
    4.3380   13.1905    9.1971 H   0  0  0  0  0  0  0  0  0  0  0  0
    3.8025   11.5861    9.7082 H   0  0  0  0  0  0  0  0  0  0  0  0
    4.5210   11.3642   14.6078 C   0  0  0  0  0  0  0  0  0  0  0  0
    5.1912   10.5428   14.8616 H   0  0  0  0  0  0  0  0  0  0  0  0
    3.5456   10.9453   14.3746 H   0  0  0  0  0  0  0  0  0  0  0  0
    4.4341   12.0063   15.4812 H   0  0  0  0  0  0  0  0  0  0  0  0
    7.6389   14.8419   12.7942 C   0  0  0  0  0  0  0  0  0  0  0  0
    8.6091   14.4852   12.4481 H   0  0  0  0  0  0  0  0  0  0  0  0
    7.7174   15.0745   13.8521 H   0  0  0  0  0  0  0  0  0  0  0  0
    7.3987   15.7554   12.2518 H   0  0  0  0  0  0  0  0  0  0  0  0
  1  2  1  0  0  0  0
  1  3  1  0  0  0  0
  4  1  1  0  0  0  0
  5  1  2  0  0  0  0
  5 11  1  0  0  0  0
  6  7  1  0  0  0  0
  6  5  1  0  0  0  0
  7  9  2  0  0  0  0
  8  7  1  0  0  0  0
  9 10  1  0  0  0  0
  9 11  1  0  0  0  0
 11 16  1  0  0  0  0
 12 13  1  0  0  0  0
 12  6  1  0  0  0  0
 14 12  1  0  0  0  0
 15 12  1  0  0  0  0
 16 23  1  0  0  0  0
 17 16  2  0  0  0  0
 17 18  1  0  0  0  0
 18 20  2  0  0  0  0
 19 18  1  0  0  0  0
 20 21  1  0  0  0  0
 20 28  1  0  0  0  0
 21 22  1  0  0  0  0
 23 32  1  0  0  0  0
 23 21  2  0  0  0  0
 24 27  1  0  0  0  0
 24 17  1  0  0  0  0
 25 24  1  0  0  0  0
 26 24  1  0  0  0  0
 28 29  1  0  0  0  0
 28 31  1  0  0  0  0
 30 28  1  0  0  0  0
 32 34  1  0  0  0  0
 33 32  1  0  0  0  0
 35 32  1  0  0  0  0
M  END
$$$$
