CSD_code = OLUPER | q = 0 | S = 0 | Stoichiometry = C19H21AuClN3 | MND = 2
 OpenBabel04212202083D

 45 47  0  0  1  0  0  0  0  0999 V2000
    5.2406    2.8718    0.5205 Au  0  0  0  0  0  0  0  0  0  0  0  0
    3.3400    2.2218   -0.4899 Cl  0  0  0  0  0  0  0  0  0  0  0  0
    7.0300    3.9657    2.6419 N   0  0  0  0  0  0  0  0  0  0  0  0
    8.0220    4.0268    0.7459 N   0  0  0  0  0  0  0  0  0  0  0  0
    6.2712    6.4894   -0.4017 N   0  0  0  0  0  0  0  0  0  0  0  0
    6.8977    3.6093    1.3538 C   0  0  2  0  0  3  0  0  0  0  0  0
    8.8459    4.6489    1.6440 C   0  0  0  0  0  0  0  0  0  0  0  0
    9.7936    5.0603    1.3648 H   0  0  0  0  0  0  0  0  0  0  0  0
    8.2223    4.6060    2.8446 C   0  0  0  0  0  0  0  0  0  0  0  0
    8.5188    4.9709    3.8064 H   0  0  0  0  0  0  0  0  0  0  0  0
    6.0845    3.6677    3.6606 C   0  0  0  0  0  0  0  0  0  0  0  0
    5.0183    4.5353    3.8876 C   0  0  0  0  0  0  0  0  0  0  0  0
    4.1180    4.2184    4.8933 C   0  0  0  0  0  0  0  0  0  0  0  0
    3.2833    4.8791    5.0763 H   0  0  0  0  0  0  0  0  0  0  0  0
    4.2592    3.0705    5.6600 C   0  0  0  0  0  0  0  0  0  0  0  0
    5.3300    2.2243    5.4064 C   0  0  0  0  0  0  0  0  0  0  0  0
    5.4452    1.3232    5.9911 H   0  0  0  0  0  0  0  0  0  0  0  0
    6.2517    2.5041    4.4104 C   0  0  0  0  0  0  0  0  0  0  0  0
    4.8347    5.7534    3.0389 C   0  0  0  0  0  0  0  0  0  0  0  0
    5.7719    6.2911    2.9040 H   0  0  0  0  0  0  0  0  0  0  0  0
    4.1017    6.4226    3.4811 H   0  0  0  0  0  0  0  0  0  0  0  0
    4.4805    5.4565    2.0504 H   0  0  0  0  0  0  0  0  0  0  0  0
    3.2833    2.7607    6.7525 C   0  0  0  0  0  0  0  0  0  0  0  0
    3.2313    1.6903    6.9344 H   0  0  0  0  0  0  0  0  0  0  0  0
    2.2911    3.1251    6.4985 H   0  0  0  0  0  0  0  0  0  0  0  0
    3.5946    3.2470    7.6776 H   0  0  0  0  0  0  0  0  0  0  0  0
    7.3912    1.5754    4.1200 C   0  0  0  0  0  0  0  0  0  0  0  0
    7.3640    0.7176    4.7858 H   0  0  0  0  0  0  0  0  0  0  0  0
    8.3488    2.0812    4.2438 H   0  0  0  0  0  0  0  0  0  0  0  0
    7.3304    1.2196    3.0913 H   0  0  0  0  0  0  0  0  0  0  0  0
    8.3050    3.8891   -0.6569 C   0  0  0  0  0  0  0  0  0  0  0  0
    7.6657    3.0929   -1.0472 H   0  0  0  0  0  0  0  0  0  0  0  0
    9.3545    3.6051   -0.7797 H   0  0  0  0  0  0  0  0  0  0  0  0
    8.0261    5.1962   -1.4144 C   0  0  0  0  0  0  0  0  0  0  0  0
    8.6248    6.0013   -0.9859 H   0  0  0  0  0  0  0  0  0  0  0  0
    8.3058    5.0569   -2.4592 H   0  0  0  0  0  0  0  0  0  0  0  0
    6.5728    5.5718   -1.3111 C   0  0  0  0  0  0  0  0  0  0  0  0
    5.6082    4.9590   -2.1044 C   0  0  0  0  0  0  0  0  0  0  0  0
    5.8916    4.2153   -2.8335 H   0  0  0  0  0  0  0  0  0  0  0  0
    4.2813    5.3180   -1.9383 C   0  0  0  0  0  0  0  0  0  0  0  0
    3.5080    4.8447   -2.5226 H   0  0  0  0  0  0  0  0  0  0  0  0
    3.9687    6.2825   -0.9930 C   0  0  0  0  0  0  0  0  0  0  0  0
    2.9485    6.5907   -0.8280 H   0  0  0  0  0  0  0  0  0  0  0  0
    5.0028    6.8368   -0.2568 C   0  0  0  0  0  0  0  0  0  0  0  0
    4.8158    7.5999    0.4885 H   0  0  0  0  0  0  0  0  0  0  0  0
  2  1  1  0  0  0  0
  3  9  1  0  0  0  0
  3 11  1  0  0  0  0
  4  6  1  0  0  0  0
  4  7  1  0  0  0  0
  5 44  1  0  0  0  0
  6  1  1  6  0  0  0
  6  3  1  0  0  0  0
  7  9  2  0  0  0  0
  8  7  1  0  0  0  0
  9 10  1  0  0  0  0
 11 12  2  0  0  0  0
 11 18  1  0  0  0  0
 12 13  1  0  0  0  0
 13 14  1  0  0  0  0
 13 15  2  0  0  0  0
 15 23  1  0  0  0  0
 16 15  1  0  0  0  0
 16 17  1  0  0  0  0
 18 16  2  0  0  0  0
 19 21  1  0  0  0  0
 19 12  1  0  0  0  0
 20 19  1  0  0  0  0
 22 19  1  0  0  0  0
 23 24  1  0  0  0  0
 23 26  1  0  0  0  0
 25 23  1  0  0  0  0
 27 29  1  0  0  0  0
 27 18  1  0  0  0  0
 27 28  1  0  0  0  0
 30 27  1  0  0  0  0
 31  4  1  0  0  0  0
 32 31  1  0  0  0  0
 33 31  1  0  0  0  0
 34 37  1  0  0  0  0
 34 35  1  0  0  0  0
 34 31  1  0  0  0  0
 36 34  1  0  0  0  0
 37  5  2  0  0  0  0
 38 40  2  0  0  0  0
 38 37  1  0  0  0  0
 39 38  1  0  0  0  0
 40 42  1  0  0  0  0
 41 40  1  0  0  0  0
 42 43  1  0  0  0  0
 42 44  2  0  0  0  0
 44 45  1  0  0  0  0
M  END
$$$$
