CSD_code = OLUPAN | q = 0 | S = 0 | Stoichiometry = C18H19AuClN3 | MND = 2
 OpenBabel04212202083D

 42 44  0  0  1  0  0  0  0  0999 V2000
    5.0393    0.3238    7.3499 Au  0  0  0  0  0  0  0  0  0  0  0  0
    4.2923   -1.7532    6.9351 Cl  0  0  0  0  0  0  0  0  0  0  0  0
    5.7818    2.1324    7.7501 C   0  0  1  0  0  3  0  0  0  0  0  0
    5.3121    2.9813    8.6784 N   0  0  0  0  0  0  0  0  0  0  0  0
    6.1128    4.0883    8.7683 C   0  0  0  0  0  0  0  0  0  0  0  0
    5.9075    4.8869    9.4511 H   0  0  0  0  0  0  0  0  0  0  0  0
    7.1103    3.9184    7.8679 C   0  0  0  0  0  0  0  0  0  0  0  0
    7.9517    4.5325    7.6240 H   0  0  0  0  0  0  0  0  0  0  0  0
    6.8836    2.7189    7.2506 N   0  0  0  0  0  0  0  0  0  0  0  0
    7.7628    2.1273    6.2725 C   0  0  0  0  0  0  0  0  0  0  0  0
    8.1693    2.9185    5.6384 H   0  0  0  0  0  0  0  0  0  0  0  0
    7.1846    1.4189    5.6757 H   0  0  0  0  0  0  0  0  0  0  0  0
    4.1444    2.7466    9.4540 C   0  0  0  0  0  0  0  0  0  0  0  0
    4.2548    2.0413   10.6509 C   0  0  0  0  0  0  0  0  0  0  0  0
    3.1041    1.8236   11.3920 C   0  0  0  0  0  0  0  0  0  0  0  0
    3.1730    1.2742   12.3194 H   0  0  0  0  0  0  0  0  0  0  0  0
    1.8675    2.2861   10.9635 C   0  0  0  0  0  0  0  0  0  0  0  0
    1.7907    2.9814    9.7645 C   0  0  0  0  0  0  0  0  0  0  0  0
    0.8317    3.3382    9.4183 H   0  0  0  0  0  0  0  0  0  0  0  0
    2.9173    3.2205    8.9938 C   0  0  0  0  0  0  0  0  0  0  0  0
    5.5828    1.5132   11.0991 C   0  0  0  0  0  0  0  0  0  0  0  0
    5.9165    0.7294   10.4177 H   0  0  0  0  0  0  0  0  0  0  0  0
    5.5101    1.0932   12.0982 H   0  0  0  0  0  0  0  0  0  0  0  0
    6.3390    2.2979   11.1021 H   0  0  0  0  0  0  0  0  0  0  0  0
    0.6329    2.0097   11.7637 C   0  0  0  0  0  0  0  0  0  0  0  0
   -0.1135    2.7851   11.6095 H   0  0  0  0  0  0  0  0  0  0  0  0
    0.8629    1.9424   12.8242 H   0  0  0  0  0  0  0  0  0  0  0  0
    0.2009    1.0587   11.4517 H   0  0  0  0  0  0  0  0  0  0  0  0
    2.8302    3.9454    7.6859 C   0  0  0  0  0  0  0  0  0  0  0  0
    3.4952    4.8087    7.6711 H   0  0  0  0  0  0  0  0  0  0  0  0
    1.8147    4.2852    7.5038 H   0  0  0  0  0  0  0  0  0  0  0  0
    3.1251    3.2814    6.8731 H   0  0  0  0  0  0  0  0  0  0  0  0
    8.8990    1.4191    6.9761 C   0  0  0  0  0  0  0  0  0  0  0  0
    8.8153    0.0737    7.3124 C   0  0  0  0  0  0  0  0  0  0  0  0
    7.9409   -0.5033    7.0512 H   0  0  0  0  0  0  0  0  0  0  0  0
    9.8780   -0.5006    7.9916 C   0  0  0  0  0  0  0  0  0  0  0  0
    9.8484   -1.5444    8.2669 H   0  0  0  0  0  0  0  0  0  0  0  0
   10.9741    0.2866    8.3087 C   0  0  0  0  0  0  0  0  0  0  0  0
   11.8228   -0.1226    8.8337 H   0  0  0  0  0  0  0  0  0  0  0  0
   10.9532    1.6211    7.9330 C   0  0  0  0  0  0  0  0  0  0  0  0
   11.7805    2.2820    8.1561 H   0  0  0  0  0  0  0  0  0  0  0  0
    9.9431    2.1756    7.2868 N   0  0  0  0  0  0  0  0  0  0  0  0
  2  1  1  0  0  0  0
  3  1  1  1  0  0  0
  3  4  1  0  0  0  0
  4  5  1  0  0  0  0
  4 13  1  0  0  0  0
  5  6  1  0  0  0  0
  7  5  2  0  0  0  0
  8  7  1  0  0  0  0
  9  3  1  0  0  0  0
  9  7  1  0  0  0  0
 10 33  1  0  0  0  0
 10  9  1  0  0  0  0
 11 10  1  0  0  0  0
 12 10  1  0  0  0  0
 13 14  1  0  0  0  0
 14 21  1  0  0  0  0
 14 15  2  0  0  0  0
 15 16  1  0  0  0  0
 17 15  1  0  0  0  0
 17 25  1  0  0  0  0
 18 17  2  0  0  0  0
 19 18  1  0  0  0  0
 20 13  2  0  0  0  0
 20 18  1  0  0  0  0
 21 24  1  0  0  0  0
 21 23  1  0  0  0  0
 22 21  1  0  0  0  0
 25 27  1  0  0  0  0
 26 25  1  0  0  0  0
 28 25  1  0  0  0  0
 29 20  1  0  0  0  0
 30 29  1  0  0  0  0
 31 29  1  0  0  0  0
 32 29  1  0  0  0  0
 33 42  2  0  0  0  0
 33 34  1  0  0  0  0
 34 36  2  0  0  0  0
 35 34  1  0  0  0  0
 36 37  1  0  0  0  0
 36 38  1  0  0  0  0
 38 39  1  0  0  0  0
 40 41  1  0  0  0  0
 40 38  2  0  0  0  0
 42 40  1  0  0  0  0
M  END
$$$$
