CSD_code = OLUQAO | q = 0 | S = 0 | Stoichiometry = C18H19AuCl3N3 | MND = 4
 OpenBabel04212202083D

 44 46  0  0  0  0  0  0  0  0999 V2000
    2.1506    3.7668    6.1284 Au  0  0  0  0  0  0  0  0  0  0  0  0
    4.2490    4.3633    6.6938 Cl  0  0  0  0  0  0  0  0  0  0  0  0
    1.3124    5.2132    7.6515 Cl  0  0  0  0  0  0  0  0  0  0  0  0
    2.9096    2.3072    4.5479 Cl  0  0  0  0  0  0  0  0  0  0  0  0
   -0.6129    2.5708    6.2312 N   0  0  0  0  0  0  0  0  0  0  0  0
   -0.2127    3.5309    4.3462 N   0  0  0  0  0  0  0  0  0  0  0  0
    0.2432    6.2849    4.5881 N   0  0  0  0  0  0  0  0  0  0  0  0
    0.3064    3.2574    5.5484 C   0  0  0  0  0  0  0  0  0  0  0  0
   -1.4731    3.0190    4.2710 C   0  0  0  0  0  0  0  0  0  0  0  0
   -2.0834    3.1240    3.3980 H   0  0  0  0  0  0  0  0  0  0  0  0
   -1.7266    2.4114    5.4578 C   0  0  0  0  0  0  0  0  0  0  0  0
   -2.5885    1.8815    5.8079 H   0  0  0  0  0  0  0  0  0  0  0  0
   -0.4587    2.0991    7.5675 C   0  0  0  0  0  0  0  0  0  0  0  0
   -1.0405    2.8222    8.6090 C   0  0  0  0  0  0  0  0  0  0  0  0
   -0.8388    2.3685    9.9030 C   0  0  0  0  0  0  0  0  0  0  0  0
   -1.2687    2.9231   10.7238 H   0  0  0  0  0  0  0  0  0  0  0  0
   -0.0899    1.2302   10.1682 C   0  0  0  0  0  0  0  0  0  0  0  0
    0.4400    0.5144    9.1038 C   0  0  0  0  0  0  0  0  0  0  0  0
    1.0061   -0.3850    9.2970 H   0  0  0  0  0  0  0  0  0  0  0  0
    0.2641    0.9279    7.7919 C   0  0  0  0  0  0  0  0  0  0  0  0
   -1.8425    4.0553    8.3382 C   0  0  0  0  0  0  0  0  0  0  0  0
   -1.1919    4.8344    7.9422 H   0  0  0  0  0  0  0  0  0  0  0  0
   -2.2945    4.4199    9.2559 H   0  0  0  0  0  0  0  0  0  0  0  0
   -2.6308    3.8660    7.6111 H   0  0  0  0  0  0  0  0  0  0  0  0
    0.1510    0.7913   11.5785 C   0  0  0  0  0  0  0  0  0  0  0  0
    1.0255    1.3069   11.9756 H   0  0  0  0  0  0  0  0  0  0  0  0
    0.3384   -0.2784   11.6287 H   0  0  0  0  0  0  0  0  0  0  0  0
   -0.6980    1.0352   12.2125 H   0  0  0  0  0  0  0  0  0  0  0  0
    0.8069    0.1240    6.6510 C   0  0  0  0  0  0  0  0  0  0  0  0
    0.0279   -0.0837    5.9176 H   0  0  0  0  0  0  0  0  0  0  0  0
    1.2057   -0.8204    7.0105 H   0  0  0  0  0  0  0  0  0  0  0  0
    1.6069    0.6553    6.1374 H   0  0  0  0  0  0  0  0  0  0  0  0
    0.4724    4.2690    3.3107 C   0  0  0  0  0  0  0  0  0  0  0  0
   -0.2592    4.5372    2.5449 H   0  0  0  0  0  0  0  0  0  0  0  0
    1.2515    3.6363    2.8741 H   0  0  0  0  0  0  0  0  0  0  0  0
    1.0864    5.5154    3.9096 C   0  0  0  0  0  0  0  0  0  0  0  0
    2.4424    5.7992    3.7915 C   0  0  0  0  0  0  0  0  0  0  0  0
    3.0927    5.1582    3.2162 H   0  0  0  0  0  0  0  0  0  0  0  0
    2.9345    6.9242    4.4387 C   0  0  0  0  0  0  0  0  0  0  0  0
    3.9856    7.1644    4.3863 H   0  0  0  0  0  0  0  0  0  0  0  0
    2.0605    7.7104    5.1700 C   0  0  0  0  0  0  0  0  0  0  0  0
    2.4082    8.5775    5.7081 H   0  0  0  0  0  0  0  0  0  0  0  0
    0.7213    7.3495    5.2046 C   0  0  0  0  0  0  0  0  0  0  0  0
   -0.0057    7.9297    5.7559 H   0  0  0  0  0  0  0  0  0  0  0  0
  1  2  1  0  0  0  0
  1  3  1  0  0  0  0
  4  1  1  0  0  0  0
  5 13  1  0  0  0  0
  6  8  1  0  0  0  0
  7 43  1  0  0  0  0
  8  1  2  0  0  0  0
  8  5  1  0  0  0  0
  9  6  1  0  0  0  0
  9 11  2  0  0  0  0
 10  9  1  0  0  0  0
 11 12  1  0  0  0  0
 11  5  1  0  0  0  0
 13 20  2  0  0  0  0
 13 14  1  0  0  0  0
 14 15  2  0  0  0  0
 15 17  1  0  0  0  0
 15 16  1  0  0  0  0
 17 25  1  0  0  0  0
 18 19  1  0  0  0  0
 18 17  2  0  0  0  0
 20 18  1  0  0  0  0
 21 14  1  0  0  0  0
 21 23  1  0  0  0  0
 22 21  1  0  0  0  0
 24 21  1  0  0  0  0
 25 27  1  0  0  0  0
 25 26  1  0  0  0  0
 25 28  1  0  0  0  0
 29 31  1  0  0  0  0
 29 20  1  0  0  0  0
 30 29  1  0  0  0  0
 32 29  1  0  0  0  0
 33 36  1  0  0  0  0
 33  6  1  0  0  0  0
 34 33  1  0  0  0  0
 35 33  1  0  0  0  0
 36  7  2  0  0  0  0
 37 36  1  0  0  0  0
 37 39  2  0  0  0  0
 38 37  1  0  0  0  0
 39 41  1  0  0  0  0
 40 39  1  0  0  0  0
 41 43  2  0  0  0  0
 41 42  1  0  0  0  0
 43 44  1  0  0  0  0
M  END
$$$$
