CSD_code = OLURAP | q = 0 | S = 0 | Stoichiometry = C27H24AuCl2F5N2 | MND = 4
 OpenBabel04212202083D

 61 64  0  0  0  0  0  0  0  0999 V2000
    3.0396    3.0401   -0.0008 Au  0  0  0  0  0  0  0  0  0  0  0  0
    1.3678    4.5502    0.2513 Cl  0  0  0  0  0  0  0  0  0  0  0  0
    4.4721    4.4719   -0.0000 C   0  0  0  0  0  0  0  0  0  0  0  0
    5.0232    5.0519    1.0736 N   0  0  0  0  0  0  0  0  0  0  0  0
    5.9523    5.9709    0.6784 C   0  0  0  0  0  0  0  0  0  0  0  0
    6.5156    6.5484    1.3825 H   0  0  0  0  0  0  0  0  0  0  0  0
    4.6691    4.7456    2.4198 C   0  0  0  0  0  0  0  0  0  0  0  0
    5.2922    3.6719    3.0555 C   0  0  0  0  0  0  0  0  0  0  0  0
    4.8805    3.3496    4.3395 C   0  0  0  0  0  0  0  0  0  0  0  0
    5.3418    2.5119    4.8412 H   0  0  0  0  0  0  0  0  0  0  0  0
    3.8887    4.0720    4.9877 C   0  0  0  0  0  0  0  0  0  0  0  0
    3.3301    5.1678    4.3448 C   0  0  0  0  0  0  0  0  0  0  0  0
    2.5760    5.7530    4.8502 H   0  0  0  0  0  0  0  0  0  0  0  0
    3.7086    5.5277    3.0608 C   0  0  0  0  0  0  0  0  0  0  0  0
    6.3828    2.9021    2.3787 C   0  0  0  0  0  0  0  0  0  0  0  0
    6.8861    2.2553    3.0916 H   0  0  0  0  0  0  0  0  0  0  0  0
    7.1187    3.5729    1.9359 H   0  0  0  0  0  0  0  0  0  0  0  0
    5.9776    2.2781    1.5829 H   0  0  0  0  0  0  0  0  0  0  0  0
    3.4224    3.6699    6.3514 C   0  0  0  0  0  0  0  0  0  0  0  0
    4.2194    3.1850    6.9096 H   0  0  0  0  0  0  0  0  0  0  0  0
    2.5984    2.9624    6.2574 H   0  0  0  0  0  0  0  0  0  0  0  0
    3.0656    4.5302    6.9122 H   0  0  0  0  0  0  0  0  0  0  0  0
    3.1032    6.7159    2.3815 C   0  0  0  0  0  0  0  0  0  0  0  0
    3.8704    7.3575    1.9495 H   0  0  0  0  0  0  0  0  0  0  0  0
    2.5198    7.2986    3.0887 H   0  0  0  0  0  0  0  0  0  0  0  0
    2.4412    6.3916    1.5790 H   0  0  0  0  0  0  0  0  0  0  0  0
    1.6301    1.6297   -0.0001 C   0  0  0  0  0  0  0  0  0  0  0  0
    1.2068    1.0353    1.1769 C   0  0  0  0  0  0  0  0  0  0  0  0
    0.2247    0.0504    1.1966 C   0  0  0  0  0  0  0  0  0  0  0  0
   -0.3559   -0.3559   -0.0000 C   0  0  0  0  0  0  0  0  0  0  0  0
    1.7623    1.4219    2.3370 F   0  0  0  0  0  0  0  0  0  0  0  0
   -0.1620   -0.5039    2.3500 F   0  0  0  0  0  0  0  0  0  0  0  0
   -1.3004   -1.3004   -0.0000 F   0  0  0  0  0  0  0  0  0  0  0  0
    4.5495    1.3675   -0.2506 Cl  0  0  0  0  0  0  0  0  0  0  0  0
    5.0521    5.0232   -1.0735 N   0  0  0  0  0  0  0  0  0  0  0  0
    5.9708    5.9525   -0.6783 C   0  0  0  0  0  0  0  0  0  0  0  0
    6.5481    6.5159   -1.3823 H   0  0  0  0  0  0  0  0  0  0  0  0
    4.7457    4.6692   -2.4199 C   0  0  0  0  0  0  0  0  0  0  0  0
    3.6721    5.2923   -3.0555 C   0  0  0  0  0  0  0  0  0  0  0  0
    3.3496    4.8806   -4.3394 C   0  0  0  0  0  0  0  0  0  0  0  0
    2.5119    5.3419   -4.8410 H   0  0  0  0  0  0  0  0  0  0  0  0
    4.0719    3.8887   -4.9877 C   0  0  0  0  0  0  0  0  0  0  0  0
    5.1679    3.3301   -4.3448 C   0  0  0  0  0  0  0  0  0  0  0  0
    5.7530    2.5761   -4.8503 H   0  0  0  0  0  0  0  0  0  0  0  0
    5.5278    3.7086   -3.0608 C   0  0  0  0  0  0  0  0  0  0  0  0
    2.9024    6.3830   -2.3787 C   0  0  0  0  0  0  0  0  0  0  0  0
    2.2555    6.8863   -3.0916 H   0  0  0  0  0  0  0  0  0  0  0  0
    3.5732    7.1190   -1.9361 H   0  0  0  0  0  0  0  0  0  0  0  0
    2.2785    5.9779   -1.5828 H   0  0  0  0  0  0  0  0  0  0  0  0
    3.6698    3.4223   -6.3513 C   0  0  0  0  0  0  0  0  0  0  0  0
    3.1835    4.2191   -6.9090 H   0  0  0  0  0  0  0  0  0  0  0  0
    2.9633    2.5972   -6.2571 H   0  0  0  0  0  0  0  0  0  0  0  0
    4.5305    3.0667   -6.9128 H   0  0  0  0  0  0  0  0  0  0  0  0
    6.7160    3.1031   -2.3816 C   0  0  0  0  0  0  0  0  0  0  0  0
    7.3578    3.8704   -1.9498 H   0  0  0  0  0  0  0  0  0  0  0  0
    7.2984    2.5194   -3.0887 H   0  0  0  0  0  0  0  0  0  0  0  0
    6.3917    2.4414   -1.5789 H   0  0  0  0  0  0  0  0  0  0  0  0
    1.0354    1.2067   -1.1770 C   0  0  0  0  0  0  0  0  0  0  0  0
    0.0504    0.2246   -1.1967 C   0  0  0  0  0  0  0  0  0  0  0  0
    1.4220    1.7622   -2.3371 F   0  0  0  0  0  0  0  0  0  0  0  0
   -0.5040   -0.1620   -2.3501 F   0  0  0  0  0  0  0  0  0  0  0  0
  1 27  1  0  0  0  0
  1  3  2  0  0  0  0
  1  2  1  0  0  0  0
  3  4  1  0  0  0  0
  4  7  1  0  0  0  0
  5  4  1  0  0  0  0
  5  6  1  0  0  0  0
  7  8  2  0  0  0  0
  7 14  1  0  0  0  0
  8  9  1  0  0  0  0
  9 10  1  0  0  0  0
  9 11  2  0  0  0  0
 11 19  1  0  0  0  0
 12 13  1  0  0  0  0
 12 11  1  0  0  0  0
 14 12  2  0  0  0  0
 15  8  1  0  0  0  0
 15 16  1  0  0  0  0
 17 15  1  0  0  0  0
 18 15  1  0  0  0  0
 19 20  1  0  0  0  0
 19 22  1  0  0  0  0
 21 19  1  0  0  0  0
 23 14  1  0  0  0  0
 23 25  1  0  0  0  0
 24 23  1  0  0  0  0
 26 23  1  0  0  0  0
 27 28  1  0  0  0  0
 28 29  2  0  0  0  0
 28 31  1  0  0  0  0
 29 32  1  0  0  0  0
 30 33  1  0  0  0  0
 30 29  1  0  0  0  0
 34  1  1  0  0  0  0
 35 36  1  0  0  0  0
 35  3  1  0  0  0  0
 36  5  2  0  0  0  0
 37 36  1  0  0  0  0
 38 35  1  0  0  0  0
 39 38  1  0  0  0  0
 39 46  1  0  0  0  0
 40 39  2  0  0  0  0
 41 40  1  0  0  0  0
 42 43  2  0  0  0  0
 42 40  1  0  0  0  0
 43 45  1  0  0  0  0
 44 43  1  0  0  0  0
 45 38  2  0  0  0  0
 45 54  1  0  0  0  0
 46 48  1  0  0  0  0
 46 49  1  0  0  0  0
 47 46  1  0  0  0  0
 50 52  1  0  0  0  0
 50 42  1  0  0  0  0
 51 50  1  0  0  0  0
 53 50  1  0  0  0  0
 54 55  1  0  0  0  0
 54 57  1  0  0  0  0
 56 54  1  0  0  0  0
 58 27  2  0  0  0  0
 59 58  1  0  0  0  0
 59 30  2  0  0  0  0
 60 58  1  0  0  0  0
 61 59  1  0  0  0  0
M  END
$$$$
