CSD_code = OLUWUN | q = 0 | S = 0 | Stoichiometry = C3H2Cl2O4Ru | MND = 6
 OpenBabel04212202083D

 12 10  0  0  0  0  0  0  0  0999 V2000
    0.0734    7.9227    7.2386 Ru  0  0  0  0  0  0  0  0  0  0  0  0
   -1.7421    8.0513    5.7715 Cl  0  0  0  0  0  0  0  0  0  0  0  0
   -0.6680    9.8550    8.3261 Cl  0  0  0  0  0  0  0  0  0  0  0  0
   -1.6418    6.3215    9.0925 O   0  0  0  0  0  1  0  0  0  0  0  0
    2.4125    8.3949    9.0759 O   0  0  0  0  0  1  0  0  0  0  0  0
    0.8331    5.7333    5.3151 O   0  0  0  0  0  1  0  0  0  0  0  0
    0.8391    9.5111    5.7965 O   0  0  0  0  0  0  0  0  0  0  0  0
   -0.9291    6.8692    8.4046 C   0  0  0  0  0  2  0  0  0  0  0  0
    1.5656    8.1356    8.3723 C   0  0  0  0  0  2  0  0  0  0  0  0
    0.6079    6.5235    6.0927 C   0  0  0  0  0  2  0  0  0  0  0  0
    0.6392   10.3146    6.3184 H   0  0  0  0  0  0  0  0  0  0  0  0
    0.1402    9.4651    5.1126 H   0  0  0  0  0  0  0  0  0  0  0  0
  1  3  1  0  0  0  0
  1  9  1  0  0  0  0
  1  8  1  0  0  0  0
  2  1  1  0  0  0  0
  6 10  1  0  0  0  0
  7 11  1  0  0  0  0
  8  4  1  0  0  0  0
  9  5  1  0  0  0  0
 10  1  1  0  0  0  0
 12  7  1  0  0  0  0
M  END
$$$$
