CSD_code = OMAFUD | q = 0 | S = 0 | Stoichiometry = C6H16Cl4N4O2Pt | MND = 6
 OpenBabel04212202083D

 33 32  0  0  1  0  0  0  0  0999 V2000
    0.8056    2.2438    1.9001 C   0  0  2  0  0  3  0  0  0  0  0  0
    2.9703    3.3177    1.6249 C   0  0  0  0  0  0  0  0  0  0  0  0
    3.6445    2.5399    1.9937 H   0  0  0  0  0  0  0  0  0  0  0  0
    3.3937    4.2871    1.8741 H   0  0  0  0  0  0  0  0  0  0  0  0
    2.8981    3.2472    0.5378 H   0  0  0  0  0  0  0  0  0  0  0  0
    1.3068    4.2387    3.2006 C   0  0  0  0  0  0  0  0  0  0  0  0
    1.2409    5.2135    2.7131 H   0  0  0  0  0  0  0  0  0  0  0  0
    2.0615    4.2800    3.9876 H   0  0  0  0  0  0  0  0  0  0  0  0
    0.3432    3.9987    3.6396 H   0  0  0  0  0  0  0  0  0  0  0  0
    1.1481    1.2616    1.1103 N   0  0  0  0  0  0  0  0  0  0  0  0
    2.1149    1.2695    0.8027 H   0  0  0  0  0  0  0  0  0  0  0  0
    1.6623    3.2207    2.2370 N   0  0  0  0  0  0  0  0  0  0  0  0
   -0.3864    2.3163    2.4444 O   0  0  0  0  0  0  0  0  0  0  0  0
    1.2382   -1.8699    0.7761 Cl  0  0  0  0  0  0  0  0  0  0  0  0
    1.5797    0.3135   -1.7317 Cl  0  0  0  0  0  0  0  0  0  0  0  0
    0.0000   -0.0001    0.0000 Pt  0  0  0  0  0  0  0  0  0  0  0  0
   -0.9462    1.5276    2.2033 H   0  0  0  0  0  0  0  0  0  0  0  0
   -1.1481   -1.2616   -1.1104 N   0  0  0  0  0  0  0  0  0  0  0  0
   -0.8056   -2.2438   -1.9001 C   0  0  1  0  0  3  0  0  0  0  0  0
   -1.6622   -3.2207   -2.2370 N   0  0  0  0  0  0  0  0  0  0  0  0
   -2.9703   -3.3177   -1.6250 C   0  0  0  0  0  0  0  0  0  0  0  0
   -3.6445   -2.5399   -1.9938 H   0  0  0  0  0  0  0  0  0  0  0  0
   -3.3936   -4.2870   -1.8742 H   0  0  0  0  0  0  0  0  0  0  0  0
   -2.8982   -3.2472   -0.5379 H   0  0  0  0  0  0  0  0  0  0  0  0
   -1.3067   -4.2388   -3.2006 C   0  0  0  0  0  0  0  0  0  0  0  0
   -1.2408   -5.2135   -2.7130 H   0  0  0  0  0  0  0  0  0  0  0  0
   -2.0614   -4.2800   -3.9876 H   0  0  0  0  0  0  0  0  0  0  0  0
   -0.3431   -3.9988   -3.6396 H   0  0  0  0  0  0  0  0  0  0  0  0
    0.3865   -2.3163   -2.4444 O   0  0  0  0  0  0  0  0  0  0  0  0
    0.9462   -1.5276   -2.2032 H   0  0  0  0  0  0  0  0  0  0  0  0
   -2.1149   -1.2694   -0.8027 H   0  0  0  0  0  0  0  0  0  0  0  0
   -1.2386    1.8697   -0.7758 Cl  0  0  0  0  0  0  0  0  0  0  0  0
   -1.5798   -0.3134    1.7317 Cl  0  0  0  0  0  0  0  0  0  0  0  0
  1 12  1  0  0  0  0
  1 13  1  1  0  0  0
  2  4  1  0  0  0  0
  2  3  1  0  0  0  0
  2 12  1  0  0  0  0
  5  2  1  0  0  0  0
  6  9  1  0  0  0  0
  6  8  1  0  0  0  0
  7  6  1  0  0  0  0
 10  1  1  0  0  0  0
 11 10  1  0  0  0  0
 12  6  1  0  0  0  0
 15 16  1  0  0  0  0
 16 14  1  0  0  0  0
 16 10  1  0  0  0  0
 16 33  1  0  0  0  0
 17 13  1  0  0  0  0
 18 31  1  0  0  0  0
 18 16  1  0  0  0  0
 19 29  1  6  0  0  0
 19 18  1  0  0  0  0
 20 19  1  0  0  0  0
 20 21  1  0  0  0  0
 21 24  1  0  0  0  0
 22 21  1  0  0  0  0
 23 21  1  0  0  0  0
 25 26  1  0  0  0  0
 25 20  1  0  0  0  0
 27 25  1  0  0  0  0
 28 25  1  0  0  0  0
 29 30  1  0  0  0  0
 32 16  1  0  0  0  0
M  END
$$$$
