CSD_code = OMAPEY | q = 0 | S = 0 | Stoichiometry = C24H20AuClFN3 | MND = 2
 OpenBabel04212202083D

 50 54  0  0  1  0  0  0  0  0999 V2000
    5.8911    9.9814    9.2642 Au  0  0  0  0  0  0  0  0  0  0  0  0
    8.0156    9.4980    8.7498 Cl  0  0  0  0  0  0  0  0  0  0  0  0
    3.5943   12.8158   12.4512 F   0  0  0  0  0  0  0  0  0  0  0  0
    3.5803   11.7371    9.9519 N   0  0  0  0  0  0  0  0  0  0  0  0
    2.8773    9.7725    9.6933 N   0  0  0  0  0  0  0  0  0  0  0  0
    1.7623   10.5363    9.8616 N   0  0  0  0  0  0  0  0  0  0  0  0
    4.0179   10.4828    9.7256 C   0  0  1  0  0  3  0  0  0  0  0  0
    2.2190   11.7326   10.0220 C   0  0  0  0  0  0  0  0  0  0  0  0
    1.6927   13.0998   10.2246 C   0  0  0  0  0  0  0  0  0  0  0  0
    2.9409   13.9609    9.9339 C   0  0  0  0  0  0  0  0  0  0  0  0
    4.1560   13.0356   10.1793 C   0  0  1  0  0  0  0  0  0  0  0  0
    2.7238    8.3888    9.4992 C   0  0  0  0  0  0  0  0  0  0  0  0
    3.6909    7.4918    9.9351 C   0  0  0  0  0  0  0  0  0  0  0  0
    3.5024    6.1379    9.7251 C   0  0  0  0  0  0  0  0  0  0  0  0
    2.3541    5.6773    9.1023 C   0  0  0  0  0  0  0  0  0  0  0  0
    1.3829    6.5751    8.6907 C   0  0  0  0  0  0  0  0  0  0  0  0
    1.5629    7.9314    8.8866 C   0  0  0  0  0  0  0  0  0  0  0  0
    4.6837   13.1356   11.6354 C   0  0  0  0  0  0  0  0  0  0  0  0
    5.1487   14.5253   12.0201 C   0  0  0  0  0  0  0  0  0  0  0  0
    5.1340   14.8619   13.3690 C   0  0  0  0  0  0  0  0  0  0  0  0
    5.5748   16.1033   13.7880 C   0  0  0  0  0  0  0  0  0  0  0  0
    6.0460   17.0207   12.8650 C   0  0  0  0  0  0  0  0  0  0  0  0
    6.0730   16.6878   11.5223 C   0  0  0  0  0  0  0  0  0  0  0  0
    5.6269   15.4477   11.0981 C   0  0  0  0  0  0  0  0  0  0  0  0
    5.7937   12.1324   11.8812 C   0  0  0  0  0  0  0  0  0  0  0  0
    5.5486   10.9574   12.5774 C   0  0  0  0  0  0  0  0  0  0  0  0
    6.5704   10.0449   12.7779 C   0  0  0  0  0  0  0  0  0  0  0  0
    7.8379   10.2975   12.2861 C   0  0  0  0  0  0  0  0  0  0  0  0
    8.0858   11.4701   11.5927 C   0  0  0  0  0  0  0  0  0  0  0  0
    7.0698   12.3850   11.3907 C   0  0  0  0  0  0  0  0  0  0  0  0
    1.3561   13.2180   11.2561 H   0  0  0  0  0  0  0  0  0  0  0  0
    0.8586   13.3239    9.5623 H   0  0  0  0  0  0  0  0  0  0  0  0
    2.9358   14.2817    8.8914 H   0  0  0  0  0  0  0  0  0  0  0  0
    2.9812   14.8443   10.5677 H   0  0  0  0  0  0  0  0  0  0  0  0
    4.9859   13.2045    9.4900 H   0  0  0  0  0  0  0  0  0  0  0  0
    4.5778    7.8520   10.4323 H   0  0  0  0  0  0  0  0  0  0  0  0
    4.2563    5.4408   10.0567 H   0  0  0  0  0  0  0  0  0  0  0  0
    2.2139    4.6190    8.9433 H   0  0  0  0  0  0  0  0  0  0  0  0
    0.4833    6.2197    8.2118 H   0  0  0  0  0  0  0  0  0  0  0  0
    0.8169    8.6454    8.5753 H   0  0  0  0  0  0  0  0  0  0  0  0
    4.7695   14.1452   14.0892 H   0  0  0  0  0  0  0  0  0  0  0  0
    5.5534   16.3513   14.8384 H   0  0  0  0  0  0  0  0  0  0  0  0
    6.3928   17.9899   13.1898 H   0  0  0  0  0  0  0  0  0  0  0  0
    6.4422   17.3960   10.7957 H   0  0  0  0  0  0  0  0  0  0  0  0
    5.6570   15.2148   10.0448 H   0  0  0  0  0  0  0  0  0  0  0  0
    4.5611   10.7559   12.9662 H   0  0  0  0  0  0  0  0  0  0  0  0
    6.3684    9.1319   13.3180 H   0  0  0  0  0  0  0  0  0  0  0  0
    8.6302    9.5800   12.4305 H   0  0  0  0  0  0  0  0  0  0  0  0
    9.0688   11.6649   11.1949 H   0  0  0  0  0  0  0  0  0  0  0  0
    7.2688   13.2995   10.8516 H   0  0  0  0  0  0  0  0  0  0  0  0
  2  1  1  0  0  0  0
  4  8  1  0  0  0  0
  4 11  1  0  0  0  0
  5  7  1  0  0  0  0
  5  6  1  0  0  0  0
  6  8  2  0  0  0  0
  7  1  1  6  0  0  0
  7  4  1  0  0  0  0
  8  9  1  0  0  0  0
  9 31  1  0  0  0  0
 10 11  1  0  0  0  0
 10  9  1  0  0  0  0
 10 34  1  0  0  0  0
 11 35  1  6  0  0  0
 11 18  1  0  0  0  0
 12  5  1  0  0  0  0
 12 13  1  0  0  0  0
 13 36  1  0  0  0  0
 14 13  2  0  0  0  0
 14 37  1  0  0  0  0
 15 14  1  0  0  0  0
 16 17  1  0  0  0  0
 16 15  2  0  0  0  0
 17 12  2  0  0  0  0
 18 25  1  0  0  0  0
 18 19  1  0  0  0  0
 18  3  1  0  0  0  0
 19 20  1  0  0  0  0
 20 21  2  0  0  0  0
 20 41  1  0  0  0  0
 21 42  1  0  0  0  0
 22 43  1  0  0  0  0
 22 21  1  0  0  0  0
 23 22  2  0  0  0  0
 24 23  1  0  0  0  0
 24 19  2  0  0  0  0
 25 26  1  0  0  0  0
 26 27  2  0  0  0  0
 26 46  1  0  0  0  0
 27 47  1  0  0  0  0
 28 48  1  0  0  0  0
 28 27  1  0  0  0  0
 29 28  2  0  0  0  0
 30 29  1  0  0  0  0
 30 25  2  0  0  0  0
 32  9  1  0  0  0  0
 33 10  1  0  0  0  0
 38 15  1  0  0  0  0
 39 16  1  0  0  0  0
 40 17  1  0  0  0  0
 44 23  1  0  0  0  0
 45 24  1  0  0  0  0
 49 29  1  0  0  0  0
 50 30  1  0  0  0  0
M  END
$$$$
