CSD_code = OMAVUT | q = 0 | S = 0 | Stoichiometry = C23H25ClNRh | MND = 8
 OpenBabel04212202083D

 51 54  0  0  1  0  0  0  0  0999 V2000
    3.1559    4.4400    2.4601 Rh  0  0  2  0  0  0  0  0  0  0  0  0
    4.6514    5.1516    4.0630 Cl  0  0  0  0  0 15  0  0  0  0  0  0
    1.7195    4.2933    3.8639 N   0  0  0  0  0  0  0  0  0  0  0  0
    2.4779    6.3194    2.5111 C   0  0  0  0  0  0  0  0  0  0  0  0
    2.9744    7.4135    1.8149 C   0  0  0  0  0  0  0  0  0  0  0  0
    3.8277    7.3056    1.1591 H   0  0  0  0  0  0  0  0  0  0  0  0
    2.3930    8.6616    1.9660 C   0  0  0  0  0  0  0  0  0  0  0  0
    2.7823    9.5017    1.4081 H   0  0  0  0  0  0  0  0  0  0  0  0
    1.3234    8.8545    2.8345 C   0  0  0  0  0  0  0  0  0  0  0  0
    0.8894    9.8377    2.9420 H   0  0  0  0  0  0  0  0  0  0  0  0
    0.8387    7.7977    3.5716 C   0  0  0  0  0  0  0  0  0  0  0  0
    0.0309    7.9349    4.2764 H   0  0  0  0  0  0  0  0  0  0  0  0
    1.4128    6.5326    3.4142 C   0  0  0  0  0  0  0  0  0  0  0  0
    1.0518    5.3644    4.1471 C   0  0  0  0  0  3  0  0  0  0  0  0
    0.3006    5.3722    4.9332 H   0  0  0  0  0  0  0  0  0  0  0  0
    1.4697    3.0828    4.5178 C   0  0  0  0  0  0  0  0  0  0  0  0
    0.1723    2.5871    4.6390 C   0  0  0  0  0  0  0  0  0  0  0  0
   -0.6531    3.1446    4.2185 H   0  0  0  0  0  0  0  0  0  0  0  0
   -0.0452    1.3740    5.2663 C   0  0  0  0  0  0  0  0  0  0  0  0
   -1.0510    0.9888    5.3489 H   0  0  0  0  0  0  0  0  0  0  0  0
    1.0185    0.6560    5.7870 C   0  0  0  0  0  0  0  0  0  0  0  0
    0.8422   -0.2889    6.2788 H   0  0  0  0  0  0  0  0  0  0  0  0
    2.3086    1.1513    5.6730 C   0  0  0  0  0  0  0  0  0  0  0  0
    3.1379    0.5946    6.0835 H   0  0  0  0  0  0  0  0  0  0  0  0
    2.5409    2.3542    5.0356 C   0  0  0  0  0  0  0  0  0  0  0  0
    3.5401    2.7595    4.9447 H   0  0  0  0  0  0  0  0  0  0  0  0
    2.4427    3.1799    0.8165 C   0  0  2  0  0  0  0  0  0  0  0  0
    3.2868    2.2819    1.5843 C   0  0  0  0  0  0  0  0  0  0  0  0
    4.5736    2.8274    1.6127 C   0  0  0  0  0  0  0  0  0  0  0  0
    4.5622    4.0669    0.8460 C   0  0  1  0  0  0  0  0  0  0  0  0
    3.2703    4.2050    0.2591 C   0  0  1  0  0  3  0  0  0  0  0  0
    1.0452    2.8630    0.3809 C   0  0  0  0  0  0  0  0  0  0  0  0
    1.0725    2.2005   -0.4869 H   0  0  0  0  0  0  0  0  0  0  0  0
    0.5083    3.7673    0.1025 H   0  0  0  0  0  0  0  0  0  0  0  0
    0.4917    2.3596    1.1716 H   0  0  0  0  0  0  0  0  0  0  0  0
    2.8564    0.9374    2.0829 C   0  0  0  0  0  0  0  0  0  0  0  0
    3.5136    0.5778    2.8706 H   0  0  0  0  0  0  0  0  0  0  0  0
    2.8834    0.2214    1.2585 H   0  0  0  0  0  0  0  0  0  0  0  0
    1.8409    0.9618    2.4738 H   0  0  0  0  0  0  0  0  0  0  0  0
    5.8109    2.2441    2.2154 C   0  0  0  0  0  0  0  0  0  0  0  0
    5.5882    1.3352    2.7691 H   0  0  0  0  0  0  0  0  0  0  0  0
    6.2768    2.9590    2.8934 H   0  0  0  0  0  0  0  0  0  0  0  0
    6.5277    2.0074    1.4271 H   0  0  0  0  0  0  0  0  0  0  0  0
    5.8117    4.8061    0.4732 C   0  0  0  0  0  0  0  0  0  0  0  0
    5.5838    5.7473   -0.0212 H   0  0  0  0  0  0  0  0  0  0  0  0
    6.4116    4.1967   -0.2058 H   0  0  0  0  0  0  0  0  0  0  0  0
    6.4079    5.0177    1.3589 H   0  0  0  0  0  0  0  0  0  0  0  0
    2.8586    5.1463   -0.8309 C   0  0  0  0  0  0  0  0  0  0  0  0
    1.8818    5.5852   -0.6350 H   0  0  0  0  0  0  0  0  0  0  0  0
    2.8022    4.5963   -1.7725 H   0  0  0  0  0  0  0  0  0  0  0  0
    3.5778    5.9517   -0.9511 H   0  0  0  0  0  0  0  0  0  0  0  0
  1  4  1  6  0  0  0
  1  3  1  0  0  0  0
  3 14  1  0  0  0  0
  3 16  1  0  0  0  0
  4 13  1  0  0  0  0
  5  7  1  0  0  0  0
  5  4  2  0  0  0  0
  6  5  1  0  0  0  0
  7  9  2  0  0  0  0
  8  7  1  0  0  0  0
  9 10  1  0  0  0  0
  9 11  1  0  0  0  0
 11 12  1  0  0  0  0
 13 11  2  0  0  0  0
 13 14  1  0  0  0  0
 14 15  1  0  0  0  0
 16 17  2  0  0  0  0
 16 25  1  0  0  0  0
 17 19  1  0  0  0  0
 18 17  1  0  0  0  0
 19 20  1  0  0  0  0
 19 21  2  0  0  0  0
 21 22  1  0  0  0  0
 23 21  1  0  0  0  0
 23 24  1  0  0  0  0
 25 23  2  0  0  0  0
 26 25  1  0  0  0  0
 27 32  1  6  0  0  0
 27 28  1  0  0  0  0
 27  1  1  0  0  0  0
 28 29  2  0  0  0  0
 28 36  1  0  0  0  0
 29 40  1  0  0  0  0
 30 44  1  6  0  0  0
 30 29  1  0  0  0  0
 30  1  1  0  0  0  0
 31 48  1  6  0  0  0
 31 27  1  0  0  0  0
 31 30  1  0  0  0  0
 32 35  1  0  0  0  0
 33 32  1  0  0  0  0
 34 32  1  0  0  0  0
 36 39  1  0  0  0  0
 36 37  1  0  0  0  0
 38 36  1  0  0  0  0
 40 41  1  0  0  0  0
 40 42  1  0  0  0  0
 43 40  1  0  0  0  0
 44 47  1  0  0  0  0
 45 44  1  0  0  0  0
 46 44  1  0  0  0  0
 48 49  1  0  0  0  0
 50 48  1  0  0  0  0
 51 48  1  0  0  0  0
M  END
$$$$
