CSD_code = OMEDAM | q = 0 | S = 0 | Stoichiometry = C21H19Br2ReS2 | MND = 9
 OpenBabel04212202083D

 45 44  0  0  0  0  0  0  0  0999 V2000
    2.3763    5.1693    2.1152 Re  0  0  0  0  0  0  0  0  0  0  0  0
   -0.0668    5.4170    2.3143 Br  0  0  0  0  0 15  0  0  0  0  0  0
    2.1573    3.8497    0.0503 Br  0  0  0  0  0 15  0  0  0  0  0  0
    1.5771    3.0406    4.9628 S   0  0  0  0  0  0  0  0  0  0  0  0
    5.1012    3.0566    3.2740 S   0  0  0  0  0  0  0  0  0  0  0  0
    2.3758    3.7705    3.6629 C   0  0  0  0  0  3  0  0  0  0  0  0
    3.5809    3.7909    3.0765 C   0  0  0  0  0  0  0  0  0  0  0  0
    2.4361    7.6313    2.5578 C   0  0  0  0  0  0  0  0  0  0  0  0
    1.6010    8.1452    3.0061 H   0  0  0  0  0  0  0  0  0  0  0  0
    2.5559    7.2897    1.1751 C   0  0  0  0  0  0  0  0  0  0  0  0
    1.8959    7.6318    0.3884 H   0  0  0  0  0  0  0  0  0  0  0  0
    3.8520    6.7413    0.9845 C   0  0  0  0  0  0  0  0  0  0  0  0
    4.2982    6.4946    0.0338 H   0  0  0  0  0  0  0  0  0  0  0  0
    4.5040    6.7175    2.2373 C   0  0  0  0  0  0  0  0  0  0  0  0
    5.5145    6.3933    2.4189 H   0  0  0  0  0  0  0  0  0  0  0  0
    3.6291    7.2679    3.2062 C   0  0  0  0  0  3  0  0  0  0  0  0
    3.8553    7.4149    4.2482 H   0  0  0  0  0  0  0  0  0  0  0  0
    2.9290    1.9469    5.6228 C   0  0  0  0  0  0  0  0  0  0  0  0
    3.1824    1.2560    4.8209 H   0  0  0  0  0  0  0  0  0  0  0  0
    3.7746    2.5973    5.8405 H   0  0  0  0  0  0  0  0  0  0  0  0
    2.4352    1.2389    6.8382 C   0  0  0  0  0  0  0  0  0  0  0  0
    1.8423   -0.0133    6.7307 C   0  0  0  0  0  0  0  0  0  0  0  0
    1.7536   -0.4797    5.7608 H   0  0  0  0  0  0  0  0  0  0  0  0
    1.3705   -0.6621    7.8573 C   0  0  0  0  0  0  0  0  0  0  0  0
    0.9151   -1.6363    7.7642 H   0  0  0  0  0  0  0  0  0  0  0  0
    1.4798   -0.0634    9.1008 C   0  0  0  0  0  0  0  0  0  0  0  0
    1.1101   -0.5697    9.9797 H   0  0  0  0  0  0  0  0  0  0  0  0
    2.0624    1.1876    9.2145 C   0  0  0  0  0  0  0  0  0  0  0  0
    2.1463    1.6594   10.1818 H   0  0  0  0  0  0  0  0  0  0  0  0
    2.5354    1.8368    8.0890 C   0  0  0  0  0  0  0  0  0  0  0  0
    2.9866    2.8142    8.1779 H   0  0  0  0  0  0  0  0  0  0  0  0
    5.9223    3.4355    1.6563 C   0  0  0  0  0  0  0  0  0  0  0  0
    5.2035    4.0195    1.0850 H   0  0  0  0  0  0  0  0  0  0  0  0
    6.8065    4.0261    1.8929 H   0  0  0  0  0  0  0  0  0  0  0  0
    6.2754    2.1609    0.9649 C   0  0  0  0  0  0  0  0  0  0  0  0
    5.3550    1.5443    0.1255 C   0  0  0  0  0  0  0  0  0  0  0  0
    4.3882    1.9960   -0.0412 H   0  0  0  0  0  0  0  0  0  0  0  0
    5.6798    0.3565   -0.5047 C   0  0  0  0  0  0  0  0  0  0  0  0
    4.9610   -0.1115   -1.1595 H   0  0  0  0  0  0  0  0  0  0  0  0
    6.9180   -0.2275   -0.2962 C   0  0  0  0  0  0  0  0  0  0  0  0
    7.1695   -1.1550   -0.7884 H   0  0  0  0  0  0  0  0  0  0  0  0
    7.8347    0.3793    0.5462 C   0  0  0  0  0  0  0  0  0  0  0  0
    8.8012   -0.0729    0.7125 H   0  0  0  0  0  0  0  0  0  0  0  0
    7.5142    1.5671    1.1775 C   0  0  0  0  0  0  0  0  0  0  0  0
    8.2295    2.0396    1.8361 H   0  0  0  0  0  0  0  0  0  0  0  0
  1  7  1  0  0  0  0
  4 18  1  0  0  0  0
  6  4  1  0  0  0  0
  7  5  1  0  0  0  0
  7  6  2  0  0  0  0
  8  9  1  0  0  0  0
  8 16  1  0  0  0  0
 10  8  2  0  0  0  0
 11 10  1  0  0  0  0
 12 10  1  0  0  0  0
 12 14  2  0  0  0  0
 13 12  1  0  0  0  0
 14 15  1  0  0  0  0
 14 16  1  0  0  0  0
 16 17  1  0  0  0  0
 18 20  1  0  0  0  0
 18 21  1  0  0  0  0
 19 18  1  0  0  0  0
 21 30  1  0  0  0  0
 22 21  2  0  0  0  0
 22 24  1  0  0  0  0
 23 22  1  0  0  0  0
 24 26  2  0  0  0  0
 25 24  1  0  0  0  0
 26 28  1  0  0  0  0
 26 27  1  0  0  0  0
 28 29  1  0  0  0  0
 30 31  1  0  0  0  0
 30 28  2  0  0  0  0
 32 34  1  0  0  0  0
 32  5  1  0  0  0  0
 33 32  1  0  0  0  0
 35 44  1  0  0  0  0
 35 32  1  0  0  0  0
 36 35  2  0  0  0  0
 37 36  1  0  0  0  0
 38 40  2  0  0  0  0
 38 36  1  0  0  0  0
 39 38  1  0  0  0  0
 40 42  1  0  0  0  0
 41 40  1  0  0  0  0
 42 43  1  0  0  0  0
 42 44  2  0  0  0  0
 44 45  1  0  0  0  0
M  END
$$$$
