CSD_code = OMEKOH | q = 0 | S = 0 | Stoichiometry = C25H28ClN2O2Rh | MND = 4
 OpenBabel04212202083D

 59 61  0  0  0  0  0  0  0  0999 V2000
    5.4826    1.6332   17.2182 Rh  0  0  0  0  0  0  0  0  0  0  0  0
    6.1003    3.2867   18.6000 Cl  0  0  0  0  0  0  0  0  0  0  0  0
    3.5577    2.2973   17.3188 C   0  0  0  0  0  0  0  0  0  0  0  0
    2.8220    2.5914   18.4096 N   0  0  0  0  0  0  0  0  0  0  0  0
    1.5631    3.0218   18.0474 C   0  0  0  0  0  0  0  0  0  0  0  0
    1.5228    3.0110   16.6868 C   0  0  0  0  0  0  0  0  0  0  0  0
    2.7538    2.5603   16.2642 N   0  0  0  0  0  0  0  0  0  0  0  0
    3.2654    2.5062   19.7592 C   0  0  0  0  0  0  0  0  0  0  0  0
    3.4701    1.2543   20.3386 C   0  0  0  0  0  0  0  0  0  0  0  0
    3.8493    1.1939   21.6710 C   0  0  0  0  0  0  0  0  0  0  0  0
    4.0158    0.2277   22.1254 H   0  0  0  0  0  0  0  0  0  0  0  0
    4.0301    2.3431   22.4252 C   0  0  0  0  0  0  0  0  0  0  0  0
    3.8457    3.5755   21.8150 C   0  0  0  0  0  0  0  0  0  0  0  0
    4.0165    4.4781   22.3839 H   0  0  0  0  0  0  0  0  0  0  0  0
    3.4711    3.6819   20.4853 C   0  0  0  0  0  0  0  0  0  0  0  0
    3.3377    0.0021   19.5262 C   0  0  0  0  0  0  0  0  0  0  0  0
    3.3513   -0.8759   20.1663 H   0  0  0  0  0  0  0  0  0  0  0  0
    4.1886   -0.0627   18.8276 H   0  0  0  0  0  0  0  0  0  0  0  0
    2.4184   -0.0001   18.9411 H   0  0  0  0  0  0  0  0  0  0  0  0
    4.4617    2.2592   23.8571 C   0  0  0  0  0  0  0  0  0  0  0  0
    4.0504    3.0830   24.4361 H   0  0  0  0  0  0  0  0  0  0  0  0
    5.5488    2.3166   23.9165 H   0  0  0  0  0  0  0  0  0  0  0  0
    4.1483    1.3187   24.3045 H   0  0  0  0  0  0  0  0  0  0  0  0
    3.3870    5.0230   19.8259 C   0  0  0  0  0  0  0  0  0  0  0  0
    3.4681    5.8165   20.5638 H   0  0  0  0  0  0  0  0  0  0  0  0
    2.4640    5.1559   19.2668 H   0  0  0  0  0  0  0  0  0  0  0  0
    4.2228    5.1100   19.1305 H   0  0  0  0  0  0  0  0  0  0  0  0
    3.1113    2.3280   14.9084 C   0  0  0  0  0  0  0  0  0  0  0  0
    2.5185    1.2697   14.2183 C   0  0  0  0  0  0  0  0  0  0  0  0
    2.8605    1.0729   12.8884 C   0  0  0  0  0  0  0  0  0  0  0  0
    2.4086    0.2532   12.3489 H   0  0  0  0  0  0  0  0  0  0  0  0
    3.7765    1.8911   12.2454 C   0  0  0  0  0  0  0  0  0  0  0  0
    4.3692    2.9209   12.9632 C   0  0  0  0  0  0  0  0  0  0  0  0
    5.0984    3.5530   12.4777 H   0  0  0  0  0  0  0  0  0  0  0  0
    4.0561    3.1542   14.2928 C   0  0  0  0  0  0  0  0  0  0  0  0
    1.5521    0.3393   14.8881 C   0  0  0  0  0  0  0  0  0  0  0  0
    1.7649    0.2509   15.9514 H   0  0  0  0  0  0  0  0  0  0  0  0
    1.6180   -0.6486   14.4393 H   0  0  0  0  0  0  0  0  0  0  0  0
    0.5282    0.6944   14.7706 H   0  0  0  0  0  0  0  0  0  0  0  0
    4.1521    1.6457   10.8167 C   0  0  0  0  0  0  0  0  0  0  0  0
    4.3674    2.5813   10.3059 H   0  0  0  0  0  0  0  0  0  0  0  0
    3.3565    1.1266   10.2878 H   0  0  0  0  0  0  0  0  0  0  0  0
    5.0479    1.0258   10.7737 H   0  0  0  0  0  0  0  0  0  0  0  0
    4.7340    4.2435   15.0631 C   0  0  0  0  0  0  0  0  0  0  0  0
    4.0136    4.8510   15.6092 H   0  0  0  0  0  0  0  0  0  0  0  0
    5.3098    4.8842   14.4013 H   0  0  0  0  0  0  0  0  0  0  0  0
    5.4225    3.7964   15.7992 H   0  0  0  0  0  0  0  0  0  0  0  0
    0.4794    3.3427   19.0143 C   0  0  0  0  0  0  0  0  0  0  0  0
   -0.3565    2.6554   18.8811 H   0  0  0  0  0  0  0  0  0  0  0  0
    0.1035    4.3533   18.8557 H   0  0  0  0  0  0  0  0  0  0  0  0
    0.8422    3.2557   20.0354 H   0  0  0  0  0  0  0  0  0  0  0  0
    0.4320    3.4324   15.7697 C   0  0  0  0  0  0  0  0  0  0  0  0
    0.1053    4.4427   16.0146 H   0  0  0  0  0  0  0  0  0  0  0  0
   -0.4314    2.7737   15.8645 H   0  0  0  0  0  0  0  0  0  0  0  0
    0.7777    3.4155   14.7390 H   0  0  0  0  0  0  0  0  0  0  0  0
    5.0492    0.2947   16.0372 C   0  0  0  0  0  2  0  0  0  0  0  0
    4.8481   -0.5572   15.2899 O   0  0  0  0  0  1  0  0  0  0  0  0
    7.2922    1.2224   17.3211 C   0  0  0  0  0  2  0  0  0  0  0  0
    8.4123    1.0981   17.5056 O   0  0  0  0  0  1  0  0  0  0  0  0
  1  3  2  0  0  0  0
  1 58  1  0  0  0  0
  1  2  1  0  0  0  0
  3  4  1  0  0  0  0
  4  8  1  0  0  0  0
  5  4  1  0  0  0  0
  5 48  1  0  0  0  0
  6  5  2  0  0  0  0
  7  6  1  0  0  0  0
  7  3  1  0  0  0  0
  8  9  2  0  0  0  0
  8 15  1  0  0  0  0
  9 10  1  0  0  0  0
 10 11  1  0  0  0  0
 10 12  2  0  0  0  0
 12 20  1  0  0  0  0
 13 14  1  0  0  0  0
 13 12  1  0  0  0  0
 15 13  2  0  0  0  0
 16 17  1  0  0  0  0
 16  9  1  0  0  0  0
 18 16  1  0  0  0  0
 19 16  1  0  0  0  0
 20 22  1  0  0  0  0
 20 23  1  0  0  0  0
 20 21  1  0  0  0  0
 24 15  1  0  0  0  0
 24 25  1  0  0  0  0
 26 24  1  0  0  0  0
 27 24  1  0  0  0  0
 28  7  1  0  0  0  0
 29 36  1  0  0  0  0
 29 28  2  0  0  0  0
 30 29  1  0  0  0  0
 31 30  1  0  0  0  0
 32 30  2  0  0  0  0
 32 33  1  0  0  0  0
 33 35  2  0  0  0  0
 34 33  1  0  0  0  0
 35 28  1  0  0  0  0
 35 44  1  0  0  0  0
 36 37  1  0  0  0  0
 38 36  1  0  0  0  0
 39 36  1  0  0  0  0
 40 32  1  0  0  0  0
 41 40  1  0  0  0  0
 42 40  1  0  0  0  0
 43 40  1  0  0  0  0
 44 45  1  0  0  0  0
 44 47  1  0  0  0  0
 46 44  1  0  0  0  0
 48 51  1  0  0  0  0
 49 48  1  0  0  0  0
 50 48  1  0  0  0  0
 52 54  1  0  0  0  0
 52 53  1  0  0  0  0
 52  6  1  0  0  0  0
 55 52  1  0  0  0  0
 56  1  1  0  0  0  0
 57 56  1  0  0  0  0
 58 59  1  0  0  0  0
M  END
$$$$
