CSD_code = OMEMIC | q = 0 | S = 0 | Stoichiometry = C31H25ClP2PtS2 | MND = 4
 OpenBabel04212202083D

 62 68  0  0  0  0  0  0  0  0999 V2000
    2.7355    7.1650    5.4542 Pt  0  0  0  0  0  0  0  0  0  0  0  0
    1.3814    7.0245    3.5736 Cl  0  0  0  0  0  0  0  0  0  0  0  0
    3.9391    9.0735    4.5511 S   0  0  0  0  0  0  0  0  0  0  0  0
    1.6396    5.2662    6.4908 S   0  0  0  0  0  0  0  0  0  0  0  0
    5.5062    8.0482    5.2332 P   0  0  0  0  0  4  0  0  0  0  0  0
    1.6996    6.4472    8.0955 P   0  0  0  0  0  4  0  0  0  0  0  0
    3.8954    7.2863    7.0733 C   0  0  0  0  0  0  0  0  0  0  0  0
    5.2230    7.7181    6.9881 C   0  0  0  0  0  0  0  0  0  0  0  0
    6.0420    7.7986    8.1008 C   0  0  0  0  0  0  0  0  0  0  0  0
    5.5319    7.4721    9.3571 C   0  0  0  0  0  0  0  0  0  0  0  0
    4.2102    7.0499    9.4761 C   0  0  0  0  0  0  0  0  0  0  0  0
    3.4195    6.9466    8.3427 C   0  0  0  0  0  0  0  0  0  0  0  0
    7.0500    8.9582    4.9783 C   0  0  0  0  0  0  0  0  0  0  0  0
    7.9765    8.5810    4.0154 C   0  0  0  0  0  0  0  0  0  0  0  0
    9.1193    9.3404    3.8371 C   0  0  0  0  0  0  0  0  0  0  0  0
    9.3325   10.4690    4.6124 C   0  0  0  0  0  0  0  0  0  0  0  0
    8.4011   10.8496    5.5667 C   0  0  0  0  0  0  0  0  0  0  0  0
    7.2562   10.0976    5.7490 C   0  0  0  0  0  0  0  0  0  0  0  0
    5.6836    6.3954    4.4979 C   0  0  0  0  0  0  0  0  0  0  0  0
    4.7959    5.9599    3.5192 C   0  0  0  0  0  0  0  0  0  0  0  0
    4.8812    4.6556    3.0607 C   0  0  0  0  0  0  0  0  0  0  0  0
    5.8428    3.8002    3.5732 C   0  0  0  0  0  0  0  0  0  0  0  0
    6.7360    4.2442    4.5371 C   0  0  0  0  0  0  0  0  0  0  0  0
    6.6581    5.5420    5.0059 C   0  0  0  0  0  0  0  0  0  0  0  0
    0.7983    8.0130    7.9008 C   0  0  0  0  0  0  0  0  0  0  0  0
    0.1479    8.3123    6.7086 C   0  0  0  0  0  0  0  0  0  0  0  0
   -0.4463    9.5541    6.5557 C   0  0  0  0  0  0  0  0  0  0  0  0
   -0.3922   10.4820    7.5827 C   0  0  0  0  0  0  0  0  0  0  0  0
    0.2478   10.1741    8.7744 C   0  0  0  0  0  0  0  0  0  0  0  0
    0.8485    8.9403    8.9371 C   0  0  0  0  0  0  0  0  0  0  0  0
    1.0454    5.5972    9.5535 C   0  0  0  0  0  0  0  0  0  0  0  0
   -0.2096    5.8890   10.0713 C   0  0  0  0  0  0  0  0  0  0  0  0
   -0.6803    5.1736   11.1579 C   0  0  0  0  0  0  0  0  0  0  0  0
    0.0953    4.1722   11.7201 C   0  0  0  0  0  0  0  0  0  0  0  0
    1.3435    3.8747   11.1947 C   0  0  0  0  0  0  0  0  0  0  0  0
    1.8195    4.5832   10.1077 C   0  0  0  0  0  0  0  0  0  0  0  0
    6.4165    7.5590   10.5655 C   0  0  0  0  0  0  0  0  0  0  0  0
    7.0721    8.1181    8.0066 H   0  0  0  0  0  0  0  0  0  0  0  0
    3.8096    6.8008   10.4505 H   0  0  0  0  0  0  0  0  0  0  0  0
    7.7976    7.7003    3.4140 H   0  0  0  0  0  0  0  0  0  0  0  0
    9.8439    9.0534    3.0896 H   0  0  0  0  0  0  0  0  0  0  0  0
   10.2259   11.0584    4.4689 H   0  0  0  0  0  0  0  0  0  0  0  0
    8.5680   11.7339    6.1636 H   0  0  0  0  0  0  0  0  0  0  0  0
    6.5100   10.3833    6.4791 H   0  0  0  0  0  0  0  0  0  0  0  0
    4.0568    6.6367    3.1037 H   0  0  0  0  0  0  0  0  0  0  0  0
    4.1868    4.3100    2.3107 H   0  0  0  0  0  0  0  0  0  0  0  0
    5.8981    2.7803    3.2223 H   0  0  0  0  0  0  0  0  0  0  0  0
    7.4858    3.5739    4.9315 H   0  0  0  0  0  0  0  0  0  0  0  0
    7.3376    5.9005    5.7686 H   0  0  0  0  0  0  0  0  0  0  0  0
    0.0882    7.5776    5.9120 H   0  0  0  0  0  0  0  0  0  0  0  0
   -0.9433    9.7943    5.6285 H   0  0  0  0  0  0  0  0  0  0  0  0
   -0.8493   11.4523    7.4565 H   0  0  0  0  0  0  0  0  0  0  0  0
    0.2861   10.9007    9.5729 H   0  0  0  0  0  0  0  0  0  0  0  0
    1.3634    8.6883    9.8554 H   0  0  0  0  0  0  0  0  0  0  0  0
   -0.8075    6.6699    9.6219 H   0  0  0  0  0  0  0  0  0  0  0  0
   -1.6555    5.3951   11.5653 H   0  0  0  0  0  0  0  0  0  0  0  0
   -0.2767    3.6168   12.5681 H   0  0  0  0  0  0  0  0  0  0  0  0
    1.9413    3.0884   11.6311 H   0  0  0  0  0  0  0  0  0  0  0  0
    2.7851    4.3585    9.6738 H   0  0  0  0  0  0  0  0  0  0  0  0
    5.8284    7.5444   11.4796 H   0  0  0  0  0  0  0  0  0  0  0  0
    7.1047    6.7134   10.5889 H   0  0  0  0  0  0  0  0  0  0  0  0
    7.0098    8.4711   10.5434 H   0  0  0  0  0  0  0  0  0  0  0  0
  1  4  1  0  0  0  0
  1  7  1  0  0  0  0
  2  1  1  0  0  0  0
  3  5  1  0  0  0  0
  3  1  1  0  0  0  0
  4  6  1  0  0  0  0
  5  8  1  0  0  0  0
  6 12  1  0  0  0  0
  6 31  1  0  0  0  0
  7 12  1  0  0  0  0
  8  7  2  0  0  0  0
  8  9  1  0  0  0  0
  9 10  2  0  0  0  0
 10 11  1  0  0  0  0
 10 37  1  0  0  0  0
 11 39  1  0  0  0  0
 12 11  2  0  0  0  0
 13  5  1  0  0  0  0
 13 18  1  0  0  0  0
 14 13  2  0  0  0  0
 15 14  1  0  0  0  0
 15 16  2  0  0  0  0
 16 17  1  0  0  0  0
 17 18  2  0  0  0  0
 17 43  1  0  0  0  0
 18 44  1  0  0  0  0
 19 24  1  0  0  0  0
 19  5  1  0  0  0  0
 20 19  2  0  0  0  0
 21 20  1  0  0  0  0
 21 22  2  0  0  0  0
 22 23  1  0  0  0  0
 23 48  1  0  0  0  0
 23 24  2  0  0  0  0
 24 49  1  0  0  0  0
 25  6  1  0  0  0  0
 25 30  1  0  0  0  0
 26 25  2  0  0  0  0
 27 26  1  0  0  0  0
 27 28  2  0  0  0  0
 28 29  1  0  0  0  0
 29 30  2  0  0  0  0
 29 53  1  0  0  0  0
 30 54  1  0  0  0  0
 31 32  2  0  0  0  0
 31 36  1  0  0  0  0
 32 33  1  0  0  0  0
 33 56  1  0  0  0  0
 33 34  2  0  0  0  0
 34 57  1  0  0  0  0
 35 58  1  0  0  0  0
 35 34  1  0  0  0  0
 36 35  2  0  0  0  0
 37 61  1  0  0  0  0
 37 60  1  0  0  0  0
 38  9  1  0  0  0  0
 40 14  1  0  0  0  0
 41 15  1  0  0  0  0
 42 16  1  0  0  0  0
 45 20  1  0  0  0  0
 46 21  1  0  0  0  0
 47 22  1  0  0  0  0
 50 26  1  0  0  0  0
 51 27  1  0  0  0  0
 52 28  1  0  0  0  0
 55 32  1  0  0  0  0
 59 36  1  0  0  0  0
 62 37  1  0  0  0  0
M  END
$$$$
