CSD_code = OMETUW | q = 0 | S = 0 | Stoichiometry = C23H24ClOPPtS | MND = 4
 OpenBabel04212202083D

 52 55  0  0  0  0  0  0  0  0999 V2000
    8.5946    3.6247    1.4754 C   0  0  0  0  0  0  0  0  0  0  0  0
    7.4419    3.0144    2.2165 C   0  0  0  0  0  0  0  0  0  0  0  0
    7.8015    2.3103    2.9658 H   0  0  0  0  0  0  0  0  0  0  0  0
    6.8273    2.4879    1.4855 H   0  0  0  0  0  0  0  0  0  0  0  0
    6.8281    3.7859    2.6802 H   0  0  0  0  0  0  0  0  0  0  0  0
    8.9126    6.7696   -2.6135 C   0  0  0  0  0  0  0  0  0  0  0  0
    9.0691    7.4960   -3.7849 C   0  0  0  0  0  0  0  0  0  0  0  0
    8.3803    8.2928   -4.0262 H   0  0  0  0  0  0  0  0  0  0  0  0
   10.1026    7.1813   -4.6486 C   0  0  0  0  0  0  0  0  0  0  0  0
   10.2261    7.7455   -5.5614 H   0  0  0  0  0  0  0  0  0  0  0  0
   10.9660    6.1383   -4.3523 C   0  0  0  0  0  0  0  0  0  0  0  0
   11.7675    5.8935   -5.0334 H   0  0  0  0  0  0  0  0  0  0  0  0
   10.7913    5.4025   -3.1924 C   0  0  0  0  0  0  0  0  0  0  0  0
   11.4516    4.5797   -2.9631 H   0  0  0  0  0  0  0  0  0  0  0  0
    9.7632    5.7168   -2.3217 C   0  0  0  0  0  0  0  0  0  0  0  0
    9.5960    5.1258   -1.4179 H   0  0  0  0  0  0  0  0  0  0  0  0
    8.0877    8.8642   -1.0195 C   0  0  0  0  0  0  0  0  0  0  0  0
    8.4615    9.3457   -1.9220 H   0  0  0  0  0  0  0  0  0  0  0  0
    7.1724    9.3654   -0.7037 H   0  0  0  0  0  0  0  0  0  0  0  0
    9.1366    8.9075    0.0817 C   0  0  0  0  0  0  0  0  0  0  0  0
    9.5014    9.9364    0.1485 H   0  0  0  0  0  0  0  0  0  0  0  0
    9.9884    8.2786   -0.2009 H   0  0  0  0  0  0  0  0  0  0  0  0
    8.5906    8.4747    1.4473 C   0  0  0  0  0  0  0  0  0  0  0  0
    7.5079    8.6212    1.4745 H   0  0  0  0  0  0  0  0  0  0  0  0
    9.0372    9.0714    2.2477 H   0  0  0  0  0  0  0  0  0  0  0  0
    8.4269    6.4894    3.5269 C   0  0  0  0  0  0  0  0  0  0  0  0
    7.3842    7.2092    4.0992 C   0  0  0  0  0  0  0  0  0  0  0  0
    6.8690    7.9700    3.5316 H   0  0  0  0  0  0  0  0  0  0  0  0
    6.9956    6.9515    5.4029 C   0  0  0  0  0  0  0  0  0  0  0  0
    6.1889    7.5194    5.8431 H   0  0  0  0  0  0  0  0  0  0  0  0
    7.6342    5.9692    6.1400 C   0  0  0  0  0  0  0  0  0  0  0  0
    7.3285    5.7721    7.1568 H   0  0  0  0  0  0  0  0  0  0  0  0
    8.6616    5.2343    5.5684 C   0  0  0  0  0  0  0  0  0  0  0  0
    9.1558    4.4611    6.1376 H   0  0  0  0  0  0  0  0  0  0  0  0
    9.0532    5.4885    4.2685 C   0  0  0  0  0  0  0  0  0  0  0  0
    9.8486    4.9137    3.8134 H   0  0  0  0  0  0  0  0  0  0  0  0
   10.7610    6.7318    1.9811 C   0  0  0  0  0  0  0  0  0  0  0  0
   11.5417    5.9623    1.1282 C   0  0  0  0  0  0  0  0  0  0  0  0
   11.0571    5.3315    0.3948 H   0  0  0  0  0  0  0  0  0  0  0  0
   12.9206    5.9806    1.2419 C   0  0  0  0  0  0  0  0  0  0  0  0
   13.5237    5.3778    0.5798 H   0  0  0  0  0  0  0  0  0  0  0  0
   13.5234    6.7647    2.2107 C   0  0  0  0  0  0  0  0  0  0  0  0
   14.5993    6.7777    2.3040 H   0  0  0  0  0  0  0  0  0  0  0  0
   12.7473    7.5261    3.0715 C   0  0  0  0  0  0  0  0  0  0  0  0
   13.2189    8.1281    3.8346 H   0  0  0  0  0  0  0  0  0  0  0  0
   11.3702    7.5117    2.9597 C   0  0  0  0  0  0  0  0  0  0  0  0
   10.7636    8.0920    3.6420 H   0  0  0  0  0  0  0  0  0  0  0  0
    9.7258    3.2317    1.4990 O   0  0  0  0  0  0  0  0  0  0  0  0
    8.9503    6.6941    1.7958 P   0  0  0  0  0  4  0  0  0  0  0  0
    7.5653    7.1726   -1.5085 S   0  0  2  0  0  3  0  0  0  0  0  0
    7.0581    3.7418   -1.0764 Cl  0  0  0  0  0  0  0  0  0  0  0  0
    8.0994    5.1780    0.3422 Pt  0  0  1  0  0  0  0  0  0  0  0  0
  1 48  2  0  0  0  0
  1  2  1  0  0  0  0
  2  5  1  0  0  0  0
  2  3  1  0  0  0  0
  4  2  1  0  0  0  0
  6 15  1  0  0  0  0
  7  6  2  0  0  0  0
  8  7  1  0  0  0  0
  9 11  2  0  0  0  0
  9  7  1  0  0  0  0
 10  9  1  0  0  0  0
 11 13  1  0  0  0  0
 12 11  1  0  0  0  0
 13 14  1  0  0  0  0
 13 15  2  0  0  0  0
 15 16  1  0  0  0  0
 17 19  1  0  0  0  0
 17 20  1  0  0  0  0
 18 17  1  0  0  0  0
 20 21  1  0  0  0  0
 20 23  1  0  0  0  0
 22 20  1  0  0  0  0
 23 24  1  0  0  0  0
 23 49  1  0  0  0  0
 23 25  1  0  0  0  0
 26 27  2  0  0  0  0
 26 35  1  0  0  0  0
 27 29  1  0  0  0  0
 28 27  1  0  0  0  0
 29 30  1  0  0  0  0
 29 31  2  0  0  0  0
 31 32  1  0  0  0  0
 33 34  1  0  0  0  0
 33 31  1  0  0  0  0
 35 33  2  0  0  0  0
 36 35  1  0  0  0  0
 37 46  1  0  0  0  0
 38 40  1  0  0  0  0
 38 37  2  0  0  0  0
 39 38  1  0  0  0  0
 40 42  2  0  0  0  0
 41 40  1  0  0  0  0
 42 43  1  0  0  0  0
 42 44  1  0  0  0  0
 44 45  1  0  0  0  0
 46 44  2  0  0  0  0
 46 47  1  0  0  0  0
 49 37  1  0  0  0  0
 49 26  1  0  0  0  0
 50  6  1  6  0  0  0
 50 17  1  0  0  0  0
 50 52  1  0  0  0  0
 52 51  1  1  0  0  0
 52  1  1  0  0  0  0
 52 49  1  0  0  0  0
M  END
$$$$
