CSD_code = OMIFIA | q = 0 | S = 0 | Stoichiometry = C20H34Cl2NO2ReS | MND = 6
 OpenBabel04212202083D

 61 63  0  0  1  0  0  0  0  0999 V2000
    1.2439    4.6457   20.0340 Re  0  0  0  0  0  0  0  0  0  0  0  0
   -0.1124    2.3089   19.7346 S   0  0  1  0  0  3  0  0  0  0  0  0
    0.4179    4.7153   21.4707 O   0  0  0  0  0  1  0  0  0  0  0  0
    2.6626    6.4210   20.4488 Cl  0  0  0  0  0  0  0  0  0  0  0  0
    2.8022    3.0479   21.0565 N   0  0  1  0  0  4  0  0  0  0  0  0
    3.0806    3.3563   18.0567 C   0  0  0  0  0  0  0  0  0  0  0  0
    2.1825    4.1284   18.6292 O   0  0  0  0  0  0  0  0  0  0  0  0
   -0.1608    6.0036   18.8367 Cl  0  0  0  0  0  0  0  0  0  0  0  0
    3.0869    3.0777   16.6744 C   0  0  0  0  0  0  0  0  0  0  0  0
    4.0717    2.2285   16.2006 C   0  0  0  0  0  0  0  0  0  0  0  0
    4.0934    2.0075   15.1480 H   0  0  0  0  0  0  0  0  0  0  0  0
    5.0433    1.6457   17.0110 C   0  0  0  0  0  0  0  0  0  0  0  0
    5.0144    1.9392   18.3659 C   0  0  0  0  0  0  0  0  0  0  0  0
    5.7481    1.5255   19.0392 H   0  0  0  0  0  0  0  0  0  0  0  0
    4.0547    2.7833   18.8957 C   0  0  0  0  0  0  0  0  0  0  0  0
    2.0433    3.7124   15.7666 C   0  0  0  0  0  0  0  0  0  0  0  0
    2.2345    3.3227   14.2973 C   0  0  0  0  0  0  0  0  0  0  0  0
    2.1243    2.2496   14.1550 H   0  0  0  0  0  0  0  0  0  0  0  0
    3.2079    3.6388   13.9286 H   0  0  0  0  0  0  0  0  0  0  0  0
    1.4745    3.8185   13.6974 H   0  0  0  0  0  0  0  0  0  0  0  0
    2.1482    5.2407   15.8699 C   0  0  0  0  0  0  0  0  0  0  0  0
    1.9386    5.5898   16.8774 H   0  0  0  0  0  0  0  0  0  0  0  0
    1.4261    5.7075   15.2043 H   0  0  0  0  0  0  0  0  0  0  0  0
    3.1469    5.5721   15.5902 H   0  0  0  0  0  0  0  0  0  0  0  0
    0.6430    3.2537   16.2002 C   0  0  0  0  0  0  0  0  0  0  0  0
    0.5898    2.1665   16.2368 H   0  0  0  0  0  0  0  0  0  0  0  0
   -0.0994    3.6155   15.4929 H   0  0  0  0  0  0  0  0  0  0  0  0
    0.3807    3.6477   17.1782 H   0  0  0  0  0  0  0  0  0  0  0  0
    6.0890    0.7377   16.3834 C   0  0  0  0  0  0  0  0  0  0  0  0
    7.0757    0.1781   17.4119 C   0  0  0  0  0  0  0  0  0  0  0  0
    6.5636   -0.4200   18.1625 H   0  0  0  0  0  0  0  0  0  0  0  0
    7.6244    0.9779   17.9036 H   0  0  0  0  0  0  0  0  0  0  0  0
    7.7972   -0.4622   16.9089 H   0  0  0  0  0  0  0  0  0  0  0  0
    5.3883   -0.4453   15.7004 C   0  0  0  0  0  0  0  0  0  0  0  0
    6.1263   -1.1124   15.2606 H   0  0  0  0  0  0  0  0  0  0  0  0
    4.7211   -0.1109   14.9112 H   0  0  0  0  0  0  0  0  0  0  0  0
    4.8040   -1.0076   16.4259 H   0  0  0  0  0  0  0  0  0  0  0  0
    4.0941    3.1576   20.3566 C   0  0  0  0  0  0  0  0  0  0  0  0
    4.4072    4.2052   20.4412 H   0  0  0  0  0  0  0  0  0  0  0  0
    4.8429    2.5334   20.8675 H   0  0  0  0  0  0  0  0  0  0  0  0
    2.9793    3.4621   22.4456 C   0  0  0  0  0  0  0  0  0  0  0  0
    2.0224    3.4434   22.9622 H   0  0  0  0  0  0  0  0  0  0  0  0
    3.3442    4.4875   22.4660 H   0  0  0  0  0  0  0  0  0  0  0  0
    3.6899    2.8096   22.9674 H   0  0  0  0  0  0  0  0  0  0  0  0
    2.2795    1.6804   20.9737 C   0  0  0  0  0  0  0  0  0  0  0  0
    2.7770    1.0434   21.7212 H   0  0  0  0  0  0  0  0  0  0  0  0
    2.5115    1.2821   19.9802 H   0  0  0  0  0  0  0  0  0  0  0  0
    0.7721    1.6042   21.1852 C   0  0  0  0  0  0  0  0  0  0  0  0
    0.4615    2.1790   22.0566 H   0  0  0  0  0  0  0  0  0  0  0  0
    0.4572    0.5658   21.2883 H   0  0  0  0  0  0  0  0  0  0  0  0
   -1.7165    2.7445   20.5095 C   0  0  0  0  0  0  0  0  0  0  0  0
   -2.1387    1.8198   20.9041 H   0  0  0  0  0  0  0  0  0  0  0  0
   -1.4936    3.4442   21.3162 H   0  0  0  0  0  0  0  0  0  0  0  0
   -2.6197    3.3837   19.4741 C   0  0  0  0  0  0  0  0  0  0  0  0
   -2.1640    4.2965   19.0948 H   0  0  0  0  0  0  0  0  0  0  0  0
   -3.5732    3.6370   19.9311 H   0  0  0  0  0  0  0  0  0  0  0  0
   -2.7969    2.7048   18.6432 H   0  0  0  0  0  0  0  0  0  0  0  0
    6.8859    1.5405   15.3454 C   0  0  0  0  0  0  0  0  0  0  0  0
    7.3626    2.3966   15.8181 H   0  0  0  0  0  0  0  0  0  0  0  0
    6.2451    1.9053   14.5479 H   0  0  0  0  0  0  0  0  0  0  0  0
    7.6583    0.9158   14.9023 H   0  0  0  0  0  0  0  0  0  0  0  0
  1  4  1  0  0  0  0
  1  5  1  0  0  0  0
  1  3  1  0  0  0  0
  2  1  1  0  0  0  0
  2 51  1  1  0  0  0
  2 48  1  0  0  0  0
  5 41  1  1  0  0  0
  6  7  1  0  0  0  0
  6 15  1  0  0  0  0
  7  1  1  0  0  0  0
  8  1  1  0  0  0  0
  9  6  2  0  0  0  0
 10  9  1  0  0  0  0
 10 12  2  0  0  0  0
 11 10  1  0  0  0  0
 12 13  1  0  0  0  0
 13 15  2  0  0  0  0
 13 14  1  0  0  0  0
 15 38  1  0  0  0  0
 16 21  1  0  0  0  0
 16 25  1  0  0  0  0
 16  9  1  0  0  0  0
 17 16  1  0  0  0  0
 18 17  1  0  0  0  0
 19 17  1  0  0  0  0
 20 17  1  0  0  0  0
 21 22  1  0  0  0  0
 23 21  1  0  0  0  0
 24 21  1  0  0  0  0
 25 26  1  0  0  0  0
 25 28  1  0  0  0  0
 27 25  1  0  0  0  0
 29 12  1  0  0  0  0
 29 30  1  0  0  0  0
 30 32  1  0  0  0  0
 30 31  1  0  0  0  0
 33 30  1  0  0  0  0
 34 29  1  0  0  0  0
 34 37  1  0  0  0  0
 35 34  1  0  0  0  0
 36 34  1  0  0  0  0
 38 39  1  0  0  0  0
 38 40  1  0  0  0  0
 38  5  1  0  0  0  0
 41 43  1  0  0  0  0
 41 42  1  0  0  0  0
 41 44  1  0  0  0  0
 45  5  1  0  0  0  0
 45 48  1  0  0  0  0
 45 46  1  0  0  0  0
 47 45  1  0  0  0  0
 48 50  1  0  0  0  0
 48 49  1  0  0  0  0
 51 52  1  0  0  0  0
 51 53  1  0  0  0  0
 54 56  1  0  0  0  0
 54 51  1  0  0  0  0
 55 54  1  0  0  0  0
 57 54  1  0  0  0  0
 58 59  1  0  0  0  0
 58 29  1  0  0  0  0
 60 58  1  0  0  0  0
 61 58  1  0  0  0  0
M  END
$$$$
