CSD_code = OMIFIB | q = 0 | S = 0 | Stoichiometry = C34H27BrCuN2P | MND = 4
 OpenBabel04212202083D

 66 72  0  0  1  0  0  0  0  0999 V2000
    1.2811   19.2761   18.4715 Cu  0  0  1  0  0  0  0  0  0  0  0  0
   -0.6070   19.9302   17.4151 Br  0  0  0  0  0  0  0  0  0  0  0  0
    1.1883   17.2345   19.4778 P   0  0  0  0  0  4  0  0  0  0  0  0
   -0.3090   16.5839   20.2888 C   0  0  0  0  0  0  0  0  0  0  0  0
   -1.4654   17.3550   20.2538 C   0  0  0  0  0  0  0  0  0  0  0  0
   -1.4547   18.3211   19.7677 H   0  0  0  0  0  0  0  0  0  0  0  0
   -2.6312   16.8732   20.8243 C   0  0  0  0  0  0  0  0  0  0  0  0
   -3.5299   17.4704   20.7918 H   0  0  0  0  0  0  0  0  0  0  0  0
   -2.6423   15.6276   21.4287 C   0  0  0  0  0  0  0  0  0  0  0  0
   -3.5512   15.2508   21.8745 H   0  0  0  0  0  0  0  0  0  0  0  0
   -1.4904   14.8547   21.4570 C   0  0  0  0  0  0  0  0  0  0  0  0
   -1.5048   13.8790   21.9214 H   0  0  0  0  0  0  0  0  0  0  0  0
   -0.3249   15.3250   20.8843 C   0  0  0  0  0  0  0  0  0  0  0  0
    0.5738   14.7228   20.8944 H   0  0  0  0  0  0  0  0  0  0  0  0
    1.4300   15.9410   18.2192 C   0  0  0  0  0  0  0  0  0  0  0  0
    0.6943   16.1090   17.0477 C   0  0  0  0  0  0  0  0  0  0  0  0
    0.0468   16.9711   16.9456 H   0  0  0  0  0  0  0  0  0  0  0  0
    0.7890   15.1798   16.0296 C   0  0  0  0  0  0  0  0  0  0  0  0
    0.2163   15.3135   15.1238 H   0  0  0  0  0  0  0  0  0  0  0  0
    1.6201   14.0801   16.1742 C   0  0  0  0  0  0  0  0  0  0  0  0
    1.6993   13.3536   15.3788 H   0  0  0  0  0  0  0  0  0  0  0  0
    2.3485   13.9088   17.3400 C   0  0  0  0  0  0  0  0  0  0  0  0
    2.9918   13.0478   17.4537 H   0  0  0  0  0  0  0  0  0  0  0  0
    2.2556   14.8328   18.3658 C   0  0  0  0  0  0  0  0  0  0  0  0
    2.8268   14.6918   19.2734 H   0  0  0  0  0  0  0  0  0  0  0  0
    2.5105   16.9613   20.6851 C   0  0  0  0  0  0  0  0  0  0  0  0
    2.2718   16.9896   22.0566 C   0  0  0  0  0  0  0  0  0  0  0  0
    1.2529   17.0079   22.4202 H   0  0  0  0  0  0  0  0  0  0  0  0
    3.3303   16.9832   22.9461 C   0  0  0  0  0  0  0  0  0  0  0  0
    3.1391   17.0021   24.0092 H   0  0  0  0  0  0  0  0  0  0  0  0
    4.6338   16.9636   22.4779 C   0  0  0  0  0  0  0  0  0  0  0  0
    5.4580   16.9632   23.1757 H   0  0  0  0  0  0  0  0  0  0  0  0
    4.8800   16.9502   21.1138 C   0  0  0  0  0  0  0  0  0  0  0  0
    5.8965   16.9395   20.7470 H   0  0  0  0  0  0  0  0  0  0  0  0
    3.8265   16.9630   20.2211 C   0  0  0  0  0  0  0  0  0  0  0  0
    4.0119   16.9731   19.1536 H   0  0  0  0  0  0  0  0  0  0  0  0
    2.8808   19.1676   17.1702 N   0  0  0  0  0  0  0  0  0  0  0  0
    2.8356   18.9090   15.8725 C   0  0  0  0  0  3  0  0  0  0  0  0
    1.9210   18.4577   15.5125 H   0  0  0  0  0  0  0  0  0  0  0  0
    3.8869   19.1901   15.0206 C   0  0  0  0  0  0  0  0  0  0  0  0
    3.8165   18.9542   13.9712 H   0  0  0  0  0  0  0  0  0  0  0  0
    5.0275   19.7856   15.5499 C   0  0  0  0  0  0  0  0  0  0  0  0
    5.8638   20.0318   14.9126 H   0  0  0  0  0  0  0  0  0  0  0  0
    5.0717   20.0708   16.9005 C   0  0  0  0  0  0  0  0  0  0  0  0
    5.9290   20.5612   17.3341 H   0  0  0  0  0  0  0  0  0  0  0  0
    3.9724   19.7442   17.6954 C   0  0  0  0  0  0  0  0  0  0  0  0
    3.9000   20.0072   19.1274 C   0  0  1  0  0  3  0  0  0  0  0  0
    2.6561   20.1183   19.6297 N   0  0  0  0  0  0  0  0  0  0  0  0
    2.4971   20.3170   20.9311 C   0  0  0  0  0  0  0  0  0  0  0  0
    1.4729   20.4294   21.2624 H   0  0  0  0  0  0  0  0  0  0  0  0
    3.5520   20.4177   21.8286 C   0  0  0  0  0  0  0  0  0  0  0  0
    4.8472   20.3032   21.3045 C   0  0  0  0  0  0  0  0  0  0  0  0
    5.7028   20.3487   21.9608 H   0  0  0  0  0  0  0  0  0  0  0  0
    5.0192   20.1016   19.9530 C   0  0  0  0  0  0  0  0  0  0  0  0
    6.0081   19.9845   19.5381 H   0  0  0  0  0  0  0  0  0  0  0  0
    3.3200   20.6443   23.2579 C   0  0  0  0  0  0  0  0  0  0  0  0
    2.2250   20.0704   23.9016 C   0  0  0  0  0  0  0  0  0  0  0  0
    1.5452   19.4452   23.3429 H   0  0  0  0  0  0  0  0  0  0  0  0
    2.0178   20.2756   25.2524 C   0  0  0  0  0  0  0  0  0  0  0  0
    1.1678   19.8203   25.7391 H   0  0  0  0  0  0  0  0  0  0  0  0
    2.8943   21.0624   25.9814 C   0  0  0  0  0  0  0  0  0  0  0  0
    2.7301   21.2233   27.0363 H   0  0  0  0  0  0  0  0  0  0  0  0
    3.9798   21.6457   25.3498 C   0  0  0  0  0  0  0  0  0  0  0  0
    4.6613   22.2685   25.9105 H   0  0  0  0  0  0  0  0  0  0  0  0
    4.1933   21.4374   24.0003 C   0  0  0  0  0  0  0  0  0  0  0  0
    5.0299   21.9153   23.5117 H   0  0  0  0  0  0  0  0  0  0  0  0
  1  2  1  6  0  0  0
  1  3  1  0  0  0  0
  1 48  1  0  0  0  0
  3  4  1  0  0  0  0
  3 26  1  0  0  0  0
  4 13  1  0  0  0  0
  5  4  2  0  0  0  0
  5  7  1  0  0  0  0
  6  5  1  0  0  0  0
  7  9  2  0  0  0  0
  8  7  1  0  0  0  0
  9 11  1  0  0  0  0
  9 10  1  0  0  0  0
 11 12  1  0  0  0  0
 13 14  1  0  0  0  0
 13 11  2  0  0  0  0
 15 24  1  0  0  0  0
 15  3  1  0  0  0  0
 16 15  2  0  0  0  0
 17 16  1  0  0  0  0
 18 20  2  0  0  0  0
 18 16  1  0  0  0  0
 19 18  1  0  0  0  0
 20 22  1  0  0  0  0
 21 20  1  0  0  0  0
 22 23  1  0  0  0  0
 22 24  2  0  0  0  0
 24 25  1  0  0  0  0
 26 27  1  0  0  0  0
 27 28  1  0  0  0  0
 27 29  2  0  0  0  0
 29 30  1  0  0  0  0
 31 29  1  0  0  0  0
 31 32  1  0  0  0  0
 33 31  2  0  0  0  0
 34 33  1  0  0  0  0
 35 26  2  0  0  0  0
 35 33  1  0  0  0  0
 36 35  1  0  0  0  0
 37 46  1  0  0  0  0
 37  1  1  0  0  0  0
 38 37  1  0  0  0  0
 39 38  1  0  0  0  0
 40 42  2  0  0  0  0
 40 38  1  0  0  0  0
 41 40  1  0  0  0  0
 42 44  1  0  0  0  0
 43 42  1  0  0  0  0
 44 45  1  0  0  0  0
 44 46  2  0  0  0  0
 47 46  1  1  0  0  0
 47 48  1  0  0  0  0
 47 54  1  0  0  0  0
 48 49  1  0  0  0  0
 49 50  1  0  0  0  0
 49 51  2  0  0  0  0
 51 56  1  0  0  0  0
 52 51  1  0  0  0  0
 52 53  1  0  0  0  0
 54 52  2  0  0  0  0
 55 54  1  0  0  0  0
 56 57  2  0  0  0  0
 56 65  1  0  0  0  0
 57 59  1  0  0  0  0
 58 57  1  0  0  0  0
 59 60  1  0  0  0  0
 59 61  2  0  0  0  0
 61 62  1  0  0  0  0
 63 64  1  0  0  0  0
 63 61  1  0  0  0  0
 65 63  2  0  0  0  0
 66 65  1  0  0  0  0
M  END
$$$$
