CSD_code = OMIFEX | q = 0 | S = 0 | Stoichiometry = C34H27ClCuN2P | MND = 4
 OpenBabel04212202083D

 66 72  0  0  1  0  0  0  0  0999 V2000
    9.2272   -5.5395   11.8850 Cu  0  0  1  0  0  0  0  0  0  0  0  0
    9.1341   -7.7250   11.6840 Cl  0  0  0  0  0  0  0  0  0  0  0  0
    8.6868   -5.3226   14.0828 P   0  0  0  0  0  4  0  0  0  0  0  0
    7.3899   -6.4481   14.6763 C   0  0  0  0  0  0  0  0  0  0  0  0
    7.3418   -6.9158   15.9860 C   0  0  0  0  0  0  0  0  0  0  0  0
    8.1013   -6.6153   16.6952 H   0  0  0  0  0  0  0  0  0  0  0  0
    6.3247   -7.7703   16.3695 C   0  0  0  0  0  0  0  0  0  0  0  0
    6.2858   -8.1366   17.3853 H   0  0  0  0  0  0  0  0  0  0  0  0
    5.3610   -8.1635   15.4540 C   0  0  0  0  0  0  0  0  0  0  0  0
    4.5735   -8.8371   15.7591 H   0  0  0  0  0  0  0  0  0  0  0  0
    5.4128   -7.7057   14.1477 C   0  0  0  0  0  0  0  0  0  0  0  0
    4.6701   -8.0250   13.4318 H   0  0  0  0  0  0  0  0  0  0  0  0
    6.4262   -6.8497   13.7577 C   0  0  0  0  0  0  0  0  0  0  0  0
    6.5015   -6.5083   12.7335 H   0  0  0  0  0  0  0  0  0  0  0  0
   10.0952   -5.7949   15.1266 C   0  0  0  0  0  0  0  0  0  0  0  0
   10.6678   -7.0317   14.8312 C   0  0  0  0  0  0  0  0  0  0  0  0
   10.2568   -7.6214   14.0205 H   0  0  0  0  0  0  0  0  0  0  0  0
   11.7491   -7.4807   15.5642 C   0  0  0  0  0  0  0  0  0  0  0  0
   12.1901   -8.4407   15.3399 H   0  0  0  0  0  0  0  0  0  0  0  0
   12.2695   -6.6978   16.5839 C   0  0  0  0  0  0  0  0  0  0  0  0
   13.1147   -7.0490   17.1580 H   0  0  0  0  0  0  0  0  0  0  0  0
   11.7099   -5.4627   16.8666 C   0  0  0  0  0  0  0  0  0  0  0  0
   12.1193   -4.8522   17.6589 H   0  0  0  0  0  0  0  0  0  0  0  0
   10.6237   -5.0049   16.1407 C   0  0  0  0  0  0  0  0  0  0  0  0
   10.1876   -4.0406   16.3638 H   0  0  0  0  0  0  0  0  0  0  0  0
    8.1896   -3.7004   14.7436 C   0  0  0  0  0  0  0  0  0  0  0  0
    7.0826   -3.4897   15.5575 C   0  0  0  0  0  0  0  0  0  0  0  0
    6.4908   -4.3313   15.8898 H   0  0  0  0  0  0  0  0  0  0  0  0
    6.7442   -2.2034   15.9413 C   0  0  0  0  0  0  0  0  0  0  0  0
    5.8877   -2.0430   16.5797 H   0  0  0  0  0  0  0  0  0  0  0  0
    7.4914   -1.1225   15.5038 C   0  0  0  0  0  0  0  0  0  0  0  0
    7.2151   -0.1209   15.7975 H   0  0  0  0  0  0  0  0  0  0  0  0
    8.5902   -1.3262   14.6833 C   0  0  0  0  0  0  0  0  0  0  0  0
    9.1713   -0.4839   14.3369 H   0  0  0  0  0  0  0  0  0  0  0  0
    8.9351   -2.6078   14.3026 C   0  0  0  0  0  0  0  0  0  0  0  0
    9.7886   -2.7842   13.6582 H   0  0  0  0  0  0  0  0  0  0  0  0
   10.9547   -5.0172   10.9531 N   0  0  0  0  0  0  0  0  0  0  0  0
   11.9769   -5.8223   10.6988 C   0  0  0  0  0  3  0  0  0  0  0  0
   12.0158   -6.7276   11.2884 H   0  0  0  0  0  0  0  0  0  0  0  0
   12.9325   -5.5301    9.7450 C   0  0  0  0  0  0  0  0  0  0  0  0
   13.7581   -6.2025    9.5766 H   0  0  0  0  0  0  0  0  0  0  0  0
   12.8063   -4.3519    9.0136 C   0  0  0  0  0  0  0  0  0  0  0  0
   13.5319   -4.0970    8.2555 H   0  0  0  0  0  0  0  0  0  0  0  0
   11.7323   -3.5205    9.2611 C   0  0  0  0  0  0  0  0  0  0  0  0
   11.5857   -2.6182    8.6880 H   0  0  0  0  0  0  0  0  0  0  0  0
   10.8125   -3.8825   10.2455 C   0  0  0  0  0  0  0  0  0  0  0  0
    9.6254   -3.1093   10.5781 C   0  0  1  0  0  3  0  0  0  0  0  0
    8.5955   -3.8352   11.0607 N   0  0  0  0  0  0  0  0  0  0  0  0
    7.4849   -3.2087   11.4305 C   0  0  0  0  0  0  0  0  0  0  0  0
    6.6837   -3.8499   11.7744 H   0  0  0  0  0  0  0  0  0  0  0  0
    7.3143   -1.8328   11.3649 C   0  0  0  0  0  0  0  0  0  0  0  0
    8.3895   -1.0801   10.8669 C   0  0  0  0  0  0  0  0  0  0  0  0
    8.3225   -0.0038   10.8200 H   0  0  0  0  0  0  0  0  0  0  0  0
    9.5415   -1.7219   10.4689 C   0  0  0  0  0  0  0  0  0  0  0  0
   10.3867   -1.1584   10.1050 H   0  0  0  0  0  0  0  0  0  0  0  0
    6.0641   -1.1985   11.7941 C   0  0  0  0  0  0  0  0  0  0  0  0
    5.3323   -1.7228   12.8582 C   0  0  0  0  0  0  0  0  0  0  0  0
    5.6924   -2.5993   13.3745 H   0  0  0  0  0  0  0  0  0  0  0  0
    4.1656   -1.1122   13.2768 C   0  0  0  0  0  0  0  0  0  0  0  0
    3.6147   -1.5265   14.1083 H   0  0  0  0  0  0  0  0  0  0  0  0
    3.7031    0.0249   12.6356 C   0  0  0  0  0  0  0  0  0  0  0  0
    2.7907    0.5005   12.9632 H   0  0  0  0  0  0  0  0  0  0  0  0
    4.4150    0.5471   11.5686 C   0  0  0  0  0  0  0  0  0  0  0  0
    4.0549    1.4282   11.0580 H   0  0  0  0  0  0  0  0  0  0  0  0
    5.5864   -0.0567   11.1523 C   0  0  0  0  0  0  0  0  0  0  0  0
    6.1226    0.3469   10.3059 H   0  0  0  0  0  0  0  0  0  0  0  0
  1  2  1  6  0  0  0
  1  3  1  0  0  0  0
  3  4  1  0  0  0  0
  3 26  1  0  0  0  0
  3 15  1  0  0  0  0
  4  5  1  0  0  0  0
  5  7  2  0  0  0  0
  5  6  1  0  0  0  0
  7  8  1  0  0  0  0
  9 10  1  0  0  0  0
  9  7  1  0  0  0  0
 11  9  2  0  0  0  0
 12 11  1  0  0  0  0
 13 11  1  0  0  0  0
 13  4  2  0  0  0  0
 14 13  1  0  0  0  0
 15 24  1  0  0  0  0
 16 15  2  0  0  0  0
 16 18  1  0  0  0  0
 17 16  1  0  0  0  0
 18 20  2  0  0  0  0
 19 18  1  0  0  0  0
 20 22  1  0  0  0  0
 20 21  1  0  0  0  0
 22 23  1  0  0  0  0
 24 25  1  0  0  0  0
 24 22  2  0  0  0  0
 26 27  1  0  0  0  0
 27 28  1  0  0  0  0
 27 29  2  0  0  0  0
 29 30  1  0  0  0  0
 31 32  1  0  0  0  0
 31 29  1  0  0  0  0
 33 31  2  0  0  0  0
 34 33  1  0  0  0  0
 35 33  1  0  0  0  0
 35 26  2  0  0  0  0
 36 35  1  0  0  0  0
 37  1  1  0  0  0  0
 38 37  1  0  0  0  0
 38 39  1  0  0  0  0
 40 38  1  0  0  0  0
 41 40  1  0  0  0  0
 42 44  1  0  0  0  0
 42 40  2  0  0  0  0
 43 42  1  0  0  0  0
 44 46  2  0  0  0  0
 45 44  1  0  0  0  0
 46 37  1  0  0  0  0
 47 46  1  1  0  0  0
 47 48  1  0  0  0  0
 48 49  1  0  0  0  0
 48  1  1  0  0  0  0
 49 50  1  0  0  0  0
 51 49  2  0  0  0  0
 51 56  1  0  0  0  0
 52 51  1  0  0  0  0
 53 52  1  0  0  0  0
 54 47  1  0  0  0  0
 54 52  2  0  0  0  0
 55 54  1  0  0  0  0
 56 57  1  0  0  0  0
 57 59  2  0  0  0  0
 57 58  1  0  0  0  0
 59 60  1  0  0  0  0
 61 62  1  0  0  0  0
 61 59  1  0  0  0  0
 63 61  2  0  0  0  0
 64 63  1  0  0  0  0
 65 63  1  0  0  0  0
 65 56  2  0  0  0  0
 66 65  1  0  0  0  0
M  END
$$$$
