CSD_code = OMINOP | q = 0 | S = 0 | Stoichiometry = C31H24AuCl2OP | MND = 4
 OpenBabel04212202083D

 60 64  0  0  0  0  0  0  0  0999 V2000
    4.3179    4.2166   14.9472 Au  0  0  0  0  0  0  0  0  0  0  0  0
    4.5231    4.4360   12.6055 Cl  0  0  0  0  0  0  0  0  0  0  0  0
    2.0927    4.5226   15.3361 Cl  0  0  0  0  0  0  0  0  0  0  0  0
    6.5175    3.9142   14.4363 P   0  0  0  0  0  4  0  0  0  0  0  0
    4.7094    4.2549   21.8954 O   0  0  0  0  0  0  0  0  0  0  0  0
    5.1316    3.4340   21.1071 C   0  0  0  0  0  0  0  0  0  0  0  0
    4.9190    3.5817   19.6422 C   0  0  0  0  0  0  0  0  0  0  0  0
    4.8251    2.4877   18.7878 C   0  0  0  0  0  0  0  0  0  0  0  0
    4.8855    1.4824   19.1779 H   0  0  0  0  0  0  0  0  0  0  0  0
    4.6225    2.6809   17.4324 C   0  0  0  0  0  0  0  0  0  0  0  0
    4.5430    1.8191   16.7853 H   0  0  0  0  0  0  0  0  0  0  0  0
    4.5087    3.9598   16.9141 C   0  0  0  0  0  0  0  0  0  0  0  0
    4.5574    5.0508   17.7653 C   0  0  0  0  0  0  0  0  0  0  0  0
    4.4267    6.0510   17.3801 H   0  0  0  0  0  0  0  0  0  0  0  0
    4.7566    4.8622   19.1206 C   0  0  0  0  0  0  0  0  0  0  0  0
    4.7911    5.7068   19.7928 H   0  0  0  0  0  0  0  0  0  0  0  0
    5.8929    2.2424   21.5627 C   0  0  0  0  0  0  0  0  0  0  0  0
    5.5860    1.6906   22.8049 C   0  0  0  0  0  0  0  0  0  0  0  0
    4.7875    2.1303   23.3837 H   0  0  0  0  0  0  0  0  0  0  0  0
    6.2871    0.5967   23.2751 C   0  0  0  0  0  0  0  0  0  0  0  0
    6.0365    0.1663   24.2331 H   0  0  0  0  0  0  0  0  0  0  0  0
    7.3164    0.0575   22.5199 C   0  0  0  0  0  0  0  0  0  0  0  0
    7.8684   -0.7945   22.8884 H   0  0  0  0  0  0  0  0  0  0  0  0
    7.6442    0.6175   21.2953 C   0  0  0  0  0  0  0  0  0  0  0  0
    8.4562    0.2059   20.7134 H   0  0  0  0  0  0  0  0  0  0  0  0
    6.9355    1.7025   20.8129 C   0  0  0  0  0  0  0  0  0  0  0  0
    7.2040    2.1477   19.8656 H   0  0  0  0  0  0  0  0  0  0  0  0
    7.5309    3.5231   15.8984 C   0  0  0  0  0  0  0  0  0  0  0  0
    7.6164    4.5379   16.8509 C   0  0  0  0  0  0  0  0  0  0  0  0
    7.1269    5.4843   16.6567 H   0  0  0  0  0  0  0  0  0  0  0  0
    8.3256    4.3393   18.0174 C   0  0  0  0  0  0  0  0  0  0  0  0
    8.3889    5.1269   18.7531 H   0  0  0  0  0  0  0  0  0  0  0  0
    8.9560    3.1238   18.2419 C   0  0  0  0  0  0  0  0  0  0  0  0
    9.5189    2.9694   19.1507 H   0  0  0  0  0  0  0  0  0  0  0  0
    8.8711    2.1129   17.2993 C   0  0  0  0  0  0  0  0  0  0  0  0
    9.3644    1.1680   17.4739 H   0  0  0  0  0  0  0  0  0  0  0  0
    8.1571    2.3051   16.1286 C   0  0  0  0  0  0  0  0  0  0  0  0
    8.1017    1.5157   15.3922 H   0  0  0  0  0  0  0  0  0  0  0  0
    6.7652    2.5377   13.3040 C   0  0  0  0  0  0  0  0  0  0  0  0
    6.2234    1.3108   13.6832 C   0  0  0  0  0  0  0  0  0  0  0  0
    5.7174    1.2241   14.6377 H   0  0  0  0  0  0  0  0  0  0  0  0
    6.3184    0.2260   12.8327 C   0  0  0  0  0  0  0  0  0  0  0  0
    5.8956   -0.7248   13.1217 H   0  0  0  0  0  0  0  0  0  0  0  0
    6.9435    0.3664   11.6033 C   0  0  0  0  0  0  0  0  0  0  0  0
    7.0111   -0.4797   10.9360 H   0  0  0  0  0  0  0  0  0  0  0  0
    7.4635    1.5922   11.2200 C   0  0  0  0  0  0  0  0  0  0  0  0
    7.9309    1.7019   10.2529 H   0  0  0  0  0  0  0  0  0  0  0  0
    7.3725    2.6852   12.0630 C   0  0  0  0  0  0  0  0  0  0  0  0
    7.7461    3.6509   11.7550 H   0  0  0  0  0  0  0  0  0  0  0  0
    7.3786    5.3719   13.8205 C   0  0  0  0  0  0  0  0  0  0  0  0
    8.7515    5.2713   13.5978 C   0  0  0  0  0  0  0  0  0  0  0  0
    9.2553    4.3291   13.7737 H   0  0  0  0  0  0  0  0  0  0  0  0
    9.4528    6.3764   13.1556 C   0  0  0  0  0  0  0  0  0  0  0  0
   10.5141    6.3008   12.9704 H   0  0  0  0  0  0  0  0  0  0  0  0
    8.7947    7.5804   12.9532 C   0  0  0  0  0  0  0  0  0  0  0  0
    9.3461    8.4417   12.6071 H   0  0  0  0  0  0  0  0  0  0  0  0
    7.4350    7.6835   13.1973 C   0  0  0  0  0  0  0  0  0  0  0  0
    6.9270    8.6238   13.0457 H   0  0  0  0  0  0  0  0  0  0  0  0
    6.7214    6.5809   13.6336 C   0  0  0  0  0  0  0  0  0  0  0  0
    5.6574    6.6482   13.8126 H   0  0  0  0  0  0  0  0  0  0  0  0
  1  3  1  0  0  0  0
  1 12  1  0  0  0  0
  2  1  1  0  0  0  0
  4  1  1  0  0  0  0
  4 28  1  0  0  0  0
  6 17  1  0  0  0  0
  6  5  2  0  0  0  0
  7  6  1  0  0  0  0
  8  9  1  0  0  0  0
  8  7  2  0  0  0  0
 10  8  1  0  0  0  0
 11 10  1  0  0  0  0
 12 10  2  0  0  0  0
 12 13  1  0  0  0  0
 13 15  2  0  0  0  0
 14 13  1  0  0  0  0
 15  7  1  0  0  0  0
 15 16  1  0  0  0  0
 17 18  1  0  0  0  0
 18 20  2  0  0  0  0
 18 19  1  0  0  0  0
 20 21  1  0  0  0  0
 22 23  1  0  0  0  0
 22 20  1  0  0  0  0
 24 22  2  0  0  0  0
 25 24  1  0  0  0  0
 26 24  1  0  0  0  0
 26 17  2  0  0  0  0
 27 26  1  0  0  0  0
 28 37  2  0  0  0  0
 28 29  1  0  0  0  0
 29 31  2  0  0  0  0
 30 29  1  0  0  0  0
 31 33  1  0  0  0  0
 31 32  1  0  0  0  0
 33 34  1  0  0  0  0
 35 36  1  0  0  0  0
 35 33  2  0  0  0  0
 37 35  1  0  0  0  0
 38 37  1  0  0  0  0
 39 40  1  0  0  0  0
 39  4  1  0  0  0  0
 40 41  1  0  0  0  0
 42 43  1  0  0  0  0
 42 40  2  0  0  0  0
 44 42  1  0  0  0  0
 45 44  1  0  0  0  0
 46 44  2  0  0  0  0
 46 48  1  0  0  0  0
 47 46  1  0  0  0  0
 48 39  2  0  0  0  0
 49 48  1  0  0  0  0
 50  4  1  0  0  0  0
 51 52  1  0  0  0  0
 51 50  2  0  0  0  0
 53 51  1  0  0  0  0
 54 53  1  0  0  0  0
 55 53  2  0  0  0  0
 55 57  1  0  0  0  0
 56 55  1  0  0  0  0
 57 59  2  0  0  0  0
 58 57  1  0  0  0  0
 59 60  1  0  0  0  0
 59 50  1  0  0  0  0
M  END
$$$$
