CSD_code = OMODEB | q = 0 | S = 0 | Stoichiometry = C13H12I2N4OZn | MND = 5
 OpenBabel04212202083D

 33 36  0  0  0  0  0  0  0  0999 V2000
   -1.9232    4.0362    8.9707 O   0  0  0  0  0  0  0  0  0  0  0  0
   -3.1059    3.3438   10.6908 Zn  0  0  0  0  0  0  0  0  0  0  0  0
   -5.1169    4.8569   10.0674 I   0  0  0  0  0  0  0  0  0  0  0  0
   -2.8585    0.8308   10.5314 I   0  0  0  0  0  0  0  0  0  0  0  0
   -1.8461    3.9969   13.4821 C   0  0  0  0  0  0  0  0  0  0  0  0
   -3.5820    2.5316   13.8244 C   0  0  0  0  0  0  0  0  0  0  0  0
   -4.4289    2.0179   13.3902 H   0  0  0  0  0  0  0  0  0  0  0  0
   -3.2312    2.3323   15.1508 C   0  0  0  0  0  0  0  0  0  0  0  0
   -3.8050    1.6633   15.7707 H   0  0  0  0  0  0  0  0  0  0  0  0
   -2.1221    3.0031   15.6428 C   0  0  0  0  0  0  0  0  0  0  0  0
   -1.8072    2.8687   16.6671 H   0  0  0  0  0  0  0  0  0  0  0  0
   -1.4199    3.8484   14.8035 C   0  0  0  0  0  0  0  0  0  0  0  0
   -0.5559    4.3845   15.1611 H   0  0  0  0  0  0  0  0  0  0  0  0
   -1.1827    4.8763   12.5297 C   0  0  0  0  0  0  0  0  0  0  0  0
    0.0478    5.6489   12.8913 C   0  0  0  0  0  0  0  0  0  0  0  0
    0.3665    6.2352   12.0320 H   0  0  0  0  0  0  0  0  0  0  0  0
    0.8536    4.9760   13.1822 H   0  0  0  0  0  0  0  0  0  0  0  0
   -0.1593    6.3226   13.7223 H   0  0  0  0  0  0  0  0  0  0  0  0
   -1.8713    5.2599    9.2054 C   0  0  0  0  0  0  0  0  0  0  0  0
   -2.3349    6.2474    8.2402 C   0  0  0  0  0  0  0  0  0  0  0  0
   -2.3004    7.6325    8.4877 C   0  0  0  0  0  0  0  0  0  0  0  0
   -1.7753    8.0014    9.3527 H   0  0  0  0  0  0  0  0  0  0  0  0
   -2.9754    8.4783    7.6573 C   0  0  0  0  0  3  0  0  0  0  0  0
   -3.0047    9.5449    7.8158 H   0  0  0  0  0  0  0  0  0  0  0  0
   -3.6863    6.6788    6.3054 C   0  0  0  0  0  0  0  0  0  0  0  0
   -4.2531    6.3760    5.4396 H   0  0  0  0  0  0  0  0  0  0  0  0
   -3.0337    5.7894    7.1051 C   0  0  0  0  0  0  0  0  0  0  0  0
   -3.0676    4.7282    6.9136 H   0  0  0  0  0  0  0  0  0  0  0  0
   -2.9133    3.3324   13.0176 N   0  0  0  0  0  0  0  0  0  0  0  0
   -1.7351    4.9236   11.3735 N   0  0  0  0  0  0  0  0  0  0  0  0
   -1.5412    5.7635   10.4012 N   0  0  0  0  0  0  0  0  0  0  0  0
   -3.6551    8.0003    6.5910 N   0  0  0  0  0  0  0  0  0  0  0  0
   -4.1806    8.6426    6.0119 H   0  0  0  0  0  0  0  0  0  0  0  0
  1 19  1  0  0  0  0
  1  2  1  0  0  0  0
  2 30  1  0  0  0  0
  2 29  1  0  0  0  0
  3  2  1  0  0  0  0
  4  2  1  0  0  0  0
  5 12  1  0  0  0  0
  6  8  2  0  0  0  0
  7  6  1  0  0  0  0
  8 10  1  0  0  0  0
  8  9  1  0  0  0  0
 10 11  1  0  0  0  0
 12 13  1  0  0  0  0
 12 10  2  0  0  0  0
 14 15  1  0  0  0  0
 14  5  2  0  0  0  0
 15 17  1  0  0  0  0
 15 18  1  0  0  0  0
 16 15  1  0  0  0  0
 19 31  2  0  0  0  0
 20 21  2  0  0  0  0
 20 19  1  0  0  0  0
 21 22  1  0  0  0  0
 23 24  1  0  0  0  0
 23 21  1  0  0  0  0
 25 32  1  0  0  0  0
 25 27  2  0  0  0  0
 26 25  1  0  0  0  0
 27 20  1  0  0  0  0
 28 27  1  0  0  0  0
 29  5  1  0  0  0  0
 29  6  1  0  0  0  0
 30 14  1  0  0  0  0
 31 30  1  0  0  0  0
 32 23  1  0  0  0  0
 33 32  1  0  0  0  0
M  END
$$$$
