CSD_code = OMOQIS | q = 0 | S = 0 | Stoichiometry = C8H12BrClPt | MND = 6
 OpenBabel04212202083D

 23 22  0  0  1  0  0  0  0  0999 V2000
    4.5808    4.5552    4.9570 Pt  0  0  0  0  0  0  0  0  0  0  0  0
    2.5955    4.4208    3.6590 Br  0  0  0  0  0 15  0  0  0  0  0  0
    5.2878    2.6486    3.9670 Cl  0  0  0  0  0 15  0  0  0  0  0  0
    3.7628    6.0123    6.3917 C   0  0  0  0  0  3  0  0  0  0  0  0
    2.6843    5.8613    6.3927 H   0  0  0  0  0  0  0  0  0  0  0  0
    4.3089    6.6890    5.3152 C   0  0  1  0  0  0  0  0  0  0  0  0
    3.6244    7.0623    4.5538 H   0  0  0  0  0  0  0  0  0  0  0  0
    5.6682    7.3432    5.2841 C   0  0  0  0  0  0  0  0  0  0  0  0
    5.6063    8.3131    5.7879 H   0  0  0  0  0  0  0  0  0  0  0  0
    5.9172    7.5417    4.2387 H   0  0  0  0  0  0  0  0  0  0  0  0
    6.7942    6.4957    5.9103 C   0  0  0  0  0  0  0  0  0  0  0  0
    7.7394    6.7915    5.4524 H   0  0  0  0  0  0  0  0  0  0  0  0
    6.8782    6.6953    6.9790 H   0  0  0  0  0  0  0  0  0  0  0  0
    6.5968    5.0120    5.6992 C   0  0  0  0  0  3  0  0  0  0  0  0
    7.2815    4.5454    4.9942 H   0  0  0  0  0  0  0  0  0  0  0  0
    5.9539    4.1826    6.6010 C   0  0  1  0  0  0  0  0  0  0  0  0
    6.1978    3.1219    6.5704 H   0  0  0  0  0  0  0  0  0  0  0  0
    5.2840    4.6209    7.8794 C   0  0  0  0  0  0  0  0  0  0  0  0
    4.6408    3.8036    8.2153 H   0  0  0  0  0  0  0  0  0  0  0  0
    6.0495    4.7630    8.6492 H   0  0  0  0  0  0  0  0  0  0  0  0
    4.4321    5.8989    7.7426 C   0  0  0  0  0  0  0  0  0  0  0  0
    5.0391    6.7880    7.9155 H   0  0  0  0  0  0  0  0  0  0  0  0
    3.6611    5.8806    8.5142 H   0  0  0  0  0  0  0  0  0  0  0  0
  1  6  1  0  0  0  0
  1 16  1  0  0  0  0
  4  5  1  0  0  0  0
  4 21  1  0  0  0  0
  6  7  1  6  0  0  0
  6  4  1  0  0  0  0
  8  6  1  0  0  0  0
  8  9  1  0  0  0  0
  8 11  1  0  0  0  0
 10  8  1  0  0  0  0
 11 13  1  0  0  0  0
 12 11  1  0  0  0  0
 14 11  1  0  0  0  0
 14 16  1  0  0  0  0
 15 14  1  0  0  0  0
 16 17  1  1  0  0  0
 16 18  1  0  0  0  0
 18 19  1  0  0  0  0
 18 20  1  0  0  0  0
 21 18  1  0  0  0  0
 21 22  1  0  0  0  0
 21 23  1  0  0  0  0
M  END
$$$$
