CSD_code = OMUVEY | q = 0 | S = 0 | Stoichiometry = C15H11HgI2N3 | MND = 5
 OpenBabel04212202083D

 32 33  0  0  0  0  0  0  0  0999 V2000
   -1.8153    2.7665    2.4140 Hg  0  0  0  0  0  0  0  0  0  0  0  0
   -1.0696    3.4946    4.8180 I   0  0  0  0  0  0  0  0  0  0  0  0
    0.3357    1.7168    1.7401 N   0  0  0  0  0  0  0  0  0  0  0  0
   -1.8154    0.2406    2.4134 N   0  0  0  0  0  0  0  0  0  0  0  0
    1.3554    2.4921    1.4116 C   0  0  0  0  0  0  0  0  0  0  0  0
    1.1883    3.5604    1.4864 H   0  0  0  0  0  0  0  0  0  0  0  0
    2.5797    1.9976    0.9922 C   0  0  0  0  0  0  0  0  0  0  0  0
    3.3824    2.6695    0.7357 H   0  0  0  0  0  0  0  0  0  0  0  0
    2.7309    0.6241    0.9149 C   0  0  0  0  0  0  0  0  0  0  0  0
    3.6644    0.1878    0.5919 H   0  0  0  0  0  0  0  0  0  0  0  0
    1.6652   -0.1898    1.2579 C   0  0  0  0  0  0  0  0  0  0  0  0
    1.7803   -1.2589    1.1961 H   0  0  0  0  0  0  0  0  0  0  0  0
    0.4656    0.3890    1.6736 C   0  0  0  0  0  0  0  0  0  0  0  0
   -0.7132   -0.4177    2.0575 C   0  0  0  0  0  0  0  0  0  0  0  0
   -0.6791   -1.8137    2.0507 C   0  0  0  0  0  0  0  0  0  0  0  0
    0.2086   -2.3541    1.7708 H   0  0  0  0  0  0  0  0  0  0  0  0
   -1.8152   -2.5114    2.4139 C   0  0  0  0  0  0  0  0  0  0  0  0
   -1.8152   -3.5912    2.4141 H   0  0  0  0  0  0  0  0  0  0  0  0
   -2.5603    3.4998    0.0115 I   0  0  0  0  0  0  0  0  0  0  0  0
   -3.9668    1.7168    3.0859 N   0  0  0  0  0  0  0  0  0  0  0  0
   -4.9865    2.4921    3.4140 C   0  0  0  0  0  0  0  0  0  0  0  0
   -4.8197    3.5604    3.3385 H   0  0  0  0  0  0  0  0  0  0  0  0
   -6.2107    1.9976    3.8338 C   0  0  0  0  0  0  0  0  0  0  0  0
   -7.0135    2.6695    4.0901 H   0  0  0  0  0  0  0  0  0  0  0  0
   -6.3617    0.6241    3.9119 C   0  0  0  0  0  0  0  0  0  0  0  0
   -7.2951    0.1879    4.2353 H   0  0  0  0  0  0  0  0  0  0  0  0
   -5.2958   -0.1898    3.5692 C   0  0  0  0  0  0  0  0  0  0  0  0
   -5.4109   -1.2589    3.6315 H   0  0  0  0  0  0  0  0  0  0  0  0
   -4.0964    0.3890    3.1531 C   0  0  0  0  0  0  0  0  0  0  0  0
   -2.9175   -0.4177    2.7695 C   0  0  0  0  0  0  0  0  0  0  0  0
   -2.9514   -1.8137    2.7768 C   0  0  0  0  0  0  0  0  0  0  0  0
   -3.8391   -2.3541    3.0570 H   0  0  0  0  0  0  0  0  0  0  0  0
  1  2  1  0  0  0  0
  4 30  1  0  0  0  0
  5  6  1  0  0  0  0
  5  3  2  0  0  0  0
  7  5  1  0  0  0  0
  8  7  1  0  0  0  0
  9  7  2  0  0  0  0
  9 11  1  0  0  0  0
 10  9  1  0  0  0  0
 11 13  2  0  0  0  0
 12 11  1  0  0  0  0
 13  3  1  0  0  0  0
 13 14  1  0  0  0  0
 14  4  2  0  0  0  0
 15 14  1  0  0  0  0
 15 17  2  0  0  0  0
 16 15  1  0  0  0  0
 17 18  1  0  0  0  0
 17 31  1  0  0  0  0
 19  1  1  0  0  0  0
 20 29  2  0  0  0  0
 20 21  1  0  0  0  0
 21 23  2  0  0  0  0
 22 21  1  0  0  0  0
 23 25  1  0  0  0  0
 23 24  1  0  0  0  0
 25 26  1  0  0  0  0
 27 28  1  0  0  0  0
 27 25  2  0  0  0  0
 29 27  1  0  0  0  0
 30 31  2  0  0  0  0
 30 29  1  0  0  0  0
 31 32  1  0  0  0  0
M  END
$$$$
