CSD_code = ONADAJ | q = 0 | S = 0 | Stoichiometry = C15H10AuClF7P | MND = 2
 OpenBabel04212202083D

 35 36  0  0  0  0  0  0  0  0999 V2000
    1.6307    5.3769    3.0208 C   0  0  0  0  0  0  0  0  0  0  0  0
    1.8073    5.2497    1.4978 C   0  0  0  0  0  0  0  0  0  0  0  0
    0.2327    4.8925    3.4328 C   0  0  0  0  0  0  0  0  0  0  0  0
    2.1134    7.0640    5.3198 C   0  0  0  0  0  0  0  0  0  0  0  0
    1.1705    7.6239    6.1804 C   0  0  0  0  0  0  0  0  0  0  0  0
    0.2778    8.0779    5.7691 H   0  0  0  0  0  0  0  0  0  0  0  0
    1.3770    7.5927    7.5465 C   0  0  0  0  0  0  0  0  0  0  0  0
    0.6428    8.0249    8.2086 H   0  0  0  0  0  0  0  0  0  0  0  0
    2.5236    7.0079    8.0592 C   0  0  0  0  0  0  0  0  0  0  0  0
    2.6847    6.9806    9.1261 H   0  0  0  0  0  0  0  0  0  0  0  0
    3.4681    6.4622    7.2041 C   0  0  0  0  0  0  0  0  0  0  0  0
    4.3640    6.0117    7.6038 H   0  0  0  0  0  0  0  0  0  0  0  0
    3.2752    6.4931    5.8355 C   0  0  0  0  0  0  0  0  0  0  0  0
    4.0230    6.0731    5.1816 H   0  0  0  0  0  0  0  0  0  0  0  0
    3.3516    7.7133    2.8158 C   0  0  0  0  0  0  0  0  0  0  0  0
    3.3851    9.0340    2.3695 C   0  0  0  0  0  0  0  0  0  0  0  0
    2.4865    9.6354    2.4310 H   0  0  0  0  0  0  0  0  0  0  0  0
    4.5494    9.5613    1.8439 C   0  0  0  0  0  0  0  0  0  0  0  0
    4.5665   10.5831    1.4975 H   0  0  0  0  0  0  0  0  0  0  0  0
    5.6852    8.7728    1.7563 C   0  0  0  0  0  0  0  0  0  0  0  0
    6.5943    9.1796    1.3405 H   0  0  0  0  0  0  0  0  0  0  0  0
    5.6542    7.4591    2.1955 C   0  0  0  0  0  0  0  0  0  0  0  0
    6.5363    6.8417    2.1199 H   0  0  0  0  0  0  0  0  0  0  0  0
    4.4970    6.9227    2.7305 C   0  0  0  0  0  0  0  0  0  0  0  0
    4.4963    5.8914    3.0490 H   0  0  0  0  0  0  0  0  0  0  0  0
   -1.6506   10.0101    2.7368 Cl  0  0  0  0  0  0  0  0  0  0  0  0
    2.5537    4.5800    3.6442 F   0  0  0  0  0  0  0  0  0  0  0  0
    1.0617    4.2924    0.9533 F   0  0  0  0  0  0  0  0  0  0  0  0
    3.0688    4.9941    1.1683 F   0  0  0  0  0  0  0  0  0  0  0  0
    1.4678    6.4056    0.9113 F   0  0  0  0  0  0  0  0  0  0  0  0
   -0.6965    5.3911    2.6181 F   0  0  0  0  0  0  0  0  0  0  0  0
   -0.0637    5.3139    4.6663 F   0  0  0  0  0  0  0  0  0  0  0  0
    0.1221    3.5700    3.4287 F   0  0  0  0  0  0  0  0  0  0  0  0
    1.7704    7.2096    3.5437 P   0  0  0  0  0  4  0  0  0  0  0  0
    0.0136    8.5366    3.0763 Au  0  0  0  0  0  0  0  0  0  0  0  0
  1  3  1  0  0  0  0
  1 34  1  0  0  0  0
  1 27  1  0  0  0  0
  2  1  1  0  0  0  0
  3 32  1  0  0  0  0
  4 13  2  0  0  0  0
  4  5  1  0  0  0  0
  5  7  2  0  0  0  0
  6  5  1  0  0  0  0
  7  9  1  0  0  0  0
  7  8  1  0  0  0  0
  9 10  1  0  0  0  0
 11 12  1  0  0  0  0
 11  9  2  0  0  0  0
 13 11  1  0  0  0  0
 14 13  1  0  0  0  0
 15 34  1  0  0  0  0
 16 17  1  0  0  0  0
 16 15  2  0  0  0  0
 18 16  1  0  0  0  0
 19 18  1  0  0  0  0
 20 18  2  0  0  0  0
 20 22  1  0  0  0  0
 21 20  1  0  0  0  0
 22 24  2  0  0  0  0
 23 22  1  0  0  0  0
 24 15  1  0  0  0  0
 24 25  1  0  0  0  0
 26 35  1  0  0  0  0
 28  2  1  0  0  0  0
 29  2  1  0  0  0  0
 30  2  1  0  0  0  0
 31  3  1  0  0  0  0
 33  3  1  0  0  0  0
 34  4  1  0  0  0  0
 35 34  1  0  0  0  0
M  END
$$$$
