CSD_code = ONAXEH | q = 0 | S = 0 | Stoichiometry = C13H15ClN2O2PtS | MND = 4
 OpenBabel04212202083D

 35 37  0  0  0  0  0  0  0  0999 V2000
   11.2113    6.4826    5.1015 Pt  0  0  2  0  0  0  0  0  0  0  0  0
   12.6057    8.2659    5.0125 Cl  0  0  0  0  0  0  0  0  0  0  0  0
   12.8907    4.9879    4.6939 S   0  0  2  0  0  3  0  0  0  0  0  0
    5.6750    6.6277    5.8871 O   0  0  0  0  0  0  0  0  0  0  0  0
    9.6632    7.7724    5.4346 O   0  0  0  0  0  0  0  0  0  0  0  0
    9.9774    4.9559    5.2322 N   0  0  0  0  0  0  0  0  0  0  0  0
    8.7143    5.0071    5.4210 N   0  0  0  0  0  2  0  0  0  0  0  0
   11.8823    3.5200    4.9085 C   0  0  0  0  0  0  0  0  0  0  0  0
   10.5102    3.6685    5.1332 C   0  0  0  0  0  0  0  0  0  0  0  0
    9.7290    2.5156    5.2616 C   0  0  0  0  0  0  0  0  0  0  0  0
    8.6715    2.6268    5.4354 H   0  0  0  0  0  0  0  0  0  0  0  0
   10.3082    1.2674    5.1654 C   0  0  0  0  0  0  0  0  0  0  0  0
    9.6919    0.3873    5.2662 H   0  0  0  0  0  0  0  0  0  0  0  0
   11.6706    1.1340    4.9356 C   0  0  0  0  0  0  0  0  0  0  0  0
   12.1167    0.1554    4.8557 H   0  0  0  0  0  0  0  0  0  0  0  0
   12.4557    2.2650    4.7985 C   0  0  0  0  0  0  0  0  0  0  0  0
   13.5137    2.1815    4.6022 H   0  0  0  0  0  0  0  0  0  0  0  0
    7.9701    6.0918    5.5612 C   0  0  0  0  0  0  0  0  0  0  0  0
    6.5343    5.7844    5.7371 C   0  0  0  0  0  0  0  0  0  0  0  0
    8.4600    7.4497    5.5660 C   0  0  0  0  0  0  0  0  0  0  0  0
    7.5058    8.5878    5.7527 C   0  0  0  0  0  0  0  0  0  0  0  0
    8.0673    9.5192    5.7360 H   0  0  0  0  0  0  0  0  0  0  0  0
    6.9712    8.4844    6.6942 H   0  0  0  0  0  0  0  0  0  0  0  0
    6.7573    8.5837    4.9635 H   0  0  0  0  0  0  0  0  0  0  0  0
    6.1878    4.3135    5.7171 C   0  0  0  0  0  0  0  0  0  0  0  0
    6.7025    3.8026    6.5264 H   0  0  0  0  0  0  0  0  0  0  0  0
    6.4977    3.8716    4.7742 H   0  0  0  0  0  0  0  0  0  0  0  0
    5.1137    4.2030    5.8395 H   0  0  0  0  0  0  0  0  0  0  0  0
   13.7998    4.9655    6.3052 C   0  0  0  0  0  0  0  0  0  0  0  0
   13.0917    5.2144    7.0968 H   0  0  0  0  0  0  0  0  0  0  0  0
   14.1575    3.9440    6.4351 H   0  0  0  0  0  0  0  0  0  0  0  0
   14.9359    5.9645    6.2444 C   0  0  0  0  0  0  0  0  0  0  0  0
   15.4480    5.9971    7.2031 H   0  0  0  0  0  0  0  0  0  0  0  0
   14.5454    6.9561    6.0193 H   0  0  0  0  0  0  0  0  0  0  0  0
   15.6502    5.6876    5.4730 H   0  0  0  0  0  0  0  0  0  0  0  0
  1  2  1  1  0  0  0
  1  6  1  0  0  0  0
  1  5  1  0  0  0  0
  3  8  1  0  0  0  0
  3  1  1  0  0  0  0
  3 29  1  1  0  0  0
  5 20  1  0  0  0  0
  6  7  1  0  0  0  0
  7 18  1  0  0  0  0
  8  9  1  0  0  0  0
  9  6  1  0  0  0  0
  9 10  2  0  0  0  0
 10 11  1  0  0  0  0
 12 10  1  0  0  0  0
 12 13  1  0  0  0  0
 14 12  2  0  0  0  0
 15 14  1  0  0  0  0
 16  8  2  0  0  0  0
 16 14  1  0  0  0  0
 17 16  1  0  0  0  0
 18 20  2  0  0  0  0
 18 19  1  0  0  0  0
 19  4  2  0  0  0  0
 20 21  1  0  0  0  0
 21 23  1  0  0  0  0
 22 21  1  0  0  0  0
 24 21  1  0  0  0  0
 25 19  1  0  0  0  0
 25 28  1  0  0  0  0
 25 26  1  0  0  0  0
 27 25  1  0  0  0  0
 29 31  1  0  0  0  0
 29 30  1  0  0  0  0
 32 29  1  0  0  0  0
 32 33  1  0  0  0  0
 34 32  1  0  0  0  0
 35 32  1  0  0  0  0
M  END
$$$$
