CSD_code = ONEQUU | q = 0 | S = 0 | Stoichiometry = C23H20Cl2NOPPd | MND = 4
 OpenBabel04212202083D

 49 53  0  0  1  0  0  0  0  0999 V2000
    6.4648    4.2138    2.2457 Pd  0  0  0  0  0  0  0  0  0  0  0  0
    4.7512    3.1113    1.2753 Cl  0  0  0  0  0  0  0  0  0  0  0  0
    7.2121    2.2843    3.1140 Cl  0  0  0  0  0  0  0  0  0  0  0  0
    8.0559    5.3683    3.2691 P   0  0  2  0  0  4  0  0  0  0  0  0
    9.6312    5.1425    3.0528 O   0  0  0  0  0  0  0  0  0  0  0  0
    6.0720    6.0271    1.2556 N   0  0  0  0  0  0  0  0  0  0  0  0
    7.8811    5.7571    5.0697 C   0  0  1  0  0  0  0  0  0  0  0  0
    8.1610    4.8824    5.6647 H   0  0  0  0  0  0  0  0  0  0  0  0
    8.7382    6.9252    5.3996 C   0  0  0  0  0  0  0  0  0  0  0  0
    9.2742    6.8862    6.3373 H   0  0  0  0  0  0  0  0  0  0  0  0
    8.8806    8.0044    4.6058 C   0  0  0  0  0  0  0  0  0  0  0  0
    8.1577    8.1207    3.3524 C   0  0  0  0  0  0  0  0  0  0  0  0
    7.9437    9.1313    3.0227 H   0  0  0  0  0  0  0  0  0  0  0  0
    7.7192    7.0587    2.6527 C   0  0  0  0  0  0  0  0  0  0  0  0
    6.8375    7.1125    1.4970 C   0  0  2  0  0  3  0  0  0  0  0  0
    6.7505    8.2406    0.6789 C   0  0  0  0  0  0  0  0  0  0  0  0
    7.3952    9.0840    0.8684 H   0  0  0  0  0  0  0  0  0  0  0  0
    5.8546    8.2629   -0.3724 C   0  0  0  0  0  0  0  0  0  0  0  0
    5.7839    9.1287   -1.0132 H   0  0  0  0  0  0  0  0  0  0  0  0
    5.0524    7.1516   -0.5826 C   0  0  0  0  0  0  0  0  0  0  0  0
    4.3304    7.1231   -1.3821 H   0  0  0  0  0  0  0  0  0  0  0  0
    5.2007    6.0568    0.2517 C   0  0  0  0  0  0  0  0  0  0  0  0
    4.6007    5.1606    0.1232 H   0  0  0  0  0  0  0  0  0  0  0  0
    6.3732    5.9570    5.1105 C   0  0  0  0  0  0  0  0  0  0  0  0
    5.7695    7.2024    5.1852 C   0  0  0  0  0  0  0  0  0  0  0  0
    6.3626    8.0813    5.3917 H   0  0  0  0  0  0  0  0  0  0  0  0
    4.4015    7.3309    4.9954 C   0  0  0  0  0  0  0  0  0  0  0  0
    3.9475    8.3088    5.0593 H   0  0  0  0  0  0  0  0  0  0  0  0
    3.6274    6.2236    4.6986 C   0  0  0  0  0  0  0  0  0  0  0  0
    2.5702    6.3360    4.5120 H   0  0  0  0  0  0  0  0  0  0  0  0
    4.2106    4.9650    4.6630 C   0  0  0  0  0  0  0  0  0  0  0  0
    3.6084    4.0862    4.4786 H   0  0  0  0  0  0  0  0  0  0  0  0
    5.5748    4.8276    4.8824 C   0  0  0  0  0  0  0  0  0  0  0  0
    6.0117    3.8332    4.9558 H   0  0  0  0  0  0  0  0  0  0  0  0
    9.7189    9.1483    5.0006 C   0  0  0  0  0  0  0  0  0  0  0  0
   10.4775    9.8121    4.0386 C   0  0  0  0  0  0  0  0  0  0  0  0
   10.4530    9.4689    3.0139 H   0  0  0  0  0  0  0  0  0  0  0  0
   11.2796   10.8815    4.3901 C   0  0  0  0  0  0  0  0  0  0  0  0
   11.8690   11.3818    3.6358 H   0  0  0  0  0  0  0  0  0  0  0  0
   11.3289   11.3104    5.7061 C   0  0  0  0  0  0  0  0  0  0  0  0
   11.9527   12.1478    5.9800 H   0  0  0  0  0  0  0  0  0  0  0  0
   10.5732   10.6620    6.6686 C   0  0  0  0  0  0  0  0  0  0  0  0
   10.6040   10.9965    7.6950 H   0  0  0  0  0  0  0  0  0  0  0  0
    9.7746    9.5883    6.3208 C   0  0  0  0  0  0  0  0  0  0  0  0
    9.1735    9.0989    7.0729 H   0  0  0  0  0  0  0  0  0  0  0  0
   10.0815    4.2956    1.9925 C   0  0  0  0  0  0  0  0  0  0  0  0
    9.2457    3.7155    1.5677 H   0  0  0  0  0  0  0  0  0  0  0  0
   10.8202    3.6100    2.4067 H   0  0  0  0  0  0  0  0  0  0  0  0
   10.5384    4.9054    1.2115 H   0  0  0  0  0  0  0  0  0  0  0  0
  1  3  1  0  0  0  0
  1  4  1  0  0  0  0
  2  1  1  0  0  0  0
  4  5  1  6  0  0  0
  4  7  1  0  0  0  0
  6 15  1  0  0  0  0
  6  1  1  0  0  0  0
  7 24  1  0  0  0  0
  7  9  1  0  0  0  0
  7  8  1  1  0  0  0
  9 10  1  0  0  0  0
 11 35  1  0  0  0  0
 11  9  2  0  0  0  0
 12 11  1  0  0  0  0
 13 12  1  0  0  0  0
 14  4  1  0  0  0  0
 14 12  2  0  0  0  0
 15 16  1  1  0  0  0
 15 14  1  0  0  0  0
 16 17  1  0  0  0  0
 18 16  2  0  0  0  0
 19 18  1  0  0  0  0
 20 18  1  0  0  0  0
 20 22  2  0  0  0  0
 21 20  1  0  0  0  0
 22  6  1  0  0  0  0
 23 22  1  0  0  0  0
 24 25  1  0  0  0  0
 25 26  1  0  0  0  0
 27 28  1  0  0  0  0
 27 25  2  0  0  0  0
 29 27  1  0  0  0  0
 30 29  1  0  0  0  0
 31 29  2  0  0  0  0
 31 33  1  0  0  0  0
 32 31  1  0  0  0  0
 33 34  1  0  0  0  0
 33 24  2  0  0  0  0
 35 44  1  0  0  0  0
 36 38  1  0  0  0  0
 36 35  2  0  0  0  0
 37 36  1  0  0  0  0
 38 40  2  0  0  0  0
 39 38  1  0  0  0  0
 40 41  1  0  0  0  0
 40 42  1  0  0  0  0
 42 43  1  0  0  0  0
 44 42  2  0  0  0  0
 44 45  1  0  0  0  0
 46 48  1  0  0  0  0
 46  5  1  0  0  0  0
 47 46  1  0  0  0  0
 49 46  1  0  0  0  0
M  END
$$$$
