CSD_code = ONEZUE | q = 0 | S = 0 | Stoichiometry = C24H14Cl2N3O3Re | MND = 6
 OpenBabel04212202083D

 47 51  0  0  1  0  0  0  0  0999 V2000
    0.3579    7.8992    6.1548 Re  0  0  0  0  0  0  0  0  0  0  0  0
    1.8275    7.4592    4.6768 N   0  0  0  0  0  0  0  0  0  0  0  0
    0.0099    5.7668    5.6449 N   0  0  0  0  0  0  0  0  0  0  0  0
   -2.8782    6.4698    6.0771 C   0  0  0  0  0  0  0  0  0  0  0  0
   -2.5705    6.8021    5.0983 H   0  0  0  0  0  0  0  0  0  0  0  0
   -1.5053    8.0140    8.6225 O   0  0  0  0  0  1  0  0  0  0  0  0
    1.6050   10.5985    6.9837 O   0  0  0  0  0  1  0  0  0  0  0  0
   -1.5573    9.1516    4.0778 O   0  0  0  0  0  1  0  0  0  0  0  0
    1.9227    6.8178    7.5778 Cl  0  0  0  0  0  0  0  0  0  0  0  0
    1.6034   -2.8175    6.4730 Cl  0  0  0  0  0  0  0  0  0  0  0  0
   -0.8712    7.9972    7.6701 C   0  0  0  0  0  2  0  0  0  0  0  0
    1.0860    9.6303    6.6624 C   0  0  0  0  0  2  0  0  0  0  0  0
   -0.8577    8.6823    4.8642 C   0  0  0  0  0  2  0  0  0  0  0  0
    2.6335    8.3495    4.1033 C   0  0  0  0  0  3  0  0  0  0  0  0
    2.4216    9.3909    4.3095 H   0  0  0  0  0  0  0  0  0  0  0  0
    3.6901    7.9985    3.2849 C   0  0  0  0  0  0  0  0  0  0  0  0
    4.3183    8.7622    2.8563 H   0  0  0  0  0  0  0  0  0  0  0  0
    3.9157    6.6531    3.0339 C   0  0  0  0  0  0  0  0  0  0  0  0
    4.7262    6.3355    2.3961 H   0  0  0  0  0  0  0  0  0  0  0  0
    3.0769    5.7237    3.6167 C   0  0  0  0  0  0  0  0  0  0  0  0
    3.2218    4.6739    3.4217 H   0  0  0  0  0  0  0  0  0  0  0  0
    2.0442    6.1522    4.4507 C   0  0  0  0  0  0  0  0  0  0  0  0
    1.1154    5.2190    5.1056 C   0  0  1  0  0  3  0  0  0  0  0  0
    1.3740    3.8557    5.1778 C   0  0  0  0  0  0  0  0  0  0  0  0
    2.2982    3.4561    4.7947 H   0  0  0  0  0  0  0  0  0  0  0  0
    0.4828    3.0104    5.8331 C   0  0  0  0  0  0  0  0  0  0  0  0
   -0.6763    3.5855    6.3412 C   0  0  0  0  0  0  0  0  0  0  0  0
   -1.4281    2.9967    6.8404 H   0  0  0  0  0  0  0  0  0  0  0  0
   -0.8818    4.9545    6.2192 C   0  0  0  0  0  0  0  0  0  0  0  0
   -2.1355    5.5113    6.7659 C   0  0  0  0  0  0  0  0  0  0  0  0
   -2.5275    5.0030    7.9304 N   0  0  0  0  0  0  0  0  0  0  0  0
   -3.6220    5.4807    8.4882 C   0  0  0  0  0  0  0  0  0  0  0  0
   -3.8826    5.0443    9.4433 H   0  0  0  0  0  0  0  0  0  0  0  0
   -4.4040    6.4720    7.9112 C   0  0  0  0  0  0  0  0  0  0  0  0
   -5.2829    6.8408    8.4154 H   0  0  0  0  0  0  0  0  0  0  0  0
   -4.0324    6.9565    6.6678 C   0  0  0  0  0  0  0  0  0  0  0  0
   -4.6266    7.7040    6.1640 H   0  0  0  0  0  0  0  0  0  0  0  0
    0.7584    1.5780    5.9842 C   0  0  0  0  0  0  0  0  0  0  0  0
    0.4289    0.9210    7.1687 C   0  0  0  0  0  0  0  0  0  0  0  0
   -0.0118    1.4762    7.9825 H   0  0  0  0  0  0  0  0  0  0  0  0
    0.6917   -0.4257    7.3253 C   0  0  0  0  0  0  0  0  0  0  0  0
    0.4442   -0.9282    8.2469 H   0  0  0  0  0  0  0  0  0  0  0  0
    1.2797   -1.1323    6.2866 C   0  0  0  0  0  0  0  0  0  0  0  0
    1.6095   -0.4985    5.0981 C   0  0  0  0  0  0  0  0  0  0  0  0
    2.0618   -1.0593    4.2954 H   0  0  0  0  0  0  0  0  0  0  0  0
    1.3531    0.8512    4.9547 C   0  0  0  0  0  0  0  0  0  0  0  0
    1.5938    1.3378    4.0210 H   0  0  0  0  0  0  0  0  0  0  0  0
  1 12  1  0  0  0  0
  1  9  1  0  0  0  0
  1 11  1  0  0  0  0
  2  1  1  0  0  0  0
  3  1  1  0  0  0  0
  3 29  1  0  0  0  0
  4 36  2  0  0  0  0
  4 30  1  0  0  0  0
  5  4  1  0  0  0  0
  8 13  1  0  0  0  0
 11  6  1  0  0  0  0
 12  7  1  0  0  0  0
 13  1  1  0  0  0  0
 14 15  1  0  0  0  0
 14  2  1  0  0  0  0
 16 14  1  0  0  0  0
 17 16  1  0  0  0  0
 18 16  2  0  0  0  0
 18 20  1  0  0  0  0
 19 18  1  0  0  0  0
 20 22  2  0  0  0  0
 21 20  1  0  0  0  0
 22  2  1  0  0  0  0
 23 22  1  1  0  0  0
 23 24  1  0  0  0  0
 23  3  1  0  0  0  0
 24 26  2  0  0  0  0
 25 24  1  0  0  0  0
 26 38  1  0  0  0  0
 26 27  1  0  0  0  0
 27 28  1  0  0  0  0
 29 27  2  0  0  0  0
 29 30  1  0  0  0  0
 30 31  2  0  0  0  0
 31 32  1  0  0  0  0
 32 33  1  0  0  0  0
 34 35  1  0  0  0  0
 34 32  2  0  0  0  0
 36 34  1  0  0  0  0
 37 36  1  0  0  0  0
 38 39  1  0  0  0  0
 39 41  2  0  0  0  0
 39 40  1  0  0  0  0
 41 42  1  0  0  0  0
 43 10  1  0  0  0  0
 43 41  1  0  0  0  0
 44 43  2  0  0  0  0
 45 44  1  0  0  0  0
 46 44  1  0  0  0  0
 46 38  2  0  0  0  0
 47 46  1  0  0  0  0
M  END
$$$$
