CSD_code = ONEZOY | q = 0 | S = 0 | Stoichiometry = C30H19ClN3O3Re | MND = 6
 OpenBabel04212202083D

 57 62  0  0  1  0  0  0  0  0999 V2000
    7.6109    8.3223   17.6762 Re  0  0  0  0  0  0  0  0  0  0  0  0
    9.0395    6.9557   18.4746 N   0  0  0  0  0  0  0  0  0  0  0  0
    8.9948    7.9153   15.9877 N   0  0  0  0  0  0  0  0  0  0  0  0
    7.6794   10.1032   13.5948 N   0  0  0  0  0  0  0  0  0  0  0  0
    6.0705   10.6635   16.3641 O   0  0  0  0  0  1  0  0  0  0  0  0
    6.3774    9.0607   20.4077 O   0  0  0  0  0  1  0  0  0  0  0  0
    5.5766    6.0686   17.0989 O   0  0  0  0  0  1  0  0  0  0  0  0
    9.3401    9.8919   18.1102 Cl  0  0  0  0  0  0  0  0  0  0  0  0
    6.5901    9.7543   16.8261 C   0  0  0  0  0  2  0  0  0  0  0  0
    6.7751    8.7676   19.3750 C   0  0  0  0  0  2  0  0  0  0  0  0
    6.3266    6.9201   17.3017 C   0  0  0  0  0  2  0  0  0  0  0  0
    8.9684    6.3816   19.6731 C   0  0  0  0  0  3  0  0  0  0  0  0
    8.0441    6.5234   20.2186 H   0  0  0  0  0  0  0  0  0  0  0  0
    9.9973    5.6390   20.2198 C   0  0  0  0  0  0  0  0  0  0  0  0
    9.8891    5.2063   21.2010 H   0  0  0  0  0  0  0  0  0  0  0  0
   11.1573    5.4676   19.4790 C   0  0  0  0  0  0  0  0  0  0  0  0
   11.9824    4.8889   19.8651 H   0  0  0  0  0  0  0  0  0  0  0  0
   11.2350    6.0526   18.2306 C   0  0  0  0  0  0  0  0  0  0  0  0
   12.1192    5.9184   17.6295 H   0  0  0  0  0  0  0  0  0  0  0  0
   10.1645    6.8092   17.7542 C   0  0  0  0  0  0  0  0  0  0  0  0
   10.1810    7.4642   16.4376 C   0  0  2  0  0  3  0  0  0  0  0  0
   11.3550    7.6243   15.7128 C   0  0  0  0  0  0  0  0  0  0  0  0
   12.2981    7.3099   16.1284 H   0  0  0  0  0  0  0  0  0  0  0  0
   11.3339    8.2790   14.4838 C   0  0  0  0  0  0  0  0  0  0  0  0
   10.0931    8.6940   14.0126 C   0  0  0  0  0  0  0  0  0  0  0  0
    9.9862    9.1854   13.0595 H   0  0  0  0  0  0  0  0  0  0  0  0
    8.9543    8.4868   14.7806 C   0  0  0  0  0  0  0  0  0  0  0  0
    7.6608    8.9324   14.2247 C   0  0  0  0  0  0  0  0  0  0  0  0
    6.5123    8.1463   14.3140 C   0  0  0  0  0  0  0  0  0  0  0  0
    6.5522    7.1675   14.7652 H   0  0  0  0  0  0  0  0  0  0  0  0
    5.3334    8.6415   13.7823 C   0  0  0  0  0  0  0  0  0  0  0  0
    4.4252    8.0606   13.8404 H   0  0  0  0  0  0  0  0  0  0  0  0
    5.3419    9.8902   13.1827 C   0  0  0  0  0  0  0  0  0  0  0  0
    4.4410   10.3216   12.7761 H   0  0  0  0  0  0  0  0  0  0  0  0
    6.5496   10.5696   13.1018 C   0  0  0  0  0  0  0  0  0  0  0  0
    6.6199   11.5348   12.6176 H   0  0  0  0  0  0  0  0  0  0  0  0
   12.5630    8.5236   13.7257 C   0  0  0  0  0  0  0  0  0  0  0  0
   13.5831    7.5747   13.6851 C   0  0  0  0  0  0  0  0  0  0  0  0
   13.4615    6.6328   14.2009 H   0  0  0  0  0  0  0  0  0  0  0  0
   14.7350    7.8115   12.9637 C   0  0  0  0  0  0  0  0  0  0  0  0
   15.5184    7.0678   12.9476 H   0  0  0  0  0  0  0  0  0  0  0  0
   14.9123    9.0103   12.2755 C   0  0  0  0  0  0  0  0  0  0  0  0
   13.8944    9.9614   12.3250 C   0  0  0  0  0  0  0  0  0  0  0  0
   14.0089   10.8909   11.7871 H   0  0  0  0  0  0  0  0  0  0  0  0
   12.7340    9.7198   13.0303 C   0  0  0  0  0  0  0  0  0  0  0  0
   11.9609   10.4726   13.0678 H   0  0  0  0  0  0  0  0  0  0  0  0
   16.1434    9.2652   11.5150 C   0  0  0  0  0  0  0  0  0  0  0  0
   16.7157    8.2632   10.7346 C   0  0  0  0  0  0  0  0  0  0  0  0
   16.2371    7.2964   10.6738 H   0  0  0  0  0  0  0  0  0  0  0  0
   17.8713    8.5058   10.0159 C   0  0  0  0  0  0  0  0  0  0  0  0
   18.3002    7.7221    9.4085 H   0  0  0  0  0  0  0  0  0  0  0  0
   18.4779    9.7496   10.0717 C   0  0  0  0  0  0  0  0  0  0  0  0
   19.3822    9.9373    9.5122 H   0  0  0  0  0  0  0  0  0  0  0  0
   17.9193   10.7516   10.8476 C   0  0  0  0  0  0  0  0  0  0  0  0
   18.3908   11.7222   10.8978 H   0  0  0  0  0  0  0  0  0  0  0  0
   16.7593   10.5140   11.5607 C   0  0  0  0  0  0  0  0  0  0  0  0
   16.3373   11.2938   12.1780 H   0  0  0  0  0  0  0  0  0  0  0  0
  1  8  1  0  0  0  0
  1  2  1  0  0  0  0
  1 10  1  0  0  0  0
  2 12  1  0  0  0  0
  3 21  1  0  0  0  0
  3  1  1  0  0  0  0
  4 28  1  0  0  0  0
  5  9  1  0  0  0  0
  7 11  1  0  0  0  0
  9  1  1  0  0  0  0
 10  6  1  0  0  0  0
 11  1  1  0  0  0  0
 12 13  1  0  0  0  0
 12 14  1  0  0  0  0
 14 15  1  0  0  0  0
 16 17  1  0  0  0  0
 16 14  2  0  0  0  0
 18 16  1  0  0  0  0
 19 18  1  0  0  0  0
 20 18  2  0  0  0  0
 20  2  1  0  0  0  0
 21 22  1  1  0  0  0
 21 20  1  0  0  0  0
 22 23  1  0  0  0  0
 24 22  2  0  0  0  0
 25 24  1  0  0  0  0
 25 27  2  0  0  0  0
 26 25  1  0  0  0  0
 27  3  1  0  0  0  0
 28 29  2  0  0  0  0
 28 27  1  0  0  0  0
 29 30  1  0  0  0  0
 31 32  1  0  0  0  0
 31 29  1  0  0  0  0
 33 31  2  0  0  0  0
 34 33  1  0  0  0  0
 35 33  1  0  0  0  0
 35  4  2  0  0  0  0
 36 35  1  0  0  0  0
 37 24  1  0  0  0  0
 38 37  1  0  0  0  0
 38 39  1  0  0  0  0
 40 38  2  0  0  0  0
 41 40  1  0  0  0  0
 42 43  2  0  0  0  0
 42 40  1  0  0  0  0
 43 45  1  0  0  0  0
 44 43  1  0  0  0  0
 45 46  1  0  0  0  0
 45 37  2  0  0  0  0
 47 56  1  0  0  0  0
 47 42  1  0  0  0  0
 48 47  2  0  0  0  0
 49 48  1  0  0  0  0
 50 52  2  0  0  0  0
 50 48  1  0  0  0  0
 51 50  1  0  0  0  0
 52 54  1  0  0  0  0
 53 52  1  0  0  0  0
 54 55  1  0  0  0  0
 54 56  2  0  0  0  0
 56 57  1  0  0  0  0
M  END
$$$$
