CSD_code = ONIBAQ | q = 0 | S = 0 | Stoichiometry = C24H14BrClN3O3Re | MND = 6
 OpenBabel04212202083D

 47 51  0  0  1  0  0  0  0  0999 V2000
    6.5248   12.6999    0.3797 Re  0  0  0  0  0  0  0  0  0  0  0  0
    7.7984   23.5747    0.6962 Br  0  0  0  0  0  0  0  0  0  0  0  0
    8.0852   13.8008    1.7929 Cl  0  0  0  0  0  0  0  0  0  0  0  0
    4.6610   12.5963    2.8475 O   0  0  0  0  0  1  0  0  0  0  0  0
    7.7857   10.0156    1.2357 O   0  0  0  0  0  1  0  0  0  0  0  0
    4.6142   11.4240   -1.6870 O   0  0  0  0  0  1  0  0  0  0  0  0
    7.9924   13.1329   -1.1022 N   0  0  0  0  0  0  0  0  0  0  0  0
    6.1686   14.8252   -0.1456 N   0  0  0  0  0  0  0  0  0  0  0  0
    3.6311   15.5949    2.1383 N   0  0  0  0  0  0  0  0  0  0  0  0
    3.2809   14.1199    0.2911 C   0  0  0  0  0  0  0  0  0  0  0  0
    3.5898   13.7822   -0.6855 H   0  0  0  0  0  0  0  0  0  0  0  0
    5.2955   12.6085    1.8954 C   0  0  0  0  0  2  0  0  0  0  0  0
    7.2612   10.9770    0.9039 C   0  0  0  0  0  2  0  0  0  0  0  0
    5.3120   11.9007   -0.9039 C   0  0  0  0  0  2  0  0  0  0  0  0
    8.8031   12.2417   -1.6675 C   0  0  0  0  0  3  0  0  0  0  0  0
    8.5962   11.2011   -1.4523 H   0  0  0  0  0  0  0  0  0  0  0  0
    9.8588   12.5909   -2.4879 C   0  0  0  0  0  0  0  0  0  0  0  0
   10.4918   11.8268   -2.9084 H   0  0  0  0  0  0  0  0  0  0  0  0
   10.0773   13.9350   -2.7514 C   0  0  0  0  0  0  0  0  0  0  0  0
   10.8863   14.2511   -3.3918 H   0  0  0  0  0  0  0  0  0  0  0  0
    9.2334   14.8654   -2.1774 C   0  0  0  0  0  0  0  0  0  0  0  0
    9.3726   15.9139   -2.3828 H   0  0  0  0  0  0  0  0  0  0  0  0
    8.2034   14.4390   -1.3392 C   0  0  0  0  0  0  0  0  0  0  0  0
    7.2722   15.3728   -0.6890 C   0  0  2  0  0  3  0  0  0  0  0  0
    7.5286   16.7369   -0.6221 C   0  0  0  0  0  0  0  0  0  0  0  0
    8.4515   17.1365   -1.0087 H   0  0  0  0  0  0  0  0  0  0  0  0
    6.6379   17.5813    0.0343 C   0  0  0  0  0  0  0  0  0  0  0  0
    5.4800   17.0072    0.5456 C   0  0  0  0  0  0  0  0  0  0  0  0
    4.7286   17.5958    1.0456 H   0  0  0  0  0  0  0  0  0  0  0  0
    5.2758   15.6376    0.4265 C   0  0  0  0  0  0  0  0  0  0  0  0
    4.0231   15.0815    0.9760 C   0  0  0  0  0  0  0  0  0  0  0  0
    2.5362   15.1199    2.6977 C   0  0  0  0  0  0  0  0  0  0  0  0
    2.2760   15.5597    3.6514 H   0  0  0  0  0  0  0  0  0  0  0  0
    1.7532   14.1277    2.1236 C   0  0  0  0  0  0  0  0  0  0  0  0
    0.8730   13.7626    2.6282 H   0  0  0  0  0  0  0  0  0  0  0  0
    2.1253   13.6373    0.8827 C   0  0  0  0  0  0  0  0  0  0  0  0
    1.5304   12.8888    0.3813 H   0  0  0  0  0  0  0  0  0  0  0  0
    6.9143   19.0138    0.1857 C   0  0  0  0  0  0  0  0  0  0  0  0
    7.5009   19.7416   -0.8480 C   0  0  0  0  0  0  0  0  0  0  0  0
    7.7340   19.2573   -1.7847 H   0  0  0  0  0  0  0  0  0  0  0  0
    7.7599   21.0907   -0.7033 C   0  0  0  0  0  0  0  0  0  0  0  0
    8.2065   21.6534   -1.5085 H   0  0  0  0  0  0  0  0  0  0  0  0
    7.4389   21.7165    0.4900 C   0  0  0  0  0  0  0  0  0  0  0  0
    6.8593   21.0131    1.5333 C   0  0  0  0  0  0  0  0  0  0  0  0
    6.6192   21.5138    2.4585 H   0  0  0  0  0  0  0  0  0  0  0  0
    6.5947   19.6668    1.3752 C   0  0  0  0  0  0  0  0  0  0  0  0
    6.1597   19.1102    2.1910 H   0  0  0  0  0  0  0  0  0  0  0  0
  1 13  1  0  0  0  0
  1  3  1  0  0  0  0
  1 12  1  0  0  0  0
  6 14  1  0  0  0  0
  7  1  1  0  0  0  0
  8  1  1  0  0  0  0
  8 30  1  0  0  0  0
  9 32  1  0  0  0  0
 10 36  2  0  0  0  0
 10 31  1  0  0  0  0
 11 10  1  0  0  0  0
 12  4  1  0  0  0  0
 13  5  1  0  0  0  0
 14  1  1  0  0  0  0
 15 16  1  0  0  0  0
 15  7  1  0  0  0  0
 17 15  1  0  0  0  0
 18 17  1  0  0  0  0
 19 17  2  0  0  0  0
 19 21  1  0  0  0  0
 20 19  1  0  0  0  0
 21 23  2  0  0  0  0
 22 21  1  0  0  0  0
 23  7  1  0  0  0  0
 24 23  1  1  0  0  0
 24 25  1  0  0  0  0
 24  8  1  0  0  0  0
 25 27  2  0  0  0  0
 26 25  1  0  0  0  0
 27 38  1  0  0  0  0
 27 28  1  0  0  0  0
 28 29  1  0  0  0  0
 30 28  2  0  0  0  0
 30 31  1  0  0  0  0
 31  9  2  0  0  0  0
 32 33  1  0  0  0  0
 34 35  1  0  0  0  0
 34 32  2  0  0  0  0
 36 34  1  0  0  0  0
 37 36  1  0  0  0  0
 38 46  1  0  0  0  0
 39 41  1  0  0  0  0
 39 38  2  0  0  0  0
 40 39  1  0  0  0  0
 41 43  2  0  0  0  0
 42 41  1  0  0  0  0
 43  2  1  0  0  0  0
 43 44  1  0  0  0  0
 44 45  1  0  0  0  0
 46 44  2  0  0  0  0
 46 47  1  0  0  0  0
M  END
$$$$
