CSD_code = ONIBEU | q = 0 | S = 0 | Stoichiometry = C26H20ClN4O3Re | MND = 6
 OpenBabel04212202083D

 55 59  0  0  1  0  0  0  0  0999 V2000
    3.4732    8.3499    9.5089 C   0  0  0  0  0  2  0  0  0  0  0  0
    2.0605   10.6894    9.6435 C   0  0  0  0  0  2  0  0  0  0  0  0
    4.8568   10.8853    9.4259 C   0  0  0  0  0  2  0  0  0  0  0  0
    3.0806   12.6802   11.9945 C   0  0  0  0  0  3  0  0  0  0  0  0
    2.6327   12.9257   11.0399 H   0  0  0  0  0  0  0  0  0  0  0  0
    3.0050   13.5669   13.0512 C   0  0  0  0  0  0  0  0  0  0  0  0
    2.4867   14.5046   12.9341 H   0  0  0  0  0  0  0  0  0  0  0  0
    3.6077   13.2193   14.2510 C   0  0  0  0  0  0  0  0  0  0  0  0
    3.5777   13.8844   15.1005 H   0  0  0  0  0  0  0  0  0  0  0  0
    4.2521   12.0013   14.3370 C   0  0  0  0  0  0  0  0  0  0  0  0
    4.7417   11.7184   15.2541 H   0  0  0  0  0  0  0  0  0  0  0  0
    4.2671   11.1463   13.2348 C   0  0  0  0  0  0  0  0  0  0  0  0
    4.9275    9.8322   13.2581 C   0  0  1  0  0  3  0  0  0  0  0  0
    5.3484    9.2451   14.4426 C   0  0  0  0  0  0  0  0  0  0  0  0
    5.1538    9.7290   15.3851 H   0  0  0  0  0  0  0  0  0  0  0  0
    5.9441    7.9830   14.4343 C   0  0  0  0  0  0  0  0  0  0  0  0
    6.1295    7.3944   13.1845 C   0  0  0  0  0  0  0  0  0  0  0  0
    6.6041    6.4328   13.0793 H   0  0  0  0  0  0  0  0  0  0  0  0
    5.6983    8.0420   12.0365 C   0  0  0  0  0  0  0  0  0  0  0  0
    5.9397    7.3746   10.7407 C   0  0  0  0  0  0  0  0  0  0  0  0
    6.4326    8.0695    9.6364 C   0  0  0  0  0  0  0  0  0  0  0  0
    6.6847    9.1152    9.7155 H   0  0  0  0  0  0  0  0  0  0  0  0
    6.6165    7.3771    8.4514 C   0  0  0  0  0  0  0  0  0  0  0  0
    6.9907    7.8871    7.5763 H   0  0  0  0  0  0  0  0  0  0  0  0
    6.3079    6.0272    8.4099 C   0  0  0  0  0  0  0  0  0  0  0  0
    6.4145    5.4565    7.5011 H   0  0  0  0  0  0  0  0  0  0  0  0
    5.8713    5.4197    9.5789 C   0  0  0  0  0  0  0  0  0  0  0  0
    5.6447    4.3620    9.6113 H   0  0  0  0  0  0  0  0  0  0  0  0
    6.3462    7.3165   15.6656 C   0  0  0  0  0  0  0  0  0  0  0  0
    6.7980    8.0357   16.7734 C   0  0  0  0  0  0  0  0  0  0  0  0
    6.8890    9.1109   16.7140 H   0  0  0  0  0  0  0  0  0  0  0  0
    7.1832    7.4037   17.9326 C   0  0  0  0  0  0  0  0  0  0  0  0
    7.5557    8.0040   18.7464 H   0  0  0  0  0  0  0  0  0  0  0  0
    7.1181    6.0055   18.0552 C   0  0  0  0  0  0  0  0  0  0  0  0
    6.6547    5.2859   16.9405 C   0  0  0  0  0  0  0  0  0  0  0  0
    6.5602    4.2137   16.9874 H   0  0  0  0  0  0  0  0  0  0  0  0
    6.2902    5.9257   15.7797 C   0  0  0  0  0  0  0  0  0  0  0  0
    5.9142    5.3398   14.9545 H   0  0  0  0  0  0  0  0  0  0  0  0
    7.7598    6.1251   20.4073 C   0  0  0  0  0  0  0  0  0  0  0  0
    8.7270    6.6384   20.3582 H   0  0  0  0  0  0  0  0  0  0  0  0
    7.7738    5.4500   21.2598 H   0  0  0  0  0  0  0  0  0  0  0  0
    6.9782    6.8679   20.5807 H   0  0  0  0  0  0  0  0  0  0  0  0
    7.6072    3.9382   19.2576 C   0  0  0  0  0  0  0  0  0  0  0  0
    6.6260    3.4513   19.2800 H   0  0  0  0  0  0  0  0  0  0  0  0
    8.1527    3.6523   20.1542 H   0  0  0  0  0  0  0  0  0  0  0  0
    8.1623    3.5666   18.3941 H   0  0  0  0  0  0  0  0  0  0  0  0
    3.6900   11.4998   12.0735 N   0  0  0  0  0  0  0  0  0  0  0  0
    5.0797    9.2273   12.0636 N   0  0  0  0  0  0  0  0  0  0  0  0
    5.7039    6.0666   10.7152 N   0  0  0  0  0  0  0  0  0  0  0  0
    7.4913    5.3745   19.2060 N   0  0  0  0  0  0  0  0  0  0  0  0
    3.3159    7.3637    8.9485 O   0  0  0  0  0  1  0  0  0  0  0  0
    1.1018   11.1063    9.1750 O   0  0  0  0  0  1  0  0  0  0  0  0
    5.5957   11.4569    8.7497 O   0  0  0  0  0  1  0  0  0  0  0  0
    2.1618    8.9570   12.1783 Cl  0  0  0  0  0  0  0  0  0  0  0  0
    3.6024    9.9730   10.5868 Re  0  0  0  0  0  0  0  0  0  0  0  0
  1 55  1  0  0  0  0
  2 55  1  0  0  0  0
  3 55  1  0  0  0  0
  4 47  1  0  0  0  0
  4  6  1  0  0  0  0
  5  4  1  0  0  0  0
  6  8  2  0  0  0  0
  7  6  1  0  0  0  0
  8 10  1  0  0  0  0
  8  9  1  0  0  0  0
 10 11  1  0  0  0  0
 12 10  2  0  0  0  0
 13 12  1  1  0  0  0
 13 14  1  0  0  0  0
 14 15  1  0  0  0  0
 16 14  2  0  0  0  0
 16 29  1  0  0  0  0
 17 16  1  0  0  0  0
 18 17  1  0  0  0  0
 19 48  1  0  0  0  0
 19 17  2  0  0  0  0
 20 19  1  0  0  0  0
 21 22  1  0  0  0  0
 21 20  2  0  0  0  0
 23 21  1  0  0  0  0
 24 23  1  0  0  0  0
 25 23  2  0  0  0  0
 25 27  1  0  0  0  0
 26 25  1  0  0  0  0
 27 28  1  0  0  0  0
 27 49  2  0  0  0  0
 29 37  2  0  0  0  0
 29 30  1  0  0  0  0
 30 32  2  0  0  0  0
 31 30  1  0  0  0  0
 32 34  1  0  0  0  0
 32 33  1  0  0  0  0
 34 50  1  0  0  0  0
 35 36  1  0  0  0  0
 35 34  2  0  0  0  0
 37 35  1  0  0  0  0
 38 37  1  0  0  0  0
 39 42  1  0  0  0  0
 39 41  1  0  0  0  0
 40 39  1  0  0  0  0
 43 44  1  0  0  0  0
 43 45  1  0  0  0  0
 46 43  1  0  0  0  0
 47 12  1  0  0  0  0
 48 13  1  0  0  0  0
 49 20  1  0  0  0  0
 50 43  1  0  0  0  0
 50 39  1  0  0  0  0
 51  1  1  0  0  0  0
 52  2  1  0  0  0  0
 53  3  1  0  0  0  0
 55 48  1  0  0  0  0
 55 47  1  0  0  0  0
 55 54  1  0  0  0  0
M  END
$$$$
