CSD_code = ONIGID | q = 1 | S = 0 | Stoichiometry = C34H22ClN8Ru(1+) | MND = 6
 OpenBabel04212202083D

 66 76  0  0  1  0  0  0  0  0999 V2000
    2.5102   19.7861    2.5389 Ru  0  0  0  0  0  0  0  0  0  0  0  0
    1.5885   21.9164    2.3128 Cl  0  0  0  0  0  0  0  0  0  0  0  0
    2.7444   19.8706    0.6602 N   0  0  0  0  0  0  0  0  0  0  0  0
    2.2559   19.7221    4.4753 N   0  0  0  0  0  0  0  0  0  0  0  0
    3.2995   17.9965    2.9307 N   0  0  0  0  0  0  0  0  0  0  0  0
    4.4283   15.5946    3.7951 N   0  0  0  0  0  0  0  0  0  0  0  0
    0.7204   19.0335    1.9691 N   0  0  0  0  0  0  0  0  0  0  0  0
    4.3403   20.6564    2.4921 N   0  0  0  0  0  0  0  0  0  0  0  0
    6.3087   21.7027    3.3395 C   0  0  0  0  0  0  0  0  0  0  0  0
    6.8829   22.0064    4.1992 H   0  0  0  0  0  0  0  0  0  0  0  0
    2.6932   18.4620    6.4354 N   0  0  0  0  0  0  0  0  0  0  0  0
    2.9509   20.2810   -2.0398 C   0  0  0  0  0  0  0  0  0  0  0  0
    3.0371   20.4326   -3.1036 H   0  0  0  0  0  0  0  0  0  0  0  0
    6.7530   21.9610    2.0497 C   0  0  0  0  0  0  0  0  0  0  0  0
    7.6875   22.4716    1.8798 H   0  0  0  0  0  0  0  0  0  0  0  0
    3.8377   20.4804    0.1734 C   0  0  2  0  0  3  0  0  0  0  0  0
   -1.5185   18.2494    2.2146 C   0  0  0  0  0  0  0  0  0  0  0  0
   -2.3164   17.9593    2.8783 H   0  0  0  0  0  0  0  0  0  0  0  0
    1.8010   19.7128   -1.5110 C   0  0  0  0  0  0  0  0  0  0  0  0
    0.9842   19.4398   -2.1577 H   0  0  0  0  0  0  0  0  0  0  0  0
    0.5636   19.0361    0.6215 C   0  0  2  0  0  3  0  0  0  0  0  0
   -0.3013   18.6538    2.7312 C   0  0  0  0  0  0  0  0  0  0  0  0
   -0.1441   18.6841    3.8032 H   0  0  0  0  0  0  0  0  0  0  0  0
    4.3808   15.9271    2.5096 C   0  0  0  0  0  0  0  0  0  0  0  0
    4.8036   15.2171    1.8145 H   0  0  0  0  0  0  0  0  0  0  0  0
    2.7476   18.6337    5.1301 C   0  0  0  0  0  0  0  0  0  0  0  0
    1.7166   19.5276   -0.1337 C   0  0  0  0  0  0  0  0  0  0  0  0
    1.6457   20.6447    5.1531 N   0  0  0  0  0  0  0  0  0  0  0  0
    0.2787   22.6436    6.5182 C   0  0  0  0  0  0  0  0  0  0  0  0
    0.3903   22.6808    5.4457 H   0  0  0  0  0  0  0  0  0  0  0  0
    5.1012   21.0502    3.5091 C   0  0  0  0  0  3  0  0  0  0  0  0
    4.7261   20.8427    4.5048 H   0  0  0  0  0  0  0  0  0  0  0  0
    3.8242   17.1162    2.0702 C   0  0  0  0  0  3  0  0  0  0  0  0
    3.7956   17.3716    1.0186 H   0  0  0  0  0  0  0  0  0  0  0  0
    4.7586   20.9099    1.2270 C   0  0  0  0  0  0  0  0  0  0  0  0
    2.0147   19.3213    8.5781 C   0  0  0  0  0  0  0  0  0  0  0  0
   -0.6342   18.6308    0.0351 C   0  0  0  0  0  0  0  0  0  0  0  0
   -0.7379   18.6388   -1.0372 H   0  0  0  0  0  0  0  0  0  0  0  0
    3.3421   17.6548    4.2440 C   0  0  0  0  0  0  0  0  0  0  0  0
    3.9737   20.6903   -1.1960 C   0  0  0  0  0  0  0  0  0  0  0  0
    4.8454   21.1787   -1.5978 H   0  0  0  0  0  0  0  0  0  0  0  0
    2.0981   19.4187    7.1514 C   0  0  0  0  0  0  0  0  0  0  0  0
    5.9686   21.5578    0.9853 C   0  0  0  0  0  0  0  0  0  0  0  0
    6.2832   21.7500   -0.0270 H   0  0  0  0  0  0  0  0  0  0  0  0
    3.9132   16.4488    4.6533 C   0  0  0  0  0  0  0  0  0  0  0  0
    3.9428   16.1905    5.7014 H   0  0  0  0  0  0  0  0  0  0  0  0
    0.8420   21.5608    7.2057 C   0  0  2  0  0  3  0  0  0  0  0  0
   -0.3933   23.6253    7.2070 C   0  0  0  0  0  0  0  0  0  0  0  0
   -0.8282   24.4603    6.6806 H   0  0  0  0  0  0  0  0  0  0  0  0
    1.5335   20.5393    6.4740 C   0  0  0  0  0  0  0  0  0  0  0  0
    2.5988   18.2317    9.2369 C   0  0  0  0  0  0  0  0  0  0  0  0
    3.1008   17.4868    8.6401 H   0  0  0  0  0  0  0  0  0  0  0  0
    1.3422   20.3304    9.3068 C   0  0  0  0  0  0  0  0  0  0  0  0
   -0.5097   23.5336    8.5913 C   0  0  0  0  0  0  0  0  0  0  0  0
   -1.0389   24.3006    9.1362 H   0  0  0  0  0  0  0  0  0  0  0  0
    1.2919   20.1894   10.6985 C   0  0  0  0  0  0  0  0  0  0  0  0
    0.7939   20.9314   11.3003 H   0  0  0  0  0  0  0  0  0  0  0  0
    0.7385   21.4576    8.6118 C   0  0  0  0  0  0  0  0  0  0  0  0
   -1.6881   18.2343    0.8366 C   0  0  0  0  0  0  0  0  0  0  0  0
   -2.6246   17.9270    0.3990 H   0  0  0  0  0  0  0  0  0  0  0  0
    2.5299   18.1259   10.6051 C   0  0  0  0  0  0  0  0  0  0  0  0
    2.9811   17.2875   11.1123 H   0  0  0  0  0  0  0  0  0  0  0  0
    0.0447   22.4742    9.2782 C   0  0  0  0  0  0  0  0  0  0  0  0
   -0.0685   22.4430   10.3493 H   0  0  0  0  0  0  0  0  0  0  0  0
    1.8725   19.1128   11.3343 C   0  0  0  0  0  0  0  0  0  0  0  0
    1.8160   19.0362   12.4095 H   0  0  0  0  0  0  0  0  0  0  0  0
  1  5  1  0  0  0  0
  1  4  1  0  0  0  0
  2  1  1  0  0  0  0
  3  1  1  0  0  0  0
  4 26  1  0  0  0  0
  4 28  1  0  0  0  0
  5 39  1  0  0  0  0
  6 45  1  0  0  0  0
  7  1  1  0  0  0  0
  7 22  1  0  0  0  0
  8  1  1  0  0  0  0
  8 31  1  0  0  0  0
  9 31  1  0  0  0  0
  9 10  1  0  0  0  0
 11 42  1  0  0  0  0
 12 19  1  0  0  0  0
 12 40  2  0  0  0  0
 13 12  1  0  0  0  0
 14  9  2  0  0  0  0
 15 14  1  0  0  0  0
 16 40  1  1  0  0  0
 16  3  1  0  0  0  0
 16 35  1  0  0  0  0
 17 22  2  0  0  0  0
 17 18  1  0  0  0  0
 19 27  2  0  0  0  0
 20 19  1  0  0  0  0
 21 27  1  1  0  0  0
 21  7  1  0  0  0  0
 22 23  1  0  0  0  0
 24  6  2  0  0  0  0
 25 24  1  0  0  0  0
 26 11  2  0  0  0  0
 27  3  1  0  0  0  0
 28 50  2  0  0  0  0
 29 47  1  0  0  0  0
 29 48  2  0  0  0  0
 30 29  1  0  0  0  0
 31 32  1  0  0  0  0
 33 24  1  0  0  0  0
 33  5  1  0  0  0  0
 34 33  1  0  0  0  0
 35  8  1  0  0  0  0
 36 51  1  0  0  0  0
 36 53  1  0  0  0  0
 37 21  1  0  0  0  0
 37 59  2  0  0  0  0
 38 37  1  0  0  0  0
 39 45  2  0  0  0  0
 39 26  1  0  0  0  0
 41 40  1  0  0  0  0
 42 36  2  0  0  0  0
 43 35  2  0  0  0  0
 43 14  1  0  0  0  0
 44 43  1  0  0  0  0
 45 46  1  0  0  0  0
 47 50  1  6  0  0  0
 47 58  1  0  0  0  0
 48 54  1  0  0  0  0
 49 48  1  0  0  0  0
 50 42  1  0  0  0  0
 51 61  2  0  0  0  0
 52 51  1  0  0  0  0
 53 56  1  0  0  0  0
 54 55  1  0  0  0  0
 54 63  2  0  0  0  0
 56 57  1  0  0  0  0
 56 65  2  0  0  0  0
 58 63  1  0  0  0  0
 58 53  2  0  0  0  0
 59 17  1  0  0  0  0
 60 59  1  0  0  0  0
 61 62  1  0  0  0  0
 61 65  1  0  0  0  0
 63 64  1  0  0  0  0
 65 66  1  0  0  0  0
M  END
$$$$
