CSD_code = ONINIK | q = 0 | S = 0 | Stoichiometry = C32H22Br2Cl2HgN4O2 | MND = 4
 OpenBabel04212202083D

 65 70  0  0  0  0  0  0  0  0999 V2000
   -2.1688   -1.2823   10.9402 C   0  0  0  0  0  0  0  0  0  0  0  0
   -1.9950   -1.3225   12.0052 H   0  0  0  0  0  0  0  0  0  0  0  0
   -3.4223   -1.0287   10.4117 C   0  0  0  0  0  0  0  0  0  0  0  0
   -4.2738   -0.8647   11.0527 H   0  0  0  0  0  0  0  0  0  0  0  0
   -3.5689   -0.9686    9.0347 C   0  0  0  0  0  3  0  0  0  0  0  0
   -4.5255   -0.7430    8.5809 H   0  0  0  0  0  0  0  0  0  0  0  0
   -1.3606   -1.4687    8.7033 C   0  0  0  0  0  0  0  0  0  0  0  0
   -0.5846   -1.6953    7.9827 H   0  0  0  0  0  0  0  0  0  0  0  0
   -1.1025   -1.4841   10.0670 C   0  0  0  0  0  0  0  0  0  0  0  0
    0.2725   -1.7365   10.6156 C   0  0  0  0  0  0  0  0  0  0  0  0
    2.6302   -1.1976   10.0401 C   0  0  0  0  0  0  0  0  0  0  0  0
    3.2026   -1.9573   11.0347 C   0  0  0  0  0  0  0  0  0  0  0  0
    2.5812   -2.5419   11.6910 H   0  0  0  0  0  0  0  0  0  0  0  0
    4.5875   -1.9788   11.2090 C   0  0  0  0  0  0  0  0  0  0  0  0
    5.0136   -2.5844   11.9937 H   0  0  0  0  0  0  0  0  0  0  0  0
    5.3923   -1.2375   10.3905 C   0  0  0  0  0  0  0  0  0  0  0  0
    4.8634   -0.4353    9.3528 C   0  0  0  0  0  0  0  0  0  0  0  0
    5.6802    0.3389    8.5050 C   0  0  0  0  0  0  0  0  0  0  0  0
    6.7494    0.3213    8.6526 H   0  0  0  0  0  0  0  0  0  0  0  0
    5.1428    1.1043    7.5090 C   0  0  0  0  0  0  0  0  0  0  0  0
    5.7826    1.6933    6.8699 H   0  0  0  0  0  0  0  0  0  0  0  0
    3.7573    1.1214    7.3167 C   0  0  0  0  0  0  0  0  0  0  0  0
    3.3297    1.7207    6.5276 H   0  0  0  0  0  0  0  0  0  0  0  0
    2.9350    0.3820    8.1226 C   0  0  0  0  0  0  0  0  0  0  0  0
    1.8746    0.4310    7.9224 H   0  0  0  0  0  0  0  0  0  0  0  0
    3.4495   -0.4164    9.1672 C   0  0  0  0  0  0  0  0  0  0  0  0
   -2.5594   -1.1918    8.1947 N   0  0  0  0  0  0  0  0  0  0  0  0
    1.2461   -1.1745    9.8507 N   0  0  0  0  0  0  0  0  0  0  0  0
    0.9400   -0.6225    9.0605 H   0  0  0  0  0  0  0  0  0  0  0  0
    0.4337   -2.3611   11.6418 O   0  0  0  0  0  0  0  0  0  0  0  0
    7.2749   -1.3136   10.6863 Br  0  0  0  0  0  0  0  0  0  0  0  0
   -2.4458   -0.2456    5.9562 Hg  0  0  0  0  0  0  0  0  0  0  0  0
   -0.3283    0.5539    6.3041 Cl  0  0  0  0  0  0  0  0  0  0  0  0
   -2.7256   -1.2826    0.9738 C   0  0  0  0  0  0  0  0  0  0  0  0
   -2.9002   -1.3214   -0.0911 H   0  0  0  0  0  0  0  0  0  0  0  0
   -1.4715   -1.0308    1.5017 C   0  0  0  0  0  0  0  0  0  0  0  0
   -0.6203   -0.8670    0.8603 H   0  0  0  0  0  0  0  0  0  0  0  0
   -1.3240   -0.9725    2.8786 C   0  0  0  0  0  3  0  0  0  0  0  0
   -0.3668   -0.7485    3.3322 H   0  0  0  0  0  0  0  0  0  0  0  0
   -3.5323   -1.4718    3.2110 C   0  0  0  0  0  0  0  0  0  0  0  0
   -4.3081   -1.6987    3.9318 H   0  0  0  0  0  0  0  0  0  0  0  0
   -3.7914   -1.4851    1.8474 C   0  0  0  0  0  0  0  0  0  0  0  0
   -5.1669   -1.7360    1.2991 C   0  0  0  0  0  0  0  0  0  0  0  0
   -7.5241   -1.1976    1.8763 C   0  0  0  0  0  0  0  0  0  0  0  0
   -8.0969   -1.9563    0.8812 C   0  0  0  0  0  0  0  0  0  0  0  0
   -7.4758   -2.5405    0.2243 H   0  0  0  0  0  0  0  0  0  0  0  0
   -9.4818   -1.9774    0.7072 C   0  0  0  0  0  0  0  0  0  0  0  0
   -9.9082   -2.5822   -0.0780 H   0  0  0  0  0  0  0  0  0  0  0  0
  -10.2863   -1.2367    1.5265 C   0  0  0  0  0  0  0  0  0  0  0  0
   -9.7571   -0.4356    2.5648 C   0  0  0  0  0  0  0  0  0  0  0  0
  -10.5736    0.3380    3.4136 C   0  0  0  0  0  0  0  0  0  0  0  0
  -11.6428    0.3205    3.2662 H   0  0  0  0  0  0  0  0  0  0  0  0
  -10.0359    1.1023    4.4101 C   0  0  0  0  0  0  0  0  0  0  0  0
  -10.6755    1.6908    5.0499 H   0  0  0  0  0  0  0  0  0  0  0  0
   -8.6504    1.1193    4.6020 C   0  0  0  0  0  0  0  0  0  0  0  0
   -8.2225    1.7180    5.3914 H   0  0  0  0  0  0  0  0  0  0  0  0
   -7.8283    0.3806    3.7952 C   0  0  0  0  0  0  0  0  0  0  0  0
   -6.7678    0.4294    3.9949 H   0  0  0  0  0  0  0  0  0  0  0  0
   -8.3432   -0.4170    2.7501 C   0  0  0  0  0  0  0  0  0  0  0  0
   -2.3332   -1.1960    3.7191 N   0  0  0  0  0  0  0  0  0  0  0  0
   -6.1400   -1.1752    2.0656 N   0  0  0  0  0  0  0  0  0  0  0  0
   -5.8335   -0.6245    2.8565 H   0  0  0  0  0  0  0  0  0  0  0  0
   -5.3287   -2.3583    0.2717 O   0  0  0  0  0  0  0  0  0  0  0  0
  -12.1691   -1.3122    1.2309 Br  0  0  0  0  0  0  0  0  0  0  0  0
   -4.5628    0.5546    5.6064 Cl  0  0  0  0  0  0  0  0  0  0  0  0
  1  2  1  0  0  0  0
  3  1  2  0  0  0  0
  3  4  1  0  0  0  0
  5  3  1  0  0  0  0
  6  5  1  0  0  0  0
  7  9  2  0  0  0  0
  8  7  1  0  0  0  0
  9 10  1  0  0  0  0
  9  1  1  0  0  0  0
 10 30  2  0  0  0  0
 11 12  1  0  0  0  0
 12 14  2  0  0  0  0
 12 13  1  0  0  0  0
 14 15  1  0  0  0  0
 16 31  1  0  0  0  0
 16 14  1  0  0  0  0
 17 16  2  0  0  0  0
 18 19  1  0  0  0  0
 18 17  1  0  0  0  0
 20 18  2  0  0  0  0
 21 20  1  0  0  0  0
 22 20  1  0  0  0  0
 22 24  2  0  0  0  0
 23 22  1  0  0  0  0
 24 26  1  0  0  0  0
 25 24  1  0  0  0  0
 26 17  1  0  0  0  0
 26 11  2  0  0  0  0
 27  7  1  0  0  0  0
 27  5  1  0  0  0  0
 28 11  1  0  0  0  0
 28 10  1  0  0  0  0
 29 28  1  0  0  0  0
 32 33  1  0  0  0  0
 32 27  1  0  0  0  0
 34 36  2  0  0  0  0
 34 42  1  0  0  0  0
 35 34  1  0  0  0  0
 36 38  1  0  0  0  0
 37 36  1  0  0  0  0
 38 39  1  0  0  0  0
 38 60  1  0  0  0  0
 40 60  1  0  0  0  0
 40 41  1  0  0  0  0
 42 40  2  0  0  0  0
 43 42  1  0  0  0  0
 43 61  1  0  0  0  0
 44 61  1  0  0  0  0
 44 59  1  0  0  0  0
 45 44  2  0  0  0  0
 46 45  1  0  0  0  0
 47 45  1  0  0  0  0
 47 49  2  0  0  0  0
 48 47  1  0  0  0  0
 49 50  1  0  0  0  0
 50 59  2  0  0  0  0
 50 51  1  0  0  0  0
 51 53  2  0  0  0  0
 52 51  1  0  0  0  0
 53 55  1  0  0  0  0
 53 54  1  0  0  0  0
 55 56  1  0  0  0  0
 57 58  1  0  0  0  0
 57 55  2  0  0  0  0
 59 57  1  0  0  0  0
 60 32  1  0  0  0  0
 61 62  1  0  0  0  0
 63 43  2  0  0  0  0
 64 49  1  0  0  0  0
 65 32  1  0  0  0  0
M  END
$$$$
