CSD_code = ONOJAE | q = 0 | S = 0 | Stoichiometry = C17H12BrN4O3Re | MND = 6
 OpenBabel04212202083D

 38 41  0  0  0  0  0  0  0  0999 V2000
    2.1195   -4.0173   22.4044 C   0  0  0  0  0  3  0  0  0  0  0  0
    1.5084   -3.1546   22.6355 H   0  0  0  0  0  0  0  0  0  0  0  0
    3.4514   -4.0594   22.7749 C   0  0  0  0  0  0  0  0  0  0  0  0
    3.8887   -3.2244   23.2974 H   0  0  0  0  0  0  0  0  0  0  0  0
    4.2045   -5.1814   22.4569 C   0  0  0  0  0  0  0  0  0  0  0  0
    5.2476   -5.2419   22.7263 H   0  0  0  0  0  0  0  0  0  0  0  0
    3.5915   -6.2196   21.7823 C   0  0  0  0  0  0  0  0  0  0  0  0
    4.1328   -7.1108   21.5078 H   0  0  0  0  0  0  0  0  0  0  0  0
    2.2478   -6.0988   21.4428 C   0  0  0  0  0  0  0  0  0  0  0  0
    1.5200   -7.1091   20.7069 C   0  0  0  0  0  0  0  0  0  0  0  0
    1.8461   -8.2982   20.0842 C   0  0  0  0  0  0  0  0  0  0  0  0
    2.7640   -8.8387   19.9970 H   0  0  0  0  0  0  0  0  0  0  0  0
    0.5056   -9.8093   18.6070 C   0  0  0  0  0  0  0  0  0  0  0  0
   -0.5718   -9.8803   18.4318 H   0  0  0  0  0  0  0  0  0  0  0  0
    0.8594  -10.7336   19.0722 H   0  0  0  0  0  0  0  0  0  0  0  0
    1.2435   -9.5410   17.3143 C   0  0  0  0  0  0  0  0  0  0  0  0
    1.0840   -8.3179   16.6735 C   0  0  0  0  0  0  0  0  0  0  0  0
    0.4230   -7.5687   17.0842 H   0  0  0  0  0  0  0  0  0  0  0  0
    1.7770   -8.0491   15.5075 C   0  0  0  0  0  0  0  0  0  0  0  0
    1.6540   -7.0917   15.0260 H   0  0  0  0  0  0  0  0  0  0  0  0
    2.6252   -9.0028   14.9692 C   0  0  0  0  0  0  0  0  0  0  0  0
    3.1661   -8.7933   14.0588 H   0  0  0  0  0  0  0  0  0  0  0  0
    2.7804  -10.2251   15.6005 C   0  0  0  0  0  0  0  0  0  0  0  0
    3.4398  -10.9720   15.1839 H   0  0  0  0  0  0  0  0  0  0  0  0
    2.0971  -10.4919   16.7746 C   0  0  0  0  0  0  0  0  0  0  0  0
    2.2241  -11.4450   17.2691 H   0  0  0  0  0  0  0  0  0  0  0  0
   -0.8267   -3.0640   21.1520 C   0  0  0  0  0  2  0  0  0  0  0  0
   -2.1761   -5.1710   19.8692 C   0  0  0  0  0  2  0  0  0  0  0  0
   -1.3227   -5.4659   22.5735 C   0  0  0  0  0  2  0  0  0  0  0  0
    1.5205   -5.0074   21.7505 N   0  0  0  0  0  0  0  0  0  0  0  0
    0.1995   -6.8919   20.4560 N   0  0  0  0  0  0  0  0  0  0  0  0
   -0.2748   -7.8495   19.7481 N   0  0  0  0  0  2  0  0  0  0  0  0
    0.6983   -8.7077   19.5111 N   0  0  0  0  0  0  0  0  0  0  0  0
   -0.9183   -1.9278   21.2627 O   0  0  0  0  0  1  0  0  0  0  0  0
   -3.0884   -5.3249   19.1983 O   0  0  0  0  0  1  0  0  0  0  0  0
   -1.7793   -5.7625   23.5836 O   0  0  0  0  0  1  0  0  0  0  0  0
    0.7342   -4.4031   18.6927 Br  0  0  0  0  0  0  0  0  0  0  0  0
   -0.5174   -4.9696   20.8798 Re  0  0  0  0  0  0  0  0  0  0  0  0
  1  2  1  0  0  0  0
  1  3  1  0  0  0  0
  3  4  1  0  0  0  0
  5  6  1  0  0  0  0
  5  3  2  0  0  0  0
  7  5  1  0  0  0  0
  8  7  1  0  0  0  0
  9 30  1  0  0  0  0
  9  7  2  0  0  0  0
 10  9  1  0  0  0  0
 11 10  2  0  0  0  0
 12 11  1  0  0  0  0
 13 15  1  0  0  0  0
 13 33  1  0  0  0  0
 14 13  1  0  0  0  0
 16 13  1  0  0  0  0
 17 18  1  0  0  0  0
 17 16  2  0  0  0  0
 19 17  1  0  0  0  0
 20 19  1  0  0  0  0
 21 19  2  0  0  0  0
 21 23  1  0  0  0  0
 22 21  1  0  0  0  0
 23 25  2  0  0  0  0
 24 23  1  0  0  0  0
 25 26  1  0  0  0  0
 25 16  1  0  0  0  0
 27 34  1  0  0  0  0
 28 38  1  0  0  0  0
 29 36  1  0  0  0  0
 30  1  1  0  0  0  0
 31 10  1  0  0  0  0
 31 38  1  0  0  0  0
 32 31  1  0  0  0  0
 33 32  1  0  0  0  0
 33 11  1  0  0  0  0
 35 28  1  0  0  0  0
 37 38  1  0  0  0  0
 38 27  1  0  0  0  0
 38 30  1  0  0  0  0
 38 29  1  0  0  0  0
M  END
$$$$
