CSD_code = ONOQOY | q = 0 | S = 0 | Stoichiometry = C25H24Br2CuN4PS | MND = 4
 OpenBabel04212202083D

 58 60  0  0  0  0  0  0  0  0999 V2000
    4.4179    0.9760    8.4156 Br  0  0  0  0  0  0  0  0  0  0  0  0
    5.7527    4.7184    7.5435 Br  0  0  0  0  0  0  0  0  0  0  0  0
    6.8615    2.6740   10.9685 C   0  0  0  0  0  3  0  0  0  0  0  0
    6.1540    2.0881   11.5352 H   0  0  0  0  0  0  0  0  0  0  0  0
    7.5256    3.7522   11.4877 C   0  0  0  0  0  0  0  0  0  0  0  0
    7.3640    4.0548   12.5083 H   0  0  0  0  0  0  0  0  0  0  0  0
    8.4048    4.4671   10.6565 C   0  0  0  0  0  0  0  0  0  0  0  0
    8.9292    5.3263   11.0430 H   0  0  0  0  0  0  0  0  0  0  0  0
    8.5771    4.0794    9.3525 C   0  0  0  0  0  0  0  0  0  0  0  0
    9.2162    4.6318    8.6841 H   0  0  0  0  0  0  0  0  0  0  0  0
    7.8712    2.9718    8.8542 C   0  0  0  0  0  0  0  0  0  0  0  0
    8.0094    2.4973    7.5136 C   0  0  0  0  0  0  0  0  0  0  0  0
    8.5948    3.0997    6.8192 H   0  0  0  0  0  0  0  0  0  0  0  0
    6.9981   -0.2361    5.5216 C   0  0  0  0  0  0  0  0  0  0  0  0
    5.2236    2.5428    3.6657 C   0  0  0  0  0  0  0  0  0  0  0  0
    6.3745    3.2866    3.9202 C   0  0  0  0  0  0  0  0  0  0  0  0
    6.4163    3.9286    4.7915 H   0  0  0  0  0  0  0  0  0  0  0  0
    7.4540    3.2116    3.0597 C   0  0  0  0  0  0  0  0  0  0  0  0
    8.3438    3.7924    3.2594 H   0  0  0  0  0  0  0  0  0  0  0  0
    7.3923    2.3920    1.9441 C   0  0  0  0  0  0  0  0  0  0  0  0
    8.2379    2.3251    1.2762 H   0  0  0  0  0  0  0  0  0  0  0  0
    6.2502    1.6513    1.6899 C   0  0  0  0  0  0  0  0  0  0  0  0
    6.2057    1.0070    0.8251 H   0  0  0  0  0  0  0  0  0  0  0  0
    5.1663    1.7208    2.5462 C   0  0  0  0  0  0  0  0  0  0  0  0
    4.2805    1.1341    2.3488 H   0  0  0  0  0  0  0  0  0  0  0  0
    2.7225    1.3816    4.3930 C   0  0  0  0  0  0  0  0  0  0  0  0
    3.1440    0.0806    4.6638 C   0  0  0  0  0  0  0  0  0  0  0  0
    4.1284   -0.0801    5.0842 H   0  0  0  0  0  0  0  0  0  0  0  0
    2.3175   -0.9898    4.3873 C   0  0  0  0  0  0  0  0  0  0  0  0
    2.6503   -1.9963    4.5925 H   0  0  0  0  0  0  0  0  0  0  0  0
    1.0575   -0.7673    3.8534 C   0  0  0  0  0  0  0  0  0  0  0  0
    0.4069   -1.6025    3.6410 H   0  0  0  0  0  0  0  0  0  0  0  0
    0.6296    0.5247    3.5973 C   0  0  0  0  0  0  0  0  0  0  0  0
   -0.3540    0.6971    3.1848 H   0  0  0  0  0  0  0  0  0  0  0  0
    1.4550    1.6020    3.8681 C   0  0  0  0  0  0  0  0  0  0  0  0
    1.1172    2.6098    3.6684 H   0  0  0  0  0  0  0  0  0  0  0  0
    3.0198    4.2195    4.3058 C   0  0  0  0  0  0  0  0  0  0  0  0
    2.1060    4.7898    5.1895 C   0  0  0  0  0  0  0  0  0  0  0  0
    1.9252    4.3168    6.1482 H   0  0  0  0  0  0  0  0  0  0  0  0
    1.4351    5.9480    4.8476 C   0  0  0  0  0  0  0  0  0  0  0  0
    0.7270    6.3853    5.5360 H   0  0  0  0  0  0  0  0  0  0  0  0
    1.6832    6.5505    3.6246 C   0  0  0  0  0  0  0  0  0  0  0  0
    1.1661    7.4603    3.3580 H   0  0  0  0  0  0  0  0  0  0  0  0
    2.5987    5.9923    2.7474 C   0  0  0  0  0  0  0  0  0  0  0  0
    2.7940    6.4663    1.7965 H   0  0  0  0  0  0  0  0  0  0  0  0
    3.2698    4.8301    3.0824 C   0  0  0  0  0  0  0  0  0  0  0  0
    3.9870    4.3984    2.3984 H   0  0  0  0  0  0  0  0  0  0  0  0
    4.5268    2.8127    7.0165 Cu  0  0  0  0  0  0  0  0  0  0  0  0
    7.0659    2.2921    9.7022 N   0  0  0  0  0  0  0  0  0  0  0  0
    6.4724    1.5523    9.2957 H   0  0  0  0  0  0  0  0  0  0  0  0
    7.4311    1.3991    7.1638 N   0  0  0  0  0  0  0  0  0  0  0  0
    7.5303    0.9597    5.9208 N   0  0  0  0  0  0  0  0  0  0  0  0
    8.0339    1.4896    5.2052 H   0  0  0  0  0  0  0  0  0  0  0  0
    6.3348   -0.9514    6.4319 N   0  0  0  0  0  0  0  0  0  0  0  0
    6.0371   -0.5275    7.3053 H   0  0  0  0  0  0  0  0  0  0  0  0
    5.8965   -1.8056    6.1334 H   0  0  0  0  0  0  0  0  0  0  0  0
    3.8689    2.7111    4.8709 P   0  0  0  0  0  4  0  0  0  0  0  0
    7.2493   -0.7163    3.9601 S   0  0  0  0  0  0  0  0  0  0  0  0
  3  5  1  0  0  0  0
  3  4  1  0  0  0  0
  5  6  1  0  0  0  0
  7  8  1  0  0  0  0
  7  5  2  0  0  0  0
  9  7  1  0  0  0  0
 10  9  1  0  0  0  0
 11  9  2  0  0  0  0
 11 49  1  0  0  0  0
 12 11  1  0  0  0  0
 13 12  1  0  0  0  0
 14 52  1  0  0  0  0
 14 54  1  0  0  0  0
 15 16  1  0  0  0  0
 15 57  1  0  0  0  0
 16 17  1  0  0  0  0
 18 19  1  0  0  0  0
 18 16  2  0  0  0  0
 20 18  1  0  0  0  0
 21 20  1  0  0  0  0
 22 20  2  0  0  0  0
 22 24  1  0  0  0  0
 23 22  1  0  0  0  0
 24 15  2  0  0  0  0
 25 24  1  0  0  0  0
 26 27  1  0  0  0  0
 26 57  1  0  0  0  0
 27 28  1  0  0  0  0
 29 30  1  0  0  0  0
 29 27  2  0  0  0  0
 31 29  1  0  0  0  0
 32 31  1  0  0  0  0
 33 31  2  0  0  0  0
 33 35  1  0  0  0  0
 34 33  1  0  0  0  0
 35 26  2  0  0  0  0
 36 35  1  0  0  0  0
 37 57  1  0  0  0  0
 37 38  1  0  0  0  0
 38 39  1  0  0  0  0
 40 38  2  0  0  0  0
 40 41  1  0  0  0  0
 42 40  1  0  0  0  0
 43 42  1  0  0  0  0
 44 46  1  0  0  0  0
 44 42  2  0  0  0  0
 45 44  1  0  0  0  0
 46 37  2  0  0  0  0
 47 46  1  0  0  0  0
 48  2  1  0  0  0  0
 48  1  1  0  0  0  0
 49  3  1  0  0  0  0
 50 49  1  0  0  0  0
 51 12  2  0  0  0  0
 52 51  1  0  0  0  0
 53 52  1  0  0  0  0
 54 55  1  0  0  0  0
 56 54  1  0  0  0  0
 57 48  1  0  0  0  0
 58 14  2  0  0  0  0
M  END
$$$$
