CSD_code = ONUNIV | q = 0 | S = 0 | Stoichiometry = C10H21Cl3N6Zn | MND = 4
 OpenBabel04212202083D

 41 42  0  0  0  0  0  0  0  0999 V2000
    2.5570    5.7906    5.0661 Zn  0  0  0  0  0  0  0  0  0  0  0  0
    4.7772    5.4618    5.4698 Cl  0  0  0  0  0  0  0  0  0  0  0  0
    1.0788    7.0358    6.1599 Cl  0  0  0  0  0  0  0  0  0  0  0  0
    2.2061    5.7136    2.7328 Cl  0  0  0  0  0  0  0  0  0  0  0  0
    2.0665    3.5532    5.1065 N   0  0  0  0  0  0  0  0  0  0  0  0
   -0.0071    3.5747    6.0934 N   0  0  0  0  0  0  0  0  0  0  0  0
    0.0042    2.9177    3.9876 N   0  0  0  0  0  0  0  0  0  0  0  0
    2.8849    3.1262    4.0335 N   0  0  0  0  0  0  0  0  0  0  0  0
    2.7155    3.7094    3.1978 H   0  0  0  0  0  0  0  0  0  0  0  0
    4.7171    2.3306    5.3557 N   0  0  0  0  0  0  0  0  0  0  0  0
    5.0959    3.0257    3.2956 N   0  0  0  0  0  0  0  0  0  0  0  0
    0.7723    3.3751    5.0119 C   0  0  0  0  0  3  0  0  0  0  0  0
   -1.4100    3.5848    5.7467 C   0  0  0  0  0  0  0  0  0  0  0  0
   -1.8293    4.5888    5.8782 H   0  0  0  0  0  0  0  0  0  0  0  0
   -1.9593    2.8917    6.3928 H   0  0  0  0  0  0  0  0  0  0  0  0
   -1.4028    3.1420    4.2799 C   0  0  0  0  0  0  0  0  0  0  0  0
   -1.9648    2.2167    4.1179 H   0  0  0  0  0  0  0  0  0  0  0  0
   -1.8078    3.9166    3.6194 H   0  0  0  0  0  0  0  0  0  0  0  0
    0.4176    4.0222    7.3897 C   0  0  0  0  0  0  0  0  0  0  0  0
   -0.0632    3.4059    8.1530 H   0  0  0  0  0  0  0  0  0  0  0  0
    0.1525    5.0701    7.5478 H   0  0  0  0  0  0  0  0  0  0  0  0
    1.4964    3.9208    7.4633 H   0  0  0  0  0  0  0  0  0  0  0  0
    0.3850    2.7661    2.6025 C   0  0  0  0  0  0  0  0  0  0  0  0
    0.6464    3.7240    2.1425 H   0  0  0  0  0  0  0  0  0  0  0  0
   -0.4633    2.3358    2.0727 H   0  0  0  0  0  0  0  0  0  0  0  0
    1.2274    2.0812    2.5198 H   0  0  0  0  0  0  0  0  0  0  0  0
    4.1839    2.9125    4.2673 C   0  0  0  0  0  3  0  0  0  0  0  0
    6.1681    2.3662    5.2480 C   0  0  0  0  0  0  0  0  0  0  0  0
    6.5937    1.4328    5.6202 H   0  0  0  0  0  0  0  0  0  0  0  0
    6.5523    3.2090    5.8330 H   0  0  0  0  0  0  0  0  0  0  0  0
    6.3977    2.5800    3.7504 C   0  0  0  0  0  0  0  0  0  0  0  0
    7.1511    3.3447    3.5522 H   0  0  0  0  0  0  0  0  0  0  0  0
    6.6828    1.6549    3.2338 H   0  0  0  0  0  0  0  0  0  0  0  0
    4.1515    2.3134    6.6795 C   0  0  0  0  0  0  0  0  0  0  0  0
    4.3254    3.2688    7.1813 H   0  0  0  0  0  0  0  0  0  0  0  0
    4.6307    1.5133    7.2431 H   0  0  0  0  0  0  0  0  0  0  0  0
    3.0834    2.1302    6.6166 H   0  0  0  0  0  0  0  0  0  0  0  0
    4.8968    3.5517    1.9723 C   0  0  0  0  0  0  0  0  0  0  0  0
    4.5609    2.7726    1.2821 H   0  0  0  0  0  0  0  0  0  0  0  0
    5.8428    3.9544    1.6158 H   0  0  0  0  0  0  0  0  0  0  0  0
    4.1650    4.3612    1.9835 H   0  0  0  0  0  0  0  0  0  0  0  0
  1  5  1  0  0  0  0
  1  2  1  0  0  0  0
  1  3  1  0  0  0  0
  4  1  1  0  0  0  0
  6 19  1  0  0  0  0
  7 16  1  0  0  0  0
  7 12  1  0  0  0  0
  8 27  1  0  0  0  0
  8  5  1  0  0  0  0
  9  8  1  0  0  0  0
 10 34  1  0  0  0  0
 11 31  1  0  0  0  0
 11 27  1  0  0  0  0
 12  5  1  0  0  0  0
 12  6  1  0  0  0  0
 13 14  1  0  0  0  0
 13  6  1  0  0  0  0
 13 15  1  0  0  0  0
 16 13  1  0  0  0  0
 17 16  1  0  0  0  0
 18 16  1  0  0  0  0
 19 22  1  0  0  0  0
 19 21  1  0  0  0  0
 19 20  1  0  0  0  0
 23  7  1  0  0  0  0
 24 23  1  0  0  0  0
 25 23  1  0  0  0  0
 26 23  1  0  0  0  0
 27 10  1  0  0  0  0
 28 10  1  0  0  0  0
 28 29  1  0  0  0  0
 28 30  1  0  0  0  0
 31 28  1  0  0  0  0
 32 31  1  0  0  0  0
 33 31  1  0  0  0  0
 34 35  1  0  0  0  0
 34 36  1  0  0  0  0
 37 34  1  0  0  0  0
 38 41  1  0  0  0  0
 38 11  1  0  0  0  0
 39 38  1  0  0  0  0
 40 38  1  0  0  0  0
M  END
$$$$
