CSD_code = OPADEP | q = 0 | S = 0 | Stoichiometry = C20H28I2N6Pt | MND = 4
 OpenBabel04212202083D

 57 60  0  0  1  0  0  0  0  0999 V2000
    2.7900    7.5141    3.9052 Pt  0  0  0  0  0  0  0  0  0  0  0  0
    1.7007    8.7705    1.8666 I   0  0  0  0  0  0  0  0  0  0  0  0
    4.0760    6.7629    2.5861 C   0  0  2  0  0  3  0  0  0  0  0  0
    5.2045    7.2824    2.1061 N   0  0  0  0  0  0  0  0  0  0  0  0
    1.0548    8.3207    5.7092 I   0  0  0  0  0  0  0  0  0  0  0  0
    3.6700    6.4924    5.3675 C   0  0  0  0  0  0  0  0  0  0  0  0
    5.7888    6.4767    1.1981 N   0  0  0  0  0  0  0  0  0  0  0  0
    3.9426    5.5756    1.9435 N   0  0  0  0  0  0  0  0  0  0  0  0
    5.0115    5.4495    1.1097 C   0  0  0  0  0  0  0  0  0  0  0  0
    5.1854    4.6147    0.4641 H   0  0  0  0  0  0  0  0  0  0  0  0
    4.6283    6.8777    6.2093 N   0  0  0  0  0  0  0  0  0  0  0  0
    4.2048    4.9048    6.7718 C   0  0  0  0  0  0  0  0  0  0  0  0
    4.2120    3.9641    7.2808 H   0  0  0  0  0  0  0  0  0  0  0  0
    2.3678    4.3842    5.1280 C   0  0  0  0  0  0  0  0  0  0  0  0
    1.6957    5.0502    4.5742 H   0  0  0  0  0  0  0  0  0  0  0  0
    1.7920    3.9155    5.9315 H   0  0  0  0  0  0  0  0  0  0  0  0
    4.9682    5.9017    7.0726 N   0  0  0  0  0  0  0  0  0  0  0  0
    3.3884    5.2159    5.7280 N   0  0  0  0  0  0  0  0  0  0  0  0
    2.9764    3.3116    4.2541 C   0  0  0  0  0  0  0  0  0  0  0  0
    3.3645    2.1300    4.8809 C   0  0  0  0  0  0  0  0  0  0  0  0
    3.1871    2.0156    5.9406 H   0  0  0  0  0  0  0  0  0  0  0  0
    3.9571    1.0982    4.1802 C   0  0  0  0  0  0  0  0  0  0  0  0
    4.2493    0.1948    4.6926 H   0  0  0  0  0  0  0  0  0  0  0  0
    4.1606    1.2296    2.8178 C   0  0  0  0  0  0  0  0  0  0  0  0
    4.6134    0.4301    2.2523 H   0  0  0  0  0  0  0  0  0  0  0  0
    3.7674    2.3904    2.1816 C   0  0  0  0  0  0  0  0  0  0  0  0
    3.9072    2.4813    1.1140 H   0  0  0  0  0  0  0  0  0  0  0  0
    3.1821    3.4444    2.8790 C   0  0  0  0  0  0  0  0  0  0  0  0
    2.8176    4.6757    2.0820 C   0  0  0  0  0  0  0  0  0  0  0  0
    2.4953    4.3767    1.0802 H   0  0  0  0  0  0  0  0  0  0  0  0
    2.0041    5.2500    2.5417 H   0  0  0  0  0  0  0  0  0  0  0  0
    5.7281    8.5959    2.3734 C   0  0  0  0  0  0  0  0  0  0  0  0
    6.7558    8.5015    2.7365 H   0  0  0  0  0  0  0  0  0  0  0  0
    5.1014    9.0400    3.1566 H   0  0  0  0  0  0  0  0  0  0  0  0
    5.6862    9.4606    1.1143 C   0  0  0  0  0  0  0  0  0  0  0  0
    6.2773    8.9760    0.3349 H   0  0  0  0  0  0  0  0  0  0  0  0
    4.6540    9.5311    0.7657 H   0  0  0  0  0  0  0  0  0  0  0  0
    6.2231   10.8623    1.3848 C   0  0  0  0  0  0  0  0  0  0  0  0
    5.6264   11.3311    2.1698 H   0  0  0  0  0  0  0  0  0  0  0  0
    7.2543   10.7967    1.7410 H   0  0  0  0  0  0  0  0  0  0  0  0
    6.1685   11.7233    0.1298 C   0  0  0  0  0  0  0  0  0  0  0  0
    6.5486   12.7208    0.3353 H   0  0  0  0  0  0  0  0  0  0  0  0
    5.1439   11.8111   -0.2230 H   0  0  0  0  0  0  0  0  0  0  0  0
    6.7686   11.2824   -0.6630 H   0  0  0  0  0  0  0  0  0  0  0  0
    5.2428    8.1802    6.2734 C   0  0  0  0  0  0  0  0  0  0  0  0
    4.6155    8.8573    5.6792 H   0  0  0  0  0  0  0  0  0  0  0  0
    6.2401    8.1231    5.8227 H   0  0  0  0  0  0  0  0  0  0  0  0
    5.3465    8.6756    7.7132 C   0  0  0  0  0  0  0  0  0  0  0  0
    5.9322    9.5965    7.7127 H   0  0  0  0  0  0  0  0  0  0  0  0
    5.8834    7.9284    8.3006 H   0  0  0  0  0  0  0  0  0  0  0  0
    3.9800    8.9401    8.3407 C   0  0  0  0  0  0  0  0  0  0  0  0
    3.3922    8.0204    8.3475 H   0  0  0  0  0  0  0  0  0  0  0  0
    3.4367    9.6728    7.7419 H   0  0  0  0  0  0  0  0  0  0  0  0
    4.1155    9.4551    9.7667 C   0  0  0  0  0  0  0  0  0  0  0  0
    3.1337    9.6371   10.1947 H   0  0  0  0  0  0  0  0  0  0  0  0
    4.6768   10.3868    9.7851 H   0  0  0  0  0  0  0  0  0  0  0  0
    4.6344    8.7288   10.3888 H   0  0  0  0  0  0  0  0  0  0  0  0
  1  6  2  0  0  0  0
  1  5  1  0  0  0  0
  2  1  1  0  0  0  0
  3  8  1  6  0  0  0
  3  1  1  0  0  0  0
  4 32  1  0  0  0  0
  4  3  1  0  0  0  0
  6 18  1  0  0  0  0
  6 11  1  0  0  0  0
  7  4  1  0  0  0  0
  8 29  1  0  0  0  0
  9  7  2  0  0  0  0
  9  8  1  0  0  0  0
 10  9  1  0  0  0  0
 11 45  1  0  0  0  0
 11 17  1  0  0  0  0
 12 17  2  0  0  0  0
 12 13  1  0  0  0  0
 14 18  1  0  0  0  0
 14 16  1  0  0  0  0
 15 14  1  0  0  0  0
 18 12  1  0  0  0  0
 19 20  1  0  0  0  0
 19 14  1  0  0  0  0
 20 21  1  0  0  0  0
 22 23  1  0  0  0  0
 22 20  2  0  0  0  0
 24 22  1  0  0  0  0
 25 24  1  0  0  0  0
 26 24  2  0  0  0  0
 26 28  1  0  0  0  0
 27 26  1  0  0  0  0
 28 19  2  0  0  0  0
 29 31  1  0  0  0  0
 29 28  1  0  0  0  0
 30 29  1  0  0  0  0
 32 33  1  0  0  0  0
 32 34  1  0  0  0  0
 35 38  1  0  0  0  0
 35 32  1  0  0  0  0
 36 35  1  0  0  0  0
 37 35  1  0  0  0  0
 38 40  1  0  0  0  0
 38 39  1  0  0  0  0
 41 42  1  0  0  0  0
 41 38  1  0  0  0  0
 43 41  1  0  0  0  0
 44 41  1  0  0  0  0
 45 48  1  0  0  0  0
 46 45  1  0  0  0  0
 47 45  1  0  0  0  0
 48 50  1  0  0  0  0
 48 51  1  0  0  0  0
 49 48  1  0  0  0  0
 51 52  1  0  0  0  0
 51 54  1  0  0  0  0
 53 51  1  0  0  0  0
 54 56  1  0  0  0  0
 54 55  1  0  0  0  0
 54 57  1  0  0  0  0
M  END
$$$$
