CSD_code = OPAQIG | q = 0 | S = 0 | Stoichiometry = C18H12Cl2FeN6S | MND = 6
 OpenBabel04212202083D

 40 46  0  0  1  0  0  0  0  0999 V2000
    6.1243   17.9625    3.1190 Fe  0  0  0  0  0  0  0  0  0  0  0  0
    7.3552   17.8816    1.3179 Cl  0  0  0  0  0  0  0  0  0  0  0  0
    6.1242   21.5419    3.1192 S   0  0  0  0  0  0  0  0  0  0  0  0
    5.2824   15.4803    1.7862 C   0  0  0  0  0  3  0  0  0  0  0  0
    6.2876   15.1481    1.9971 H   0  0  0  0  0  0  0  0  0  0  0  0
    4.3953   14.6679    1.1070 C   0  0  0  0  0  0  0  0  0  0  0  0
    4.6948   13.6767    0.8071 H   0  0  0  0  0  0  0  0  0  0  0  0
    3.1239   15.1515    0.8219 C   0  0  0  0  0  0  0  0  0  0  0  0
    2.3991   14.5360    0.3121 H   0  0  0  0  0  0  0  0  0  0  0  0
    2.8211   16.4520    1.1734 C   0  0  0  0  0  0  0  0  0  0  0  0
    1.8647   16.8803    0.9222 H   0  0  0  0  0  0  0  0  0  0  0  0
    3.7778   17.2168    1.8402 C   0  0  0  0  0  0  0  0  0  0  0  0
    3.6441   18.6322    2.1272 C   0  0  2  0  0  3  0  0  0  0  0  0
    2.4627   19.3579    2.0102 C   0  0  0  0  0  0  0  0  0  0  0  0
    1.5365   18.8777    1.7464 H   0  0  0  0  0  0  0  0  0  0  0  0
    2.5244   20.7144    2.2759 C   0  0  0  0  0  0  0  0  0  0  0  0
    1.6611   21.3611    2.2225 H   0  0  0  0  0  0  0  0  0  0  0  0
    4.7416   20.5420    2.7158 C   0  0  0  0  0  0  0  0  0  0  0  0
    4.9766   16.7101    2.1902 N   0  0  0  0  0  0  0  0  0  0  0  0
    4.8132   19.2260    2.4960 N   0  0  0  0  0  0  0  0  0  0  0  0
    3.6645   21.2929    2.6148 N   0  0  0  0  0  0  0  0  0  0  0  0
    4.8934   17.8817    4.9202 Cl  0  0  0  0  0  0  0  0  0  0  0  0
    6.9662   15.4803    4.4518 C   0  0  0  0  0  3  0  0  0  0  0  0
    5.9610   15.1482    4.2411 H   0  0  0  0  0  0  0  0  0  0  0  0
    7.8533   14.6679    5.1310 C   0  0  0  0  0  0  0  0  0  0  0  0
    7.5539   13.6767    5.4309 H   0  0  0  0  0  0  0  0  0  0  0  0
    9.1248   15.1515    5.4159 C   0  0  0  0  0  0  0  0  0  0  0  0
    9.8496   14.5360    5.9257 H   0  0  0  0  0  0  0  0  0  0  0  0
    9.4275   16.4520    5.0645 C   0  0  0  0  0  0  0  0  0  0  0  0
   10.3840   16.8803    5.3155 H   0  0  0  0  0  0  0  0  0  0  0  0
    8.4709   17.2168    4.3977 C   0  0  0  0  0  0  0  0  0  0  0  0
    8.6046   18.6322    4.1107 C   0  0  2  0  0  3  0  0  0  0  0  0
    9.7859   19.3579    4.2276 C   0  0  0  0  0  0  0  0  0  0  0  0
   10.7121   18.8777    4.4913 H   0  0  0  0  0  0  0  0  0  0  0  0
    9.7242   20.7144    3.9620 C   0  0  0  0  0  0  0  0  0  0  0  0
   10.5875   21.3610    4.0153 H   0  0  0  0  0  0  0  0  0  0  0  0
    7.5070   20.5420    3.5223 C   0  0  0  0  0  0  0  0  0  0  0  0
    7.2719   16.7101    4.0478 N   0  0  0  0  0  0  0  0  0  0  0  0
    7.4354   19.2260    3.7421 N   0  0  0  0  0  0  0  0  0  0  0  0
    8.5841   21.2929    3.6232 N   0  0  0  0  0  0  0  0  0  0  0  0
  1 39  1  0  0  0  0
  1 38  1  0  0  0  0
  1 22  1  0  0  0  0
  2  1  1  0  0  0  0
  3 37  1  0  0  0  0
  4  5  1  0  0  0  0
  4 19  1  0  0  0  0
  6  4  1  0  0  0  0
  7  6  1  0  0  0  0
  8  6  2  0  0  0  0
  8 10  1  0  0  0  0
  9  8  1  0  0  0  0
 10 12  2  0  0  0  0
 11 10  1  0  0  0  0
 12 19  1  0  0  0  0
 13 12  1  6  0  0  0
 13 20  1  0  0  0  0
 14 13  1  0  0  0  0
 14 16  2  0  0  0  0
 15 14  1  0  0  0  0
 16 21  1  0  0  0  0
 17 16  1  0  0  0  0
 18  3  1  0  0  0  0
 19  1  1  0  0  0  0
 20 18  1  0  0  0  0
 20  1  1  0  0  0  0
 21 18  2  0  0  0  0
 23 25  1  0  0  0  0
 24 23  1  0  0  0  0
 25 27  2  0  0  0  0
 25 26  1  0  0  0  0
 27 28  1  0  0  0  0
 29 30  1  0  0  0  0
 29 27  1  0  0  0  0
 31 29  2  0  0  0  0
 32 33  1  1  0  0  0
 32 31  1  0  0  0  0
 33 34  1  0  0  0  0
 35 36  1  0  0  0  0
 35 33  2  0  0  0  0
 37 40  2  0  0  0  0
 37 39  1  0  0  0  0
 38 31  1  0  0  0  0
 38 23  1  0  0  0  0
 39 32  1  0  0  0  0
 40 35  1  0  0  0  0
M  END
$$$$
