CSD_code = OPAWEJ | q = 1 | S = 0 | Stoichiometry = C21H29ClN3O2P2Ru(1+) | MND = 6
 OpenBabel04212202083D

 59 63  0  0  1  0  0  0  0  0999 V2000
    3.5729    4.0766    3.2075 Ru  0  0  0  0  0  0  0  0  0  0  0  0
    1.8505    2.5815    2.7341 P   0  0  0  0  0  4  0  0  0  0  0  0
    5.5111    5.3270    3.5331 P   0  0  0  0  0  4  0  0  0  0  0  0
    5.0376    2.4156    2.2113 Cl  0  0  0  0  0  0  0  0  0  0  0  0
    4.2970    4.0571   -0.1295 O   0  0  0  0  0  0  0  0  0  0  0  0
    4.5638    3.4837    0.6366 H   0  0  0  0  0  0  0  0  0  0  0  0
    5.0444    1.6078    5.0517 O   0  0  0  0  0  0  0  0  0  0  0  0
    5.0649    1.8541    4.0895 H   0  0  0  0  0  0  0  0  0  0  0  0
    3.0962    5.1843    1.4853 N   0  0  0  0  0  0  0  0  0  0  0  0
    2.4350    5.3662    3.9812 N   0  0  0  0  0  0  0  0  0  0  0  0
    3.6413    3.4319    5.2075 N   0  0  0  0  0  0  0  0  0  0  0  0
    3.4831    5.0320    0.2133 C   0  0  2  0  0  3  0  0  0  0  0  0
    3.0449    5.8938   -0.8055 C   0  0  0  0  0  0  0  0  0  0  0  0
    3.3982    5.7090   -1.8057 H   0  0  0  0  0  0  0  0  0  0  0  0
    2.1939    6.9270   -0.4943 C   0  0  0  0  0  0  0  0  0  0  0  0
    1.8440    7.6011   -1.2592 H   0  0  0  0  0  0  0  0  0  0  0  0
    1.7918    7.0886    0.8249 C   0  0  0  0  0  0  0  0  0  0  0  0
    1.1265    7.8909    1.0923 H   0  0  0  0  0  0  0  0  0  0  0  0
    2.2543    6.2091    1.7932 C   0  0  0  0  0  0  0  0  0  0  0  0
    1.8804    6.3117    3.2014 C   0  0  2  0  0  3  0  0  0  0  0  0
    1.0355    7.2730    3.7486 C   0  0  0  0  0  0  0  0  0  0  0  0
    0.5891    8.0315    3.1288 H   0  0  0  0  0  0  0  0  0  0  0  0
    0.7721    7.2444    5.1090 C   0  0  0  0  0  0  0  0  0  0  0  0
    0.1203    7.9801    5.5509 H   0  0  0  0  0  0  0  0  0  0  0  0
    1.3524    6.2632    5.8974 C   0  0  0  0  0  0  0  0  0  0  0  0
    1.1530    6.2334    6.9549 H   0  0  0  0  0  0  0  0  0  0  0  0
    2.1904    5.3239    5.3034 C   0  0  0  0  0  0  0  0  0  0  0  0
    2.8721    4.2330    5.9950 C   0  0  1  0  0  3  0  0  0  0  0  0
    2.7527    4.0154    7.3601 C   0  0  0  0  0  0  0  0  0  0  0  0
    2.1395    4.6626    7.9625 H   0  0  0  0  0  0  0  0  0  0  0  0
    3.4311    2.9546    7.9457 C   0  0  0  0  0  0  0  0  0  0  0  0
    3.3498    2.7714    9.0048 H   0  0  0  0  0  0  0  0  0  0  0  0
    4.2059    2.1443    7.1509 C   0  0  0  0  0  0  0  0  0  0  0  0
    4.7582    1.3040    7.5359 H   0  0  0  0  0  0  0  0  0  0  0  0
    4.2922    2.4092    5.7743 C   0  0  0  0  0  0  0  0  0  0  0  0
    0.1473    3.1715    3.0540 C   0  0  0  0  0  0  0  0  0  0  0  0
   -0.5684    2.3918    2.7959 H   0  0  0  0  0  0  0  0  0  0  0  0
   -0.0540    4.0575    2.4514 H   0  0  0  0  0  0  0  0  0  0  0  0
    0.0355    3.4277    4.1077 H   0  0  0  0  0  0  0  0  0  0  0  0
    1.8876    0.9994    3.6444 C   0  0  0  0  0  0  0  0  0  0  0  0
    1.0583    0.3722    3.3181 H   0  0  0  0  0  0  0  0  0  0  0  0
    1.8046    1.1793    4.7162 H   0  0  0  0  0  0  0  0  0  0  0  0
    2.8284    0.4881    3.4397 H   0  0  0  0  0  0  0  0  0  0  0  0
    1.7363    2.0055    1.0063 C   0  0  0  0  0  0  0  0  0  0  0  0
    0.9128    1.2977    0.9138 H   0  0  0  0  0  0  0  0  0  0  0  0
    2.6685    1.5139    0.7285 H   0  0  0  0  0  0  0  0  0  0  0  0
    1.5645    2.8485    0.3374 H   0  0  0  0  0  0  0  0  0  0  0  0
    6.3635    5.8943    2.0216 C   0  0  0  0  0  0  0  0  0  0  0  0
    7.2677    6.4373    2.2958 H   0  0  0  0  0  0  0  0  0  0  0  0
    5.7107    6.5483    1.4437 H   0  0  0  0  0  0  0  0  0  0  0  0
    6.6324    5.0301    1.4140 H   0  0  0  0  0  0  0  0  0  0  0  0
    6.8671    4.4922    4.4246 C   0  0  0  0  0  0  0  0  0  0  0  0
    7.7229    5.1634    4.4935 H   0  0  0  0  0  0  0  0  0  0  0  0
    7.1558    3.5932    3.8803 H   0  0  0  0  0  0  0  0  0  0  0  0
    6.5450    4.2140    5.4278 H   0  0  0  0  0  0  0  0  0  0  0  0
    5.3301    6.8823    4.4814 C   0  0  0  0  0  0  0  0  0  0  0  0
    6.2970    7.3765    4.5685 H   0  0  0  0  0  0  0  0  0  0  0  0
    4.9480    6.6626    5.4786 H   0  0  0  0  0  0  0  0  0  0  0  0
    4.6310    7.5469    3.9735 H   0  0  0  0  0  0  0  0  0  0  0  0
  1  3  1  0  0  0  0
  1 10  1  0  0  0  0
  1 11  1  0  0  0  0
  2 36  1  0  0  0  0
  2  1  1  0  0  0  0
  2 40  1  0  0  0  0
  3 52  1  0  0  0  0
  3 56  1  0  0  0  0
  4  1  1  0  0  0  0
  5  6  1  0  0  0  0
  7 35  1  0  0  0  0
  8  7  1  0  0  0  0
  9 19  1  0  0  0  0
  9  1  1  0  0  0  0
 10 27  1  0  0  0  0
 11 35  1  0  0  0  0
 11 28  1  0  0  0  0
 12  5  1  6  0  0  0
 12  9  1  0  0  0  0
 13 15  2  0  0  0  0
 13 12  1  0  0  0  0
 14 13  1  0  0  0  0
 15 17  1  0  0  0  0
 16 15  1  0  0  0  0
 17 18  1  0  0  0  0
 17 19  2  0  0  0  0
 20 19  1  1  0  0  0
 20 21  1  0  0  0  0
 20 10  1  0  0  0  0
 21 23  2  0  0  0  0
 22 21  1  0  0  0  0
 23 24  1  0  0  0  0
 23 25  1  0  0  0  0
 25 26  1  0  0  0  0
 27 25  2  0  0  0  0
 28 27  1  6  0  0  0
 28 29  1  0  0  0  0
 29 31  2  0  0  0  0
 29 30  1  0  0  0  0
 31 32  1  0  0  0  0
 33 34  1  0  0  0  0
 33 31  1  0  0  0  0
 35 33  2  0  0  0  0
 36 39  1  0  0  0  0
 37 36  1  0  0  0  0
 38 36  1  0  0  0  0
 40 42  1  0  0  0  0
 41 40  1  0  0  0  0
 43 40  1  0  0  0  0
 44  2  1  0  0  0  0
 45 44  1  0  0  0  0
 46 44  1  0  0  0  0
 47 44  1  0  0  0  0
 48 49  1  0  0  0  0
 48  3  1  0  0  0  0
 50 48  1  0  0  0  0
 51 48  1  0  0  0  0
 52 53  1  0  0  0  0
 52 55  1  0  0  0  0
 54 52  1  0  0  0  0
 56 57  1  0  0  0  0
 56 58  1  0  0  0  0
 59 56  1  0  0  0  0
M  END
$$$$
