CSD_code = OPEHIC | q = 0 | S = 0 | Stoichiometry = C20H29ClN2Ni | MND = 7
 OpenBabel04212202083D

 53 57  0  0  1  0  0  0  0  0999 V2000
   15.9553   -1.0418    3.2104 Ni  0  0  1  0  0  0  0  0  0  0  0  0
   14.6151   -1.1437    4.8079 Cl  0  0  0  0  0  0  0  0  0  0  0  0
   13.6261   -0.8848    1.4978 N   0  0  0  0  0  0  0  0  0  0  0  0
   14.2376    1.0577    2.1976 N   0  0  0  0  0  0  0  0  0  0  0  0
   14.5815   -0.2445    2.1989 C   0  0  0  0  0  0  0  0  0  0  0  0
   12.6971    0.0118    1.0500 C   0  0  0  0  0  0  0  0  0  0  0  0
   11.8477   -0.2740    0.4657 H   0  0  0  0  0  0  0  0  0  0  0  0
   13.0822    1.2335    1.4896 C   0  0  0  0  0  0  0  0  0  0  0  0
   12.6252    2.1909    1.3516 H   0  0  0  0  0  0  0  0  0  0  0  0
   13.5666   -2.3254    1.3633 C   0  0  0  0  0  0  0  0  0  0  0  0
   14.4947   -2.7019    1.8301 H   0  0  0  0  0  0  0  0  0  0  0  0
   12.3769   -2.8877    2.1422 C   0  0  0  0  0  0  0  0  0  0  0  0
   11.4458   -2.4918    1.7304 H   0  0  0  0  0  0  0  0  0  0  0  0
   12.4575   -2.5705    3.1835 H   0  0  0  0  0  0  0  0  0  0  0  0
   12.3767   -4.4101    2.0488 C   0  0  0  0  0  0  0  0  0  0  0  0
   11.5162   -4.8097    2.5872 H   0  0  0  0  0  0  0  0  0  0  0  0
   13.2785   -4.7975    2.5262 H   0  0  0  0  0  0  0  0  0  0  0  0
   12.3368   -4.8600    0.5910 C   0  0  0  0  0  0  0  0  0  0  0  0
   12.3577   -5.9498    0.5382 H   0  0  0  0  0  0  0  0  0  0  0  0
   11.4052   -4.5216    0.1311 H   0  0  0  0  0  0  0  0  0  0  0  0
   13.5208   -4.2838   -0.1806 C   0  0  0  0  0  0  0  0  0  0  0  0
   13.4758   -4.5970   -1.2253 H   0  0  0  0  0  0  0  0  0  0  0  0
   14.4509   -4.6666    0.2443 H   0  0  0  0  0  0  0  0  0  0  0  0
   13.5203   -2.7596   -0.1000 C   0  0  0  0  0  0  0  0  0  0  0  0
   14.3818   -2.3512   -0.6326 H   0  0  0  0  0  0  0  0  0  0  0  0
   12.6144   -2.3723   -0.5717 H   0  0  0  0  0  0  0  0  0  0  0  0
   14.9505    2.0733    2.9443 C   0  0  0  0  0  0  0  0  0  0  0  0
   15.8192    1.5559    3.3888 H   0  0  0  0  0  0  0  0  0  0  0  0
   15.4390    3.2036    2.0410 C   0  0  0  0  0  0  0  0  0  0  0  0
   16.0592    2.7929    1.2412 H   0  0  0  0  0  0  0  0  0  0  0  0
   14.5841    3.7061    1.5830 H   0  0  0  0  0  0  0  0  0  0  0  0
   16.2357    4.2092    2.8676 C   0  0  0  0  0  0  0  0  0  0  0  0
   16.5765    5.0248    2.2269 H   0  0  0  0  0  0  0  0  0  0  0  0
   17.1179    3.7167    3.2818 H   0  0  0  0  0  0  0  0  0  0  0  0
   15.3824    4.7589    4.0071 C   0  0  0  0  0  0  0  0  0  0  0  0
   15.9680    5.4644    4.5989 H   0  0  0  0  0  0  0  0  0  0  0  0
   14.5285    5.2999    3.5922 H   0  0  0  0  0  0  0  0  0  0  0  0
   14.8820    3.6248    4.8973 C   0  0  0  0  0  0  0  0  0  0  0  0
   14.2575    4.0249    5.6973 H   0  0  0  0  0  0  0  0  0  0  0  0
   15.7327    3.1197    5.3583 H   0  0  0  0  0  0  0  0  0  0  0  0
   14.0833    2.6131    4.0818 C   0  0  0  0  0  0  0  0  0  0  0  0
   13.7717    1.7782    4.7119 H   0  0  0  0  0  0  0  0  0  0  0  0
   13.1906    3.0912    3.6723 H   0  0  0  0  0  0  0  0  0  0  0  0
   17.9310   -0.3032    2.6759 C   0  0  0  0  0  0  0  0  0  0  0  0
   18.2594    0.6591    2.3153 H   0  0  0  0  0  0  0  0  0  0  0  0
   17.4607   -1.3825    1.8392 C   0  0  1  0  0  0  0  0  0  0  0  0
   17.4369   -1.3476    0.7592 H   0  0  0  0  0  0  0  0  0  0  0  0
   17.3688   -2.5493    2.6265 C   0  0  0  0  0  3  0  0  0  0  0  0
   17.1960   -3.5531    2.2717 H   0  0  0  0  0  0  0  0  0  0  0  0
   17.5813   -2.1561    3.9585 C   0  0  1  0  0  0  0  0  0  0  0  0
   17.6321   -2.8175    4.8113 H   0  0  0  0  0  0  0  0  0  0  0  0
   18.0000   -0.7791    3.9741 C   0  0  0  0  0  0  0  0  0  0  0  0
   18.3751   -0.2569    4.8402 H   0  0  0  0  0  0  0  0  0  0  0  0
  1 50  1  0  0  0  0
  1  2  1  1  0  0  0
  3  5  1  0  0  0  0
  4  5  1  0  0  0  0
  4 27  1  0  0  0  0
  5  1  2  0  0  0  0
  6  8  2  0  0  0  0
  6  3  1  0  0  0  0
  7  6  1  0  0  0  0
  8  4  1  0  0  0  0
  9  8  1  0  0  0  0
 10  3  1  0  0  0  0
 10 11  1  0  0  0  0
 10 12  1  0  0  0  0
 12 14  1  0  0  0  0
 13 12  1  0  0  0  0
 15 12  1  0  0  0  0
 15 17  1  0  0  0  0
 15 16  1  0  0  0  0
 18 15  1  0  0  0  0
 19 18  1  0  0  0  0
 20 18  1  0  0  0  0
 21 24  1  0  0  0  0
 21 23  1  0  0  0  0
 21 18  1  0  0  0  0
 22 21  1  0  0  0  0
 24 10  1  0  0  0  0
 25 24  1  0  0  0  0
 26 24  1  0  0  0  0
 27 28  1  0  0  0  0
 27 41  1  0  0  0  0
 29 32  1  0  0  0  0
 29 27  1  0  0  0  0
 30 29  1  0  0  0  0
 31 29  1  0  0  0  0
 32 34  1  0  0  0  0
 32 35  1  0  0  0  0
 33 32  1  0  0  0  0
 35 36  1  0  0  0  0
 35 38  1  0  0  0  0
 37 35  1  0  0  0  0
 38 40  1  0  0  0  0
 38 39  1  0  0  0  0
 41 42  1  0  0  0  0
 41 38  1  0  0  0  0
 43 41  1  0  0  0  0
 44 52  2  0  0  0  0
 45 44  1  0  0  0  0
 46 47  1  6  0  0  0
 46 48  1  0  0  0  0
 46 44  1  0  0  0  0
 46  1  1  0  0  0  0
 48 50  1  0  0  0  0
 49 48  1  0  0  0  0
 50 52  1  0  0  0  0
 50 51  1  1  0  0  0
 52 53  1  0  0  0  0
M  END
$$$$
