CSD_code = OPEJAW | q = 0 | S = 0 | Stoichiometry = C27H38AgIN2 | MND = 2
 OpenBabel04212202083D

 69 71  0  0  0  0  0  0  0  0999 V2000
    3.2126    9.7878   12.1861 Ag  0  0  0  0  0  0  0  0  0  0  0  0
    3.1787    7.1878   12.3132 I   0  0  0  0  0  0  0  0  0  0  0  0
    3.2368   11.9227   12.0762 C   0  0  0  0  0  3  0  0  0  0  0  0
    3.3158   12.7566   13.1043 N   0  0  0  0  0  0  0  0  0  0  0  0
    3.3150   14.1676   12.7147 C   0  0  0  0  0  0  0  0  0  0  0  0
    4.2384   14.6527   13.0474 H   0  0  0  0  0  0  0  0  0  0  0  0
    2.4709   14.6891   13.1766 H   0  0  0  0  0  0  0  0  0  0  0  0
    3.2022   14.0826   11.1887 C   0  0  0  0  0  0  0  0  0  0  0  0
    2.2886   14.5462   10.8026 H   0  0  0  0  0  0  0  0  0  0  0  0
    4.0565   14.5313   10.6719 H   0  0  0  0  0  0  0  0  0  0  0  0
    3.1719   12.6371   10.9607 N   0  0  0  0  0  0  0  0  0  0  0  0
    3.4053   12.3488   14.4603 C   0  0  0  0  0  0  0  0  0  0  0  0
    2.2308   12.1744   15.1974 C   0  0  0  0  0  0  0  0  0  0  0  0
    2.3404   11.7878   16.5260 C   0  0  0  0  0  0  0  0  0  0  0  0
    1.4492   11.6371   17.1149 H   0  0  0  0  0  0  0  0  0  0  0  0
    3.5786   11.5788   17.1016 C   0  0  0  0  0  0  0  0  0  0  0  0
    3.6465   11.2775   18.1362 H   0  0  0  0  0  0  0  0  0  0  0  0
    4.7292   11.7297   16.3522 C   0  0  0  0  0  0  0  0  0  0  0  0
    5.6879   11.5344   16.8066 H   0  0  0  0  0  0  0  0  0  0  0  0
    4.6642   12.1149   15.0202 C   0  0  0  0  0  0  0  0  0  0  0  0
    0.8725   12.3310   14.5552 C   0  0  0  0  0  0  0  0  0  0  0  0
    0.9969   12.7507   13.5521 H   0  0  0  0  0  0  0  0  0  0  0  0
    0.2248   10.9525   14.4023 C   0  0  0  0  0  0  0  0  0  0  0  0
    0.8700   10.2944   13.8128 H   0  0  0  0  0  0  0  0  0  0  0  0
   -0.7348   11.0375   13.8976 H   0  0  0  0  0  0  0  0  0  0  0  0
    0.0681   10.4887   15.3725 H   0  0  0  0  0  0  0  0  0  0  0  0
   -0.0299   13.2762   15.3496 C   0  0  0  0  0  0  0  0  0  0  0  0
   -0.2808   12.8563   16.3197 H   0  0  0  0  0  0  0  0  0  0  0  0
   -0.9570   13.4490   14.8069 H   0  0  0  0  0  0  0  0  0  0  0  0
    0.4621   14.2344   15.5083 H   0  0  0  0  0  0  0  0  0  0  0  0
    5.9225   12.2107   14.1900 C   0  0  0  0  0  0  0  0  0  0  0  0
    5.6732   12.6255   13.2083 H   0  0  0  0  0  0  0  0  0  0  0  0
    6.9624   13.1278   14.8355 C   0  0  0  0  0  0  0  0  0  0  0  0
    6.5349   14.1071   15.0437 H   0  0  0  0  0  0  0  0  0  0  0  0
    7.8113   13.2559   14.1670 H   0  0  0  0  0  0  0  0  0  0  0  0
    7.3283   12.7095   15.7690 H   0  0  0  0  0  0  0  0  0  0  0  0
    6.4908   10.8070   13.9676 C   0  0  0  0  0  0  0  0  0  0  0  0
    6.7672   10.3465   14.9123 H   0  0  0  0  0  0  0  0  0  0  0  0
    7.3711   10.8501   13.3304 H   0  0  0  0  0  0  0  0  0  0  0  0
    5.7444   10.1684   13.4854 H   0  0  0  0  0  0  0  0  0  0  0  0
    3.0827   12.0790    9.6591 C   0  0  0  0  0  0  0  0  0  0  0  0
    4.2582   11.7977    8.9575 C   0  0  0  0  0  0  0  0  0  0  0  0
    4.1495   11.2633    7.6811 C   0  0  0  0  0  0  0  0  0  0  0  0
    5.0414   11.0283    7.1216 H   0  0  0  0  0  0  0  0  0  0  0  0
    2.9112   11.0137    7.1222 C   0  0  0  0  0  0  0  0  0  0  0  0
    2.8440   10.5964    6.1287 H   0  0  0  0  0  0  0  0  0  0  0  0
    1.7591   11.2726    7.8390 C   0  0  0  0  0  0  0  0  0  0  0  0
    0.7996   11.0450    7.4015 H   0  0  0  0  0  0  0  0  0  0  0  0
    1.8230   11.8072    9.1184 C   0  0  0  0  0  0  0  0  0  0  0  0
    5.6156   12.0002    9.5886 C   0  0  0  0  0  0  0  0  0  0  0  0
    5.4932   12.5259   10.5408 H   0  0  0  0  0  0  0  0  0  0  0  0
    6.5367   12.8418    8.7042 C   0  0  0  0  0  0  0  0  0  0  0  0
    6.7828   12.3185    7.7844 H   0  0  0  0  0  0  0  0  0  0  0  0
    7.4650   13.0547    9.2303 H   0  0  0  0  0  0  0  0  0  0  0  0
    6.0619   13.7863    8.4439 H   0  0  0  0  0  0  0  0  0  0  0  0
    6.2404   10.6360    9.8913 C   0  0  0  0  0  0  0  0  0  0  0  0
    5.5809   10.0537   10.5417 H   0  0  0  0  0  0  0  0  0  0  0  0
    7.1979   10.7593   10.3920 H   0  0  0  0  0  0  0  0  0  0  0  0
    6.3961   10.0698    8.9768 H   0  0  0  0  0  0  0  0  0  0  0  0
    0.5616   12.0211    9.9214 C   0  0  0  0  0  0  0  0  0  0  0  0
    0.8126   12.5430   10.8502 H   0  0  0  0  0  0  0  0  0  0  0  0
   -0.0331   10.6627   10.3004 C   0  0  0  0  0  0  0  0  0  0  0  0
   -0.3114   10.1002    9.4132 H   0  0  0  0  0  0  0  0  0  0  0  0
   -0.9166   10.7943   10.9209 H   0  0  0  0  0  0  0  0  0  0  0  0
    0.6989   10.0719   10.8597 H   0  0  0  0  0  0  0  0  0  0  0  0
   -0.4579   12.8744    9.1653 C   0  0  0  0  0  0  0  0  0  0  0  0
   -0.8264   12.3562    8.2845 H   0  0  0  0  0  0  0  0  0  0  0  0
   -0.0113   13.8149    8.8472 H   0  0  0  0  0  0  0  0  0  0  0  0
   -1.3078   13.0948    9.8078 H   0  0  0  0  0  0  0  0  0  0  0  0
  1  2  1  0  0  0  0
  3  1  1  0  0  0  0
  3  4  1  0  0  0  0
  4 12  1  0  0  0  0
  5  6  1  0  0  0  0
  5  4  1  0  0  0  0
  5  7  1  0  0  0  0
  8  5  1  0  0  0  0
  9  8  1  0  0  0  0
 10  8  1  0  0  0  0
 11  8  1  0  0  0  0
 11  3  1  0  0  0  0
 12 20  2  0  0  0  0
 12 13  1  0  0  0  0
 13 14  2  0  0  0  0
 14 16  1  0  0  0  0
 14 15  1  0  0  0  0
 16 17  1  0  0  0  0
 18 19  1  0  0  0  0
 18 16  2  0  0  0  0
 20 18  1  0  0  0  0
 21 13  1  0  0  0  0
 21 27  1  0  0  0  0
 22 21  1  0  0  0  0
 23 21  1  0  0  0  0
 23 26  1  0  0  0  0
 24 23  1  0  0  0  0
 25 23  1  0  0  0  0
 27 30  1  0  0  0  0
 27 28  1  0  0  0  0
 29 27  1  0  0  0  0
 31 33  1  0  0  0  0
 31 20  1  0  0  0  0
 32 31  1  0  0  0  0
 33 34  1  0  0  0  0
 33 36  1  0  0  0  0
 35 33  1  0  0  0  0
 37 31  1  0  0  0  0
 37 38  1  0  0  0  0
 39 37  1  0  0  0  0
 40 37  1  0  0  0  0
 41 11  1  0  0  0  0
 42 50  1  0  0  0  0
 42 41  2  0  0  0  0
 43 42  1  0  0  0  0
 44 43  1  0  0  0  0
 45 43  2  0  0  0  0
 45 47  1  0  0  0  0
 46 45  1  0  0  0  0
 47 49  2  0  0  0  0
 48 47  1  0  0  0  0
 49 41  1  0  0  0  0
 49 60  1  0  0  0  0
 50 56  1  0  0  0  0
 50 51  1  0  0  0  0
 52 54  1  0  0  0  0
 52 50  1  0  0  0  0
 53 52  1  0  0  0  0
 55 52  1  0  0  0  0
 56 58  1  0  0  0  0
 56 57  1  0  0  0  0
 59 56  1  0  0  0  0
 60 62  1  0  0  0  0
 60 61  1  0  0  0  0
 62 65  1  0  0  0  0
 62 64  1  0  0  0  0
 63 62  1  0  0  0  0
 66 69  1  0  0  0  0
 66 60  1  0  0  0  0
 67 66  1  0  0  0  0
 68 66  1  0  0  0  0
M  END
$$$$
