CSD_code = OPEREH | q = 0 | S = 0 | Stoichiometry = C13H17ClN4OPd | MND = 4
 OpenBabel04212202083D

 37 40  0  0  1  0  0  0  0  0999 V2000
    1.3972    2.0662    0.2509 Pd  0  0  1  0  0  0  0  0  0  0  0  0
   -0.1383    3.6127   -0.3937 Cl  0  0  0  0  0  0  0  0  0  0  0  0
    1.0760   -0.2924    2.3660 O   0  0  0  0  0  0  0  0  0  0  0  0
    1.6894    2.9479    2.0273 N   0  0  2  0  0  0  0  0  0  0  0  0
    1.8351    1.8568    2.8060 N   0  0  0  0  0  0  0  0  0  0  0  0
    1.9564   -0.3437   -1.1030 N   0  0  2  0  0  0  0  0  0  0  0  0
    1.2898    0.8148   -1.3040 N   0  0  0  0  0  0  0  0  0  0  0  0
    1.3528    5.3705    2.2928 C   0  0  0  0  0  0  0  0  0  0  0  0
    2.2468    5.9645    2.4802 H   0  0  0  0  0  0  0  0  0  0  0  0
    0.5099    5.8580    2.7772 H   0  0  0  0  0  0  0  0  0  0  0  0
    1.1707    5.3216    1.2199 H   0  0  0  0  0  0  0  0  0  0  0  0
    1.5249    3.9947    2.8230 C   0  0  2  0  0  3  0  0  0  0  0  0
    1.5723    3.5504    4.1548 C   0  0  0  0  0  0  0  0  0  0  0  0
    1.4817    4.1574    5.0322 H   0  0  0  0  0  0  0  0  0  0  0  0
    1.7476    2.1803    4.1109 C   0  0  0  0  0  0  0  0  0  0  0  0
    1.8587    1.1664    5.1873 C   0  0  0  0  0  0  0  0  0  0  0  0
    1.4450    1.5574    6.1125 H   0  0  0  0  0  0  0  0  0  0  0  0
    2.9030    0.9017    5.3568 H   0  0  0  0  0  0  0  0  0  0  0  0
    1.3222    0.2648    4.8981 H   0  0  0  0  0  0  0  0  0  0  0  0
    1.8423    0.6014    2.0488 C   0  0  0  0  0  0  0  0  0  0  0  0
    2.7702    0.6668    0.9534 C   0  0  1  0  0  0  0  0  0  0  0  0
    3.7351    1.1367    1.1500 H   0  0  0  0  0  0  0  0  0  0  0  0
    2.7833   -0.5647    0.0709 C   0  0  0  0  0  0  0  0  0  0  0  0
    3.7977   -0.8110   -0.2610 H   0  0  0  0  0  0  0  0  0  0  0  0
    2.3678   -1.4160    0.6290 H   0  0  0  0  0  0  0  0  0  0  0  0
    2.3574   -2.5481   -2.1679 C   0  0  0  0  0  0  0  0  0  0  0  0
    3.4456   -2.4850   -2.1627 H   0  0  0  0  0  0  0  0  0  0  0  0
    2.0415   -3.0639   -3.0696 H   0  0  0  0  0  0  0  0  0  0  0  0
    2.0497   -3.1324   -1.3011 H   0  0  0  0  0  0  0  0  0  0  0  0
    1.7510   -1.1952   -2.1247 C   0  0  1  0  0  3  0  0  0  0  0  0
    0.9204   -0.5498   -3.0193 C   0  0  0  0  0  0  0  0  0  0  0  0
    0.5517   -0.9320   -3.9485 H   0  0  0  0  0  0  0  0  0  0  0  0
    0.6525    0.7087   -2.4690 C   0  0  0  0  0  0  0  0  0  0  0  0
   -0.1828    1.7930   -3.0405 C   0  0  0  0  0  0  0  0  0  0  0  0
   -0.3951    1.5890   -4.0862 H   0  0  0  0  0  0  0  0  0  0  0  0
    0.3251    2.7515   -2.9421 H   0  0  0  0  0  0  0  0  0  0  0  0
   -1.1218    1.8730   -2.4931 H   0  0  0  0  0  0  0  0  0  0  0  0
  1  2  1  6  0  0  0
  1 21  1  0  0  0  0
  1  4  1  0  0  0  0
  4  5  1  1  0  0  0
  4 12  1  0  0  0  0
  5 15  1  0  0  0  0
  6  7  1  6  0  0  0
  6 23  1  0  0  0  0
  7  1  1  0  0  0  0
  8  9  1  0  0  0  0
  8 10  1  0  0  0  0
 11  8  1  0  0  0  0
 12  8  1  1  0  0  0
 12 13  1  0  0  0  0
 13 14  1  0  0  0  0
 15 13  2  0  0  0  0
 15 16  1  0  0  0  0
 16 18  1  0  0  0  0
 16 17  1  0  0  0  0
 19 16  1  0  0  0  0
 20  3  2  0  0  0  0
 20  5  1  0  0  0  0
 21 22  1  1  0  0  0
 21 20  1  0  0  0  0
 23 25  1  0  0  0  0
 23 21  1  0  0  0  0
 24 23  1  0  0  0  0
 26 27  1  0  0  0  0
 26 29  1  0  0  0  0
 28 26  1  0  0  0  0
 30 26  1  1  0  0  0
 30  6  1  0  0  0  0
 31 33  2  0  0  0  0
 31 30  1  0  0  0  0
 32 31  1  0  0  0  0
 33  7  1  0  0  0  0
 34 36  1  0  0  0  0
 34 37  1  0  0  0  0
 34 33  1  0  0  0  0
 35 34  1  0  0  0  0
M  END
$$$$
