CSD_code = OPICEW | q = 0 | S = 0 | Stoichiometry = C25H32Cl2NOPPd | MND = 4
 OpenBabel04212202083D

 63 66  0  0  1  0  0  0  0  0999 V2000
   -1.6175    6.5501    6.0934 C   0  0  0  0  0  0  0  0  0  0  0  0
   -1.3526    6.9260    7.4163 C   0  0  0  0  0  0  0  0  0  0  0  0
   -2.4242    7.1483    8.2635 C   0  0  0  0  0  0  0  0  0  0  0  0
   -2.2364    7.4411    9.2869 H   0  0  0  0  0  0  0  0  0  0  0  0
   -3.7370    6.9939    7.8342 C   0  0  0  0  0  0  0  0  0  0  0  0
   -3.9700    6.5860    6.5296 C   0  0  0  0  0  0  0  0  0  0  0  0
   -4.9858    6.4420    6.1896 H   0  0  0  0  0  0  0  0  0  0  0  0
   -2.9236    6.3477    5.6518 C   0  0  0  0  0  0  0  0  0  0  0  0
    0.0567    7.0603    7.8963 C   0  0  0  0  0  0  0  0  0  0  0  0
    0.0876    7.3806    8.9347 H   0  0  0  0  0  0  0  0  0  0  0  0
    0.6128    7.7782    7.2901 H   0  0  0  0  0  0  0  0  0  0  0  0
    0.5627    6.0935    7.8130 H   0  0  0  0  0  0  0  0  0  0  0  0
   -4.8689    7.2527    8.7800 C   0  0  0  0  0  0  0  0  0  0  0  0
   -4.7804    6.6147    9.6580 H   0  0  0  0  0  0  0  0  0  0  0  0
   -5.8275    7.0613    8.3053 H   0  0  0  0  0  0  0  0  0  0  0  0
   -4.8483    8.2878    9.1188 H   0  0  0  0  0  0  0  0  0  0  0  0
   -3.1827    5.8861    4.2516 C   0  0  0  0  0  0  0  0  0  0  0  0
   -3.0587    6.7142    3.5530 H   0  0  0  0  0  0  0  0  0  0  0  0
   -4.1937    5.4992    4.1497 H   0  0  0  0  0  0  0  0  0  0  0  0
   -2.4757    5.0985    3.9832 H   0  0  0  0  0  0  0  0  0  0  0  0
    0.0521    7.7777    4.2150 C   0  0  2  0  0  3  0  0  0  0  0  0
   -0.9903    8.8200    4.2354 C   0  0  0  0  0  0  0  0  0  0  0  0
   -1.8000    9.0051    3.1167 C   0  0  0  0  0  0  0  0  0  0  0  0
   -1.6325    8.4020    2.2345 H   0  0  0  0  0  0  0  0  0  0  0  0
   -2.8199    9.9378    3.1319 C   0  0  0  0  0  0  0  0  0  0  0  0
   -3.4409   10.0672    2.2575 H   0  0  0  0  0  0  0  0  0  0  0  0
   -3.0502   10.6973    4.2664 C   0  0  0  0  0  0  0  0  0  0  0  0
   -3.8509   11.4213    4.2799 H   0  0  0  0  0  0  0  0  0  0  0  0
   -2.2503   10.5221    5.3820 C   0  0  0  0  0  0  0  0  0  0  0  0
   -2.4238   11.1103    6.2706 H   0  0  0  0  0  0  0  0  0  0  0  0
   -1.2269    9.5922    5.3670 C   0  0  0  0  0  0  0  0  0  0  0  0
   -0.6038    9.4657    6.2386 H   0  0  0  0  0  0  0  0  0  0  0  0
    1.3655    8.0323    3.4721 C   0  0  0  0  0  0  0  0  0  0  0  0
    1.3258    9.3200    2.6482 C   0  0  0  0  0  0  0  0  0  0  0  0
    2.2964    9.4926    2.1891 H   0  0  0  0  0  0  0  0  0  0  0  0
    1.0850   10.1645    3.2889 H   0  0  0  0  0  0  0  0  0  0  0  0
    0.5841    9.2592    1.8576 H   0  0  0  0  0  0  0  0  0  0  0  0
    2.4933    8.1405    4.5207 C   0  0  0  0  0  0  0  0  0  0  0  0
    2.5881    7.2054    5.0984 H   0  0  0  0  0  0  0  0  0  0  0  0
    2.2745    8.9579    5.2044 H   0  0  0  0  0  0  0  0  0  0  0  0
    3.4446    8.3406    4.0308 H   0  0  0  0  0  0  0  0  0  0  0  0
    1.6652    6.8613    2.5806 C   0  0  1  0  0  3  0  0  0  0  0  0
    2.0076    5.7567    0.6717 C   0  0  0  0  0  0  0  0  0  0  0  0
    2.9487    5.8632    0.1272 H   0  0  0  0  0  0  0  0  0  0  0  0
    1.2152    5.4896   -0.0298 H   0  0  0  0  0  0  0  0  0  0  0  0
    2.1236    4.7908    1.8733 C   0  0  2  0  0  0  0  0  0  0  0  0
    3.1323    4.3700    1.9644 H   0  0  0  0  0  0  0  0  0  0  0  0
    1.1190    3.6190    1.9214 C   0  0  0  0  0  0  0  0  0  0  0  0
    1.2164    3.1789    2.9374 H   0  0  0  0  0  0  0  0  0  0  0  0
   -0.3285    4.0760    1.7364 C   0  0  0  0  0  0  0  0  0  0  0  0
   -0.5587    4.9098    2.4035 H   0  0  0  0  0  0  0  0  0  0  0  0
   -1.0034    3.2568    1.9719 H   0  0  0  0  0  0  0  0  0  0  0  0
   -0.5228    4.3843    0.7106 H   0  0  0  0  0  0  0  0  0  0  0  0
    1.4960    2.5569    0.8941 C   0  0  0  0  0  0  0  0  0  0  0  0
    1.4611    2.9643   -0.1150 H   0  0  0  0  0  0  0  0  0  0  0  0
    0.8039    1.7208    0.9510 H   0  0  0  0  0  0  0  0  0  0  0  0
    2.4990    2.1838    1.0830 H   0  0  0  0  0  0  0  0  0  0  0  0
    1.9109    5.6828    2.9978 N   0  0  2  0  0  0  0  0  0  0  0  0
    1.6819    7.0240    1.2536 O   0  0  0  0  0  0  0  0  0  0  0  0
   -0.1994    6.3025    4.9890 P   0  0  1  0  0  4  0  0  0  0  0  0
    1.0913    3.8638    6.7675 Cl  0  0  0  0  0  0  0  0  0  0  0  0
    3.5255    3.7983    4.7260 Cl  0  0  0  0  0  0  0  0  0  0  0  0
    1.5698    4.8965    4.8547 Pd  0  0  0  0  0  0  0  0  0  0  0  0
  1  2  1  0  0  0  0
  2  9  1  0  0  0  0
  2  3  2  0  0  0  0
  3  4  1  0  0  0  0
  5  3  1  0  0  0  0
  5 13  1  0  0  0  0
  6  5  2  0  0  0  0
  7  6  1  0  0  0  0
  8  1  2  0  0  0  0
  8  6  1  0  0  0  0
  9 10  1  0  0  0  0
 11  9  1  0  0  0  0
 12  9  1  0  0  0  0
 13 16  1  0  0  0  0
 13 14  1  0  0  0  0
 15 13  1  0  0  0  0
 17  8  1  0  0  0  0
 18 17  1  0  0  0  0
 19 17  1  0  0  0  0
 20 17  1  0  0  0  0
 21 22  1  6  0  0  0
 21 60  1  0  0  0  0
 22 31  1  0  0  0  0
 23 25  1  0  0  0  0
 23 22  2  0  0  0  0
 24 23  1  0  0  0  0
 25 27  2  0  0  0  0
 26 25  1  0  0  0  0
 27 28  1  0  0  0  0
 27 29  1  0  0  0  0
 29 30  1  0  0  0  0
 31 29  2  0  0  0  0
 31 32  1  0  0  0  0
 33 21  1  0  0  0  0
 33 38  1  0  0  0  0
 34 36  1  0  0  0  0
 34 33  1  0  0  0  0
 35 34  1  0  0  0  0
 37 34  1  0  0  0  0
 38 39  1  0  0  0  0
 38 40  1  0  0  0  0
 41 38  1  0  0  0  0
 42 59  1  6  0  0  0
 42 58  1  0  0  0  0
 42 33  1  0  0  0  0
 43 59  1  0  0  0  0
 43 46  1  0  0  0  0
 44 43  1  0  0  0  0
 45 43  1  0  0  0  0
 46 48  1  0  0  0  0
 46 47  1  1  0  0  0
 46 58  1  0  0  0  0
 48 49  1  0  0  0  0
 50 48  1  0  0  0  0
 50 52  1  0  0  0  0
 50 51  1  0  0  0  0
 53 50  1  0  0  0  0
 54 56  1  0  0  0  0
 54 57  1  0  0  0  0
 54 48  1  0  0  0  0
 55 54  1  0  0  0  0
 58 63  1  6  0  0  0
 60  1  1  1  0  0  0
 62 63  1  0  0  0  0
 63 60  2  0  0  0  0
 63 61  1  0  0  0  0
M  END
$$$$
