CSD_code = OPIFID | q = 0 | S = 0 | Stoichiometry = C26H37I2NOZn | MND = 4
 OpenBabel04212202083D

 68 70  0  0  0  0  0  0  0  0999 V2000
    8.8253    1.1810    3.3134 Zn  0  0  0  0  0  0  0  0  0  0  0  0
    8.3365    1.7180    5.7436 I   0  0  0  0  0  0  0  0  0  0  0  0
    7.5041    0.6752    1.2611 I   0  0  0  0  0  0  0  0  0  0  0  0
   10.8376    2.0269    2.8906 N   0  0  0  0  0  0  0  0  0  0  0  0
   10.1421   -0.3513    3.7864 O   0  0  0  0  0  0  0  0  0  0  0  0
   11.3268   -0.0304    3.9289 C   0  0  0  0  0  0  0  0  0  0  0  0
   12.3199   -0.8581    4.5888 C   0  0  0  0  0  0  0  0  0  0  0  0
   13.6030   -0.4170    4.6109 C   0  0  0  0  0  0  0  0  0  0  0  0
   14.3487   -1.0257    5.0927 H   0  0  0  0  0  0  0  0  0  0  0  0
   14.0617    0.8087    4.0162 C   0  0  0  0  0  0  0  0  0  0  0  0
   13.1511    1.6460    3.4623 C   0  0  0  0  0  0  0  0  0  0  0  0
   13.4258    2.5833    3.0057 H   0  0  0  0  0  0  0  0  0  0  0  0
   11.7700    1.2934    3.4176 C   0  0  0  0  0  0  0  0  0  0  0  0
   11.8759   -2.1735    5.2039 C   0  0  0  0  0  0  0  0  0  0  0  0
   10.7968   -1.8937    6.2604 C   0  0  0  0  0  0  0  0  0  0  0  0
   11.1710   -1.2078    7.0180 H   0  0  0  0  0  0  0  0  0  0  0  0
   10.5099   -2.8222    6.7472 H   0  0  0  0  0  0  0  0  0  0  0  0
    9.9076   -1.4618    5.8133 H   0  0  0  0  0  0  0  0  0  0  0  0
   11.3086   -3.0758    4.0974 C   0  0  0  0  0  0  0  0  0  0  0  0
   12.0599   -3.2560    3.3302 H   0  0  0  0  0  0  0  0  0  0  0  0
   10.4372   -2.6259    3.6317 H   0  0  0  0  0  0  0  0  0  0  0  0
   11.0116   -4.0317    4.5215 H   0  0  0  0  0  0  0  0  0  0  0  0
   13.0304   -2.9150    5.8835 C   0  0  0  0  0  0  0  0  0  0  0  0
   13.4591   -2.3234    6.6896 H   0  0  0  0  0  0  0  0  0  0  0  0
   13.8095   -3.1762    5.1701 H   0  0  0  0  0  0  0  0  0  0  0  0
   12.6525   -3.8389    6.3143 H   0  0  0  0  0  0  0  0  0  0  0  0
   15.5488    1.0976    4.0446 C   0  0  0  0  0  0  0  0  0  0  0  0
   16.2971   -0.0586    3.3637 C   0  0  0  0  0  0  0  0  0  0  0  0
   15.9530   -0.1790    2.3385 H   0  0  0  0  0  0  0  0  0  0  0  0
   16.1539   -1.0001    3.8859 H   0  0  0  0  0  0  0  0  0  0  0  0
   17.3629    0.1558    3.3448 H   0  0  0  0  0  0  0  0  0  0  0  0
   15.9066    2.3929    3.3107 C   0  0  0  0  0  0  0  0  0  0  0  0
   15.6001    2.3509    2.2678 H   0  0  0  0  0  0  0  0  0  0  0  0
   16.9841    2.5366    3.3376 H   0  0  0  0  0  0  0  0  0  0  0  0
   15.4453    3.2574    3.7824 H   0  0  0  0  0  0  0  0  0  0  0  0
   15.9992    1.2256    5.5077 C   0  0  0  0  0  0  0  0  0  0  0  0
   15.4592    2.0311    6.0009 H   0  0  0  0  0  0  0  0  0  0  0  0
   17.0623    1.4503    5.5454 H   0  0  0  0  0  0  0  0  0  0  0  0
   15.8275    0.3086    6.0645 H   0  0  0  0  0  0  0  0  0  0  0  0
   11.1029    3.3159    2.4235 C   0  0  0  0  0  0  0  0  0  0  0  0
   11.0641    3.5242    1.0336 C   0  0  0  0  0  0  0  0  0  0  0  0
   11.2732    4.8019    0.5447 C   0  0  0  0  0  0  0  0  0  0  0  0
   11.2614    4.9710   -0.5198 H   0  0  0  0  0  0  0  0  0  0  0  0
   11.5042    5.8607    1.4037 C   0  0  0  0  0  0  0  0  0  0  0  0
   11.6600    6.8534    1.0099 H   0  0  0  0  0  0  0  0  0  0  0  0
   11.5395    5.6440    2.7672 C   0  0  0  0  0  0  0  0  0  0  0  0
   11.7138    6.4764    3.4310 H   0  0  0  0  0  0  0  0  0  0  0  0
   11.3545    4.3794    3.3079 C   0  0  0  0  0  0  0  0  0  0  0  0
   10.9286    2.3417    0.1046 C   0  0  0  0  0  0  0  0  0  0  0  0
   10.4682    1.5198    0.6618 H   0  0  0  0  0  0  0  0  0  0  0  0
   10.0533    2.6380   -1.1103 C   0  0  0  0  0  0  0  0  0  0  0  0
    9.1174    3.0985   -0.8048 H   0  0  0  0  0  0  0  0  0  0  0  0
    9.8173    1.7091   -1.6232 H   0  0  0  0  0  0  0  0  0  0  0  0
   10.5578    3.2952   -1.8139 H   0  0  0  0  0  0  0  0  0  0  0  0
   12.3227    1.8770   -0.3299 C   0  0  0  0  0  0  0  0  0  0  0  0
   12.9213    1.5805    0.5312 H   0  0  0  0  0  0  0  0  0  0  0  0
   12.8437    2.6775   -0.8514 H   0  0  0  0  0  0  0  0  0  0  0  0
   12.2373    1.0243   -0.9990 H   0  0  0  0  0  0  0  0  0  0  0  0
   11.3316    4.2132    4.8098 C   0  0  0  0  0  0  0  0  0  0  0  0
   11.1302    3.1684    5.0643 H   0  0  0  0  0  0  0  0  0  0  0  0
   12.6790    4.5828    5.4345 C   0  0  0  0  0  0  0  0  0  0  0  0
   13.4688    3.9293    5.0694 H   0  0  0  0  0  0  0  0  0  0  0  0
   12.6189    4.4764    6.5151 H   0  0  0  0  0  0  0  0  0  0  0  0
   12.9478    5.6110    5.2054 H   0  0  0  0  0  0  0  0  0  0  0  0
   10.2134    5.0662    5.4155 C   0  0  0  0  0  0  0  0  0  0  0  0
   10.0897    4.8209    6.4672 H   0  0  0  0  0  0  0  0  0  0  0  0
    9.2687    4.8764    4.9116 H   0  0  0  0  0  0  0  0  0  0  0  0
   10.4394    6.1258    5.3295 H   0  0  0  0  0  0  0  0  0  0  0  0
  1  5  1  0  0  0  0
  1  2  1  0  0  0  0
  3  1  1  0  0  0  0
  4  1  1  0  0  0  0
  4 13  1  0  0  0  0
  5  6  1  0  0  0  0
  6  7  1  0  0  0  0
  7  8  2  0  0  0  0
  7 14  1  0  0  0  0
  8  9  1  0  0  0  0
 10 27  1  0  0  0  0
 10  8  1  0  0  0  0
 11 10  2  0  0  0  0
 12 11  1  0  0  0  0
 13 11  1  0  0  0  0
 13  6  2  0  0  0  0
 14 23  1  0  0  0  0
 14 15  1  0  0  0  0
 15 17  1  0  0  0  0
 15 16  1  0  0  0  0
 18 15  1  0  0  0  0
 19 22  1  0  0  0  0
 19 14  1  0  0  0  0
 20 19  1  0  0  0  0
 21 19  1  0  0  0  0
 23 26  1  0  0  0  0
 23 24  1  0  0  0  0
 25 23  1  0  0  0  0
 27 36  1  0  0  0  0
 28 30  1  0  0  0  0
 28 27  1  0  0  0  0
 29 28  1  0  0  0  0
 31 28  1  0  0  0  0
 32 34  1  0  0  0  0
 32 35  1  0  0  0  0
 32 27  1  0  0  0  0
 33 32  1  0  0  0  0
 36 38  1  0  0  0  0
 36 37  1  0  0  0  0
 36 39  1  0  0  0  0
 40  4  1  0  0  0  0
 40 48  1  0  0  0  0
 41 40  2  0  0  0  0
 42 41  1  0  0  0  0
 42 44  2  0  0  0  0
 43 42  1  0  0  0  0
 44 46  1  0  0  0  0
 45 44  1  0  0  0  0
 46 48  2  0  0  0  0
 46 47  1  0  0  0  0
 48 59  1  0  0  0  0
 49 50  1  0  0  0  0
 49 41  1  0  0  0  0
 51 52  1  0  0  0  0
 51 49  1  0  0  0  0
 53 51  1  0  0  0  0
 54 51  1  0  0  0  0
 55 49  1  0  0  0  0
 55 56  1  0  0  0  0
 57 55  1  0  0  0  0
 58 55  1  0  0  0  0
 59 60  1  0  0  0  0
 59 65  1  0  0  0  0
 59 61  1  0  0  0  0
 61 63  1  0  0  0  0
 62 61  1  0  0  0  0
 64 61  1  0  0  0  0
 65 66  1  0  0  0  0
 67 65  1  0  0  0  0
 68 65  1  0  0  0  0
M  END
$$$$
