CSD_code = OPIHAX | q = 0 | S = 0 | Stoichiometry = C15H15Cl2N3Zn | MND = 4
 OpenBabel04212202083D

 36 39  0  0  1  0  0  0  0  0999 V2000
    7.0189    2.4332    2.6656 Zn  0  0  0  0  0  0  0  0  0  0  0  0
    7.8209    0.4014    2.7396 Cl  0  0  0  0  0  0  0  0  0  0  0  0
    4.9777    3.3028    2.6471 Cl  0  0  0  0  0  0  0  0  0  0  0  0
    8.0414    3.8912    3.8319 N   0  0  0  0  0  0  0  0  0  0  0  0
    7.8257    3.7036    1.2105 N   0  0  0  0  0  0  0  0  0  0  0  0
    7.9867    4.9153    1.7811 N   0  0  0  0  0  0  0  0  0  0  0  0
    8.3201    4.9676    3.1305 C   0  0  0  0  0  0  0  0  0  0  0  0
    8.9622    6.0836    3.6990 C   0  0  0  0  0  0  0  0  0  0  0  0
    9.2473    6.9163    3.0812 H   0  0  0  0  0  0  0  0  0  0  0  0
    9.2690    6.0914    5.0373 C   0  0  0  0  0  0  0  0  0  0  0  0
    8.9306    4.9526    5.8164 C   0  0  0  0  0  0  0  0  0  0  0  0
    8.3247    3.8517    5.1509 C   0  0  1  0  0  3  0  0  0  0  0  0
    7.9998    2.6908    5.8766 C   0  0  0  0  0  0  0  0  0  0  0  0
    7.5476    1.8658    5.3446 H   0  0  0  0  0  0  0  0  0  0  0  0
    8.2552    2.6240    7.2183 C   0  0  0  0  0  0  0  0  0  0  0  0
    8.0025    1.7339    7.7734 H   0  0  0  0  0  0  0  0  0  0  0  0
    8.8452    3.7092    7.8831 C   0  0  0  0  0  0  0  0  0  0  0  0
    9.0371    3.6407    8.9433 H   0  0  0  0  0  0  0  0  0  0  0  0
    9.1777    4.8472    7.1999 C   0  0  0  0  0  0  0  0  0  0  0  0
    9.6313    5.6753    7.7214 H   0  0  0  0  0  0  0  0  0  0  0  0
    9.9545    7.2682    5.6493 C   0  0  0  0  0  0  0  0  0  0  0  0
   10.8952    6.9646    6.1057 H   0  0  0  0  0  0  0  0  0  0  0  0
    9.3297    7.7059    6.4264 H   0  0  0  0  0  0  0  0  0  0  0  0
   10.1597    8.0282    4.9002 H   0  0  0  0  0  0  0  0  0  0  0  0
    7.7289    5.9031    0.8731 C   0  0  1  0  0  3  0  0  0  0  0  0
    7.4224    5.2734   -0.3087 C   0  0  0  0  0  0  0  0  0  0  0  0
    7.1604    5.7420   -1.2351 H   0  0  0  0  0  0  0  0  0  0  0  0
    7.4909    3.8918   -0.0498 C   0  0  0  0  0  0  0  0  0  0  0  0
    7.7011    7.3610    1.1522 C   0  0  0  0  0  0  0  0  0  0  0  0
    7.1177    7.8492    0.3753 H   0  0  0  0  0  0  0  0  0  0  0  0
    8.7024    7.7928    1.1358 H   0  0  0  0  0  0  0  0  0  0  0  0
    7.2381    7.5653    2.1154 H   0  0  0  0  0  0  0  0  0  0  0  0
    7.2309    2.7592   -0.9669 C   0  0  0  0  0  0  0  0  0  0  0  0
    7.5061    1.8241   -0.4844 H   0  0  0  0  0  0  0  0  0  0  0  0
    7.7932    2.8770   -1.8912 H   0  0  0  0  0  0  0  0  0  0  0  0
    6.1703    2.7267   -1.2139 H   0  0  0  0  0  0  0  0  0  0  0  0
  1  2  1  0  0  0  0
  1  4  1  0  0  0  0
  3  1  1  0  0  0  0
  4 12  1  0  0  0  0
  5  6  1  0  0  0  0
  5  1  1  0  0  0  0
  6  7  1  0  0  0  0
  7  8  2  0  0  0  0
  7  4  1  0  0  0  0
  8 10  1  0  0  0  0
  9  8  1  0  0  0  0
 10 21  1  0  0  0  0
 10 11  2  0  0  0  0
 11 19  1  0  0  0  0
 12 11  1  1  0  0  0
 12 13  1  0  0  0  0
 13 15  2  0  0  0  0
 14 13  1  0  0  0  0
 15 16  1  0  0  0  0
 15 17  1  0  0  0  0
 17 18  1  0  0  0  0
 19 20  1  0  0  0  0
 19 17  2  0  0  0  0
 21 22  1  0  0  0  0
 21 23  1  0  0  0  0
 24 21  1  0  0  0  0
 25 29  1  1  0  0  0
 25  6  1  0  0  0  0
 26 28  2  0  0  0  0
 26 25  1  0  0  0  0
 27 26  1  0  0  0  0
 28  5  1  0  0  0  0
 29 32  1  0  0  0  0
 30 29  1  0  0  0  0
 31 29  1  0  0  0  0
 33 34  1  0  0  0  0
 33 28  1  0  0  0  0
 35 33  1  0  0  0  0
 36 33  1  0  0  0  0
M  END
$$$$
