CSD_code = OPUHAJ | q = 0 | S = 0 | Stoichiometry = C18H16ClO3ReSe2 | MND = 6
 OpenBabel04212202083D

 41 41  0  0  0  0  0  0  0  0999 V2000
    3.8110    5.1416    9.0624 Re  0  0  0  0  0  0  0  0  0  0  0  0
    5.6751    4.1796    7.4976 Se  0  0  0  0  0  0  0  0  0  0  0  0
    4.4332    3.0160   10.4565 Se  0  0  0  0  0  0  0  0  0  0  0  0
    2.5492    5.7618   10.4064 C   0  0  0  0  0  2  0  0  0  0  0  0
    3.5790    6.7279    7.9611 C   0  0  0  0  0  2  0  0  0  0  0  0
    2.4590    4.1332    8.0942 C   0  0  0  0  0  2  0  0  0  0  0  0
    7.2972    4.0173    8.6131 C   0  0  0  0  0  0  0  0  0  0  0  0
    7.2197    2.8504    9.5905 C   0  0  0  0  0  0  0  0  0  0  0  0
    6.3705    3.1459   10.8212 C   0  0  0  0  0  0  0  0  0  0  0  0
    6.2202    5.6536    6.3769 C   0  0  0  0  0  0  0  0  0  0  0  0
    6.7216    6.8243    6.9255 C   0  0  0  0  0  0  0  0  0  0  0  0
    7.0678    7.8675    6.0862 C   0  0  0  0  0  0  0  0  0  0  0  0
    6.9067    7.7449    4.7156 C   0  0  0  0  0  0  0  0  0  0  0  0
    6.3953    6.5762    4.1762 C   0  0  0  0  0  0  0  0  0  0  0  0
    6.0513    5.5234    5.0051 C   0  0  0  0  0  0  0  0  0  0  0  0
    3.7676    3.3510   12.2373 C   0  0  0  0  0  0  0  0  0  0  0  0
    4.1917    4.4528   12.9647 C   0  0  0  0  0  0  0  0  0  0  0  0
    3.6648    4.6722   14.2245 C   0  0  0  0  0  0  0  0  0  0  0  0
    2.7192    3.8049   14.7473 C   0  0  0  0  0  0  0  0  0  0  0  0
    2.2927    2.7127   14.0100 C   0  0  0  0  0  0  0  0  0  0  0  0
    2.8170    2.4793   12.7511 C   0  0  0  0  0  0  0  0  0  0  0  0
    1.8520    6.1032   11.2485 O   0  0  0  0  0  1  0  0  0  0  0  0
    3.5152    7.6641    7.3046 O   0  0  0  0  0  1  0  0  0  0  0  0
    1.6700    3.5304    7.5228 O   0  0  0  0  0  1  0  0  0  0  0  0
    6.8183    6.9354    7.9964 H   0  0  0  0  0  0  0  0  0  0  0  0
    7.4542    8.7835    6.5076 H   0  0  0  0  0  0  0  0  0  0  0  0
    7.1735    8.5657    4.0669 H   0  0  0  0  0  0  0  0  0  0  0  0
    6.2628    6.4828    3.1086 H   0  0  0  0  0  0  0  0  0  0  0  0
    5.6467    4.6050    4.6004 H   0  0  0  0  0  0  0  0  0  0  0  0
    4.9052    5.1492   12.5470 H   0  0  0  0  0  0  0  0  0  0  0  0
    3.9876    5.5310   14.7938 H   0  0  0  0  0  0  0  0  0  0  0  0
    2.3080    3.9855   15.7291 H   0  0  0  0  0  0  0  0  0  0  0  0
    1.5504    2.0407   14.4141 H   0  0  0  0  0  0  0  0  0  0  0  0
    2.4918    1.6330   12.1605 H   0  0  0  0  0  0  0  0  0  0  0  0
    7.4223    4.9634    9.1455 H   0  0  0  0  0  0  0  0  0  0  0  0
    8.1144    3.8752    7.8998 H   0  0  0  0  0  0  0  0  0  0  0  0
    8.2367    2.6349    9.9325 H   0  0  0  0  0  0  0  0  0  0  0  0
    6.8477    1.9526    9.0800 H   0  0  0  0  0  0  0  0  0  0  0  0
    6.5640    4.1545   11.1947 H   0  0  0  0  0  0  0  0  0  0  0  0
    6.5563    2.4101   11.6090 H   0  0  0  0  0  0  0  0  0  0  0  0
    5.5290    6.2860   10.2333 Cl  0  0  0  0  0  0  0  0  0  0  0  0
  1 41  1  0  0  0  0
  1  4  1  0  0  0  0
  2  7  1  0  0  0  0
  3  9  1  0  0  0  0
  3 16  1  0  0  0  0
  4 22  1  0  0  0  0
  5  1  1  0  0  0  0
  6  1  1  0  0  0  0
  7 35  1  0  0  0  0
  7  8  1  0  0  0  0
  8 37  1  0  0  0  0
  8  9  1  0  0  0  0
  9 39  1  0  0  0  0
  9 40  1  0  0  0  0
 10 11  1  0  0  0  0
 10  2  1  0  0  0  0
 11 25  1  0  0  0  0
 12 26  1  0  0  0  0
 12 11  2  0  0  0  0
 13 12  1  0  0  0  0
 14 13  2  0  0  0  0
 14 15  1  0  0  0  0
 15 10  2  0  0  0  0
 16 21  2  0  0  0  0
 16 17  1  0  0  0  0
 17 18  2  0  0  0  0
 18 19  1  0  0  0  0
 18 31  1  0  0  0  0
 19 32  1  0  0  0  0
 20 33  1  0  0  0  0
 20 19  2  0  0  0  0
 21 20  1  0  0  0  0
 23  5  1  0  0  0  0
 24  6  1  0  0  0  0
 27 13  1  0  0  0  0
 28 14  1  0  0  0  0
 29 15  1  0  0  0  0
 30 17  1  0  0  0  0
 34 21  1  0  0  0  0
 36  7  1  0  0  0  0
 38  8  1  0  0  0  0
M  END
$$$$
