CSD_code = OPUKIU | q = 0 | S = 0 | Stoichiometry = C13H20Cl2N2Zn | MND = 4
 OpenBabel04212202083D

 38 40  0  0  1  0  0  0  0  0999 V2000
    6.1913   -4.3004   11.6733 Zn  0  0  0  0  0  0  0  0  0  0  0  0
    8.3491   -4.7615   11.5939 Cl  0  0  0  0  0  0  0  0  0  0  0  0
    4.2755   -5.2162   12.2667 Cl  0  0  0  0  0  0  0  0  0  0  0  0
    6.0861   -2.2858   12.5081 N   0  0  1  0  0  4  0  0  0  0  0  0
    5.3389   -2.2616   13.1993 H   0  0  0  0  0  0  0  0  0  0  0  0
    5.8460   -3.2184    9.8122 N   0  0  0  0  0  4  0  0  0  0  0  0
    4.8427   -3.1654    9.6339 H   0  0  0  0  0  0  0  0  0  0  0  0
    7.2882   -1.7187   13.1297 C   0  0  0  0  0  0  0  0  0  0  0  0
    8.1518   -1.9715   12.5125 H   0  0  0  0  0  0  0  0  0  0  0  0
    7.4404   -2.1385   14.1229 H   0  0  0  0  0  0  0  0  0  0  0  0
    7.0352   -0.2122   13.1331 C   0  0  0  0  0  0  0  0  0  0  0  0
    6.3942    0.0570   13.9739 H   0  0  0  0  0  0  0  0  0  0  0  0
    7.9551    0.3619   13.2067 H   0  0  0  0  0  0  0  0  0  0  0  0
    6.3055    0.0194   11.8046 C   0  0  0  0  0  0  0  0  0  0  0  0
    7.0003    0.3623   11.0391 H   0  0  0  0  0  0  0  0  0  0  0  0
    5.5184    0.7645   11.9014 H   0  0  0  0  0  0  0  0  0  0  0  0
    5.7329   -1.3638   11.4168 C   0  0  1  0  0  0  0  0  0  0  0  0
    4.6438   -1.3411   11.3105 H   0  0  0  0  0  0  0  0  0  0  0  0
    6.3356   -1.8732   10.1051 C   0  0  0  0  0  0  0  0  0  0  0  0
    6.0968   -1.1697    9.2964 H   0  0  0  0  0  0  0  0  0  0  0  0
    7.4215   -1.9358   10.2081 H   0  0  0  0  0  0  0  0  0  0  0  0
    6.4808   -3.8131    8.6237 C   0  0  1  0  0  0  0  0  0  0  0  0
    7.5567   -3.8454    8.8268 H   0  0  0  0  0  0  0  0  0  0  0  0
    5.9761   -5.2422    8.4464 C   0  0  0  0  0  0  0  0  0  0  0  0
    6.2079   -5.8300    9.3351 H   0  0  0  0  0  0  0  0  0  0  0  0
    6.4615   -5.7024    7.5898 H   0  0  0  0  0  0  0  0  0  0  0  0
    4.9002   -5.2592    8.2876 H   0  0  0  0  0  0  0  0  0  0  0  0
    6.2273   -2.9942    7.3770 C   0  0  0  0  0  0  0  0  0  0  0  0
    7.2901   -2.5230    6.6179 C   0  0  0  0  0  0  0  0  0  0  0  0
    8.3016   -2.7440    6.9269 H   0  0  0  0  0  0  0  0  0  0  0  0
    7.0644   -1.7812    5.4715 C   0  0  0  0  0  0  0  0  0  0  0  0
    7.9010   -1.4243    4.8893 H   0  0  0  0  0  0  0  0  0  0  0  0
    5.7699   -1.4962    5.0731 C   0  0  0  0  0  0  0  0  0  0  0  0
    5.5918   -0.9172    4.1794 H   0  0  0  0  0  0  0  0  0  0  0  0
    4.7031   -1.9593    5.8245 C   0  0  0  0  0  0  0  0  0  0  0  0
    3.6904   -1.7429    5.5177 H   0  0  0  0  0  0  0  0  0  0  0  0
    4.9305   -2.7039    6.9677 C   0  0  0  0  0  0  0  0  0  0  0  0
    4.0857   -3.0660    7.5378 H   0  0  0  0  0  0  0  0  0  0  0  0
  1  3  1  0  0  0  0
  1  4  1  0  0  0  0
  2  1  1  0  0  0  0
  4  8  1  0  0  0  0
  4  5  1  1  0  0  0
  6 19  1  0  0  0  0
  6  1  1  0  0  0  0
  7  6  1  0  0  0  0
  8 11  1  0  0  0  0
  8 10  1  0  0  0  0
  9  8  1  0  0  0  0
 11 13  1  0  0  0  0
 11 12  1  0  0  0  0
 14 16  1  0  0  0  0
 14 11  1  0  0  0  0
 15 14  1  0  0  0  0
 17 18  1  6  0  0  0
 17 14  1  0  0  0  0
 17  4  1  0  0  0  0
 19 21  1  0  0  0  0
 19 17  1  0  0  0  0
 20 19  1  0  0  0  0
 22 23  1  1  0  0  0
 22  6  1  0  0  0  0
 24 22  1  0  0  0  0
 24 25  1  0  0  0  0
 26 24  1  0  0  0  0
 27 24  1  0  0  0  0
 28 22  1  0  0  0  0
 29 30  1  0  0  0  0
 29 28  2  0  0  0  0
 31 29  1  0  0  0  0
 32 31  1  0  0  0  0
 33 31  2  0  0  0  0
 33 35  1  0  0  0  0
 34 33  1  0  0  0  0
 35 37  2  0  0  0  0
 36 35  1  0  0  0  0
 37 28  1  0  0  0  0
 37 38  1  0  0  0  0
M  END
$$$$
