CSD_code = OQARII | q = 0 | S = 0 | Stoichiometry = C16H17Cl2F6NSiTi | MND = 8
 OpenBabel04212202083D

 44 45  0  0  1  0  0  0  0  0999 V2000
    4.9917    1.7258    7.0168 Ti  0  0  0  0  0  0  0  0  0  0  0  0
    6.8290    2.8371    7.3295 Cl  0  0  0  0  0  0  0  0  0  0  0  0
    5.1560    1.6494    4.8627 Cl  0  0  0  0  0  0  0  0  0  0  0  0
    3.0346    4.0026    5.9974 Si  0  0  0  0  0  0  0  0  0  0  0  0
   -0.3725    2.0642   10.5022 F   0  0  0  0  0  0  0  0  0  0  0  0
   -0.6375    4.0485    9.7248 F   0  0  0  0  0  0  0  0  0  0  0  0
   -0.2131    3.7611   11.8136 F   0  0  0  0  0  0  0  0  0  0  0  0
    5.7379    2.6950   11.9990 F   0  0  0  0  0  0  0  0  0  0  0  0
    4.4231    3.8652   13.2352 F   0  0  0  0  0  0  0  0  0  0  0  0
    5.6723    4.8326   11.7777 F   0  0  0  0  0  0  0  0  0  0  0  0
    3.7246    3.0438    7.3170 N   0  0  0  0  0  0  0  0  0  0  0  0
    3.3119    3.2367    8.6046 C   0  0  0  0  0  0  0  0  0  0  0  0
    1.9539    3.2213    8.9620 C   0  0  0  0  0  0  0  0  0  0  0  0
    1.2132    3.0501    8.1956 H   0  0  0  0  0  0  0  0  0  0  0  0
    1.5652    3.3914   10.2786 C   0  0  0  0  0  0  0  0  0  0  0  0
    2.4927    3.5704   11.2964 C   0  0  0  0  0  0  0  0  0  0  0  0
    2.1807    3.6904   12.3210 H   0  0  0  0  0  0  0  0  0  0  0  0
    3.8358    3.5929   10.9455 C   0  0  0  0  0  0  0  0  0  0  0  0
    4.2503    3.4412    9.6331 C   0  0  0  0  0  0  0  0  0  0  0  0
    5.3062    3.4977    9.3830 H   0  0  0  0  0  0  0  0  0  0  0  0
    0.0945    3.3258   10.5892 C   0  0  0  0  0  0  0  0  0  0  0  0
    4.9040    3.7543   11.9935 C   0  0  0  0  0  0  0  0  0  0  0  0
    3.7725    0.2318    8.3053 C   0  0  0  0  0  0  0  0  0  0  0  0
    2.8031    0.3853    8.7648 H   0  0  0  0  0  0  0  0  0  0  0  0
    5.0262    0.4216    8.9305 C   0  0  1  0  0  0  0  0  0  0  0  0
    5.1891    0.7552    9.9475 H   0  0  0  0  0  0  0  0  0  0  0  0
    6.0256   -0.0825    8.0653 C   0  0  0  0  0  0  0  0  0  0  0  0
    7.0792   -0.1653    8.3023 H   0  0  0  0  0  0  0  0  0  0  0  0
    5.3940   -0.5831    6.9117 C   0  0  0  0  0  0  0  0  0  0  0  0
    5.8772   -1.1075    6.0963 H   0  0  0  0  0  0  0  0  0  0  0  0
    4.0024   -0.3738    7.0474 C   0  0  0  0  0  0  0  0  0  0  0  0
    3.2396   -0.7423    6.3712 H   0  0  0  0  0  0  0  0  0  0  0  0
    1.9436    2.8101    4.9650 C   0  0  0  0  0  0  0  0  0  0  0  0
    2.3630    1.8038    4.9534 H   0  0  0  0  0  0  0  0  0  0  0  0
    1.8706    3.1490    3.9372 H   0  0  0  0  0  0  0  0  0  0  0  0
    0.9312    2.7508    5.3561 H   0  0  0  0  0  0  0  0  0  0  0  0
    4.5262    4.7757    5.0773 C   0  0  0  0  0  0  0  0  0  0  0  0
    4.6281    4.3693    4.0759 H   0  0  0  0  0  0  0  0  0  0  0  0
    5.4584    4.5792    5.6088 H   0  0  0  0  0  0  0  0  0  0  0  0
    4.4168    5.8526    4.9831 H   0  0  0  0  0  0  0  0  0  0  0  0
    1.9859    5.4424    6.6912 C   0  0  0  0  0  0  0  0  0  0  0  0
    2.4984    5.9468    7.5048 H   0  0  0  0  0  0  0  0  0  0  0  0
    1.0164    5.1267    7.0589 H   0  0  0  0  0  0  0  0  0  0  0  0
    1.8085    6.1752    5.9118 H   0  0  0  0  0  0  0  0  0  0  0  0
  1 11  1  0  0  0  0
  1  2  1  0  0  0  0
  1 25  1  0  0  0  0
  3  1  1  0  0  0  0
  4 41  1  0  0  0  0
  4 11  1  0  0  0  0
  5 21  1  0  0  0  0
  6 21  1  0  0  0  0
 10 22  1  0  0  0  0
 11 12  1  0  0  0  0
 12 13  2  0  0  0  0
 12 19  1  0  0  0  0
 13 15  1  0  0  0  0
 14 13  1  0  0  0  0
 15 21  1  0  0  0  0
 15 16  2  0  0  0  0
 16 17  1  0  0  0  0
 18 16  1  0  0  0  0
 18 22  1  0  0  0  0
 19 18  2  0  0  0  0
 20 19  1  0  0  0  0
 21  7  1  0  0  0  0
 22  8  1  0  0  0  0
 22  9  1  0  0  0  0
 23 24  1  0  0  0  0
 23 25  1  0  0  0  0
 25 26  1  1  0  0  0
 27 28  1  0  0  0  0
 27 25  1  0  0  0  0
 29 31  1  0  0  0  0
 29 27  2  0  0  0  0
 30 29  1  0  0  0  0
 31 23  2  0  0  0  0
 32 31  1  0  0  0  0
 33 36  1  0  0  0  0
 33  4  1  0  0  0  0
 34 33  1  0  0  0  0
 35 33  1  0  0  0  0
 37 39  1  0  0  0  0
 37  4  1  0  0  0  0
 38 37  1  0  0  0  0
 40 37  1  0  0  0  0
 41 43  1  0  0  0  0
 41 42  1  0  0  0  0
 44 41  1  0  0  0  0
M  END
$$$$
