CSD_code = OQAROO | q = 0 | S = 0 | Stoichiometry = C21H27Cl2F6NSiTi | MND = 8
 OpenBabel04212202083D

 59 60  0  0  1  0  0  0  0  0999 V2000
    4.1187    3.3724    8.4185 Ti  0  0  0  0  0  0  0  0  0  0  0  0
    6.1202    3.3549    7.5554 Cl  0  0  0  0  0  0  0  0  0  0  0  0
    4.1513    1.2241    8.8192 Cl  0  0  0  0  0  0  0  0  0  0  0  0
    5.9681    4.5719   10.6659 Si  0  0  0  0  0  0  0  0  0  0  0  0
    1.3048    7.6180   12.4674 F   0  0  0  0  0  0  0  0  0  0  0  0
    2.7655    7.0946   13.9519 F   0  0  0  0  0  0  0  0  0  0  0  0
    0.7035    6.5552   14.2382 F   0  0  0  0  0  0  0  0  0  0  0  0
   -0.2753    1.7740   10.9998 F   0  0  0  0  0  0  0  0  0  0  0  0
    1.1439    0.7654   12.2590 F   0  0  0  0  0  0  0  0  0  0  0  0
   -0.4019    1.9731   13.1368 F   0  0  0  0  0  0  0  0  0  0  0  0
    4.3579    4.0888   10.1329 N   0  0  0  0  0  0  0  0  0  0  0  0
    3.2960    4.1518   10.9822 C   0  0  0  0  0  0  0  0  0  0  0  0
    3.0056    5.3083   11.7275 C   0  0  0  0  0  0  0  0  0  0  0  0
    3.6290    6.1801   11.6046 H   0  0  0  0  0  0  0  0  0  0  0  0
    1.9285    5.3480   12.5936 C   0  0  0  0  0  0  0  0  0  0  0  0
    1.0858    4.2577   12.7617 C   0  0  0  0  0  0  0  0  0  0  0  0
    0.2485    4.2973   13.4386 H   0  0  0  0  0  0  0  0  0  0  0  0
    1.3664    3.1134   12.0261 C   0  0  0  0  0  0  0  0  0  0  0  0
    2.4373    3.0477   11.1520 C   0  0  0  0  0  0  0  0  0  0  0  0
    2.6378    2.1295   10.6082 H   0  0  0  0  0  0  0  0  0  0  0  0
    1.6705    6.6379   13.3207 C   0  0  0  0  0  0  0  0  0  0  0  0
    0.4662    1.9125   12.1221 C   0  0  0  0  0  0  0  0  0  0  0  0
    1.9917    4.3259    8.1108 C   0  0  0  0  0  0  0  0  0  0  0  0
    2.0550    3.0745    7.4332 C   0  0  0  0  0  0  0  0  0  0  0  0
    3.0561    3.1711    6.4225 C   0  0  1  0  0  0  0  0  0  0  0  0
    3.6130    4.4781    6.4739 C   0  0  0  0  0  0  0  0  0  0  0  0
    2.9823    5.1793    7.5438 C   0  0  0  0  0  0  0  0  0  0  0  0
    0.8658    4.8010    8.9821 C   0  0  0  0  0  0  0  0  0  0  0  0
    0.1184    5.2875    8.3500 H   0  0  0  0  0  0  0  0  0  0  0  0
    1.1979    5.5290    9.7198 H   0  0  0  0  0  0  0  0  0  0  0  0
    0.3775    3.9789    9.4990 H   0  0  0  0  0  0  0  0  0  0  0  0
    1.1186    1.9164    7.6095 C   0  0  0  0  0  0  0  0  0  0  0  0
    0.4360    1.8605    6.7592 H   0  0  0  0  0  0  0  0  0  0  0  0
    0.5248    2.0214    8.5147 H   0  0  0  0  0  0  0  0  0  0  0  0
    1.6642    0.9734    7.6662 H   0  0  0  0  0  0  0  0  0  0  0  0
    3.4077    2.0998    5.4327 C   0  0  0  0  0  0  0  0  0  0  0  0
    4.4760    2.1124    5.2090 H   0  0  0  0  0  0  0  0  0  0  0  0
    2.8610    2.2507    4.4989 H   0  0  0  0  0  0  0  0  0  0  0  0
    3.1490    1.1161    5.8240 H   0  0  0  0  0  0  0  0  0  0  0  0
    4.5477    5.0816    5.4681 C   0  0  0  0  0  0  0  0  0  0  0  0
    3.9699    5.6127    4.7076 H   0  0  0  0  0  0  0  0  0  0  0  0
    5.1401    4.3145    4.9734 H   0  0  0  0  0  0  0  0  0  0  0  0
    5.2308    5.7915    5.9338 H   0  0  0  0  0  0  0  0  0  0  0  0
    3.1615    6.6328    7.8703 C   0  0  0  0  0  0  0  0  0  0  0  0
    2.4252    7.2305    7.3273 H   0  0  0  0  0  0  0  0  0  0  0  0
    4.1536    6.9791    7.5847 H   0  0  0  0  0  0  0  0  0  0  0  0
    3.0200    6.8147    8.9357 H   0  0  0  0  0  0  0  0  0  0  0  0
    6.5212    6.0486    9.5743 C   0  0  0  0  0  0  0  0  0  0  0  0
    6.3908    5.8358    8.5153 H   0  0  0  0  0  0  0  0  0  0  0  0
    7.5716    6.2631    9.7400 H   0  0  0  0  0  0  0  0  0  0  0  0
    5.9652    6.9525    9.8113 H   0  0  0  0  0  0  0  0  0  0  0  0
    6.0006    5.1250   12.4962 C   0  0  0  0  0  0  0  0  0  0  0  0
    5.3514    4.5119   13.1131 H   0  0  0  0  0  0  0  0  0  0  0  0
    5.7060    6.1591   12.6329 H   0  0  0  0  0  0  0  0  0  0  0  0
    7.0080    5.0288   12.8864 H   0  0  0  0  0  0  0  0  0  0  0  0
    7.0648    3.0009   10.5644 C   0  0  0  0  0  0  0  0  0  0  0  0
    7.9119    3.1540    9.9031 H   0  0  0  0  0  0  0  0  0  0  0  0
    6.5019    2.1471   10.1847 H   0  0  0  0  0  0  0  0  0  0  0  0
    7.4570    2.7303   11.5405 H   0  0  0  0  0  0  0  0  0  0  0  0
  1  3  1  0  0  0  0
  1 11  1  0  0  0  0
  2  1  1  0  0  0  0
  4 52  1  0  0  0  0
  5 21  1  0  0  0  0
  8 22  1  0  0  0  0
 11  4  1  0  0  0  0
 11 12  1  0  0  0  0
 12 19  2  0  0  0  0
 12 13  1  0  0  0  0
 13 15  2  0  0  0  0
 14 13  1  0  0  0  0
 15 16  1  0  0  0  0
 15 21  1  0  0  0  0
 16 17  1  0  0  0  0
 18 22  1  0  0  0  0
 18 16  2  0  0  0  0
 19 18  1  0  0  0  0
 20 19  1  0  0  0  0
 21  6  1  0  0  0  0
 21  7  1  0  0  0  0
 22  9  1  0  0  0  0
 22 10  1  0  0  0  0
 23 28  1  0  0  0  0
 24 32  1  0  0  0  0
 24 23  2  0  0  0  0
 25 36  1  6  0  0  0
 25 26  1  0  0  0  0
 25 24  1  0  0  0  0
 25  1  1  0  0  0  0
 26 27  2  0  0  0  0
 27 44  1  0  0  0  0
 27 23  1  0  0  0  0
 28 31  1  0  0  0  0
 28 30  1  0  0  0  0
 29 28  1  0  0  0  0
 32 35  1  0  0  0  0
 32 34  1  0  0  0  0
 33 32  1  0  0  0  0
 36 39  1  0  0  0  0
 37 36  1  0  0  0  0
 38 36  1  0  0  0  0
 40 43  1  0  0  0  0
 40 26  1  0  0  0  0
 41 40  1  0  0  0  0
 42 40  1  0  0  0  0
 44 47  1  0  0  0  0
 45 44  1  0  0  0  0
 46 44  1  0  0  0  0
 48 50  1  0  0  0  0
 48 51  1  0  0  0  0
 48  4  1  0  0  0  0
 49 48  1  0  0  0  0
 52 54  1  0  0  0  0
 52 55  1  0  0  0  0
 52 53  1  0  0  0  0
 56  4  1  0  0  0  0
 56 59  1  0  0  0  0
 57 56  1  0  0  0  0
 58 56  1  0  0  0  0
M  END
$$$$
