CSD_code = OQECOD | q = 0 | S = 0 | Stoichiometry = C20H18Cl2N2O4Zn | MND = 4
 OpenBabel04212202083D

 47 50  0  0  0  0  0  0  0  0999 V2000
    5.0154    7.9993    6.4995 Zn  0  0  0  0  0  0  0  0  0  0  0  0
    6.4957    9.0113    5.2415 Cl  0  0  0  0  0  0  0  0  0  0  0  0
    2.2945    4.8020    5.7272 O   0  0  0  0  0  0  0  0  0  0  0  0
    4.9130    1.7845    4.9101 O   0  0  0  0  0  0  0  0  0  0  0  0
    4.1322    6.5881    5.0223 N   0  0  0  0  0  4  0  0  0  0  0  0
    3.1895    6.2612    5.2907 H   0  0  0  0  0  0  0  0  0  0  0  0
    4.0851    7.2088    4.2176 H   0  0  0  0  0  0  0  0  0  0  0  0
    4.9433    5.4656    4.7458 C   0  0  0  0  0  0  0  0  0  0  0  0
    6.2267    5.6421    4.2550 C   0  0  0  0  0  0  0  0  0  0  0  0
    6.5924    6.6443    4.0923 H   0  0  0  0  0  0  0  0  0  0  0  0
    7.0441    4.5523    4.0100 C   0  0  0  0  0  0  0  0  0  0  0  0
    8.0448    4.7171    3.6428 H   0  0  0  0  0  0  0  0  0  0  0  0
    6.6107    3.2555    4.2264 C   0  0  0  0  0  0  0  0  0  0  0  0
    5.3125    3.0742    4.7149 C   0  0  0  0  0  0  0  0  0  0  0  0
    4.4627    4.1606    4.9876 C   0  0  0  0  0  0  0  0  0  0  0  0
    3.1008    3.9106    5.4692 C   0  0  0  0  0  0  0  0  0  0  0  0
    2.7666    2.5043    5.6018 C   0  0  0  0  0  0  0  0  0  0  0  0
    1.7720    2.2535    5.9285 H   0  0  0  0  0  0  0  0  0  0  0  0
    3.6712    1.5521    5.3288 C   0  0  0  0  0  0  0  0  0  0  0  0
    3.4733    0.4924    5.4225 H   0  0  0  0  0  0  0  0  0  0  0  0
    7.4732    2.0706    3.9216 C   0  0  0  0  0  0  0  0  0  0  0  0
    7.3609    1.3039    4.6845 H   0  0  0  0  0  0  0  0  0  0  0  0
    8.5157    2.3683    3.8597 H   0  0  0  0  0  0  0  0  0  0  0  0
    7.1816    1.6344    2.9661 H   0  0  0  0  0  0  0  0  0  0  0  0
    3.5375    9.0106    7.7609 Cl  0  0  0  0  0  0  0  0  0  0  0  0
    7.7368    4.7963    7.2688 O   0  0  0  0  0  0  0  0  0  0  0  0
    5.1205    1.7793    8.0943 O   0  0  0  0  0  0  0  0  0  0  0  0
    5.8988    6.5832    7.9717 N   0  0  0  0  0  4  0  0  0  0  0  0
    6.8408    6.2557    7.7014 H   0  0  0  0  0  0  0  0  0  0  0  0
    5.9487    7.2027    8.7772 H   0  0  0  0  0  0  0  0  0  0  0  0
    5.0879    5.4607    8.2497 C   0  0  0  0  0  0  0  0  0  0  0  0
    3.8040    5.6377    8.7393 C   0  0  0  0  0  0  0  0  0  0  0  0
    3.4379    6.6400    8.8998 H   0  0  0  0  0  0  0  0  0  0  0  0
    2.9871    4.5479    8.9861 C   0  0  0  0  0  0  0  0  0  0  0  0
    1.9860    4.7130    9.3523 H   0  0  0  0  0  0  0  0  0  0  0  0
    3.4213    3.2509    8.7731 C   0  0  0  0  0  0  0  0  0  0  0  0
    4.7201    3.0691    8.2860 C   0  0  0  0  0  0  0  0  0  0  0  0
    5.5693    4.1554    8.0110 C   0  0  0  0  0  0  0  0  0  0  0  0
    6.9314    3.9050    7.5301 C   0  0  0  0  0  0  0  0  0  0  0  0
    7.2669    2.4987    7.4021 C   0  0  0  0  0  0  0  0  0  0  0  0
    8.2619    2.2477    7.0768 H   0  0  0  0  0  0  0  0  0  0  0  0
    6.3628    1.5466    7.6772 C   0  0  0  0  0  0  0  0  0  0  0  0
    6.5616    0.4867    7.5869 H   0  0  0  0  0  0  0  0  0  0  0  0
    2.5591    2.0662    9.0799 C   0  0  0  0  0  0  0  0  0  0  0  0
    2.6754    1.2961    8.3211 H   0  0  0  0  0  0  0  0  0  0  0  0
    1.5160    2.3629    9.1364 H   0  0  0  0  0  0  0  0  0  0  0  0
    2.8474    1.6349   10.0386 H   0  0  0  0  0  0  0  0  0  0  0  0
  1 25  1  0  0  0  0
  1 28  1  0  0  0  0
  2  1  1  0  0  0  0
  4 19  1  0  0  0  0
  5  6  1  0  0  0  0
  5  1  1  0  0  0  0
  7  5  1  0  0  0  0
  8 15  1  0  0  0  0
  8  5  1  0  0  0  0
  9  8  2  0  0  0  0
 10  9  1  0  0  0  0
 11 13  2  0  0  0  0
 11  9  1  0  0  0  0
 12 11  1  0  0  0  0
 13 14  1  0  0  0  0
 14  4  1  0  0  0  0
 14 15  2  0  0  0  0
 15 16  1  0  0  0  0
 16 17  1  0  0  0  0
 16  3  2  0  0  0  0
 17 18  1  0  0  0  0
 19 20  1  0  0  0  0
 19 17  2  0  0  0  0
 21 13  1  0  0  0  0
 21 22  1  0  0  0  0
 23 21  1  0  0  0  0
 24 21  1  0  0  0  0
 26 39  2  0  0  0  0
 27 37  1  0  0  0  0
 28 31  1  0  0  0  0
 28 30  1  0  0  0  0
 29 28  1  0  0  0  0
 31 32  1  0  0  0  0
 32 33  1  0  0  0  0
 32 34  2  0  0  0  0
 34 35  1  0  0  0  0
 36 34  1  0  0  0  0
 36 44  1  0  0  0  0
 37 36  2  0  0  0  0
 38 31  2  0  0  0  0
 38 37  1  0  0  0  0
 39 38  1  0  0  0  0
 40 39  1  0  0  0  0
 40 42  2  0  0  0  0
 41 40  1  0  0  0  0
 42 27  1  0  0  0  0
 43 42  1  0  0  0  0
 44 46  1  0  0  0  0
 44 47  1  0  0  0  0
 45 44  1  0  0  0  0
M  END
$$$$
