CSD_code = OQEHOI | q = 0 | S = 0 | Stoichiometry = C19H33ClP2SiZr | MND = 12
 OpenBabel04212202083D

 57 56  0  0  1  0  0  0  0  0999 V2000
   -1.9525    9.9951   11.5585 Zr  0  0  0  0  0  0  0  0  0  0  0  0
   -4.2216    9.6514   11.0641 Cl  0  0  0  0  0  0  0  0  0  0  0  0
   -1.9619   11.7839   13.3865 P   0  0  0  0  0  2  0  0  0  0  0  0
   -2.2093   10.6465   15.2122 P   0  0  0  0  0  0  0  0  0  0  0  0
   -3.5509   13.3850   13.1885 Si  0  0  0  0  0  0  0  0  0  0  0  0
   -2.2088    7.4897   11.9522 C   0  0  0  0  0  0  0  0  0  0  0  0
   -3.1152    6.9279   11.7603 H   0  0  0  0  0  0  0  0  0  0  0  0
   -1.8690    8.1141   13.1702 C   0  0  0  0  0  3  0  0  0  0  0  0
   -2.4390    8.0585   14.0882 H   0  0  0  0  0  0  0  0  0  0  0  0
   -0.5491    8.6232   13.0483 C   0  0  1  0  0  0  0  0  0  0  0  0
    0.0415    9.0438   13.8546 H   0  0  0  0  0  0  0  0  0  0  0  0
   -0.0833    8.3033   11.7558 C   0  0  0  0  0  3  0  0  0  0  0  0
    0.9299    8.4435   11.3986 H   0  0  0  0  0  0  0  0  0  0  0  0
   -1.1140    7.6169   11.0757 C   0  0  0  0  0  0  0  0  0  0  0  0
   -1.0333    7.1445   10.1041 H   0  0  0  0  0  0  0  0  0  0  0  0
   -0.0670   11.0445   10.1929 C   0  0  0  0  0  0  0  0  0  0  0  0
    0.9718   11.0940   10.4971 H   0  0  0  0  0  0  0  0  0  0  0  0
   -1.0296   12.0531   10.4110 C   0  0  0  0  0  3  0  0  0  0  0  0
   -0.8444   12.9941   10.9108 H   0  0  0  0  0  0  0  0  0  0  0  0
   -2.2118   11.6846    9.7312 C   0  0  0  0  0  0  0  0  0  0  0  0
   -3.1103   12.2835    9.6314 H   0  0  0  0  0  0  0  0  0  0  0  0
   -1.9675   10.4580    9.0717 C   0  0  0  0  0  0  0  0  0  0  0  0
   -2.6473    9.9628    8.3879 H   0  0  0  0  0  0  0  0  0  0  0  0
   -0.6415   10.0722    9.3465 C   0  0  0  0  0  0  0  0  0  0  0  0
   -0.1138    9.2508    8.8787 H   0  0  0  0  0  0  0  0  0  0  0  0
   -3.8468   14.3901   14.8018 C   0  0  0  0  0  0  0  0  0  0  0  0
   -4.3746   15.3080   14.5618 H   0  0  0  0  0  0  0  0  0  0  0  0
   -2.9094   14.6641   15.2751 H   0  0  0  0  0  0  0  0  0  0  0  0
   -4.4430   13.8581   15.5358 H   0  0  0  0  0  0  0  0  0  0  0  0
   -5.2387   12.7780   12.5075 C   0  0  0  0  0  0  0  0  0  0  0  0
   -5.1068   12.0154   11.7427 H   0  0  0  0  0  0  0  0  0  0  0  0
   -5.7863   13.6043   12.0641 H   0  0  0  0  0  0  0  0  0  0  0  0
   -5.8636   12.3517   13.2862 H   0  0  0  0  0  0  0  0  0  0  0  0
   -2.8557   14.6794   11.9554 C   0  0  0  0  0  0  0  0  0  0  0  0
   -1.8370   14.9623   12.2027 H   0  0  0  0  0  0  0  0  0  0  0  0
   -3.4619   15.5789   11.9914 H   0  0  0  0  0  0  0  0  0  0  0  0
   -2.8665   14.3218   10.9317 H   0  0  0  0  0  0  0  0  0  0  0  0
   -4.0752   10.6846   15.5486 C   0  0  0  0  0  0  0  0  0  0  0  0
   -4.4201   11.7106   15.3849 H   0  0  0  0  0  0  0  0  0  0  0  0
   -4.4300   10.2579   16.9694 C   0  0  0  0  0  0  0  0  0  0  0  0
   -4.0068    9.2801   17.1931 H   0  0  0  0  0  0  0  0  0  0  0  0
   -5.5131   10.1876   17.0681 H   0  0  0  0  0  0  0  0  0  0  0  0
   -4.0724   10.9716   17.7067 H   0  0  0  0  0  0  0  0  0  0  0  0
   -4.7669    9.7610   14.5510 C   0  0  0  0  0  0  0  0  0  0  0  0
   -5.8464    9.9032   14.5850 H   0  0  0  0  0  0  0  0  0  0  0  0
   -4.5628    8.7185   14.7932 H   0  0  0  0  0  0  0  0  0  0  0  0
   -4.4227    9.9606   13.5321 H   0  0  0  0  0  0  0  0  0  0  0  0
   -1.6335   11.8620   16.5523 C   0  0  0  0  0  0  0  0  0  0  0  0
   -2.4791   12.4930   16.8487 H   0  0  0  0  0  0  0  0  0  0  0  0
   -1.1522   11.0434   17.7513 C   0  0  0  0  0  0  0  0  0  0  0  0
   -0.8788   11.7012   18.5756 H   0  0  0  0  0  0  0  0  0  0  0  0
   -0.2750   10.4622   17.4719 H   0  0  0  0  0  0  0  0  0  0  0  0
   -1.9138   10.3522   18.1020 H   0  0  0  0  0  0  0  0  0  0  0  0
   -0.4945   12.7500   16.0688 C   0  0  0  0  0  0  0  0  0  0  0  0
    0.3357   12.1397   15.7157 H   0  0  0  0  0  0  0  0  0  0  0  0
   -0.1394   13.3797   16.8842 H   0  0  0  0  0  0  0  0  0  0  0  0
   -0.8178   13.3860   15.2474 H   0  0  0  0  0  0  0  0  0  0  0  0
  1 10  1  0  0  0  0
  2  1  1  0  0  0  0
  3  4  1  0  0  0  0
  4 38  1  0  0  0  0
  4 48  1  0  0  0  0
  5  3  1  0  0  0  0
  5 26  1  0  0  0  0
  6  8  1  0  0  0  0
  7  6  1  0  0  0  0
  8  9  1  0  0  0  0
 10  8  1  0  0  0  0
 10 11  1  1  0  0  0
 12 10  1  0  0  0  0
 13 12  1  0  0  0  0
 14 12  1  0  0  0  0
 14  6  2  0  0  0  0
 15 14  1  0  0  0  0
 16 18  1  0  0  0  0
 16 17  1  0  0  0  0
 18 19  1  0  0  0  0
 20 18  1  0  0  0  0
 21 20  1  0  0  0  0
 22 24  1  0  0  0  0
 22 20  2  0  0  0  0
 23 22  1  0  0  0  0
 24 16  2  0  0  0  0
 25 24  1  0  0  0  0
 26 28  1  0  0  0  0
 26 29  1  0  0  0  0
 27 26  1  0  0  0  0
 30  5  1  0  0  0  0
 30 33  1  0  0  0  0
 31 30  1  0  0  0  0
 32 30  1  0  0  0  0
 34 36  1  0  0  0  0
 34 35  1  0  0  0  0
 34  5  1  0  0  0  0
 37 34  1  0  0  0  0
 38 40  1  0  0  0  0
 39 38  1  0  0  0  0
 40 42  1  0  0  0  0
 40 41  1  0  0  0  0
 40 43  1  0  0  0  0
 44 45  1  0  0  0  0
 44 46  1  0  0  0  0
 44 38  1  0  0  0  0
 47 44  1  0  0  0  0
 48 49  1  0  0  0  0
 48 50  1  0  0  0  0
 50 53  1  0  0  0  0
 50 51  1  0  0  0  0
 52 50  1  0  0  0  0
 54 48  1  0  0  0  0
 54 56  1  0  0  0  0
 55 54  1  0  0  0  0
 57 54  1  0  0  0  0
M  END
$$$$
