CSD_code = OQEHEY | q = 0 | S = 0 | Stoichiometry = C19H33ClHfP2Si | MND = 12
 OpenBabel04212202083D

 57 56  0  0  1  0  0  0  0  0999 V2000
   -0.2965   10.0014    5.5493 Hf  0  0  0  0  0  0  0  0  0  0  0  0
    1.9708    9.7198    6.1068 Cl  0  0  0  0  0  0  0  0  0  0  0  0
   -0.1735   11.8199    3.8014 P   0  0  0  0  0  2  0  0  0  0  0  0
    0.0381   10.6315    2.0049 P   0  0  0  0  0  0  0  0  0  0  0  0
    1.4679   13.3777    3.9948 Si  0  0  0  0  0  0  0  0  0  0  0  0
   -0.3861   10.4431    8.0438 C   0  0  0  0  0  0  0  0  0  0  0  0
    0.2272    9.9125    8.7593 H   0  0  0  0  0  0  0  0  0  0  0  0
   -0.1032   11.7155    7.5016 C   0  0  0  0  0  0  0  0  0  0  0  0
    0.7801   12.3005    7.7149 H   0  0  0  0  0  0  0  0  0  0  0  0
   -1.2269   12.1383    6.7708 C   0  0  0  0  0  0  0  0  0  0  0  0
   -1.3670   13.1083    6.3205 H   0  0  0  0  0  0  0  0  0  0  0  0
   -2.1996   11.1195    6.8275 C   0  0  0  0  0  0  0  0  0  0  0  0
   -3.2159   11.2015    6.4683 H   0  0  0  0  0  0  0  0  0  0  0  0
   -1.6893   10.0798    7.6403 C   0  0  0  0  0  3  0  0  0  0  0  0
   -2.2630    9.2573    8.0428 H   0  0  0  0  0  0  0  0  0  0  0  0
   -2.1066    8.2311    5.3240 C   0  0  0  0  0  0  0  0  0  0  0  0
   -3.1363    8.3502    5.6299 H   0  0  0  0  0  0  0  0  0  0  0  0
   -1.5927    8.5396    4.0456 C   0  0  2  0  0  0  0  0  0  0  0  0
   -2.1614    8.9221    3.2088 H   0  0  0  0  0  0  0  0  0  0  0  0
   -0.2641    8.0413    3.9844 C   0  0  0  0  0  0  0  0  0  0  0  0
    0.3413    7.9780    3.0922 H   0  0  0  0  0  0  0  0  0  0  0  0
    0.0312    7.4381    5.2220 C   0  0  0  0  0  0  0  0  0  0  0  0
    0.9267    6.8800    5.4532 H   0  0  0  0  0  0  0  0  0  0  0  0
   -1.0978    7.5627    6.0504 C   0  0  0  0  0  0  0  0  0  0  0  0
   -1.2180    7.0914    7.0151 H   0  0  0  0  0  0  0  0  0  0  0  0
    0.8463   14.6412    5.2898 C   0  0  0  0  0  0  0  0  0  0  0  0
   -0.1624   14.9758    5.0692 H   0  0  0  0  0  0  0  0  0  0  0  0
    1.4905   15.5149    5.2835 H   0  0  0  0  0  0  0  0  0  0  0  0
    0.8539   14.2380    6.2958 H   0  0  0  0  0  0  0  0  0  0  0  0
    1.6311   14.3827    2.3648 C   0  0  0  0  0  0  0  0  0  0  0  0
    0.6610   14.5636    1.9129 H   0  0  0  0  0  0  0  0  0  0  0  0
    2.2543   13.8942    1.6227 H   0  0  0  0  0  0  0  0  0  0  0  0
    2.0805   15.3477    2.5775 H   0  0  0  0  0  0  0  0  0  0  0  0
    3.1972   12.7591    4.5401 C   0  0  0  0  0  0  0  0  0  0  0  0
    3.7533   12.3181    3.7190 H   0  0  0  0  0  0  0  0  0  0  0  0
    3.1265   12.0109    5.3245 H   0  0  0  0  0  0  0  0  0  0  0  0
    3.7821   13.5892    4.9247 H   0  0  0  0  0  0  0  0  0  0  0  0
   -0.6259   11.7943    0.6628 C   0  0  0  0  0  0  0  0  0  0  0  0
    0.1899   12.4379    0.3141 H   0  0  0  0  0  0  0  0  0  0  0  0
   -1.7680   12.6675    1.1651 C   0  0  0  0  0  0  0  0  0  0  0  0
   -1.4291   13.3429    1.9477 H   0  0  0  0  0  0  0  0  0  0  0  0
   -2.5644   12.0492    1.5765 H   0  0  0  0  0  0  0  0  0  0  0  0
   -2.1756   13.2563    0.3437 H   0  0  0  0  0  0  0  0  0  0  0  0
   -1.1334   10.9280   -0.4916 C   0  0  0  0  0  0  0  0  0  0  0  0
   -0.3712   10.2408   -0.8486 H   0  0  0  0  0  0  0  0  0  0  0  0
   -1.4502   11.5535   -1.3253 H   0  0  0  0  0  0  0  0  0  0  0  0
   -1.9877   10.3392   -0.1618 H   0  0  0  0  0  0  0  0  0  0  0  0
    1.8852   10.6985    1.5903 C   0  0  0  0  0  0  0  0  0  0  0  0
    2.2188   11.7299    1.7411 H   0  0  0  0  0  0  0  0  0  0  0  0
    2.6338    9.7810    2.5520 C   0  0  0  0  0  0  0  0  0  0  0  0
    2.3441    9.9717    3.5867 H   0  0  0  0  0  0  0  0  0  0  0  0
    3.7088    9.9324    2.4641 H   0  0  0  0  0  0  0  0  0  0  0  0
    2.4265    8.7378    2.3187 H   0  0  0  0  0  0  0  0  0  0  0  0
    2.1865   10.2796    0.1550 C   0  0  0  0  0  0  0  0  0  0  0  0
    1.7809   10.9833   -0.5669 H   0  0  0  0  0  0  0  0  0  0  0  0
    1.7789    9.2911   -0.0498 H   0  0  0  0  0  0  0  0  0  0  0  0
    3.2658   10.2355    0.0102 H   0  0  0  0  0  0  0  0  0  0  0  0
  1  2  1  0  0  0  0
  3  5  1  0  0  0  0
  4  3  1  0  0  0  0
  5 34  1  0  0  0  0
  5 26  1  0  0  0  0
  6  7  1  0  0  0  0
  8  9  1  0  0  0  0
  8  6  2  0  0  0  0
 10 12  2  0  0  0  0
 10  8  1  0  0  0  0
 11 10  1  0  0  0  0
 12 14  1  0  0  0  0
 13 12  1  0  0  0  0
 14 15  1  0  0  0  0
 14  6  1  0  0  0  0
 16 17  1  0  0  0  0
 16 24  2  0  0  0  0
 18 19  1  6  0  0  0
 18 16  1  0  0  0  0
 18  1  1  0  0  0  0
 20 18  1  0  0  0  0
 20 22  2  0  0  0  0
 21 20  1  0  0  0  0
 22 23  1  0  0  0  0
 22 24  1  0  0  0  0
 24 25  1  0  0  0  0
 26 29  1  0  0  0  0
 27 26  1  0  0  0  0
 28 26  1  0  0  0  0
 30 33  1  0  0  0  0
 30  5  1  0  0  0  0
 31 30  1  0  0  0  0
 32 30  1  0  0  0  0
 34 37  1  0  0  0  0
 34 36  1  0  0  0  0
 35 34  1  0  0  0  0
 38 40  1  0  0  0  0
 38  4  1  0  0  0  0
 39 38  1  0  0  0  0
 40 42  1  0  0  0  0
 40 41  1  0  0  0  0
 43 40  1  0  0  0  0
 44 47  1  0  0  0  0
 44 38  1  0  0  0  0
 45 44  1  0  0  0  0
 46 44  1  0  0  0  0
 48 49  1  0  0  0  0
 48  4  1  0  0  0  0
 48 50  1  0  0  0  0
 50 51  1  0  0  0  0
 52 50  1  0  0  0  0
 53 50  1  0  0  0  0
 54 48  1  0  0  0  0
 55 54  1  0  0  0  0
 56 54  1  0  0  0  0
 57 54  1  0  0  0  0
M  END
$$$$
