CSD_code = OQENEE | q = 0 | S = 0 | Stoichiometry = C12H28Cl2N4Pt | MND = 4
 OpenBabel04212202083D

 47 46  0  0  1  0  0  0  0  0999 V2000
    2.5000    2.1488    9.9625 Pt  0  0  0  0  0  0  0  0  0  0  0  0
    2.2671    0.8449   11.8059 Cl  0  0  0  0  0  0  0  0  0  0  0  0
    4.1673    3.3649   10.8994 Cl  0  0  0  0  0  0  0  0  0  0  0  0
    2.9014    3.2869    8.2873 N   0  0  0  0  0  0  0  0  0  0  0  0
    3.8667    3.1139    8.0222 H   0  0  0  0  0  0  0  0  0  0  0  0
    3.1737    5.4325    7.4166 N   0  0  0  0  0  0  0  0  0  0  0  0
    1.0108    0.9967    9.1297 N   0  0  0  0  0  0  0  0  0  0  0  0
    1.3625    0.2921    8.4894 H   0  0  0  0  0  0  0  0  0  0  0  0
   -0.7989   -0.4179    9.5101 N   0  0  0  0  0  0  0  0  0  0  0  0
    2.4661    4.4777    8.0557 C   0  0  1  0  0  3  0  0  0  0  0  0
    1.0639    4.7841    8.4919 C   0  0  0  0  0  0  0  0  0  0  0  0
    0.4873    5.2700    7.7099 H   0  0  0  0  0  0  0  0  0  0  0  0
    1.0832    5.4216    9.3743 H   0  0  0  0  0  0  0  0  0  0  0  0
    0.5890    3.8431    8.7598 H   0  0  0  0  0  0  0  0  0  0  0  0
    2.6805    6.7808    7.2223 C   0  0  0  0  0  0  0  0  0  0  0  0
    1.9432    7.0234    7.9872 H   0  0  0  0  0  0  0  0  0  0  0  0
    3.5207    7.4684    7.3499 H   0  0  0  0  0  0  0  0  0  0  0  0
    2.0751    6.9737    5.8317 C   0  0  0  0  0  0  0  0  0  0  0  0
    2.8121    6.7640    5.0602 H   0  0  0  0  0  0  0  0  0  0  0  0
    1.7354    7.9989    5.7146 H   0  0  0  0  0  0  0  0  0  0  0  0
    1.2294    6.3073    5.6819 H   0  0  0  0  0  0  0  0  0  0  0  0
    4.5581    5.2080    7.0291 C   0  0  0  0  0  0  0  0  0  0  0  0
    4.6617    4.2052    6.6044 H   0  0  0  0  0  0  0  0  0  0  0  0
    4.7964    5.9174    6.2327 H   0  0  0  0  0  0  0  0  0  0  0  0
    5.5149    5.3941    8.2054 C   0  0  0  0  0  0  0  0  0  0  0  0
    6.5314    5.1647    7.8983 H   0  0  0  0  0  0  0  0  0  0  0  0
    5.2423    4.7452    9.0370 H   0  0  0  0  0  0  0  0  0  0  0  0
    5.4844    6.4220    8.5588 H   0  0  0  0  0  0  0  0  0  0  0  0
   -0.0954    0.7125    9.7323 C   0  0  2  0  0  3  0  0  0  0  0  0
   -0.6640    1.7428   10.6618 C   0  0  0  0  0  0  0  0  0  0  0  0
   -0.8855    1.3109   11.6327 H   0  0  0  0  0  0  0  0  0  0  0  0
   -1.5676    2.1858   10.2436 H   0  0  0  0  0  0  0  0  0  0  0  0
    0.0896    2.5197   10.8068 H   0  0  0  0  0  0  0  0  0  0  0  0
   -0.2468   -1.4949    8.7074 C   0  0  0  0  0  0  0  0  0  0  0  0
   -0.7030   -2.4294    9.0381 H   0  0  0  0  0  0  0  0  0  0  0  0
    0.8291   -1.5784    8.8918 H   0  0  0  0  0  0  0  0  0  0  0  0
   -0.5242   -1.2982    7.2170 C   0  0  0  0  0  0  0  0  0  0  0  0
   -1.5958   -1.2612    7.0347 H   0  0  0  0  0  0  0  0  0  0  0  0
   -0.1053   -2.1246    6.6495 H   0  0  0  0  0  0  0  0  0  0  0  0
   -0.0869   -0.3706    6.8563 H   0  0  0  0  0  0  0  0  0  0  0  0
   -2.0325   -0.7193   10.2096 C   0  0  0  0  0  0  0  0  0  0  0  0
   -2.5701    0.2058   10.4157 H   0  0  0  0  0  0  0  0  0  0  0  0
   -2.6573   -1.3224    9.5437 H   0  0  0  0  0  0  0  0  0  0  0  0
   -1.7802   -1.4771   11.5134 C   0  0  0  0  0  0  0  0  0  0  0  0
   -2.7149   -1.6166   12.0496 H   0  0  0  0  0  0  0  0  0  0  0  0
   -1.0881   -0.9275   12.1457 H   0  0  0  0  0  0  0  0  0  0  0  0
   -1.3469   -2.4543   11.3154 H   0  0  0  0  0  0  0  0  0  0  0  0
  1  3  1  0  0  0  0
  1  2  1  0  0  0  0
  4  1  1  0  0  0  0
  5  4  1  0  0  0  0
  7  1  1  0  0  0  0
  8  7  1  0  0  0  0
  9 29  1  0  0  0  0
  9 41  1  0  0  0  0
 10  6  1  6  0  0  0
 10  4  1  0  0  0  0
 10 11  1  0  0  0  0
 11 14  1  0  0  0  0
 11 13  1  0  0  0  0
 12 11  1  0  0  0  0
 15 17  1  0  0  0  0
 15  6  1  0  0  0  0
 15 16  1  0  0  0  0
 18 15  1  0  0  0  0
 19 18  1  0  0  0  0
 20 18  1  0  0  0  0
 21 18  1  0  0  0  0
 22  6  1  0  0  0  0
 22 25  1  0  0  0  0
 23 22  1  0  0  0  0
 24 22  1  0  0  0  0
 25 28  1  0  0  0  0
 25 27  1  0  0  0  0
 26 25  1  0  0  0  0
 29  7  1  6  0  0  0
 29 30  1  0  0  0  0
 30 33  1  0  0  0  0
 30 31  1  0  0  0  0
 32 30  1  0  0  0  0
 34 36  1  0  0  0  0
 34 35  1  0  0  0  0
 34  9  1  0  0  0  0
 37 34  1  0  0  0  0
 38 37  1  0  0  0  0
 39 37  1  0  0  0  0
 40 37  1  0  0  0  0
 41 42  1  0  0  0  0
 41 44  1  0  0  0  0
 43 41  1  0  0  0  0
 44 45  1  0  0  0  0
 44 46  1  0  0  0  0
 47 44  1  0  0  0  0
M  END
$$$$
