CSD_code = OQENOO | q = 0 | S = 0 | Stoichiometry = C20H18BrN3NiS2 | MND = 4
 OpenBabel04212202083D

 45 49  0  0  0  0  0  0  0  0999 V2000
    2.3195    1.1305    4.8071 Br  0  0  0  0  0  0  0  0  0  0  0  0
    3.5551    1.5156    3.0931 Ni  0  0  2  0  0  0  0  0  0  0  0  0
    4.6294   -0.5128    3.1034 S   0  0  0  0  0  0  0  0  0  0  0  0
    2.7722    3.6385    2.6924 S   0  0  0  0  0  0  0  0  0  0  0  0
    4.6085    1.8431    1.6286 N   0  0  0  0  0  0  0  0  0  0  0  0
    6.4665   -1.2137    1.3186 N   0  0  0  0  0  0  0  0  0  0  0  0
    3.6602    5.1849    0.7227 N   0  0  0  0  0  0  0  0  0  0  0  0
    5.5093    0.9862    1.0982 C   0  0  0  0  0  0  0  0  0  0  0  0
    6.1179    1.5951   -0.0197 C   0  0  0  0  0  0  0  0  0  0  0  0
    5.5536    2.8498   -0.1463 C   0  0  0  0  0  0  0  0  0  0  0  0
    4.6139    2.9804    0.8981 C   0  0  0  0  0  0  0  0  0  0  0  0
    5.6310   -0.2712    1.7604 C   0  0  0  0  0  0  0  0  0  0  0  0
    6.7347   -2.4575    2.0120 C   0  0  0  0  0  0  0  0  0  0  0  0
    7.9100   -2.2987    2.9461 C   0  0  0  0  0  0  0  0  0  0  0  0
    9.2067   -2.4171    2.4615 C   0  0  0  0  0  0  0  0  0  0  0  0
   10.2882   -2.2216    3.3018 C   0  0  0  0  0  0  0  0  0  0  0  0
   10.0815   -1.9001    4.6327 C   0  0  0  0  0  0  0  0  0  0  0  0
    8.7916   -1.7773    5.1203 C   0  0  0  0  0  0  0  0  0  0  0  0
    7.7087   -1.9740    4.2811 C   0  0  0  0  0  0  0  0  0  0  0  0
    3.7173    4.0004    1.3344 C   0  0  0  0  0  0  0  0  0  0  0  0
    2.7089    6.2309    1.0379 C   0  0  0  0  0  0  0  0  0  0  0  0
    1.5310    6.1751    0.0961 C   0  0  0  0  0  0  0  0  0  0  0  0
    0.4709    5.3157    0.3566 C   0  0  0  0  0  0  0  0  0  0  0  0
   -0.5862    5.2258   -0.5314 C   0  0  0  0  0  0  0  0  0  0  0  0
   -0.5932    5.9922   -1.6849 C   0  0  0  0  0  0  0  0  0  0  0  0
    0.4608    6.8498   -1.9497 C   0  0  0  0  0  0  0  0  0  0  0  0
    1.5210    6.9374   -1.0645 C   0  0  0  0  0  0  0  0  0  0  0  0
    7.1072   -0.9558    0.5814 H   0  0  0  0  0  0  0  0  0  0  0  0
    4.1828    5.2903   -0.1355 H   0  0  0  0  0  0  0  0  0  0  0  0
    6.8727    1.1653   -0.6506 H   0  0  0  0  0  0  0  0  0  0  0  0
    5.7844    3.5840   -0.8948 H   0  0  0  0  0  0  0  0  0  0  0  0
    5.8361   -2.7269    2.5710 H   0  0  0  0  0  0  0  0  0  0  0  0
    6.9398   -3.2244    1.2604 H   0  0  0  0  0  0  0  0  0  0  0  0
    9.3711   -2.6723    1.4234 H   0  0  0  0  0  0  0  0  0  0  0  0
   11.2927   -2.3206    2.9174 H   0  0  0  0  0  0  0  0  0  0  0  0
   10.9257   -1.7471    5.2884 H   0  0  0  0  0  0  0  0  0  0  0  0
    8.6256   -1.5269    6.1572 H   0  0  0  0  0  0  0  0  0  0  0  0
    6.7036   -1.8762    4.6626 H   0  0  0  0  0  0  0  0  0  0  0  0
    2.3828    6.0806    2.0694 H   0  0  0  0  0  0  0  0  0  0  0  0
    3.2219    7.1930    0.9552 H   0  0  0  0  0  0  0  0  0  0  0  0
    0.4740    4.7212    1.2579 H   0  0  0  0  0  0  0  0  0  0  0  0
   -1.4073    4.5574   -0.3203 H   0  0  0  0  0  0  0  0  0  0  0  0
   -1.4199    5.9230   -2.3759 H   0  0  0  0  0  0  0  0  0  0  0  0
    0.4586    7.4513   -2.8468 H   0  0  0  0  0  0  0  0  0  0  0  0
    2.3419    7.6100   -1.2726 H   0  0  0  0  0  0  0  0  0  0  0  0
  2  3  1  0  0  0  0
  2  1  1  6  0  0  0
  4  2  1  0  0  0  0
  5  2  1  0  0  0  0
  6 12  1  0  0  0  0
  6 13  1  0  0  0  0
  7 21  1  0  0  0  0
  7 20  1  0  0  0  0
  8  5  1  0  0  0  0
  8 12  2  0  0  0  0
  9  8  1  0  0  0  0
 10  9  2  0  0  0  0
 10 11  1  0  0  0  0
 11 20  2  0  0  0  0
 11  5  1  0  0  0  0
 12  3  1  0  0  0  0
 13 32  1  0  0  0  0
 13 14  1  0  0  0  0
 14 19  1  0  0  0  0
 15 14  2  0  0  0  0
 15 16  1  0  0  0  0
 16 17  2  0  0  0  0
 17 18  1  0  0  0  0
 17 36  1  0  0  0  0
 18 37  1  0  0  0  0
 19 38  1  0  0  0  0
 19 18  2  0  0  0  0
 20  4  1  0  0  0  0
 21 39  1  0  0  0  0
 22 23  1  0  0  0  0
 22 21  1  0  0  0  0
 23 41  1  0  0  0  0
 24 42  1  0  0  0  0
 24 23  2  0  0  0  0
 25 24  1  0  0  0  0
 26 25  2  0  0  0  0
 26 27  1  0  0  0  0
 27 22  2  0  0  0  0
 28  6  1  0  0  0  0
 29  7  1  0  0  0  0
 30  9  1  0  0  0  0
 31 10  1  0  0  0  0
 33 13  1  0  0  0  0
 34 15  1  0  0  0  0
 35 16  1  0  0  0  0
 40 21  1  0  0  0  0
 43 25  1  0  0  0  0
 44 26  1  0  0  0  0
 45 27  1  0  0  0  0
M  END
$$$$
