CSD_code = OQOHUY | q = 0 | S = 0 | Stoichiometry = C18H38I2N4O2Pd | MND = 4
 OpenBabel04212202083D

 65 66  0  0  1  0  0  0  0  0999 V2000
   -0.0001    0.0002   -0.0002 Pd  0  0  0  0  0  0  0  0  0  0  0  0
    1.5290   -1.2435    1.7304 I   0  0  0  0  0  0  0  0  0  0  0  0
    2.7971   -2.8910   -5.2819 O   0  5  0  0  0  0  0  0  0  0  0  0
    2.0797   -2.6851   -4.2428 N   0  3  1  0  0  3  0  0  0  0  0  0
   -0.4431   -1.8332   -0.9120 N   0  0  0  0  0  4  0  0  0  0  0  0
   -0.0857   -2.5815   -0.3060 H   0  0  0  0  0  0  0  0  0  0  0  0
   -1.4555   -1.9633   -1.0067 H   0  0  0  0  0  0  0  0  0  0  0  0
    2.3417   -1.4477   -3.5089 C   0  0  0  0  0  0  0  0  0  0  0  0
    1.6434   -1.4384   -2.1470 C   0  0  0  0  0  0  0  0  0  0  0  0
    2.1954   -2.0783   -1.4502 H   0  0  0  0  0  0  0  0  0  0  0  0
    1.6713   -0.3957   -1.7634 H   0  0  0  0  0  0  0  0  0  0  0  0
    0.1998   -1.9345   -2.2332 C   0  0  1  0  0  0  0  0  0  0  0  0
   -0.3719   -1.3046   -2.9235 H   0  0  0  0  0  0  0  0  0  0  0  0
    0.2327   -3.3721   -2.7387 C   0  0  0  0  0  0  0  0  0  0  0  0
   -0.7761   -3.7896   -2.7832 H   0  0  0  0  0  0  0  0  0  0  0  0
    0.8185   -3.9780   -2.0406 H   0  0  0  0  0  0  0  0  0  0  0  0
    0.8534   -3.4745   -4.1367 C   0  0  0  0  0  0  0  0  0  0  0  0
    1.8985   -0.2483   -4.3635 C   0  0  0  0  0  0  0  0  0  0  0  0
    2.3025   -0.3591   -5.3666 H   0  0  0  0  0  0  0  0  0  0  0  0
    2.2794    0.6753   -3.9346 H   0  0  0  0  0  0  0  0  0  0  0  0
    0.8167   -0.1740   -4.4327 H   0  0  0  0  0  0  0  0  0  0  0  0
    3.8580   -1.3681   -3.2910 C   0  0  0  0  0  0  0  0  0  0  0  0
    4.2048   -2.2264   -2.7197 H   0  0  0  0  0  0  0  0  0  0  0  0
    4.1139   -0.4594   -2.7531 H   0  0  0  0  0  0  0  0  0  0  0  0
    4.3643   -1.3716   -4.2516 H   0  0  0  0  0  0  0  0  0  0  0  0
   -0.1346   -3.0121   -5.2206 C   0  0  0  0  0  0  0  0  0  0  0  0
   -0.5236   -2.0179   -5.0195 H   0  0  0  0  0  0  0  0  0  0  0  0
   -0.9690   -3.7055   -5.2868 H   0  0  0  0  0  0  0  0  0  0  0  0
    0.3805   -2.9925   -6.1779 H   0  0  0  0  0  0  0  0  0  0  0  0
    1.2350   -4.9350   -4.4083 C   0  0  0  0  0  0  0  0  0  0  0  0
    1.9595   -5.2807   -3.6743 H   0  0  0  0  0  0  0  0  0  0  0  0
    1.6855   -5.0144   -5.3932 H   0  0  0  0  0  0  0  0  0  0  0  0
    0.3538   -5.5688   -4.3633 H   0  0  0  0  0  0  0  0  0  0  0  0
   -1.5294    1.2438   -1.7310 I   0  0  0  0  0  0  0  0  0  0  0  0
   -2.7971    2.8910    5.2819 O   0  5  0  0  0  0  0  0  0  0  0  0
   -2.0798    2.6851    4.2429 N   0  3  2  0  0  3  0  0  0  0  0  0
    0.4434    1.8332    0.9122 N   0  0  0  0  0  4  0  0  0  0  0  0
    0.0860    2.5814    0.3061 H   0  0  0  0  0  0  0  0  0  0  0  0
    1.4558    1.9633    1.0069 H   0  0  0  0  0  0  0  0  0  0  0  0
   -2.3417    1.4476    3.5089 C   0  0  0  0  0  0  0  0  0  0  0  0
   -1.6434    1.4384    2.1470 C   0  0  0  0  0  0  0  0  0  0  0  0
   -2.1954    2.0782    1.4502 H   0  0  0  0  0  0  0  0  0  0  0  0
   -1.6712    0.3956    1.7635 H   0  0  0  0  0  0  0  0  0  0  0  0
   -0.1998    1.9346    2.2334 C   0  0  2  0  0  0  0  0  0  0  0  0
    0.3719    1.3047    2.9237 H   0  0  0  0  0  0  0  0  0  0  0  0
   -0.2328    3.3722    2.7386 C   0  0  0  0  0  0  0  0  0  0  0  0
    0.7760    3.7898    2.7831 H   0  0  0  0  0  0  0  0  0  0  0  0
   -0.8187    3.9780    2.0406 H   0  0  0  0  0  0  0  0  0  0  0  0
   -0.8535    3.4745    4.1367 C   0  0  0  0  0  0  0  0  0  0  0  0
   -1.8985    0.2483    4.3635 C   0  0  0  0  0  0  0  0  0  0  0  0
   -2.3025    0.3591    5.3666 H   0  0  0  0  0  0  0  0  0  0  0  0
   -2.2793   -0.6753    3.9346 H   0  0  0  0  0  0  0  0  0  0  0  0
   -0.8167    0.1740    4.4327 H   0  0  0  0  0  0  0  0  0  0  0  0
   -3.8580    1.3680    3.2910 C   0  0  0  0  0  0  0  0  0  0  0  0
   -4.2048    2.2263    2.7197 H   0  0  0  0  0  0  0  0  0  0  0  0
   -4.1139    0.4594    2.7531 H   0  0  0  0  0  0  0  0  0  0  0  0
   -4.3644    1.3715    4.2516 H   0  0  0  0  0  0  0  0  0  0  0  0
    0.1346    3.0121    5.2205 C   0  0  0  0  0  0  0  0  0  0  0  0
    0.5237    2.0179    5.0193 H   0  0  0  0  0  0  0  0  0  0  0  0
    0.9690    3.7055    5.2867 H   0  0  0  0  0  0  0  0  0  0  0  0
   -0.3804    2.9924    6.1778 H   0  0  0  0  0  0  0  0  0  0  0  0
   -1.2350    4.9350    4.4084 C   0  0  0  0  0  0  0  0  0  0  0  0
   -1.9596    5.2807    3.6744 H   0  0  0  0  0  0  0  0  0  0  0  0
   -1.6855    5.0144    5.3934 H   0  0  0  0  0  0  0  0  0  0  0  0
   -0.3538    5.5688    4.3633 H   0  0  0  0  0  0  0  0  0  0  0  0
  1 37  1  0  0  0  0
  1  2  1  0  0  0  0
  4  3  1  6  0  0  0
  4 17  1  0  0  0  0
  4  8  1  0  0  0  0
  5  6  1  0  0  0  0
  5  1  1  0  0  0  0
  7  5  1  0  0  0  0
  8 22  1  0  0  0  0
  8  9  1  0  0  0  0
  9 11  1  0  0  0  0
  9 10  1  0  0  0  0
 12 13  1  6  0  0  0
 12  9  1  0  0  0  0
 12  5  1  0  0  0  0
 14 12  1  0  0  0  0
 14 16  1  0  0  0  0
 15 14  1  0  0  0  0
 17 14  1  0  0  0  0
 18 20  1  0  0  0  0
 18  8  1  0  0  0  0
 19 18  1  0  0  0  0
 21 18  1  0  0  0  0
 22 24  1  0  0  0  0
 22 23  1  0  0  0  0
 25 22  1  0  0  0  0
 26 27  1  0  0  0  0
 26 17  1  0  0  0  0
 28 26  1  0  0  0  0
 29 26  1  0  0  0  0
 30 33  1  0  0  0  0
 30 17  1  0  0  0  0
 30 31  1  0  0  0  0
 32 30  1  0  0  0  0
 34  1  1  0  0  0  0
 36 35  1  1  0  0  0
 37 39  1  0  0  0  0
 37 44  1  0  0  0  0
 38 37  1  0  0  0  0
 40 36  1  0  0  0  0
 40 50  1  0  0  0  0
 41 44  1  0  0  0  0
 41 40  1  0  0  0  0
 42 41  1  0  0  0  0
 43 41  1  0  0  0  0
 44 46  1  0  0  0  0
 44 45  1  1  0  0  0
 46 47  1  0  0  0  0
 46 49  1  0  0  0  0
 48 46  1  0  0  0  0
 49 36  1  0  0  0  0
 49 62  1  0  0  0  0
 49 58  1  0  0  0  0
 50 53  1  0  0  0  0
 50 51  1  0  0  0  0
 52 50  1  0  0  0  0
 54 40  1  0  0  0  0
 54 57  1  0  0  0  0
 55 54  1  0  0  0  0
 56 54  1  0  0  0  0
 58 60  1  0  0  0  0
 58 61  1  0  0  0  0
 59 58  1  0  0  0  0
 62 64  1  0  0  0  0
 63 62  1  0  0  0  0
 65 62  1  0  0  0  0
M  CHG  4   3  -1   4   1  35  -1  36   1
M  END
$$$$
