CSD_code = OQOJAG | q = 0 | S = 0 | Stoichiometry = C18H38Cl2N4O2Pd | MND = 4
 OpenBabel04212202083D

 65 66  0  0  1  0  0  0  0  0999 V2000
    4.6316    6.8015    7.6920 Pd  0  0  0  0  0  0  0  0  0  0  0  0
    2.7678    5.9706    8.7334 Cl  0  0  0  0  0  0  0  0  0  0  0  0
    1.5805   11.4397    4.0749 O   0  5  0  0  0  0  0  0  0  0  0  0
    2.0057   10.3112    4.5030 N   0  3  1  0  0  3  0  0  0  0  0  0
    3.6274    6.6263    5.8995 N   0  0  0  0  0  4  0  0  0  0  0  0
    4.1273    6.0280    5.2371 H   0  0  0  0  0  0  0  0  0  0  0  0
    2.7291    6.1856    6.1301 H   0  0  0  0  0  0  0  0  0  0  0  0
    2.2451    9.2836    3.4914 C   0  0  0  0  0  0  0  0  0  0  0  0
    2.4494    7.9034    4.1262 C   0  0  0  0  0  0  0  0  0  0  0  0
    1.4840    7.5186    4.4675 H   0  0  0  0  0  0  0  0  0  0  0  0
    2.8282    7.2278    3.3557 H   0  0  0  0  0  0  0  0  0  0  0  0
    3.4025    7.9565    5.3152 C   0  0  1  0  0  0  0  0  0  0  0  0
    4.3847    8.3348    5.0095 H   0  0  0  0  0  0  0  0  0  0  0  0
    2.7866    8.8756    6.3694 C   0  0  0  0  0  0  0  0  0  0  0  0
    1.8300    8.4495    6.6884 H   0  0  0  0  0  0  0  0  0  0  0  0
    3.4538    8.9303    7.2544 H   0  0  0  0  0  0  0  0  0  0  0  0
    2.5730   10.3002    5.8510 C   0  0  0  0  0  0  0  0  0  0  0  0
    1.0051    9.2426    2.5893 C   0  0  0  0  0  0  0  0  0  0  0  0
    0.1224    8.9847    3.1701 H   0  0  0  0  0  0  0  0  0  0  0  0
    1.1382    8.5078    1.8004 H   0  0  0  0  0  0  0  0  0  0  0  0
    0.8459   10.2214    2.1466 H   0  0  0  0  0  0  0  0  0  0  0  0
    3.4607    9.6918    2.6427 C   0  0  0  0  0  0  0  0  0  0  0  0
    3.3236   10.7157    2.3038 H   0  0  0  0  0  0  0  0  0  0  0  0
    3.5449    9.0442    1.7738 H   0  0  0  0  0  0  0  0  0  0  0  0
    4.3853    9.6366    3.2098 H   0  0  0  0  0  0  0  0  0  0  0  0
    1.5709   11.0202    6.7623 C   0  0  0  0  0  0  0  0  0  0  0  0
    1.4259   12.0381    6.4128 H   0  0  0  0  0  0  0  0  0  0  0  0
    1.9398   11.0379    7.7838 H   0  0  0  0  0  0  0  0  0  0  0  0
    0.6091   10.5128    6.7426 H   0  0  0  0  0  0  0  0  0  0  0  0
    3.8969   11.0831    5.8503 C   0  0  0  0  0  0  0  0  0  0  0  0
    3.7579   12.0192    5.3151 H   0  0  0  0  0  0  0  0  0  0  0  0
    4.6973   10.5221    5.3764 H   0  0  0  0  0  0  0  0  0  0  0  0
    4.1951   11.3047    6.8717 H   0  0  0  0  0  0  0  0  0  0  0  0
    6.4947    7.6333    6.6507 Cl  0  0  0  0  0  0  0  0  0  0  0  0
    7.6773    2.1566   11.3012 O   0  5  0  0  0  0  0  0  0  0  0  0
    7.2535    3.2864   10.8750 N   0  3  2  0  0  3  0  0  0  0  0  0
    5.6360    6.9757    9.4847 N   0  0  0  0  0  4  0  0  0  0  0  0
    5.1369    7.5735   10.1482 H   0  0  0  0  0  0  0  0  0  0  0  0
    6.5346    7.4159    9.2545 H   0  0  0  0  0  0  0  0  0  0  0  0
    7.0153    4.3126   11.8884 C   0  0  0  0  0  0  0  0  0  0  0  0
    6.8130    5.6942   11.2560 C   0  0  0  0  0  0  0  0  0  0  0  0
    7.7789    6.0783   10.9154 H   0  0  0  0  0  0  0  0  0  0  0  0
    6.4351    6.3690   12.0276 H   0  0  0  0  0  0  0  0  0  0  0  0
    5.8597    5.6444   10.0670 C   0  0  2  0  0  0  0  0  0  0  0  0
    4.8772    5.2665   10.3721 H   0  0  0  0  0  0  0  0  0  0  0  0
    6.4746    4.7263    9.0112 C   0  0  0  0  0  0  0  0  0  0  0  0
    7.4319    5.1517    8.6931 H   0  0  0  0  0  0  0  0  0  0  0  0
    5.8076    4.6741    8.1260 H   0  0  0  0  0  0  0  0  0  0  0  0
    6.6861    3.3005    9.5270 C   0  0  0  0  0  0  0  0  0  0  0  0
    8.2552    4.3502   12.7907 C   0  0  0  0  0  0  0  0  0  0  0  0
    9.1384    4.6079   12.2105 H   0  0  0  0  0  0  0  0  0  0  0  0
    8.1231    5.0839   13.5809 H   0  0  0  0  0  0  0  0  0  0  0  0
    8.4130    3.3705   13.2317 H   0  0  0  0  0  0  0  0  0  0  0  0
    5.7991    3.9045   12.7362 C   0  0  0  0  0  0  0  0  0  0  0  0
    5.9348    2.8799   13.0734 H   0  0  0  0  0  0  0  0  0  0  0  0
    5.7155    4.5508   13.6062 H   0  0  0  0  0  0  0  0  0  0  0  0
    4.8746    3.9618   12.1691 H   0  0  0  0  0  0  0  0  0  0  0  0
    7.6871    2.5807    8.6144 C   0  0  0  0  0  0  0  0  0  0  0  0
    7.8306    1.5619    8.9621 H   0  0  0  0  0  0  0  0  0  0  0  0
    7.3181    2.5653    7.5930 H   0  0  0  0  0  0  0  0  0  0  0  0
    8.6497    3.0865    8.6350 H   0  0  0  0  0  0  0  0  0  0  0  0
    5.3610    2.5197    9.5264 C   0  0  0  0  0  0  0  0  0  0  0  0
    5.4986    1.5825   10.0602 H   0  0  0  0  0  0  0  0  0  0  0  0
    4.5614    3.0811   10.0010 H   0  0  0  0  0  0  0  0  0  0  0  0
    5.0627    2.3000    8.5046 H   0  0  0  0  0  0  0  0  0  0  0  0
  1  2  1  0  0  0  0
  1 37  1  0  0  0  0
  4  3  1  6  0  0  0
  4 17  1  0  0  0  0
  5  7  1  0  0  0  0
  5  1  1  0  0  0  0
  6  5  1  0  0  0  0
  8  9  1  0  0  0  0
  8  4  1  0  0  0  0
  9 10  1  0  0  0  0
  9 12  1  0  0  0  0
 11  9  1  0  0  0  0
 12 13  1  6  0  0  0
 12  5  1  0  0  0  0
 12 14  1  0  0  0  0
 14 15  1  0  0  0  0
 14 16  1  0  0  0  0
 17 14  1  0  0  0  0
 17 26  1  0  0  0  0
 18 19  1  0  0  0  0
 18  8  1  0  0  0  0
 20 18  1  0  0  0  0
 21 18  1  0  0  0  0
 22 25  1  0  0  0  0
 22  8  1  0  0  0  0
 23 22  1  0  0  0  0
 24 22  1  0  0  0  0
 26 28  1  0  0  0  0
 27 26  1  0  0  0  0
 29 26  1  0  0  0  0
 30 17  1  0  0  0  0
 30 33  1  0  0  0  0
 31 30  1  0  0  0  0
 32 30  1  0  0  0  0
 34  1  1  0  0  0  0
 36 35  1  1  0  0  0
 36 40  1  0  0  0  0
 37 44  1  0  0  0  0
 37 38  1  0  0  0  0
 39 37  1  0  0  0  0
 40 54  1  0  0  0  0
 40 50  1  0  0  0  0
 41 40  1  0  0  0  0
 41 43  1  0  0  0  0
 42 41  1  0  0  0  0
 44 45  1  1  0  0  0
 44 41  1  0  0  0  0
 46 49  1  0  0  0  0
 46 44  1  0  0  0  0
 47 46  1  0  0  0  0
 48 46  1  0  0  0  0
 49 36  1  0  0  0  0
 50 53  1  0  0  0  0
 50 52  1  0  0  0  0
 51 50  1  0  0  0  0
 54 55  1  0  0  0  0
 54 56  1  0  0  0  0
 57 54  1  0  0  0  0
 58 61  1  0  0  0  0
 58 59  1  0  0  0  0
 58 49  1  0  0  0  0
 60 58  1  0  0  0  0
 62 49  1  0  0  0  0
 62 64  1  0  0  0  0
 62 63  1  0  0  0  0
 65 62  1  0  0  0  0
M  CHG  4   3  -1   4   1  35  -1  36   1
M  END
$$$$
