CSD_code = ORASIL | q = 0 | S = 0 | Stoichiometry = C19H20BrMnN2O3 | MND = 6
 OpenBabel04212202083D

 46 50  0  0  1  0  0  0  0  0999 V2000
    0.8059    0.4692    8.1856 Br  0  0  0  0  0  0  0  0  0  0  0  0
   -0.4173    1.4504   10.0818 Mn  0  0  0  0  0  0  0  0  0  0  0  0
   -1.3264    2.1936   11.4099 C   0  0  0  0  0  2  0  0  0  0  0  0
    0.9486    3.0712    9.9798 N   0  0  2  0  0  0  0  0  0  0  0  0
    0.8563   -0.3918   11.9748 O   0  0  0  0  0  1  0  0  0  0  0  0
   -2.3080   -0.7843    9.9555 O   0  0  0  0  0  1  0  0  0  0  0  0
   -1.3257    2.5971    8.6824 N   0  0  0  0  0  0  0  0  0  0  0  0
   -2.4538    2.3490    8.0200 C   0  0  0  0  0  3  0  0  0  0  0  0
   -3.0229    1.4816    8.3296 H   0  0  0  0  0  0  0  0  0  0  0  0
   -2.9041    3.1331    6.9731 C   0  0  0  0  0  0  0  0  0  0  0  0
   -3.8226    2.8760    6.4709 H   0  0  0  0  0  0  0  0  0  0  0  0
   -2.1576    4.2375    6.5816 C   0  0  0  0  0  0  0  0  0  0  0  0
   -2.4806    4.8632    5.7643 H   0  0  0  0  0  0  0  0  0  0  0  0
   -0.9895    4.5100    7.2638 C   0  0  0  0  0  0  0  0  0  0  0  0
   -0.3676    5.3512    6.9996 H   0  0  0  0  0  0  0  0  0  0  0  0
   -0.6014    3.6698    8.3086 C   0  0  0  0  0  0  0  0  0  0  0  0
    0.6151    3.8898    9.0548 C   0  0  0  0  0  3  0  0  0  0  0  0
    1.2038    4.7587    8.7772 H   0  0  0  0  0  0  0  0  0  0  0  0
    2.1700    3.2738   10.7474 C   0  0  1  0  0  0  0  0  0  0  0  0
    1.7881    3.2893   12.2369 C   0  0  0  0  0  0  0  0  0  0  0  0
    1.1305    4.1413   12.4314 H   0  0  0  0  0  0  0  0  0  0  0  0
    1.2386    2.3775   12.4866 H   0  0  0  0  0  0  0  0  0  0  0  0
    3.0438    3.3857   13.1004 C   0  0  1  0  0  0  0  0  0  0  0  0
    2.7466    3.3817   14.1543 H   0  0  0  0  0  0  0  0  0  0  0  0
    3.9509    2.1893   12.8185 C   0  0  0  0  0  0  0  0  0  0  0  0
    3.4255    1.2616   13.0530 H   0  0  0  0  0  0  0  0  0  0  0  0
    4.8397    2.2414   13.4503 H   0  0  0  0  0  0  0  0  0  0  0  0
    4.3578    2.1991   11.3460 C   0  0  1  0  0  0  0  0  0  0  0  0
    5.0059    1.3418   11.1387 H   0  0  0  0  0  0  0  0  0  0  0  0
    3.1138    2.0914   10.4689 C   0  0  0  0  0  0  0  0  0  0  0  0
    2.6009    1.1506   10.6762 H   0  0  0  0  0  0  0  0  0  0  0  0
    3.3907    2.0908    9.4118 H   0  0  0  0  0  0  0  0  0  0  0  0
    5.1002    3.4942   11.0253 C   0  0  0  0  0  0  0  0  0  0  0  0
    5.4093    3.4979    9.9777 H   0  0  0  0  0  0  0  0  0  0  0  0
    5.9990    3.5729   11.6398 H   0  0  0  0  0  0  0  0  0  0  0  0
    4.1761    4.6773   11.3045 C   0  0  2  0  0  0  0  0  0  0  0  0
    4.6930    5.6123   11.0602 H   0  0  0  0  0  0  0  0  0  0  0  0
    3.7823    4.6830   12.7794 C   0  0  0  0  0  0  0  0  0  0  0  0
    3.1417    5.5417   12.9945 H   0  0  0  0  0  0  0  0  0  0  0  0
    4.6754    4.7684   13.4010 H   0  0  0  0  0  0  0  0  0  0  0  0
    2.9251    4.5716   10.4285 C   0  0  0  0  0  0  0  0  0  0  0  0
    2.2827    5.4377   10.6150 H   0  0  0  0  0  0  0  0  0  0  0  0
    3.2367    4.5806    9.3805 H   0  0  0  0  0  0  0  0  0  0  0  0
    0.4346    0.3817   11.2326 C   0  0  0  0  0  2  0  0  0  0  0  0
   -1.5890    0.1112    9.9812 C   0  0  0  0  0  2  0  0  0  0  0  0
   -1.9308    2.6390   12.2825 O   0  0  0  0  0  1  0  0  0  0  0  0
  1  2  1  0  0  0  0
  2 44  1  0  0  0  0
  2  3  1  0  0  0  0
  3 46  1  0  0  0  0
  4 17  1  6  0  0  0
  4  2  1  0  0  0  0
  4 19  1  0  0  0  0
  6 45  1  0  0  0  0
  7  2  1  0  0  0  0
  8  9  1  0  0  0  0
  8  7  1  0  0  0  0
 10  8  1  0  0  0  0
 11 10  1  0  0  0  0
 12 10  2  0  0  0  0
 12 14  1  0  0  0  0
 13 12  1  0  0  0  0
 14 16  2  0  0  0  0
 15 14  1  0  0  0  0
 16  7  1  0  0  0  0
 16 17  1  0  0  0  0
 18 17  1  0  0  0  0
 19 41  1  6  0  0  0
 19 20  1  0  0  0  0
 20 21  1  0  0  0  0
 20 22  1  0  0  0  0
 20 23  1  0  0  0  0
 23 24  1  1  0  0  0
 25 26  1  0  0  0  0
 25 23  1  0  0  0  0
 25 27  1  0  0  0  0
 28 29  1  6  0  0  0
 28 25  1  0  0  0  0
 30 31  1  0  0  0  0
 30 19  1  0  0  0  0
 30 28  1  0  0  0  0
 32 30  1  0  0  0  0
 33 36  1  0  0  0  0
 33 28  1  0  0  0  0
 33 35  1  0  0  0  0
 34 33  1  0  0  0  0
 36 37  1  6  0  0  0
 36 38  1  0  0  0  0
 38 39  1  0  0  0  0
 38 23  1  0  0  0  0
 38 40  1  0  0  0  0
 41 42  1  0  0  0  0
 41 36  1  0  0  0  0
 43 41  1  0  0  0  0
 44  5  1  0  0  0  0
 45  2  1  0  0  0  0
M  END
$$$$
