CSD_code = ORATAE | q = 0 | S = 0 | Stoichiometry = C20H19BrMnN5O3 | MND = 6
 OpenBabel04212202083D

 49 54  0  0  1  0  0  0  0  0999 V2000
    4.4727    5.7338    1.7658 Br  0  0  0  0  0  0  0  0  0  0  0  0
    3.0368    6.4925    3.6294 Mn  0  0  0  0  0  0  0  0  0  0  0  0
    1.4275    6.0877    2.3579 N   0  0  1  0  0  0  0  0  0  0  0  0
    2.7220    4.4524    4.0492 N   0  0  0  0  0  0  0  0  0  0  0  0
    1.4263    7.3569    5.9118 O   0  0  0  0  0  1  0  0  0  0  0  0
    5.6484    6.8827    4.9029 O   0  0  0  0  0  1  0  0  0  0  0  0
    3.5541    9.3287    3.1190 O   0  0  0  0  0  1  0  0  0  0  0  0
    0.8888    8.6781   -0.2493 N   0  0  2  0  0  0  0  0  0  0  0  0
   -1.1586    7.4264   -0.0493 N   0  0  2  0  0  0  0  0  0  0  0  0
   -0.6014    9.1008    1.5953 N   0  0  1  0  0  0  0  0  0  0  0  0
    0.6851    6.9947    1.5359 C   0  0  1  0  0  0  0  0  0  0  0  0
   -0.4824    6.3907    0.7147 C   0  0  0  0  0  0  0  0  0  0  0  0
   -0.1189    5.6502   -0.0050 H   0  0  0  0  0  0  0  0  0  0  0  0
   -1.2161    5.9188    1.3778 H   0  0  0  0  0  0  0  0  0  0  0  0
    1.2561    4.8164    2.2377 C   0  0  0  0  0  3  0  0  0  0  0  0
    0.5742    4.3748    1.5182 H   0  0  0  0  0  0  0  0  0  0  0  0
    0.0718    8.1193    2.4169 C   0  0  0  0  0  0  0  0  0  0  0  0
   -0.6521    7.6861    3.1146 H   0  0  0  0  0  0  0  0  0  0  0  0
    0.8539    8.6195    2.9969 H   0  0  0  0  0  0  0  0  0  0  0  0
    1.9723    3.9077    3.0912 C   0  0  0  0  0  0  0  0  0  0  0  0
    3.3188    3.6305    4.9499 C   0  0  2  0  0  3  0  0  0  0  0  0
    1.6235    7.6870    0.4980 C   0  0  0  0  0  0  0  0  0  0  0  0
    2.4606    8.1738    1.0033 H   0  0  0  0  0  0  0  0  0  0  0  0
    2.0264    6.9380   -0.1899 H   0  0  0  0  0  0  0  0  0  0  0  0
    0.3470    9.6826    0.6541 C   0  0  0  0  0  0  0  0  0  0  0  0
   -0.1657   10.4473    0.0661 H   0  0  0  0  0  0  0  0  0  0  0  0
    1.1654   10.1450    1.2107 H   0  0  0  0  0  0  0  0  0  0  0  0
    4.6040    6.6755    4.4734 C   0  0  0  0  0  2  0  0  0  0  0  0
    2.0482    6.9916    5.0137 C   0  0  0  0  0  2  0  0  0  0  0  0
    3.2988    8.2101    3.2390 C   0  0  0  0  0  2  0  0  0  0  0  0
    3.2739    2.2134    4.8043 C   0  0  0  0  0  0  0  0  0  0  0  0
   -0.2093    8.0476   -0.9643 C   0  0  0  0  0  0  0  0  0  0  0  0
   -0.7331    8.8049   -1.5520 H   0  0  0  0  0  0  0  0  0  0  0  0
    0.1914    7.2863   -1.6385 H   0  0  0  0  0  0  0  0  0  0  0  0
   -1.6694    8.4537    0.8469 C   0  0  0  0  0  0  0  0  0  0  0  0
   -2.3737    7.9995    1.5492 H   0  0  0  0  0  0  0  0  0  0  0  0
   -2.1935    9.2069    0.2542 H   0  0  0  0  0  0  0  0  0  0  0  0
    3.9472    1.3998    5.7339 C   0  0  0  0  0  0  0  0  0  0  0  0
    3.9174    0.3291    5.5947 H   0  0  0  0  0  0  0  0  0  0  0  0
    2.5336    1.6706    3.7310 C   0  0  0  0  0  0  0  0  0  0  0  0
    2.5039    0.6001    3.5939 H   0  0  0  0  0  0  0  0  0  0  0  0
    1.8524    2.5119    2.9049 C   0  0  0  0  0  0  0  0  0  0  0  0
    1.2483    2.1438    2.0906 H   0  0  0  0  0  0  0  0  0  0  0  0
    4.6123    1.9519    6.7939 C   0  0  0  0  0  0  0  0  0  0  0  0
    5.1291    1.3234    7.5028 H   0  0  0  0  0  0  0  0  0  0  0  0
    3.9792    4.1619    6.0771 C   0  0  0  0  0  0  0  0  0  0  0  0
    3.9577    5.2312    6.2362 H   0  0  0  0  0  0  0  0  0  0  0  0
    4.6085    3.3424    6.9738 C   0  0  0  0  0  0  0  0  0  0  0  0
    5.1061    3.7690    7.8312 H   0  0  0  0  0  0  0  0  0  0  0  0
  1  2  1  0  0  0  0
  2  4  1  0  0  0  0
  2 28  1  0  0  0  0
  2 29  1  0  0  0  0
  3 15  1  6  0  0  0
  3  2  1  0  0  0  0
  4 21  1  0  0  0  0
  7 30  1  0  0  0  0
  8 32  1  1  0  0  0
  8 22  1  0  0  0  0
  8 25  1  0  0  0  0
  9 32  1  6  0  0  0
  9 12  1  0  0  0  0
  9 35  1  0  0  0  0
 10 25  1  6  0  0  0
 10 17  1  0  0  0  0
 11 22  1  6  0  0  0
 11  3  1  0  0  0  0
 11 17  1  0  0  0  0
 12 14  1  0  0  0  0
 12 11  1  0  0  0  0
 13 12  1  0  0  0  0
 15 20  1  0  0  0  0
 16 15  1  0  0  0  0
 17 19  1  0  0  0  0
 17 18  1  0  0  0  0
 20  4  1  0  0  0  0
 21 31  1  1  0  0  0
 21 46  1  0  0  0  0
 22 23  1  0  0  0  0
 24 22  1  0  0  0  0
 25 27  1  0  0  0  0
 26 25  1  0  0  0  0
 28  6  1  0  0  0  0
 29  5  1  0  0  0  0
 30  2  1  0  0  0  0
 31 38  1  0  0  0  0
 33 32  1  0  0  0  0
 34 32  1  0  0  0  0
 35 36  1  0  0  0  0
 35 10  1  0  0  0  0
 37 35  1  0  0  0  0
 38 44  2  0  0  0  0
 39 38  1  0  0  0  0
 40 31  2  0  0  0  0
 41 40  1  0  0  0  0
 42 20  2  0  0  0  0
 42 40  1  0  0  0  0
 43 42  1  0  0  0  0
 44 48  1  0  0  0  0
 44 45  1  0  0  0  0
 46 47  1  0  0  0  0
 46 48  2  0  0  0  0
 48 49  1  0  0  0  0
M  END
$$$$
