CSD_code = ORECUK | q = 0 | S = 0 | Stoichiometry = C30H30ClN2PPd | MND = 4
 OpenBabel04212202083D

 65 69  0  0  1  0  0  0  0  0999 V2000
    2.6339    5.2684    2.0721 Pd  0  0  1  0  0  0  0  0  0  0  0  0
    3.6870    6.6895    1.1487 C   0  0  0  0  0  0  0  0  0  0  0  0
    3.3068    8.0263    0.9286 C   0  0  0  0  0  0  0  0  0  0  0  0
    2.4102    8.4178    1.4004 H   0  0  0  0  0  0  0  0  0  0  0  0
    4.0525    8.8409    0.1215 C   0  0  0  0  0  0  0  0  0  0  0  0
    3.7524    9.8659   -0.0488 H   0  0  0  0  0  0  0  0  0  0  0  0
    5.2261    8.3698   -0.5001 C   0  0  0  0  0  0  0  0  0  0  0  0
    6.0173    9.2120   -1.3084 C   0  0  0  0  0  0  0  0  0  0  0  0
    5.7046   10.2383   -1.4420 H   0  0  0  0  0  0  0  0  0  0  0  0
    7.1538    8.7480   -1.9066 C   0  0  0  0  0  0  0  0  0  0  0  0
    7.7553    9.3992   -2.5238 H   0  0  0  0  0  0  0  0  0  0  0  0
    7.5491    7.4158   -1.7162 C   0  0  0  0  0  0  0  0  0  0  0  0
    8.4545    7.0595   -2.1861 H   0  0  0  0  0  0  0  0  0  0  0  0
    6.8032    6.5721   -0.9421 C   0  0  0  0  0  0  0  0  0  0  0  0
    7.1363    5.5550   -0.8003 H   0  0  0  0  0  0  0  0  0  0  0  0
    5.6177    7.0148   -0.3135 C   0  0  0  0  0  0  0  0  0  0  0  0
    4.7992    6.1902    0.4968 C   0  0  0  0  0  0  0  0  0  0  0  0
    5.0682    4.7204    0.7403 C   0  0  1  0  0  0  0  0  0  0  0  0
    5.6655    4.2602   -0.0618 H   0  0  0  0  0  0  0  0  0  0  0  0
    5.8123    4.5986    2.0758 C   0  0  0  0  0  0  0  0  0  0  0  0
    6.6395    5.3052    2.0888 H   0  0  0  0  0  0  0  0  0  0  0  0
    6.2157    3.6027    2.2409 H   0  0  0  0  0  0  0  0  0  0  0  0
    5.1288    4.8579    2.8998 H   0  0  0  0  0  0  0  0  0  0  0  0
    3.0975    4.0702   -0.5141 C   0  0  0  0  0  0  0  0  0  0  0  0
    3.6350    3.4314   -1.2295 H   0  0  0  0  0  0  0  0  0  0  0  0
    3.0721    5.0887   -0.9100 H   0  0  0  0  0  0  0  0  0  0  0  0
    2.0726    3.6992   -0.4146 H   0  0  0  0  0  0  0  0  0  0  0  0
    3.8660    2.6549    1.2306 C   0  0  0  0  0  0  0  0  0  0  0  0
    2.8871    2.1769    1.1766 H   0  0  0  0  0  0  0  0  0  0  0  0
    4.2030    2.5999    2.2664 H   0  0  0  0  0  0  0  0  0  0  0  0
    4.5671    2.1050    0.5882 H   0  0  0  0  0  0  0  0  0  0  0  0
    1.5489    5.6423    5.2057 C   0  0  0  0  0  0  0  0  0  0  0  0
    1.3545    6.3553    6.0108 H   0  0  0  0  0  0  0  0  0  0  0  0
    0.7927    4.8545    5.1727 H   0  0  0  0  0  0  0  0  0  0  0  0
    2.9101    5.0579    5.2720 C   0  0  0  0  0  0  0  0  0  0  0  0
    3.0698    4.1782    4.6460 H   0  0  0  0  0  0  0  0  0  0  0  0
    3.9213    5.5695    5.9811 C   0  0  0  0  0  0  0  0  0  0  0  0
    3.7973    6.4348    6.6207 H   0  0  0  0  0  0  0  0  0  0  0  0
    5.2141    5.0194    5.9332 C   0  0  0  0  0  0  0  0  0  0  0  0
    2.1060    8.1357    4.0603 C   0  0  0  0  0  0  0  0  0  0  0  0
    1.2562    9.1794    4.4008 C   0  0  0  0  0  0  0  0  0  0  0  0
    0.1855    9.0531    4.3232 H   0  0  0  0  0  0  0  0  0  0  0  0
    1.7864   10.3862    4.8244 C   0  0  0  0  0  0  0  0  0  0  0  0
    1.1254   11.1998    5.0853 H   0  0  0  0  0  0  0  0  0  0  0  0
    3.1586   10.5533    4.9116 C   0  0  0  0  0  0  0  0  0  0  0  0
    3.5660   11.4969    5.2430 H   0  0  0  0  0  0  0  0  0  0  0  0
    4.0095    9.5158    4.5627 C   0  0  0  0  0  0  0  0  0  0  0  0
    5.0796    9.6492    4.6185 H   0  0  0  0  0  0  0  0  0  0  0  0
    3.4850    8.3122    4.1324 C   0  0  0  0  0  0  0  0  0  0  0  0
    4.1356    7.5000    3.8242 H   0  0  0  0  0  0  0  0  0  0  0  0
   -0.2067    6.6505    3.0666 C   0  0  0  0  0  0  0  0  0  0  0  0
   -0.4583    6.4878    1.7058 C   0  0  0  0  0  0  0  0  0  0  0  0
    0.3813    6.2757    1.0340 H   0  0  0  0  0  0  0  0  0  0  0  0
   -1.7528    6.5651    1.2287 C   0  0  0  0  0  0  0  0  0  0  0  0
   -1.9528    6.4342    0.1754 H   0  0  0  0  0  0  0  0  0  0  0  0
   -2.7981    6.7971    2.1094 C   0  0  0  0  0  0  0  0  0  0  0  0
   -3.8114    6.8500    1.7396 H   0  0  0  0  0  0  0  0  0  0  0  0
   -2.5514    6.9440    3.4648 C   0  0  0  0  0  0  0  0  0  0  0  0
   -3.3720    7.1085    4.1477 H   0  0  0  0  0  0  0  0  0  0  0  0
   -1.2572    6.8698    3.9495 C   0  0  0  0  0  0  0  0  0  0  0  0
   -1.0660    6.9659    5.0095 H   0  0  0  0  0  0  0  0  0  0  0  0
    1.1580    3.5602    2.7816 Cl  0  0  0  0  0  0  0  0  0  0  0  0
    3.7475    4.0465    0.7982 N   0  0  0  0  0  4  0  0  0  0  0  0
    6.2740    4.5823    5.8770 N   0  0  0  0  0  0  0  0  0  0  0  0
    1.5301    6.4859    3.5432 P   0  0  0  0  0  4  0  0  0  0  0  0
  1 62  1  6  0  0  0
  1 65  1  0  0  0  0
  2  1  1  0  0  0  0
  3  2  1  0  0  0  0
  3  4  1  0  0  0  0
  5  3  2  0  0  0  0
  6  5  1  0  0  0  0
  7 16  1  0  0  0  0
  7  5  1  0  0  0  0
  8  7  2  0  0  0  0
  9  8  1  0  0  0  0
 10 12  2  0  0  0  0
 10  8  1  0  0  0  0
 11 10  1  0  0  0  0
 12 14  1  0  0  0  0
 13 12  1  0  0  0  0
 14 15  1  0  0  0  0
 14 16  2  0  0  0  0
 16 17  1  0  0  0  0
 17 18  1  0  0  0  0
 17  2  2  0  0  0  0
 18 19  1  6  0  0  0
 18 63  1  0  0  0  0
 18 20  1  0  0  0  0
 20 21  1  0  0  0  0
 20 22  1  0  0  0  0
 20 23  1  0  0  0  0
 24 27  1  0  0  0  0
 24 63  1  0  0  0  0
 25 24  1  0  0  0  0
 26 24  1  0  0  0  0
 28 30  1  0  0  0  0
 29 28  1  0  0  0  0
 31 28  1  0  0  0  0
 32 35  1  0  0  0  0
 32 33  1  0  0  0  0
 34 32  1  0  0  0  0
 35 37  2  0  0  0  0
 36 35  1  0  0  0  0
 37 38  1  0  0  0  0
 39 37  1  0  0  0  0
 40 49  2  0  0  0  0
 40 41  1  0  0  0  0
 41 43  2  0  0  0  0
 42 41  1  0  0  0  0
 43 45  1  0  0  0  0
 43 44  1  0  0  0  0
 45 46  1  0  0  0  0
 47 48  1  0  0  0  0
 47 45  2  0  0  0  0
 49 47  1  0  0  0  0
 50 49  1  0  0  0  0
 51 65  1  0  0  0  0
 51 60  1  0  0  0  0
 52 51  2  0  0  0  0
 53 52  1  0  0  0  0
 54 52  1  0  0  0  0
 54 56  2  0  0  0  0
 55 54  1  0  0  0  0
 56 58  1  0  0  0  0
 57 56  1  0  0  0  0
 58 60  2  0  0  0  0
 58 59  1  0  0  0  0
 60 61  1  0  0  0  0
 63 28  1  0  0  0  0
 63  1  1  0  0  0  0
 64 39  3  0  0  0  0
 65 40  1  0  0  0  0
 65 32  1  0  0  0  0
M  END
$$$$
