CSD_code = ORIQIQ | q = 0 | S = 0 | Stoichiometry = C23H28Cl2NPPt | MND = 4
 OpenBabel04212202083D

 56 58  0  0  1  0  0  0  0  0999 V2000
    7.0803   20.2665    4.8267 Pt  0  0  0  0  0  0  0  0  0  0  0  0
    6.3233   22.2028    5.6900 P   0  0  0  0  0  4  0  0  0  0  0  0
    7.7197   18.3982    4.0639 N   0  0  0  0  0  4  0  0  0  0  0  0
    7.1333   17.7096    4.5431 H   0  0  0  0  0  0  0  0  0  0  0  0
    7.5211   18.3519    3.0634 H   0  0  0  0  0  0  0  0  0  0  0  0
    5.5677   19.0737    6.1442 Cl  0  0  0  0  0  0  0  0  0  0  0  0
    8.5355   21.3302    3.3865 Cl  0  0  0  0  0  0  0  0  0  0  0  0
    9.1385   18.1064    4.3023 C   0  0  0  0  0  0  0  0  0  0  0  0
    9.3598   17.0625    4.0472 H   0  0  0  0  0  0  0  0  0  0  0  0
    9.7263   18.7636    3.6557 H   0  0  0  0  0  0  0  0  0  0  0  0
    9.5115   18.3858    5.7631 C   0  0  2  0  0  0  0  0  0  0  0  0
    9.1251   19.3953    5.9953 H   0  0  0  0  0  0  0  0  0  0  0  0
   11.0330   18.4435    5.9467 C   0  0  0  0  0  0  0  0  0  0  0  0
   11.4299   19.2288    5.2997 H   0  0  0  0  0  0  0  0  0  0  0  0
   11.2412   18.7337    6.9789 H   0  0  0  0  0  0  0  0  0  0  0  0
   11.7615   17.1373    5.6483 C   0  0  0  0  0  0  0  0  0  0  0  0
   11.3986   16.3339    6.2837 H   0  0  0  0  0  0  0  0  0  0  0  0
   12.8258   17.2598    5.8358 H   0  0  0  0  0  0  0  0  0  0  0  0
   11.6362   16.8454    4.6089 H   0  0  0  0  0  0  0  0  0  0  0  0
    8.8471   17.3887    6.7112 C   0  0  0  0  0  0  0  0  0  0  0  0
    7.7709   17.5459    6.7417 H   0  0  0  0  0  0  0  0  0  0  0  0
    9.2287   17.5211    7.7208 H   0  0  0  0  0  0  0  0  0  0  0  0
    9.0415   16.3634    6.4029 H   0  0  0  0  0  0  0  0  0  0  0  0
    4.5096   22.2077    5.7248 C   0  0  0  0  0  0  0  0  0  0  0  0
    3.7506   22.6930    6.7803 C   0  0  0  0  0  0  0  0  0  0  0  0
    4.2363   23.0991    7.6560 H   0  0  0  0  0  0  0  0  0  0  0  0
    2.3687   22.6363    6.7115 C   0  0  0  0  0  0  0  0  0  0  0  0
    1.7763   23.0074    7.5352 H   0  0  0  0  0  0  0  0  0  0  0  0
    1.7454   22.0991    5.5978 C   0  0  0  0  0  0  0  0  0  0  0  0
    0.6673   22.0535    5.5535 H   0  0  0  0  0  0  0  0  0  0  0  0
    2.5021   21.6074    4.5450 C   0  0  0  0  0  0  0  0  0  0  0  0
    2.0151   21.1775    3.6821 H   0  0  0  0  0  0  0  0  0  0  0  0
    3.8807   21.6580    4.6100 C   0  0  0  0  0  0  0  0  0  0  0  0
    4.4944   21.2604    3.8071 H   0  0  0  0  0  0  0  0  0  0  0  0
    6.7517   23.7511    4.8420 C   0  0  0  0  0  0  0  0  0  0  0  0
    5.8360   24.4758    4.0902 C   0  0  0  0  0  0  0  0  0  0  0  0
    4.8090   24.1447    4.0219 H   0  0  0  0  0  0  0  0  0  0  0  0
    6.2426   25.6226    3.4295 C   0  0  0  0  0  0  0  0  0  0  0  0
    5.5288   26.1856    2.8459 H   0  0  0  0  0  0  0  0  0  0  0  0
    7.5590   26.0432    3.5096 C   0  0  0  0  0  0  0  0  0  0  0  0
    7.8730   26.9347    2.9869 H   0  0  0  0  0  0  0  0  0  0  0  0
    8.4765   25.3171    4.2537 C   0  0  0  0  0  0  0  0  0  0  0  0
    9.5055   25.6400    4.3085 H   0  0  0  0  0  0  0  0  0  0  0  0
    8.0766   24.1738    4.9166 C   0  0  0  0  0  0  0  0  0  0  0  0
    8.7856   23.5908    5.4891 H   0  0  0  0  0  0  0  0  0  0  0  0
    6.8618   22.5227    7.3940 C   0  0  0  0  0  0  0  0  0  0  0  0
    6.7741   23.7931    7.9575 C   0  0  0  0  0  0  0  0  0  0  0  0
    6.3928   24.6174    7.3696 H   0  0  0  0  0  0  0  0  0  0  0  0
    7.1844   23.9957    9.2623 C   0  0  0  0  0  0  0  0  0  0  0  0
    7.1145   24.9807    9.7005 H   0  0  0  0  0  0  0  0  0  0  0  0
    7.6867   22.9393   10.0067 C   0  0  0  0  0  0  0  0  0  0  0  0
    8.0078   23.1044   11.0246 H   0  0  0  0  0  0  0  0  0  0  0  0
    7.7802   21.6760    9.4464 C   0  0  0  0  0  0  0  0  0  0  0  0
    8.1740   20.8545   10.0263 H   0  0  0  0  0  0  0  0  0  0  0  0
    7.3692   21.4664    8.1422 C   0  0  0  0  0  0  0  0  0  0  0  0
    7.4281   20.4828    7.6921 H   0  0  0  0  0  0  0  0  0  0  0  0
  1  2  1  0  0  0  0
  1  6  1  0  0  0  0
  2 24  1  0  0  0  0
  2 46  1  0  0  0  0
  3  8  1  0  0  0  0
  3  4  1  0  0  0  0
  3  1  1  0  0  0  0
  5  3  1  0  0  0  0
  7  1  1  0  0  0  0
  8 11  1  0  0  0  0
  9  8  1  0  0  0  0
 10  8  1  0  0  0  0
 11 13  1  0  0  0  0
 11 12  1  1  0  0  0
 11 20  1  0  0  0  0
 13 15  1  0  0  0  0
 14 13  1  0  0  0  0
 16 18  1  0  0  0  0
 16 13  1  0  0  0  0
 16 17  1  0  0  0  0
 19 16  1  0  0  0  0
 20 21  1  0  0  0  0
 20 22  1  0  0  0  0
 23 20  1  0  0  0  0
 24 25  1  0  0  0  0
 25 26  1  0  0  0  0
 27 25  2  0  0  0  0
 27 28  1  0  0  0  0
 29 27  1  0  0  0  0
 30 29  1  0  0  0  0
 31 33  1  0  0  0  0
 31 29  2  0  0  0  0
 32 31  1  0  0  0  0
 33 24  2  0  0  0  0
 34 33  1  0  0  0  0
 35 44  1  0  0  0  0
 35  2  1  0  0  0  0
 36 35  2  0  0  0  0
 37 36  1  0  0  0  0
 38 40  2  0  0  0  0
 38 36  1  0  0  0  0
 39 38  1  0  0  0  0
 40 42  1  0  0  0  0
 41 40  1  0  0  0  0
 42 43  1  0  0  0  0
 42 44  2  0  0  0  0
 44 45  1  0  0  0  0
 46 47  2  0  0  0  0
 46 55  1  0  0  0  0
 47 49  1  0  0  0  0
 48 47  1  0  0  0  0
 49 50  1  0  0  0  0
 49 51  2  0  0  0  0
 51 52  1  0  0  0  0
 53 51  1  0  0  0  0
 53 54  1  0  0  0  0
 55 53  2  0  0  0  0
 56 55  1  0  0  0  0
M  END
$$$$
