CSD_code = ORIZIZ | q = 1 | S = 0 | Stoichiometry = C10H20ClRuS5(1+) | MND = 6
 OpenBabel04212202083D

 37 41  0  0  0  0  0  0  0  0999 V2000
    2.9310    6.8392    9.6550 Ru  0  0  0  0  0  0  0  0  0  0  0  0
    3.9917    8.0736    7.9277 Cl  0  0  0  0  0  0  0  0  0  0  0  0
    2.0222    5.7644   11.4994 S   0  0  2  0  0  3  0  0  0  0  0  0
    3.1379    4.8835    8.3884 S   0  0  1  0  0  3  0  0  0  0  0  0
    2.5671    8.9108   10.6727 S   0  0  2  0  0  3  0  0  0  0  0  0
    5.0785    6.5173   10.5188 S   0  0  1  0  0  3  0  0  0  0  0  0
    0.8882    7.0237    8.5349 S   0  0  1  0  0  3  0  0  0  0  0  0
    4.7664    5.9307   12.2275 C   0  0  0  0  0  0  0  0  0  0  0  0
    5.6330    5.3402   12.5250 H   0  0  0  0  0  0  0  0  0  0  0  0
    4.7540    6.8495   12.8153 H   0  0  0  0  0  0  0  0  0  0  0  0
    0.8557    8.8603    8.4942 C   0  0  0  0  0  0  0  0  0  0  0  0
    1.7127    9.1934    7.9052 H   0  0  0  0  0  0  0  0  0  0  0  0
   -0.0803    9.1735    8.0309 H   0  0  0  0  0  0  0  0  0  0  0  0
    1.3789    7.1403   12.5293 C   0  0  0  0  0  0  0  0  0  0  0  0
    0.3407    7.2168   12.2013 H   0  0  0  0  0  0  0  0  0  0  0  0
    1.3915    6.7989   13.5639 H   0  0  0  0  0  0  0  0  0  0  0  0
    2.5575    5.5276    6.7649 C   0  0  0  0  0  0  0  0  0  0  0  0
    3.4320    5.9809    6.3022 H   0  0  0  0  0  0  0  0  0  0  0  0
    2.2456    4.6491    6.2003 H   0  0  0  0  0  0  0  0  0  0  0  0
    2.0985    8.4649   12.3882 C   0  0  0  0  0  0  0  0  0  0  0  0
    3.0501    8.4633   12.9213 H   0  0  0  0  0  0  0  0  0  0  0  0
    1.4865    9.2804   12.7735 H   0  0  0  0  0  0  0  0  0  0  0  0
    1.4219    6.5516    6.8374 C   0  0  0  0  0  0  0  0  0  0  0  0
    0.5235    6.1656    6.3562 H   0  0  0  0  0  0  0  0  0  0  0  0
    1.7329    7.4785    6.3594 H   0  0  0  0  0  0  0  0  0  0  0  0
    0.9459    9.3696    9.9187 C   0  0  0  0  0  0  0  0  0  0  0  0
    0.1518    8.9514   10.5369 H   0  0  0  0  0  0  0  0  0  0  0  0
    0.8975   10.4589    9.9360 H   0  0  0  0  0  0  0  0  0  0  0  0
    5.5577    4.9654    9.6416 C   0  0  0  0  0  0  0  0  0  0  0  0
    6.6472    4.9641    9.5940 H   0  0  0  0  0  0  0  0  0  0  0  0
    5.2093    4.1181   10.2318 H   0  0  0  0  0  0  0  0  0  0  0  0
    4.9691    4.9390    8.2454 C   0  0  0  0  0  0  0  0  0  0  0  0
    5.2953    4.0496    7.7058 H   0  0  0  0  0  0  0  0  0  0  0  0
    5.2307    5.8452    7.6952 H   0  0  0  0  0  0  0  0  0  0  0  0
    3.4891    5.1376   12.4067 C   0  0  0  0  0  0  0  0  0  0  0  0
    3.2130    5.0769   13.4589 H   0  0  0  0  0  0  0  0  0  0  0  0
    3.5947    4.1238   12.0161 H   0  0  0  0  0  0  0  0  0  0  0  0
  1  6  1  0  0  0  0
  1  5  1  0  0  0  0
  1  3  1  0  0  0  0
  2  1  1  0  0  0  0
  3 35  1  1  0  0  0
  3 14  1  0  0  0  0
  4 17  1  6  0  0  0
  4  1  1  0  0  0  0
  5 26  1  6  0  0  0
  5 20  1  0  0  0  0
  6 29  1  6  0  0  0
  6  8  1  0  0  0  0
  7 23  1  6  0  0  0
  7  1  1  0  0  0  0
  8 35  1  0  0  0  0
  8  9  1  0  0  0  0
  8 10  1  0  0  0  0
 11  7  1  0  0  0  0
 11 26  1  0  0  0  0
 12 11  1  0  0  0  0
 13 11  1  0  0  0  0
 14 16  1  0  0  0  0
 15 14  1  0  0  0  0
 17 23  1  0  0  0  0
 18 17  1  0  0  0  0
 19 17  1  0  0  0  0
 20 14  1  0  0  0  0
 20 22  1  0  0  0  0
 20 21  1  0  0  0  0
 24 23  1  0  0  0  0
 25 23  1  0  0  0  0
 26 28  1  0  0  0  0
 26 27  1  0  0  0  0
 29 31  1  0  0  0  0
 30 29  1  0  0  0  0
 32  4  1  0  0  0  0
 32 29  1  0  0  0  0
 33 32  1  0  0  0  0
 34 32  1  0  0  0  0
 35 36  1  0  0  0  0
 37 35  1  0  0  0  0
M  END
$$$$
