CSD_code = ORODEF | q = 0 | S = 0 | Stoichiometry = C17H27BrNNiO2P | MND = 4
 OpenBabel04212202083D

 50 53  0  0  0  0  0  0  0  0999 V2000
    3.2125    2.0330    2.8834 Ni  0  0  2  0  0  0  0  0  0  0  0  0
    5.1678    1.1596    2.2920 Br  0  0  0  0  0  0  0  0  0  0  0  0
    2.1979    1.0846    1.3122 P   0  0  0  0  0  4  0  0  0  0  0  0
    0.6459    1.6009    1.3234 O   0  0  0  0  0  0  0  0  0  0  0  0
    5.9106    5.0868    5.4024 O   0  0  0  0  0  0  0  0  0  0  0  0
    3.7713    3.3522    4.4599 N   0  0  0  0  0  4  0  0  0  0  0  0
    1.5128    2.6967    3.2325 C   0  0  0  0  0  0  0  0  0  0  0  0
    0.4210    2.4483    2.4009 C   0  0  0  0  0  0  0  0  0  0  0  0
   -0.8174    3.0089    2.6466 C   0  0  0  0  0  0  0  0  0  0  0  0
   -1.6482    2.7997    1.9908 H   0  0  0  0  0  0  0  0  0  0  0  0
   -0.9607    3.8393    3.7502 C   0  0  0  0  0  0  0  0  0  0  0  0
   -1.9215    4.2880    3.9526 H   0  0  0  0  0  0  0  0  0  0  0  0
    0.1069    4.0950    4.5919 C   0  0  0  0  0  0  0  0  0  0  0  0
   -0.0213    4.7388    5.4508 H   0  0  0  0  0  0  0  0  0  0  0  0
    1.3483    3.5222    4.3396 C   0  0  0  0  0  0  0  0  0  0  0  0
    2.5517    3.7020    5.2238 C   0  0  0  0  0  0  0  0  0  0  0  0
    2.5924    4.7194    5.6287 H   0  0  0  0  0  0  0  0  0  0  0  0
    2.4693    3.0112    6.0713 H   0  0  0  0  0  0  0  0  0  0  0  0
    4.2713    4.5096    3.6885 C   0  0  0  0  0  0  0  0  0  0  0  0
    3.4500    4.9396    3.1065 H   0  0  0  0  0  0  0  0  0  0  0  0
    5.0492    4.1475    3.0060 H   0  0  0  0  0  0  0  0  0  0  0  0
    4.8945    5.5983    4.5719 C   0  0  0  0  0  0  0  0  0  0  0  0
    5.3688    6.3519    3.9403 H   0  0  0  0  0  0  0  0  0  0  0  0
    4.1263    6.0968    5.1851 H   0  0  0  0  0  0  0  0  0  0  0  0
    5.4268    4.0283    6.2003 C   0  0  0  0  0  0  0  0  0  0  0  0
    4.6649    4.4035    6.9027 H   0  0  0  0  0  0  0  0  0  0  0  0
    6.2827    3.6667    6.7724 H   0  0  0  0  0  0  0  0  0  0  0  0
    4.8639    2.8986    5.3351 C   0  0  0  0  0  0  0  0  0  0  0  0
    5.6717    2.5203    4.7013 H   0  0  0  0  0  0  0  0  0  0  0  0
    4.5078    2.0813    5.9669 H   0  0  0  0  0  0  0  0  0  0  0  0
    1.9421   -0.7491    1.3714 C   0  0  0  0  0  0  0  0  0  0  0  0
    1.0372   -0.9399    0.7805 H   0  0  0  0  0  0  0  0  0  0  0  0
    1.6799   -1.0845    2.8380 C   0  0  0  0  0  0  0  0  0  0  0  0
    1.5050   -2.1504    2.9713 H   0  0  0  0  0  0  0  0  0  0  0  0
    0.8094   -0.5415    3.2079 H   0  0  0  0  0  0  0  0  0  0  0  0
    2.5470   -0.8001    3.4407 H   0  0  0  0  0  0  0  0  0  0  0  0
    3.1198   -1.5385    0.8198 C   0  0  0  0  0  0  0  0  0  0  0  0
    4.0339   -1.2918    1.3551 H   0  0  0  0  0  0  0  0  0  0  0  0
    3.2759   -1.3356   -0.2370 H   0  0  0  0  0  0  0  0  0  0  0  0
    2.9333   -2.6048    0.9375 H   0  0  0  0  0  0  0  0  0  0  0  0
    2.7390    1.5289   -0.4017 C   0  0  0  0  0  0  0  0  0  0  0  0
    3.7013    1.0350   -0.5690 H   0  0  0  0  0  0  0  0  0  0  0  0
    2.9469    3.0412   -0.4129 C   0  0  0  0  0  0  0  0  0  0  0  0
    3.3551    3.3719   -1.3657 H   0  0  0  0  0  0  0  0  0  0  0  0
    3.6458    3.3283    0.3781 H   0  0  0  0  0  0  0  0  0  0  0  0
    2.0015    3.5561   -0.2418 H   0  0  0  0  0  0  0  0  0  0  0  0
    1.7178    1.0839   -1.4388 C   0  0  0  0  0  0  0  0  0  0  0  0
    0.7414    1.5075   -1.2123 H   0  0  0  0  0  0  0  0  0  0  0  0
    1.6274    0.0005   -1.4672 H   0  0  0  0  0  0  0  0  0  0  0  0
    2.0211    1.4273   -2.4264 H   0  0  0  0  0  0  0  0  0  0  0  0
  1  2  1  1  0  0  0
  1  7  1  0  0  0  0
  1  6  1  0  0  0  0
  3  4  1  0  0  0  0
  3 31  1  0  0  0  0
  3  1  1  0  0  0  0
  4  8  1  0  0  0  0
  5 25  1  0  0  0  0
  6 16  1  0  0  0  0
  6 28  1  0  0  0  0
  7 15  1  0  0  0  0
  8  9  1  0  0  0  0
  8  7  2  0  0  0  0
  9 11  2  0  0  0  0
 10  9  1  0  0  0  0
 11 12  1  0  0  0  0
 11 13  1  0  0  0  0
 13 14  1  0  0  0  0
 15 13  2  0  0  0  0
 15 16  1  0  0  0  0
 16 17  1  0  0  0  0
 16 18  1  0  0  0  0
 19  6  1  0  0  0  0
 19 22  1  0  0  0  0
 20 19  1  0  0  0  0
 21 19  1  0  0  0  0
 22 24  1  0  0  0  0
 22  5  1  0  0  0  0
 23 22  1  0  0  0  0
 25 27  1  0  0  0  0
 25 26  1  0  0  0  0
 28 30  1  0  0  0  0
 28 25  1  0  0  0  0
 29 28  1  0  0  0  0
 31 33  1  0  0  0  0
 32 31  1  0  0  0  0
 33 34  1  0  0  0  0
 33 35  1  0  0  0  0
 33 36  1  0  0  0  0
 37 40  1  0  0  0  0
 37 38  1  0  0  0  0
 37 31  1  0  0  0  0
 39 37  1  0  0  0  0
 41  3  1  0  0  0  0
 42 41  1  0  0  0  0
 43 41  1  0  0  0  0
 43 46  1  0  0  0  0
 43 45  1  0  0  0  0
 44 43  1  0  0  0  0
 47 48  1  0  0  0  0
 47 41  1  0  0  0  0
 49 47  1  0  0  0  0
 50 47  1  0  0  0  0
M  END
$$$$
