CSD_code = ORODIJ | q = 0 | S = 0 | Stoichiometry = C17H29BrNNiOP | MND = 4
 OpenBabel04212202083D

 51 53  0  0  0  0  0  0  0  0999 V2000
   13.1925    2.8715    6.3604 Ni  0  0  1  0  0  0  0  0  0  0  0  0
   15.2055    3.7764    6.7158 Br  0  0  0  0  0  0  0  0  0  0  0  0
   12.4247    3.5454    8.2002 P   0  0  0  0  0  4  0  0  0  0  0  0
   10.9658    2.8376    8.4081 O   0  0  0  0  0  0  0  0  0  0  0  0
   13.4897    1.9793    4.4273 N   0  0  0  0  0  4  0  0  0  0  0  0
   11.5255    2.0667    6.2366 C   0  0  0  0  0  0  0  0  0  0  0  0
   10.6104    2.0966    7.2881 C   0  0  0  0  0  0  0  0  0  0  0  0
    9.4049    1.4254    7.2200 C   0  0  0  0  0  0  0  0  0  0  0  0
    8.7139    1.4674    8.0479 H   0  0  0  0  0  0  0  0  0  0  0  0
    9.1125    0.7039    6.0710 C   0  0  0  0  0  0  0  0  0  0  0  0
    8.1757    0.1712    6.0044 H   0  0  0  0  0  0  0  0  0  0  0  0
   10.0049    0.6606    5.0157 C   0  0  0  0  0  0  0  0  0  0  0  0
    9.7659    0.0956    4.1255 H   0  0  0  0  0  0  0  0  0  0  0  0
   11.2155    1.3414    5.0914 C   0  0  0  0  0  0  0  0  0  0  0  0
   12.2194    1.3616    3.9728 C   0  0  0  0  0  0  0  0  0  0  0  0
   11.8082    1.9432    3.1409 H   0  0  0  0  0  0  0  0  0  0  0  0
   12.4020    0.3486    3.5925 H   0  0  0  0  0  0  0  0  0  0  0  0
   14.5313    0.9532    4.5784 C   0  0  0  0  0  0  0  0  0  0  0  0
   15.4827    1.4604    4.7607 H   0  0  0  0  0  0  0  0  0  0  0  0
   14.6282    0.3652    3.6528 H   0  0  0  0  0  0  0  0  0  0  0  0
   14.2391    0.0404    5.7620 C   0  0  0  0  0  0  0  0  0  0  0  0
   14.0609    0.6597    6.6524 H   0  0  0  0  0  0  0  0  0  0  0  0
   15.0916   -0.6047    5.9582 H   0  0  0  0  0  0  0  0  0  0  0  0
   13.3592   -0.5770    5.5958 H   0  0  0  0  0  0  0  0  0  0  0  0
   13.9294    3.0197    3.4855 C   0  0  0  0  0  0  0  0  0  0  0  0
   13.9090    2.6421    2.4528 H   0  0  0  0  0  0  0  0  0  0  0  0
   14.9609    3.2844    3.7319 H   0  0  0  0  0  0  0  0  0  0  0  0
   13.0725    4.2721    3.6247 C   0  0  0  0  0  0  0  0  0  0  0  0
   12.0645    4.1327    3.2400 H   0  0  0  0  0  0  0  0  0  0  0  0
   13.5346    5.1061    3.1034 H   0  0  0  0  0  0  0  0  0  0  0  0
   13.0028    4.5281    4.6927 H   0  0  0  0  0  0  0  0  0  0  0  0
   13.3007    3.0680    9.7635 C   0  0  0  0  0  0  0  0  0  0  0  0
   14.2118    3.6727    9.8140 H   0  0  0  0  0  0  0  0  0  0  0  0
   13.6929    1.5986    9.6378 C   0  0  0  0  0  0  0  0  0  0  0  0
   14.2032    1.2568   10.5364 H   0  0  0  0  0  0  0  0  0  0  0  0
   14.3707    1.4638    8.7936 H   0  0  0  0  0  0  0  0  0  0  0  0
   12.8093    0.9780    9.4847 H   0  0  0  0  0  0  0  0  0  0  0  0
   12.4277    3.3142   10.9869 C   0  0  0  0  0  0  0  0  0  0  0  0
   11.4697    2.8102   10.8751 H   0  0  0  0  0  0  0  0  0  0  0  0
   12.2479    4.3752   11.1431 H   0  0  0  0  0  0  0  0  0  0  0  0
   12.9207    2.9204   11.8744 H   0  0  0  0  0  0  0  0  0  0  0  0
   11.9563    5.3273    8.4226 C   0  0  0  0  0  0  0  0  0  0  0  0
   11.2325    5.3317    9.2475 H   0  0  0  0  0  0  0  0  0  0  0  0
   11.2602    5.7846    7.1441 C   0  0  0  0  0  0  0  0  0  0  0  0
   10.8431    6.7827    7.2673 H   0  0  0  0  0  0  0  0  0  0  0  0
   10.4512    5.1038    6.8771 H   0  0  0  0  0  0  0  0  0  0  0  0
   11.9759    5.8148    6.3219 H   0  0  0  0  0  0  0  0  0  0  0  0
   13.1511    6.2119    8.7489 C   0  0  0  0  0  0  0  0  0  0  0  0
   13.9249    6.1086    7.9907 H   0  0  0  0  0  0  0  0  0  0  0  0
   13.5839    5.9589    9.7138 H   0  0  0  0  0  0  0  0  0  0  0  0
   12.8403    7.2551    8.7787 H   0  0  0  0  0  0  0  0  0  0  0  0
  1  2  1  1  0  0  0
  1  3  1  0  0  0  0
  3  4  1  0  0  0  0
  3 42  1  0  0  0  0
  3 32  1  0  0  0  0
  5 18  1  0  0  0  0
  5  1  1  0  0  0  0
  6  1  1  0  0  0  0
  6  7  1  0  0  0  0
  7  4  1  0  0  0  0
  8  7  2  0  0  0  0
  8  9  1  0  0  0  0
 10  8  1  0  0  0  0
 11 10  1  0  0  0  0
 12 14  1  0  0  0  0
 12 10  2  0  0  0  0
 13 12  1  0  0  0  0
 14  6  2  0  0  0  0
 15  5  1  0  0  0  0
 15 14  1  0  0  0  0
 16 15  1  0  0  0  0
 17 15  1  0  0  0  0
 18 19  1  0  0  0  0
 18 21  1  0  0  0  0
 20 18  1  0  0  0  0
 21 23  1  0  0  0  0
 21 22  1  0  0  0  0
 24 21  1  0  0  0  0
 25 28  1  0  0  0  0
 25 27  1  0  0  0  0
 25  5  1  0  0  0  0
 26 25  1  0  0  0  0
 28 31  1  0  0  0  0
 29 28  1  0  0  0  0
 30 28  1  0  0  0  0
 32 33  1  0  0  0  0
 32 38  1  0  0  0  0
 34 32  1  0  0  0  0
 34 35  1  0  0  0  0
 36 34  1  0  0  0  0
 37 34  1  0  0  0  0
 38 40  1  0  0  0  0
 38 41  1  0  0  0  0
 39 38  1  0  0  0  0
 42 48  1  0  0  0  0
 42 43  1  0  0  0  0
 44 45  1  0  0  0  0
 44 42  1  0  0  0  0
 46 44  1  0  0  0  0
 47 44  1  0  0  0  0
 48 51  1  0  0  0  0
 48 50  1  0  0  0  0
 49 48  1  0  0  0  0
M  END
$$$$
