CSD_code = OROFEH | q = 0 | S = 0 | Stoichiometry = C15H25BrNNiOP | MND = 4
 OpenBabel04212202083D

 45 47  0  0  0  0  0  0  0  0999 V2000
    4.6649    7.7183    1.9797 Ni  0  0  1  0  0  0  0  0  0  0  0  0
    4.9649    5.7935    3.0452 Br  0  0  0  0  0  0  0  0  0  0  0  0
    4.8884    8.8682    3.7182 P   0  0  0  0  0  4  0  0  0  0  0  0
    4.8714   10.4469    3.2889 O   0  0  0  0  0  0  0  0  0  0  0  0
    4.5820    7.0629   -0.0157 N   0  0  0  0  0  4  0  0  0  0  0  0
    4.4856    9.3978    1.2033 C   0  0  0  0  0  0  0  0  0  0  0  0
    4.6528   10.5797    1.9229 C   0  0  0  0  0  0  0  0  0  0  0  0
    4.5940   11.8146    1.3056 C   0  0  0  0  0  0  0  0  0  0  0  0
    4.7236   12.7170    1.8828 H   0  0  0  0  0  0  0  0  0  0  0  0
    4.3663   11.8607   -0.0633 C   0  0  0  0  0  0  0  0  0  0  0  0
    4.3230   12.8187   -0.5592 H   0  0  0  0  0  0  0  0  0  0  0  0
    4.1909   10.7002   -0.7966 C   0  0  0  0  0  0  0  0  0  0  0  0
    4.0076   10.7519   -1.8606 H   0  0  0  0  0  0  0  0  0  0  0  0
    4.2466    9.4633   -0.1661 C   0  0  0  0  0  0  0  0  0  0  0  0
    4.0136    8.1443   -0.8492 C   0  0  0  0  0  0  0  0  0  0  0  0
    2.9322    7.9852   -0.9352 H   0  0  0  0  0  0  0  0  0  0  0  0
    4.4367    8.1175   -1.8640 H   0  0  0  0  0  0  0  0  0  0  0  0
    3.9033    5.7989   -0.3021 C   0  0  0  0  0  0  0  0  0  0  0  0
    3.9839    5.5431   -1.3666 H   0  0  0  0  0  0  0  0  0  0  0  0
    2.8493    5.8736   -0.0340 H   0  0  0  0  0  0  0  0  0  0  0  0
    4.3485    4.9985    0.2878 H   0  0  0  0  0  0  0  0  0  0  0  0
    6.0080    6.9116   -0.3333 C   0  0  0  0  0  0  0  0  0  0  0  0
    6.1409    6.5920   -1.3760 H   0  0  0  0  0  0  0  0  0  0  0  0
    6.4563    6.1582    0.3169 H   0  0  0  0  0  0  0  0  0  0  0  0
    6.5273    7.8623   -0.1936 H   0  0  0  0  0  0  0  0  0  0  0  0
    3.5526    8.8520    5.0011 C   0  0  0  0  0  0  0  0  0  0  0  0
    3.6328    9.8102    5.5298 H   0  0  0  0  0  0  0  0  0  0  0  0
    3.6768    7.6884    5.9737 C   0  0  0  0  0  0  0  0  0  0  0  0
    2.8285    7.6879    6.6563 H   0  0  0  0  0  0  0  0  0  0  0  0
    4.5877    7.7575    6.5637 H   0  0  0  0  0  0  0  0  0  0  0  0
    3.6851    6.7402    5.4405 H   0  0  0  0  0  0  0  0  0  0  0  0
    2.2360    8.7981    4.2291 C   0  0  0  0  0  0  0  0  0  0  0  0
    1.3840    8.7930    4.9063 H   0  0  0  0  0  0  0  0  0  0  0  0
    2.2010    7.8868    3.6255 H   0  0  0  0  0  0  0  0  0  0  0  0
    2.1444    9.6568    3.5630 H   0  0  0  0  0  0  0  0  0  0  0  0
    6.5130    8.7279    4.5958 C   0  0  0  0  0  0  0  0  0  0  0  0
    6.5230    7.7522    5.0918 H   0  0  0  0  0  0  0  0  0  0  0  0
    6.6972    9.8487    5.6091 C   0  0  0  0  0  0  0  0  0  0  0  0
    7.6950    9.7950    6.0417 H   0  0  0  0  0  0  0  0  0  0  0  0
    5.9715    9.7776    6.4159 H   0  0  0  0  0  0  0  0  0  0  0  0
    6.5842   10.8168    5.1251 H   0  0  0  0  0  0  0  0  0  0  0  0
    7.5921    8.7476    3.5162 C   0  0  0  0  0  0  0  0  0  0  0  0
    8.5769    8.5749    3.9455 H   0  0  0  0  0  0  0  0  0  0  0  0
    7.5999    9.7097    3.0037 H   0  0  0  0  0  0  0  0  0  0  0  0
    7.3971    7.9634    2.7789 H   0  0  0  0  0  0  0  0  0  0  0  0
  1  2  1  1  0  0  0
  1  3  1  0  0  0  0
  3 36  1  0  0  0  0
  3 26  1  0  0  0  0
  4  3  1  0  0  0  0
  5  1  1  0  0  0  0
  6  7  1  0  0  0  0
  6  1  1  0  0  0  0
  7  4  1  0  0  0  0
  8  9  1  0  0  0  0
  8  7  2  0  0  0  0
 10  8  1  0  0  0  0
 11 10  1  0  0  0  0
 12 14  1  0  0  0  0
 12 10  2  0  0  0  0
 13 12  1  0  0  0  0
 14  6  2  0  0  0  0
 15 14  1  0  0  0  0
 15  5  1  0  0  0  0
 16 15  1  0  0  0  0
 17 15  1  0  0  0  0
 18 20  1  0  0  0  0
 18  5  1  0  0  0  0
 18 21  1  0  0  0  0
 19 18  1  0  0  0  0
 22 25  1  0  0  0  0
 22  5  1  0  0  0  0
 22 24  1  0  0  0  0
 23 22  1  0  0  0  0
 26 27  1  0  0  0  0
 26 28  1  0  0  0  0
 28 30  1  0  0  0  0
 28 29  1  0  0  0  0
 31 28  1  0  0  0  0
 32 33  1  0  0  0  0
 32 26  1  0  0  0  0
 34 32  1  0  0  0  0
 35 32  1  0  0  0  0
 36 37  1  0  0  0  0
 36 38  1  0  0  0  0
 38 39  1  0  0  0  0
 38 40  1  0  0  0  0
 41 38  1  0  0  0  0
 42 43  1  0  0  0  0
 42 36  1  0  0  0  0
 44 42  1  0  0  0  0
 45 42  1  0  0  0  0
M  END
$$$$
