CSD_code = OROWOJ | q = 0 | S = 0 | Stoichiometry = C13H29Br2FeNOP2 | MND = 6
 OpenBabel04212202083D

 49 50  0  0  0  0  0  0  0  0999 V2000
    2.8632    1.1877    0.2747 Br  0  0  0  0  0  0  0  0  0  0  0  0
    2.4993    0.3839    4.8882 Br  0  0  0  0  0  0  0  0  0  0  0  0
    4.5416   -1.5000    2.8735 C   0  0  0  0  0  0  0  0  0  0  0  0
    4.2964   -1.5999    3.9351 H   0  0  0  0  0  0  0  0  0  0  0  0
    5.5369   -1.9366    2.7102 H   0  0  0  0  0  0  0  0  0  0  0  0
    3.4939   -2.2136    2.0245 C   0  0  0  0  0  0  0  0  0  0  0  0
    3.3640   -3.2469    2.3512 H   0  0  0  0  0  0  0  0  0  0  0  0
    3.7944   -2.2059    0.9711 H   0  0  0  0  0  0  0  0  0  0  0  0
    5.5455    0.6939    3.2725 C   0  0  0  0  0  0  0  0  0  0  0  0
    6.5508    0.2845    3.1010 H   0  0  0  0  0  0  0  0  0  0  0  0
    5.3225    0.6110    4.3409 H   0  0  0  0  0  0  0  0  0  0  0  0
    5.4722    2.1528    2.8327 C   0  0  0  0  0  0  0  0  0  0  0  0
    5.7664    2.2460    1.7820 H   0  0  0  0  0  0  0  0  0  0  0  0
    6.1263    2.7811    3.4394 H   0  0  0  0  0  0  0  0  0  0  0  0
    0.9786   -2.2243    3.4186 C   0  0  0  0  0  0  0  0  0  0  0  0
    0.8859   -3.2502    3.0503 H   0  0  0  0  0  0  0  0  0  0  0  0
    1.5646   -2.2422    4.3409 H   0  0  0  0  0  0  0  0  0  0  0  0
   -0.3871   -1.6055    3.6876 C   0  0  0  0  0  0  0  0  0  0  0  0
   -0.2712   -0.6018    4.0915 H   0  0  0  0  0  0  0  0  0  0  0  0
   -0.9357   -2.1992    4.4156 H   0  0  0  0  0  0  0  0  0  0  0  0
   -0.9795   -1.5429    2.7759 H   0  0  0  0  0  0  0  0  0  0  0  0
    1.0378   -1.6368    0.5965 C   0  0  0  0  0  0  0  0  0  0  0  0
    0.1488   -0.9978    0.5650 H   0  0  0  0  0  0  0  0  0  0  0  0
    1.6942   -1.3015   -0.2112 H   0  0  0  0  0  0  0  0  0  0  0  0
    0.6579   -3.0962    0.3795 C   0  0  0  0  0  0  0  0  0  0  0  0
    1.5159   -3.7509    0.5213 H   0  0  0  0  0  0  0  0  0  0  0  0
    0.3013   -3.2251   -0.6408 H   0  0  0  0  0  0  0  0  0  0  0  0
   -0.1375   -3.4095    1.0512 H   0  0  0  0  0  0  0  0  0  0  0  0
    3.6296    3.4547    4.6501 C   0  0  0  0  0  0  0  0  0  0  0  0
    2.5713    3.5459    4.9151 H   0  0  0  0  0  0  0  0  0  0  0  0
    4.0618    2.7253    5.3416 H   0  0  0  0  0  0  0  0  0  0  0  0
    4.3341    4.7959    4.8064 C   0  0  0  0  0  0  0  0  0  0  0  0
    5.3600    4.7545    4.4435 H   0  0  0  0  0  0  0  0  0  0  0  0
    4.3636    5.0616    5.8615 H   0  0  0  0  0  0  0  0  0  0  0  0
    3.8102    5.5886    4.2781 H   0  0  0  0  0  0  0  0  0  0  0  0
    3.6266    4.1094    1.8331 C   0  0  0  0  0  0  0  0  0  0  0  0
    4.3567    4.8536    2.1633 H   0  0  0  0  0  0  0  0  0  0  0  0
    3.9169    3.7629    0.8383 H   0  0  0  0  0  0  0  0  0  0  0  0
    2.2184    4.6895    1.7840 C   0  0  0  0  0  0  0  0  0  0  0  0
    1.5274    3.9561    1.3732 H   0  0  0  0  0  0  0  0  0  0  0  0
    2.1906    5.5716    1.1477 H   0  0  0  0  0  0  0  0  0  0  0  0
    1.8693    4.9678    2.7776 H   0  0  0  0  0  0  0  0  0  0  0  0
    1.0348    1.4847    2.5799 C   0  0  0  0  0  2  0  0  0  0  0  0
    2.6350    0.7868    2.5829 Fe  0  0  0  0  0  0  0  0  0  0  0  0
    4.5380   -0.0735    2.5329 N   0  0  0  0  0  4  0  0  0  0  0  0
   -0.0237    1.9220    2.5699 O   0  0  0  0  0  1  0  0  0  0  0  0
    1.9137   -1.2462    2.1724 P   0  0  0  0  0  4  0  0  0  0  0  0
    3.6949    2.6718    2.9783 P   0  0  0  0  0  4  0  0  0  0  0  0
    4.7891   -0.0070    1.5402 H   0  0  0  0  0  0  0  0  0  0  0  0
  1 44  1  0  0  0  0
  3  4  1  0  0  0  0
  5  3  1  0  0  0  0
  6 47  1  0  0  0  0
  6  7  1  0  0  0  0
  6  3  1  0  0  0  0
  8  6  1  0  0  0  0
  9 11  1  0  0  0  0
 10  9  1  0  0  0  0
 12 48  1  0  0  0  0
 12  9  1  0  0  0  0
 12 14  1  0  0  0  0
 13 12  1  0  0  0  0
 15 18  1  0  0  0  0
 15 17  1  0  0  0  0
 16 15  1  0  0  0  0
 18 19  1  0  0  0  0
 18 20  1  0  0  0  0
 21 18  1  0  0  0  0
 22 47  1  0  0  0  0
 23 22  1  0  0  0  0
 24 22  1  0  0  0  0
 25 26  1  0  0  0  0
 25 22  1  0  0  0  0
 25 28  1  0  0  0  0
 27 25  1  0  0  0  0
 29 32  1  0  0  0  0
 29 30  1  0  0  0  0
 29 31  1  0  0  0  0
 32 34  1  0  0  0  0
 33 32  1  0  0  0  0
 35 32  1  0  0  0  0
 36 37  1  0  0  0  0
 36 48  1  0  0  0  0
 38 36  1  0  0  0  0
 39 36  1  0  0  0  0
 39 42  1  0  0  0  0
 40 39  1  0  0  0  0
 41 39  1  0  0  0  0
 43 44  1  0  0  0  0
 44 48  1  0  0  0  0
 44  2  1  0  0  0  0
 45 44  1  0  0  0  0
 45  3  1  0  0  0  0
 45  9  1  0  0  0  0
 46 43  1  0  0  0  0
 47 44  1  0  0  0  0
 47 15  1  0  0  0  0
 48 29  1  0  0  0  0
 49 45  1  0  0  0  0
M  END
$$$$
