CSD_code = OSACOC | q = 0 | S = 0 | Stoichiometry = C14H30ClCoOP2 | MND = 6
 OpenBabel04212202083D

 49 50  0  0  1  0  0  0  0  0999 V2000
   11.8298   13.9282    0.3816 Co  0  0  0  0  0  0  0  0  0  0  0  0
   10.2778   14.2077   -0.8173 O   0  0  0  0  0  0  0  0  0  0  0  0
   10.9086   15.3185    1.7971 P   0  0  0  0  0  4  0  0  0  0  0  0
   12.9145   13.0000   -1.2711 P   0  0  0  0  0  4  0  0  0  0  0  0
   12.7522   15.8045   -0.4213 Cl  0  0  0  0  0  0  0  0  0  0  0  0
   10.8947   12.3774    0.9183 C   0  0  2  0  0  3  0  0  0  0  0  0
    9.6903   12.2627    0.2704 C   0  0  0  0  0  0  0  0  0  0  0  0
    8.6861   11.1549    0.4731 C   0  0  0  0  0  0  0  0  0  0  0  0
    7.6747   11.5710    0.4634 H   0  0  0  0  0  0  0  0  0  0  0  0
    8.7545   10.4486   -0.3622 H   0  0  0  0  0  0  0  0  0  0  0  0
    8.9534   10.4193    1.7800 C   0  0  0  0  0  0  0  0  0  0  0  0
    8.6936   11.0610    2.6255 H   0  0  0  0  0  0  0  0  0  0  0  0
    8.3380    9.5188    1.8381 H   0  0  0  0  0  0  0  0  0  0  0  0
   10.4330   10.0663    1.8497 C   0  0  0  0  0  0  0  0  0  0  0  0
   10.7086    9.4982    0.9580 H   0  0  0  0  0  0  0  0  0  0  0  0
   10.6380    9.4417    2.7221 H   0  0  0  0  0  0  0  0  0  0  0  0
   11.2756   11.3409    1.9271 C   0  0  0  0  0  0  0  0  0  0  0  0
   12.3315   11.0877    1.8270 H   0  0  0  0  0  0  0  0  0  0  0  0
   11.1587   11.7913    2.9180 H   0  0  0  0  0  0  0  0  0  0  0  0
    9.4444   13.2995   -0.6488 C   0  0  0  0  0  0  0  0  0  0  0  0
    8.5128   13.3256   -1.2324 H   0  0  0  0  0  0  0  0  0  0  0  0
    9.8043   14.6750    3.1212 C   0  0  0  0  0  0  0  0  0  0  0  0
   10.3782   14.0401    3.7927 H   0  0  0  0  0  0  0  0  0  0  0  0
    9.0084   14.0827    2.6734 H   0  0  0  0  0  0  0  0  0  0  0  0
    9.3707   15.4983    3.6875 H   0  0  0  0  0  0  0  0  0  0  0  0
    9.8108   16.5592    1.0254 C   0  0  0  0  0  0  0  0  0  0  0  0
    8.9566   16.0630    0.5689 H   0  0  0  0  0  0  0  0  0  0  0  0
   10.3727   17.0777    0.2510 H   0  0  0  0  0  0  0  0  0  0  0  0
    9.4677   17.2687    1.7788 H   0  0  0  0  0  0  0  0  0  0  0  0
   12.0104   16.4004    2.7743 C   0  0  0  0  0  0  0  0  0  0  0  0
   11.4115   17.1036    3.3524 H   0  0  0  0  0  0  0  0  0  0  0  0
   12.6589   16.9388    2.0864 H   0  0  0  0  0  0  0  0  0  0  0  0
   12.6210   15.8003    3.4445 H   0  0  0  0  0  0  0  0  0  0  0  0
   14.7094   13.3158   -1.4088 C   0  0  0  0  0  0  0  0  0  0  0  0
   15.0838   12.8874   -2.3382 H   0  0  0  0  0  0  0  0  0  0  0  0
   15.2316   12.8735   -0.5640 H   0  0  0  0  0  0  0  0  0  0  0  0
   14.8683   14.3921   -1.4017 H   0  0  0  0  0  0  0  0  0  0  0  0
   12.3480   13.5347   -2.9241 C   0  0  0  0  0  0  0  0  0  0  0  0
   12.9880   13.1030   -3.6940 H   0  0  0  0  0  0  0  0  0  0  0  0
   12.3948   14.6213   -2.9643 H   0  0  0  0  0  0  0  0  0  0  0  0
   11.3179   13.2202   -3.0803 H   0  0  0  0  0  0  0  0  0  0  0  0
   12.8715   11.1721   -1.4717 C   0  0  0  0  0  0  0  0  0  0  0  0
   11.8376   10.8427   -1.5548 H   0  0  0  0  0  0  0  0  0  0  0  0
   13.3173   10.7023   -0.5977 H   0  0  0  0  0  0  0  0  0  0  0  0
   13.4220   10.8736   -2.3630 H   0  0  0  0  0  0  0  0  0  0  0  0
   13.3305   13.5910    1.6230 C   0  0  0  0  0  0  0  0  0  0  0  0
   13.0052   13.5136    2.6620 H   0  0  0  0  0  0  0  0  0  0  0  0
   14.0421   14.4140    1.5591 H   0  0  0  0  0  0  0  0  0  0  0  0
   13.8742   12.6727    1.3928 H   0  0  0  0  0  0  0  0  0  0  0  0
  1  6  1  0  0  0  0
  1 46  1  0  0  0  0
  1  3  1  0  0  0  0
  2 20  1  0  0  0  0
  2  1  1  0  0  0  0
  3 30  1  0  0  0  0
  3 22  1  0  0  0  0
  4  1  1  0  0  0  0
  5  1  1  0  0  0  0
  6  7  1  1  0  0  0
  6 17  1  0  0  0  0
  7  8  1  0  0  0  0
  8 11  1  0  0  0  0
  9  8  1  0  0  0  0
 10  8  1  0  0  0  0
 11 13  1  0  0  0  0
 11 14  1  0  0  0  0
 11 12  1  0  0  0  0
 14 17  1  0  0  0  0
 14 16  1  0  0  0  0
 15 14  1  0  0  0  0
 17 19  1  0  0  0  0
 18 17  1  0  0  0  0
 20  7  2  0  0  0  0
 21 20  1  0  0  0  0
 22 25  1  0  0  0  0
 22 23  1  0  0  0  0
 24 22  1  0  0  0  0
 26 29  1  0  0  0  0
 26  3  1  0  0  0  0
 27 26  1  0  0  0  0
 28 26  1  0  0  0  0
 30 31  1  0  0  0  0
 30 33  1  0  0  0  0
 32 30  1  0  0  0  0
 34 37  1  0  0  0  0
 34  4  1  0  0  0  0
 34 36  1  0  0  0  0
 35 34  1  0  0  0  0
 38  4  1  0  0  0  0
 39 38  1  0  0  0  0
 40 38  1  0  0  0  0
 41 38  1  0  0  0  0
 42  4  1  0  0  0  0
 42 44  1  0  0  0  0
 43 42  1  0  0  0  0
 45 42  1  0  0  0  0
 46 47  1  0  0  0  0
 48 46  1  0  0  0  0
 49 46  1  0  0  0  0
M  END
$$$$
