CSD_code = OSOKIS | q = -1 | S = 0 | Stoichiometry = C8H17Cl5N2Ta(1-) | MND = 6
 OpenBabel04212202083D

 33 32  0  0  0  0  0  0  0  0999 V2000
    3.0209    5.2756    4.2589 Ta  0  0  0  0  0  0  0  0  0  0  0  0
    0.9101    6.0308    4.6778 Cl  0  0  0  0  0  0  0  0  0  0  0  0
    3.4612    7.2250    2.8797 Cl  0  0  0  0  0  0  0  0  0  0  0  0
    2.0990    4.2141    2.2004 Cl  0  0  0  0  0  0  0  0  0  0  0  0
    2.5318    3.2099    5.4220 Cl  0  0  0  0  0  0  0  0  0  0  0  0
    3.7743    6.3603    6.2409 Cl  0  0  0  0  0  0  0  0  0  0  0  0
    4.6801    4.6304    3.8353 N   0  0  0  0  0  2  0  0  0  0  0  0
    5.8945    3.4450    2.1538 N   0  0  0  0  0  4  0  0  0  0  0  0
    5.8495    4.1693    3.5715 C   0  0  0  0  0  0  0  0  0  0  0  0
    6.9605    4.2247    4.3264 C   0  0  0  0  0  0  0  0  0  0  0  0
    6.8615    4.7246    5.2716 H   0  0  0  0  0  0  0  0  0  0  0  0
    7.9196    3.8128    4.0869 H   0  0  0  0  0  0  0  0  0  0  0  0
    5.4014    4.4393    1.1659 C   0  0  0  0  0  0  0  0  0  0  0  0
    5.3081    3.9460    0.1967 H   0  0  0  0  0  0  0  0  0  0  0  0
    4.4034    4.7405    1.4927 H   0  0  0  0  0  0  0  0  0  0  0  0
    6.2626    5.6874    1.0735 C   0  0  0  0  0  0  0  0  0  0  0  0
    6.3750    6.1281    2.0602 H   0  0  0  0  0  0  0  0  0  0  0  0
    5.7414    6.4110    0.4540 H   0  0  0  0  0  0  0  0  0  0  0  0
    7.2432    5.4991    0.6385 H   0  0  0  0  0  0  0  0  0  0  0  0
    4.9107    2.3319    2.2260 C   0  0  0  0  0  0  0  0  0  0  0  0
    3.9171    2.7852    2.2991 H   0  0  0  0  0  0  0  0  0  0  0  0
    4.9631    1.7692    1.2917 H   0  0  0  0  0  0  0  0  0  0  0  0
    5.0947    1.4128    3.4224 C   0  0  0  0  0  0  0  0  0  0  0  0
    6.0706    0.9302    3.4450 H   0  0  0  0  0  0  0  0  0  0  0  0
    4.3315    0.6411    3.3736 H   0  0  0  0  0  0  0  0  0  0  0  0
    4.9404    1.9680    4.3437 H   0  0  0  0  0  0  0  0  0  0  0  0
    7.2478    2.9651    1.8216 C   0  0  0  0  0  0  0  0  0  0  0  0
    7.9271    3.8117    1.9257 H   0  0  0  0  0  0  0  0  0  0  0  0
    7.5190    2.2159    2.5661 H   0  0  0  0  0  0  0  0  0  0  0  0
    7.4241    2.3659    0.4292 C   0  0  0  0  0  0  0  0  0  0  0  0
    6.7625    1.5208    0.2612 H   0  0  0  0  0  0  0  0  0  0  0  0
    8.4484    2.0093    0.3412 H   0  0  0  0  0  0  0  0  0  0  0  0
    7.2583    3.1024   -0.3515 H   0  0  0  0  0  0  0  0  0  0  0  0
  1  2  1  0  0  0  0
  1  5  1  0  0  0  0
  1  6  1  0  0  0  0
  3  1  1  0  0  0  0
  4  1  1  0  0  0  0
  7  1  1  0  0  0  0
  8 20  1  0  0  0  0
  8  9  1  0  0  0  0
  9  7  1  0  0  0  0
  9 10  2  0  0  0  0
 10 11  1  0  0  0  0
 12 10  1  0  0  0  0
 13 15  1  0  0  0  0
 13  8  1  0  0  0  0
 14 13  1  0  0  0  0
 16 13  1  0  0  0  0
 16 17  1  0  0  0  0
 18 16  1  0  0  0  0
 19 16  1  0  0  0  0
 20 21  1  0  0  0  0
 20 23  1  0  0  0  0
 22 20  1  0  0  0  0
 23 24  1  0  0  0  0
 23 26  1  0  0  0  0
 25 23  1  0  0  0  0
 27 28  1  0  0  0  0
 27  8  1  0  0  0  0
 27 29  1  0  0  0  0
 30 27  1  0  0  0  0
 31 30  1  0  0  0  0
 32 30  1  0  0  0  0
 33 30  1  0  0  0  0
M  END
$$$$
