CSD_code = OSOPIX | q = 0 | S = 0 | Stoichiometry = C31H22BrMnO3S2 | MND = 6
 OpenBabel04212202083D

 60 65  0  0  0  0  0  0  0  0999 V2000
    4.2840    1.5993    7.7103 C   0  0  0  0  0  0  0  0  0  0  0  0
    3.7436    0.6493    8.5367 C   0  0  0  0  0  0  0  0  0  0  0  0
    3.5687   -0.3467    8.1554 H   0  0  0  0  0  0  0  0  0  0  0  0
    3.4430    0.9292    9.8822 C   0  0  0  0  0  0  0  0  0  0  0  0
    3.0313    0.1471   10.5024 H   0  0  0  0  0  0  0  0  0  0  0  0
    3.6807    2.1685   10.3902 C   0  0  0  0  0  0  0  0  0  0  0  0
    3.4646    2.3964   11.4237 H   0  0  0  0  0  0  0  0  0  0  0  0
    4.2061    3.1977    9.5691 C   0  0  0  0  0  0  0  0  0  0  0  0
    4.4002    4.4834   10.0626 C   0  0  0  0  0  0  0  0  0  0  0  0
    4.1570    4.6916   11.0954 H   0  0  0  0  0  0  0  0  0  0  0  0
    4.8665    5.5170    9.2572 C   0  0  0  0  0  0  0  0  0  0  0  0
    5.0150    6.8325    9.7639 C   0  0  0  0  0  0  0  0  0  0  0  0
    4.7938    7.0089   10.8064 H   0  0  0  0  0  0  0  0  0  0  0  0
    5.4134    7.8479    8.9513 C   0  0  0  0  0  0  0  0  0  0  0  0
    5.5165    8.8530    9.3321 H   0  0  0  0  0  0  0  0  0  0  0  0
    5.7040    7.5953    7.5980 C   0  0  0  0  0  0  0  0  0  0  0  0
    6.0332    8.4108    6.9698 H   0  0  0  0  0  0  0  0  0  0  0  0
    5.6100    6.3355    7.0682 C   0  0  0  0  0  0  0  0  0  0  0  0
    5.1686    5.2490    7.8839 C   0  0  0  0  0  0  0  0  0  0  0  0
    4.9773    3.9592    7.3894 C   0  0  0  0  0  0  0  0  0  0  0  0
    5.1634    3.7658    6.3426 H   0  0  0  0  0  0  0  0  0  0  0  0
    4.5141    2.9222    8.1986 C   0  0  0  0  0  0  0  0  0  0  0  0
    4.6277    1.1987    6.3338 C   0  0  0  0  0  0  0  0  0  0  0  0
    5.9383    1.2774    5.8743 C   0  0  0  0  0  0  0  0  0  0  0  0
    6.7131    1.6887    6.5045 H   0  0  0  0  0  0  0  0  0  0  0  0
    6.2571    0.7982    4.6152 C   0  0  0  0  0  0  0  0  0  0  0  0
    5.2847    0.2598    3.7873 C   0  0  0  0  0  0  0  0  0  0  0  0
    5.5341   -0.0844    2.7936 H   0  0  0  0  0  0  0  0  0  0  0  0
    3.9810    0.1859    4.2424 C   0  0  0  0  0  0  0  0  0  0  0  0
    3.2169   -0.2283    3.6023 H   0  0  0  0  0  0  0  0  0  0  0  0
    3.6554    0.6428    5.5066 C   0  0  0  0  0  0  0  0  0  0  0  0
    2.6358    0.5835    5.8574 H   0  0  0  0  0  0  0  0  0  0  0  0
    8.3227   -0.7687    3.5526 C   0  0  0  0  0  0  0  0  0  0  0  0
    8.2514   -1.4175    4.4210 H   0  0  0  0  0  0  0  0  0  0  0  0
    9.3415   -0.7564    3.1732 H   0  0  0  0  0  0  0  0  0  0  0  0
    7.6368   -1.0865    2.7737 H   0  0  0  0  0  0  0  0  0  0  0  0
    5.9875    6.1544    5.6541 C   0  0  0  0  0  0  0  0  0  0  0  0
    7.0499    5.3308    5.2978 C   0  0  0  0  0  0  0  0  0  0  0  0
    7.5779    4.7650    6.0513 H   0  0  0  0  0  0  0  0  0  0  0  0
    7.4530    5.2598    3.9752 C   0  0  0  0  0  0  0  0  0  0  0  0
    6.7953    5.9756    2.9873 C   0  0  0  0  0  0  0  0  0  0  0  0
    7.0932    5.8902    1.9520 H   0  0  0  0  0  0  0  0  0  0  0  0
    5.7353    6.7902    3.3412 C   0  0  0  0  0  0  0  0  0  0  0  0
    5.2157    7.3489    2.5777 H   0  0  0  0  0  0  0  0  0  0  0  0
    5.3405    6.8878    4.6633 C   0  0  0  0  0  0  0  0  0  0  0  0
    4.5141    7.5273    4.9357 H   0  0  0  0  0  0  0  0  0  0  0  0
    9.9127    5.3014    2.6367 C   0  0  0  0  0  0  0  0  0  0  0  0
    9.3992    5.6911    1.7634 H   0  0  0  0  0  0  0  0  0  0  0  0
   10.7692    4.7045    2.3330 H   0  0  0  0  0  0  0  0  0  0  0  0
   10.2287    6.1076    3.2929 H   0  0  0  0  0  0  0  0  0  0  0  0
    6.3324    2.8855    2.3201 C   0  0  0  0  0  2  0  0  0  0  0  0
    7.2980    1.0814    0.8282 C   0  0  0  0  0  2  0  0  0  0  0  0
    7.9331    3.5231    0.4689 C   0  0  0  0  0  2  0  0  0  0  0  0
    5.2671    3.2102    2.6095 O   0  0  0  0  0  1  0  0  0  0  0  0
    6.8377    0.2410    0.1884 O   0  0  0  0  0  1  0  0  0  0  0  0
    7.8885    4.2808   -0.3981 O   0  0  0  0  0  1  0  0  0  0  0  0
    7.9605    0.9318    4.0875 S   0  0  1  0  0  3  0  0  0  0  0  0
    8.8326    4.1899    3.5890 S   0  0  2  0  0  3  0  0  0  0  0  0
    7.9603    2.3876    1.8374 Mn  0  0  0  0  0  0  0  0  0  0  0  0
   10.1895    1.7681    1.6631 Br  0  0  0  0  0  0  0  0  0  0  0  0
  1 22  2  0  0  0  0
  1  2  1  0  0  0  0
  2  4  2  0  0  0  0
  3  2  1  0  0  0  0
  4  6  1  0  0  0  0
  4  5  1  0  0  0  0
  6  7  1  0  0  0  0
  8  9  1  0  0  0  0
  8  6  2  0  0  0  0
  9 10  1  0  0  0  0
 11 12  1  0  0  0  0
 11  9  2  0  0  0  0
 12 13  1  0  0  0  0
 14 15  1  0  0  0  0
 14 12  2  0  0  0  0
 16 14  1  0  0  0  0
 17 16  1  0  0  0  0
 18 16  2  0  0  0  0
 18 19  1  0  0  0  0
 19 11  1  0  0  0  0
 20 19  2  0  0  0  0
 20 22  1  0  0  0  0
 21 20  1  0  0  0  0
 22  8  1  0  0  0  0
 23  1  1  0  0  0  0
 24 23  1  0  0  0  0
 24 25  1  0  0  0  0
 26 24  2  0  0  0  0
 27 29  2  0  0  0  0
 27 26  1  0  0  0  0
 28 27  1  0  0  0  0
 29 31  1  0  0  0  0
 30 29  1  0  0  0  0
 31 32  1  0  0  0  0
 31 23  2  0  0  0  0
 33 34  1  0  0  0  0
 35 33  1  0  0  0  0
 36 33  1  0  0  0  0
 37 18  1  0  0  0  0
 38 37  1  0  0  0  0
 38 39  1  0  0  0  0
 40 38  2  0  0  0  0
 41 43  2  0  0  0  0
 41 40  1  0  0  0  0
 42 41  1  0  0  0  0
 43 45  1  0  0  0  0
 44 43  1  0  0  0  0
 45 46  1  0  0  0  0
 45 37  2  0  0  0  0
 47 50  1  0  0  0  0
 48 47  1  0  0  0  0
 49 47  1  0  0  0  0
 51 54  1  0  0  0  0
 52 59  1  0  0  0  0
 53 59  1  0  0  0  0
 55 52  1  0  0  0  0
 56 53  1  0  0  0  0
 57 33  1  6  0  0  0
 57 26  1  0  0  0  0
 58 47  1  6  0  0  0
 58 40  1  0  0  0  0
 59 51  1  0  0  0  0
 59 58  1  0  0  0  0
 59 57  1  0  0  0  0
 60 59  1  0  0  0  0
M  END
$$$$
