CSD_code = OSOPOD | q = 0 | S = 0 | Stoichiometry = C27H16BrMnN2O3 | MND = 6
 OpenBabel04212202083D

 50 55  0  0  0  0  0  0  0  0999 V2000
    6.0045    7.6878    4.9531 C   0  0  0  0  0  2  0  0  0  0  0  0
    6.8415    6.9574    2.7563 C   0  0  0  0  0  2  0  0  0  0  0  0
    6.1267    9.3016    2.9957 C   0  0  0  0  0  2  0  0  0  0  0  0
    5.3374    7.5768    0.1645 C   0  0  0  0  0  3  0  0  0  0  0  0
    6.4015    7.5982    0.3578 H   0  0  0  0  0  0  0  0  0  0  0  0
    4.8734    7.4301   -1.1300 C   0  0  0  0  0  0  0  0  0  0  0  0
    5.5788    7.3485   -1.9418 H   0  0  0  0  0  0  0  0  0  0  0  0
    3.5096    7.3658   -1.3633 C   0  0  0  0  0  0  0  0  0  0  0  0
    3.1212    7.2090   -2.3587 H   0  0  0  0  0  0  0  0  0  0  0  0
    2.6461    7.4938   -0.2814 C   0  0  0  0  0  0  0  0  0  0  0  0
    3.2139    7.7065    0.9776 C   0  0  0  0  0  0  0  0  0  0  0  0
    2.5570    7.9177    1.8116 H   0  0  0  0  0  0  0  0  0  0  0  0
    5.1129    4.6321    3.7401 C   0  0  0  0  0  3  0  0  0  0  0  0
    6.1852    4.7599    3.8031 H   0  0  0  0  0  0  0  0  0  0  0  0
    4.5633    3.3649    3.8081 C   0  0  0  0  0  0  0  0  0  0  0  0
    5.2097    2.5108    3.9347 H   0  0  0  0  0  0  0  0  0  0  0  0
    3.1923    3.2080    3.6887 C   0  0  0  0  0  0  0  0  0  0  0  0
    2.7409    2.2269    3.6956 H   0  0  0  0  0  0  0  0  0  0  0  0
    2.4058    4.3451    3.5445 C   0  0  0  0  0  0  0  0  0  0  0  0
    3.0521    5.5841    3.5556 C   0  0  0  0  0  0  0  0  0  0  0  0
    2.4477    6.4820    3.5553 H   0  0  0  0  0  0  0  0  0  0  0  0
    0.9467    4.2795    3.3814 C   0  0  0  0  0  0  0  0  0  0  0  0
    0.1819    3.5337    4.2386 C   0  0  0  0  0  0  0  0  0  0  0  0
    0.6557    2.9698    5.0291 H   0  0  0  0  0  0  0  0  0  0  0  0
   -1.2226    3.5311    4.1428 C   0  0  0  0  0  0  0  0  0  0  0  0
   -1.7915    2.9374    4.8424 H   0  0  0  0  0  0  0  0  0  0  0  0
   -1.8553    4.2877    3.2036 C   0  0  0  0  0  0  0  0  0  0  0  0
   -2.9337    4.3128    3.1488 H   0  0  0  0  0  0  0  0  0  0  0  0
   -1.1129    5.0651    2.2794 C   0  0  0  0  0  0  0  0  0  0  0  0
   -1.7282    5.8331    1.2934 C   0  0  0  0  0  0  0  0  0  0  0  0
   -2.8064    5.8234    1.2177 H   0  0  0  0  0  0  0  0  0  0  0  0
   -0.9949    6.6109    0.4001 C   0  0  0  0  0  0  0  0  0  0  0  0
   -1.6170    7.4097   -0.5923 C   0  0  0  0  0  0  0  0  0  0  0  0
   -2.6959    7.4268   -0.6382 H   0  0  0  0  0  0  0  0  0  0  0  0
   -0.8705    8.1429   -1.4641 C   0  0  0  0  0  0  0  0  0  0  0  0
   -1.3480    8.7468   -2.2210 H   0  0  0  0  0  0  0  0  0  0  0  0
    0.5343    8.1513   -1.3744 C   0  0  0  0  0  0  0  0  0  0  0  0
    1.0996    8.7864   -2.0411 H   0  0  0  0  0  0  0  0  0  0  0  0
    1.1856    7.4106   -0.4241 C   0  0  0  0  0  0  0  0  0  0  0  0
    0.4323    6.5837    0.4677 C   0  0  0  0  0  0  0  0  0  0  0  0
    1.0412    5.7397    1.3904 C   0  0  0  0  0  0  0  0  0  0  0  0
    2.1126    5.6149    1.3549 H   0  0  0  0  0  0  0  0  0  0  0  0
    0.3144    5.0380    2.3464 C   0  0  0  0  0  0  0  0  0  0  0  0
    4.5209    7.7106    1.2163 N   0  0  0  0  0  0  0  0  0  0  0  0
    4.3707    5.7381    3.6111 N   0  0  0  0  0  0  0  0  0  0  0  0
    5.3487    7.7288    3.2982 Mn  0  0  0  0  0  0  0  0  0  0  0  0
    3.3920    8.8827    4.1250 Br  0  0  0  0  0  0  0  0  0  0  0  0
    6.4668    7.6755    6.0051 O   0  0  0  0  0  1  0  0  0  0  0  0
    7.8787    6.5336    2.4710 O   0  0  0  0  0  1  0  0  0  0  0  0
    6.6644   10.3019    2.8210 O   0  0  0  0  0  1  0  0  0  0  0  0
  1 48  1  0  0  0  0
  2 46  1  0  0  0  0
  3 46  1  0  0  0  0
  4  5  1  0  0  0  0
  4 44  1  0  0  0  0
  6  4  1  0  0  0  0
  7  6  1  0  0  0  0
  8  6  2  0  0  0  0
  8 10  1  0  0  0  0
  9  8  1  0  0  0  0
 10 11  2  0  0  0  0
 11 44  1  0  0  0  0
 11 12  1  0  0  0  0
 13 14  1  0  0  0  0
 13 15  1  0  0  0  0
 15 16  1  0  0  0  0
 17 18  1  0  0  0  0
 17 15  2  0  0  0  0
 19 20  2  0  0  0  0
 19 17  1  0  0  0  0
 20 45  1  0  0  0  0
 21 20  1  0  0  0  0
 22 19  1  0  0  0  0
 22 23  1  0  0  0  0
 23 24  1  0  0  0  0
 25 23  2  0  0  0  0
 25 26  1  0  0  0  0
 27 25  1  0  0  0  0
 28 27  1  0  0  0  0
 29 43  1  0  0  0  0
 29 27  2  0  0  0  0
 30 29  1  0  0  0  0
 31 30  1  0  0  0  0
 32 40  1  0  0  0  0
 32 30  2  0  0  0  0
 33 32  1  0  0  0  0
 34 33  1  0  0  0  0
 35 37  1  0  0  0  0
 35 33  2  0  0  0  0
 36 35  1  0  0  0  0
 37 39  2  0  0  0  0
 38 37  1  0  0  0  0
 39 10  1  0  0  0  0
 39 40  1  0  0  0  0
 40 41  2  0  0  0  0
 41 43  1  0  0  0  0
 42 41  1  0  0  0  0
 43 22  2  0  0  0  0
 44 46  1  0  0  0  0
 45 13  1  0  0  0  0
 46 45  1  0  0  0  0
 46 47  1  0  0  0  0
 46  1  1  0  0  0  0
 49  2  1  0  0  0  0
 50  3  1  0  0  0  0
M  END
$$$$
