CSD_code = OSUVAB | q = 0 | S = 0 | Stoichiometry = C29H31ClNPPd | MND = 4
 OpenBabel04212202083D

 64 68  0  0  0  0  0  0  0  0999 V2000
   22.3221    5.0555    2.9617 Pd  0  0  1  0  0  0  0  0  0  0  0  0
   20.8953    3.2090    3.4341 Cl  0  0  0  0  0  0  0  0  0  0  0  0
   23.7556    4.0807    4.2267 N   0  0  0  0  0  4  0  0  0  0  0  0
   24.1837    4.6563    4.9535 H   0  0  0  0  0  0  0  0  0  0  0  0
   23.0941    3.4291    4.6651 H   0  0  0  0  0  0  0  0  0  0  0  0
   20.8929    6.0454    1.5924 P   0  0  0  0  0  4  0  0  0  0  0  0
   23.5235    6.6436    2.9446 C   0  0  0  0  0  0  0  0  0  0  0  0
   24.8245    6.5301    2.4613 C   0  0  0  0  0  0  0  0  0  0  0  0
   25.7024    7.5986    2.5883 C   0  0  0  0  0  0  0  0  0  0  0  0
   26.7115    7.5082    2.2075 H   0  0  0  0  0  0  0  0  0  0  0  0
   25.2968    8.7760    3.1917 C   0  0  0  0  0  0  0  0  0  0  0  0
   25.9852    9.6047    3.2770 H   0  0  0  0  0  0  0  0  0  0  0  0
   24.0087    8.8883    3.6837 C   0  0  0  0  0  0  0  0  0  0  0  0
   23.6856    9.8053    4.1564 H   0  0  0  0  0  0  0  0  0  0  0  0
   23.1296    7.8233    3.5626 C   0  0  0  0  0  0  0  0  0  0  0  0
   22.1151    7.9307    3.9427 H   0  0  0  0  0  0  0  0  0  0  0  0
   25.2739    5.2408    1.8192 C   0  0  0  0  0  0  0  0  0  0  0  0
   26.0724    5.4578    1.1064 H   0  0  0  0  0  0  0  0  0  0  0  0
   24.4314    4.8047    1.2621 H   0  0  0  0  0  0  0  0  0  0  0  0
   25.8164    4.2342    2.8527 C   0  0  0  0  0  0  0  0  0  0  0  0
   26.5515    3.5919    2.3631 H   0  0  0  0  0  0  0  0  0  0  0  0
   26.3408    4.7937    3.6332 H   0  0  0  0  0  0  0  0  0  0  0  0
   24.7839    3.3011    3.5184 C   0  0  0  0  0  0  0  0  0  0  0  0
   25.5221    2.4050    4.5257 C   0  0  0  0  0  0  0  0  0  0  0  0
   26.0412    3.0056    5.2716 H   0  0  0  0  0  0  0  0  0  0  0  0
   26.2562    1.7837    4.0196 H   0  0  0  0  0  0  0  0  0  0  0  0
   24.8190    1.7502    5.0375 H   0  0  0  0  0  0  0  0  0  0  0  0
   24.0764    2.4219    2.4825 C   0  0  0  0  0  0  0  0  0  0  0  0
   23.4577    1.6786    2.9824 H   0  0  0  0  0  0  0  0  0  0  0  0
   24.8007    1.9111    1.8526 H   0  0  0  0  0  0  0  0  0  0  0  0
   23.4134    3.0299    1.8513 H   0  0  0  0  0  0  0  0  0  0  0  0
   21.2288    7.7474    1.0434 C   0  0  0  0  0  0  0  0  0  0  0  0
   22.3598    7.9376    0.2539 C   0  0  0  0  0  0  0  0  0  0  0  0
   22.9453    7.0747   -0.0390 H   0  0  0  0  0  0  0  0  0  0  0  0
   22.7322    9.2084   -0.1344 C   0  0  0  0  0  0  0  0  0  0  0  0
   23.6127    9.3520   -0.7429 H   0  0  0  0  0  0  0  0  0  0  0  0
   21.9800   10.3015    0.2688 C   0  0  0  0  0  0  0  0  0  0  0  0
   22.2748   11.2976   -0.0265 H   0  0  0  0  0  0  0  0  0  0  0  0
   20.8555   10.1177    1.0543 C   0  0  0  0  0  0  0  0  0  0  0  0
   20.2713   10.9700    1.3699 H   0  0  0  0  0  0  0  0  0  0  0  0
   20.4788    8.8439    1.4458 C   0  0  0  0  0  0  0  0  0  0  0  0
   19.6047    8.7021    2.0667 H   0  0  0  0  0  0  0  0  0  0  0  0
   19.3115    6.1714    2.4789 C   0  0  0  0  0  0  0  0  0  0  0  0
   19.3921    6.1717    3.8702 C   0  0  0  0  0  0  0  0  0  0  0  0
   20.3732    6.0758    4.3488 H   0  0  0  0  0  0  0  0  0  0  0  0
   18.2405    6.2565    4.6295 C   0  0  0  0  0  0  0  0  0  0  0  0
   18.2996    6.2491    5.7082 H   0  0  0  0  0  0  0  0  0  0  0  0
   17.0060    6.3340    4.0033 C   0  0  0  0  0  0  0  0  0  0  0  0
   16.1045    6.3893    4.5957 H   0  0  0  0  0  0  0  0  0  0  0  0
   16.9233    6.3258    2.6204 C   0  0  0  0  0  0  0  0  0  0  0  0
   15.9583    6.3746    2.1369 H   0  0  0  0  0  0  0  0  0  0  0  0
   18.0728    6.2451    1.8538 C   0  0  0  0  0  0  0  0  0  0  0  0
   18.0105    6.2256    0.7745 H   0  0  0  0  0  0  0  0  0  0  0  0
   20.5100    5.2003    0.0311 C   0  0  0  0  0  0  0  0  0  0  0  0
   20.7512    3.8325   -0.0450 C   0  0  0  0  0  0  0  0  0  0  0  0
   21.1529    3.3180    0.8216 H   0  0  0  0  0  0  0  0  0  0  0  0
   20.4559    3.1403   -1.2054 C   0  0  0  0  0  0  0  0  0  0  0  0
   20.6397    2.0775   -1.2608 H   0  0  0  0  0  0  0  0  0  0  0  0
   19.9239    3.8112   -2.2945 C   0  0  0  0  0  0  0  0  0  0  0  0
   19.6927    3.2721   -3.2015 H   0  0  0  0  0  0  0  0  0  0  0  0
   19.6893    5.1756   -2.2245 C   0  0  0  0  0  0  0  0  0  0  0  0
   19.2767    5.6973   -3.0760 H   0  0  0  0  0  0  0  0  0  0  0  0
   19.9819    5.8736   -1.0671 C   0  0  0  0  0  0  0  0  0  0  0  0
   19.8107    6.9405   -1.0146 H   0  0  0  0  0  0  0  0  0  0  0  0
  1  2  1  1  0  0  0
  1  3  1  0  0  0  0
  3  5  1  0  0  0  0
  3  4  1  0  0  0  0
  6 43  1  0  0  0  0
  6  1  1  0  0  0  0
  7  1  1  0  0  0  0
  7 15  1  0  0  0  0
  8  9  1  0  0  0  0
  8  7  2  0  0  0  0
  9 11  2  0  0  0  0
 10  9  1  0  0  0  0
 11 12  1  0  0  0  0
 11 13  1  0  0  0  0
 13 14  1  0  0  0  0
 15 13  2  0  0  0  0
 15 16  1  0  0  0  0
 17  8  1  0  0  0  0
 17 20  1  0  0  0  0
 18 17  1  0  0  0  0
 19 17  1  0  0  0  0
 20 23  1  0  0  0  0
 20 22  1  0  0  0  0
 21 20  1  0  0  0  0
 23  3  1  0  0  0  0
 23 24  1  0  0  0  0
 24 27  1  0  0  0  0
 24 25  1  0  0  0  0
 26 24  1  0  0  0  0
 28 29  1  0  0  0  0
 28 23  1  0  0  0  0
 30 28  1  0  0  0  0
 31 28  1  0  0  0  0
 32 41  1  0  0  0  0
 32  6  1  0  0  0  0
 33 32  2  0  0  0  0
 34 33  1  0  0  0  0
 35 33  1  0  0  0  0
 35 37  2  0  0  0  0
 36 35  1  0  0  0  0
 37 39  1  0  0  0  0
 38 37  1  0  0  0  0
 39 40  1  0  0  0  0
 39 41  2  0  0  0  0
 41 42  1  0  0  0  0
 43 44  1  0  0  0  0
 44 45  1  0  0  0  0
 44 46  2  0  0  0  0
 46 47  1  0  0  0  0
 48 49  1  0  0  0  0
 48 46  1  0  0  0  0
 50 48  2  0  0  0  0
 51 50  1  0  0  0  0
 52 43  2  0  0  0  0
 52 50  1  0  0  0  0
 53 52  1  0  0  0  0
 54  6  1  0  0  0  0
 55 54  1  0  0  0  0
 55 56  1  0  0  0  0
 57 55  2  0  0  0  0
 58 57  1  0  0  0  0
 59 61  2  0  0  0  0
 59 57  1  0  0  0  0
 60 59  1  0  0  0  0
 61 63  1  0  0  0  0
 62 61  1  0  0  0  0
 63 64  1  0  0  0  0
 63 54  2  0  0  0  0
M  END
$$$$
