CSD_code = OTAYAK | q = 0 | S = 0 | Stoichiometry = C15H17Cl2PPtSe | MND = 4
 OpenBabel04212202083D

 37 38  0  0  0  0  0  0  0  0999 V2000
    9.7595    4.3399    8.3065 Pt  0  0  0  0  0  0  0  0  0  0  0  0
   10.1637    3.1218   10.1623 P   0  0  0  0  0  4  0  0  0  0  0  0
   11.3544    3.0926    7.0651 Se  0  0  0  0  0  0  0  0  0  0  0  0
    8.1596    5.6419    9.2872 Cl  0  0  0  0  0  0  0  0  0  0  0  0
    9.5595    5.3210    6.2415 Cl  0  0  0  0  0  0  0  0  0  0  0  0
   11.2851    3.8568   11.3804 C   0  0  0  0  0  0  0  0  0  0  0  0
   12.4341    3.2638   11.8904 C   0  0  0  0  0  0  0  0  0  0  0  0
   12.7324    2.2727   11.5790 H   0  0  0  0  0  0  0  0  0  0  0  0
   13.2086    3.9503   12.8102 C   0  0  0  0  0  0  0  0  0  0  0  0
   14.1021    3.4896   13.2060 H   0  0  0  0  0  0  0  0  0  0  0  0
   12.8440    5.2215   13.2215 C   0  0  0  0  0  0  0  0  0  0  0  0
   13.4554    5.7499   13.9378 H   0  0  0  0  0  0  0  0  0  0  0  0
   11.7010    5.8175   12.7102 C   0  0  0  0  0  0  0  0  0  0  0  0
   11.4206    6.8111   13.0254 H   0  0  0  0  0  0  0  0  0  0  0  0
   10.9253    5.1413   11.7886 C   0  0  0  0  0  0  0  0  0  0  0  0
   10.0373    5.5936   11.3634 H   0  0  0  0  0  0  0  0  0  0  0  0
    8.7792    2.4812   11.1366 C   0  0  0  0  0  0  0  0  0  0  0  0
    8.9110    2.0974   12.4660 C   0  0  0  0  0  0  0  0  0  0  0  0
    9.8643    2.1999   12.9662 H   0  0  0  0  0  0  0  0  0  0  0  0
    7.8129    1.5981   13.1433 C   0  0  0  0  0  0  0  0  0  0  0  0
    7.9089    1.3023   14.1777 H   0  0  0  0  0  0  0  0  0  0  0  0
    6.5902    1.4846   12.5005 C   0  0  0  0  0  0  0  0  0  0  0  0
    5.7354    1.1011   13.0375 H   0  0  0  0  0  0  0  0  0  0  0  0
    6.4572    1.8734   11.1766 C   0  0  0  0  0  0  0  0  0  0  0  0
    5.5000    1.7972   10.6831 H   0  0  0  0  0  0  0  0  0  0  0  0
    7.5500    2.3733   10.4941 C   0  0  0  0  0  0  0  0  0  0  0  0
    7.4623    2.7153    9.4684 H   0  0  0  0  0  0  0  0  0  0  0  0
   10.1309    1.8749    6.1645 C   0  0  0  0  0  0  0  0  0  0  0  0
   10.6987    1.0509    5.7356 H   0  0  0  0  0  0  0  0  0  0  0  0
    9.6555    2.4559    5.3762 H   0  0  0  0  0  0  0  0  0  0  0  0
    9.3747    1.5103    6.8584 H   0  0  0  0  0  0  0  0  0  0  0  0
   12.0110    1.8563    8.4844 C   0  0  0  0  0  0  0  0  0  0  0  0
   12.3669    0.9418    8.0053 H   0  0  0  0  0  0  0  0  0  0  0  0
   12.8658    2.3771    8.9235 H   0  0  0  0  0  0  0  0  0  0  0  0
   10.9599    1.5600    9.5434 C   0  0  0  0  0  0  0  0  0  0  0  0
   11.3862    0.9909   10.3750 H   0  0  0  0  0  0  0  0  0  0  0  0
   10.1479    0.9582    9.1210 H   0  0  0  0  0  0  0  0  0  0  0  0
  1  4  1  0  0  0  0
  1  2  1  0  0  0  0
  2 17  1  0  0  0  0
  2  6  1  0  0  0  0
  3 32  1  0  0  0  0
  5  1  1  0  0  0  0
  6 15  2  0  0  0  0
  6  7  1  0  0  0  0
  7  9  2  0  0  0  0
  8  7  1  0  0  0  0
  9 10  1  0  0  0  0
  9 11  1  0  0  0  0
 11 12  1  0  0  0  0
 13 14  1  0  0  0  0
 13 11  2  0  0  0  0
 15 13  1  0  0  0  0
 16 15  1  0  0  0  0
 17 18  1  0  0  0  0
 18 19  1  0  0  0  0
 18 20  2  0  0  0  0
 20 21  1  0  0  0  0
 22 23  1  0  0  0  0
 22 20  1  0  0  0  0
 24 22  2  0  0  0  0
 25 24  1  0  0  0  0
 26 17  2  0  0  0  0
 26 24  1  0  0  0  0
 27 26  1  0  0  0  0
 28 31  1  0  0  0  0
 28  3  1  0  0  0  0
 29 28  1  0  0  0  0
 30 28  1  0  0  0  0
 32 34  1  0  0  0  0
 32 35  1  0  0  0  0
 33 32  1  0  0  0  0
 35  2  1  0  0  0  0
 35 36  1  0  0  0  0
 37 35  1  0  0  0  0
M  END
$$$$
