CSD_code = OVAHAW | q = 1 | S = 0 | Stoichiometry = C30H22ClN6ORu(1+) | MND = 6
 OpenBabel04212202083D

 61 69  0  0  0  0  0  0  0  0999 V2000
    5.9676    7.9552    3.4291 Ru  0  0  0  0  0  0  0  0  0  0  0  0
    6.4875    5.7856    4.0043 Cl  0  0  0  0  0  0  0  0  0  0  0  0
    1.6689    5.5948    4.4471 C   0  0  0  0  0  0  0  0  0  0  0  0
    0.6935    5.1365    4.3096 H   0  0  0  0  0  0  0  0  0  0  0  0
    1.6553    6.2879    5.2859 H   0  0  0  0  0  0  0  0  0  0  0  0
    2.4091    4.8273    4.6709 H   0  0  0  0  0  0  0  0  0  0  0  0
    1.4247    6.3508    2.1910 O   0  0  0  0  0  0  0  0  0  0  0  0
    6.8547    7.5532    1.6370 N   0  0  0  0  0  0  0  0  0  0  0  0
    4.6351    8.2415    4.7824 N   0  0  0  0  0  0  0  0  0  0  0  0
    7.6332    8.6782    4.3586 N   0  0  0  0  0  0  0  0  0  0  0  0
    5.7573    9.9343    2.9809 N   0  0  0  0  0  0  0  0  0  0  0  0
    7.6671   12.8393    4.2502 C   0  0  0  0  0  0  0  0  0  0  0  0
    7.6371   13.9173    4.2147 H   0  0  0  0  0  0  0  0  0  0  0  0
    4.0719    5.8025   -0.8891 C   0  0  0  0  0  0  0  0  0  0  0  0
    3.3246    5.3674   -1.5339 H   0  0  0  0  0  0  0  0  0  0  0  0
    8.6529   12.1956    4.9234 C   0  0  0  0  0  0  0  0  0  0  0  0
    9.4250   12.7518    5.4323 H   0  0  0  0  0  0  0  0  0  0  0  0
    7.6890    6.6593   -0.8642 C   0  0  0  0  0  0  0  0  0  0  0  0
    8.0083    6.3048   -1.8321 H   0  0  0  0  0  0  0  0  0  0  0  0
    8.7031   10.7722    4.9855 C   0  0  0  0  0  0  0  0  0  0  0  0
    9.6969   10.0497    5.6657 C   0  0  0  0  0  0  0  0  0  0  0  0
   10.4861   10.5735    6.1821 H   0  0  0  0  0  0  0  0  0  0  0  0
    8.5942    8.0249    4.9951 C   0  0  0  0  0  0  0  0  0  0  0  0
    8.5217    6.9433    4.9929 H   0  0  0  0  0  0  0  0  0  0  0  0
    5.3697    5.9082   -1.3138 C   0  0  0  0  0  3  0  0  0  0  0  0
    5.6652    5.5619   -2.2917 H   0  0  0  0  0  0  0  0  0  0  0  0
    8.5660    7.2600   -0.0008 C   0  0  0  0  0  0  0  0  0  0  0  0
    9.6033    7.3988   -0.2580 H   0  0  0  0  0  0  0  0  0  0  0  0
    4.6781   11.9180    2.2142 C   0  0  0  0  0  0  0  0  0  0  0  0
    3.8638   12.3461    1.6524 H   0  0  0  0  0  0  0  0  0  0  0  0
    6.6476   12.1181    3.5634 C   0  0  0  0  0  0  0  0  0  0  0  0
    8.1057    7.6867    1.2502 C   0  0  0  0  0  0  0  0  0  0  0  0
    8.7912    8.1454    1.9544 H   0  0  0  0  0  0  0  0  0  0  0  0
    3.6803    6.2517    0.3753 C   0  0  0  0  0  0  0  0  0  0  0  0
    2.6435    6.1703    0.6585 H   0  0  0  0  0  0  0  0  0  0  0  0
    6.3419    6.4960   -0.4790 C   0  0  0  0  0  0  0  0  0  0  0  0
    2.0710    6.3248    3.2084 C   0  0  0  0  0  0  0  0  0  0  0  0
    5.6046   12.7211    2.8427 C   0  0  0  0  0  0  0  0  0  0  0  0
    5.5389   13.7965    2.7877 H   0  0  0  0  0  0  0  0  0  0  0  0
    9.6398    8.6737    5.6534 C   0  0  0  0  0  0  0  0  0  0  0  0
   10.3892    8.0836    6.1558 H   0  0  0  0  0  0  0  0  0  0  0  0
    7.6949   10.0322    4.3333 C   0  0  0  0  0  0  0  0  0  0  0  0
    6.6758   10.7086    3.6050 C   0  0  0  0  0  0  0  0  0  0  0  0
    4.6035    6.8073    1.2462 C   0  0  0  0  0  0  0  0  0  0  0  0
    3.3734    7.0636    3.3747 C   0  0  0  0  0  0  0  0  0  0  0  0
    3.4826    7.7042    4.5456 N   0  0  0  0  0  0  0  0  0  0  0  0
    5.9589    6.9646    0.8039 C   0  0  0  0  0  0  0  0  0  0  0  0
    4.3904    7.2441    2.5369 N   0  0  0  0  0  0  0  0  0  0  0  0
    4.7881   10.5311    2.3031 C   0  0  0  0  0  0  0  0  0  0  0  0
    4.0666    9.8897    1.8104 H   0  0  0  0  0  0  0  0  0  0  0  0
    3.7281   11.2239    6.7313 C   0  0  0  0  0  0  0  0  0  0  0  0
    2.9512   11.9718    6.7665 H   0  0  0  0  0  0  0  0  0  0  0  0
    4.8039   11.2978    7.6035 C   0  0  0  0  0  0  0  0  0  0  0  0
    4.8652   12.1062    8.3151 H   0  0  0  0  0  0  0  0  0  0  0  0
    5.7893   10.3216    7.5783 C   0  0  0  0  0  0  0  0  0  0  0  0
    6.6064   10.3610    8.2823 H   0  0  0  0  0  0  0  0  0  0  0  0
    3.6422   10.1905    5.8197 C   0  0  0  0  0  0  0  0  0  0  0  0
    2.8124   10.1165    5.1320 H   0  0  0  0  0  0  0  0  0  0  0  0
    5.7224    9.2892    6.6638 C   0  0  0  0  0  0  0  0  0  0  0  0
    6.4546    8.4945    6.6653 H   0  0  0  0  0  0  0  0  0  0  0  0
    4.6558    9.2295    5.7647 C   0  0  0  0  0  0  0  0  0  0  0  0
  1  2  1  0  0  0  0
  1 10  1  0  0  0  0
  1  9  1  0  0  0  0
  3  6  1  0  0  0  0
  3  5  1  0  0  0  0
  4  3  1  0  0  0  0
  7 37  2  0  0  0  0
  8  1  1  0  0  0  0
  9 61  1  0  0  0  0
 10 23  1  0  0  0  0
 11  1  1  0  0  0  0
 11 43  1  0  0  0  0
 12 16  2  0  0  0  0
 13 12  1  0  0  0  0
 14 34  2  0  0  0  0
 15 14  1  0  0  0  0
 16 20  1  0  0  0  0
 16 17  1  0  0  0  0
 18 36  2  0  0  0  0
 18 27  1  0  0  0  0
 19 18  1  0  0  0  0
 20 21  2  0  0  0  0
 21 22  1  0  0  0  0
 23 40  2  0  0  0  0
 24 23  1  0  0  0  0
 25 14  1  0  0  0  0
 25 36  1  0  0  0  0
 26 25  1  0  0  0  0
 27 32  2  0  0  0  0
 28 27  1  0  0  0  0
 29 49  2  0  0  0  0
 29 38  1  0  0  0  0
 30 29  1  0  0  0  0
 31 43  1  0  0  0  0
 31 12  1  0  0  0  0
 32  8  1  0  0  0  0
 32 33  1  0  0  0  0
 34 35  1  0  0  0  0
 34 44  1  0  0  0  0
 36 47  1  0  0  0  0
 37 45  1  0  0  0  0
 37  3  1  0  0  0  0
 38 31  2  0  0  0  0
 39 38  1  0  0  0  0
 40 21  1  0  0  0  0
 40 41  1  0  0  0  0
 42 10  1  0  0  0  0
 42 20  1  0  0  0  0
 43 42  2  0  0  0  0
 44 48  1  0  0  0  0
 45 46  2  0  0  0  0
 46  9  1  0  0  0  0
 47 44  2  0  0  0  0
 47  8  1  0  0  0  0
 48 45  1  0  0  0  0
 48  1  1  0  0  0  0
 49 11  1  0  0  0  0
 50 49  1  0  0  0  0
 51 52  1  0  0  0  0
 51 53  1  0  0  0  0
 53 54  1  0  0  0  0
 55 53  2  0  0  0  0
 55 56  1  0  0  0  0
 57 51  2  0  0  0  0
 58 57  1  0  0  0  0
 59 60  1  0  0  0  0
 59 55  1  0  0  0  0
 61 57  1  0  0  0  0
 61 59  2  0  0  0  0
M  END
$$$$
