CSD_code = OVICUT | q = 1 | S = 0 | Stoichiometry = C25H27ClN7NiO2(1+) | MND = 6
 OpenBabel04212202083D

 63 67  0  0  1  0  0  0  0  0999 V2000
    1.3541    8.1463    2.6748 C   0  0  0  0  0  0  0  0  0  0  0  0
   -0.0061    7.8900    2.5171 C   0  0  0  0  0  0  0  0  0  0  0  0
   -0.4404    6.9614    2.8512 H   0  0  0  0  0  0  0  0  0  0  0  0
   -0.7910    8.8642    1.9161 C   0  0  0  0  0  0  0  0  0  0  0  0
   -1.8477    8.6934    1.7806 H   0  0  0  0  0  0  0  0  0  0  0  0
   -0.2242   10.0563    1.4870 C   0  0  0  0  0  0  0  0  0  0  0  0
   -0.8285   10.8163    1.0185 H   0  0  0  0  0  0  0  0  0  0  0  0
    1.1433   10.2407    1.6790 C   0  0  0  0  0  0  0  0  0  0  0  0
    1.9755   11.3693    1.3299 C   0  0  2  0  0  3  0  0  0  0  0  0
    2.8215   13.2699    0.6269 C   0  0  0  0  0  0  0  0  0  0  0  0
    3.0929   14.5262    0.1046 C   0  0  0  0  0  0  0  0  0  0  0  0
    2.3160   15.1344   -0.3312 H   0  0  0  0  0  0  0  0  0  0  0  0
    4.4010   14.9579    0.1698 C   0  0  0  0  0  0  0  0  0  0  0  0
    4.6553   15.9293   -0.2247 H   0  0  0  0  0  0  0  0  0  0  0  0
    5.4104   14.1690    0.7353 C   0  0  0  0  0  0  0  0  0  0  0  0
    6.4171   14.5557    0.7609 H   0  0  0  0  0  0  0  0  0  0  0  0
    5.1536   12.9210    1.2564 C   0  0  0  0  0  0  0  0  0  0  0  0
    5.9214   12.3032    1.6942 H   0  0  0  0  0  0  0  0  0  0  0  0
    3.8365   12.4656    1.2004 C   0  0  0  0  0  0  0  0  0  0  0  0
    2.3834    7.3156    3.2567 C   0  0  0  0  0  0  0  0  0  0  0  0
    3.5794    5.7383    4.2074 C   0  0  0  0  0  0  0  0  0  0  0  0
    4.0915    4.6042    4.8209 C   0  0  0  0  0  0  0  0  0  0  0  0
    3.4602    3.7669    5.0731 H   0  0  0  0  0  0  0  0  0  0  0  0
    5.4439    4.6000    5.0915 C   0  0  0  0  0  0  0  0  0  0  0  0
    5.8830    3.7372    5.5675 H   0  0  0  0  0  0  0  0  0  0  0  0
    6.2645    5.6866    4.7646 C   0  0  0  0  0  0  0  0  0  0  0  0
    7.3160    5.6306    4.9989 H   0  0  0  0  0  0  0  0  0  0  0  0
    5.7681    6.8170    4.1557 C   0  0  0  0  0  0  0  0  0  0  0  0
    6.3885    7.6606    3.8982 H   0  0  0  0  0  0  0  0  0  0  0  0
    4.4026    6.8412    3.8728 C   0  0  0  0  0  0  0  0  0  0  0  0
    3.9488   10.9537    5.3993 C   0  0  0  0  0  0  0  0  0  0  0  0
    5.0231   10.9059    5.1719 H   0  0  0  0  0  0  0  0  0  0  0  0
    2.3134   11.6439    7.0354 C   0  0  0  0  0  0  0  0  0  0  0  0
    1.6527   11.2471    6.2672 H   0  0  0  0  0  0  0  0  0  0  0  0
    2.0808   12.6960    7.2092 H   0  0  0  0  0  0  0  0  0  0  0  0
    2.1648   11.0919    7.9652 H   0  0  0  0  0  0  0  0  0  0  0  0
    4.7020   11.9815    7.4679 C   0  0  0  0  0  0  0  0  0  0  0  0
    5.6828   11.8209    7.0263 H   0  0  0  0  0  0  0  0  0  0  0  0
    4.6509   11.4534    8.4226 H   0  0  0  0  0  0  0  0  0  0  0  0
    4.5675   13.0489    7.6564 H   0  0  0  0  0  0  0  0  0  0  0  0
    5.0380    8.4249   -0.2063 C   0  0  0  0  0  0  0  0  0  0  0  0
    5.9684    8.6789    0.3209 H   0  0  0  0  0  0  0  0  0  0  0  0
    4.1171    7.5535   -2.2610 C   0  0  0  0  0  0  0  0  0  0  0  0
    3.1978    7.7396   -1.7094 H   0  0  0  0  0  0  0  0  0  0  0  0
    4.1816    6.4942   -2.5160 H   0  0  0  0  0  0  0  0  0  0  0  0
    4.1144    8.1382   -3.1827 H   0  0  0  0  0  0  0  0  0  0  0  0
    6.5444    7.7625   -1.9930 C   0  0  0  0  0  0  0  0  0  0  0  0
    7.3019    8.0909   -1.2851 H   0  0  0  0  0  0  0  0  0  0  0  0
    6.6393    8.3460   -2.9113 H   0  0  0  0  0  0  0  0  0  0  0  0
    6.7141    6.7105   -2.2334 H   0  0  0  0  0  0  0  0  0  0  0  0
    5.6575    9.8984    2.7283 Cl  0  0  0  0  0  0  0  0  0  0  0  0
    1.8835    9.2966    2.2594 N   0  0  0  0  0  0  0  0  0  0  0  0
    1.6614   12.5426    0.7280 N   0  0  0  0  0  0  0  0  0  0  0  0
    0.7506   12.8322    0.4115 H   0  0  0  0  0  0  0  0  0  0  0  0
    3.2679   11.2974    1.6225 N   0  0  0  0  0  0  0  0  0  0  0  0
    2.3119    6.0769    3.8026 N   0  0  0  0  0  0  0  0  0  0  0  0
    1.4876    5.5063    3.8953 H   0  0  0  0  0  0  0  0  0  0  0  0
    3.6205    7.7950    3.2858 N   0  0  0  0  0  0  0  0  0  0  0  0
    3.6761   11.5005    6.5788 N   0  0  0  0  0  0  0  0  0  0  0  0
    5.2317    7.9378   -1.4268 N   0  0  0  0  0  0  0  0  0  0  0  0
    3.6709    9.5835    2.4834 Ni  0  0  2  0  0  0  0  0  0  0  0  0
    3.0995   10.5333    4.6190 O   0  0  0  0  0  0  0  0  0  0  0  0
    3.9348    8.5856    0.3076 O   0  0  0  0  0  0  0  0  0  0  0  0
  1 20  2  0  0  0  0
  2  1  1  0  0  0  0
  2  3  1  0  0  0  0
  4  2  2  0  0  0  0
  5  4  1  0  0  0  0
  6  8  2  0  0  0  0
  6  4  1  0  0  0  0
  7  6  1  0  0  0  0
  8 52  1  0  0  0  0
  9 55  1  0  0  0  0
  9  8  1  6  0  0  0
 10 53  1  0  0  0  0
 10 19  1  0  0  0  0
 11 13  1  0  0  0  0
 11 10  2  0  0  0  0
 12 11  1  0  0  0  0
 13 15  2  0  0  0  0
 14 13  1  0  0  0  0
 15 16  1  0  0  0  0
 15 17  1  0  0  0  0
 17 18  1  0  0  0  0
 19 17  2  0  0  0  0
 19 55  1  0  0  0  0
 20 58  1  0  0  0  0
 20 56  1  0  0  0  0
 21 22  1  0  0  0  0
 22 23  1  0  0  0  0
 22 24  2  0  0  0  0
 24 25  1  0  0  0  0
 26 27  1  0  0  0  0
 26 24  1  0  0  0  0
 28 26  2  0  0  0  0
 29 28  1  0  0  0  0
 30 28  1  0  0  0  0
 30 21  2  0  0  0  0
 31 59  1  0  0  0  0
 32 31  1  0  0  0  0
 33 35  1  0  0  0  0
 33 36  1  0  0  0  0
 34 33  1  0  0  0  0
 37 40  1  0  0  0  0
 37 39  1  0  0  0  0
 38 37  1  0  0  0  0
 41 63  2  0  0  0  0
 41 42  1  0  0  0  0
 43 44  1  0  0  0  0
 43 60  1  0  0  0  0
 45 43  1  0  0  0  0
 46 43  1  0  0  0  0
 47 60  1  0  0  0  0
 47 48  1  0  0  0  0
 49 47  1  0  0  0  0
 50 47  1  0  0  0  0
 52 61  1  0  0  0  0
 52  1  1  0  0  0  0
 53  9  1  0  0  0  0
 54 53  1  0  0  0  0
 55 61  1  0  0  0  0
 56 57  1  0  0  0  0
 56 21  1  0  0  0  0
 58 30  1  0  0  0  0
 59 33  1  0  0  0  0
 59 37  1  0  0  0  0
 60 41  1  0  0  0  0
 61 51  1  6  0  0  0
 61 58  1  0  0  0  0
 62 31  2  0  0  0  0
M  END
$$$$
