CSD_code = OVILAH | q = 0 | S = 0 | Stoichiometry = C24H34Cl2N4SiTi | MND = 6
 OpenBabel04212202083D

 66 70  0  0  1  0  0  0  0  0999 V2000
   -0.0000   13.3745    1.7027 Ti  0  0  0  0  0  0  0  0  0  0  0  0
   -0.0000   13.3745    4.5842 Si  0  0  0  0  0  0  0  0  0  0  0  0
    2.0310   13.9516    0.9681 Cl  0  0  0  0  0  0  0  0  0  0  0  0
   -0.5143   15.2692    1.4005 N   0  0  0  0  0  0  0  0  0  0  0  0
   -0.7806   14.3062    3.3399 N   0  0  1  0  0  0  0  0  0  0  0  0
   -0.4935   16.2624    0.3386 C   0  0  0  0  0  0  0  0  0  0  0  0
   -0.5202   15.4474   -0.9658 C   0  0  0  0  0  0  0  0  0  0  0  0
   -1.3961   14.7952   -0.9751 H   0  0  0  0  0  0  0  0  0  0  0  0
    0.3834   14.8347   -1.0317 H   0  0  0  0  0  0  0  0  0  0  0  0
   -0.5631   16.1094   -1.8275 H   0  0  0  0  0  0  0  0  0  0  0  0
   -1.7617   17.1218    0.4431 C   0  0  0  0  0  0  0  0  0  0  0  0
   -1.7386   17.7265    1.3474 H   0  0  0  0  0  0  0  0  0  0  0  0
   -2.6397   16.4786    0.4732 H   0  0  0  0  0  0  0  0  0  0  0  0
   -1.8365   17.7825   -0.4169 H   0  0  0  0  0  0  0  0  0  0  0  0
    0.7585   17.1501    0.3585 C   0  0  0  0  0  0  0  0  0  0  0  0
    0.7450   17.8282    1.2084 H   0  0  0  0  0  0  0  0  0  0  0  0
    0.7959   17.7417   -0.5530 H   0  0  0  0  0  0  0  0  0  0  0  0
    1.6499   16.5269    0.4086 H   0  0  0  0  0  0  0  0  0  0  0  0
   -0.5085   15.4376    2.7003 C   0  0  1  0  0  3  0  0  0  0  0  0
   -0.1879   16.6675    3.4655 C   0  0  0  0  0  0  0  0  0  0  0  0
   -1.1849   17.4026    4.0937 C   0  0  0  0  0  0  0  0  0  0  0  0
   -2.2171   17.1046    3.9808 H   0  0  0  0  0  0  0  0  0  0  0  0
   -0.8492   18.5102    4.8538 C   0  0  0  0  0  0  0  0  0  0  0  0
   -1.6264   19.0865    5.3338 H   0  0  0  0  0  0  0  0  0  0  0  0
    0.4780   18.8760    5.0022 C   0  0  0  0  0  0  0  0  0  0  0  0
    0.7365   19.7393    5.5973 H   0  0  0  0  0  0  0  0  0  0  0  0
    1.4749   18.1319    4.3915 C   0  0  0  0  0  0  0  0  0  0  0  0
    2.5106   18.4122    4.5129 H   0  0  0  0  0  0  0  0  0  0  0  0
    1.1469   17.0285    3.6243 C   0  0  0  0  0  0  0  0  0  0  0  0
    1.9160   16.4381    3.1437 H   0  0  0  0  0  0  0  0  0  0  0  0
    1.3475   14.2190    5.6346 C   0  0  0  0  0  0  0  0  0  0  0  0
    0.9728   15.1451    6.0581 H   0  0  0  0  0  0  0  0  0  0  0  0
    2.2283   14.4503    5.0427 H   0  0  0  0  0  0  0  0  0  0  0  0
    1.6527   13.5791    6.4551 H   0  0  0  0  0  0  0  0  0  0  0  0
   -2.0310   12.7973    0.9681 Cl  0  0  0  0  0  0  0  0  0  0  0  0
    0.5144   11.4799    1.4006 N   0  0  0  0  0  0  0  0  0  0  0  0
    0.7806   12.4428    3.3399 N   0  0  1  0  0  0  0  0  0  0  0  0
    0.4935   10.4867    0.3387 C   0  0  0  0  0  0  0  0  0  0  0  0
    0.5202   11.3016   -0.9658 C   0  0  0  0  0  0  0  0  0  0  0  0
    1.3961   11.9538   -0.9751 H   0  0  0  0  0  0  0  0  0  0  0  0
   -0.3834   11.9143   -1.0317 H   0  0  0  0  0  0  0  0  0  0  0  0
    0.5631   10.6395   -1.8275 H   0  0  0  0  0  0  0  0  0  0  0  0
    1.7617    9.6272    0.4432 C   0  0  0  0  0  0  0  0  0  0  0  0
    1.7385    9.0225    1.3474 H   0  0  0  0  0  0  0  0  0  0  0  0
    2.6397   10.2703    0.4733 H   0  0  0  0  0  0  0  0  0  0  0  0
    1.8365    8.9665   -0.4168 H   0  0  0  0  0  0  0  0  0  0  0  0
   -0.7586    9.5989    0.3586 C   0  0  0  0  0  0  0  0  0  0  0  0
   -0.7451    8.9209    1.2085 H   0  0  0  0  0  0  0  0  0  0  0  0
   -0.7960    9.0073   -0.5529 H   0  0  0  0  0  0  0  0  0  0  0  0
   -1.6499   10.2222    0.4086 H   0  0  0  0  0  0  0  0  0  0  0  0
    0.5086   11.3114    2.7003 C   0  0  1  0  0  3  0  0  0  0  0  0
    0.1880   10.0816    3.4656 C   0  0  0  0  0  0  0  0  0  0  0  0
    1.1849    9.3464    4.0937 C   0  0  0  0  0  0  0  0  0  0  0  0
    2.2172    9.6444    3.9808 H   0  0  0  0  0  0  0  0  0  0  0  0
    0.8493    8.2388    4.8538 C   0  0  0  0  0  0  0  0  0  0  0  0
    1.6264    7.6625    5.3337 H   0  0  0  0  0  0  0  0  0  0  0  0
   -0.4780    7.8730    5.0022 C   0  0  0  0  0  0  0  0  0  0  0  0
   -0.7364    7.0097    5.5973 H   0  0  0  0  0  0  0  0  0  0  0  0
   -1.4748    8.6171    4.3916 C   0  0  0  0  0  0  0  0  0  0  0  0
   -2.5106    8.3368    4.5129 H   0  0  0  0  0  0  0  0  0  0  0  0
   -1.1468    9.7205    3.6243 C   0  0  0  0  0  0  0  0  0  0  0  0
   -1.9160   10.3110    3.1438 H   0  0  0  0  0  0  0  0  0  0  0  0
   -1.3476   12.5300    5.6345 C   0  0  0  0  0  0  0  0  0  0  0  0
   -0.9731   11.6038    6.0579 H   0  0  0  0  0  0  0  0  0  0  0  0
   -2.2285   12.2988    5.0426 H   0  0  0  0  0  0  0  0  0  0  0  0
   -1.6528   13.1697    6.4551 H   0  0  0  0  0  0  0  0  0  0  0  0
  1  5  1  0  0  0  0
  1 37  1  0  0  0  0
  2 63  1  0  0  0  0
  2 31  1  0  0  0  0
  3  1  1  0  0  0  0
  4  1  1  0  0  0  0
  4 19  1  0  0  0  0
  5  2  1  1  0  0  0
  6 15  1  0  0  0  0
  6 11  1  0  0  0  0
  6  4  1  0  0  0  0
  7  6  1  0  0  0  0
  8  7  1  0  0  0  0
  9  7  1  0  0  0  0
 10  7  1  0  0  0  0
 11 13  1  0  0  0  0
 11 12  1  0  0  0  0
 14 11  1  0  0  0  0
 15 18  1  0  0  0  0
 15 16  1  0  0  0  0
 17 15  1  0  0  0  0
 19  5  1  0  0  0  0
 19 20  1  1  0  0  0
 20 29  2  0  0  0  0
 20 21  1  0  0  0  0
 21 23  2  0  0  0  0
 22 21  1  0  0  0  0
 23 25  1  0  0  0  0
 23 24  1  0  0  0  0
 25 26  1  0  0  0  0
 27 28  1  0  0  0  0
 27 25  2  0  0  0  0
 29 27  1  0  0  0  0
 30 29  1  0  0  0  0
 31 32  1  0  0  0  0
 31 34  1  0  0  0  0
 33 31  1  0  0  0  0
 35  1  1  0  0  0  0
 36  1  1  0  0  0  0
 36 51  1  0  0  0  0
 37  2  1  1  0  0  0
 38 47  1  0  0  0  0
 38 43  1  0  0  0  0
 38 36  1  0  0  0  0
 39 38  1  0  0  0  0
 40 39  1  0  0  0  0
 41 39  1  0  0  0  0
 42 39  1  0  0  0  0
 43 45  1  0  0  0  0
 43 44  1  0  0  0  0
 46 43  1  0  0  0  0
 47 50  1  0  0  0  0
 47 48  1  0  0  0  0
 49 47  1  0  0  0  0
 51 37  1  0  0  0  0
 51 52  1  1  0  0  0
 52 61  2  0  0  0  0
 52 53  1  0  0  0  0
 53 55  2  0  0  0  0
 54 53  1  0  0  0  0
 55 57  1  0  0  0  0
 55 56  1  0  0  0  0
 57 58  1  0  0  0  0
 59 60  1  0  0  0  0
 59 57  2  0  0  0  0
 61 59  1  0  0  0  0
 62 61  1  0  0  0  0
 63 64  1  0  0  0  0
 63 66  1  0  0  0  0
 65 63  1  0  0  0  0
M  END
$$$$
