CSD_code = OVOKIU | q = 0 | S = 0 | Stoichiometry = C13H19ClMoN2O3 | MND = 6
 OpenBabel04212202083D

 39 42  0  0  1  0  0  0  0  0999 V2000
    7.3282    3.0546    1.6860 Mo  0  0  0  0  0  0  0  0  0  0  0  0
    4.6455    3.5954    1.3457 C   0  0  0  0  0  0  0  0  0  0  0  0
    3.9988    4.1516    0.2415 C   0  0  0  0  0  0  0  0  0  0  0  0
    4.4792    4.9745   -0.2699 H   0  0  0  0  0  0  0  0  0  0  0  0
    2.7863    3.6409   -0.1809 C   0  0  0  0  0  0  0  0  0  0  0  0
    2.2950    4.0737   -1.0393 H   0  0  0  0  0  0  0  0  0  0  0  0
    2.2007    2.5796    0.4903 C   0  0  0  0  0  0  0  0  0  0  0  0
    1.2520    2.1848    0.1610 H   0  0  0  0  0  0  0  0  0  0  0  0
    2.8384    2.0220    1.5853 C   0  0  0  0  0  0  0  0  0  0  0  0
    2.3818    1.1932    2.1087 H   0  0  0  0  0  0  0  0  0  0  0  0
    4.0588    2.5124    2.0244 C   0  0  0  0  0  0  0  0  0  0  0  0
    4.7697    1.9456    3.2266 C   0  0  0  0  0  0  0  0  0  0  0  0
    4.9659    2.7587    3.9392 H   0  0  0  0  0  0  0  0  0  0  0  0
    4.1259    1.1973    3.7167 H   0  0  0  0  0  0  0  0  0  0  0  0
    6.7837    0.8953    4.0677 C   0  0  0  0  0  0  0  0  0  0  0  0
    6.4050   -0.0809    4.4024 H   0  0  0  0  0  0  0  0  0  0  0  0
    6.6097    1.6199    4.8655 H   0  0  0  0  0  0  0  0  0  0  0  0
    8.3008    0.8487    3.7821 C   0  0  0  0  0  0  0  0  0  0  0  0
    8.7946    1.5622    4.4455 H   0  0  0  0  0  0  0  0  0  0  0  0
    8.7184   -0.1492    3.9709 H   0  0  0  0  0  0  0  0  0  0  0  0
    5.8361    0.1919    1.9820 C   0  0  0  0  0  0  0  0  0  0  0  0
    5.5252    0.5826    1.0107 H   0  0  0  0  0  0  0  0  0  0  0  0
    5.0268   -0.4356    2.3896 H   0  0  0  0  0  0  0  0  0  0  0  0
    7.0779   -0.6815    1.8077 C   0  0  0  0  0  0  0  0  0  0  0  0
    6.8931   -1.3612    0.9740 H   0  0  0  0  0  0  0  0  0  0  0  0
    7.2218   -1.3028    2.6945 H   0  0  0  0  0  0  0  0  0  0  0  0
    8.3626    0.0899    1.5023 C   0  0  0  0  0  0  0  0  0  0  0  0
    9.2092   -0.6069    1.6034 H   0  0  0  0  0  0  0  0  0  0  0  0
    8.3285    0.4690    0.4771 H   0  0  0  0  0  0  0  0  0  0  0  0
    9.9965    1.6409    2.2880 C   0  0  0  0  0  0  0  0  0  0  0  0
   10.1746    2.5281    2.8973 H   0  0  0  0  0  0  0  0  0  0  0  0
   10.2214    1.8918    1.2502 H   0  0  0  0  0  0  0  0  0  0  0  0
   10.6514    0.8258    2.6247 H   0  0  0  0  0  0  0  0  0  0  0  0
    7.6251    3.7795    3.9522 Cl  0  0  0  0  0  0  0  0  0  0  0  0
    6.0651    1.3403    2.8712 N   0  0  2  0  0  4  0  0  0  0  0  0
    8.5850    1.2496    2.3931 N   0  0  1  0  0  4  0  0  0  0  0  0
    8.6430    3.9510    1.2564 O   0  0  0  0  0  1  0  0  0  0  0  0
    6.9117    2.1200    0.3899 O   0  0  0  0  0  1  0  0  0  0  0  0
    5.8113    4.0741    1.7668 O   0  0  0  0  0  0  0  0  0  0  0  0
  1 39  1  0  0  0  0
  1 36  1  0  0  0  0
  1 35  1  0  0  0  0
  1 34  1  0  0  0  0
  2 39  1  0  0  0  0
  2 11  1  0  0  0  0
  3  2  2  0  0  0  0
  4  3  1  0  0  0  0
  5  3  1  0  0  0  0
  5  7  2  0  0  0  0
  6  5  1  0  0  0  0
  7  9  1  0  0  0  0
  8  7  1  0  0  0  0
  9 11  2  0  0  0  0
  9 10  1  0  0  0  0
 11 12  1  0  0  0  0
 12 14  1  0  0  0  0
 12 13  1  0  0  0  0
 15 16  1  0  0  0  0
 15 17  1  0  0  0  0
 18 20  1  0  0  0  0
 18 15  1  0  0  0  0
 18 19  1  0  0  0  0
 21 23  1  0  0  0  0
 22 21  1  0  0  0  0
 24 21  1  0  0  0  0
 24 26  1  0  0  0  0
 25 24  1  0  0  0  0
 27 28  1  0  0  0  0
 27 24  1  0  0  0  0
 27 36  1  0  0  0  0
 29 27  1  0  0  0  0
 30 33  1  0  0  0  0
 30 31  1  0  0  0  0
 32 30  1  0  0  0  0
 35 21  1  6  0  0  0
 35 12  1  0  0  0  0
 35 15  1  0  0  0  0
 36 30  1  6  0  0  0
 36 18  1  0  0  0  0
 37  1  1  0  0  0  0
 38  1  1  0  0  0  0
M  END
$$$$
