CSD_code = OWEJIL | q = 0 | S = 0 | Stoichiometry = C20H24I2N2Pd | MND = 4
 OpenBabel04212202083D

 49 51  0  0  0  0  0  0  0  0999 V2000
   15.3741   12.9407   21.5848 Pd  0  0  0  0  0  0  0  0  0  0  0  0
   13.6989   11.1906   22.5061 I   0  0  0  0  0  0  0  0  0  0  0  0
   14.7267   14.4661   22.6836 N   0  0  0  0  0  0  0  0  0  0  0  0
   15.0584   15.6318   22.2180 C   0  0  0  0  0  0  0  0  0  0  0  0
   14.8801   16.5448   22.7800 H   0  0  0  0  0  0  0  0  0  0  0  0
   14.1888   14.3055   23.9687 C   0  0  0  0  0  0  0  0  0  0  0  0
   15.0049   13.7483   24.9638 C   0  0  0  0  0  0  0  0  0  0  0  0
   14.4678   13.5589   26.2238 C   0  0  0  0  0  0  0  0  0  0  0  0
   15.0870   13.1290   26.9976 H   0  0  0  0  0  0  0  0  0  0  0  0
   13.1485   13.8889   26.5092 C   0  0  0  0  0  0  0  0  0  0  0  0
   12.3569   14.4130   25.4977 C   0  0  0  0  0  0  0  0  0  0  0  0
   11.3214   14.6458   25.6984 H   0  0  0  0  0  0  0  0  0  0  0  0
   12.8535   14.6283   24.2226 C   0  0  0  0  0  0  0  0  0  0  0  0
   16.4199   13.3581   24.6451 C   0  0  0  0  0  0  0  0  0  0  0  0
   16.4442   12.5903   23.8448 H   0  0  0  0  0  0  0  0  0  0  0  0
   16.9034   12.9322   25.5203 H   0  0  0  0  0  0  0  0  0  0  0  0
   17.0047   14.2228   24.3150 H   0  0  0  0  0  0  0  0  0  0  0  0
   12.5863   13.6367   27.8727 C   0  0  0  0  0  0  0  0  0  0  0  0
   12.3263   12.5828   27.9718 H   0  0  0  0  0  0  0  0  0  0  0  0
   11.6880   14.2254   28.0401 H   0  0  0  0  0  0  0  0  0  0  0  0
   13.3166   13.8748   28.6431 H   0  0  0  0  0  0  0  0  0  0  0  0
   11.9777   15.1273   23.1129 C   0  0  0  0  0  0  0  0  0  0  0  0
   12.2302   16.1514   22.8344 H   0  0  0  0  0  0  0  0  0  0  0  0
   10.9345   15.1027   23.4148 H   0  0  0  0  0  0  0  0  0  0  0  0
   12.0966   14.4965   22.2291 H   0  0  0  0  0  0  0  0  0  0  0  0
   16.0210   14.4661   20.4860 N   0  0  0  0  0  0  0  0  0  0  0  0
   15.6894   15.6318   20.9517 C   0  0  0  0  0  0  0  0  0  0  0  0
   15.8677   16.5449   20.3897 H   0  0  0  0  0  0  0  0  0  0  0  0
   16.5588   14.3055   19.2009 C   0  0  0  0  0  0  0  0  0  0  0  0
   15.7427   13.7484   18.2058 C   0  0  0  0  0  0  0  0  0  0  0  0
   16.2797   13.5589   16.9457 C   0  0  0  0  0  0  0  0  0  0  0  0
   15.6606   13.1290   16.1720 H   0  0  0  0  0  0  0  0  0  0  0  0
   17.5991   13.8889   16.6604 C   0  0  0  0  0  0  0  0  0  0  0  0
   18.3907   14.4130   17.6718 C   0  0  0  0  0  0  0  0  0  0  0  0
   19.4262   14.6457   17.4711 H   0  0  0  0  0  0  0  0  0  0  0  0
   17.8941   14.6283   18.9469 C   0  0  0  0  0  0  0  0  0  0  0  0
   14.3277   13.3582   18.5245 C   0  0  0  0  0  0  0  0  0  0  0  0
   14.3034   12.5902   19.3246 H   0  0  0  0  0  0  0  0  0  0  0  0
   13.8441   12.9325   17.6492 H   0  0  0  0  0  0  0  0  0  0  0  0
   13.7430   14.2228   18.8549 H   0  0  0  0  0  0  0  0  0  0  0  0
   18.1613   13.6366   15.2969 C   0  0  0  0  0  0  0  0  0  0  0  0
   18.4211   12.5826   15.1978 H   0  0  0  0  0  0  0  0  0  0  0  0
   19.0596   14.2252   15.1295 H   0  0  0  0  0  0  0  0  0  0  0  0
   17.4310   13.8747   14.5265 H   0  0  0  0  0  0  0  0  0  0  0  0
   18.7699   15.1274   20.0566 C   0  0  0  0  0  0  0  0  0  0  0  0
   18.5175   16.1516   20.3349 H   0  0  0  0  0  0  0  0  0  0  0  0
   19.8131   15.1027   19.7548 H   0  0  0  0  0  0  0  0  0  0  0  0
   18.6509   14.4968   20.9404 H   0  0  0  0  0  0  0  0  0  0  0  0
   17.0492   11.1910   20.6632 I   0  0  0  0  0  0  0  0  0  0  0  0
  1  2  1  0  0  0  0
  1  3  1  0  0  0  0
  3  6  1  0  0  0  0
  4  3  1  0  0  0  0
  4  5  1  0  0  0  0
  6 13  2  0  0  0  0
  6  7  1  0  0  0  0
  7  8  2  0  0  0  0
  8 10  1  0  0  0  0
  8  9  1  0  0  0  0
 10 18  1  0  0  0  0
 11 12  1  0  0  0  0
 11 10  2  0  0  0  0
 13 11  1  0  0  0  0
 14  7  1  0  0  0  0
 14 16  1  0  0  0  0
 15 14  1  0  0  0  0
 17 14  1  0  0  0  0
 18 19  1  0  0  0  0
 18 20  1  0  0  0  0
 18 21  1  0  0  0  0
 22 24  1  0  0  0  0
 22 13  1  0  0  0  0
 23 22  1  0  0  0  0
 25 22  1  0  0  0  0
 26 27  1  0  0  0  0
 26  1  1  0  0  0  0
 27  4  2  0  0  0  0
 28 27  1  0  0  0  0
 29 26  1  0  0  0  0
 30 37  1  0  0  0  0
 30 29  2  0  0  0  0
 31 30  1  0  0  0  0
 32 31  1  0  0  0  0
 33 31  2  0  0  0  0
 33 34  1  0  0  0  0
 34 36  2  0  0  0  0
 35 34  1  0  0  0  0
 36 29  1  0  0  0  0
 36 45  1  0  0  0  0
 37 40  1  0  0  0  0
 37 38  1  0  0  0  0
 39 37  1  0  0  0  0
 41 33  1  0  0  0  0
 42 41  1  0  0  0  0
 43 41  1  0  0  0  0
 44 41  1  0  0  0  0
 45 46  1  0  0  0  0
 45 48  1  0  0  0  0
 47 45  1  0  0  0  0
 49  1  1  0  0  0  0
M  END
$$$$
