CSD_code = OWEPIQ | q = 0 | S = 0 | Stoichiometry = C25H17ClNOPPdS2 | MND = 4
 OpenBabel04212202083D

 49 55  0  0  1  0  0  0  0  0999 V2000
    7.2507    0.1316    3.1444 Pd  0  0  2  0  0  0  0  0  0  0  0  0
    8.4005    1.3669    1.5711 Cl  0  0  0  0  0  0  0  0  0  0  0  0
    8.4361   -1.8224    4.7139 P   0  0  0  0  0  4  0  0  0  0  0  0
    9.2268   -0.0264    4.4378 S   0  0  0  0  0  0  0  0  0  0  0  0
    3.1895    1.6979    2.0270 S   0  0  0  0  0  0  0  0  0  0  0  0
    5.3997    0.3594    2.2234 N   0  0  0  0  0  0  0  0  0  0  0  0
    4.1072    0.5857    4.1906 O   0  0  0  0  0  0  0  0  0  0  0  0
    4.8573   -0.3187    4.9532 C   0  0  2  0  0  3  0  0  0  0  0  0
    6.1543   -0.6762    4.6143 C   0  0  0  0  0  0  0  0  0  0  0  0
    6.7871   -1.6180    5.4342 C   0  0  0  0  0  0  0  0  0  0  0  0
    6.1831   -2.1828    6.5457 C   0  0  0  0  0  0  0  0  0  0  0  0
    6.7014   -2.9130    7.1512 H   0  0  0  0  0  0  0  0  0  0  0  0
    4.8975   -1.7730    6.8653 C   0  0  0  0  0  0  0  0  0  0  0  0
    4.4043   -2.1799    7.7349 H   0  0  0  0  0  0  0  0  0  0  0  0
    4.2320   -0.8471    6.0776 C   0  0  0  0  0  0  0  0  0  0  0  0
    3.2288   -0.5311    6.3188 H   0  0  0  0  0  0  0  0  0  0  0  0
    4.3986    0.8011    2.9242 C   0  0  2  0  0  3  0  0  0  0  0  0
    5.2651    0.6592    0.8850 C   0  0  0  0  0  0  0  0  0  0  0  0
    6.1160    0.2372   -0.1304 C   0  0  0  0  0  0  0  0  0  0  0  0
    6.9741   -0.3709    0.1192 H   0  0  0  0  0  0  0  0  0  0  0  0
    5.8424    0.6345   -1.4230 C   0  0  0  0  0  0  0  0  0  0  0  0
    6.5008    0.3303   -2.2216 H   0  0  0  0  0  0  0  0  0  0  0  0
    4.7342    1.4254   -1.7146 C   0  0  0  0  0  0  0  0  0  0  0  0
    4.5493    1.7308   -2.7330 H   0  0  0  0  0  0  0  0  0  0  0  0
    3.8561    1.8170   -0.7217 C   0  0  0  0  0  0  0  0  0  0  0  0
    2.9845    2.4120   -0.9416 H   0  0  0  0  0  0  0  0  0  0  0  0
    4.1255    1.4177    0.5756 C   0  0  0  0  0  0  0  0  0  0  0  0
    9.4770   -2.8550    5.7777 C   0  0  0  0  0  0  0  0  0  0  0  0
    9.6062   -2.4595    7.1052 C   0  0  0  0  0  0  0  0  0  0  0  0
    9.0717   -1.5834    7.4491 H   0  0  0  0  0  0  0  0  0  0  0  0
   10.4184   -3.1805    7.9598 C   0  0  0  0  0  0  0  0  0  0  0  0
   10.5201   -2.8790    8.9916 H   0  0  0  0  0  0  0  0  0  0  0  0
   11.1059   -4.2880    7.4872 C   0  0  0  0  0  0  0  0  0  0  0  0
   11.7417   -4.8502    8.1547 H   0  0  0  0  0  0  0  0  0  0  0  0
   10.9881   -4.6716    6.1610 C   0  0  0  0  0  0  0  0  0  0  0  0
   11.5339   -5.5288    5.7956 H   0  0  0  0  0  0  0  0  0  0  0  0
   10.1753   -3.9558    5.2998 C   0  0  0  0  0  0  0  0  0  0  0  0
   10.0807   -4.2439    4.2619 H   0  0  0  0  0  0  0  0  0  0  0  0
    8.1219   -2.7475    3.1673 C   0  0  0  0  0  0  0  0  0  0  0  0
    7.4350   -3.9551    3.2377 C   0  0  0  0  0  0  0  0  0  0  0  0
    7.1531   -4.3520    4.2043 H   0  0  0  0  0  0  0  0  0  0  0  0
    7.1145   -4.6288    2.0725 C   0  0  0  0  0  0  0  0  0  0  0  0
    6.5764   -5.5637    2.1229 H   0  0  0  0  0  0  0  0  0  0  0  0
    7.4795   -4.1006    0.8443 C   0  0  0  0  0  0  0  0  0  0  0  0
    7.2234   -4.6268   -0.0631 H   0  0  0  0  0  0  0  0  0  0  0  0
    8.1775   -2.9043    0.7748 C   0  0  0  0  0  0  0  0  0  0  0  0
    8.4782   -2.5087   -0.1841 H   0  0  0  0  0  0  0  0  0  0  0  0
    8.5008   -2.2143    1.9337 C   0  0  0  0  0  0  0  0  0  0  0  0
    9.0896   -1.2949    1.8813 H   0  0  0  0  0  0  0  0  0  0  0  0
  1  2  1  1  0  0  0
  1  4  1  0  0  0  0
  1  9  2  0  0  0  0
  3 10  1  0  0  0  0
  3 28  1  0  0  0  0
  4  3  1  0  0  0  0
  6 17  1  0  0  0  0
  6  1  1  0  0  0  0
  8  7  1  6  0  0  0
  8 15  1  0  0  0  0
  9  8  1  0  0  0  0
  9 10  1  0  0  0  0
 10 11  2  0  0  0  0
 11 13  1  0  0  0  0
 11 12  1  0  0  0  0
 13 14  1  0  0  0  0
 15 16  1  0  0  0  0
 15 13  2  0  0  0  0
 17  5  1  6  0  0  0
 17  7  1  0  0  0  0
 18  6  1  0  0  0  0
 19 20  1  0  0  0  0
 19 18  2  0  0  0  0
 21 19  1  0  0  0  0
 22 21  1  0  0  0  0
 23 21  2  0  0  0  0
 23 25  1  0  0  0  0
 24 23  1  0  0  0  0
 25 27  2  0  0  0  0
 26 25  1  0  0  0  0
 27 18  1  0  0  0  0
 27  5  1  0  0  0  0
 28 29  1  0  0  0  0
 29 30  1  0  0  0  0
 29 31  2  0  0  0  0
 31 32  1  0  0  0  0
 33 31  1  0  0  0  0
 33 34  1  0  0  0  0
 35 33  2  0  0  0  0
 36 35  1  0  0  0  0
 37 28  2  0  0  0  0
 37 35  1  0  0  0  0
 38 37  1  0  0  0  0
 39 40  1  0  0  0  0
 39  3  1  0  0  0  0
 40 41  1  0  0  0  0
 42 43  1  0  0  0  0
 42 40  2  0  0  0  0
 44 42  1  0  0  0  0
 45 44  1  0  0  0  0
 46 44  2  0  0  0  0
 46 48  1  0  0  0  0
 47 46  1  0  0  0  0
 48 39  2  0  0  0  0
 49 48  1  0  0  0  0
M  END
$$$$
