CSD_code = OWEVES | q = 0 | S = 0 | Stoichiometry = C13H11BrN2PdS | MND = 4
 OpenBabel04212202083D

 29 32  0  0  0  0  0  0  0  0999 V2000
    8.8693    1.8984    1.4798 Pd  0  0  1  0  0  0  0  0  0  0  0  0
    7.4137    3.7170    1.4693 Br  0  0  0  0  0  0  0  0  0  0  0  0
   10.8543    3.1757    0.6048 S   0  0  2  0  0  3  0  0  0  0  0  0
   10.1116    0.3981    1.5668 N   0  0  0  0  0  0  0  0  0  0  0  0
   11.9570    1.7751    0.8497 C   0  0  0  0  0  0  0  0  0  0  0  0
    7.6517    0.4734    2.1766 C   0  0  0  0  0  0  0  0  0  0  0  0
    9.6964   -0.7491    1.9585 N   0  0  0  0  0  0  0  0  0  0  0  0
   12.3642   -0.5234    1.4513 C   0  0  0  0  0  0  0  0  0  0  0  0
   11.9740   -1.4709    1.7891 H   0  0  0  0  0  0  0  0  0  0  0  0
    8.3742   -0.7530    2.2690 C   0  0  0  0  0  0  0  0  0  0  0  0
    7.7406   -1.9300    2.6921 C   0  0  0  0  0  0  0  0  0  0  0  0
    8.3162   -2.8408    2.7496 H   0  0  0  0  0  0  0  0  0  0  0  0
   13.3028    1.9404    0.5772 C   0  0  0  0  0  0  0  0  0  0  0  0
   13.6546    2.8997    0.2287 H   0  0  0  0  0  0  0  0  0  0  0  0
   11.4648    0.5372    1.2881 C   0  0  0  0  0  0  0  0  0  0  0  0
    5.6928   -0.7017    2.9305 C   0  0  0  0  0  0  0  0  0  0  0  0
    4.6438   -0.6863    3.1878 H   0  0  0  0  0  0  0  0  0  0  0  0
    6.4042   -1.8946    3.0181 C   0  0  0  0  0  0  0  0  0  0  0  0
    5.9035   -2.7948    3.3424 H   0  0  0  0  0  0  0  0  0  0  0  0
   10.9927    3.9330    2.2687 C   0  0  0  0  0  0  0  0  0  0  0  0
   10.5877    3.2579    3.0363 H   0  0  0  0  0  0  0  0  0  0  0  0
   10.4052    4.8483    2.2325 H   0  0  0  0  0  0  0  0  0  0  0  0
   12.0364    4.1604    2.4682 H   0  0  0  0  0  0  0  0  0  0  0  0
    6.3091    0.4720    2.5143 C   0  0  0  0  0  0  0  0  0  0  0  0
    5.7297    1.3847    2.4567 H   0  0  0  0  0  0  0  0  0  0  0  0
   14.1802    0.8825    0.7470 C   0  0  0  0  0  0  0  0  0  0  0  0
   15.2296    1.0165    0.5356 H   0  0  0  0  0  0  0  0  0  0  0  0
   13.7049   -0.3470    1.1821 C   0  0  0  0  0  0  0  0  0  0  0  0
   14.3874   -1.1733    1.3097 H   0  0  0  0  0  0  0  0  0  0  0  0
  1  2  1  1  0  0  0
  1  4  1  0  0  0  0
  1  6  2  0  0  0  0
  3  5  1  0  0  0  0
  3  1  1  0  0  0  0
  3 20  1  1  0  0  0
  4  7  1  0  0  0  0
  5 15  1  0  0  0  0
  6 10  1  0  0  0  0
  6 24  1  0  0  0  0
  7 10  2  0  0  0  0
  8  9  1  0  0  0  0
 10 11  1  0  0  0  0
 11 12  1  0  0  0  0
 11 18  2  0  0  0  0
 13 26  1  0  0  0  0
 13  5  2  0  0  0  0
 14 13  1  0  0  0  0
 15  8  2  0  0  0  0
 15  4  1  0  0  0  0
 16 18  1  0  0  0  0
 16 17  1  0  0  0  0
 18 19  1  0  0  0  0
 20 23  1  0  0  0  0
 20 21  1  0  0  0  0
 22 20  1  0  0  0  0
 24 16  2  0  0  0  0
 25 24  1  0  0  0  0
 26 28  2  0  0  0  0
 27 26  1  0  0  0  0
 28 29  1  0  0  0  0
 28  8  1  0  0  0  0
M  END
$$$$
