CSD_code = OWEVIW | q = 0 | S = 0 | Stoichiometry = C15H15BrN2PdS | MND = 4
 OpenBabel04212202083D

 35 38  0  0  0  0  0  0  0  0999 V2000
   -1.5093   11.1267    6.9492 Pd  0  0  2  0  0  0  0  0  0  0  0  0
   -1.3710   13.1338    5.7495 Br  0  0  0  0  0  0  0  0  0  0  0  0
   -1.7478    9.6518    4.9557 S   0  0  2  0  0  3  0  0  0  0  0  0
   -1.5851    8.1561    5.9331 C   0  0  0  0  0  0  0  0  0  0  0  0
   -1.5869    9.4920    9.2387 N   0  0  0  0  0  0  0  0  0  0  0  0
   -1.4760   11.8453    8.8166 C   0  0  0  0  0  0  0  0  0  0  0  0
   -1.5845    9.4584    7.9579 N   0  0  0  0  0  0  0  0  0  0  0  0
   -1.5591    8.2210    7.3346 C   0  0  0  0  0  0  0  0  0  0  0  0
   -1.5269    6.9351    5.2849 C   0  0  0  0  0  0  0  0  0  0  0  0
   -1.5633    6.9077    4.2061 H   0  0  0  0  0  0  0  0  0  0  0  0
   -0.0342    9.7936    4.3149 C   0  0  0  0  0  0  0  0  0  0  0  0
    0.1592    8.9142    3.6994 H   0  0  0  0  0  0  0  0  0  0  0  0
   -0.0589   10.6846    3.6858 H   0  0  0  0  0  0  0  0  0  0  0  0
   -1.5519   10.7535    9.7328 C   0  0  0  0  0  0  0  0  0  0  0  0
   -1.4086    5.8164    7.4053 C   0  0  0  0  0  0  0  0  0  0  0  0
   -1.3417    4.9029    7.9763 H   0  0  0  0  0  0  0  0  0  0  0  0
   -1.5374   12.2752   11.5845 C   0  0  0  0  0  0  0  0  0  0  0  0
   -1.5608   12.4638   12.6483 H   0  0  0  0  0  0  0  0  0  0  0  0
   -1.4202   14.7527   11.2436 C   0  0  0  0  0  0  0  0  0  0  0  0
   -2.2219   14.9101   11.9639 H   0  0  0  0  0  0  0  0  0  0  0  0
   -1.5107   15.4859   10.4470 H   0  0  0  0  0  0  0  0  0  0  0  0
   -0.4747   14.9177   11.7610 H   0  0  0  0  0  0  0  0  0  0  0  0
   -1.4412   13.1292    9.3286 C   0  0  0  0  0  0  0  0  0  0  0  0
   -1.3872   13.9777    8.6577 H   0  0  0  0  0  0  0  0  0  0  0  0
   -1.4734    7.0269    8.0614 C   0  0  0  0  0  0  0  0  0  0  0  0
   -1.4553    7.0898    9.1384 H   0  0  0  0  0  0  0  0  0  0  0  0
    0.9900    9.9370    5.4274 C   0  0  0  0  0  0  0  0  0  0  0  0
    0.7563   10.8139    6.0628 H   0  0  0  0  0  0  0  0  0  0  0  0
    1.9783   10.0907    4.9973 H   0  0  0  0  0  0  0  0  0  0  0  0
    1.0227    9.0381    6.0469 H   0  0  0  0  0  0  0  0  0  0  0  0
   -1.4700   13.3600   10.7030 C   0  0  0  0  0  0  0  0  0  0  0  0
   -1.4300    5.7649    6.0178 C   0  0  0  0  0  0  0  0  0  0  0  0
   -1.3813    4.8152    5.5081 H   0  0  0  0  0  0  0  0  0  0  0  0
   -1.5781   10.9854   11.1165 C   0  0  0  0  0  0  0  0  0  0  0  0
   -1.6376   10.1413   11.7863 H   0  0  0  0  0  0  0  0  0  0  0  0
  1  2  1  6  0  0  0
  1  7  1  0  0  0  0
  1  6  2  0  0  0  0
  3 11  1  6  0  0  0
  3  4  1  0  0  0  0
  3  1  1  0  0  0  0
  4  8  1  0  0  0  0
  5 14  2  0  0  0  0
  6 23  1  0  0  0  0
  6 14  1  0  0  0  0
  7  5  1  0  0  0  0
  8  7  1  0  0  0  0
  8 25  2  0  0  0  0
  9  4  2  0  0  0  0
  9 32  1  0  0  0  0
 10  9  1  0  0  0  0
 11 27  1  0  0  0  0
 12 11  1  0  0  0  0
 13 11  1  0  0  0  0
 14 34  1  0  0  0  0
 15 16  1  0  0  0  0
 15 25  1  0  0  0  0
 17 18  1  0  0  0  0
 19 22  1  0  0  0  0
 19 20  1  0  0  0  0
 21 19  1  0  0  0  0
 23 31  2  0  0  0  0
 24 23  1  0  0  0  0
 25 26  1  0  0  0  0
 27 30  1  0  0  0  0
 27 28  1  0  0  0  0
 29 27  1  0  0  0  0
 31 19  1  0  0  0  0
 31 17  1  0  0  0  0
 32 15  2  0  0  0  0
 33 32  1  0  0  0  0
 34 17  2  0  0  0  0
 34 35  1  0  0  0  0
M  END
$$$$
