CSD_code = OWEWAP | q = 0 | S = 0 | Stoichiometry = C13H11ClN2PdS | MND = 4
 OpenBabel04212202083D

 29 32  0  0  0  0  0  0  0  0999 V2000
   20.2904    1.8723   13.1444 Pd  0  0  2  0  0  0  0  0  0  0  0  0
   18.2995    3.1552   14.0220 S   0  0  2  0  0  3  0  0  0  0  0  0
   21.6631    3.5859   13.1598 Cl  0  0  0  0  0  0  0  0  0  0  0  0
   19.0765    0.3773   13.0677 N   0  0  0  0  0  0  0  0  0  0  0  0
   19.4958   -0.7712   12.6757 N   0  0  0  0  0  0  0  0  0  0  0  0
   21.5284    0.4682   12.4424 C   0  0  0  0  0  0  0  0  0  0  0  0
   17.2167    1.7325   13.7958 C   0  0  0  0  0  0  0  0  0  0  0  0
   17.7223    0.5002   13.3556 C   0  0  0  0  0  0  0  0  0  0  0  0
   20.8180   -0.7654   12.3559 C   0  0  0  0  0  0  0  0  0  0  0  0
   16.8359   -0.5727   13.2038 C   0  0  0  0  0  0  0  0  0  0  0  0
   17.2371   -1.5143   12.8630 H   0  0  0  0  0  0  0  0  0  0  0  0
   21.4587   -1.9365   11.9291 C   0  0  0  0  0  0  0  0  0  0  0  0
   20.8928   -2.8537   11.8761 H   0  0  0  0  0  0  0  0  0  0  0  0
   15.4956   -0.4167   13.4888 C   0  0  0  0  0  0  0  0  0  0  0  0
   14.8242   -1.2534   13.3700 H   0  0  0  0  0  0  0  0  0  0  0  0
   15.8717    1.8767   14.0849 C   0  0  0  0  0  0  0  0  0  0  0  0
   15.5105    2.8314   14.4357 H   0  0  0  0  0  0  0  0  0  0  0  0
   15.0077    0.8056   13.9292 C   0  0  0  0  0  0  0  0  0  0  0  0
   13.9593    0.9241   14.1544 H   0  0  0  0  0  0  0  0  0  0  0  0
   18.1799    3.8644   12.3343 C   0  0  0  0  0  0  0  0  0  0  0  0
   18.5580    3.1520   11.5865 H   0  0  0  0  0  0  0  0  0  0  0  0
   18.8023    4.7569   12.3427 H   0  0  0  0  0  0  0  0  0  0  0  0
   17.1442    4.1251   12.1319 H   0  0  0  0  0  0  0  0  0  0  0  0
   22.8685    0.4791   12.0943 C   0  0  0  0  0  0  0  0  0  0  0  0
   23.4343    1.4003   12.1499 H   0  0  0  0  0  0  0  0  0  0  0  0
   22.7927   -1.8879   11.5925 C   0  0  0  0  0  0  0  0  0  0  0  0
   23.2996   -2.7834   11.2645 H   0  0  0  0  0  0  0  0  0  0  0  0
   23.4937   -0.6887   11.6738 C   0  0  0  0  0  0  0  0  0  0  0  0
   24.5407   -0.6648   11.4081 H   0  0  0  0  0  0  0  0  0  0  0  0
  1  3  1  6  0  0  0
  1  2  1  0  0  0  0
  2 20  1  6  0  0  0
  4  1  1  0  0  0  0
  4  8  1  0  0  0  0
  5  4  1  0  0  0  0
  6  1  2  0  0  0  0
  7  2  1  0  0  0  0
  7 16  1  0  0  0  0
  8  7  2  0  0  0  0
  9  6  1  0  0  0  0
  9  5  2  0  0  0  0
 10  8  1  0  0  0  0
 10 14  2  0  0  0  0
 11 10  1  0  0  0  0
 12  9  1  0  0  0  0
 13 12  1  0  0  0  0
 14 18  1  0  0  0  0
 15 14  1  0  0  0  0
 16 17  1  0  0  0  0
 18 16  2  0  0  0  0
 18 19  1  0  0  0  0
 20 22  1  0  0  0  0
 21 20  1  0  0  0  0
 23 20  1  0  0  0  0
 24 25  1  0  0  0  0
 24  6  1  0  0  0  0
 26 28  1  0  0  0  0
 26 12  2  0  0  0  0
 27 26  1  0  0  0  0
 28 24  2  0  0  0  0
 29 28  1  0  0  0  0
M  END
$$$$
