CSD_code = OWEWOD | q = 0 | S = 0 | Stoichiometry = C15H15IN2PdS | MND = 4
 OpenBabel04212202083D

 35 38  0  0  0  0  0  0  0  0999 V2000
   -7.1884    6.4173   14.5100 I   0  0  0  0  0  0  0  0  0  0  0  0
   -6.7387    8.5854   13.2595 Pd  0  0  2  0  0  0  0  0  0  0  0  0
   -6.9496   10.0570   15.2520 S   0  0  1  0  0  3  0  0  0  0  0  0
   -6.1190   10.2337   11.0597 N   0  0  0  0  0  0  0  0  0  0  0  0
   -6.4280   10.2632   12.2995 N   0  0  0  0  0  0  0  0  0  0  0  0
   -6.0349    8.9760   10.5634 C   0  0  0  0  0  0  0  0  0  0  0  0
   -6.3310    7.8770   11.4264 C   0  0  0  0  0  0  0  0  0  0  0  0
   -6.2449    6.6003   10.9054 C   0  0  0  0  0  0  0  0  0  0  0  0
   -6.4589    5.7414   11.5285 H   0  0  0  0  0  0  0  0  0  0  0  0
   -5.8892    6.3818    9.5738 C   0  0  0  0  0  0  0  0  0  0  0  0
   -5.6063    7.4725    8.7459 C   0  0  0  0  0  0  0  0  0  0  0  0
   -5.3281    7.2957    7.7169 H   0  0  0  0  0  0  0  0  0  0  0  0
   -5.6757    8.7574    9.2251 C   0  0  0  0  0  0  0  0  0  0  0  0
   -5.4548    9.6085    8.5993 H   0  0  0  0  0  0  0  0  0  0  0  0
   -6.5996   11.4987   12.9045 C   0  0  0  0  0  0  0  0  0  0  0  0
   -6.8926   11.5583   14.2752 C   0  0  0  0  0  0  0  0  0  0  0  0
   -7.1023   12.7761   14.8974 C   0  0  0  0  0  0  0  0  0  0  0  0
   -7.3121   12.8000   15.9564 H   0  0  0  0  0  0  0  0  0  0  0  0
   -7.0360   13.9482   14.1642 C   0  0  0  0  0  0  0  0  0  0  0  0
   -7.2041   14.8958   14.6519 H   0  0  0  0  0  0  0  0  0  0  0  0
   -6.7421   13.9019   12.8077 C   0  0  0  0  0  0  0  0  0  0  0  0
   -6.6831   14.8173   12.2389 H   0  0  0  0  0  0  0  0  0  0  0  0
   -6.5238   12.6945   12.1796 C   0  0  0  0  0  0  0  0  0  0  0  0
   -6.2975   12.6368   11.1261 H   0  0  0  0  0  0  0  0  0  0  0  0
   -8.7625    9.9124   15.4925 C   0  0  0  0  0  0  0  0  0  0  0  0
   -8.8814    9.0057   16.0878 H   0  0  0  0  0  0  0  0  0  0  0  0
   -9.0872   10.7764   16.0736 H   0  0  0  0  0  0  0  0  0  0  0  0
   -9.5116    9.8071   14.1753 C   0  0  0  0  0  0  0  0  0  0  0  0
   -9.4307   10.7343   13.6040 H   0  0  0  0  0  0  0  0  0  0  0  0
  -10.5659    9.6153   14.3677 H   0  0  0  0  0  0  0  0  0  0  0  0
   -9.1189    8.9672   13.5664 H   0  0  0  0  0  0  0  0  0  0  0  0
   -5.7870    4.9878    9.0460 C   0  0  0  0  0  0  0  0  0  0  0  0
   -6.4598    4.3199    9.5781 H   0  0  0  0  0  0  0  0  0  0  0  0
   -4.7699    4.6181    9.1848 H   0  0  0  0  0  0  0  0  0  0  0  0
   -6.0133    4.9555    7.9825 H   0  0  0  0  0  0  0  0  0  0  0  0
  2  1  1  6  0  0  0
  2  3  1  0  0  0  0
  3 25  1  6  0  0  0
  4  5  1  0  0  0  0
  5 15  1  0  0  0  0
  5  2  1  0  0  0  0
  6  4  2  0  0  0  0
  6  7  1  0  0  0  0
  7  2  2  0  0  0  0
  8  7  1  0  0  0  0
  8  9  1  0  0  0  0
 10  8  2  0  0  0  0
 11 13  2  0  0  0  0
 11 10  1  0  0  0  0
 12 11  1  0  0  0  0
 13  6  1  0  0  0  0
 14 13  1  0  0  0  0
 15 16  1  0  0  0  0
 16 17  2  0  0  0  0
 16  3  1  0  0  0  0
 17 18  1  0  0  0  0
 19 20  1  0  0  0  0
 19 17  1  0  0  0  0
 21 19  2  0  0  0  0
 22 21  1  0  0  0  0
 23 21  1  0  0  0  0
 23 15  2  0  0  0  0
 24 23  1  0  0  0  0
 25 27  1  0  0  0  0
 25 26  1  0  0  0  0
 28 30  1  0  0  0  0
 28 25  1  0  0  0  0
 29 28  1  0  0  0  0
 31 28  1  0  0  0  0
 32 34  1  0  0  0  0
 32 10  1  0  0  0  0
 32 33  1  0  0  0  0
 35 32  1  0  0  0  0
M  END
$$$$
