CSD_code = OWOLUJ | q = 0 | S = 0 | Stoichiometry = C6H10Cl2N2Pt | MND = 4
 OpenBabel04212202083D

 21 20  0  0  0  0  0  0  0  0999 V2000
    4.1331   -0.1171    7.9635 Pt  0  0  0  0  0  0  0  0  0  0  0  0
    4.5316   -1.7736    6.5170 Cl  0  0  0  0  0  0  0  0  0  0  0  0
    4.3011    1.3920    6.3237 Cl  0  0  0  0  0  0  0  0  0  0  0  0
    3.8133    1.3934    9.1315 N   0  0  0  0  0  0  0  0  0  0  0  0
    3.9703   -4.8601    8.8963 C   0  0  0  0  0  0  0  0  0  0  0  0
    4.7496   -4.6211    8.1776 H   0  0  0  0  0  0  0  0  0  0  0  0
    3.0093   -4.7242    8.4078 H   0  0  0  0  0  0  0  0  0  0  0  0
    4.0700   -5.8986    9.1999 H   0  0  0  0  0  0  0  0  0  0  0  0
    4.0416   -2.5825    9.6984 C   0  0  0  0  0  2  0  0  0  0  0  0
    4.0811   -3.9489   10.1252 C   0  0  0  0  0  0  0  0  0  0  0  0
    3.2590   -4.1357   10.8220 H   0  0  0  0  0  0  0  0  0  0  0  0
    5.0263   -4.1247   10.6471 H   0  0  0  0  0  0  0  0  0  0  0  0
    4.5178    4.6482    8.5727 C   0  0  0  0  0  0  0  0  0  0  0  0
    4.2788    4.3330    7.5601 H   0  0  0  0  0  0  0  0  0  0  0  0
    5.5608    4.4111    8.7648 H   0  0  0  0  0  0  0  0  0  0  0  0
    4.3786    5.7227    8.6552 H   0  0  0  0  0  0  0  0  0  0  0  0
    4.0118   -1.4991    9.3084 N   0  0  0  0  0  2  0  0  0  0  0  0
    3.6096    3.9290    9.5785 C   0  0  0  0  0  0  0  0  0  0  0  0
    3.9025    4.1619   10.6060 H   0  0  0  0  0  0  0  0  0  0  0  0
    2.5685    4.2325    9.4353 H   0  0  0  0  0  0  0  0  0  0  0  0
    3.7029    2.5173    9.3580 C   0  0  0  0  0  2  0  0  0  0  0  0
  1  4  2  0  0  0  0
  1 17  1  0  0  0  0
  2  1  1  0  0  0  0
  3  1  1  0  0  0  0
  4 21  1  0  0  0  0
  5  8  1  0  0  0  0
  5 10  1  0  0  0  0
  6  5  1  0  0  0  0
  7  5  1  0  0  0  0
  9 10  1  0  0  0  0
 10 12  1  0  0  0  0
 10 11  1  0  0  0  0
 13 16  1  0  0  0  0
 13 15  1  0  0  0  0
 13 18  1  0  0  0  0
 14 13  1  0  0  0  0
 17  9  1  0  0  0  0
 18 19  1  0  0  0  0
 20 18  1  0  0  0  0
 21 18  1  0  0  0  0
M  END
$$$$
