CSD_code = OWONAQ | q = 0 | S = 0 | Stoichiometry = C13H9IN2O3Ru | MND = 6
 OpenBabel04212202083D

 29 31  0  0  1  0  0  0  0  0999 V2000
   -0.3188    2.0999    2.4140 I   0  0  0  0  0  0  0  0  0  0  0  0
    2.2177    2.9011    3.0446 Ru  0  0  0  0  0  0  0  0  0  0  0  0
    1.8682    4.7537    0.8191 N   0  0  0  0  0  0  0  0  0  0  0  0
    2.5195    2.9572   -0.1679 N   0  0  0  0  0  0  0  0  0  0  0  0
    4.6150    4.5614    3.7010 O   0  0  0  0  0  1  0  0  0  0  0  0
    1.4889    2.3613    5.9222 O   0  0  0  0  0  1  0  0  0  0  0  0
    3.3647    0.1129    2.7080 O   0  0  0  0  0  1  0  0  0  0  0  0
    3.7343    3.8780    3.4423 C   0  0  0  0  0  2  0  0  0  0  0  0
    1.8006    2.5575    4.8451 C   0  0  0  0  0  2  0  0  0  0  0  0
    2.8983    1.1520    2.7923 C   0  0  0  0  0  2  0  0  0  0  0  0
    1.5601    4.9007    3.1606 C   0  0  0  0  0  0  0  0  0  0  0  0
    1.1675    5.6501    4.2670 C   0  0  0  0  0  0  0  0  0  0  0  0
    1.2078    5.2154    5.2589 H   0  0  0  0  0  0  0  0  0  0  0  0
    0.7105    6.9535    4.1377 C   0  0  0  0  0  0  0  0  0  0  0  0
    0.4059    7.5004    5.0176 H   0  0  0  0  0  0  0  0  0  0  0  0
    0.6443    7.5560    2.8940 C   0  0  0  0  0  0  0  0  0  0  0  0
    0.2913    8.5713    2.7972 H   0  0  0  0  0  0  0  0  0  0  0  0
    1.0308    6.8514    1.7686 C   0  0  0  0  0  0  0  0  0  0  0  0
    0.9798    7.3130    0.7941 H   0  0  0  0  0  0  0  0  0  0  0  0
    1.4798    5.5484    1.9165 C   0  0  0  0  0  0  0  0  0  0  0  0
    1.8145    5.0059   -0.5227 C   0  0  0  0  0  0  0  0  0  0  0  0
    1.4891    5.9367   -0.9365 H   0  0  0  0  0  0  0  0  0  0  0  0
    2.2238    3.8727   -1.1425 C   0  0  0  0  0  0  0  0  0  0  0  0
    2.3198    3.6490   -2.1848 H   0  0  0  0  0  0  0  0  0  0  0  0
    2.3074    3.4952    1.0472 C   0  0  2  0  0  3  0  0  0  0  0  0
    2.9301    1.6014   -0.4191 C   0  0  0  0  0  0  0  0  0  0  0  0
    3.8721    1.3866    0.0895 H   0  0  0  0  0  0  0  0  0  0  0  0
    3.0632    1.4581   -1.4893 H   0  0  0  0  0  0  0  0  0  0  0  0
    2.1659    0.9055   -0.0630 H   0  0  0  0  0  0  0  0  0  0  0  0
  1  2  1  0  0  0  0
  2 11  1  0  0  0  0
  2  8  1  0  0  0  0
  2  9  1  0  0  0  0
  3 25  1  0  0  0  0
  3 20  1  0  0  0  0
  7 10  1  0  0  0  0
  8  5  1  0  0  0  0
  9  6  1  0  0  0  0
 10  2  1  0  0  0  0
 11 12  1  0  0  0  0
 12 13  1  0  0  0  0
 14 12  2  0  0  0  0
 14 15  1  0  0  0  0
 16 14  1  0  0  0  0
 17 16  1  0  0  0  0
 18 20  1  0  0  0  0
 18 16  2  0  0  0  0
 19 18  1  0  0  0  0
 20 11  2  0  0  0  0
 21  3  1  0  0  0  0
 22 21  1  0  0  0  0
 23 21  2  0  0  0  0
 23  4  1  0  0  0  0
 24 23  1  0  0  0  0
 25  4  1  6  0  0  0
 25  2  1  0  0  0  0
 26  4  1  0  0  0  0
 26 29  1  0  0  0  0
 26 27  1  0  0  0  0
 28 26  1  0  0  0  0
M  END
$$$$
