CSD_code = OWUJOG | q = 1 | S = 0 | Stoichiometry = C27H29ClN5Ni(1+) | MND = 4
 OpenBabel04212202083D

 63 69  0  0  1  0  0  0  0  0999 V2000
    2.9732    4.6426   11.1161 Ni  0  0  1  0  0  0  0  0  0  0  0  0
    3.0810    4.9359    9.1407 Cl  0  0  0  0  0  0  0  0  0  0  0  0
    0.0116    3.8953    8.9763 C   0  0  0  0  0  0  0  0  0  0  0  0
    0.6391    4.7500    8.7166 H   0  0  0  0  0  0  0  0  0  0  0  0
   -1.0288    4.1300    8.7435 H   0  0  0  0  0  0  0  0  0  0  0  0
    0.4763    2.6698    8.1860 C   0  0  0  0  0  0  0  0  0  0  0  0
   -0.1307    1.8020    8.4551 H   0  0  0  0  0  0  0  0  0  0  0  0
    1.5140    2.4582    8.4518 H   0  0  0  0  0  0  0  0  0  0  0  0
    0.3838    2.9211    6.6837 C   0  0  0  0  0  0  0  0  0  0  0  0
   -0.6499    3.1463    6.4135 H   0  0  0  0  0  0  0  0  0  0  0  0
    0.9948    3.7890    6.4317 H   0  0  0  0  0  0  0  0  0  0  0  0
    0.8647    1.7133    5.8902 C   0  0  0  0  0  0  0  0  0  0  0  0
    1.9022    1.4913    6.1272 H   0  0  0  0  0  0  0  0  0  0  0  0
    0.7913    1.9081    4.8241 H   0  0  0  0  0  0  0  0  0  0  0  0
    0.2636    0.8364    6.1199 H   0  0  0  0  0  0  0  0  0  0  0  0
    5.9978    6.2455    9.6684 C   0  0  0  0  0  0  0  0  0  0  0  0
    5.5468    5.4766    9.0374 H   0  0  0  0  0  0  0  0  0  0  0  0
    7.0650    6.3079    9.4533 H   0  0  0  0  0  0  0  0  0  0  0  0
    5.3122    7.5858    9.3872 C   0  0  0  0  0  0  0  0  0  0  0  0
    4.2610    7.5042    9.6726 H   0  0  0  0  0  0  0  0  0  0  0  0
    5.3488    7.7581    8.3116 H   0  0  0  0  0  0  0  0  0  0  0  0
    5.9566    8.7641   10.1126 C   0  0  0  0  0  0  0  0  0  0  0  0
    7.0070    8.8419    9.8232 H   0  0  0  0  0  0  0  0  0  0  0  0
    5.9181    8.6075   11.1940 H   0  0  0  0  0  0  0  0  0  0  0  0
    5.2478   10.0694    9.7727 C   0  0  0  0  0  0  0  0  0  0  0  0
    5.2997   10.2634    8.7045 H   0  0  0  0  0  0  0  0  0  0  0  0
    5.7110   10.9019   10.2955 H   0  0  0  0  0  0  0  0  0  0  0  0
    4.2004   10.0221   10.0609 H   0  0  0  0  0  0  0  0  0  0  0  0
    0.1164    3.6609   10.3970 N   0  0  0  0  0  0  0  0  0  0  0  0
    1.1726    3.9161   11.1644 C   0  0  1  0  0  3  0  0  0  0  0  0
    0.8528    3.5015   12.4475 N   0  0  0  0  0  0  0  0  0  0  0  0
   -0.4242    2.9627   12.4648 C   0  0  0  0  0  0  0  0  0  0  0  0
   -1.2254    2.4021   13.4488 C   0  0  0  0  0  0  0  0  0  0  0  0
   -0.9097    2.3068   14.4731 H   0  0  0  0  0  0  0  0  0  0  0  0
   -2.4771    1.9521   13.0716 C   0  0  0  0  0  0  0  0  0  0  0  0
   -3.1197    1.5109   13.8168 H   0  0  0  0  0  0  0  0  0  0  0  0
   -2.9291    2.0506   11.7576 C   0  0  0  0  0  0  0  0  0  0  0  0
   -3.9116    1.6827   11.5093 H   0  0  0  0  0  0  0  0  0  0  0  0
   -2.1422    2.6078   10.7695 C   0  0  0  0  0  0  0  0  0  0  0  0
   -2.4926    2.6783    9.7530 H   0  0  0  0  0  0  0  0  0  0  0  0
   -0.8854    3.0638   11.1400 C   0  0  0  0  0  0  0  0  0  0  0  0
    2.9031    4.2866   12.9260 N   0  0  0  0  0  0  0  0  0  0  0  0
    1.8084    3.7052   13.4300 C   0  0  2  0  0  3  0  0  0  0  0  0
    1.7364    3.3853   14.7789 C   0  0  0  0  0  0  0  0  0  0  0  0
    0.8663    2.9198   15.2030 H   0  0  0  0  0  0  0  0  0  0  0  0
    2.8320    3.6835   15.5753 C   0  0  0  0  0  0  0  0  0  0  0  0
    2.8036    3.4451   16.6265 H   0  0  0  0  0  0  0  0  0  0  0  0
    3.9653    4.2791   15.0419 C   0  0  0  0  0  0  0  0  0  0  0  0
    4.8098    4.4979   15.6684 H   0  0  0  0  0  0  0  0  0  0  0  0
    3.9672    4.5720   13.6849 C   0  0  0  0  0  0  0  0  0  0  0  0
    5.8355    5.8538   11.0503 N   0  0  0  0  0  0  0  0  0  0  0  0
    4.7428    5.3050   11.5763 C   0  0  0  0  0  0  0  0  0  0  0  0
    4.9778    5.1494   12.9325 N   0  0  0  0  0  0  0  0  0  0  0  0
    6.2427    5.6191   13.2487 C   0  0  0  0  0  0  0  0  0  0  0  0
    6.9713    5.7133   14.4257 C   0  0  0  0  0  0  0  0  0  0  0  0
    6.5877    5.3849   15.3759 H   0  0  0  0  0  0  0  0  0  0  0  0
    8.2393    6.2580   14.3492 C   0  0  0  0  0  0  0  0  0  0  0  0
    8.8269    6.3436   15.2492 H   0  0  0  0  0  0  0  0  0  0  0  0
    8.7772    6.6982   13.1419 C   0  0  0  0  0  0  0  0  0  0  0  0
    9.7712    7.1154   13.1286 H   0  0  0  0  0  0  0  0  0  0  0  0
    8.0615    6.6125   11.9649 C   0  0  0  0  0  0  0  0  0  0  0  0
    8.4818    6.9595   11.0358 H   0  0  0  0  0  0  0  0  0  0  0  0
    6.7854    6.0706   12.0318 C   0  0  0  0  0  0  0  0  0  0  0  0
  1  2  1  6  0  0  0
  1 30  1  0  0  0  0
  1 52  2  0  0  0  0
  1 42  1  0  0  0  0
  3 29  1  0  0  0  0
  4  3  1  0  0  0  0
  5  3  1  0  0  0  0
  6  8  1  0  0  0  0
  6  7  1  0  0  0  0
  6  3  1  0  0  0  0
  9  6  1  0  0  0  0
 10  9  1  0  0  0  0
 11  9  1  0  0  0  0
 12 15  1  0  0  0  0
 12 13  1  0  0  0  0
 12  9  1  0  0  0  0
 14 12  1  0  0  0  0
 16 51  1  0  0  0  0
 17 16  1  0  0  0  0
 18 16  1  0  0  0  0
 19 16  1  0  0  0  0
 19 20  1  0  0  0  0
 19 22  1  0  0  0  0
 21 19  1  0  0  0  0
 22 24  1  0  0  0  0
 23 22  1  0  0  0  0
 25 28  1  0  0  0  0
 25 22  1  0  0  0  0
 25 27  1  0  0  0  0
 26 25  1  0  0  0  0
 29 41  1  0  0  0  0
 30 29  1  6  0  0  0
 30 31  1  0  0  0  0
 31 32  1  0  0  0  0
 31 43  1  0  0  0  0
 32 33  1  0  0  0  0
 33 34  1  0  0  0  0
 35 33  2  0  0  0  0
 35 36  1  0  0  0  0
 37 35  1  0  0  0  0
 38 37  1  0  0  0  0
 39 41  1  0  0  0  0
 39 37  2  0  0  0  0
 40 39  1  0  0  0  0
 41 32  2  0  0  0  0
 42 43  1  0  0  0  0
 42 50  1  0  0  0  0
 43 44  1  6  0  0  0
 44 45  1  0  0  0  0
 44 46  2  0  0  0  0
 46 47  1  0  0  0  0
 48 46  1  0  0  0  0
 48 49  1  0  0  0  0
 50 48  2  0  0  0  0
 51 52  1  0  0  0  0
 51 63  1  0  0  0  0
 52 53  1  0  0  0  0
 53 54  1  0  0  0  0
 53 50  1  0  0  0  0
 54 55  1  0  0  0  0
 55 56  1  0  0  0  0
 57 55  2  0  0  0  0
 57 58  1  0  0  0  0
 59 57  1  0  0  0  0
 60 59  1  0  0  0  0
 61 63  1  0  0  0  0
 61 59  2  0  0  0  0
 62 61  1  0  0  0  0
 63 54  2  0  0  0  0
M  END
$$$$
