CSD_code = OWULEY | q = 0 | S = 0 | Stoichiometry = C12H19Cl4N2Nb | MND = 7
 OpenBabel04212202083D

 38 39  0  0  0  0  0  0  0  0999 V2000
    7.8196    6.5572    5.3824 Nb  0  0  0  0  0  0  0  0  0  0  0  0
   10.0311    5.8779    4.9071 Cl  0  0  0  0  0  0  0  0  0  0  0  0
    7.9290    7.3927    3.1757 Cl  0  0  0  0  0  0  0  0  0  0  0  0
    8.7788    8.3158    6.6127 Cl  0  0  0  0  0  0  0  0  0  0  0  0
    6.5757    4.7742    4.4885 Cl  0  0  0  0  0  0  0  0  0  0  0  0
    5.9642    8.4420    5.1915 N   0  0  0  0  0  0  0  0  0  0  0  0
    8.3884    4.5927    7.0695 N   0  0  0  0  0  4  0  0  0  0  0  0
    6.3416    6.4559    7.0846 C   0  0  0  0  0  0  0  0  0  0  0  0
    5.4810    7.5161    7.3883 C   0  0  0  0  0  0  0  0  0  0  0  0
    4.5628    7.4553    8.4287 C   0  0  0  0  0  0  0  0  0  0  0  0
    3.9189    8.3013    8.6227 H   0  0  0  0  0  0  0  0  0  0  0  0
    4.4762    6.3235    9.2160 C   0  0  0  0  0  0  0  0  0  0  0  0
    3.7658    6.2728   10.0269 H   0  0  0  0  0  0  0  0  0  0  0  0
    5.3140    5.2580    8.9496 C   0  0  0  0  0  0  0  0  0  0  0  0
    5.2616    4.3630    9.5529 H   0  0  0  0  0  0  0  0  0  0  0  0
    6.2238    5.3271    7.9023 C   0  0  0  0  0  0  0  0  0  0  0  0
    5.5937    8.7668    6.5685 C   0  0  0  0  0  0  0  0  0  0  0  0
    6.3926    9.3840    6.9962 H   0  0  0  0  0  0  0  0  0  0  0  0
    4.6572    9.3445    6.5915 H   0  0  0  0  0  0  0  0  0  0  0  0
    6.3626    9.6705    4.5112 C   0  0  0  0  0  0  0  0  0  0  0  0
    6.5512    9.4685    3.4591 H   0  0  0  0  0  0  0  0  0  0  0  0
    7.2786   10.0515    4.9644 H   0  0  0  0  0  0  0  0  0  0  0  0
    5.5760   10.4309    4.5901 H   0  0  0  0  0  0  0  0  0  0  0  0
    4.8302    7.8363    4.4947 C   0  0  0  0  0  0  0  0  0  0  0  0
    4.0025    8.5512    4.4005 H   0  0  0  0  0  0  0  0  0  0  0  0
    4.4854    6.9613    5.0473 H   0  0  0  0  0  0  0  0  0  0  0  0
    5.1441    7.5226    3.4986 H   0  0  0  0  0  0  0  0  0  0  0  0
    7.1002    4.1480    7.6006 C   0  0  0  0  0  0  0  0  0  0  0  0
    6.6073    3.5446    6.8292 H   0  0  0  0  0  0  0  0  0  0  0  0
    7.2453    3.5207    8.4932 H   0  0  0  0  0  0  0  0  0  0  0  0
    9.0856    3.4402    6.5070 C   0  0  0  0  0  0  0  0  0  0  0  0
    9.1676    2.6361    7.2485 H   0  0  0  0  0  0  0  0  0  0  0  0
   10.0855    3.7290    6.1903 H   0  0  0  0  0  0  0  0  0  0  0  0
    8.5352    3.0752    5.6390 H   0  0  0  0  0  0  0  0  0  0  0  0
    9.1950    5.1858    8.1353 C   0  0  0  0  0  0  0  0  0  0  0  0
    8.6399    5.9981    8.6063 H   0  0  0  0  0  0  0  0  0  0  0  0
   10.1150    5.5882    7.7101 H   0  0  0  0  0  0  0  0  0  0  0  0
    9.4498    4.4363    8.8958 H   0  0  0  0  0  0  0  0  0  0  0  0
  1  4  1  0  0  0  0
  1  7  1  0  0  0  0
  1  8  1  0  0  0  0
  2  1  1  0  0  0  0
  3  1  1  0  0  0  0
  5  1  1  0  0  0  0
  6 17  1  0  0  0  0
  7 28  1  0  0  0  0
  7 35  1  0  0  0  0
  8  9  2  0  0  0  0
  8 16  1  0  0  0  0
  9 10  1  0  0  0  0
 10 11  1  0  0  0  0
 10 12  2  0  0  0  0
 12 13  1  0  0  0  0
 14 12  1  0  0  0  0
 14 15  1  0  0  0  0
 16 14  2  0  0  0  0
 17 19  1  0  0  0  0
 17 18  1  0  0  0  0
 17  9  1  0  0  0  0
 20 23  1  0  0  0  0
 20 22  1  0  0  0  0
 20  6  1  0  0  0  0
 21 20  1  0  0  0  0
 24 26  1  0  0  0  0
 24  6  1  0  0  0  0
 25 24  1  0  0  0  0
 27 24  1  0  0  0  0
 28 16  1  0  0  0  0
 28 30  1  0  0  0  0
 29 28  1  0  0  0  0
 31  7  1  0  0  0  0
 31 32  1  0  0  0  0
 33 31  1  0  0  0  0
 34 31  1  0  0  0  0
 35 36  1  0  0  0  0
 35 38  1  0  0  0  0
 37 35  1  0  0  0  0
M  END
$$$$
