CSD_code = OXAFID | q = 0 | S = 0 | Stoichiometry = C16H20ClN3Pt | MND = 4
 OpenBabel04212202083D

 41 44  0  0  0  0  0  0  0  0999 V2000
    2.0446    5.3688    2.1506 Pt  0  0  0  0  0  0  0  0  0  0  0  0
    2.4387    6.0526   -0.0223 Cl  0  0  0  0  0  0  0  0  0  0  0  0
    3.8223    6.0610    2.8742 N   0  0  0  0  0  4  0  0  0  0  0  0
    1.7116    4.7913    3.9857 N   0  0  0  0  0  0  0  0  0  0  0  0
    0.2080    4.5747    1.7506 N   0  0  0  0  0  4  0  0  0  0  0  0
    3.8901    5.6300    4.2760 C   0  0  0  0  0  0  0  0  0  0  0  0
    5.0135    5.8779    5.0409 C   0  0  0  0  0  0  0  0  0  0  0  0
    5.8375    6.4453    4.6333 H   0  0  0  0  0  0  0  0  0  0  0  0
    5.1076    5.3911    6.3342 C   0  0  0  0  0  0  0  0  0  0  0  0
    5.9854    5.5944    6.9270 H   0  0  0  0  0  0  0  0  0  0  0  0
    4.0806    4.6093    6.8368 C   0  0  0  0  0  0  0  0  0  0  0  0
    4.1687    4.1766    7.8226 H   0  0  0  0  0  0  0  0  0  0  0  0
    2.9441    4.3672    6.0952 C   0  0  0  0  0  0  0  0  0  0  0  0
    2.1900    3.7109    6.4944 H   0  0  0  0  0  0  0  0  0  0  0  0
    2.7884    4.9175    4.8118 C   0  0  0  0  0  0  0  0  0  0  0  0
    0.4453    4.3366    4.2038 C   0  0  0  0  0  0  0  0  0  0  0  0
   -0.1685    4.0932    5.4440 C   0  0  0  0  0  0  0  0  0  0  0  0
    0.3473    4.3372    6.3568 H   0  0  0  0  0  0  0  0  0  0  0  0
   -1.4521    3.5954    5.5138 C   0  0  0  0  0  0  0  0  0  0  0  0
   -1.8950    3.4137    6.4821 H   0  0  0  0  0  0  0  0  0  0  0  0
   -2.1790    3.3327    4.3644 C   0  0  0  0  0  0  0  0  0  0  0  0
   -3.1752    2.9236    4.4245 H   0  0  0  0  0  0  0  0  0  0  0  0
   -1.6266    3.6405    3.1321 C   0  0  0  0  0  0  0  0  0  0  0  0
   -2.2146    3.4818    2.2398 H   0  0  0  0  0  0  0  0  0  0  0  0
   -0.3485    4.1573    3.0435 C   0  0  0  0  0  0  0  0  0  0  0  0
    4.9284    5.4651    2.1120 C   0  0  0  0  0  0  0  0  0  0  0  0
    5.8990    5.8273    2.4620 H   0  0  0  0  0  0  0  0  0  0  0  0
    4.8152    5.7202    1.0577 H   0  0  0  0  0  0  0  0  0  0  0  0
    4.8953    4.3795    2.2231 H   0  0  0  0  0  0  0  0  0  0  0  0
    3.8641    7.5252    2.7759 C   0  0  0  0  0  0  0  0  0  0  0  0
    3.0490    7.9486    3.3660 H   0  0  0  0  0  0  0  0  0  0  0  0
    3.7420    7.8174    1.7319 H   0  0  0  0  0  0  0  0  0  0  0  0
    4.8129    7.9236    3.1476 H   0  0  0  0  0  0  0  0  0  0  0  0
   -0.6495    5.6021    1.1436 C   0  0  0  0  0  0  0  0  0  0  0  0
   -1.6391    5.2064    0.8985 H   0  0  0  0  0  0  0  0  0  0  0  0
   -0.1789    5.9678    0.2303 H   0  0  0  0  0  0  0  0  0  0  0  0
   -0.7643    6.4316    1.8441 H   0  0  0  0  0  0  0  0  0  0  0  0
    0.3475    3.4261    0.8472 C   0  0  0  0  0  0  0  0  0  0  0  0
   -0.6252    2.9870    0.6060 H   0  0  0  0  0  0  0  0  0  0  0  0
    0.9682    2.6658    1.3252 H   0  0  0  0  0  0  0  0  0  0  0  0
    0.8271    3.7535   -0.0765 H   0  0  0  0  0  0  0  0  0  0  0  0
  1  3  1  0  0  0  0
  1  4  1  0  0  0  0
  2  1  1  0  0  0  0
  3  6  1  0  0  0  0
  4 16  1  0  0  0  0
  4 15  1  0  0  0  0
  5  1  1  0  0  0  0
  5 25  1  0  0  0  0
  6 15  2  0  0  0  0
  6  7  1  0  0  0  0
  7  9  2  0  0  0  0
  8  7  1  0  0  0  0
  9 11  1  0  0  0  0
  9 10  1  0  0  0  0
 11 12  1  0  0  0  0
 13 14  1  0  0  0  0
 13 11  2  0  0  0  0
 15 13  1  0  0  0  0
 16 17  1  0  0  0  0
 17 19  2  0  0  0  0
 17 18  1  0  0  0  0
 19 20  1  0  0  0  0
 21 22  1  0  0  0  0
 21 19  1  0  0  0  0
 23 21  2  0  0  0  0
 24 23  1  0  0  0  0
 25 23  1  0  0  0  0
 25 16  2  0  0  0  0
 26 29  1  0  0  0  0
 26 27  1  0  0  0  0
 26  3  1  0  0  0  0
 28 26  1  0  0  0  0
 30  3  1  0  0  0  0
 30 33  1  0  0  0  0
 30 31  1  0  0  0  0
 32 30  1  0  0  0  0
 34  5  1  0  0  0  0
 34 37  1  0  0  0  0
 35 34  1  0  0  0  0
 36 34  1  0  0  0  0
 38 40  1  0  0  0  0
 38  5  1  0  0  0  0
 39 38  1  0  0  0  0
 41 38  1  0  0  0  0
M  END
$$$$
