CSD_code = OXEPUE | q = 0 | S = 0 | Stoichiometry = C24H23Cl4NOTi | MND = 6
 OpenBabel04212202083D

 54 58  0  0  0  0  0  0  0  0999 V2000
    5.8330   12.2096    2.0363 Ti  0  0  0  0  0  0  0  0  0  0  0  0
    6.9395   10.2937    2.3760 Cl  0  0  0  0  0  0  0  0  0  0  0  0
    7.4023   13.0414    0.8050 Cl  0  0  0  0  0  0  0  0  0  0  0  0
    4.4994   11.6662    0.4334 Cl  0  0  0  0  0  0  0  0  0  0  0  0
    5.0207   14.2229    2.5891 Cl  0  0  0  0  0  0  0  0  0  0  0  0
    6.6897   12.5265    3.9355 O   0  0  0  0  0  0  0  0  0  0  0  0
    4.2680   11.3693    3.4483 N   0  0  0  0  0  0  0  0  0  0  0  0
    5.9972   12.1615    4.8802 C   0  0  0  0  0  0  0  0  0  0  0  0
    4.6512   11.5305    4.6564 C   0  0  0  0  0  0  0  0  0  0  0  0
    4.0849   11.2215    5.9642 C   0  0  0  0  0  0  0  0  0  0  0  0
    5.0498   11.6423    6.9125 C   0  0  0  0  0  0  0  0  0  0  0  0
    6.2072   12.2093    6.3205 C   0  0  0  0  0  0  0  0  0  0  0  0
    7.2247   12.6589    7.1321 C   0  0  0  0  0  0  0  0  0  0  0  0
    8.1192   13.0954    6.7161 H   0  0  0  0  0  0  0  0  0  0  0  0
    7.0688   12.5338    8.5230 C   0  0  0  0  0  0  0  0  0  0  0  0
    7.8656   12.8857    9.1610 H   0  0  0  0  0  0  0  0  0  0  0  0
    5.9463   11.9820    9.0975 C   0  0  0  0  0  0  0  0  0  0  0  0
    5.8708   11.9053   10.1723 H   0  0  0  0  0  0  0  0  0  0  0  0
    4.8827   11.5099    8.2945 C   0  0  0  0  0  0  0  0  0  0  0  0
    3.6705   10.9184    8.7203 C   0  0  0  0  0  0  0  0  0  0  0  0
    3.4859   10.7907    9.7765 H   0  0  0  0  0  0  0  0  0  0  0  0
    2.7354   10.5080    7.8005 C   0  0  0  0  0  0  0  0  0  0  0  0
    1.8179   10.0576    8.1489 H   0  0  0  0  0  0  0  0  0  0  0  0
    2.9187   10.6480    6.4116 C   0  0  0  0  0  0  0  0  0  0  0  0
    2.1566   10.3090    5.7266 H   0  0  0  0  0  0  0  0  0  0  0  0
    3.0137   10.7991    3.1419 C   0  0  0  0  0  0  0  0  0  0  0  0
    1.8741   11.6147    3.0787 C   0  0  0  0  0  0  0  0  0  0  0  0
    0.6683   11.0370    2.7064 C   0  0  0  0  0  0  0  0  0  0  0  0
   -0.2107   11.6581    2.6364 H   0  0  0  0  0  0  0  0  0  0  0  0
    0.5736    9.6903    2.4190 C   0  0  0  0  0  0  0  0  0  0  0  0
   -0.3724    9.2624    2.1241 H   0  0  0  0  0  0  0  0  0  0  0  0
    1.6982    8.8948    2.5130 C   0  0  0  0  0  0  0  0  0  0  0  0
    1.6242    7.8410    2.2962 H   0  0  0  0  0  0  0  0  0  0  0  0
    2.9271    9.4249    2.8781 C   0  0  0  0  0  0  0  0  0  0  0  0
    1.9367   13.0980    3.3526 C   0  0  0  0  0  0  0  0  0  0  0  0
    2.9322   13.3623    3.7208 H   0  0  0  0  0  0  0  0  0  0  0  0
    0.9217   13.5188    4.4181 C   0  0  0  0  0  0  0  0  0  0  0  0
    1.0539   14.5728    4.6490 H   0  0  0  0  0  0  0  0  0  0  0  0
    1.0648   12.9459    5.3334 H   0  0  0  0  0  0  0  0  0  0  0  0
   -0.0994   13.3731    4.0758 H   0  0  0  0  0  0  0  0  0  0  0  0
    1.7167   13.8584    2.0418 C   0  0  0  0  0  0  0  0  0  0  0  0
    1.8491   14.9244    2.2059 H   0  0  0  0  0  0  0  0  0  0  0  0
    0.7176   13.6817    1.6508 H   0  0  0  0  0  0  0  0  0  0  0  0
    2.4456   13.5318    1.3008 H   0  0  0  0  0  0  0  0  0  0  0  0
    4.1349    8.5239    2.9728 C   0  0  0  0  0  0  0  0  0  0  0  0
    4.9821    9.0935    3.3660 H   0  0  0  0  0  0  0  0  0  0  0  0
    4.5182    8.0376    1.5729 C   0  0  0  0  0  0  0  0  0  0  0  0
    5.4317    7.4513    1.6234 H   0  0  0  0  0  0  0  0  0  0  0  0
    4.6940    8.8933    0.9219 H   0  0  0  0  0  0  0  0  0  0  0  0
    3.7292    7.4262    1.1415 H   0  0  0  0  0  0  0  0  0  0  0  0
    3.8840    7.3493    3.9217 C   0  0  0  0  0  0  0  0  0  0  0  0
    4.7993    6.7746    4.0385 H   0  0  0  0  0  0  0  0  0  0  0  0
    3.1137    6.6853    3.5385 H   0  0  0  0  0  0  0  0  0  0  0  0
    3.5749    7.7074    4.9028 H   0  0  0  0  0  0  0  0  0  0  0  0
  1  2  1  0  0  0  0
  1  5  1  0  0  0  0
  1  7  1  0  0  0  0
  1  6  1  0  0  0  0
  3  1  1  0  0  0  0
  4  1  1  0  0  0  0
  6  8  1  0  0  0  0
  7  9  1  0  0  0  0
  8 12  1  0  0  0  0
  9  8  2  0  0  0  0
  9 10  1  0  0  0  0
 10 24  2  0  0  0  0
 10 11  1  0  0  0  0
 11 19  1  0  0  0  0
 12 11  2  0  0  0  0
 12 13  1  0  0  0  0
 13 15  2  0  0  0  0
 14 13  1  0  0  0  0
 15 17  1  0  0  0  0
 15 16  1  0  0  0  0
 17 18  1  0  0  0  0
 19 20  1  0  0  0  0
 19 17  2  0  0  0  0
 20 21  1  0  0  0  0
 22 23  1  0  0  0  0
 22 20  2  0  0  0  0
 24 22  1  0  0  0  0
 25 24  1  0  0  0  0
 26  7  1  0  0  0  0
 27 26  1  0  0  0  0
 27 35  1  0  0  0  0
 28 27  2  0  0  0  0
 29 28  1  0  0  0  0
 30 32  2  0  0  0  0
 30 28  1  0  0  0  0
 31 30  1  0  0  0  0
 32 34  1  0  0  0  0
 33 32  1  0  0  0  0
 34 45  1  0  0  0  0
 34 26  2  0  0  0  0
 35 36  1  0  0  0  0
 35 37  1  0  0  0  0
 37 38  1  0  0  0  0
 37 39  1  0  0  0  0
 40 37  1  0  0  0  0
 41 42  1  0  0  0  0
 41 35  1  0  0  0  0
 43 41  1  0  0  0  0
 44 41  1  0  0  0  0
 45 46  1  0  0  0  0
 45 51  1  0  0  0  0
 47 48  1  0  0  0  0
 47 45  1  0  0  0  0
 49 47  1  0  0  0  0
 50 47  1  0  0  0  0
 51 52  1  0  0  0  0
 51 54  1  0  0  0  0
 53 51  1  0  0  0  0
M  END
$$$$
