CSD_code = OXETUI | q = 0 | S = 0 | Stoichiometry = C17H13ClN2OPdS | MND = 4
 OpenBabel04212202083D

 36 40  0  0  1  0  0  0  0  0999 V2000
    8.4220    2.9435    2.5051 Pd  0  0  1  0  0  0  0  0  0  0  0  0
    9.8571    1.5092    1.5313 Cl  0  0  0  0  0  0  0  0  0  0  0  0
    7.0943    1.3168    3.4295 S   0  0  1  0  0  3  0  0  0  0  0  0
    5.3720    4.6561    4.7357 O   0  0  0  0  0  0  0  0  0  0  0  0
    7.2582    4.2711    3.4710 N   0  0  0  0  0  0  0  0  0  0  0  0
    9.3002    4.5626    1.8015 N   0  0  0  0  0  0  0  0  0  0  0  0
   10.3286    4.6454    0.9846 C   0  0  0  0  0  0  0  0  0  0  0  0
   10.7704    3.7120    0.6554 H   0  0  0  0  0  0  0  0  0  0  0  0
   10.8449    5.8754    0.5551 C   0  0  0  0  0  0  0  0  0  0  0  0
   11.6911    5.8837   -0.1131 H   0  0  0  0  0  0  0  0  0  0  0  0
   10.2679    7.0378    0.9910 C   0  0  0  0  0  0  0  0  0  0  0  0
   10.6424    8.0014    0.6780 H   0  0  0  0  0  0  0  0  0  0  0  0
    8.5076    8.1201    2.3669 C   0  0  0  0  0  0  0  0  0  0  0  0
    8.8573    9.0965    2.0686 H   0  0  0  0  0  0  0  0  0  0  0  0
    7.4423    7.9786    3.2186 C   0  0  0  0  0  0  0  0  0  0  0  0
    6.9405    8.8551    3.6002 H   0  0  0  0  0  0  0  0  0  0  0  0
    6.9811    6.7219    3.6147 C   0  0  0  0  0  0  0  0  0  0  0  0
    6.1431    6.6409    4.2870 H   0  0  0  0  0  0  0  0  0  0  0  0
    7.5954    5.5695    3.1503 C   0  0  0  0  0  0  0  0  0  0  0  0
    8.7027    5.6957    2.2594 C   0  0  1  0  0  3  0  0  0  0  0  0
    9.1646    6.9804    1.8674 C   0  0  0  0  0  0  0  0  0  0  0  0
    6.2108    3.9265    4.2332 C   0  0  0  0  0  0  0  0  0  0  0  0
    6.0930    2.4089    4.4869 C   0  0  0  0  0  0  0  0  0  0  0  0
    5.0475    2.1001    4.4255 H   0  0  0  0  0  0  0  0  0  0  0  0
    6.4433    2.2130    5.5038 H   0  0  0  0  0  0  0  0  0  0  0  0
    6.3947    1.5501    1.7821 C   0  0  0  0  0  0  0  0  0  0  0  0
    6.8086    0.6440    0.8035 C   0  0  0  0  0  0  0  0  0  0  0  0
    7.5246   -0.1238    1.0588 H   0  0  0  0  0  0  0  0  0  0  0  0
    6.3037    0.7387   -0.4797 C   0  0  0  0  0  0  0  0  0  0  0  0
    6.6364    0.0413   -1.2326 H   0  0  0  0  0  0  0  0  0  0  0  0
    5.3738    1.7174   -0.7954 C   0  0  0  0  0  0  0  0  0  0  0  0
    4.9800    1.7890   -1.7974 H   0  0  0  0  0  0  0  0  0  0  0  0
    4.9461    2.5985    0.1816 C   0  0  0  0  0  0  0  0  0  0  0  0
    4.2131    3.3561   -0.0518 H   0  0  0  0  0  0  0  0  0  0  0  0
    5.4459    2.5233    1.4739 C   0  0  0  0  0  0  0  0  0  0  0  0
    5.0656    3.2041    2.2221 H   0  0  0  0  0  0  0  0  0  0  0  0
  1  2  1  1  0  0  0
  1  3  1  0  0  0  0
  1  5  1  0  0  0  0
  3 26  1  6  0  0  0
  3 23  1  0  0  0  0
  5 22  1  0  0  0  0
  6 20  1  0  0  0  0
  6  1  1  0  0  0  0
  7  6  1  0  0  0  0
  8  7  1  0  0  0  0
  9  7  2  0  0  0  0
  9 11  1  0  0  0  0
 10  9  1  0  0  0  0
 11 21  2  0  0  0  0
 12 11  1  0  0  0  0
 13 15  2  0  0  0  0
 14 13  1  0  0  0  0
 15 16  1  0  0  0  0
 15 17  1  0  0  0  0
 17 18  1  0  0  0  0
 19  5  1  0  0  0  0
 19 17  2  0  0  0  0
 20 21  1  1  0  0  0
 20 19  1  0  0  0  0
 21 13  1  0  0  0  0
 22 23  1  0  0  0  0
 22  4  2  0  0  0  0
 23 25  1  0  0  0  0
 24 23  1  0  0  0  0
 27 28  1  0  0  0  0
 27 26  2  0  0  0  0
 29 27  1  0  0  0  0
 30 29  1  0  0  0  0
 31 29  2  0  0  0  0
 31 33  1  0  0  0  0
 32 31  1  0  0  0  0
 33 35  2  0  0  0  0
 34 33  1  0  0  0  0
 35 26  1  0  0  0  0
 35 36  1  0  0  0  0
M  END
$$$$
