CSD_code = OXUYOW | q = 0 | S = 0 | Stoichiometry = C17H15ClN2Pt | MND = 4
 OpenBabel04212202083D

 36 39  0  0  0  0  0  0  0  0999 V2000
    9.3589    7.6363   14.3135 Pt  0  0  2  0  0  0  0  0  0  0  0  0
    7.1980    8.5435   14.6100 Cl  0  0  0  0  0  0  0  0  0  0  0  0
   10.3447    9.3449   14.4409 N   0  0  0  0  0  0  0  0  0  0  0  0
   11.2118    6.9222   14.0467 C   0  0  0  0  0  0  0  0  0  0  0  0
    8.4097    5.9447   14.1904 N   0  0  0  0  0  0  0  0  0  0  0  0
    9.7688   10.5260   14.6546 C   0  0  0  0  0  0  0  0  0  0  0  0
    8.6908   10.5212   14.7601 H   0  0  0  0  0  0  0  0  0  0  0  0
   10.4887   11.7037   14.7392 C   0  0  0  0  0  0  0  0  0  0  0  0
    9.9772   12.6364   14.9136 H   0  0  0  0  0  0  0  0  0  0  0  0
   11.8677   11.6540   14.5955 C   0  0  0  0  0  0  0  0  0  0  0  0
   12.4621   12.5534   14.6550 H   0  0  0  0  0  0  0  0  0  0  0  0
   12.4689   10.4297   14.3748 C   0  0  0  0  0  0  0  0  0  0  0  0
   13.5386   10.3630   14.2605 H   0  0  0  0  0  0  0  0  0  0  0  0
   11.6916    9.2754   14.2996 C   0  0  0  0  0  0  0  0  0  0  0  0
   12.2023    7.9287   14.0743 C   0  0  0  0  0  0  0  0  0  0  0  0
   13.5493    7.6186   13.8966 C   0  0  0  0  0  0  0  0  0  0  0  0
   14.3019    8.3932   13.9186 H   0  0  0  0  0  0  0  0  0  0  0  0
   13.9310    6.3081   13.6887 C   0  0  0  0  0  0  0  0  0  0  0  0
   14.9742    6.0641   13.5500 H   0  0  0  0  0  0  0  0  0  0  0  0
   12.9727    5.3068   13.6582 C   0  0  0  0  0  0  0  0  0  0  0  0
   13.2741    4.2814   13.4950 H   0  0  0  0  0  0  0  0  0  0  0  0
   11.6325    5.6125   13.8349 C   0  0  0  0  0  0  0  0  0  0  0  0
   10.9091    4.8068   13.8057 H   0  0  0  0  0  0  0  0  0  0  0  0
    7.9299    5.5168   13.0204 C   0  0  0  0  0  3  0  0  0  0  0  0
    8.2582    6.0580   12.1385 H   0  0  0  0  0  0  0  0  0  0  0  0
    7.0535    4.4554   12.9209 C   0  0  0  0  0  0  0  0  0  0  0  0
    6.6849    4.1548   11.9521 H   0  0  0  0  0  0  0  0  0  0  0  0
    6.6392    3.7878   14.0706 C   0  0  0  0  0  0  0  0  0  0  0  0
    7.1569    4.2394   15.2820 C   0  0  0  0  0  0  0  0  0  0  0  0
    6.8710    3.7654   16.2084 H   0  0  0  0  0  0  0  0  0  0  0  0
    8.0287    5.3086   15.3009 C   0  0  0  0  0  0  0  0  0  0  0  0
    8.4334    5.6862   16.2347 H   0  0  0  0  0  0  0  0  0  0  0  0
    5.6999    2.6293   14.0066 C   0  0  0  0  0  0  0  0  0  0  0  0
    5.0984    2.5688   14.9101 H   0  0  0  0  0  0  0  0  0  0  0  0
    6.2657    1.7014   13.9155 H   0  0  0  0  0  0  0  0  0  0  0  0
    5.0436    2.7098   13.1438 H   0  0  0  0  0  0  0  0  0  0  0  0
  1  3  1  0  0  0  0
  1  2  1  6  0  0  0
  3  6  1  0  0  0  0
  4 15  1  0  0  0  0
  4  1  2  0  0  0  0
  5  1  1  0  0  0  0
  5 31  1  0  0  0  0
  6  8  2  0  0  0  0
  6  7  1  0  0  0  0
  8  9  1  0  0  0  0
 10 11  1  0  0  0  0
 10  8  1  0  0  0  0
 12 10  2  0  0  0  0
 13 12  1  0  0  0  0
 14 12  1  0  0  0  0
 14  3  1  0  0  0  0
 15 14  2  0  0  0  0
 16 17  1  0  0  0  0
 16 15  1  0  0  0  0
 18 16  2  0  0  0  0
 19 18  1  0  0  0  0
 20 18  1  0  0  0  0
 20 22  2  0  0  0  0
 21 20  1  0  0  0  0
 22  4  1  0  0  0  0
 23 22  1  0  0  0  0
 24  5  1  0  0  0  0
 25 24  1  0  0  0  0
 26 24  1  0  0  0  0
 26 28  2  0  0  0  0
 27 26  1  0  0  0  0
 28 29  1  0  0  0  0
 29 31  2  0  0  0  0
 29 30  1  0  0  0  0
 31 32  1  0  0  0  0
 33 28  1  0  0  0  0
 33 34  1  0  0  0  0
 35 33  1  0  0  0  0
 36 33  1  0  0  0  0
M  END
$$$$
