CSD_code = OYANIN | q = 0 | S = 0 | Stoichiometry = C26H34ClIrNO3P | MND = 6
 OpenBabel04212202083D

 67 68  0  0  1  0  0  0  0  0999 V2000
    7.6813    6.7427   15.0400 Ir  0  0  0  0  0  0  0  0  0  0  0  0
    9.4152    8.1625   15.6300 Cl  0  0  0  0  0 15  0  0  0  0  0  0
    6.1478    8.4859   15.3689 P   0  0  1  0  0  0  0  0  0  0  0  0
    5.4842    7.0879   17.9905 O   0  0  0  0  0  0  0  0  0  0  0  0
    3.7950    8.7671   13.9969 O   0  0  0  0  0  0  0  0  0  0  0  0
    9.0141    8.2721   11.2979 O   0  0  0  0  0  0  0  0  0  0  0  0
    7.4166   10.9517   15.3898 C   0  0  0  0  0  0  0  0  0  0  0  0
    8.3359   10.3940   15.2280 H   0  0  0  0  0  0  0  0  0  0  0  0
    7.6630   11.8832   15.8971 H   0  0  0  0  0  0  0  0  0  0  0  0
    6.9864   11.1955   14.4200 H   0  0  0  0  0  0  0  0  0  0  0  0
    6.3081    5.1266   15.3426 C   0  0  0  0  0  3  0  0  0  0  0  0
    5.5044    5.4304   16.0056 H   0  0  0  0  0  0  0  0  0  0  0  0
    6.2279    5.5696   14.0151 C   0  0  2  0  0  0  0  0  0  0  0  0
    5.3447    6.1448   13.7393 H   0  0  0  0  0  0  0  0  0  0  0  0
    6.8216    4.8150   12.8482 C   0  0  0  0  0  0  0  0  0  0  0  0
    6.7231    5.4393   11.9598 H   0  0  0  0  0  0  0  0  0  0  0  0
    6.2350    3.9067   12.6683 H   0  0  0  0  0  0  0  0  0  0  0  0
    8.3058    4.4561   13.0509 C   0  0  0  0  0  0  0  0  0  0  0  0
    8.4024    3.4315   13.4151 H   0  0  0  0  0  0  0  0  0  0  0  0
    8.8133    4.5066   12.0862 H   0  0  0  0  0  0  0  0  0  0  0  0
    9.0056    5.3857   14.0192 C   0  0  0  0  0  3  0  0  0  0  0  0
    9.7999    5.9825   13.5745 H   0  0  0  0  0  0  0  0  0  0  0  0
    9.0855    5.1478   15.3899 C   0  0  0  0  0  3  0  0  0  0  0  0
    9.9543    5.5388   15.9156 H   0  0  0  0  0  0  0  0  0  0  0  0
    8.4366    3.9858   16.1018 C   0  0  0  0  0  0  0  0  0  0  0  0
    8.5160    4.1659   17.1754 H   0  0  0  0  0  0  0  0  0  0  0  0
    8.9955    3.0692   15.8839 H   0  0  0  0  0  0  0  0  0  0  0  0
    6.9555    3.8122   15.7291 C   0  0  0  0  0  0  0  0  0  0  0  0
    6.8512    3.1069   14.9031 H   0  0  0  0  0  0  0  0  0  0  0  0
    6.4231    3.3885   16.5831 H   0  0  0  0  0  0  0  0  0  0  0  0
    4.5623    7.9544   16.0530 C   0  0  0  0  0  0  0  0  0  0  0  0
    4.3601    7.2786   17.2543 C   0  0  0  0  0  0  0  0  0  0  0  0
    5.4123    6.2959   19.1509 C   0  0  0  0  0  0  0  0  0  0  0  0
    5.0375    5.2920   18.9274 H   0  0  0  0  0  0  0  0  0  0  0  0
    4.7784    6.7580   19.9146 H   0  0  0  0  0  0  0  0  0  0  0  0
    6.4331    6.2273   19.5221 H   0  0  0  0  0  0  0  0  0  0  0  0
    3.0759    6.8635   17.5859 C   0  0  0  0  0  0  0  0  0  0  0  0
    2.8800    6.3463   18.5114 H   0  0  0  0  0  0  0  0  0  0  0  0
    2.0285    7.1142   16.7098 C   0  0  0  0  0  0  0  0  0  0  0  0
    1.0352    6.7888   16.9798 H   0  0  0  0  0  0  0  0  0  0  0  0
    2.2225    7.7537   15.4998 C   0  0  0  0  0  0  0  0  0  0  0  0
    1.4079    7.9284   14.8167 H   0  0  0  0  0  0  0  0  0  0  0  0
    3.5083    8.1642   15.1706 C   0  0  0  0  0  0  0  0  0  0  0  0
    5.1762    9.0575   13.8477 C   0  0  2  0  0  0  0  0  0  0  0  0
    5.2771   10.1483   13.7519 H   0  0  0  0  0  0  0  0  0  0  0  0
    5.7592    8.4651   12.5994 C   0  0  0  0  0  0  0  0  0  0  0  0
    7.0879    8.5524   12.5409 N   0  0  0  0  0  0  0  0  0  0  0  0
    7.6969    8.1290   11.4416 C   0  0  0  0  0  0  0  0  0  0  0  0
    9.7008    9.0164   12.2931 C   0  0  0  0  0  0  0  0  0  0  0  0
   10.7524    8.9771   12.0192 H   0  0  0  0  0  0  0  0  0  0  0  0
    9.5464    8.5886   13.2832 H   0  0  0  0  0  0  0  0  0  0  0  0
    9.3518   10.0511   12.3010 H   0  0  0  0  0  0  0  0  0  0  0  0
    7.0009    7.5382   10.3729 C   0  0  0  0  0  0  0  0  0  0  0  0
    7.5551    7.1931    9.5158 H   0  0  0  0  0  0  0  0  0  0  0  0
    5.6322    7.4342   10.4610 C   0  0  0  0  0  0  0  0  0  0  0  0
    5.0638    6.9884    9.6579 H   0  0  0  0  0  0  0  0  0  0  0  0
    4.9847    7.9228   11.5918 C   0  0  0  0  0  0  0  0  0  0  0  0
    3.9128    7.8860   11.6932 H   0  0  0  0  0  0  0  0  0  0  0  0
    6.4577   10.1302   16.2513 C   0  0  0  0  0  0  0  0  0  0  0  0
    7.1196    9.8182   17.5927 C   0  0  0  0  0  0  0  0  0  0  0  0
    6.4605    9.2268   18.2219 H   0  0  0  0  0  0  0  0  0  0  0  0
    7.3603   10.7446   18.1122 H   0  0  0  0  0  0  0  0  0  0  0  0
    8.0411    9.2636   17.4367 H   0  0  0  0  0  0  0  0  0  0  0  0
    5.1542   10.8925   16.4964 C   0  0  0  0  0  0  0  0  0  0  0  0
    4.6115   11.0988   15.5757 H   0  0  0  0  0  0  0  0  0  0  0  0
    5.3832   11.8479   16.9669 H   0  0  0  0  0  0  0  0  0  0  0  0
    4.4971   10.3358   17.1625 H   0  0  0  0  0  0  0  0  0  0  0  0
  3 31  1  0  0  0  0
  3 59  1  1  0  0  0
  4 33  1  0  0  0  0
  5 43  1  0  0  0  0
  6 48  1  0  0  0  0
  6 49  1  0  0  0  0
  7  9  1  0  0  0  0
  7 59  1  0  0  0  0
  8  7  1  0  0  0  0
 10  7  1  0  0  0  0
 11 28  1  0  0  0  0
 11 12  1  0  0  0  0
 13 14  1  6  0  0  0
 13  1  1  0  0  0  0
 13 11  1  0  0  0  0
 15 18  1  0  0  0  0
 15 13  1  0  0  0  0
 16 15  1  0  0  0  0
 17 15  1  0  0  0  0
 18 19  1  0  0  0  0
 18 21  1  0  0  0  0
 20 18  1  0  0  0  0
 21 23  1  0  0  0  0
 22 21  1  0  0  0  0
 23 24  1  0  0  0  0
 23 25  1  0  0  0  0
 25 26  1  0  0  0  0
 27 25  1  0  0  0  0
 28 25  1  0  0  0  0
 28 30  1  0  0  0  0
 29 28  1  0  0  0  0
 31 32  1  0  0  0  0
 32 37  2  0  0  0  0
 32  4  1  0  0  0  0
 33 36  1  0  0  0  0
 33 35  1  0  0  0  0
 34 33  1  0  0  0  0
 37 38  1  0  0  0  0
 39 40  1  0  0  0  0
 39 37  1  0  0  0  0
 41 39  2  0  0  0  0
 42 41  1  0  0  0  0
 43 41  1  0  0  0  0
 43 31  2  0  0  0  0
 44 45  1  6  0  0  0
 44  5  1  0  0  0  0
 44  3  1  0  0  0  0
 46 44  1  0  0  0  0
 47 46  1  0  0  0  0
 48 47  2  0  0  0  0
 49 52  1  0  0  0  0
 49 51  1  0  0  0  0
 50 49  1  0  0  0  0
 53 55  2  0  0  0  0
 53 48  1  0  0  0  0
 54 53  1  0  0  0  0
 55 57  1  0  0  0  0
 56 55  1  0  0  0  0
 57 58  1  0  0  0  0
 57 46  2  0  0  0  0
 59 64  1  0  0  0  0
 59 60  1  0  0  0  0
 60 62  1  0  0  0  0
 60 61  1  0  0  0  0
 63 60  1  0  0  0  0
 64 66  1  0  0  0  0
 64 67  1  0  0  0  0
 65 64  1  0  0  0  0
M  END
$$$$
