CSD_code = OYAVAM | q = 0 | S = 0 | Stoichiometry = C10H23ClNO4PPd | MND = 4
 OpenBabel04212202083D

 41 41  0  0  0  0  0  0  0  0999 V2000
    1.0019    5.5277    1.6204 Pd  0  0  0  0  0  0  0  0  0  0  0  0
   -0.6367    5.0847    3.0469 Cl  0  0  0  0  0  0  0  0  0  0  0  0
    2.2050    3.7254    2.0206 P   0  0  0  0  0  0  0  0  0  0  0  0
    0.0718    7.4746    0.6042 O   0  0  0  0  0  0  0  0  0  0  0  0
   -0.8652    7.4688    0.3774 H   0  0  0  0  0  0  0  0  0  0  0  0
    2.4539    2.9424    0.8054 O   0  0  0  0  0  0  0  0  0  0  0  0
    3.5948    4.3589    2.6403 O   0  0  0  0  0  0  0  0  0  0  0  0
    1.8373    2.8736    3.3307 O   0  0  0  0  0  0  0  0  0  0  0  0
    2.3999    5.9646    0.0706 N   0  0  0  0  0  4  0  0  0  0  0  0
    3.3279    5.6770    0.3787 H   0  0  0  0  0  0  0  0  0  0  0  0
    2.1457    5.3737   -0.7235 H   0  0  0  0  0  0  0  0  0  0  0  0
    0.8625    7.7442   -0.5404 C   0  0  0  0  0  0  0  0  0  0  0  0
    0.7849    8.8099   -0.7971 H   0  0  0  0  0  0  0  0  0  0  0  0
    0.5233    7.1493   -1.4009 H   0  0  0  0  0  0  0  0  0  0  0  0
    2.3364    7.3959   -0.2353 C   0  0  0  0  0  0  0  0  0  0  0  0
    2.8011    8.1464    1.0161 C   0  0  0  0  0  0  0  0  0  0  0  0
    2.1862    7.8406    1.8734 H   0  0  0  0  0  0  0  0  0  0  0  0
    2.7039    9.2203    0.8805 H   0  0  0  0  0  0  0  0  0  0  0  0
    3.8427    7.9118    1.2264 H   0  0  0  0  0  0  0  0  0  0  0  0
    3.2099    7.7411   -1.4450 C   0  0  0  0  0  0  0  0  0  0  0  0
    4.2413    7.4557   -1.2521 H   0  0  0  0  0  0  0  0  0  0  0  0
    3.1825    8.8080   -1.6488 H   0  0  0  0  0  0  0  0  0  0  0  0
    2.8668    7.2134   -2.3329 H   0  0  0  0  0  0  0  0  0  0  0  0
    3.4600    4.4828    4.0509 C   0  0  0  0  0  0  0  0  0  0  0  0
    2.7896    5.8293    4.3529 C   0  0  0  0  0  0  0  0  0  0  0  0
    3.3996    6.6158    3.9067 H   0  0  0  0  0  0  0  0  0  0  0  0
    2.7308    6.0025    5.4228 H   0  0  0  0  0  0  0  0  0  0  0  0
    1.7789    5.8733    3.9211 H   0  0  0  0  0  0  0  0  0  0  0  0
    4.8643    4.4901    4.6559 C   0  0  0  0  0  0  0  0  0  0  0  0
    5.4419    3.6412    4.3065 H   0  0  0  0  0  0  0  0  0  0  0  0
    4.8062    4.4706    5.7402 H   0  0  0  0  0  0  0  0  0  0  0  0
    5.3789    5.3969    4.3479 H   0  0  0  0  0  0  0  0  0  0  0  0
    2.5876    3.2460    4.4855 C   0  0  0  0  0  0  0  0  0  0  0  0
    1.6127    3.5495    5.6191 C   0  0  0  0  0  0  0  0  0  0  0  0
    0.8480    4.2442    5.2839 H   0  0  0  0  0  0  0  0  0  0  0  0
    2.1373    3.9543    6.4800 H   0  0  0  0  0  0  0  0  0  0  0  0
    1.1176    2.6270    5.9104 H   0  0  0  0  0  0  0  0  0  0  0  0
    3.4393    2.0231    4.8332 C   0  0  0  0  0  0  0  0  0  0  0  0
    2.7761    1.1688    4.9426 H   0  0  0  0  0  0  0  0  0  0  0  0
    3.9845    2.1702    5.7608 H   0  0  0  0  0  0  0  0  0  0  0  0
    4.1299    1.8083    4.0216 H   0  0  0  0  0  0  0  0  0  0  0  0
  1  3  1  0  0  0  0
  1  2  1  0  0  0  0
  3  7  1  0  0  0  0
  3  8  1  0  0  0  0
  5  4  1  0  0  0  0
  6  3  2  0  0  0  0
  7 24  1  0  0  0  0
  8 33  1  0  0  0  0
  9 10  1  0  0  0  0
  9  1  1  0  0  0  0
 11  9  1  0  0  0  0
 12 15  1  0  0  0  0
 12  4  1  0  0  0  0
 13 12  1  0  0  0  0
 14 12  1  0  0  0  0
 15  9  1  0  0  0  0
 15 16  1  0  0  0  0
 16 19  1  0  0  0  0
 16 17  1  0  0  0  0
 18 16  1  0  0  0  0
 20 21  1  0  0  0  0
 20 15  1  0  0  0  0
 22 20  1  0  0  0  0
 23 20  1  0  0  0  0
 24 25  1  0  0  0  0
 24 33  1  0  0  0  0
 24 29  1  0  0  0  0
 25 27  1  0  0  0  0
 26 25  1  0  0  0  0
 28 25  1  0  0  0  0
 29 31  1  0  0  0  0
 30 29  1  0  0  0  0
 32 29  1  0  0  0  0
 33 38  1  0  0  0  0
 33 34  1  0  0  0  0
 34 37  1  0  0  0  0
 34 36  1  0  0  0  0
 35 34  1  0  0  0  0
 38 39  1  0  0  0  0
 38 40  1  0  0  0  0
 41 38  1  0  0  0  0
M  END
$$$$
