CSD_code = OYILOZ | q = -1 | S = 0 | Stoichiometry = C18H33Br3FeP(1-) | MND = 4
 OpenBabel04212202083D

 56 58  0  0  0  0  0  0  0  0999 V2000
   -1.1643    2.3686    4.4552 Fe  0  0  0  0  0  0  0  0  0  0  0  0
   -1.0239    0.5378    3.0614 Br  0  0  0  0  0  0  0  0  0  0  0  0
   -2.8088    3.9504    4.7521 Br  0  0  0  0  0  0  0  0  0  0  0  0
    0.8404    3.4942    4.0645 Br  0  0  0  0  0  0  0  0  0  0  0  0
   -0.9823    1.6261    6.4965 P   0  0  0  0  0  4  0  0  0  0  0  0
   -1.1735    2.9773    7.7943 C   0  0  0  0  0  0  0  0  0  0  0  0
   -2.1751    3.3803    7.5897 H   0  0  0  0  0  0  0  0  0  0  0  0
   -0.1842    4.1137    7.5318 C   0  0  0  0  0  0  0  0  0  0  0  0
   -0.2287    4.4133    6.4848 H   0  0  0  0  0  0  0  0  0  0  0  0
    0.8377    3.7863    7.7385 H   0  0  0  0  0  0  0  0  0  0  0  0
   -0.5180    5.3199    8.4036 C   0  0  0  0  0  0  0  0  0  0  0  0
    0.2020    6.1191    8.2145 H   0  0  0  0  0  0  0  0  0  0  0  0
   -1.5088    5.6910    8.1326 H   0  0  0  0  0  0  0  0  0  0  0  0
   -0.5027    4.9412    9.8810 C   0  0  0  0  0  0  0  0  0  0  0  0
   -0.7777    5.8037   10.4945 H   0  0  0  0  0  0  0  0  0  0  0  0
    0.5076    4.6362   10.1674 H   0  0  0  0  0  0  0  0  0  0  0  0
   -1.4681    3.7891   10.1389 C   0  0  0  0  0  0  0  0  0  0  0  0
   -2.4861    4.1118    9.9072 H   0  0  0  0  0  0  0  0  0  0  0  0
   -1.4390    3.5035   11.1950 H   0  0  0  0  0  0  0  0  0  0  0  0
   -1.1080    2.5853    9.2687 C   0  0  0  0  0  0  0  0  0  0  0  0
   -0.0951    2.2658    9.5221 H   0  0  0  0  0  0  0  0  0  0  0  0
   -1.7976    1.7676    9.4892 H   0  0  0  0  0  0  0  0  0  0  0  0
   -2.2939    0.4050    7.0658 C   0  0  0  0  0  0  0  0  0  0  0  0
   -2.0662    0.1050    8.0956 H   0  0  0  0  0  0  0  0  0  0  0  0
   -3.6871    1.0330    7.0253 C   0  0  0  0  0  0  0  0  0  0  0  0
   -3.9156    1.3390    6.0006 H   0  0  0  0  0  0  0  0  0  0  0  0
   -3.7320    1.9239    7.6541 H   0  0  0  0  0  0  0  0  0  0  0  0
   -4.7400    0.0351    7.5012 C   0  0  0  0  0  0  0  0  0  0  0  0
   -4.5410   -0.2288    8.5447 H   0  0  0  0  0  0  0  0  0  0  0  0
   -5.7295    0.4971    7.4571 H   0  0  0  0  0  0  0  0  0  0  0  0
   -4.7167   -1.2291    6.6482 C   0  0  0  0  0  0  0  0  0  0  0  0
   -4.9830   -0.9745    5.6201 H   0  0  0  0  0  0  0  0  0  0  0  0
   -5.4551   -1.9460    7.0188 H   0  0  0  0  0  0  0  0  0  0  0  0
   -3.3236   -1.8492    6.6635 C   0  0  0  0  0  0  0  0  0  0  0  0
   -3.3020   -2.7347    6.0236 H   0  0  0  0  0  0  0  0  0  0  0  0
   -3.0752   -2.1644    7.6820 H   0  0  0  0  0  0  0  0  0  0  0  0
   -2.2941   -0.8358    6.1740 C   0  0  0  0  0  0  0  0  0  0  0  0
   -1.3049   -1.2955    6.1464 H   0  0  0  0  0  0  0  0  0  0  0  0
   -2.5435   -0.5465    5.1517 H   0  0  0  0  0  0  0  0  0  0  0  0
    0.6331    0.8074    7.0192 C   0  0  0  0  0  0  0  0  0  0  0  0
    1.2473    1.6588    7.3460 H   0  0  0  0  0  0  0  0  0  0  0  0
    0.5821   -0.2187    8.1520 C   0  0  0  0  0  0  0  0  0  0  0  0
    0.0423   -1.1090    7.8250 H   0  0  0  0  0  0  0  0  0  0  0  0
    0.0719    0.1803    9.0290 H   0  0  0  0  0  0  0  0  0  0  0  0
    2.0017   -0.6299    8.5415 C   0  0  0  0  0  0  0  0  0  0  0  0
    2.5537    0.2483    8.8871 H   0  0  0  0  0  0  0  0  0  0  0  0
    1.9638   -1.3471    9.3672 H   0  0  0  0  0  0  0  0  0  0  0  0
    2.7248   -1.2433    7.3473 C   0  0  0  0  0  0  0  0  0  0  0  0
    3.7436   -1.5230    7.6295 H   0  0  0  0  0  0  0  0  0  0  0  0
    2.2022   -2.1521    7.0377 H   0  0  0  0  0  0  0  0  0  0  0  0
    2.7519   -0.2550    6.1861 C   0  0  0  0  0  0  0  0  0  0  0  0
    3.2338   -0.7104    5.3186 H   0  0  0  0  0  0  0  0  0  0  0  0
    3.3368    0.6236    6.4694 H   0  0  0  0  0  0  0  0  0  0  0  0
    1.3401    0.1846    5.8131 C   0  0  0  0  0  0  0  0  0  0  0  0
    1.4027    0.9125    5.0041 H   0  0  0  0  0  0  0  0  0  0  0  0
    0.7742   -0.6728    5.4430 H   0  0  0  0  0  0  0  0  0  0  0  0
  1  3  1  0  0  0  0
  1  5  1  0  0  0  0
  2  1  1  0  0  0  0
  4  1  1  0  0  0  0
  5 40  1  0  0  0  0
  5 23  1  0  0  0  0
  5  6  1  0  0  0  0
  6 20  1  0  0  0  0
  7  6  1  0  0  0  0
  8 10  1  0  0  0  0
  8  6  1  0  0  0  0
  8 11  1  0  0  0  0
  9  8  1  0  0  0  0
 11 14  1  0  0  0  0
 12 11  1  0  0  0  0
 13 11  1  0  0  0  0
 14 17  1  0  0  0  0
 14 16  1  0  0  0  0
 14 15  1  0  0  0  0
 17 19  1  0  0  0  0
 18 17  1  0  0  0  0
 20 22  1  0  0  0  0
 20 21  1  0  0  0  0
 20 17  1  0  0  0  0
 23 24  1  0  0  0  0
 25 23  1  0  0  0  0
 25 28  1  0  0  0  0
 25 27  1  0  0  0  0
 26 25  1  0  0  0  0
 28 29  1  0  0  0  0
 30 28  1  0  0  0  0
 31 34  1  0  0  0  0
 31 33  1  0  0  0  0
 31 28  1  0  0  0  0
 32 31  1  0  0  0  0
 34 36  1  0  0  0  0
 35 34  1  0  0  0  0
 37 34  1  0  0  0  0
 37 23  1  0  0  0  0
 38 37  1  0  0  0  0
 39 37  1  0  0  0  0
 40 41  1  0  0  0  0
 40 42  1  0  0  0  0
 42 45  1  0  0  0  0
 42 44  1  0  0  0  0
 43 42  1  0  0  0  0
 45 46  1  0  0  0  0
 45 47  1  0  0  0  0
 48 49  1  0  0  0  0
 48 45  1  0  0  0  0
 50 48  1  0  0  0  0
 51 53  1  0  0  0  0
 51 48  1  0  0  0  0
 52 51  1  0  0  0  0
 54 51  1  0  0  0  0
 54 40  1  0  0  0  0
 55 54  1  0  0  0  0
 56 54  1  0  0  0  0
M  END
$$$$
