CSD_code = OZEDEE | q = 0 | S = 0 | Stoichiometry = C9H8I2MoN4O3 | MND = 7
 OpenBabel04212202083D

 27 28  0  0  1  0  0  0  0  0999 V2000
    8.7877   10.6761    9.6155 Mo  0  0  0  0  0  0  0  0  0  0  0  0
    8.6943   13.4899   10.2280 I   0  0  0  0  0 15  0  0  0  0  0  0
    8.1477    8.0743    8.6155 I   0  0  0  0  0  0  0  0  0  0  0  0
    8.0102   11.3491    7.7035 N   0  0  1  0  0  0  0  0  0  0  0  0
    7.0829   12.2886    7.4881 N   0  0  0  0  0  0  0  0  0  0  0  0
    6.7046   12.8276    8.2601 H   0  0  0  0  0  0  0  0  0  0  0  0
    6.6644   10.8132   10.1822 N   0  0  2  0  0  0  0  0  0  0  0  0
    6.3006   11.1993   11.4077 N   0  0  0  0  0  0  0  0  0  0  0  0
    6.9789   11.5822   12.0551 H   0  0  0  0  0  0  0  0  0  0  0  0
   10.2732   10.8126   10.8749 C   0  0  0  0  0  0  0  0  0  0  0  0
   11.2252   10.9396   11.5371 O   0  0  0  0  0  0  0  0  0  0  0  0
   10.5728   10.4085    8.8646 C   0  0  0  0  0  2  0  0  0  0  0  0
   11.6364   10.2526    8.4647 O   0  0  0  0  0  1  0  0  0  0  0  0
    9.0218    9.6985   11.2907 C   0  0  0  0  0  0  0  0  0  0  0  0
    9.0000    9.1210   12.3005 O   0  0  0  0  0  0  0  0  0  0  0  0
    8.3968   10.9338    6.5032 C   0  0  0  0  0  3  0  0  0  0  0  0
    9.1326   10.1584    6.3838 H   0  0  0  0  0  0  0  0  0  0  0  0
    7.7084   11.6238    5.5050 C   0  0  0  0  0  0  0  0  0  0  0  0
    7.8092   11.5004    4.4477 H   0  0  0  0  0  0  0  0  0  0  0  0
    6.8786   12.4915    6.1793 C   0  0  0  0  0  0  0  0  0  0  0  0
    6.1763   13.2157    5.8195 H   0  0  0  0  0  0  0  0  0  0  0  0
    5.5524   10.4114    9.5791 C   0  0  0  0  0  3  0  0  0  0  0  0
    5.5626   10.0269    8.5740 H   0  0  0  0  0  0  0  0  0  0  0  0
    4.4585   10.5468   10.4368 C   0  0  0  0  0  0  0  0  0  0  0  0
    3.4400   10.2978   10.2276 H   0  0  0  0  0  0  0  0  0  0  0  0
    4.9805   11.0570   11.6030 C   0  0  0  0  0  0  0  0  0  0  0  0
    4.5114   11.3167   12.5297 H   0  0  0  0  0  0  0  0  0  0  0  0
  1  7  1  0  0  0  0
  1 10  1  0  0  0  0
  1 14  1  0  0  0  0
  3  1  1  0  0  0  0
  4 16  1  6  0  0  0
  4  1  1  0  0  0  0
  5  4  1  0  0  0  0
  5  6  1  0  0  0  0
  7 22  1  1  0  0  0
  7  8  1  0  0  0  0
  8 26  1  0  0  0  0
  8  9  1  0  0  0  0
 10 14  1  0  0  0  0
 10 11  2  0  0  0  0
 12  1  1  0  0  0  0
 13 12  1  0  0  0  0
 14 15  2  0  0  0  0
 17 16  1  0  0  0  0
 18 20  2  0  0  0  0
 18 16  1  0  0  0  0
 19 18  1  0  0  0  0
 20  5  1  0  0  0  0
 21 20  1  0  0  0  0
 22 24  1  0  0  0  0
 23 22  1  0  0  0  0
 24 26  2  0  0  0  0
 25 24  1  0  0  0  0
 26 27  1  0  0  0  0
M  END
$$$$
