CSD_code = OZESOC | q = 1 | S = 0 | Stoichiometry = C29H29BrN5Pt(1+) | MND = 4
 OpenBabel04212202083D

 65 71  0  0  1  0  0  0  0  0999 V2000
    4.4008   10.6867    2.0910 Pt  0  0  1  0  0  0  0  0  0  0  0  0
    6.2049   11.2005    0.6516 Br  0  0  0  0  0  0  0  0  0  0  0  0
    2.6328   12.5655    0.2101 N   0  0  0  0  0  0  0  0  0  0  0  0
    1.8557   11.9036    2.1112 N   0  0  0  0  0  0  0  0  0  0  0  0
    3.0001   10.4775    3.4321 N   0  0  0  0  0  0  0  0  0  0  0  0
    4.5054    9.1395    4.4481 N   0  0  0  0  0  0  0  0  0  0  0  0
    6.3869    8.6350    3.5197 N   0  0  0  0  0  0  0  0  0  0  0  0
    3.4637   12.7248   -0.9371 C   0  0  0  0  0  0  0  0  0  0  0  0
    3.6781   11.6231   -1.7654 C   0  0  0  0  0  0  0  0  0  0  0  0
    4.4842   11.7940   -2.8780 C   0  0  0  0  0  0  0  0  0  0  0  0
    4.6626   10.9526   -3.5297 H   0  0  0  0  0  0  0  0  0  0  0  0
    5.0765   13.0165   -3.1654 C   0  0  0  0  0  0  0  0  0  0  0  0
    4.8522   14.0871   -2.3105 C   0  0  0  0  0  0  0  0  0  0  0  0
    5.3214   15.0370   -2.5168 H   0  0  0  0  0  0  0  0  0  0  0  0
    4.0509   13.9632   -1.1873 C   0  0  0  0  0  0  0  0  0  0  0  0
    3.0730   10.2900   -1.4442 C   0  0  0  0  0  0  0  0  0  0  0  0
    3.4881    9.9040   -0.5040 H   0  0  0  0  0  0  0  0  0  0  0  0
    3.2988    9.5745   -2.2284 H   0  0  0  0  0  0  0  0  0  0  0  0
    1.9906   10.3603   -1.3363 H   0  0  0  0  0  0  0  0  0  0  0  0
    5.9727   13.1705   -4.3509 C   0  0  0  0  0  0  0  0  0  0  0  0
    5.7457   12.4299   -5.1128 H   0  0  0  0  0  0  0  0  0  0  0  0
    7.0082   13.0318   -4.0408 H   0  0  0  0  0  0  0  0  0  0  0  0
    5.8825   14.1646   -4.7813 H   0  0  0  0  0  0  0  0  0  0  0  0
    3.8474   15.1129   -0.2483 C   0  0  0  0  0  0  0  0  0  0  0  0
    2.8205   15.4766   -0.2836 H   0  0  0  0  0  0  0  0  0  0  0  0
    4.5062   15.9344   -0.5125 H   0  0  0  0  0  0  0  0  0  0  0  0
    4.0678   14.8132    0.7759 H   0  0  0  0  0  0  0  0  0  0  0  0
    2.9569   11.8543    1.2851 C   0  0  1  0  0  3  0  0  0  0  0  0
    1.3633   13.0725    0.3356 C   0  0  0  0  0  0  0  0  0  0  0  0
    0.9128   13.6670   -0.4323 H   0  0  0  0  0  0  0  0  0  0  0  0
    0.8696   12.6627    1.5267 C   0  0  0  0  0  0  0  0  0  0  0  0
   -0.0800   12.8437    1.9842 H   0  0  0  0  0  0  0  0  0  0  0  0
    1.8782   11.1968    3.3048 C   0  0  1  0  0  3  0  0  0  0  0  0
    0.9140   11.1775    4.3016 C   0  0  0  0  0  0  0  0  0  0  0  0
    0.0054   11.7475    4.2097 H   0  0  0  0  0  0  0  0  0  0  0  0
    1.1622   10.4053    5.4304 C   0  0  0  0  0  0  0  0  0  0  0  0
    0.4302   10.3718    6.2208 H   0  0  0  0  0  0  0  0  0  0  0  0
    2.3448    9.6869    5.5636 C   0  0  0  0  0  0  0  0  0  0  0  0
    2.5421    9.1048    6.4474 H   0  0  0  0  0  0  0  0  0  0  0  0
    3.2635    9.7530    4.5267 C   0  0  0  0  0  0  0  0  0  0  0  0
    5.1179    8.2259    5.2729 C   0  0  0  0  0  0  0  0  0  0  0  0
    4.6822    7.8740    6.1842 H   0  0  0  0  0  0  0  0  0  0  0  0
    6.2952    7.9136    4.6841 C   0  0  0  0  0  0  0  0  0  0  0  0
    7.0620    7.2318    4.9893 H   0  0  0  0  0  0  0  0  0  0  0  0
    5.3090    9.3959    3.3590 C   0  0  0  0  0  0  0  0  0  0  0  0
    7.4539    8.5344    2.5801 C   0  0  0  0  0  0  0  0  0  0  0  0
    7.2106    7.9063    1.3577 C   0  0  0  0  0  0  0  0  0  0  0  0
    8.2558    7.8146    0.4556 C   0  0  0  0  0  0  0  0  0  0  0  0
    8.0873    7.3346   -0.4961 H   0  0  0  0  0  0  0  0  0  0  0  0
    9.5114    8.3370    0.7411 C   0  0  0  0  0  0  0  0  0  0  0  0
    9.7132    8.9651    1.9614 C   0  0  0  0  0  0  0  0  0  0  0  0
   10.6803    9.3876    2.1877 H   0  0  0  0  0  0  0  0  0  0  0  0
    8.6963    9.0784    2.8965 C   0  0  0  0  0  0  0  0  0  0  0  0
    5.8514    7.3686    1.0252 C   0  0  0  0  0  0  0  0  0  0  0  0
    5.5045    6.6680    1.7847 H   0  0  0  0  0  0  0  0  0  0  0  0
    5.8714    6.8607    0.0663 H   0  0  0  0  0  0  0  0  0  0  0  0
    5.1258    8.1901    0.9576 H   0  0  0  0  0  0  0  0  0  0  0  0
   10.6097    8.2552   -0.2685 C   0  0  0  0  0  0  0  0  0  0  0  0
   10.4990    9.0658   -0.9884 H   0  0  0  0  0  0  0  0  0  0  0  0
   10.5679    7.3156   -0.8137 H   0  0  0  0  0  0  0  0  0  0  0  0
   11.5838    8.3510    0.2028 H   0  0  0  0  0  0  0  0  0  0  0  0
    8.9150    9.7924    4.1955 C   0  0  0  0  0  0  0  0  0  0  0  0
    9.8729   10.3032    4.1859 H   0  0  0  0  0  0  0  0  0  0  0  0
    8.9104    9.0969    5.0347 H   0  0  0  0  0  0  0  0  0  0  0  0
    8.1336   10.5331    4.3624 H   0  0  0  0  0  0  0  0  0  0  0  0
  1  2  1  1  0  0  0
  1 45  2  0  0  0  0
  1  5  1  0  0  0  0
  3 29  1  0  0  0  0
  4 33  1  0  0  0  0
  5 40  1  0  0  0  0
  6 40  1  0  0  0  0
  6 41  1  0  0  0  0
  7 43  1  0  0  0  0
  8  3  1  0  0  0  0
  9 16  1  0  0  0  0
  9  8  2  0  0  0  0
 10  9  1  0  0  0  0
 11 10  1  0  0  0  0
 12 10  2  0  0  0  0
 12 13  1  0  0  0  0
 13 15  2  0  0  0  0
 14 13  1  0  0  0  0
 15  8  1  0  0  0  0
 15 24  1  0  0  0  0
 16 19  1  0  0  0  0
 16 17  1  0  0  0  0
 18 16  1  0  0  0  0
 20 22  1  0  0  0  0
 20 12  1  0  0  0  0
 21 20  1  0  0  0  0
 23 20  1  0  0  0  0
 24 27  1  0  0  0  0
 25 24  1  0  0  0  0
 26 24  1  0  0  0  0
 28  3  1  6  0  0  0
 28  1  1  0  0  0  0
 28  4  1  0  0  0  0
 29 31  2  0  0  0  0
 30 29  1  0  0  0  0
 31 32  1  0  0  0  0
 31  4  1  0  0  0  0
 33  5  1  0  0  0  0
 33 34  1  1  0  0  0
 34 36  2  0  0  0  0
 35 34  1  0  0  0  0
 36 38  1  0  0  0  0
 36 37  1  0  0  0  0
 38 39  1  0  0  0  0
 40 38  2  0  0  0  0
 41 42  1  0  0  0  0
 43 44  1  0  0  0  0
 43 41  2  0  0  0  0
 45  7  1  0  0  0  0
 45  6  1  0  0  0  0
 46 53  1  0  0  0  0
 46  7  1  0  0  0  0
 47 46  2  0  0  0  0
 48 50  2  0  0  0  0
 48 47  1  0  0  0  0
 49 48  1  0  0  0  0
 50 51  1  0  0  0  0
 51 52  1  0  0  0  0
 51 53  2  0  0  0  0
 53 62  1  0  0  0  0
 54 47  1  0  0  0  0
 54 55  1  0  0  0  0
 56 54  1  0  0  0  0
 57 54  1  0  0  0  0
 58 61  1  0  0  0  0
 58 50  1  0  0  0  0
 59 58  1  0  0  0  0
 60 58  1  0  0  0  0
 62 65  1  0  0  0  0
 62 64  1  0  0  0  0
 63 62  1  0  0  0  0
M  END
$$$$
