CSD_code = OZETIX | q = 1 | S = 0 | Stoichiometry = C29H29ClN5Pt(1+) | MND = 4
 OpenBabel04212202083D

 65 71  0  0  1  0  0  0  0  0999 V2000
    3.8918    5.7878    0.2735 Pt  0  0  2  0  0  0  0  0  0  0  0  0
    2.6195    5.8257    2.0987 Cl  0  0  0  0  0  0  0  0  0  0  0  0
    4.9959    5.7387   -1.3251 N   0  0  0  0  0  0  0  0  0  0  0  0
    6.3122    4.3934   -0.0818 N   0  0  0  0  0  0  0  0  0  0  0  0
    5.7787    3.8229    1.9292 N   0  0  0  0  0  0  0  0  0  0  0  0
    3.4053    7.0940   -2.1740 N   0  0  0  0  0  0  0  0  0  0  0  0
    1.7471    7.7862   -0.9799 N   0  0  0  0  0  0  0  0  0  0  0  0
    4.5946    6.4162   -2.4085 C   0  0  1  0  0  3  0  0  0  0  0  0
    5.3502    6.3919   -3.5711 C   0  0  0  0  0  0  0  0  0  0  0  0
    5.0398    6.9282   -4.4515 H   0  0  0  0  0  0  0  0  0  0  0  0
    6.5265    5.6503   -3.5656 C   0  0  0  0  0  0  0  0  0  0  0  0
    7.1342    5.6153   -4.4550 H   0  0  0  0  0  0  0  0  0  0  0  0
    6.9321    4.9519   -2.4336 C   0  0  0  0  0  0  0  0  0  0  0  0
    7.8438    4.3794   -2.4355 H   0  0  0  0  0  0  0  0  0  0  0  0
    6.1241    5.0171   -1.3085 C   0  0  0  0  0  0  0  0  0  0  0  0
    5.3760    4.5771    0.9132 C   0  0  2  0  0  3  0  0  0  0  0  0
    7.2866    3.5265    0.3523 C   0  0  0  0  0  0  0  0  0  0  0  0
    8.1214    3.2326   -0.2485 H   0  0  0  0  0  0  0  0  0  0  0  0
    6.9455    3.1731    1.6134 C   0  0  0  0  0  0  0  0  0  0  0  0
    7.4284    2.5095    2.3011 H   0  0  0  0  0  0  0  0  0  0  0  0
    5.0610    3.6642    3.1505 C   0  0  0  0  0  0  0  0  0  0  0  0
    5.5122    4.3149    4.2953 C   0  0  0  0  0  0  0  0  0  0  0  0
    4.8013    4.1310    5.4715 C   0  0  0  0  0  0  0  0  0  0  0  0
    5.1361    4.6302    6.3683 H   0  0  0  0  0  0  0  0  0  0  0  0
    3.6690    3.3309    5.5163 C   0  0  0  0  0  0  0  0  0  0  0  0
    3.2382    2.7112    4.3490 C   0  0  0  0  0  0  0  0  0  0  0  0
    2.3494    2.0989    4.3737 H   0  0  0  0  0  0  0  0  0  0  0  0
    3.9157    2.8676    3.1526 C   0  0  0  0  0  0  0  0  0  0  0  0
    6.7125    5.2100    4.2402 C   0  0  0  0  0  0  0  0  0  0  0  0
    6.8630    5.7001    5.1972 H   0  0  0  0  0  0  0  0  0  0  0  0
    6.5755    5.9771    3.4778 H   0  0  0  0  0  0  0  0  0  0  0  0
    7.6147    4.6481    3.9988 H   0  0  0  0  0  0  0  0  0  0  0  0
    2.9019    3.1495    6.7866 C   0  0  0  0  0  0  0  0  0  0  0  0
    3.4492    3.5472    7.6365 H   0  0  0  0  0  0  0  0  0  0  0  0
    2.6946    2.0959    6.9616 H   0  0  0  0  0  0  0  0  0  0  0  0
    1.9465    3.6684    6.7181 H   0  0  0  0  0  0  0  0  0  0  0  0
    3.4291    2.2256    1.8897 C   0  0  0  0  0  0  0  0  0  0  0  0
    2.5829    1.5776    2.0959 H   0  0  0  0  0  0  0  0  0  0  0  0
    4.2136    1.6353    1.4160 H   0  0  0  0  0  0  0  0  0  0  0  0
    3.1032    2.9968    1.1837 H   0  0  0  0  0  0  0  0  0  0  0  0
    2.8060    6.9858   -0.9373 C   0  0  0  0  0  0  0  0  0  0  0  0
    2.6872    7.9605   -2.9633 C   0  0  0  0  0  0  0  0  0  0  0  0
    2.9598    8.2021   -3.9691 H   0  0  0  0  0  0  0  0  0  0  0  0
    1.6497    8.3904   -2.2083 C   0  0  0  0  0  0  0  0  0  0  0  0
    0.8643    9.0805   -2.4396 H   0  0  0  0  0  0  0  0  0  0  0  0
    0.8783    8.0327    0.1226 C   0  0  0  0  0  0  0  0  0  0  0  0
   -0.3965    7.4729    0.1251 C   0  0  0  0  0  0  0  0  0  0  0  0
   -1.2237    7.7422    1.2045 C   0  0  0  0  0  0  0  0  0  0  0  0
   -2.2148    7.3145    1.2237 H   0  0  0  0  0  0  0  0  0  0  0  0
   -0.8025    8.5384    2.2599 C   0  0  0  0  0  0  0  0  0  0  0  0
    0.4826    9.0666    2.2307 C   0  0  0  0  0  0  0  0  0  0  0  0
    0.8219    9.6759    3.0547 H   0  0  0  0  0  0  0  0  0  0  0  0
    1.3429    8.8234    1.1740 C   0  0  0  0  0  0  0  0  0  0  0  0
   -0.8433    6.5852   -0.9964 C   0  0  0  0  0  0  0  0  0  0  0  0
   -1.8006    6.1309   -0.7596 H   0  0  0  0  0  0  0  0  0  0  0  0
   -0.1166    5.7904   -1.1643 H   0  0  0  0  0  0  0  0  0  0  0  0
   -0.9538    7.1468   -1.9240 H   0  0  0  0  0  0  0  0  0  0  0  0
   -1.6984    8.8034    3.4270 C   0  0  0  0  0  0  0  0  0  0  0  0
   -2.7360    8.5971    3.1799 H   0  0  0  0  0  0  0  0  0  0  0  0
   -1.6098    9.8364    3.7551 H   0  0  0  0  0  0  0  0  0  0  0  0
   -1.4120    8.1634    4.2612 H   0  0  0  0  0  0  0  0  0  0  0  0
    2.7364    9.3736    1.1621 C   0  0  0  0  0  0  0  0  0  0  0  0
    2.9380    9.9244    0.2434 H   0  0  0  0  0  0  0  0  0  0  0  0
    3.4608    8.5549    1.2405 H   0  0  0  0  0  0  0  0  0  0  0  0
    2.8875   10.0386    2.0067 H   0  0  0  0  0  0  0  0  0  0  0  0
  1 16  1  0  0  0  0
  1  2  1  6  0  0  0
  3 15  1  0  0  0  0
  3  1  1  0  0  0  0
  4 17  1  0  0  0  0
  5 21  1  0  0  0  0
  6 41  1  0  0  0  0
  7 41  1  0  0  0  0
  7 46  1  0  0  0  0
  8  9  1  1  0  0  0
  8  6  1  0  0  0  0
  8  3  1  0  0  0  0
  9 11  2  0  0  0  0
 10  9  1  0  0  0  0
 11 13  1  0  0  0  0
 12 11  1  0  0  0  0
 13 15  2  0  0  0  0
 14 13  1  0  0  0  0
 15  4  1  0  0  0  0
 16  4  1  6  0  0  0
 16  5  1  0  0  0  0
 17 19  2  0  0  0  0
 18 17  1  0  0  0  0
 19  5  1  0  0  0  0
 19 20  1  0  0  0  0
 21 28  2  0  0  0  0
 21 22  1  0  0  0  0
 22 23  2  0  0  0  0
 23 25  1  0  0  0  0
 23 24  1  0  0  0  0
 25 33  1  0  0  0  0
 26 27  1  0  0  0  0
 26 25  2  0  0  0  0
 28 26  1  0  0  0  0
 29 22  1  0  0  0  0
 29 30  1  0  0  0  0
 31 29  1  0  0  0  0
 32 29  1  0  0  0  0
 33 35  1  0  0  0  0
 33 34  1  0  0  0  0
 36 33  1  0  0  0  0
 37 38  1  0  0  0  0
 37 28  1  0  0  0  0
 39 37  1  0  0  0  0
 40 37  1  0  0  0  0
 41  1  2  0  0  0  0
 42 44  2  0  0  0  0
 42  6  1  0  0  0  0
 43 42  1  0  0  0  0
 44  7  1  0  0  0  0
 45 44  1  0  0  0  0
 46 47  2  0  0  0  0
 46 53  1  0  0  0  0
 47 48  1  0  0  0  0
 48 49  1  0  0  0  0
 48 50  2  0  0  0  0
 50 58  1  0  0  0  0
 51 50  1  0  0  0  0
 51 52  1  0  0  0  0
 53 51  2  0  0  0  0
 54 55  1  0  0  0  0
 54 47  1  0  0  0  0
 56 54  1  0  0  0  0
 57 54  1  0  0  0  0
 58 60  1  0  0  0  0
 58 61  1  0  0  0  0
 59 58  1  0  0  0  0
 62 53  1  0  0  0  0
 62 64  1  0  0  0  0
 62 65  1  0  0  0  0
 63 62  1  0  0  0  0
M  END
$$$$
