CSD_code = OZIJAK | q = 0 | S = 0 | Stoichiometry = C16H12Cl2N2O3RuS | MND = 6
 OpenBabel04212202083D

 37 40  0  0  0  0  0  0  0  0999 V2000
    6.6026    2.2284    4.1025 Ru  0  0  0  0  0  0  0  0  0  0  0  0
    1.6812    0.7612   -0.8274 Cl  0  0  0  0  0  0  0  0  0  0  0  0
    5.8390    0.0621    3.4884 Cl  0  0  0  0  0  0  0  0  0  0  0  0
    7.5435    4.5211    4.2872 S   0  0  1  0  0  3  0  0  0  0  0  0
    4.6309    2.8337    3.7523 O   0  0  0  0  0  0  0  0  0  0  0  0
    5.9684    1.5587    6.9700 O   0  0  0  0  0  1  0  0  0  0  0  0
    9.3336    1.0170    4.3195 O   0  0  0  0  0  1  0  0  0  0  0  0
    6.7773    2.6867    2.1521 N   0  0  0  0  0  0  0  0  0  0  0  0
    5.9430    2.4631    1.2178 N   0  0  0  0  0  2  0  0  0  0  0  0
    4.0336    2.3531    2.7348 C   0  0  0  0  0  0  0  0  0  0  0  0
    2.6191    2.2003    2.7592 C   0  0  0  0  0  0  0  0  0  0  0  0
    2.1222    2.4235    3.6912 H   0  0  0  0  0  0  0  0  0  0  0  0
    1.9268    1.6989    1.6966 C   0  0  0  0  0  0  0  0  0  0  0  0
    0.8631    1.5308    1.7664 H   0  0  0  0  0  0  0  0  0  0  0  0
    2.5943    1.3914    0.4970 C   0  0  0  0  0  0  0  0  0  0  0  0
    3.9367    1.6012    0.3724 C   0  0  0  0  0  0  0  0  0  0  0  0
    4.4610    1.3811   -0.5436 H   0  0  0  0  0  0  0  0  0  0  0  0
    4.6885    2.0756    1.4697 C   0  0  0  0  0  0  0  0  0  0  0  0
    7.9158    3.4049    1.7924 C   0  0  0  0  0  0  0  0  0  0  0  0
    8.5311    3.2993    0.5461 C   0  0  0  0  0  0  0  0  0  0  0  0
    8.1125    2.6186   -0.1787 H   0  0  0  0  0  0  0  0  0  0  0  0
    9.6723    4.0321    0.2816 C   0  0  0  0  0  0  0  0  0  0  0  0
   10.1598    3.9291   -0.6756 H   0  0  0  0  0  0  0  0  0  0  0  0
   10.1975    4.8933    1.2343 C   0  0  0  0  0  0  0  0  0  0  0  0
   11.0910    5.4583    1.0201 H   0  0  0  0  0  0  0  0  0  0  0  0
    9.5715    5.0391    2.4627 C   0  0  0  0  0  0  0  0  0  0  0  0
    9.9567    5.7179    3.2073 H   0  0  0  0  0  0  0  0  0  0  0  0
    8.4375    4.2989    2.7373 C   0  0  0  0  0  0  0  0  0  0  0  0
    6.2371    1.8422    5.9027 C   0  0  0  0  0  2  0  0  0  0  0  0
    8.3133    1.5226    4.2445 C   0  0  0  0  0  2  0  0  0  0  0  0
    6.1690    5.5935    3.6867 C   0  0  0  0  0  0  0  0  0  0  0  0
    5.7274    5.1264    2.8057 H   0  0  0  0  0  0  0  0  0  0  0  0
    5.4434    5.5862    4.5000 H   0  0  0  0  0  0  0  0  0  0  0  0
    6.6668    6.9919    3.3879 C   0  0  0  0  0  0  0  0  0  0  0  0
    5.8327    7.6178    3.0791 H   0  0  0  0  0  0  0  0  0  0  0  0
    7.4022    6.9761    2.5861 H   0  0  0  0  0  0  0  0  0  0  0  0
    7.1225    7.4307    4.2718 H   0  0  0  0  0  0  0  0  0  0  0  0
  1 30  1  0  0  0  0
  1  4  1  0  0  0  0
  1 29  1  0  0  0  0
  2 15  1  0  0  0  0
  3  1  1  0  0  0  0
  4 31  1  6  0  0  0
  5  1  1  0  0  0  0
  8  1  1  0  0  0  0
  9 18  1  0  0  0  0
  9  8  1  0  0  0  0
 10 11  1  0  0  0  0
 10  5  1  0  0  0  0
 11 12  1  0  0  0  0
 13 14  1  0  0  0  0
 13 11  2  0  0  0  0
 15 13  1  0  0  0  0
 16 15  2  0  0  0  0
 16 18  1  0  0  0  0
 17 16  1  0  0  0  0
 18 10  2  0  0  0  0
 19  8  1  0  0  0  0
 19 28  1  0  0  0  0
 20 19  2  0  0  0  0
 21 20  1  0  0  0  0
 22 20  1  0  0  0  0
 22 24  2  0  0  0  0
 23 22  1  0  0  0  0
 24 26  1  0  0  0  0
 25 24  1  0  0  0  0
 26 28  2  0  0  0  0
 26 27  1  0  0  0  0
 28  4  1  0  0  0  0
 29  6  1  0  0  0  0
 30  7  1  0  0  0  0
 31 33  1  0  0  0  0
 32 31  1  0  0  0  0
 34 31  1  0  0  0  0
 34 37  1  0  0  0  0
 35 34  1  0  0  0  0
 36 34  1  0  0  0  0
M  END
$$$$
