CSD_code = OZIWEB | q = 0 | S = 0 | Stoichiometry = C25H25Br2N2O2Re | MND = 6
 OpenBabel04212202083D

 57 60  0  0  0  0  0  0  0  0999 V2000
    5.4762   11.7187   11.7680 Re  0  0  0  0  0  0  0  0  0  0  0  0
    7.5808   10.6230   10.8515 Br  0  0  0  0  0  0  0  0  0  0  0  0
    3.2557   12.7359   12.5720 Br  0  0  0  0  0  0  0  0  0  0  0  0
    6.3223   12.5334   12.9286 O   0  0  0  0  0  1  0  0  0  0  0  0
    4.5233   10.8756   10.5487 O   0  0  0  0  0  0  0  0  0  0  0  0
    5.7398   13.3963   10.3965 N   0  0  0  0  0  0  0  0  0  0  0  0
    5.1992   10.0468   13.1418 N   0  0  0  0  0  0  0  0  0  0  0  0
    5.2653    8.7881   12.7166 C   0  0  0  0  0  3  0  0  0  0  0  0
    5.4851    8.6331   11.6684 H   0  0  0  0  0  0  0  0  0  0  0  0
    5.5197   16.4061    5.3158 C   0  0  0  0  0  0  0  0  0  0  0  0
    6.5584   16.3026    5.0346 H   0  0  0  0  0  0  0  0  0  0  0  0
    3.5023   10.4146    9.7769 C   0  0  0  0  0  0  0  0  0  0  0  0
    3.4543    9.3168    9.8114 H   0  0  0  0  0  0  0  0  0  0  0  0
    3.6373   10.7233    8.7305 H   0  0  0  0  0  0  0  0  0  0  0  0
    2.5480   10.8224   10.1444 H   0  0  0  0  0  0  0  0  0  0  0  0
    5.0897    7.7092   13.5604 C   0  0  0  0  0  0  0  0  0  0  0  0
    5.1553    6.7087   13.1616 H   0  0  0  0  0  0  0  0  0  0  0  0
    4.8381    7.9260   14.9104 C   0  0  0  0  0  0  0  0  0  0  0  0
    5.7900    6.8482   16.9025 C   0  0  0  0  0  0  0  0  0  0  0  0
    5.1830   16.6260    6.6434 C   0  0  0  0  0  0  0  0  0  0  0  0
    5.9882   13.1986    9.1027 C   0  0  0  0  0  3  0  0  0  0  0  0
    6.0709   12.1727    8.7689 H   0  0  0  0  0  0  0  0  0  0  0  0
    4.9658   10.2727   14.4354 C   0  0  0  0  0  0  0  0  0  0  0  0
    4.9273   11.3090   14.7442 H   0  0  0  0  0  0  0  0  0  0  0  0
    6.2420   16.6996    7.7172 C   0  0  0  0  0  0  0  0  0  0  0  0
    6.1586   17.6437    8.2593 H   0  0  0  0  0  0  0  0  0  0  0  0
    7.2318   16.6517    7.2576 H   0  0  0  0  0  0  0  0  0  0  0  0
    5.6637   14.6468   10.8477 C   0  0  0  0  0  0  0  0  0  0  0  0
    5.4652   14.7677   11.9046 H   0  0  0  0  0  0  0  0  0  0  0  0
    4.7837    9.2498   15.3412 C   0  0  0  0  0  0  0  0  0  0  0  0
    4.6041    9.4812   16.3790 H   0  0  0  0  0  0  0  0  0  0  0  0
    5.8271   15.7414   10.0222 C   0  0  0  0  0  0  0  0  0  0  0  0
    5.7555   16.7334   10.4397 H   0  0  0  0  0  0  0  0  0  0  0  0
    4.6761    6.7985   15.8831 C   0  0  0  0  0  0  0  0  0  0  0  0
    3.7135    6.8911   16.3904 H   0  0  0  0  0  0  0  0  0  0  0  0
    4.6986    5.8439   15.3531 H   0  0  0  0  0  0  0  0  0  0  0  0
    7.1058    6.6691   16.4935 C   0  0  0  0  0  0  0  0  0  0  0  0
    7.3210    6.4829   15.4509 H   0  0  0  0  0  0  0  0  0  0  0  0
    6.0821   15.5528    8.6683 C   0  0  0  0  0  0  0  0  0  0  0  0
    2.8586   16.6737    6.0218 C   0  0  0  0  0  0  0  0  0  0  0  0
    1.8210   16.7773    6.3020 H   0  0  0  0  0  0  0  0  0  0  0  0
    3.8432   16.7559    6.9892 C   0  0  0  0  0  0  0  0  0  0  0  0
    3.5722   16.9223    8.0222 H   0  0  0  0  0  0  0  0  0  0  0  0
    6.1594   14.2386    8.2139 C   0  0  0  0  0  0  0  0  0  0  0  0
    6.3544   14.0278    7.1741 H   0  0  0  0  0  0  0  0  0  0  0  0
    7.8677    6.9724   18.7469 C   0  0  0  0  0  0  0  0  0  0  0  0
    8.6741    7.0203   19.4631 H   0  0  0  0  0  0  0  0  0  0  0  0
    5.5260    7.0953   18.2416 C   0  0  0  0  0  0  0  0  0  0  0  0
    4.5064    7.2377   18.5716 H   0  0  0  0  0  0  0  0  0  0  0  0
    3.2025   16.4591    4.6972 C   0  0  0  0  0  0  0  0  0  0  0  0
    2.4341   16.3962    3.9414 H   0  0  0  0  0  0  0  0  0  0  0  0
    6.5598    7.1536   19.1607 C   0  0  0  0  0  0  0  0  0  0  0  0
    6.3417    7.3428   20.2014 H   0  0  0  0  0  0  0  0  0  0  0  0
    4.5344   16.3264    4.3462 C   0  0  0  0  0  0  0  0  0  0  0  0
    4.8092   16.1595    3.3152 H   0  0  0  0  0  0  0  0  0  0  0  0
    8.1389    6.7302   17.4105 C   0  0  0  0  0  0  0  0  0  0  0  0
    9.1575    6.5905   17.0809 H   0  0  0  0  0  0  0  0  0  0  0  0
  1  3  1  0  0  0  0
  1  4  1  0  0  0  0
  1  7  1  0  0  0  0
  2  1  1  0  0  0  0
  5  1  1  0  0  0  0
  6 28  1  0  0  0  0
  6  1  1  0  0  0  0
  7 23  1  0  0  0  0
  8  7  1  0  0  0  0
  8 16  1  0  0  0  0
  9  8  1  0  0  0  0
 10 20  1  0  0  0  0
 11 10  1  0  0  0  0
 12 13  1  0  0  0  0
 12 15  1  0  0  0  0
 12  5  1  0  0  0  0
 14 12  1  0  0  0  0
 16 18  2  0  0  0  0
 17 16  1  0  0  0  0
 18 30  1  0  0  0  0
 18 34  1  0  0  0  0
 19 48  1  0  0  0  0
 20 42  2  0  0  0  0
 20 25  1  0  0  0  0
 21  6  1  0  0  0  0
 22 21  1  0  0  0  0
 23 24  1  0  0  0  0
 23 30  2  0  0  0  0
 25 26  1  0  0  0  0
 25 39  1  0  0  0  0
 27 25  1  0  0  0  0
 28 29  1  0  0  0  0
 30 31  1  0  0  0  0
 32 33  1  0  0  0  0
 32 28  2  0  0  0  0
 34 35  1  0  0  0  0
 34 19  1  0  0  0  0
 36 34  1  0  0  0  0
 37 19  2  0  0  0  0
 37 56  1  0  0  0  0
 38 37  1  0  0  0  0
 39 32  1  0  0  0  0
 40 41  1  0  0  0  0
 40 42  1  0  0  0  0
 42 43  1  0  0  0  0
 44 39  2  0  0  0  0
 44 21  1  0  0  0  0
 45 44  1  0  0  0  0
 46 52  1  0  0  0  0
 46 47  1  0  0  0  0
 48 49  1  0  0  0  0
 48 52  2  0  0  0  0
 50 40  2  0  0  0  0
 51 50  1  0  0  0  0
 52 53  1  0  0  0  0
 54 50  1  0  0  0  0
 54 10  2  0  0  0  0
 55 54  1  0  0  0  0
 56 46  2  0  0  0  0
 57 56  1  0  0  0  0
M  END
$$$$
