CSD_code = OZOWIK | q = 0 | S = 0 | Stoichiometry = C30H34I2N2Pt | MND = 6
 OpenBabel04212202083D

 69 73  0  0  1  0  0  0  0  0999 V2000
   15.2884    3.3457    2.2111 Pt  0  0  0  0  0  0  0  0  0  0  0  0
   13.4146    1.6042    2.9989 I   0  0  0  0  0  0  0  0  0  0  0  0
   16.9265    5.3112    1.4263 I   0  0  0  0  0  0  0  0  0  0  0  0
   13.5845    4.1764    0.9530 N   0  0  0  0  0  0  0  0  0  0  0  0
   14.3623    5.0016    3.4663 N   0  0  0  0  0  0  0  0  0  0  0  0
   13.0616    3.5841   -0.1120 C   0  0  0  0  0  3  0  0  0  0  0  0
   13.6892    2.8640   -0.6210 H   0  0  0  0  0  0  0  0  0  0  0  0
   11.7820    3.8344   -0.5624 C   0  0  0  0  0  0  0  0  0  0  0  0
   11.4289    3.3079   -1.4337 H   0  0  0  0  0  0  0  0  0  0  0  0
   10.9654    4.7316    0.1252 C   0  0  0  0  0  0  0  0  0  0  0  0
   11.5264    5.3472    1.2353 C   0  0  0  0  0  0  0  0  0  0  0  0
   10.9513    6.0274    1.8392 H   0  0  0  0  0  0  0  0  0  0  0  0
   12.8336    5.0583    1.6185 C   0  0  0  0  0  0  0  0  0  0  0  0
   13.4321    5.6948    2.8041 C   0  0  2  0  0  3  0  0  0  0  0  0
   13.0576    6.9785    3.1928 C   0  0  0  0  0  0  0  0  0  0  0  0
   12.3408    7.5101    2.5912 H   0  0  0  0  0  0  0  0  0  0  0  0
   13.6335    7.5734    4.3065 C   0  0  0  0  0  0  0  0  0  0  0  0
   14.5832    6.8152    4.9905 C   0  0  0  0  0  0  0  0  0  0  0  0
   15.0834    7.1977    5.8649 H   0  0  0  0  0  0  0  0  0  0  0  0
   14.9196    5.5580    4.5330 C   0  0  0  0  0  0  0  0  0  0  0  0
   15.6809    4.9779    5.0384 H   0  0  0  0  0  0  0  0  0  0  0  0
    9.5414    4.9743   -0.3309 C   0  0  0  0  0  0  0  0  0  0  0  0
    8.8199    6.0170    0.5265 C   0  0  0  0  0  0  0  0  0  0  0  0
    9.3290    6.9780    0.4882 H   0  0  0  0  0  0  0  0  0  0  0  0
    8.7429    5.6902    1.5611 H   0  0  0  0  0  0  0  0  0  0  0  0
    7.8106    6.1588    0.1471 H   0  0  0  0  0  0  0  0  0  0  0  0
    8.7741    3.6475   -0.2378 C   0  0  0  0  0  0  0  0  0  0  0  0
    8.7891    3.2719    0.7832 H   0  0  0  0  0  0  0  0  0  0  0  0
    9.2099    2.8907   -0.8841 H   0  0  0  0  0  0  0  0  0  0  0  0
    7.7392    3.7965   -0.5362 H   0  0  0  0  0  0  0  0  0  0  0  0
    9.5606    5.4687   -1.7842 C   0  0  0  0  0  0  0  0  0  0  0  0
    8.5453    5.6653   -2.1202 H   0  0  0  0  0  0  0  0  0  0  0  0
   10.0001    4.7324   -2.4511 H   0  0  0  0  0  0  0  0  0  0  0  0
   10.1340    6.3902   -1.8650 H   0  0  0  0  0  0  0  0  0  0  0  0
   13.2910    8.9730    4.7742 C   0  0  0  0  0  0  0  0  0  0  0  0
   14.5657    9.8273    4.7216 C   0  0  0  0  0  0  0  0  0  0  0  0
   14.9627    9.8533    3.7089 H   0  0  0  0  0  0  0  0  0  0  0  0
   15.3362    9.4332    5.3783 H   0  0  0  0  0  0  0  0  0  0  0  0
   14.3419   10.8453    5.0314 H   0  0  0  0  0  0  0  0  0  0  0  0
   12.7679    8.8988    6.2158 C   0  0  0  0  0  0  0  0  0  0  0  0
   12.5042    9.8945    6.5643 H   0  0  0  0  0  0  0  0  0  0  0  0
   13.5150    8.4909    6.8909 H   0  0  0  0  0  0  0  0  0  0  0  0
   11.8806    8.2705    6.2665 H   0  0  0  0  0  0  0  0  0  0  0  0
   12.2224    9.6381    3.9033 C   0  0  0  0  0  0  0  0  0  0  0  0
   12.0131   10.6336    4.2881 H   0  0  0  0  0  0  0  0  0  0  0  0
   11.2930    9.0724    3.9194 H   0  0  0  0  0  0  0  0  0  0  0  0
   12.5631    9.7437    2.8756 H   0  0  0  0  0  0  0  0  0  0  0  0
   16.6901    2.6973    3.5539 C   0  0  0  0  0  0  0  0  0  0  0  0
   16.3024    2.5546    4.8783 C   0  0  0  0  0  0  0  0  0  0  0  0
   15.2770    2.7076    5.1899 H   0  0  0  0  0  0  0  0  0  0  0  0
   17.2262    2.1790    5.8432 C   0  0  0  0  0  0  0  0  0  0  0  0
   16.9027    2.0690    6.8685 H   0  0  0  0  0  0  0  0  0  0  0  0
   18.5415    1.9390    5.4940 C   0  0  0  0  0  0  0  0  0  0  0  0
   19.2594    1.6462    6.2459 H   0  0  0  0  0  0  0  0  0  0  0  0
   18.9285    2.0714    4.1727 C   0  0  0  0  0  0  0  0  0  0  0  0
   19.9522    1.8854    3.8828 H   0  0  0  0  0  0  0  0  0  0  0  0
   18.0104    2.4494    3.2056 C   0  0  0  0  0  0  0  0  0  0  0  0
   18.3487    2.5429    2.1831 H   0  0  0  0  0  0  0  0  0  0  0  0
   16.0135    1.9801    0.8704 C   0  0  0  0  0  0  0  0  0  0  0  0
   16.3289    0.6745    1.2196 C   0  0  0  0  0  0  0  0  0  0  0  0
   16.2509    0.3321    2.2421 H   0  0  0  0  0  0  0  0  0  0  0  0
   16.7559   -0.2232    0.2537 C   0  0  0  0  0  0  0  0  0  0  0  0
   16.9935   -1.2359    0.5445 H   0  0  0  0  0  0  0  0  0  0  0  0
   16.8712    0.1698   -1.0674 C   0  0  0  0  0  0  0  0  0  0  0  0
   17.2023   -0.5321   -1.8183 H   0  0  0  0  0  0  0  0  0  0  0  0
   16.5648    1.4711   -1.4175 C   0  0  0  0  0  0  0  0  0  0  0  0
   16.6608    1.7996   -2.4425 H   0  0  0  0  0  0  0  0  0  0  0  0
   16.1394    2.3744   -0.4538 C   0  0  0  0  0  0  0  0  0  0  0  0
   15.9345    3.3904   -0.7661 H   0  0  0  0  0  0  0  0  0  0  0  0
  1  2  1  0  0  0  0
  1  5  1  0  0  0  0
  1 48  1  0  0  0  0
  3  1  1  0  0  0  0
  4 13  1  0  0  0  0
  4  1  1  0  0  0  0
  5 20  1  0  0  0  0
  6  4  1  0  0  0  0
  7  6  1  0  0  0  0
  8  6  1  0  0  0  0
  8 10  2  0  0  0  0
  9  8  1  0  0  0  0
 10 11  1  0  0  0  0
 11 13  2  0  0  0  0
 11 12  1  0  0  0  0
 14 13  1  6  0  0  0
 14 15  1  0  0  0  0
 14  5  1  0  0  0  0
 15 17  2  0  0  0  0
 16 15  1  0  0  0  0
 17 35  1  0  0  0  0
 17 18  1  0  0  0  0
 18 19  1  0  0  0  0
 20 18  2  0  0  0  0
 20 21  1  0  0  0  0
 22 27  1  0  0  0  0
 22 10  1  0  0  0  0
 22 23  1  0  0  0  0
 23 25  1  0  0  0  0
 24 23  1  0  0  0  0
 26 23  1  0  0  0  0
 27 28  1  0  0  0  0
 29 27  1  0  0  0  0
 30 27  1  0  0  0  0
 31 22  1  0  0  0  0
 32 31  1  0  0  0  0
 33 31  1  0  0  0  0
 34 31  1  0  0  0  0
 35 40  1  0  0  0  0
 36 35  1  0  0  0  0
 36 39  1  0  0  0  0
 36 38  1  0  0  0  0
 37 36  1  0  0  0  0
 40 43  1  0  0  0  0
 40 41  1  0  0  0  0
 40 42  1  0  0  0  0
 44 46  1  0  0  0  0
 44 45  1  0  0  0  0
 44 35  1  0  0  0  0
 47 44  1  0  0  0  0
 48 49  1  0  0  0  0
 49 50  1  0  0  0  0
 49 51  2  0  0  0  0
 51 52  1  0  0  0  0
 53 51  1  0  0  0  0
 53 54  1  0  0  0  0
 55 53  2  0  0  0  0
 56 55  1  0  0  0  0
 57 48  2  0  0  0  0
 57 55  1  0  0  0  0
 58 57  1  0  0  0  0
 59 60  1  0  0  0  0
 59  1  1  0  0  0  0
 60 61  1  0  0  0  0
 62 63  1  0  0  0  0
 62 60  2  0  0  0  0
 64 62  1  0  0  0  0
 65 64  1  0  0  0  0
 66 64  2  0  0  0  0
 66 68  1  0  0  0  0
 67 66  1  0  0  0  0
 68 59  2  0  0  0  0
 69 68  1  0  0  0  0
M  END
$$$$
