CSD_code = OZUHOH | q = 0 | S = 0 | Stoichiometry = C22H32Cl2N10O2Pd | MND = 4
 OpenBabel04212202083D

 69 74  0  0  1  0  0  0  0  0999 V2000
    5.1236   18.0578    7.3284 Pd  0  0  0  0  0  0  0  0  0  0  0  0
    2.9587   17.8153    6.7191 Cl  0  0  0  0  0  0  0  0  0  0  0  0
    4.6322   20.2334    7.7019 Cl  0  0  0  0  0  0  0  0  0  0  0  0
   10.2994   22.6740   10.2475 O   0  0  0  0  0  0  0  0  0  0  0  0
    2.3916   11.2524    5.6554 O   0  0  0  0  0  0  0  0  0  0  0  0
    7.1286   18.0846    8.0050 N   0  0  0  0  0  0  0  0  0  0  0  0
    7.1117   19.7221    9.7631 N   0  0  0  0  0  0  0  0  0  0  0  0
    8.2534   21.6751   10.5835 N   0  0  0  0  0  0  0  0  0  0  0  0
    8.8357   22.2289    8.5282 N   0  0  0  0  0  0  0  0  0  0  0  0
    7.6803   20.3005    7.6712 N   0  0  0  0  0  0  0  0  0  0  0  0
    5.7080   16.0292    7.1744 N   0  0  0  0  0  0  0  0  0  0  0  0
    4.1808   15.2443    5.6325 N   0  0  0  0  0  0  0  0  0  0  0  0
    2.7461   13.4255    4.9857 N   0  0  0  0  0  0  0  0  0  0  0  0
    2.2634   13.0366    7.1037 N   0  0  0  0  0  0  0  0  0  0  0  0
    3.7213   14.8253    7.7884 N   0  0  0  0  0  0  0  0  0  0  0  0
    7.2760   16.9081    8.7279 C   0  0  0  0  0  0  0  0  0  0  0  0
    8.2155   16.7306    9.7370 C   0  0  0  0  0  0  0  0  0  0  0  0
    8.8287   17.5670   10.0417 H   0  0  0  0  0  0  0  0  0  0  0  0
    8.3807   15.4838   10.3191 C   0  0  0  0  0  0  0  0  0  0  0  0
    9.1077   15.3563   11.1068 H   0  0  0  0  0  0  0  0  0  0  0  0
    7.6337   14.4038    9.8829 C   0  0  0  0  0  0  0  0  0  0  0  0
    7.7764   13.4313   10.3294 H   0  0  0  0  0  0  0  0  0  0  0  0
    6.7125   14.5572    8.8590 C   0  0  0  0  0  0  0  0  0  0  0  0
    6.1596   13.7079    8.4828 H   0  0  0  0  0  0  0  0  0  0  0  0
    6.5146   15.8068    8.2829 C   0  0  0  0  0  0  0  0  0  0  0  0
    7.2980   19.2864    8.4790 C   0  0  2  0  0  3  0  0  0  0  0  0
    7.1715   21.1774    9.7888 C   0  0  1  0  0  0  0  0  0  0  0  0
    6.2066   21.5860   10.1178 H   0  0  0  0  0  0  0  0  0  0  0  0
    9.2582   22.2282    9.8321 C   0  0  0  0  0  0  0  0  0  0  0  0
    7.5718   21.5760    8.3482 C   0  0  1  0  0  0  0  0  0  0  0  0
    6.8488   22.2221    7.8318 H   0  0  0  0  0  0  0  0  0  0  0  0
    6.1741   19.0229   10.6142 C   0  0  0  0  0  0  0  0  0  0  0  0
    5.3140   18.6508   10.0191 H   0  0  0  0  0  0  0  0  0  0  0  0
    5.8027   19.7104   11.3703 H   0  0  0  0  0  0  0  0  0  0  0  0
    6.6569   18.1745   11.1028 H   0  0  0  0  0  0  0  0  0  0  0  0
    8.3453   21.4792   12.0036 C   0  0  0  0  0  0  0  0  0  0  0  0
    8.3988   20.4169   12.2546 H   0  0  0  0  0  0  0  0  0  0  0  0
    7.4844   21.9274   12.5052 H   0  0  0  0  0  0  0  0  0  0  0  0
    9.2570   21.9737   12.3345 H   0  0  0  0  0  0  0  0  0  0  0  0
    9.6120   22.7785    7.4515 C   0  0  0  0  0  0  0  0  0  0  0  0
   10.4619   23.2890    7.9018 H   0  0  0  0  0  0  0  0  0  0  0  0
    9.0160   23.4947    6.8814 H   0  0  0  0  0  0  0  0  0  0  0  0
    9.9777   21.9952    6.7833 H   0  0  0  0  0  0  0  0  0  0  0  0
    7.6555   20.1562    6.2379 C   0  0  0  0  0  0  0  0  0  0  0  0
    8.5255   19.5908    5.9008 H   0  0  0  0  0  0  0  0  0  0  0  0
    7.6530   21.1423    5.7816 H   0  0  0  0  0  0  0  0  0  0  0  0
    6.7396   19.6092    5.9304 H   0  0  0  0  0  0  0  0  0  0  0  0
    4.6029   15.3923    6.9079 C   0  0  2  0  0  3  0  0  0  0  0  0
    2.8300   14.7245    5.5869 C   0  0  1  0  0  0  0  0  0  0  0  0
    2.1599   15.4447    5.0979 H   0  0  0  0  0  0  0  0  0  0  0  0
    2.4753   12.4326    5.8909 C   0  0  0  0  0  0  0  0  0  0  0  0
    2.5086   14.4468    7.0749 C   0  0  1  0  0  0  0  0  0  0  0  0
    1.6528   15.0141    7.4643 H   0  0  0  0  0  0  0  0  0  0  0  0
    4.7807   15.9976    4.5610 C   0  0  0  0  0  0  0  0  0  0  0  0
    4.9665   17.0406    4.8924 H   0  0  0  0  0  0  0  0  0  0  0  0
    4.1036   16.0076    3.7113 H   0  0  0  0  0  0  0  0  0  0  0  0
    5.7339   15.5511    4.2738 H   0  0  0  0  0  0  0  0  0  0  0  0
    2.9672   13.1758    3.5883 C   0  0  0  0  0  0  0  0  0  0  0  0
    2.7379   12.1258    3.4134 H   0  0  0  0  0  0  0  0  0  0  0  0
    4.0061   13.3668    3.3089 H   0  0  0  0  0  0  0  0  0  0  0  0
    2.3064   13.7997    2.9822 H   0  0  0  0  0  0  0  0  0  0  0  0
    1.9927   12.3071    8.3115 C   0  0  0  0  0  0  0  0  0  0  0  0
    1.8404   11.2673    8.0274 H   0  0  0  0  0  0  0  0  0  0  0  0
    1.0895   12.6903    8.7917 H   0  0  0  0  0  0  0  0  0  0  0  0
    2.8306   12.3718    9.0103 H   0  0  0  0  0  0  0  0  0  0  0  0
    3.6318   15.3545    9.1318 C   0  0  0  0  0  0  0  0  0  0  0  0
    3.7897   16.4535    9.1268 H   0  0  0  0  0  0  0  0  0  0  0  0
    4.3826   14.8944    9.7770 H   0  0  0  0  0  0  0  0  0  0  0  0
    2.6407   15.1472    9.5279 H   0  0  0  0  0  0  0  0  0  0  0  0
  1  3  1  0  0  0  0
  1  6  1  0  0  0  0
  2  1  1  0  0  0  0
  5 51  2  0  0  0  0
  6 16  1  0  0  0  0
  7 27  1  0  0  0  0
  7 32  1  0  0  0  0
  8 36  1  0  0  0  0
  9 29  1  0  0  0  0
 10 30  1  0  0  0  0
 10 26  1  0  0  0  0
 11  1  1  0  0  0  0
 11 25  1  0  0  0  0
 12 48  1  0  0  0  0
 13 49  1  0  0  0  0
 13 51  1  0  0  0  0
 14 62  1  0  0  0  0
 15 66  1  0  0  0  0
 16 17  1  0  0  0  0
 17 18  1  0  0  0  0
 17 19  2  0  0  0  0
 19 20  1  0  0  0  0
 21 19  1  0  0  0  0
 21 22  1  0  0  0  0
 23 21  2  0  0  0  0
 24 23  1  0  0  0  0
 25 16  2  0  0  0  0
 25 23  1  0  0  0  0
 26  6  1  6  0  0  0
 26  7  1  0  0  0  0
 27 28  1  1  0  0  0
 27  8  1  0  0  0  0
 29  4  2  0  0  0  0
 29  8  1  0  0  0  0
 30 31  1  6  0  0  0
 30  9  1  0  0  0  0
 30 27  1  0  0  0  0
 32 35  1  0  0  0  0
 32 34  1  0  0  0  0
 33 32  1  0  0  0  0
 36 37  1  0  0  0  0
 36 39  1  0  0  0  0
 36 38  1  0  0  0  0
 40 41  1  0  0  0  0
 40  9  1  0  0  0  0
 42 40  1  0  0  0  0
 43 40  1  0  0  0  0
 44 10  1  0  0  0  0
 45 44  1  0  0  0  0
 46 44  1  0  0  0  0
 47 44  1  0  0  0  0
 48 11  1  1  0  0  0
 48 15  1  0  0  0  0
 49 50  1  6  0  0  0
 49 12  1  0  0  0  0
 49 52  1  0  0  0  0
 51 14  1  0  0  0  0
 52 14  1  0  0  0  0
 52 53  1  1  0  0  0
 52 15  1  0  0  0  0
 54 55  1  0  0  0  0
 54 12  1  0  0  0  0
 56 54  1  0  0  0  0
 57 54  1  0  0  0  0
 58 13  1  0  0  0  0
 59 58  1  0  0  0  0
 60 58  1  0  0  0  0
 61 58  1  0  0  0  0
 62 64  1  0  0  0  0
 62 65  1  0  0  0  0
 63 62  1  0  0  0  0
 66 69  1  0  0  0  0
 66 68  1  0  0  0  0
 67 66  1  0  0  0  0
M  END
$$$$
