CSD_code = PABKIP | q = 0 | S = 0 | Stoichiometry = C37H26CuIN2 | MND = 3
 OpenBabel04212202083D

 67 75  0  0  1  0  0  0  0  0999 V2000
    3.4653    2.8076    4.5762 I   0  0  0  0  0  0  0  0  0  0  0  0
    3.6603    0.3593    4.4206 Cu  0  0  0  0  0  0  0  0  0  0  0  0
    5.5892    1.1642    9.5133 C   0  0  0  0  0  0  0  0  0  0  0  0
    6.4859    1.5520   10.5406 C   0  0  0  0  0  0  0  0  0  0  0  0
    5.0996   -0.0601    7.4580 C   0  0  0  0  0  0  0  0  0  0  0  0
    4.7024    2.8612   11.5860 C   0  0  0  0  0  0  0  0  0  0  0  0
    4.3831    3.5115   12.3878 H   0  0  0  0  0  0  0  0  0  0  0  0
    6.0493    2.3982   11.5909 C   0  0  0  0  0  0  0  0  0  0  0  0
    6.0251    0.3125    8.4640 C   0  0  0  0  0  0  0  0  0  0  0  0
    3.3685    1.2520    8.5346 C   0  0  0  0  0  0  0  0  0  0  0  0
    2.3514    1.6135    8.5552 H   0  0  0  0  0  0  0  0  0  0  0  0
    4.2549    1.6433    9.5436 C   0  0  0  0  0  0  0  0  0  0  0  0
    3.7842    0.4197    7.5275 C   0  0  0  0  0  0  0  0  0  0  0  0
    3.0824    0.1003    6.7701 H   0  0  0  0  0  0  0  0  0  0  0  0
    7.3887   -0.0985    8.4662 C   0  0  0  0  0  0  0  0  0  0  0  0
    7.7590   -0.7143    7.6611 H   0  0  0  0  0  0  0  0  0  0  0  0
    3.8452    2.5006   10.6018 C   0  0  0  0  0  0  0  0  0  0  0  0
    2.8261    2.8588   10.5969 H   0  0  0  0  0  0  0  0  0  0  0  0
    7.8270    1.0984   10.5264 C   0  0  0  0  0  0  0  0  0  0  0  0
    6.9494    2.7559   12.5968 C   0  0  0  0  0  0  0  0  0  0  0  0
    6.6131    3.3990   13.3974 H   0  0  0  0  0  0  0  0  0  0  0  0
    8.2547    2.2997   12.5758 C   0  0  0  0  0  0  0  0  0  0  0  0
    8.9362    2.5874   13.3632 H   0  0  0  0  0  0  0  0  0  0  0  0
    8.2450    0.2688    9.4504 C   0  0  0  0  0  0  0  0  0  0  0  0
    9.2741   -0.0615    9.4299 H   0  0  0  0  0  0  0  0  0  0  0  0
    8.6941    1.4820   11.5519 C   0  0  0  0  0  0  0  0  0  0  0  0
    9.7164    1.1323   11.5354 H   0  0  0  0  0  0  0  0  0  0  0  0
    4.7976   -1.0139    5.2820 N   0  0  0  0  0  0  0  0  0  0  0  0
    3.2350   -1.1157    3.1008 N   0  0  0  0  0  0  0  0  0  0  0  0
    5.2204   -1.9255    4.2449 C   0  0  1  0  0  0  0  0  0  0  0  0
    5.6715   -2.8314    4.6796 H   0  0  0  0  0  0  0  0  0  0  0  0
    3.9605   -2.3080    3.4487 C   0  0  0  0  0  0  0  0  0  0  0  0
    3.3100   -2.9155    4.0902 H   0  0  0  0  0  0  0  0  0  0  0  0
    4.2364   -2.9012    2.5647 H   0  0  0  0  0  0  0  0  0  0  0  0
    1.4403    2.3618   -1.5507 C   0  0  0  0  0  0  0  0  0  0  0  0
    1.4056    1.8441   -0.2316 C   0  0  0  0  0  0  0  0  0  0  0  0
    0.6381    3.4762   -1.9033 C   0  0  0  0  0  0  0  0  0  0  0  0
    2.2085    0.7279    0.1212 C   0  0  0  0  0  0  0  0  0  0  0  0
    0.5681    2.4600    0.7328 C   0  0  0  0  0  0  0  0  0  0  0  0
   -0.1889    4.0703   -0.9072 C   0  0  0  0  0  0  0  0  0  0  0  0
   -0.7899    4.9241   -1.1858 H   0  0  0  0  0  0  0  0  0  0  0  0
    2.2787    1.7722   -2.5273 C   0  0  0  0  0  0  0  0  0  0  0  0
    2.1507    0.2383    1.4484 C   0  0  0  0  0  0  0  0  0  0  0  0
   -0.2188    3.5834    0.3558 C   0  0  0  0  0  0  0  0  0  0  0  0
   -0.8407    4.0411    1.1111 H   0  0  0  0  0  0  0  0  0  0  0  0
    0.6838    3.9614   -3.2118 C   0  0  0  0  0  0  0  0  0  0  0  0
    0.0706    4.8101   -3.4786 H   0  0  0  0  0  0  0  0  0  0  0  0
    2.2936    2.2901   -3.8243 C   0  0  0  0  0  0  0  0  0  0  0  0
    2.9354    1.8355   -4.5655 H   0  0  0  0  0  0  0  0  0  0  0  0
    1.3028    0.8618    2.3736 C   0  0  0  0  0  0  0  0  0  0  0  0
    1.2495    0.4560    3.3732 H   0  0  0  0  0  0  0  0  0  0  0  0
    0.5316    1.9436    2.0320 C   0  0  0  0  0  0  0  0  0  0  0  0
   -0.1039    2.4108    2.7689 H   0  0  0  0  0  0  0  0  0  0  0  0
    5.4656   -0.9299    6.3717 C   0  0  0  0  0  3  0  0  0  0  0  0
    6.3509   -1.5583    6.4987 H   0  0  0  0  0  0  0  0  0  0  0  0
    3.0622    0.1798   -0.8785 C   0  0  0  0  0  0  0  0  0  0  0  0
    3.7114   -0.6451   -0.6273 H   0  0  0  0  0  0  0  0  0  0  0  0
    3.0902    0.6704   -2.1414 C   0  0  0  0  0  0  0  0  0  0  0  0
    3.7430    0.2321   -2.8833 H   0  0  0  0  0  0  0  0  0  0  0  0
    1.5010    3.3716   -4.1590 C   0  0  0  0  0  0  0  0  0  0  0  0
    1.5226    3.7614   -5.1664 H   0  0  0  0  0  0  0  0  0  0  0  0
    6.2487   -1.2468    3.3349 C   0  0  0  0  0  0  0  0  0  0  0  0
    6.5559   -1.9261    2.5428 H   0  0  0  0  0  0  0  0  0  0  0  0
    7.1264   -0.9564    3.9091 H   0  0  0  0  0  0  0  0  0  0  0  0
    5.8223   -0.3502    2.8868 H   0  0  0  0  0  0  0  0  0  0  0  0
    2.9318   -0.8934    1.8757 C   0  0  0  0  0  3  0  0  0  0  0  0
    3.2605   -1.6027    1.1099 H   0  0  0  0  0  0  0  0  0  0  0  0
  2  1  1  0  0  0  0
  2 28  1  0  0  0  0
  3 12  1  0  0  0  0
  3  4  1  0  0  0  0
  4  8  1  0  0  0  0
  5 13  2  0  0  0  0
  5  9  1  0  0  0  0
  6  8  1  0  0  0  0
  6  7  1  0  0  0  0
  8 20  2  0  0  0  0
  9 15  1  0  0  0  0
  9  3  2  0  0  0  0
 10 11  1  0  0  0  0
 10 12  2  0  0  0  0
 12 17  1  0  0  0  0
 13 10  1  0  0  0  0
 14 13  1  0  0  0  0
 15 24  2  0  0  0  0
 16 15  1  0  0  0  0
 17  6  2  0  0  0  0
 18 17  1  0  0  0  0
 19  4  2  0  0  0  0
 19 26  1  0  0  0  0
 20 21  1  0  0  0  0
 22 20  1  0  0  0  0
 22 23  1  0  0  0  0
 24 19  1  0  0  0  0
 25 24  1  0  0  0  0
 26 22  2  0  0  0  0
 27 26  1  0  0  0  0
 28 54  1  0  0  0  0
 29 32  1  0  0  0  0
 29  2  1  0  0  0  0
 30 31  1  1  0  0  0
 30 28  1  0  0  0  0
 32 33  1  0  0  0  0
 32 30  1  0  0  0  0
 34 32  1  0  0  0  0
 35 36  2  0  0  0  0
 36 38  1  0  0  0  0
 36 39  1  0  0  0  0
 37 35  1  0  0  0  0
 37 40  2  0  0  0  0
 38 43  2  0  0  0  0
 39 52  1  0  0  0  0
 40 44  1  0  0  0  0
 41 40  1  0  0  0  0
 42 58  1  0  0  0  0
 42 35  1  0  0  0  0
 43 66  1  0  0  0  0
 43 50  1  0  0  0  0
 44 39  2  0  0  0  0
 44 45  1  0  0  0  0
 46 37  1  0  0  0  0
 47 46  1  0  0  0  0
 48 42  2  0  0  0  0
 49 48  1  0  0  0  0
 50 51  1  0  0  0  0
 52 50  2  0  0  0  0
 52 53  1  0  0  0  0
 54 55  1  0  0  0  0
 54  5  1  0  0  0  0
 56 57  1  0  0  0  0
 56 38  1  0  0  0  0
 58 56  2  0  0  0  0
 59 58  1  0  0  0  0
 60 48  1  0  0  0  0
 60 46  2  0  0  0  0
 61 60  1  0  0  0  0
 62 64  1  0  0  0  0
 62 30  1  0  0  0  0
 63 62  1  0  0  0  0
 65 62  1  0  0  0  0
 66 29  1  0  0  0  0
 67 66  1  0  0  0  0
M  END
$$$$
