CSD_code = PABVOE | q = 0 | S = 0 | Stoichiometry = C24H36ClN2V | MND = 11
 OpenBabel04212202083D

 64 66  0  0  1  0  0  0  0  0999 V2000
   -3.6108    9.5330   22.8694 C   0  0  0  0  0  0  0  0  0  0  0  0
   -4.8789    9.1174   23.3178 C   0  0  0  0  0  3  0  0  0  0  0  0
   -5.8021    9.6654   23.1838 H   0  0  0  0  0  0  0  0  0  0  0  0
   -4.7508    7.8436   23.9067 C   0  0  0  0  0  0  0  0  0  0  0  0
   -5.5674    7.2207   24.2469 H   0  0  0  0  0  0  0  0  0  0  0  0
   -3.4045    7.4540   23.7884 C   0  0  0  0  0  0  0  0  0  0  0  0
   -3.0097    6.4714   23.9992 H   0  0  0  0  0  0  0  0  0  0  0  0
   -2.6893    8.5118   23.1982 C   0  0  0  0  0  0  0  0  0  0  0  0
   -1.6503    8.4876   22.8963 H   0  0  0  0  0  0  0  0  0  0  0  0
   -3.3211   10.7632   22.0740 C   0  0  0  0  0  0  0  0  0  0  0  0
   -2.2652   11.0325   22.1520 H   0  0  0  0  0  0  0  0  0  0  0  0
   -3.9187   11.5950   22.4525 H   0  0  0  0  0  0  0  0  0  0  0  0
   -3.6523   10.5073   20.5935 C   0  0  0  0  0  0  0  0  0  0  0  0
   -3.1037    9.6169   20.2727 H   0  0  0  0  0  0  0  0  0  0  0  0
   -4.7311   10.2886   20.4932 H   0  0  0  0  0  0  0  0  0  0  0  0
   -4.1551   12.7408   19.8330 C   0  0  0  0  0  0  0  0  0  0  0  0
   -4.3109   12.9920   20.8833 H   0  0  0  0  0  0  0  0  0  0  0  0
   -5.1384   12.4840   19.3931 H   0  0  0  0  0  0  0  0  0  0  0  0
   -3.5726   13.9478   19.1049 C   0  0  0  0  0  0  0  0  0  0  0  0
   -4.2632   14.7891   19.1847 H   0  0  0  0  0  0  0  0  0  0  0  0
   -2.6330   14.2252   19.5848 H   0  0  0  0  0  0  0  0  0  0  0  0
   -3.3128   13.6022   17.6435 C   0  0  0  0  0  0  0  0  0  0  0  0
   -2.8399   14.4418   17.1308 H   0  0  0  0  0  0  0  0  0  0  0  0
   -4.2612   13.3913   17.1427 H   0  0  0  0  0  0  0  0  0  0  0  0
   -2.4184   12.3698   17.5827 C   0  0  0  0  0  0  0  0  0  0  0  0
   -1.4490   12.6043   18.0247 H   0  0  0  0  0  0  0  0  0  0  0  0
   -2.2614   12.0579   16.5485 H   0  0  0  0  0  0  0  0  0  0  0  0
   -3.0492   11.2246   18.3691 C   0  0  0  0  0  0  0  0  0  0  0  0
   -4.0063   10.9364   17.8936 H   0  0  0  0  0  0  0  0  0  0  0  0
   -2.3856   10.3560   18.3445 H   0  0  0  0  0  0  0  0  0  0  0  0
   -4.0372   11.2692   25.1760 Cl  0  0  0  0  0  0  0  0  0  0  0  0
   -3.2412   11.6152   19.7540 N   0  0  0  0  0  0  0  0  0  0  0  0
   -3.5186    9.2376   25.1354 V   0  0  0  0  0  0  0  0  0  0  0  0
   -3.0941    9.6463   27.2699 C   0  0  1  0  0  3  0  0  0  0  0  0
   -1.8749    9.3090   26.6387 C   0  0  0  0  0  0  0  0  0  0  0  0
   -0.9911    9.9325   26.6031 H   0  0  0  0  0  0  0  0  0  0  0  0
   -1.9604    7.9678   26.2191 C   0  0  0  0  0  0  0  0  0  0  0  0
   -1.1536    7.3914   25.7889 H   0  0  0  0  0  0  0  0  0  0  0  0
   -3.2273    7.4808   26.5639 C   0  0  0  0  0  3  0  0  0  0  0  0
   -3.5663    6.4604   26.4598 H   0  0  0  0  0  0  0  0  0  0  0  0
   -3.9490    8.5201   27.1803 C   0  0  2  0  0  0  0  0  0  0  0  0
   -3.3421   10.8625   28.1016 C   0  0  0  0  0  0  0  0  0  0  0  0
   -4.4020   11.1270   28.0958 H   0  0  0  0  0  0  0  0  0  0  0  0
   -2.7749   11.7067   27.7051 H   0  0  0  0  0  0  0  0  0  0  0  0
   -2.9252   10.5740   29.5543 C   0  0  0  0  0  0  0  0  0  0  0  0
   -3.4261    9.6554   29.8726 H   0  0  0  0  0  0  0  0  0  0  0  0
   -1.8359   10.3909   29.5953 H   0  0  0  0  0  0  0  0  0  0  0  0
   -3.3325   11.6407   30.4473 N   0  0  0  0  0  0  0  0  0  0  0  0
   -2.4507   12.7916   30.3754 C   0  0  0  0  0  0  0  0  0  0  0  0
   -2.3408   13.0810   29.3291 H   0  0  0  0  0  0  0  0  0  0  0  0
   -1.4454   12.5460   30.7705 H   0  0  0  0  0  0  0  0  0  0  0  0
   -3.0356   13.9583   31.1646 C   0  0  0  0  0  0  0  0  0  0  0  0
   -2.3668   14.8180   31.0927 H   0  0  0  0  0  0  0  0  0  0  0  0
   -3.9965   14.2300   30.7257 H   0  0  0  0  0  0  0  0  0  0  0  0
   -3.2389   13.5558   32.6204 C   0  0  0  0  0  0  0  0  0  0  0  0
   -3.7125   14.3660   33.1778 H   0  0  0  0  0  0  0  0  0  0  0  0
   -2.2701   13.3487   33.0824 H   0  0  0  0  0  0  0  0  0  0  0  0
   -4.1040   12.3020   32.6657 C   0  0  0  0  0  0  0  0  0  0  0  0
   -5.0908   12.5285   32.2595 H   0  0  0  0  0  0  0  0  0  0  0  0
   -4.2238   11.9525   33.6928 H   0  0  0  0  0  0  0  0  0  0  0  0
   -3.4710   11.1991   31.8229 C   0  0  0  0  0  0  0  0  0  0  0  0
   -2.4932   10.9185   32.2595 H   0  0  0  0  0  0  0  0  0  0  0  0
   -4.1135   10.3146   31.8375 H   0  0  0  0  0  0  0  0  0  0  0  0
   -4.9187    8.4299   27.6520 H   0  0  0  0  0  0  0  0  0  0  0  0
  1  8  2  0  0  0  0
  1  2  1  0  0  0  0
  2  4  1  0  0  0  0
  3  2  1  0  0  0  0
  4  5  1  0  0  0  0
  6  4  2  0  0  0  0
  6  7  1  0  0  0  0
  8  6  1  0  0  0  0
  9  8  1  0  0  0  0
 10 11  1  0  0  0  0
 10 12  1  0  0  0  0
 10  1  1  0  0  0  0
 13 10  1  0  0  0  0
 14 13  1  0  0  0  0
 15 13  1  0  0  0  0
 16 17  1  0  0  0  0
 18 16  1  0  0  0  0
 19 20  1  0  0  0  0
 19 21  1  0  0  0  0
 19 16  1  0  0  0  0
 22 19  1  0  0  0  0
 23 22  1  0  0  0  0
 24 22  1  0  0  0  0
 25 22  1  0  0  0  0
 25 26  1  0  0  0  0
 25 28  1  0  0  0  0
 27 25  1  0  0  0  0
 28 32  1  0  0  0  0
 29 28  1  0  0  0  0
 30 28  1  0  0  0  0
 32 16  1  0  0  0  0
 32 13  1  0  0  0  0
 33 31  1  0  0  0  0
 33 41  1  0  0  0  0
 34 42  1  1  0  0  0
 35 34  1  0  0  0  0
 36 35  1  0  0  0  0
 37 39  1  0  0  0  0
 37 35  2  0  0  0  0
 38 37  1  0  0  0  0
 39 41  1  0  0  0  0
 40 39  1  0  0  0  0
 41 34  1  0  0  0  0
 41 64  1  1  0  0  0
 42 45  1  0  0  0  0
 43 42  1  0  0  0  0
 44 42  1  0  0  0  0
 45 47  1  0  0  0  0
 45 46  1  0  0  0  0
 45 48  1  0  0  0  0
 48 61  1  0  0  0  0
 49 48  1  0  0  0  0
 49 51  1  0  0  0  0
 49 52  1  0  0  0  0
 50 49  1  0  0  0  0
 52 55  1  0  0  0  0
 53 52  1  0  0  0  0
 54 52  1  0  0  0  0
 55 58  1  0  0  0  0
 55 57  1  0  0  0  0
 55 56  1  0  0  0  0
 58 60  1  0  0  0  0
 59 58  1  0  0  0  0
 61 63  1  0  0  0  0
 61 62  1  0  0  0  0
 61 58  1  0  0  0  0
M  END
$$$$
