CSD_code = PABWAR | q = 0 | S = 0 | Stoichiometry = C17H34Cl2NP2V | MND = 9
 OpenBabel04212202083D

 57 54  0  0  1  0  0  0  0  0999 V2000
    7.5234    4.6274    4.8972 V   0  0  0  0  0  0  0  0  0  0  0  0
    5.2619    4.7358    5.2672 Cl  0  0  0  0  0 15  0  0  0  0  0  0
    8.5854    5.4896    6.7346 Cl  0  0  0  0  0 15  0  0  0  0  0  0
    7.0193    6.9149    4.7854 P   0  0  0  0  0  0  0  0  0  0  0  0
    7.1143    3.0200    6.5464 P   0  0  0  0  0  0  0  0  0  0  0  0
    7.9570    4.8171    2.7951 C   0  0  0  0  0  0  0  0  0  0  0  0
    7.6466    5.5628    2.0773 H   0  0  0  0  0  0  0  0  0  0  0  0
    4.4877    2.5728   -0.0539 N   0  0  0  0  0  0  0  0  0  0  0  0
    6.1841    2.9722    2.2701 C   0  0  0  0  0  0  0  0  0  0  0  0
    5.6495    2.3308    2.9854 H   0  0  0  0  0  0  0  0  0  0  0  0
    4.0284    3.3669    1.0720 C   0  0  0  0  0  0  0  0  0  0  0  0
    3.4749    2.7482    1.8035 H   0  0  0  0  0  0  0  0  0  0  0  0
    3.3443    4.1302    0.6918 H   0  0  0  0  0  0  0  0  0  0  0  0
    9.1440    4.8809    3.5750 C   0  0  2  0  0  0  0  0  0  0  0  0
    9.8791    5.6733    3.5511 H   0  0  0  0  0  0  0  0  0  0  0  0
    8.2135    2.8247    3.8418 C   0  0  0  0  0  0  0  0  0  0  0  0
    8.1131    1.7713    4.0666 H   0  0  0  0  0  0  0  0  0  0  0  0
    5.2117    4.0351    1.7617 C   0  0  0  0  0  0  0  0  0  0  0  0
    4.8562    4.6440    2.5949 H   0  0  0  0  0  0  0  0  0  0  0  0
    5.7142    4.6763    1.0355 H   0  0  0  0  0  0  0  0  0  0  0  0
    5.3755    1.5174    0.3948 C   0  0  0  0  0  0  0  0  0  0  0  0
    5.6818    0.9346   -0.4786 H   0  0  0  0  0  0  0  0  0  0  0  0
    4.8628    0.8321    1.0983 H   0  0  0  0  0  0  0  0  0  0  0  0
    3.3839    2.0486   -0.8252 C   0  0  0  0  0  0  0  0  0  0  0  0
    3.7740    1.5035   -1.6842 H   0  0  0  0  0  0  0  0  0  0  0  0
    2.7756    2.8771   -1.1862 H   0  0  0  0  0  0  0  0  0  0  0  0
    2.7393    1.3692   -0.2430 H   0  0  0  0  0  0  0  0  0  0  0  0
    6.6061    2.1092    1.0733 C   0  0  0  0  0  0  0  0  0  0  0  0
    7.1461    2.7308    0.3560 H   0  0  0  0  0  0  0  0  0  0  0  0
    7.2695    1.3032    1.3961 H   0  0  0  0  0  0  0  0  0  0  0  0
    7.3923    3.5408    2.9508 C   0  0  0  0  0  0  0  0  0  0  0  0
    9.3002    3.6458    4.2171 C   0  0  0  0  0  0  0  0  0  0  0  0
   10.1539    3.3424    4.8074 H   0  0  0  0  0  0  0  0  0  0  0  0
    5.9727    1.6285    6.1812 C   0  0  0  0  0  0  0  0  0  0  0  0
    5.8444    1.0174    7.0750 H   0  0  0  0  0  0  0  0  0  0  0  0
    6.3680    1.0103    5.3779 H   0  0  0  0  0  0  0  0  0  0  0  0
    5.0109    2.0386    5.8779 H   0  0  0  0  0  0  0  0  0  0  0  0
    8.5656    2.1251    7.2192 C   0  0  0  0  0  0  0  0  0  0  0  0
    8.2574    1.4793    8.0422 H   0  0  0  0  0  0  0  0  0  0  0  0
    9.2833    2.8608    7.5795 H   0  0  0  0  0  0  0  0  0  0  0  0
    9.0283    1.5229    6.4393 H   0  0  0  0  0  0  0  0  0  0  0  0
    8.4142    8.0640    4.4798 C   0  0  0  0  0  0  0  0  0  0  0  0
    8.0861    9.0941    4.6209 H   0  0  0  0  0  0  0  0  0  0  0  0
    8.7762    7.9353    3.4609 H   0  0  0  0  0  0  0  0  0  0  0  0
    9.2138    7.8346    5.1826 H   0  0  0  0  0  0  0  0  0  0  0  0
    6.3066    7.6712    6.2945 C   0  0  0  0  0  0  0  0  0  0  0  0
    6.0443    8.7079    6.0789 H   0  0  0  0  0  0  0  0  0  0  0  0
    7.0391    7.6325    7.0989 H   0  0  0  0  0  0  0  0  0  0  0  0
    5.4153    7.1196    6.5916 H   0  0  0  0  0  0  0  0  0  0  0  0
    6.3620    3.6125    8.1087 C   0  0  0  0  0  0  0  0  0  0  0  0
    6.2443    2.7663    8.7872 H   0  0  0  0  0  0  0  0  0  0  0  0
    5.3891    4.0547    7.8984 H   0  0  0  0  0  0  0  0  0  0  0  0
    7.0092    4.3624    8.5605 H   0  0  0  0  0  0  0  0  0  0  0  0
    5.8038    7.5215    3.5496 C   0  0  0  0  0  0  0  0  0  0  0  0
    5.7112    8.6046    3.6345 H   0  0  0  0  0  0  0  0  0  0  0  0
    4.8403    7.0553    3.7459 H   0  0  0  0  0  0  0  0  0  0  0  0
    6.1252    7.2662    2.5425 H   0  0  0  0  0  0  0  0  0  0  0  0
  4 46  1  0  0  0  0
  5 38  1  0  0  0  0
  5 50  1  0  0  0  0
  6 31  2  0  0  0  0
  6 14  1  0  0  0  0
  7  6  1  0  0  0  0
  8 21  1  0  0  0  0
  8 11  1  0  0  0  0
  9 31  1  0  0  0  0
  9 10  1  0  0  0  0
 11 18  1  0  0  0  0
 11 12  1  0  0  0  0
 13 11  1  0  0  0  0
 14 15  1  1  0  0  0
 14 32  1  0  0  0  0
 14  1  1  0  0  0  0
 16 17  1  0  0  0  0
 16 32  2  0  0  0  0
 18  9  1  0  0  0  0
 18 19  1  0  0  0  0
 20 18  1  0  0  0  0
 21 28  1  0  0  0  0
 21 23  1  0  0  0  0
 22 21  1  0  0  0  0
 24 27  1  0  0  0  0
 24  8  1  0  0  0  0
 25 24  1  0  0  0  0
 26 24  1  0  0  0  0
 28 30  1  0  0  0  0
 28  9  1  0  0  0  0
 29 28  1  0  0  0  0
 31 16  1  0  0  0  0
 32 33  1  0  0  0  0
 34  5  1  0  0  0  0
 34 35  1  0  0  0  0
 36 34  1  0  0  0  0
 37 34  1  0  0  0  0
 38 40  1  0  0  0  0
 38 39  1  0  0  0  0
 41 38  1  0  0  0  0
 42 43  1  0  0  0  0
 42  4  1  0  0  0  0
 42 45  1  0  0  0  0
 44 42  1  0  0  0  0
 46 49  1  0  0  0  0
 46 48  1  0  0  0  0
 47 46  1  0  0  0  0
 50 53  1  0  0  0  0
 50 51  1  0  0  0  0
 52 50  1  0  0  0  0
 54 55  1  0  0  0  0
 54 56  1  0  0  0  0
 54  4  1  0  0  0  0
 57 54  1  0  0  0  0
M  END
$$$$
