CSD_code = PABYOG | q = 1 | S = 0 | Stoichiometry = C16H14Cl2N3Pd(1+) | MND = 4
 OpenBabel04212202083D

 36 40  0  0  1  0  0  0  0  0999 V2000
   -1.9846    5.2382    7.2174 Pd  0  0  0  0  0  0  0  0  0  0  0  0
   -3.7597    4.0596    7.8873 Cl  0  0  0  0  0  0  0  0  0  0  0  0
   -3.0611    5.8768    5.3738 Cl  0  0  0  0  0  0  0  0  0  0  0  0
    0.6029    4.0330    7.2220 C   0  0  2  0  0  0  0  0  0  0  0  0
    0.2891    4.2634    8.6919 C   0  0  2  0  0  3  0  0  0  0  0  0
   -0.9229    4.7813    8.9309 N   0  0  0  0  0  0  0  0  0  0  0  0
   -1.2900    5.0672   10.1759 C   0  0  0  0  0  0  0  0  0  0  0  0
   -0.4430    4.8529   11.2519 C   0  0  0  0  0  0  0  0  0  0  0  0
    0.8172    4.3233   11.0175 C   0  0  0  0  0  0  0  0  0  0  0  0
    1.1919    4.0219    9.7141 C   0  0  0  0  0  0  0  0  0  0  0  0
    0.7950    5.4227    6.6242 C   0  0  1  0  0  3  0  0  0  0  0  0
   -0.3007    6.1908    6.5904 N   0  0  0  0  0  0  0  0  0  0  0  0
   -0.2319    7.4282    6.1139 C   0  0  0  0  0  0  0  0  0  0  0  0
    0.9599    7.9660    5.6523 C   0  0  0  0  0  0  0  0  0  0  0  0
    2.1043    7.1854    5.6891 C   0  0  0  0  0  0  0  0  0  0  0  0
    2.0221    5.8903    6.1860 C   0  0  0  0  0  0  0  0  0  0  0  0
   -0.5672    3.3366    6.5365 C   0  0  1  0  0  0  0  0  0  0  0  0
   -1.2525    2.3841    7.2312 N   0  0  0  0  0  0  0  0  0  0  0  0
   -2.4044    1.8540    6.7591 C   0  0  0  0  0  0  0  0  0  0  0  0
   -2.7443    2.0235    5.4361 C   0  0  0  0  0  0  0  0  0  0  0  0
   -1.9081    2.7786    4.6138 C   0  0  0  0  0  0  0  0  0  0  0  0
   -0.8158    3.4361    5.1618 C   0  0  0  0  0  0  0  0  0  0  0  0
    1.5197    3.4450    7.1092 H   0  0  0  0  0  0  0  0  0  0  0  0
   -2.2898    5.4675   10.3015 H   0  0  0  0  0  0  0  0  0  0  0  0
   -0.7663    5.0982   12.2499 H   0  0  0  0  0  0  0  0  0  0  0  0
    1.5003    4.1454   11.8329 H   0  0  0  0  0  0  0  0  0  0  0  0
    2.1642    3.6070    9.5002 H   0  0  0  0  0  0  0  0  0  0  0  0
   -1.1596    7.9884    6.0963 H   0  0  0  0  0  0  0  0  0  0  0  0
    0.9846    8.9736    5.2717 H   0  0  0  0  0  0  0  0  0  0  0  0
    3.0472    7.5710    5.3352 H   0  0  0  0  0  0  0  0  0  0  0  0
    2.8944    5.2571    6.2205 H   0  0  0  0  0  0  0  0  0  0  0  0
   -1.0293    2.2346    8.2105 H   0  0  0  0  0  0  0  0  0  0  0  0
   -2.9709    1.2293    7.4309 H   0  0  0  0  0  0  0  0  0  0  0  0
   -3.6496    1.5844    5.0518 H   0  0  0  0  0  0  0  0  0  0  0  0
   -2.1263    2.8845    3.5631 H   0  0  0  0  0  0  0  0  0  0  0  0
   -0.1908    4.0661    4.5449 H   0  0  0  0  0  0  0  0  0  0  0  0
  1  2  1  0  0  0  0
  1  6  1  0  0  0  0
  3  1  1  0  0  0  0
  4 23  1  6  0  0  0
  4  5  1  0  0  0  0
  5  6  1  0  0  0  0
  5 10  1  6  0  0  0
  6  7  1  0  0  0  0
  7 24  1  0  0  0  0
  7  8  2  0  0  0  0
  8 25  1  0  0  0  0
  9  8  1  0  0  0  0
  9 26  1  0  0  0  0
 10  9  2  0  0  0  0
 11 16  1  1  0  0  0
 11  4  1  0  0  0  0
 12 11  1  0  0  0  0
 12  1  1  0  0  0  0
 13 12  1  0  0  0  0
 14 15  1  0  0  0  0
 14 13  2  0  0  0  0
 15 16  2  0  0  0  0
 16 31  1  0  0  0  0
 17 22  1  6  0  0  0
 17  1  1  0  0  0  0
 17  4  1  0  0  0  0
 17 18  1  0  0  0  0
 18 32  1  0  0  0  0
 19 18  1  0  0  0  0
 19 33  1  0  0  0  0
 20 19  2  0  0  0  0
 21 22  2  0  0  0  0
 21 20  1  0  0  0  0
 27 10  1  0  0  0  0
 28 13  1  0  0  0  0
 29 14  1  0  0  0  0
 30 15  1  0  0  0  0
 34 20  1  0  0  0  0
 35 21  1  0  0  0  0
 36 22  1  0  0  0  0
M  END
$$$$
