CSD_code = PABYOI | q = 1 | S = 0 | Stoichiometry = C21H21Cl2N4Ru(1+) | MND = 9
 OpenBabel04212202083D

 49 52  0  0  1  0  0  0  0  0999 V2000
    3.9928   12.3521    0.8083 Ru  0  0  0  0  0  0  0  0  0  0  0  0
    3.2790   13.9187   -0.7592 Cl  0  0  0  0  0 15  0  0  0  0  0  0
    5.6894   13.3731    0.8791 N   0  0  0  0  0  0  0  0  0  0  0  0
    7.0954   14.8648    2.1118 C   0  0  0  0  0  0  0  0  0  0  0  0
    5.8260   14.2714    1.8615 C   0  0  0  0  0  0  0  0  0  0  0  0
    6.7261   13.1956    0.0151 C   0  0  0  0  0  0  0  0  0  0  0  0
    6.5684   12.4721   -1.1766 C   0  0  0  0  0  0  0  0  0  0  0  0
    5.5815   12.1168   -1.4428 H   0  0  0  0  0  0  0  0  0  0  0  0
    9.0692   13.5887   -0.5664 C   0  0  0  0  0  3  0  0  0  0  0  0
   10.0123   14.0478   -0.3193 H   0  0  0  0  0  0  0  0  0  0  0  0
    7.9843   13.8058    0.2998 C   0  0  0  0  0  0  0  0  0  0  0  0
    7.6373   12.3086   -2.0213 C   0  0  0  0  0  0  0  0  0  0  0  0
    7.5095   11.7763   -2.9511 H   0  0  0  0  0  0  0  0  0  0  0  0
    8.8952   12.8424   -1.7028 C   0  0  0  0  0  0  0  0  0  0  0  0
    9.7220   12.6857   -2.3775 H   0  0  0  0  0  0  0  0  0  0  0  0
    3.6007   13.7401    2.1576 N   0  0  1  0  0  0  0  0  0  0  0  0
    4.6470   14.4958    2.5533 N   0  0  0  0  0  0  0  0  0  0  0  0
    3.6602   10.3063   -0.5621 C   0  0  0  0  0  0  0  0  0  0  0  0
    3.5184   10.6435    2.2834 C   0  0  2  0  0  3  0  0  0  0  0  0
    4.7836   10.1027    0.2465 C   0  0  0  0  0  0  0  0  0  0  0  0
    5.6974    9.7166   -0.1917 H   0  0  0  0  0  0  0  0  0  0  0  0
    2.4592   10.7476    0.0724 C   0  0  0  0  0  0  0  0  0  0  0  0
    1.5638   10.8763   -0.5260 H   0  0  0  0  0  0  0  0  0  0  0  0
    2.3756   10.8642    1.4630 C   0  0  2  0  0  0  0  0  0  0  0  0
    1.4143   11.0477    1.9318 H   0  0  0  0  0  0  0  0  0  0  0  0
    4.7307   10.3143    1.6476 C   0  0  0  0  0  0  0  0  0  0  0  0
    5.6016   10.0787    2.2507 H   0  0  0  0  0  0  0  0  0  0  0  0
    2.9362   10.9457   -2.9036 C   0  0  0  0  0  0  0  0  0  0  0  0
    1.8599   10.8474   -2.7895 H   0  0  0  0  0  0  0  0  0  0  0  0
    3.1756   10.7650   -3.9476 H   0  0  0  0  0  0  0  0  0  0  0  0
    3.2172   11.9681   -2.6572 H   0  0  0  0  0  0  0  0  0  0  0  0
    3.6828    9.9405   -2.0252 C   0  0  0  0  0  0  0  0  0  0  0  0
    4.7283    9.8965   -2.3513 H   0  0  0  0  0  0  0  0  0  0  0  0
    8.1302   14.5959    1.3779 N   0  0  0  0  0  0  0  0  0  0  0  0
    3.3997   10.6523    3.7754 C   0  0  0  0  0  0  0  0  0  0  0  0
    3.0431    9.6763    4.1088 H   0  0  0  0  0  0  0  0  0  0  0  0
    2.6852   11.3992    4.1156 H   0  0  0  0  0  0  0  0  0  0  0  0
    4.3613   10.8368    4.2495 H   0  0  0  0  0  0  0  0  0  0  0  0
    3.0797    8.5365   -2.1724 C   0  0  0  0  0  0  0  0  0  0  0  0
    3.6412    7.8085   -1.5911 H   0  0  0  0  0  0  0  0  0  0  0  0
    3.1054    8.2386   -3.2166 H   0  0  0  0  0  0  0  0  0  0  0  0
    2.0453    8.5247   -1.8373 H   0  0  0  0  0  0  0  0  0  0  0  0
    2.5331   14.1697    2.7984 C   0  0  0  0  0  3  0  0  0  0  0  0
    1.5639   13.7390    2.6324 H   0  0  0  0  0  0  0  0  0  0  0  0
    4.2374   15.4160    3.4651 C   0  0  0  0  0  0  0  0  0  0  0  0
    4.9057   16.1248    3.9057 H   0  0  0  0  0  0  0  0  0  0  0  0
    2.8909   15.2303    3.6443 C   0  0  0  0  0  0  0  0  0  0  0  0
    2.2422   15.7828    4.2913 H   0  0  0  0  0  0  0  0  0  0  0  0
    7.3516   15.9307    3.4259 Cl  0  0  0  0  0  0  0  0  0  0  0  0
  1  3  1  0  0  0  0
  1 24  1  0  0  0  0
  1 16  1  0  0  0  0
  3  5  1  0  0  0  0
  4 49  1  0  0  0  0
  5  4  2  0  0  0  0
  5 17  1  0  0  0  0
  6 11  1  0  0  0  0
  6  3  1  0  0  0  0
  7  6  2  0  0  0  0
  8  7  1  0  0  0  0
  9 10  1  0  0  0  0
  9 11  1  0  0  0  0
 11 34  2  0  0  0  0
 12 14  2  0  0  0  0
 12  7  1  0  0  0  0
 13 12  1  0  0  0  0
 14  9  1  0  0  0  0
 15 14  1  0  0  0  0
 16 17  1  0  0  0  0
 16 43  1  6  0  0  0
 17 45  1  0  0  0  0
 18 22  2  0  0  0  0
 18 20  1  0  0  0  0
 19 35  1  1  0  0  0
 20 26  2  0  0  0  0
 21 20  1  0  0  0  0
 22 24  1  0  0  0  0
 23 22  1  0  0  0  0
 24 25  1  1  0  0  0
 24 19  1  0  0  0  0
 26 27  1  0  0  0  0
 26 19  1  0  0  0  0
 28 29  1  0  0  0  0
 28 31  1  0  0  0  0
 28 32  1  0  0  0  0
 30 28  1  0  0  0  0
 32 18  1  0  0  0  0
 33 32  1  0  0  0  0
 34  4  1  0  0  0  0
 35 36  1  0  0  0  0
 35 37  1  0  0  0  0
 35 38  1  0  0  0  0
 39 32  1  0  0  0  0
 39 42  1  0  0  0  0
 39 40  1  0  0  0  0
 41 39  1  0  0  0  0
 43 47  1  0  0  0  0
 44 43  1  0  0  0  0
 45 47  2  0  0  0  0
 45 46  1  0  0  0  0
 47 48  1  0  0  0  0
M  END
$$$$
