CSD_code = PABYUN | q = 0 | S = 0 | Stoichiometry = C17H11ClN2O2Pd | MND = 4
 OpenBabel04212202083D

 34 38  0  0  0  0  0  0  0  0999 V2000
    4.2614    3.3045    4.7504 Pd  0  0  1  0  0  0  0  0  0  0  0  0
    3.1512    4.1964    3.0938 Cl  0  0  0  0  0  0  0  0  0  0  0  0
    7.9355   -0.5189    9.0111 O   0  0  0  0  0  0  0  0  0  0  0  0
    8.4166   -0.8614    9.7803 H   0  0  0  0  0  0  0  0  0  0  0  0
    7.5696    1.2064   10.3809 O   0  0  0  0  0  0  0  0  0  0  0  0
    4.8681    1.4434    3.7568 N   0  0  0  0  0  0  0  0  0  0  0  0
    5.2461    2.4636    6.1462 N   0  0  0  0  0  0  0  0  0  0  0  0
    4.6215    1.0125    2.5270 C   0  0  0  0  0  0  0  0  0  0  0  0
    4.0322    1.6773    1.9045 H   0  0  0  0  0  0  0  0  0  0  0  0
    5.0837   -0.2074    2.0603 C   0  0  0  0  0  0  0  0  0  0  0  0
    4.8639   -0.5249    1.0540 H   0  0  0  0  0  0  0  0  0  0  0  0
    5.8315   -1.0026    2.9178 C   0  0  0  0  0  0  0  0  0  0  0  0
    6.2086   -1.9599    2.5906 H   0  0  0  0  0  0  0  0  0  0  0  0
    6.0901   -0.5555    4.2009 C   0  0  0  0  0  0  0  0  0  0  0  0
    6.6688   -1.1615    4.8785 H   0  0  0  0  0  0  0  0  0  0  0  0
    5.5945    0.6845    4.6061 C   0  0  0  0  0  0  0  0  0  0  0  0
    5.8097    1.2561    5.9443 C   0  0  0  0  0  0  0  0  0  0  0  0
    6.5322    0.6366    6.9573 C   0  0  0  0  0  0  0  0  0  0  0  0
    6.9899   -0.3276    6.8181 H   0  0  0  0  0  0  0  0  0  0  0  0
    6.6644    1.2868    8.1833 C   0  0  0  0  0  0  0  0  0  0  0  0
    6.0726    2.5371    8.3690 C   0  0  0  0  0  0  0  0  0  0  0  0
    6.1834    3.0285    9.3216 H   0  0  0  0  0  0  0  0  0  0  0  0
    5.3594    3.1134    7.3273 C   0  0  0  0  0  0  0  0  0  0  0  0
    7.4189    0.6862    9.3041 C   0  0  0  0  0  0  0  0  0  0  0  0
    4.0195    4.7440    6.1187 C   0  0  0  0  0  0  0  0  0  0  0  0
    4.6727    4.4007    7.3316 C   0  0  0  0  0  0  0  0  0  0  0  0
    4.6322    5.2635    8.4266 C   0  0  0  0  0  0  0  0  0  0  0  0
    5.1305    4.9983    9.3474 H   0  0  0  0  0  0  0  0  0  0  0  0
    3.3100    6.8061    7.1526 C   0  0  0  0  0  0  0  0  0  0  0  0
    2.7787    7.7446    7.0858 H   0  0  0  0  0  0  0  0  0  0  0  0
    3.3431    5.9563    6.0549 C   0  0  0  0  0  3  0  0  0  0  0  0
    2.8361    6.2438    5.1425 H   0  0  0  0  0  0  0  0  0  0  0  0
    3.9514    6.4616    8.3326 C   0  0  0  0  0  0  0  0  0  0  0  0
    3.9192    7.1298    9.1805 H   0  0  0  0  0  0  0  0  0  0  0  0
  1  2  1  6  0  0  0
  1 25  2  0  0  0  0
  1  7  1  0  0  0  0
  3 24  1  0  0  0  0
  3  4  1  0  0  0  0
  6 16  1  0  0  0  0
  6  1  1  0  0  0  0
  7 23  1  0  0  0  0
  8  6  1  0  0  0  0
  9  8  1  0  0  0  0
 10  8  2  0  0  0  0
 10 12  1  0  0  0  0
 11 10  1  0  0  0  0
 12 14  2  0  0  0  0
 13 12  1  0  0  0  0
 14 16  1  0  0  0  0
 14 15  1  0  0  0  0
 16 17  2  0  0  0  0
 17  7  1  0  0  0  0
 17 18  1  0  0  0  0
 18 20  2  0  0  0  0
 19 18  1  0  0  0  0
 20 21  1  0  0  0  0
 20 24  1  0  0  0  0
 21 22  1  0  0  0  0
 23 26  1  0  0  0  0
 23 21  2  0  0  0  0
 24  5  2  0  0  0  0
 25 26  1  0  0  0  0
 26 27  2  0  0  0  0
 27 28  1  0  0  0  0
 29 33  2  0  0  0  0
 30 29  1  0  0  0  0
 31 25  1  0  0  0  0
 31 29  1  0  0  0  0
 32 31  1  0  0  0  0
 33 27  1  0  0  0  0
 33 34  1  0  0  0  0
M  END
$$$$
