CSD_code = PADWOJ | q = 0 | S = 0 | Stoichiometry = C26H27BrN2Pt | MND = 4
 OpenBabel04212202083D

 57 61  0  0  1  0  0  0  0  0999 V2000
    7.6263    1.2341    4.4661 Pt  0  0  2  0  0  0  0  0  0  0  0  0
    8.6522    2.4819    2.6556 Br  0  0  0  0  0  0  0  0  0  0  0  0
    9.1410    1.2100    5.8348 N   0  0  0  0  0  0  0  0  0  0  0  0
    5.7767    0.8639    3.6884 N   0  0  0  0  0  0  0  0  0  0  0  0
    6.7996    0.2765    5.9166 C   0  0  0  0  0  0  0  0  0  0  0  0
    7.5404    0.0610    7.0820 C   0  0  0  0  0  0  0  0  0  0  0  0
    6.9287   -0.6198    8.1336 C   0  0  0  0  0  0  0  0  0  0  0  0
    7.4555   -0.8141    9.0570 H   0  0  0  0  0  0  0  0  0  0  0  0
    5.6161   -1.0522    7.9860 C   0  0  0  0  0  0  0  0  0  0  0  0
    5.1478   -1.5787    8.8052 H   0  0  0  0  0  0  0  0  0  0  0  0
    4.8816   -0.8318    6.8269 C   0  0  0  0  0  0  0  0  0  0  0  0
    3.8624   -1.1855    6.7640 H   0  0  0  0  0  0  0  0  0  0  0  0
    5.4782   -0.1532    5.7652 C   0  0  0  0  0  0  0  0  0  0  0  0
    8.8777    0.6145    6.9614 C   0  0  1  0  0  3  0  0  0  0  0  0
    9.8731    0.4827    8.0672 C   0  0  0  0  0  0  0  0  0  0  0  0
   10.8245    0.9380    7.8009 H   0  0  0  0  0  0  0  0  0  0  0  0
   10.0311   -0.5716    8.2931 H   0  0  0  0  0  0  0  0  0  0  0  0
    9.4875    0.9584    8.9686 H   0  0  0  0  0  0  0  0  0  0  0  0
   10.3946    1.7848    5.5500 C   0  0  0  0  0  0  0  0  0  0  0  0
   11.3341    1.0337    4.8380 C   0  0  0  0  0  0  0  0  0  0  0  0
   12.5461    1.6234    4.5175 C   0  0  0  0  0  0  0  0  0  0  0  0
   13.2792    1.0559    3.9636 H   0  0  0  0  0  0  0  0  0  0  0  0
   12.8130    2.9304    4.8840 C   0  0  0  0  0  0  0  0  0  0  0  0
   13.7603    3.3788    4.6257 H   0  0  0  0  0  0  0  0  0  0  0  0
   11.8580    3.6754    5.5528 C   0  0  0  0  0  0  0  0  0  0  0  0
   12.0559    4.7066    5.8053 H   0  0  0  0  0  0  0  0  0  0  0  0
   10.6345    3.1189    5.8896 C   0  0  0  0  0  0  0  0  0  0  0  0
   10.9825   -0.3584    4.4130 C   0  0  0  0  0  0  0  0  0  0  0  0
   10.9363   -1.0325    5.2695 H   0  0  0  0  0  0  0  0  0  0  0  0
   11.7101   -0.7417    3.7033 H   0  0  0  0  0  0  0  0  0  0  0  0
    9.9934   -0.3562    3.9380 H   0  0  0  0  0  0  0  0  0  0  0  0
    9.5530    3.9109    6.5581 C   0  0  0  0  0  0  0  0  0  0  0  0
    9.3938    3.5755    7.5837 H   0  0  0  0  0  0  0  0  0  0  0  0
    8.6130    3.7772    6.0137 H   0  0  0  0  0  0  0  0  0  0  0  0
    9.8021    4.9683    6.5714 H   0  0  0  0  0  0  0  0  0  0  0  0
    4.9556    0.2143    4.4611 C   0  0  0  0  0  0  0  0  0  0  0  0
    3.5629   -0.1421    4.0550 C   0  0  0  0  0  0  0  0  0  0  0  0
    3.3431    0.2049    3.0480 H   0  0  0  0  0  0  0  0  0  0  0  0
    2.8522    0.3032    4.7507 H   0  0  0  0  0  0  0  0  0  0  0  0
    3.4335   -1.2231    4.0985 H   0  0  0  0  0  0  0  0  0  0  0  0
    5.4263    1.2930    2.3936 C   0  0  0  0  0  0  0  0  0  0  0  0
    5.7041    0.4649    1.3027 C   0  0  0  0  0  0  0  0  0  0  0  0
    5.3978    0.9226    0.0314 C   0  0  0  0  0  0  0  0  0  0  0  0
    5.6114    0.2951   -0.8212 H   0  0  0  0  0  0  0  0  0  0  0  0
    4.8413    2.1759   -0.1522 C   0  0  0  0  0  0  0  0  0  0  0  0
    4.6096    2.5206   -1.1486 H   0  0  0  0  0  0  0  0  0  0  0  0
    4.6103    3.0017    0.9336 C   0  0  0  0  0  0  0  0  0  0  0  0
    4.2102    3.9934    0.7834 H   0  0  0  0  0  0  0  0  0  0  0  0
    4.9047    2.5778    2.2194 C   0  0  0  0  0  0  0  0  0  0  0  0
    6.3608   -0.8600    1.5412 C   0  0  0  0  0  0  0  0  0  0  0  0
    7.2253   -0.7248    2.2009 H   0  0  0  0  0  0  0  0  0  0  0  0
    6.6990   -1.2974    0.6061 H   0  0  0  0  0  0  0  0  0  0  0  0
    5.6778   -1.5570    2.0285 H   0  0  0  0  0  0  0  0  0  0  0  0
    4.7265    3.4618    3.4150 C   0  0  0  0  0  0  0  0  0  0  0  0
    3.9129    3.1085    4.0501 H   0  0  0  0  0  0  0  0  0  0  0  0
    4.5160    4.4835    3.1117 H   0  0  0  0  0  0  0  0  0  0  0  0
    5.6439    3.4542    4.0141 H   0  0  0  0  0  0  0  0  0  0  0  0
  1  2  1  1  0  0  0
  1  3  1  0  0  0  0
  1  5  2  0  0  0  0
  3 14  1  0  0  0  0
  4 36  1  0  0  0  0
  4  1  1  0  0  0  0
  5  6  1  0  0  0  0
  6  7  2  0  0  0  0
  7  8  1  0  0  0  0
  9  7  1  0  0  0  0
  9 10  1  0  0  0  0
 11  9  2  0  0  0  0
 12 11  1  0  0  0  0
 13  5  1  0  0  0  0
 13 11  1  0  0  0  0
 14  6  1  0  0  0  0
 14 15  1  6  0  0  0
 15 17  1  0  0  0  0
 15 18  1  0  0  0  0
 16 15  1  0  0  0  0
 19  3  1  0  0  0  0
 19 27  1  0  0  0  0
 20 19  2  0  0  0  0
 21 20  1  0  0  0  0
 21 23  2  0  0  0  0
 22 21  1  0  0  0  0
 23 25  1  0  0  0  0
 24 23  1  0  0  0  0
 25 26  1  0  0  0  0
 25 27  2  0  0  0  0
 27 32  1  0  0  0  0
 28 20  1  0  0  0  0
 28 29  1  0  0  0  0
 30 28  1  0  0  0  0
 31 28  1  0  0  0  0
 32 35  1  0  0  0  0
 32 33  1  0  0  0  0
 34 32  1  0  0  0  0
 36 13  2  0  0  0  0
 37 40  1  0  0  0  0
 37 36  1  0  0  0  0
 37 39  1  0  0  0  0
 38 37  1  0  0  0  0
 41  4  1  0  0  0  0
 42 50  1  0  0  0  0
 42 41  2  0  0  0  0
 43 42  1  0  0  0  0
 44 43  1  0  0  0  0
 45 43  2  0  0  0  0
 45 47  1  0  0  0  0
 46 45  1  0  0  0  0
 47 49  2  0  0  0  0
 48 47  1  0  0  0  0
 49 41  1  0  0  0  0
 49 54  1  0  0  0  0
 50 53  1  0  0  0  0
 50 51  1  0  0  0  0
 52 50  1  0  0  0  0
 54 57  1  0  0  0  0
 54 55  1  0  0  0  0
 56 54  1  0  0  0  0
M  END
$$$$
