CSD_code = PAFFUY | q = 0 | S = 0 | Stoichiometry = C20H26Cl2N2Pd | MND = 4
 OpenBabel04212202083D

 51 54  0  0  1  0  0  0  0  0999 V2000
    7.9766    1.9547    1.1858 Pd  0  0  0  0  0  0  0  0  0  0  0  0
    9.4389    1.2560   -0.3657 Cl  0  0  0  0  0  0  0  0  0  0  0  0
    6.2811    0.8281    0.2590 Cl  0  0  0  0  0  0  0  0  0  0  0  0
    9.4276    3.2093    2.0434 N   0  0  0  0  0  4  0  0  0  0  0  0
   10.1338    3.3347    1.3130 H   0  0  0  0  0  0  0  0  0  0  0  0
    6.6162    3.1133    2.3968 N   0  0  0  0  0  4  0  0  0  0  0  0
    6.0758    3.4847    1.6078 H   0  0  0  0  0  0  0  0  0  0  0  0
    8.6729    4.4594    2.2226 C   0  0  2  0  0  0  0  0  0  0  0  0
    8.3836    4.7854    1.2081 H   0  0  0  0  0  0  0  0  0  0  0  0
    9.4783    5.5922    2.8727 C   0  0  0  0  0  0  0  0  0  0  0  0
    9.7484    5.3185    3.8945 H   0  0  0  0  0  0  0  0  0  0  0  0
   10.3975    5.7578    2.3064 H   0  0  0  0  0  0  0  0  0  0  0  0
    8.6486    6.8722    2.9147 C   0  0  0  0  0  0  0  0  0  0  0  0
    9.2298    7.6719    3.3758 H   0  0  0  0  0  0  0  0  0  0  0  0
    8.3996    7.1837    1.8981 H   0  0  0  0  0  0  0  0  0  0  0  0
    7.3668    6.6365    3.7066 C   0  0  0  0  0  0  0  0  0  0  0  0
    7.6183    6.3812    4.7385 H   0  0  0  0  0  0  0  0  0  0  0  0
    6.7662    7.5470    3.7245 H   0  0  0  0  0  0  0  0  0  0  0  0
    6.5585    5.5024    3.0838 C   0  0  0  0  0  0  0  0  0  0  0  0
    5.6482    5.3382    3.6640 H   0  0  0  0  0  0  0  0  0  0  0  0
    6.2622    5.7865    2.0697 H   0  0  0  0  0  0  0  0  0  0  0  0
    7.3761    4.2059    3.0187 C   0  0  1  0  0  0  0  0  0  0  0  0
    7.6422    3.8892    4.0339 H   0  0  0  0  0  0  0  0  0  0  0  0
   10.1062    2.6490    3.2218 C   0  0  0  0  0  0  0  0  0  0  0  0
   10.7746    3.3890    3.6813 H   0  0  0  0  0  0  0  0  0  0  0  0
    9.3522    2.3443    3.9567 H   0  0  0  0  0  0  0  0  0  0  0  0
   10.9182    1.4552    2.7866 C   0  0  0  0  0  0  0  0  0  0  0  0
   12.2929    1.5571    2.6257 C   0  0  0  0  0  0  0  0  0  0  0  0
   12.7945    2.4881    2.8535 H   0  0  0  0  0  0  0  0  0  0  0  0
   13.0269    0.4754    2.1710 C   0  0  0  0  0  0  0  0  0  0  0  0
   14.0954    0.5676    2.0431 H   0  0  0  0  0  0  0  0  0  0  0  0
   12.3907   -0.7157    1.8692 C   0  0  0  0  0  0  0  0  0  0  0  0
   12.9624   -1.5559    1.5048 H   0  0  0  0  0  0  0  0  0  0  0  0
   11.0195   -0.8246    2.0262 C   0  0  0  0  0  0  0  0  0  0  0  0
   10.5175   -1.7478    1.7808 H   0  0  0  0  0  0  0  0  0  0  0  0
   10.2842    0.2561    2.4797 C   0  0  0  0  0  0  0  0  0  0  0  0
    9.2040    0.1684    2.5957 H   0  0  0  0  0  0  0  0  0  0  0  0
    5.6876    2.4149    3.2953 C   0  0  0  0  0  0  0  0  0  0  0  0
    5.0559    3.1264    3.8447 H   0  0  0  0  0  0  0  0  0  0  0  0
    5.0541    1.7836    2.6654 H   0  0  0  0  0  0  0  0  0  0  0  0
    6.4532    1.5449    4.2550 C   0  0  0  0  0  0  0  0  0  0  0  0
    6.9655    0.3307    3.8067 C   0  0  0  0  0  0  0  0  0  0  0  0
    6.7554    0.0065    2.7890 H   0  0  0  0  0  0  0  0  0  0  0  0
    7.6903   -0.4767    4.6692 C   0  0  0  0  0  0  0  0  0  0  0  0
    8.0714   -1.4266    4.3256 H   0  0  0  0  0  0  0  0  0  0  0  0
    7.9216   -0.0726    5.9739 C   0  0  0  0  0  0  0  0  0  0  0  0
    8.4891   -0.7019    6.6427 H   0  0  0  0  0  0  0  0  0  0  0  0
    7.4136    1.1341    6.4237 C   0  0  0  0  0  0  0  0  0  0  0  0
    7.5830    1.4481    7.4432 H   0  0  0  0  0  0  0  0  0  0  0  0
    6.6793    1.9382    5.5680 C   0  0  0  0  0  0  0  0  0  0  0  0
    6.2669    2.8706    5.9305 H   0  0  0  0  0  0  0  0  0  0  0  0
  1  4  1  0  0  0  0
  1  6  1  0  0  0  0
  2  1  1  0  0  0  0
  3  1  1  0  0  0  0
  4  8  1  0  0  0  0
  4 24  1  0  0  0  0
  5  4  1  0  0  0  0
  6 22  1  0  0  0  0
  6 38  1  0  0  0  0
  7  6  1  0  0  0  0
  8  9  1  6  0  0  0
  8 10  1  0  0  0  0
  8 22  1  0  0  0  0
 10 13  1  0  0  0  0
 10 11  1  0  0  0  0
 12 10  1  0  0  0  0
 13 14  1  0  0  0  0
 13 16  1  0  0  0  0
 15 13  1  0  0  0  0
 16 18  1  0  0  0  0
 16 17  1  0  0  0  0
 19 20  1  0  0  0  0
 19 16  1  0  0  0  0
 21 19  1  0  0  0  0
 22 19  1  0  0  0  0
 22 23  1  1  0  0  0
 24 25  1  0  0  0  0
 24 26  1  0  0  0  0
 27 24  1  0  0  0  0
 28 27  1  0  0  0  0
 28 29  1  0  0  0  0
 30 28  2  0  0  0  0
 31 30  1  0  0  0  0
 32 34  2  0  0  0  0
 32 30  1  0  0  0  0
 33 32  1  0  0  0  0
 34 36  1  0  0  0  0
 35 34  1  0  0  0  0
 36 37  1  0  0  0  0
 36 27  2  0  0  0  0
 38 39  1  0  0  0  0
 38 41  1  0  0  0  0
 40 38  1  0  0  0  0
 41 50  1  0  0  0  0
 42 41  2  0  0  0  0
 42 44  1  0  0  0  0
 43 42  1  0  0  0  0
 44 46  2  0  0  0  0
 45 44  1  0  0  0  0
 46 48  1  0  0  0  0
 46 47  1  0  0  0  0
 48 49  1  0  0  0  0
 50 51  1  0  0  0  0
 50 48  2  0  0  0  0
M  END
$$$$
