CSD_code = PAFKIQ | q = -1 | S = 0 | Stoichiometry = C12H36Cl2N2Si4V(1-) | MND = 4
 OpenBabel04212202083D

 57 56  0  0  0  0  0  0  0  0999 V2000
    8.2379    3.2807   14.0076 V   0  0  0  0  0  0  0  0  0  0  0  0
    7.5048    2.2982   12.2165 Cl  0  0  0  0  0  0  0  0  0  0  0  0
   10.1588    2.2677   14.0397 Cl  0  0  0  0  0  0  0  0  0  0  0  0
    9.5530    5.6082   15.5229 Si  0  0  0  0  0  0  0  0  0  0  0  0
    9.3268    5.5982   12.4522 Si  0  0  0  0  0  0  0  0  0  0  0  0
    7.0058    1.2304   15.8197 Si  0  0  0  0  0  0  0  0  0  0  0  0
    5.3154    3.6271   14.8793 Si  0  0  0  0  0  0  0  0  0  0  0  0
    8.8940    5.0490   14.0337 N   0  0  0  0  0  0  0  0  0  0  0  0
    6.8073    2.8094   15.1436 N   0  0  0  0  0  0  0  0  0  0  0  0
    8.8205    4.6593   17.0116 C   0  0  0  0  0  0  0  0  0  0  0  0
   11.4641    5.4211   15.5855 C   0  0  0  0  0  0  0  0  0  0  0  0
    9.1481    7.4606   15.8370 C   0  0  0  0  0  0  0  0  0  0  0  0
   10.6096    4.4599   11.5886 C   0  0  0  0  0  0  0  0  0  0  0  0
   10.0939    7.3559   12.4436 C   0  0  0  0  0  0  0  0  0  0  0  0
    7.8034    5.7194   11.2932 C   0  0  0  0  0  0  0  0  0  0  0  0
    8.5274    1.1418   16.9839 C   0  0  0  0  0  0  0  0  0  0  0  0
    7.2225   -0.1299   14.4822 C   0  0  0  0  0  0  0  0  0  0  0  0
    5.5221    0.6756   16.9011 C   0  0  0  0  0  0  0  0  0  0  0  0
    4.4181    4.0308   16.5298 C   0  0  0  0  0  0  0  0  0  0  0  0
    4.1038    2.5995   13.7989 C   0  0  0  0  0  0  0  0  0  0  0  0
    5.5886    5.3061   14.0095 C   0  0  0  0  0  0  0  0  0  0  0  0
    7.9010    4.1552   16.7245 H   0  0  0  0  0  0  0  0  0  0  0  0
    9.5171    3.9037   17.3605 H   0  0  0  0  0  0  0  0  0  0  0  0
    8.6022    5.3228   17.8443 H   0  0  0  0  0  0  0  0  0  0  0  0
   11.7416    4.4006   15.3376 H   0  0  0  0  0  0  0  0  0  0  0  0
   11.9479    6.0772   14.8687 H   0  0  0  0  0  0  0  0  0  0  0  0
   11.8623    5.6503   16.5698 H   0  0  0  0  0  0  0  0  0  0  0  0
    9.3844    7.7338   16.8608 H   0  0  0  0  0  0  0  0  0  0  0  0
    9.7167    8.1113   15.1842 H   0  0  0  0  0  0  0  0  0  0  0  0
    8.0950    7.6650   15.6738 H   0  0  0  0  0  0  0  0  0  0  0  0
   10.1578    3.4969   11.3607 H   0  0  0  0  0  0  0  0  0  0  0  0
   10.9731    4.8913   10.6592 H   0  0  0  0  0  0  0  0  0  0  0  0
   11.4654    4.2730   12.2318 H   0  0  0  0  0  0  0  0  0  0  0  0
   10.9821    7.4090   13.0617 H   0  0  0  0  0  0  0  0  0  0  0  0
   10.3741    7.6385   11.4344 H   0  0  0  0  0  0  0  0  0  0  0  0
    9.3881    8.0927   12.8078 H   0  0  0  0  0  0  0  0  0  0  0  0
    7.1167    6.5003   11.6049 H   0  0  0  0  0  0  0  0  0  0  0  0
    8.1218    5.9459   10.2792 H   0  0  0  0  0  0  0  0  0  0  0  0
    7.2668    4.7754   11.2698 H   0  0  0  0  0  0  0  0  0  0  0  0
    8.7145    0.1129   17.2793 H   0  0  0  0  0  0  0  0  0  0  0  0
    9.4155    1.5093   16.4781 H   0  0  0  0  0  0  0  0  0  0  0  0
    8.3799    1.7227   17.8892 H   0  0  0  0  0  0  0  0  0  0  0  0
    7.2149   -1.1278   14.9136 H   0  0  0  0  0  0  0  0  0  0  0  0
    6.4329   -0.0777   13.7375 H   0  0  0  0  0  0  0  0  0  0  0  0
    8.1687    0.0071   13.9633 H   0  0  0  0  0  0  0  0  0  0  0  0
    5.4038    1.3205   17.7637 H   0  0  0  0  0  0  0  0  0  0  0  0
    4.5929    0.6873   16.3444 H   0  0  0  0  0  0  0  0  0  0  0  0
    5.6791   -0.3345   17.2643 H   0  0  0  0  0  0  0  0  0  0  0  0
    5.0840    4.5312   17.2251 H   0  0  0  0  0  0  0  0  0  0  0  0
    3.5702    4.6853   16.3527 H   0  0  0  0  0  0  0  0  0  0  0  0
    4.0468    3.1354   17.0128 H   0  0  0  0  0  0  0  0  0  0  0  0
    3.2276    3.1749   13.5143 H   0  0  0  0  0  0  0  0  0  0  0  0
    4.6056    2.2770   12.8913 H   0  0  0  0  0  0  0  0  0  0  0  0
    3.7640    1.7109   14.3214 H   0  0  0  0  0  0  0  0  0  0  0  0
    6.6023    5.6612   14.1787 H   0  0  0  0  0  0  0  0  0  0  0  0
    5.4487    5.2026   12.9383 H   0  0  0  0  0  0  0  0  0  0  0  0
    4.8951    6.0630   14.3668 H   0  0  0  0  0  0  0  0  0  0  0  0
  1  8  1  0  0  0  0
  1  3  1  0  0  0  0
  1  9  1  0  0  0  0
  2  1  1  0  0  0  0
  4 11  1  0  0  0  0
  4 12  1  0  0  0  0
  4 10  1  0  0  0  0
  5  8  1  0  0  0  0
  6 18  1  0  0  0  0
  6 16  1  0  0  0  0
  7  9  1  0  0  0  0
  7 19  1  0  0  0  0
  8  4  1  0  0  0  0
  9  6  1  0  0  0  0
 10 23  1  0  0  0  0
 10 24  1  0  0  0  0
 11 27  1  0  0  0  0
 12 28  1  0  0  0  0
 13 33  1  0  0  0  0
 13  5  1  0  0  0  0
 14  5  1  0  0  0  0
 14 36  1  0  0  0  0
 14 34  1  0  0  0  0
 15 37  1  0  0  0  0
 15  5  1  0  0  0  0
 16 40  1  0  0  0  0
 16 42  1  0  0  0  0
 17 43  1  0  0  0  0
 17  6  1  0  0  0  0
 18 48  1  0  0  0  0
 18 46  1  0  0  0  0
 19 51  1  0  0  0  0
 19 49  1  0  0  0  0
 20 54  1  0  0  0  0
 20  7  1  0  0  0  0
 21 55  1  0  0  0  0
 21 57  1  0  0  0  0
 21  7  1  0  0  0  0
 22 10  1  0  0  0  0
 25 11  1  0  0  0  0
 26 11  1  0  0  0  0
 29 12  1  0  0  0  0
 30 12  1  0  0  0  0
 31 13  1  0  0  0  0
 32 13  1  0  0  0  0
 35 14  1  0  0  0  0
 38 15  1  0  0  0  0
 39 15  1  0  0  0  0
 41 16  1  0  0  0  0
 44 17  1  0  0  0  0
 45 17  1  0  0  0  0
 47 18  1  0  0  0  0
 50 19  1  0  0  0  0
 52 20  1  0  0  0  0
 53 20  1  0  0  0  0
 56 21  1  0  0  0  0
M  END
$$$$
