CSD_code = PAFWIC | q = 0 | S = 0 | Stoichiometry = C6H12Cl2N2S5W | MND = 7
 OpenBabel04212202083D

 28 28  0  0  0  0  0  0  0  0999 V2000
    2.5525    0.7344   13.0050 W   0  0  0  0  0  0  0  0  0  0  0  0
    1.1276   -1.0510   12.9729 Cl  0  0  0  0  0  0  0  0  0  0  0  0
    4.3796   -0.6246   13.0204 Cl  0  0  0  0  0  0  0  0  0  0  0  0
    2.9190    0.3064   15.5538 S   0  0  0  0  0  0  0  0  0  0  0  0
    0.6646    1.7677   14.5720 S   0  0  0  0  0  0  0  0  0  0  0  0
    2.9919    0.3480   10.4603 S   0  0  0  0  0  0  0  0  0  0  0  0
    0.7042    1.7847   11.4021 S   0  0  0  0  0  0  0  0  0  0  0  0
    3.5351    2.7023   13.0318 S   0  0  0  0  0  1  0  0  0  0  0  0
    1.5175    1.2129   15.9417 C   0  0  0  0  0  3  0  0  0  0  0  0
    1.1322    1.4530   17.1844 N   0  0  0  0  0  0  0  0  0  0  0  0
    1.8773    0.9872   18.3279 C   0  0  0  0  0  0  0  0  0  0  0  0
   -0.0482    2.2235   17.4889 C   0  0  0  0  0  0  0  0  0  0  0  0
    1.5945    1.2499   10.0483 C   0  0  0  0  0  0  0  0  0  0  0  0
    1.2386    1.5008    8.7990 N   0  0  0  0  0  0  0  0  0  0  0  0
    2.0049    1.0332    7.6703 C   0  0  0  0  0  0  0  0  0  0  0  0
    0.0712    2.2826    8.4737 C   0  0  0  0  0  0  0  0  0  0  0  0
    2.7773    0.4738   17.9990 H   0  0  0  0  0  0  0  0  0  0  0  0
    1.2646    0.2995   18.9139 H   0  0  0  0  0  0  0  0  0  0  0  0
    2.1544    1.8360   18.9550 H   0  0  0  0  0  0  0  0  0  0  0  0
    0.2334    3.1500   17.9929 H   0  0  0  0  0  0  0  0  0  0  0  0
   -0.7008    1.6471   18.1462 H   0  0  0  0  0  0  0  0  0  0  0  0
   -0.5779    2.4628   16.5703 H   0  0  0  0  0  0  0  0  0  0  0  0
    1.3449    0.5154    6.9726 H   0  0  0  0  0  0  0  0  0  0  0  0
    2.7820    0.3515    8.0076 H   0  0  0  0  0  0  0  0  0  0  0  0
    2.4694    1.8787    7.1581 H   0  0  0  0  0  0  0  0  0  0  0  0
    0.3553    3.1021    7.8121 H   0  0  0  0  0  0  0  0  0  0  0  0
   -0.3657    2.6864    9.3836 H   0  0  0  0  0  0  0  0  0  0  0  0
   -0.6666    1.6574    7.9671 H   0  0  0  0  0  0  0  0  0  0  0  0
  1  3  1  0  0  0  0
  1  8  1  0  0  0  0
  1  5  1  0  0  0  0
  1  4  1  0  0  0  0
  2  1  1  0  0  0  0
  4  9  1  0  0  0  0
  5  9  1  0  0  0  0
  6  1  1  0  0  0  0
  9 10  1  0  0  0  0
 10 12  1  0  0  0  0
 10 11  1  0  0  0  0
 11 18  1  0  0  0  0
 11 19  1  0  0  0  0
 12 20  1  0  0  0  0
 12 21  1  0  0  0  0
 13  6  1  0  0  0  0
 13  7  2  0  0  0  0
 14 13  1  0  0  0  0
 15 24  1  0  0  0  0
 15 14  1  0  0  0  0
 16 14  1  0  0  0  0
 16 27  1  0  0  0  0
 17 11  1  0  0  0  0
 22 12  1  0  0  0  0
 23 15  1  0  0  0  0
 25 15  1  0  0  0  0
 26 16  1  0  0  0  0
 28 16  1  0  0  0  0
M  END
$$$$
