CSD_code = PAFZUS | q = 0 | S = 0 | Stoichiometry = C35H30BCl2PZr | MND = 12
 OpenBabel04212202083D

 70 76  0  0  1  0  0  0  0  0999 V2000
   -0.3685    6.6120    8.9896 Zr  0  0  0  0  0  0  0  0  0  0  0  0
    2.5632    2.1024   10.4508 P   0  0  0  0  0  4  0  0  0  0  0  0
   -1.2752    8.0859    7.4146 Cl  0  0  0  0  0  0  0  0  0  0  0  0
   -2.1444    6.8816   10.5038 Cl  0  0  0  0  0  0  0  0  0  0  0  0
    2.1372    4.7896    9.2798 B   0  0  1  0  0  0  0  0  0  0  0  0
    1.8855    6.3378    9.7148 C   0  0  1  0  0  0  0  0  0  0  0  0
    1.8991    7.4132    8.7796 C   0  0  0  0  0  3  0  0  0  0  0  0
    2.4347    7.4125    7.8344 H   0  0  0  0  0  0  0  0  0  0  0  0
    1.2386    8.5319    9.3472 C   0  0  0  0  0  0  0  0  0  0  0  0
    1.1794    9.5251    8.9156 H   0  0  0  0  0  0  0  0  0  0  0  0
    0.7831    8.1592   10.6266 C   0  0  0  0  0  0  0  0  0  0  0  0
    0.3102    8.8138   11.3510 H   0  0  0  0  0  0  0  0  0  0  0  0
    1.1646    6.8097   10.8490 C   0  0  0  0  0  3  0  0  0  0  0  0
    1.0170    6.2843   11.7889 H   0  0  0  0  0  0  0  0  0  0  0  0
    0.6781    4.4958    8.6295 C   0  0  2  0  0  0  0  0  0  0  0  0
    0.2580    4.9506    7.3455 C   0  0  0  0  0  3  0  0  0  0  0  0
    0.9151    5.2017    6.5175 H   0  0  0  0  0  0  0  0  0  0  0  0
   -1.1569    4.8990    7.2713 C   0  0  0  0  0  0  0  0  0  0  0  0
   -1.7564    5.0916    6.3885 H   0  0  0  0  0  0  0  0  0  0  0  0
   -1.6373    4.4492    8.5141 C   0  0  0  0  0  0  0  0  0  0  0  0
   -2.6713    4.2333    8.7595 H   0  0  0  0  0  0  0  0  0  0  0  0
   -0.5191    4.2243    9.3572 C   0  0  0  0  0  3  0  0  0  0  0  0
   -0.5892    3.7993   10.3556 H   0  0  0  0  0  0  0  0  0  0  0  0
    3.4070    4.6398    8.2930 C   0  0  0  0  0  0  0  0  0  0  0  0
    4.5948    5.3041    8.6024 C   0  0  0  0  0  0  0  0  0  0  0  0
    4.6226    5.9344    9.4808 H   0  0  0  0  0  0  0  0  0  0  0  0
    5.7249    5.1955    7.8138 C   0  0  0  0  0  0  0  0  0  0  0  0
    6.6264    5.7301    8.0813 H   0  0  0  0  0  0  0  0  0  0  0  0
    5.7032    4.4068    6.6760 C   0  0  0  0  0  0  0  0  0  0  0  0
    6.5826    4.3183    6.0537 H   0  0  0  0  0  0  0  0  0  0  0  0
    4.5377    3.7436    6.3378 C   0  0  0  0  0  0  0  0  0  0  0  0
    4.5039    3.1321    5.4459 H   0  0  0  0  0  0  0  0  0  0  0  0
    3.4134    3.8647    7.1356 C   0  0  0  0  0  0  0  0  0  0  0  0
    2.5124    3.3483    6.8353 H   0  0  0  0  0  0  0  0  0  0  0  0
    2.4037    3.8751   10.6618 C   0  0  0  0  0  0  0  0  0  0  0  0
    1.5733    4.0054   11.3631 H   0  0  0  0  0  0  0  0  0  0  0  0
    3.3222    4.2094   11.1533 H   0  0  0  0  0  0  0  0  0  0  0  0
    3.9141    1.6383    9.3401 C   0  0  0  0  0  0  0  0  0  0  0  0
    5.1491    2.2481    9.5367 C   0  0  0  0  0  0  0  0  0  0  0  0
    5.2610    2.9999   10.3035 H   0  0  0  0  0  0  0  0  0  0  0  0
    6.2216    1.9038    8.7377 C   0  0  0  0  0  0  0  0  0  0  0  0
    7.1753    2.3876    8.8810 H   0  0  0  0  0  0  0  0  0  0  0  0
    6.0703    0.9426    7.7508 C   0  0  0  0  0  0  0  0  0  0  0  0
    6.9073    0.6805    7.1216 H   0  0  0  0  0  0  0  0  0  0  0  0
    4.8484    0.3177    7.5707 C   0  0  0  0  0  0  0  0  0  0  0  0
    4.7330   -0.4365    6.8067 H   0  0  0  0  0  0  0  0  0  0  0  0
    3.7686    0.6582    8.3664 C   0  0  0  0  0  0  0  0  0  0  0  0
    2.8149    0.1699    8.2251 H   0  0  0  0  0  0  0  0  0  0  0  0
    2.9884    1.2765   12.0140 C   0  0  0  0  0  0  0  0  0  0  0  0
    3.3870   -0.0572   11.9743 C   0  0  0  0  0  0  0  0  0  0  0  0
    3.4432   -0.5680   11.0226 H   0  0  0  0  0  0  0  0  0  0  0  0
    3.7072   -0.7170   13.1455 C   0  0  0  0  0  0  0  0  0  0  0  0
    4.0150   -1.7513   13.1140 H   0  0  0  0  0  0  0  0  0  0  0  0
    3.6334   -0.0505   14.3594 C   0  0  0  0  0  0  0  0  0  0  0  0
    3.8838   -0.5673   15.2733 H   0  0  0  0  0  0  0  0  0  0  0  0
    3.2401    1.2766   14.4011 C   0  0  0  0  0  0  0  0  0  0  0  0
    3.1835    1.7948   15.3464 H   0  0  0  0  0  0  0  0  0  0  0  0
    2.9173    1.9426   13.2309 C   0  0  0  0  0  0  0  0  0  0  0  0
    2.6099    2.9776   13.2648 H   0  0  0  0  0  0  0  0  0  0  0  0
    1.0186    1.3588    9.8831 C   0  0  0  0  0  0  0  0  0  0  0  0
    0.1900    0.6873   10.7755 C   0  0  0  0  0  0  0  0  0  0  0  0
    0.4997    0.5448   11.8018 H   0  0  0  0  0  0  0  0  0  0  0  0
   -1.0340    0.2063   10.3447 C   0  0  0  0  0  0  0  0  0  0  0  0
   -1.6791   -0.3127   11.0376 H   0  0  0  0  0  0  0  0  0  0  0  0
   -1.4344    0.3993    9.0324 C   0  0  0  0  0  0  0  0  0  0  0  0
   -2.3943    0.0302    8.7045 H   0  0  0  0  0  0  0  0  0  0  0  0
   -0.6091    1.0682    8.1428 C   0  0  0  0  0  0  0  0  0  0  0  0
   -0.9250    1.2282    7.1239 H   0  0  0  0  0  0  0  0  0  0  0  0
    0.6154    1.5527    8.5645 C   0  0  0  0  0  0  0  0  0  0  0  0
    1.2575    2.0908    7.8864 H   0  0  0  0  0  0  0  0  0  0  0  0
  1  6  1  0  0  0  0
  1  4  1  0  0  0  0
  2 35  1  0  0  0  0
  2 49  1  0  0  0  0
  3  1  1  0  0  0  0
  5  6  1  0  0  0  0
  5 35  1  1  0  0  0
  6  7  1  6  0  0  0
  6 13  1  0  0  0  0
  7  9  1  0  0  0  0
  8  7  1  0  0  0  0
  9 11  2  0  0  0  0
 10  9  1  0  0  0  0
 11 13  1  0  0  0  0
 11 12  1  0  0  0  0
 13 14  1  0  0  0  0
 15 16  1  6  0  0  0
 15  1  1  0  0  0  0
 15  5  1  0  0  0  0
 15 22  1  0  0  0  0
 17 16  1  0  0  0  0
 18 16  1  0  0  0  0
 18 20  2  0  0  0  0
 19 18  1  0  0  0  0
 20 21  1  0  0  0  0
 20 22  1  0  0  0  0
 22 23  1  0  0  0  0
 24 25  1  0  0  0  0
 24  5  1  0  0  0  0
 25 26  1  0  0  0  0
 27 28  1  0  0  0  0
 27 25  2  0  0  0  0
 29 27  1  0  0  0  0
 30 29  1  0  0  0  0
 31 29  2  0  0  0  0
 31 33  1  0  0  0  0
 32 31  1  0  0  0  0
 33 24  2  0  0  0  0
 34 33  1  0  0  0  0
 35 37  1  0  0  0  0
 35 36  1  0  0  0  0
 38 39  1  0  0  0  0
 38  2  1  0  0  0  0
 39 40  1  0  0  0  0
 41 42  1  0  0  0  0
 41 39  2  0  0  0  0
 43 41  1  0  0  0  0
 44 43  1  0  0  0  0
 45 43  2  0  0  0  0
 45 47  1  0  0  0  0
 46 45  1  0  0  0  0
 47 38  2  0  0  0  0
 48 47  1  0  0  0  0
 49 58  1  0  0  0  0
 50 49  2  0  0  0  0
 50 52  1  0  0  0  0
 51 50  1  0  0  0  0
 52 54  2  0  0  0  0
 53 52  1  0  0  0  0
 54 56  1  0  0  0  0
 54 55  1  0  0  0  0
 56 57  1  0  0  0  0
 58 59  1  0  0  0  0
 58 56  2  0  0  0  0
 60  2  1  0  0  0  0
 60 61  1  0  0  0  0
 61 62  1  0  0  0  0
 63 61  2  0  0  0  0
 63 64  1  0  0  0  0
 65 63  1  0  0  0  0
 66 65  1  0  0  0  0
 67 69  1  0  0  0  0
 67 65  2  0  0  0  0
 68 67  1  0  0  0  0
 69 60  2  0  0  0  0
 70 69  1  0  0  0  0
M  END
$$$$
