CSD_code = PAGBAD | q = 0 | S = 0 | Stoichiometry = C16H35Cl2OPZn | MND = 4
 OpenBabel04212202083D

 56 55  0  0  0  0  0  0  0  0999 V2000
   23.3418    2.1334    6.8459 Zn  0  0  0  0  0  0  0  0  0  0  0  0
   25.3040    1.5213    7.7194 Cl  0  0  0  0  0  0  0  0  0  0  0  0
   21.5582    0.7936    6.7916 Cl  0  0  0  0  0  0  0  0  0  0  0  0
   22.7671    4.5427    7.2531 P   0  0  0  0  0  4  0  0  0  0  0  0
   23.9237    2.0395    4.6184 O   0  0  0  0  0  0  0  0  0  0  0  0
   24.0312    5.6961    6.3928 C   0  0  0  0  0  0  0  0  0  0  0  0
   25.4333    5.1140    6.6214 C   0  0  0  0  0  0  0  0  0  0  0  0
   26.1057    5.4756    5.8448 H   0  0  0  0  0  0  0  0  0  0  0  0
   25.4231    4.0268    6.5718 H   0  0  0  0  0  0  0  0  0  0  0  0
   25.8576    5.4067    7.5743 H   0  0  0  0  0  0  0  0  0  0  0  0
   24.0025    7.1568    6.8409 C   0  0  0  0  0  0  0  0  0  0  0  0
   24.7223    7.7178    6.2451 H   0  0  0  0  0  0  0  0  0  0  0  0
   24.2880    7.2653    7.8829 H   0  0  0  0  0  0  0  0  0  0  0  0
   23.0262    7.6094    6.6977 H   0  0  0  0  0  0  0  0  0  0  0  0
   23.7812    5.6267    4.8834 C   0  0  0  0  0  0  0  0  0  0  0  0
   24.6017    6.1185    4.3613 H   0  0  0  0  0  0  0  0  0  0  0  0
   22.8669    6.1362    4.5945 H   0  0  0  0  0  0  0  0  0  0  0  0
   23.7475    4.5897    4.5528 H   0  0  0  0  0  0  0  0  0  0  0  0
   22.8364    4.8096    9.1445 C   0  0  0  0  0  0  0  0  0  0  0  0
   24.3037    4.8461    9.5825 C   0  0  0  0  0  0  0  0  0  0  0  0
   24.3514    4.7518   10.6668 H   0  0  0  0  0  0  0  0  0  0  0  0
   24.7874    5.7817    9.3199 H   0  0  0  0  0  0  0  0  0  0  0  0
   24.8574    4.0118    9.1557 H   0  0  0  0  0  0  0  0  0  0  0  0
   22.1293    6.0679    9.6495 C   0  0  0  0  0  0  0  0  0  0  0  0
   22.3154    6.1688   10.7184 H   0  0  0  0  0  0  0  0  0  0  0  0
   21.0538    6.0155    9.5096 H   0  0  0  0  0  0  0  0  0  0  0  0
   22.5017    6.9638    9.1611 H   0  0  0  0  0  0  0  0  0  0  0  0
   22.2347    3.5651    9.8087 C   0  0  0  0  0  0  0  0  0  0  0  0
   22.3958    3.6215   10.8846 H   0  0  0  0  0  0  0  0  0  0  0  0
   22.7313    2.6621    9.4489 H   0  0  0  0  0  0  0  0  0  0  0  0
   21.1696    3.4599    9.6420 H   0  0  0  0  0  0  0  0  0  0  0  0
   21.0000    4.8825    6.6022 C   0  0  0  0  0  0  0  0  0  0  0  0
   20.6342    6.3600    6.4646 C   0  0  0  0  0  0  0  0  0  0  0  0
   19.5802    6.4369    6.1985 H   0  0  0  0  0  0  0  0  0  0  0  0
   21.2037    6.8475    5.6785 H   0  0  0  0  0  0  0  0  0  0  0  0
   20.7824    6.9014    7.3944 H   0  0  0  0  0  0  0  0  0  0  0  0
   19.9860    4.1923    7.5190 C   0  0  0  0  0  0  0  0  0  0  0  0
   19.0065    4.2217    7.0429 H   0  0  0  0  0  0  0  0  0  0  0  0
   19.8901    4.6826    8.4826 H   0  0  0  0  0  0  0  0  0  0  0  0
   20.2474    3.1445    7.6558 H   0  0  0  0  0  0  0  0  0  0  0  0
   20.8645    4.1726    5.2496 C   0  0  0  0  0  0  0  0  0  0  0  0
   19.8331    4.2544    4.9089 H   0  0  0  0  0  0  0  0  0  0  0  0
   21.0922    3.1145    5.3624 H   0  0  0  0  0  0  0  0  0  0  0  0
   21.4990    4.5865    4.4759 H   0  0  0  0  0  0  0  0  0  0  0  0
   23.1426    1.1938    3.7831 C   0  0  0  0  0  0  0  0  0  0  0  0
   23.1432    1.6092    2.7655 H   0  0  0  0  0  0  0  0  0  0  0  0
   22.1267    1.1685    4.1724 H   0  0  0  0  0  0  0  0  0  0  0  0
   23.8386   -0.1695    3.8232 C   0  0  0  0  0  0  0  0  0  0  0  0
   23.7212   -0.7060    2.8843 H   0  0  0  0  0  0  0  0  0  0  0  0
   23.4154   -0.7721    4.6253 H   0  0  0  0  0  0  0  0  0  0  0  0
   25.3045    0.1885    4.1261 C   0  0  0  0  0  0  0  0  0  0  0  0
   25.6382   -0.2879    5.0460 H   0  0  0  0  0  0  0  0  0  0  0  0
   25.9780   -0.0987    3.3212 H   0  0  0  0  0  0  0  0  0  0  0  0
   25.2728    1.7118    4.3059 C   0  0  0  0  0  0  0  0  0  0  0  0
   25.9077    2.0581    5.1194 H   0  0  0  0  0  0  0  0  0  0  0  0
   25.5490    2.2250    3.3738 H   0  0  0  0  0  0  0  0  0  0  0  0
  1  4  1  0  0  0  0
  1  2  1  0  0  0  0
  3  1  1  0  0  0  0
  4 19  1  0  0  0  0
  6  7  1  0  0  0  0
  6 11  1  0  0  0  0
  6  4  1  0  0  0  0
  7 10  1  0  0  0  0
  8  7  1  0  0  0  0
  9  7  1  0  0  0  0
 11 13  1  0  0  0  0
 12 11  1  0  0  0  0
 14 11  1  0  0  0  0
 15  6  1  0  0  0  0
 16 15  1  0  0  0  0
 17 15  1  0  0  0  0
 18 15  1  0  0  0  0
 19 20  1  0  0  0  0
 19 24  1  0  0  0  0
 19 28  1  0  0  0  0
 20 21  1  0  0  0  0
 22 20  1  0  0  0  0
 23 20  1  0  0  0  0
 24 25  1  0  0  0  0
 26 24  1  0  0  0  0
 27 24  1  0  0  0  0
 28 29  1  0  0  0  0
 30 28  1  0  0  0  0
 31 28  1  0  0  0  0
 32  4  1  0  0  0  0
 32 37  1  0  0  0  0
 33 32  1  0  0  0  0
 33 36  1  0  0  0  0
 34 33  1  0  0  0  0
 35 33  1  0  0  0  0
 37 40  1  0  0  0  0
 37 39  1  0  0  0  0
 38 37  1  0  0  0  0
 41 43  1  0  0  0  0
 41 32  1  0  0  0  0
 42 41  1  0  0  0  0
 44 41  1  0  0  0  0
 45 48  1  0  0  0  0
 45 47  1  0  0  0  0
 45  5  1  0  0  0  0
 46 45  1  0  0  0  0
 48 51  1  0  0  0  0
 48 50  1  0  0  0  0
 49 48  1  0  0  0  0
 51 54  1  0  0  0  0
 51 52  1  0  0  0  0
 53 51  1  0  0  0  0
 54  5  1  0  0  0  0
 54 55  1  0  0  0  0
 56 54  1  0  0  0  0
M  END
$$$$
