CSD_code = PAGNUG | q = 1 | S = 0 | Stoichiometry = C13H17BrClCoN7O(1+) | MND = 6
 OpenBabel04212202083D

 41 46  0  0  1  0  0  0  0  0999 V2000
    1.3955   -3.6945    8.5689 Co  0  0  0  0  0  0  0  0  0  0  0  0
    1.7793    0.1409    4.5843 Br  0  0  0  0  0  0  0  0  0  0  0  0
    3.4951   -3.5484    8.9444 Cl  0  0  0  0  0  0  0  0  0  0  0  0
    1.8030   -2.8663    4.7393 O   0  0  0  0  0  0  0  0  0  0  0  0
    1.4763   -5.5637    9.0275 N   0  0  0  0  0  0  0  0  0  0  0  0
    2.0515   -7.4234   10.0242 N   0  0  0  0  0  0  0  0  0  0  0  0
    1.6281   -3.9874    6.7293 N   0  0  0  0  0  0  0  0  0  0  0  0
    1.3676    0.3017    8.6691 N   0  0  0  0  0  0  0  0  0  0  0  0
    1.4094   -1.9514    8.0896 N   0  0  0  0  0  0  0  0  0  0  0  0
    0.9510   -2.8747   10.4595 N   0  0  1  0  0  4  0  0  0  0  0  0
   -0.6817   -3.7460    8.3941 N   0  0  0  0  0  4  0  0  0  0  0  0
    1.9008   -6.1017   10.1575 C   0  0  0  0  0  3  0  0  0  0  0  0
    1.7243   -7.7527    8.7437 C   0  0  0  0  0  0  0  0  0  0  0  0
    1.3656   -6.5898    8.1225 C   0  0  0  0  0  0  0  0  0  0  0  0
    1.0030   -6.3615    6.6965 C   0  0  0  0  0  0  0  0  0  0  0  0
    1.8931   -5.2622    6.1092 C   0  0  0  0  0  0  0  0  0  0  0  0
    1.6837   -2.8949    5.9484 C   0  0  0  0  0  0  0  0  0  0  0  0
    1.5442   -1.6647    6.7972 C   0  0  2  0  0  3  0  0  0  0  0  0
    1.5940   -0.3327    6.3859 C   0  0  0  0  0  0  0  0  0  0  0  0
    1.4850    0.6305    7.3961 C   0  0  0  0  0  0  0  0  0  0  0  0
    1.3496   -0.9745    8.9899 C   0  0  0  0  0  0  0  0  0  0  0  0
    1.3164   -1.4445   10.4108 C   0  0  0  0  0  0  0  0  0  0  0  0
   -0.4779   -3.0980   10.7221 C   0  0  0  0  0  0  0  0  0  0  0  0
   -1.2673   -2.8856    9.4328 C   0  0  0  0  0  0  0  0  0  0  0  0
    2.3858   -8.0617   10.7303 H   0  0  0  0  0  0  0  0  0  0  0  0
    1.4849   -3.2901   11.2189 H   0  0  0  0  0  0  0  0  0  0  0  0
   -1.0017   -4.7034    8.5367 H   0  0  0  0  0  0  0  0  0  0  0  0
   -1.0173   -3.4660    7.4734 H   0  0  0  0  0  0  0  0  0  0  0  0
    2.1247   -5.5700   11.0606 H   0  0  0  0  0  0  0  0  0  0  0  0
    1.7690   -8.7549    8.3725 H   0  0  0  0  0  0  0  0  0  0  0  0
   -0.0453   -6.0691    6.6002 H   0  0  0  0  0  0  0  0  0  0  0  0
    1.1512   -7.2858    6.1401 H   0  0  0  0  0  0  0  0  0  0  0  0
    2.9470   -5.5325    6.2475 H   0  0  0  0  0  0  0  0  0  0  0  0
    1.7041   -5.1551    5.0358 H   0  0  0  0  0  0  0  0  0  0  0  0
    1.5000    1.6871    7.1701 H   0  0  0  0  0  0  0  0  0  0  0  0
    2.3312   -1.3203   10.8024 H   0  0  0  0  0  0  0  0  0  0  0  0
    0.6450   -0.8218   11.0109 H   0  0  0  0  0  0  0  0  0  0  0  0
   -0.8526   -2.4299   11.5060 H   0  0  0  0  0  0  0  0  0  0  0  0
   -0.6085   -4.1307   11.0556 H   0  0  0  0  0  0  0  0  0  0  0  0
   -2.3257   -3.1111    9.6007 H   0  0  0  0  0  0  0  0  0  0  0  0
   -1.1887   -1.8429    9.1173 H   0  0  0  0  0  0  0  0  0  0  0  0
  1  3  1  0  0  0  0
  1  5  1  0  0  0  0
  1 10  1  0  0  0  0
  2 19  1  0  0  0  0
  4 17  2  0  0  0  0
  5 12  1  0  0  0  0
  6 12  1  0  0  0  0
  6 25  1  0  0  0  0
  7  1  1  0  0  0  0
  8 21  2  0  0  0  0
  9  1  1  0  0  0  0
  9 21  1  0  0  0  0
 10 23  1  0  0  0  0
 10 26  1  1  0  0  0
 11 27  1  0  0  0  0
 11  1  1  0  0  0  0
 11 24  1  0  0  0  0
 12 29  1  0  0  0  0
 13  6  1  0  0  0  0
 14 13  2  0  0  0  0
 14  5  1  0  0  0  0
 15 14  1  0  0  0  0
 16 33  1  0  0  0  0
 16 15  1  0  0  0  0
 16  7  1  0  0  0  0
 17  7  1  0  0  0  0
 18 17  1  1  0  0  0
 18  9  1  0  0  0  0
 19 18  1  0  0  0  0
 19 20  2  0  0  0  0
 20  8  1  0  0  0  0
 21 22  1  0  0  0  0
 22 10  1  0  0  0  0
 22 36  1  0  0  0  0
 22 37  1  0  0  0  0
 23 39  1  0  0  0  0
 23 38  1  0  0  0  0
 24 40  1  0  0  0  0
 24 23  1  0  0  0  0
 28 11  1  0  0  0  0
 30 13  1  0  0  0  0
 31 15  1  0  0  0  0
 32 15  1  0  0  0  0
 34 16  1  0  0  0  0
 35 20  1  0  0  0  0
 41 24  1  0  0  0  0
M  END
$$$$
