CSD_code = PAGWIF | q = 0 | S = 0 | Stoichiometry = C22H22Cl2NOPPd | MND = 4
 OpenBabel04212202083D

 50 54  0  0  0  0  0  0  0  0999 V2000
   10.5180    1.8228    1.8146 Pd  0  0  0  0  0  0  0  0  0  0  0  0
   11.8634    0.0446    1.3809 Cl  0  0  0  0  0  0  0  0  0  0  0  0
   12.2158    3.2500    1.5461 Cl  0  0  0  0  0  0  0  0  0  0  0  0
    9.1134    3.5125    2.1127 P   0  0  0  0  0  4  0  0  0  0  0  0
    7.7729   -1.8292    3.2375 O   0  0  0  0  0  0  0  0  0  0  0  0
    8.7508    0.5519    2.2420 N   0  0  0  0  0  4  0  0  0  0  0  0
    8.8880    4.3565    0.5185 C   0  0  0  0  0  0  0  0  0  0  0  0
    9.3337    3.6680   -0.6090 C   0  0  0  0  0  0  0  0  0  0  0  0
    9.8287    2.6942   -0.4869 H   0  0  0  0  0  0  0  0  0  0  0  0
    9.1812    4.2261   -1.8643 C   0  0  0  0  0  0  0  0  0  0  0  0
    9.5340    3.6978   -2.7372 H   0  0  0  0  0  0  0  0  0  0  0  0
    8.5862    5.4710   -1.9989 C   0  0  0  0  0  0  0  0  0  0  0  0
    8.4735    5.9108   -2.9786 H   0  0  0  0  0  0  0  0  0  0  0  0
    8.1464    6.1587   -0.8795 C   0  0  0  0  0  0  0  0  0  0  0  0
    7.6918    7.1325   -0.9877 H   0  0  0  0  0  0  0  0  0  0  0  0
    8.2933    5.6057    0.3802 C   0  0  0  0  0  0  0  0  0  0  0  0
    7.9656    6.1502    1.2550 H   0  0  0  0  0  0  0  0  0  0  0  0
    9.1713    4.8350    3.3429 C   0  0  0  0  0  0  0  0  0  0  0  0
   10.1170    5.8403    3.1430 C   0  0  0  0  0  0  0  0  0  0  0  0
   10.7370    5.8105    2.2567 H   0  0  0  0  0  0  0  0  0  0  0  0
   10.2628    6.8431    4.0817 C   0  0  0  0  0  0  0  0  0  0  0  0
   10.9922    7.6237    3.9264 H   0  0  0  0  0  0  0  0  0  0  0  0
    9.4791    6.8423    5.2261 C   0  0  0  0  0  0  0  0  0  0  0  0
    9.5933    7.6270    5.9589 H   0  0  0  0  0  0  0  0  0  0  0  0
    8.5587    5.8291    5.4389 C   0  0  0  0  0  0  0  0  0  0  0  0
    7.9597    5.8222    6.3378 H   0  0  0  0  0  0  0  0  0  0  0  0
    8.4074    4.8190    4.5056 C   0  0  0  0  0  0  0  0  0  0  0  0
    7.6959    4.0220    4.6767 H   0  0  0  0  0  0  0  0  0  0  0  0
    7.5103    2.6731    2.3240 C   0  0  0  0  0  0  0  0  0  0  0  0
    6.3185    3.3864    2.3988 C   0  0  0  0  0  0  0  0  0  0  0  0
    6.3512    4.4663    2.3852 H   0  0  0  0  0  0  0  0  0  0  0  0
    5.1105    2.7217    2.4780 C   0  0  0  0  0  0  0  0  0  0  0  0
    4.1872    3.2776    2.5356 H   0  0  0  0  0  0  0  0  0  0  0  0
    5.0944    1.3364    2.4730 C   0  0  0  0  0  0  0  0  0  0  0  0
    4.1560    0.8063    2.5328 H   0  0  0  0  0  0  0  0  0  0  0  0
    6.2739    0.6178    2.3916 C   0  0  0  0  0  0  0  0  0  0  0  0
    6.2347   -0.4608    2.3966 H   0  0  0  0  0  0  0  0  0  0  0  0
    7.4994    1.2747    2.3193 C   0  0  0  0  0  0  0  0  0  0  0  0
    9.2121    0.1300    3.5802 C   0  0  0  0  0  0  0  0  0  0  0  0
   10.2289   -0.2722    3.4584 H   0  0  0  0  0  0  0  0  0  0  0  0
    9.2497    1.0074    4.2422 H   0  0  0  0  0  0  0  0  0  0  0  0
    8.3037   -0.9420    4.2045 C   0  0  0  0  0  0  0  0  0  0  0  0
    8.8818   -1.5069    4.9506 H   0  0  0  0  0  0  0  0  0  0  0  0
    7.4401   -0.4912    4.7042 H   0  0  0  0  0  0  0  0  0  0  0  0
    8.6013   -1.9451    2.1004 C   0  0  0  0  0  0  0  0  0  0  0  0
    8.1440   -2.7133    1.4747 H   0  0  0  0  0  0  0  0  0  0  0  0
    9.6053   -2.2810    2.3883 H   0  0  0  0  0  0  0  0  0  0  0  0
    8.6884   -0.6168    1.3307 C   0  0  0  0  0  0  0  0  0  0  0  0
    7.8290   -0.4920    0.6680 H   0  0  0  0  0  0  0  0  0  0  0  0
    9.6044   -0.6326    0.7273 H   0  0  0  0  0  0  0  0  0  0  0  0
  1  4  1  0  0  0  0
  1  6  1  0  0  0  0
  2  1  1  0  0  0  0
  3  1  1  0  0  0  0
  4 29  1  0  0  0  0
  4 18  1  0  0  0  0
  5 42  1  0  0  0  0
  6 38  1  0  0  0  0
  6 39  1  0  0  0  0
  7  4  1  0  0  0  0
  8  9  1  0  0  0  0
  8  7  2  0  0  0  0
 10  8  1  0  0  0  0
 11 10  1  0  0  0  0
 12 10  2  0  0  0  0
 12 14  1  0  0  0  0
 13 12  1  0  0  0  0
 14 16  2  0  0  0  0
 15 14  1  0  0  0  0
 16  7  1  0  0  0  0
 16 17  1  0  0  0  0
 18 27  1  0  0  0  0
 19 18  2  0  0  0  0
 19 21  1  0  0  0  0
 20 19  1  0  0  0  0
 21 23  2  0  0  0  0
 22 21  1  0  0  0  0
 23 25  1  0  0  0  0
 23 24  1  0  0  0  0
 25 26  1  0  0  0  0
 27 28  1  0  0  0  0
 27 25  2  0  0  0  0
 29 30  1  0  0  0  0
 30 32  2  0  0  0  0
 31 30  1  0  0  0  0
 32 33  1  0  0  0  0
 34 32  1  0  0  0  0
 34 35  1  0  0  0  0
 36 37  1  0  0  0  0
 36 34  2  0  0  0  0
 38 29  2  0  0  0  0
 38 36  1  0  0  0  0
 39 42  1  0  0  0  0
 39 41  1  0  0  0  0
 40 39  1  0  0  0  0
 42 44  1  0  0  0  0
 42 43  1  0  0  0  0
 45 47  1  0  0  0  0
 45  5  1  0  0  0  0
 46 45  1  0  0  0  0
 48 45  1  0  0  0  0
 48  6  1  0  0  0  0
 49 48  1  0  0  0  0
 50 48  1  0  0  0  0
M  END
$$$$
