CSD_code = PAHNUJ | q = 0 | S = 0 | Stoichiometry = C5H12Cl2N2OPtS | MND = 4
 OpenBabel04212202083D

 24 23  0  0  0  0  0  0  0  0999 V2000
    3.6154    1.4565    3.0281 Pt  0  0  0  0  0  0  0  0  0  0  0  0
    5.5187    2.6914    3.3113 Cl  0  0  0  0  0  0  0  0  0  0  0  0
    1.6719    0.2548    2.7557 Cl  0  0  0  0  0  0  0  0  0  0  0  0
    2.4280    3.1647    3.8299 S   0  0  0  0  0  0  0  0  0  0  0  0
    1.9462    4.0577    2.7993 O   0  0  0  0  0  1  0  0  0  0  0  0
    4.5762   -0.0275    2.2834 N   0  0  0  0  0  2  0  0  0  0  0  0
    5.1944   -1.8819    0.8117 N   0  0  0  0  0  0  0  0  0  0  0  0
    4.8604   -0.8873    1.5565 C   0  0  0  0  0  2  0  0  0  0  0  0
    6.5138   -1.9856    0.2295 C   0  0  0  0  0  0  0  0  0  0  0  0
    7.1222   -1.1397    0.5412 H   0  0  0  0  0  0  0  0  0  0  0  0
    6.4426   -1.9919   -0.8608 H   0  0  0  0  0  0  0  0  0  0  0  0
    6.9932   -2.9111    0.5573 H   0  0  0  0  0  0  0  0  0  0  0  0
    4.2261   -2.9132    0.5023 C   0  0  0  0  0  0  0  0  0  0  0  0
    3.2783   -2.6801    0.9826 H   0  0  0  0  0  0  0  0  0  0  0  0
    4.5839   -3.8804    0.8627 H   0  0  0  0  0  0  0  0  0  0  0  0
    4.0747   -2.9700   -0.5780 H   0  0  0  0  0  0  0  0  0  0  0  0
    3.2724    4.1777    5.0807 C   0  0  0  0  0  0  0  0  0  0  0  0
    4.1585    4.6039    4.6225 H   0  0  0  0  0  0  0  0  0  0  0  0
    3.5562    3.5336    5.9052 H   0  0  0  0  0  0  0  0  0  0  0  0
    2.5945    4.9618    5.3979 H   0  0  0  0  0  0  0  0  0  0  0  0
    0.9973    2.6668    4.8358 C   0  0  0  0  0  0  0  0  0  0  0  0
    0.4905    3.5617    5.1781 H   0  0  0  0  0  0  0  0  0  0  0  0
    1.3574    2.0681    5.6649 H   0  0  0  0  0  0  0  0  0  0  0  0
    0.3384    2.0749    4.2091 H   0  0  0  0  0  0  0  0  0  0  0  0
  1  2  1  0  0  0  0
  1  4  1  0  0  0  0
  3  1  1  0  0  0  0
  4 21  1  0  0  0  0
  4 17  1  0  0  0  0
  5  4  1  0  0  0  0
  6  1  1  0  0  0  0
  7  8  1  0  0  0  0
  8  6  1  0  0  0  0
  9 10  1  0  0  0  0
  9 12  1  0  0  0  0
  9  7  1  0  0  0  0
 11  9  1  0  0  0  0
 13  7  1  0  0  0  0
 13 15  1  0  0  0  0
 13 14  1  0  0  0  0
 16 13  1  0  0  0  0
 17 20  1  0  0  0  0
 17 19  1  0  0  0  0
 18 17  1  0  0  0  0
 21 22  1  0  0  0  0
 21 23  1  0  0  0  0
 24 21  1  0  0  0  0
M  END
$$$$
