CSD_code = PAHTEA | q = 0 | S = 0 | Stoichiometry = C12H12Cl3N3OPt | MND = 4
 OpenBabel04212202083D

 32 34  0  0  1  0  0  0  0  0999 V2000
    6.8838    2.3894    9.1256 N   0  0  0  0  0  0  0  0  0  0  0  0
    3.9680    1.4917    9.2923 Cl  0  0  0  0  0  0  0  0  0  0  0  0
    8.1046    2.7777    9.1182 C   0  0  2  0  0  3  0  0  0  0  0  0
    6.4189    1.9851    7.8976 O   0  0  0  0  0  0  0  0  0  0  0  0
    5.4639    1.7167    8.0605 H   0  0  0  0  0  0  0  0  0  0  0  0
    8.8706    2.7561    7.8321 C   0  0  0  0  0  0  0  0  0  0  0  0
    8.8770    1.7431    7.4309 H   0  0  0  0  0  0  0  0  0  0  0  0
    9.8888    3.1073    7.9607 H   0  0  0  0  0  0  0  0  0  0  0  0
    8.3570    3.3737    7.0957 H   0  0  0  0  0  0  0  0  0  0  0  0
    4.1412    2.2174   12.4238 Cl  0  0  0  0  0  0  0  0  0  0  0  0
    6.9665    3.0045   11.8968 N   0  0  1  0  0  0  0  0  0  0  0  0
    8.0465    4.9322   19.6374 Cl  0  0  0  0  0  0  0  0  0  0  0  0
    6.7395    3.2026   13.1925 N   0  0  0  0  0  0  0  0  0  0  0  0
    5.7840    2.9691   13.5019 H   0  0  0  0  0  0  0  0  0  0  0  0
    8.8764    3.2691   10.3056 C   0  0  0  0  0  0  0  0  0  0  0  0
    9.7653    2.6325   10.3947 H   0  0  0  0  0  0  0  0  0  0  0  0
    9.2469    4.2702   10.0528 H   0  0  0  0  0  0  0  0  0  0  0  0
    8.2252    3.3427   11.6465 C   0  0  1  0  0  3  0  0  0  0  0  0
    8.8193    3.7730   12.8376 C   0  0  0  0  0  0  0  0  0  0  0  0
    9.8278    4.1101   12.9552 H   0  0  0  0  0  0  0  0  0  0  0  0
    7.8366    3.6717   13.8188 C   0  0  0  0  0  0  0  0  0  0  0  0
    7.8806    3.9769   15.2365 C   0  0  0  0  0  0  0  0  0  0  0  0
    9.0564    4.4532   15.8200 C   0  0  0  0  0  0  0  0  0  0  0  0
    9.9374    4.5953   15.2148 H   0  0  0  0  0  0  0  0  0  0  0  0
    9.1116    4.7467   17.1673 C   0  0  0  0  0  0  0  0  0  0  0  0
   10.0238    5.1138   17.6107 H   0  0  0  0  0  0  0  0  0  0  0  0
    7.9829    4.5663   17.9535 C   0  0  0  0  0  0  0  0  0  0  0  0
    6.8041    4.0939   17.3946 C   0  0  0  0  0  0  0  0  0  0  0  0
    5.9314    3.9564   18.0132 H   0  0  0  0  0  0  0  0  0  0  0  0
    6.7553    3.8018   16.0463 C   0  0  0  0  0  0  0  0  0  0  0  0
    5.8321    3.4350   15.6258 H   0  0  0  0  0  0  0  0  0  0  0  0
    5.5749    2.3000   10.6696 Pt  0  0  0  0  0  0  0  0  0  0  0  0
  1 32  1  0  0  0  0
  2 32  1  0  0  0  0
  3  6  1  1  0  0  0
  3  1  1  0  0  0  0
  3 15  1  0  0  0  0
  4  5  1  0  0  0  0
  4  1  1  0  0  0  0
  6  8  1  0  0  0  0
  7  6  1  0  0  0  0
  9  6  1  0  0  0  0
 11 13  1  1  0  0  0
 13 14  1  0  0  0  0
 13 21  1  0  0  0  0
 15 16  1  0  0  0  0
 15 18  1  0  0  0  0
 17 15  1  0  0  0  0
 18 11  1  0  0  0  0
 18 19  1  6  0  0  0
 19 20  1  0  0  0  0
 19 21  2  0  0  0  0
 21 22  1  0  0  0  0
 22 23  2  0  0  0  0
 22 30  1  0  0  0  0
 23 25  1  0  0  0  0
 24 23  1  0  0  0  0
 25 26  1  0  0  0  0
 25 27  2  0  0  0  0
 27 12  1  0  0  0  0
 28 27  1  0  0  0  0
 28 29  1  0  0  0  0
 30 28  2  0  0  0  0
 31 30  1  0  0  0  0
 32 11  1  0  0  0  0
 32 10  1  0  0  0  0
M  END
$$$$
