CSD_code = PAHTAW | q = 0 | S = 0 | Stoichiometry = C12H12Cl2N4O3Pt | MND = 4
 OpenBabel04212202083D

 34 36  0  0  1  0  0  0  0  0999 V2000
    1.1931   -2.0463    2.7508 Pt  0  0  0  0  0  0  0  0  0  0  0  0
    1.4942    0.1735    2.3949 Cl  0  0  0  0  0  0  0  0  0  0  0  0
    0.8402   -2.3738    0.5423 Cl  0  0  0  0  0  0  0  0  0  0  0  0
    2.8310    5.1112    9.1468 O   0  0  0  0  0  0  0  0  0  0  0  0
    0.6443   -4.8181    2.0243 O   0  0  0  0  0  0  0  0  0  0  0  0
    0.6391   -4.1888    1.2411 H   0  0  0  0  0  0  0  0  0  0  0  0
    3.2494    3.8441   10.8323 O   0  0  0  0  0  0  0  0  0  0  0  0
    2.9384    4.0249    9.6739 N   0  0  0  0  0  0  0  0  0  0  0  0
    1.5006   -1.7305    4.6813 N   0  0  0  0  0  0  0  0  0  0  0  0
    1.7380   -0.5194    5.1714 N   0  0  0  0  0  0  0  0  0  0  0  0
    1.7722    0.2294    4.4593 H   0  0  0  0  0  0  0  0  0  0  0  0
    0.9265   -4.0254    3.1095 N   0  0  0  0  0  0  0  0  0  0  0  0
    1.2695   -4.0595    5.5625 C   0  0  0  0  0  0  0  0  0  0  0  0
    2.1499   -4.5793    5.9604 H   0  0  0  0  0  0  0  0  0  0  0  0
    0.4362   -4.3311    6.2219 H   0  0  0  0  0  0  0  0  0  0  0  0
    1.9049   -0.5548    6.5090 C   0  0  1  0  0  3  0  0  0  0  0  0
    1.5013   -2.5912    5.6933 C   0  0  0  0  0  0  0  0  0  0  0  0
    2.7854    1.5961    9.4320 C   0  0  0  0  0  0  0  0  0  0  0  0
    3.0672    1.5071   10.4699 H   0  0  0  0  0  0  0  0  0  0  0  0
    0.9790   -4.6611    4.2206 C   0  0  2  0  0  3  0  0  0  0  0  0
    2.1713    0.6210    7.3126 C   0  0  0  0  0  0  0  0  0  0  0  0
    2.6767    2.8613    8.8653 C   0  0  0  0  0  0  0  0  0  0  0  0
    2.5334    0.4852    8.6574 C   0  0  0  0  0  0  0  0  0  0  0  0
    2.6243   -0.4973    9.0908 H   0  0  0  0  0  0  0  0  0  0  0  0
    2.0677    1.9032    6.7600 C   0  0  0  0  0  0  0  0  0  0  0  0
    1.7816    2.0292    5.7281 H   0  0  0  0  0  0  0  0  0  0  0  0
    1.7566   -1.8905    6.8761 C   0  0  0  0  0  0  0  0  0  0  0  0
    1.8101   -2.3077    7.8600 H   0  0  0  0  0  0  0  0  0  0  0  0
    0.7395   -6.1382    4.2286 C   0  0  0  0  0  0  0  0  0  0  0  0
    1.4527   -6.6238    3.5630 H   0  0  0  0  0  0  0  0  0  0  0  0
   -0.2493   -6.3460    3.8201 H   0  0  0  0  0  0  0  0  0  0  0  0
    0.8213   -6.5578    5.2257 H   0  0  0  0  0  0  0  0  0  0  0  0
    2.3186    3.0179    7.5309 C   0  0  0  0  0  0  0  0  0  0  0  0
    2.2412    4.0128    7.1200 H   0  0  0  0  0  0  0  0  0  0  0  0
  1 12  1  0  0  0  0
  1  9  1  0  0  0  0
  2  1  1  0  0  0  0
  3  1  1  0  0  0  0
  4  8  2  0  0  0  0
  5 12  1  0  0  0  0
  6  5  1  0  0  0  0
  8  7  2  0  0  0  0
  9 10  1  0  0  0  0
  9 17  1  0  0  0  0
 10 16  1  0  0  0  0
 11 10  1  0  0  0  0
 12 20  1  0  0  0  0
 13 17  1  0  0  0  0
 13 14  1  0  0  0  0
 13 15  1  0  0  0  0
 16 27  1  0  0  0  0
 16 21  1  1  0  0  0
 17 27  2  0  0  0  0
 18 19  1  0  0  0  0
 20 29  1  6  0  0  0
 20 13  1  0  0  0  0
 21 23  1  0  0  0  0
 22 18  1  0  0  0  0
 22  8  1  0  0  0  0
 23 24  1  0  0  0  0
 23 18  2  0  0  0  0
 25 21  2  0  0  0  0
 25 33  1  0  0  0  0
 26 25  1  0  0  0  0
 27 28  1  0  0  0  0
 29 32  1  0  0  0  0
 30 29  1  0  0  0  0
 31 29  1  0  0  0  0
 33 22  2  0  0  0  0
 34 33  1  0  0  0  0
M  END
$$$$
