CSD_code = PAJDIN | q = 1 | S = 0 | Stoichiometry = C18H30BrNiOP4(1+) | MND = 5
 OpenBabel04212202083D

 55 59  0  0  0  0  0  0  0  0999 V2000
    6.0265    4.1290    7.3952 Ni  0  0  0  0  0  0  0  0  0  0  0  0
    8.1978    5.1430    7.7178 Br  0  0  0  0  0  0  0  0  0  0  0  0
    6.0895    3.5890    9.4819 P   0  0  2  0  0  4  0  0  0  0  0  0
    5.0456    6.0255    7.6591 P   0  0  1  0  0  4  0  0  0  0  0  0
    5.6885    4.5787    5.3006 P   0  0  1  0  0  0  0  0  0  0  0  0
    6.8739    2.3128    6.6353 P   0  0  1  0  0  4  0  0  0  0  0  0
    6.2033    4.9440   10.7184 C   0  0  0  0  0  0  0  0  0  0  0  0
    5.1677    6.0489   10.4830 C   0  0  0  0  0  0  0  0  0  0  0  0
    5.4439    6.8920    9.2333 C   0  0  0  0  0  0  0  0  0  0  0  0
    5.5908    7.1701    6.3105 C   0  0  0  0  0  0  0  0  0  0  0  0
    6.1827    6.3741    5.1465 C   0  0  0  0  0  0  0  0  0  0  0  0
    6.8959    3.6020    4.2486 C   0  0  0  0  0  0  0  0  0  0  0  0
    7.8123    2.7472    5.1156 C   0  0  0  0  0  0  0  0  0  0  0  0
    8.0788    1.4753    7.7428 C   0  0  0  0  0  0  0  0  0  0  0  0
    7.5233    1.1937    9.1440 C   0  0  0  0  0  0  0  0  0  0  0  0
    7.4197    2.4427   10.0261 C   0  0  0  0  0  0  0  0  0  0  0  0
    4.5638    2.7045   10.0052 C   0  0  0  0  0  0  0  0  0  0  0  0
    3.5707    2.4773    9.0473 C   0  0  0  0  0  0  0  0  0  0  0  0
    2.4127    1.8194    9.4149 C   0  0  0  0  0  0  0  0  0  0  0  0
    2.2204    1.3821   10.7150 C   0  0  0  0  0  0  0  0  0  0  0  0
    3.2032    1.5988   11.6927 C   0  0  0  0  0  0  0  0  0  0  0  0
    4.2941    2.2481   11.2370 C   0  0  0  0  0  3  0  0  0  0  0  0
    3.2271    6.0712    7.5735 C   0  0  0  0  0  0  0  0  0  0  0  0
    5.7446    0.9905    6.0893 C   0  0  0  0  0  0  0  0  0  0  0  0
    4.3018    4.3457    4.8700 O   0  0  0  0  0  0  0  0  0  0  0  0
    7.2160    5.3562   10.6649 H   0  0  0  0  0  0  0  0  0  0  0  0
    6.0607    4.4994   11.7090 H   0  0  0  0  0  0  0  0  0  0  0  0
    4.1669    5.6064   10.4224 H   0  0  0  0  0  0  0  0  0  0  0  0
    5.1767    6.7123   11.3509 H   0  0  0  0  0  0  0  0  0  0  0  0
    4.8349    7.8013    9.2547 H   0  0  0  0  0  0  0  0  0  0  0  0
    6.4979    7.1843    9.2062 H   0  0  0  0  0  0  0  0  0  0  0  0
    6.3316    7.8589    6.7269 H   0  0  0  0  0  0  0  0  0  0  0  0
    4.7170    7.7463    5.9955 H   0  0  0  0  0  0  0  0  0  0  0  0
    5.7989    6.7086    4.1802 H   0  0  0  0  0  0  0  0  0  0  0  0
    7.2713    6.4443    5.1385 H   0  0  0  0  0  0  0  0  0  0  0  0
    7.4566    4.2908    3.6141 H   0  0  0  0  0  0  0  0  0  0  0  0
    6.2568    2.9876    3.6095 H   0  0  0  0  0  0  0  0  0  0  0  0
    8.1408    1.8390    4.6027 H   0  0  0  0  0  0  0  0  0  0  0  0
    8.6976    3.3141    5.4218 H   0  0  0  0  0  0  0  0  0  0  0  0
    8.9691    2.1080    7.8129 H   0  0  0  0  0  0  0  0  0  0  0  0
    8.3610    0.5359    7.2576 H   0  0  0  0  0  0  0  0  0  0  0  0
    8.1892    0.4831    9.6387 H   0  0  0  0  0  0  0  0  0  0  0  0
    6.5389    0.7175    9.0668 H   0  0  0  0  0  0  0  0  0  0  0  0
    7.2065    2.1559   11.0611 H   0  0  0  0  0  0  0  0  0  0  0  0
    8.3620    2.9995   10.0067 H   0  0  0  0  0  0  0  0  0  0  0  0
    3.7516    2.8371    8.0302 H   0  0  0  0  0  0  0  0  0  0  0  0
    1.6434    1.6437    8.6771 H   0  0  0  0  0  0  0  0  0  0  0  0
    1.3139    0.8692   10.9992 H   0  0  0  0  0  0  0  0  0  0  0  0
    3.0660    1.2644   12.7075 H   0  0  0  0  0  0  0  0  0  0  0  0
    2.9190    5.6385    6.6208 H   0  0  0  0  0  0  0  0  0  0  0  0
    2.8879    7.1055    7.6347 H   0  0  0  0  0  0  0  0  0  0  0  0
    2.7887    5.4942    8.3879 H   0  0  0  0  0  0  0  0  0  0  0  0
    5.0092    1.4158    5.4046 H   0  0  0  0  0  0  0  0  0  0  0  0
    5.2220    0.5600    6.9437 H   0  0  0  0  0  0  0  0  0  0  0  0
    6.3130    0.2115    5.5807 H   0  0  0  0  0  0  0  0  0  0  0  0
  1  4  1  0  0  0  0
  1  2  1  0  0  0  0
  1  3  1  0  0  0  0
  3 17  1  1  0  0  0
  3 16  1  0  0  0  0
  3  7  1  0  0  0  0
  4 23  1  6  0  0  0
  4  9  1  0  0  0  0
  5 25  2  6  0  0  0
  5  1  1  0  0  0  0
  6 24  1  6  0  0  0
  6  1  1  0  0  0  0
  6 14  1  0  0  0  0
  7 27  1  0  0  0  0
  8  7  1  0  0  0  0
  8 29  1  0  0  0  0
  9 30  1  0  0  0  0
  9  8  1  0  0  0  0
 10 32  1  0  0  0  0
 10  4  1  0  0  0  0
 11  5  1  0  0  0  0
 11 10  1  0  0  0  0
 12 13  1  0  0  0  0
 12  5  1  0  0  0  0
 13 39  1  0  0  0  0
 13  6  1  0  0  0  0
 14 40  1  0  0  0  0
 14 15  1  0  0  0  0
 15 42  1  0  0  0  0
 15 16  1  0  0  0  0
 16 44  1  0  0  0  0
 17 22  1  0  0  0  0
 18 19  1  0  0  0  0
 18 17  2  0  0  0  0
 19 20  2  0  0  0  0
 20 48  1  0  0  0  0
 20 21  1  0  0  0  0
 21 49  1  0  0  0  0
 22 21  2  0  0  0  0
 23 51  1  0  0  0  0
 23 52  1  0  0  0  0
 24 54  1  0  0  0  0
 26  7  1  0  0  0  0
 28  8  1  0  0  0  0
 31  9  1  0  0  0  0
 33 10  1  0  0  0  0
 34 11  1  0  0  0  0
 35 11  1  0  0  0  0
 36 12  1  0  0  0  0
 37 12  1  0  0  0  0
 38 13  1  0  0  0  0
 41 14  1  0  0  0  0
 43 15  1  0  0  0  0
 45 16  1  0  0  0  0
 46 18  1  0  0  0  0
 47 19  1  0  0  0  0
 50 23  1  0  0  0  0
 53 24  1  0  0  0  0
 55 24  1  0  0  0  0
M  END
$$$$
