CSD_code = PAJDUB | q = 0 | S = 0 | Stoichiometry = C19H15AuClN2PS | MND = 2
 OpenBabel04212202083D

 40 43  0  0  0  0  0  0  0  0999 V2000
    1.8087   -4.7951   -2.2765 Au  0  0  0  0  0  0  0  0  0  0  0  0
    2.9449   -5.2119   -0.3624 Cl  0  0  0  0  0  0  0  0  0  0  0  0
    3.7992   -5.2056   -4.9187 S   0  0  0  0  0  0  0  0  0  0  0  0
    0.7660   -4.4220   -4.2239 P   0  0  0  0  0  4  0  0  0  0  0  0
    1.6470   -3.5587   -5.3318 N   0  0  0  0  0  0  0  0  0  0  0  0
    3.6472   -3.1174   -6.4039 N   0  0  0  0  0  0  0  0  0  0  0  0
    3.2754   -2.2982   -6.8603 H   0  0  0  0  0  0  0  0  0  0  0  0
    2.8750   -3.8476   -5.5699 C   0  0  0  0  0  0  0  0  0  0  0  0
    4.9522   -3.5363   -6.5484 C   0  0  0  0  0  0  0  0  0  0  0  0
    5.2267   -4.6845   -5.7993 C   0  0  0  0  0  0  0  0  0  0  0  0
    6.4838   -5.2591   -5.8055 C   0  0  0  0  0  0  0  0  0  0  0  0
    6.6832   -6.1408   -5.2188 H   0  0  0  0  0  0  0  0  0  0  0  0
    7.4680   -4.6677   -6.5788 C   0  0  0  0  0  0  0  0  0  0  0  0
    8.4564   -5.0987   -6.5985 H   0  0  0  0  0  0  0  0  0  0  0  0
    7.1999   -3.5273   -7.3257 C   0  0  0  0  0  0  0  0  0  0  0  0
    7.9835   -3.0823   -7.9189 H   0  0  0  0  0  0  0  0  0  0  0  0
    5.9429   -2.9489   -7.3195 C   0  0  0  0  0  0  0  0  0  0  0  0
    5.7325   -2.0608   -7.8949 H   0  0  0  0  0  0  0  0  0  0  0  0
   -0.7747   -3.4865   -4.1989 C   0  0  0  0  0  0  0  0  0  0  0  0
   -0.9128   -2.2447   -4.8033 C   0  0  0  0  0  0  0  0  0  0  0  0
   -0.0782   -1.8258   -5.3454 H   0  0  0  0  0  0  0  0  0  0  0  0
   -2.1160   -1.5685   -4.7043 C   0  0  0  0  0  0  0  0  0  0  0  0
   -2.2309   -0.6034   -5.1763 H   0  0  0  0  0  0  0  0  0  0  0  0
   -3.1713   -2.1235   -3.9993 C   0  0  0  0  0  0  0  0  0  0  0  0
   -4.1078   -1.5908   -3.9240 H   0  0  0  0  0  0  0  0  0  0  0  0
   -3.0285   -3.3583   -3.3838 C   0  0  0  0  0  0  0  0  0  0  0  0
   -3.8508   -3.7848   -2.8286 H   0  0  0  0  0  0  0  0  0  0  0  0
   -1.8298   -4.0378   -3.4776 C   0  0  0  0  0  0  0  0  0  0  0  0
   -1.6949   -4.9993   -2.9971 H   0  0  0  0  0  0  0  0  0  0  0  0
    0.3017   -5.9389   -5.1134 C   0  0  0  0  0  0  0  0  0  0  0  0
    0.6778   -7.1793   -4.6174 C   0  0  0  0  0  0  0  0  0  0  0  0
    1.2201   -7.2358   -3.6815 H   0  0  0  0  0  0  0  0  0  0  0  0
    0.3512   -8.3255   -5.3208 C   0  0  0  0  0  0  0  0  0  0  0  0
    0.6391   -9.2927   -4.9365 H   0  0  0  0  0  0  0  0  0  0  0  0
   -0.3439   -8.2301   -6.5151 C   0  0  0  0  0  0  0  0  0  0  0  0
   -0.5992   -9.1257   -7.0620 H   0  0  0  0  0  0  0  0  0  0  0  0
   -0.7142   -6.9894   -7.0126 C   0  0  0  0  0  0  0  0  0  0  0  0
   -1.2556   -6.9203   -7.9448 H   0  0  0  0  0  0  0  0  0  0  0  0
   -0.3921   -5.8410   -6.3152 C   0  0  0  0  0  0  0  0  0  0  0  0
   -0.6713   -4.8642   -6.6869 H   0  0  0  0  0  0  0  0  0  0  0  0
  1  2  1  0  0  0  0
  4 19  1  0  0  0  0
  4  1  1  0  0  0  0
  5  4  1  0  0  0  0
  6  8  1  0  0  0  0
  7  6  1  0  0  0  0
  8  5  2  0  0  0  0
  8  3  1  0  0  0  0
  9  6  1  0  0  0  0
  9 10  1  0  0  0  0
 10  3  1  0  0  0  0
 11 10  2  0  0  0  0
 11 12  1  0  0  0  0
 13 11  1  0  0  0  0
 14 13  1  0  0  0  0
 15 17  1  0  0  0  0
 15 13  2  0  0  0  0
 16 15  1  0  0  0  0
 17  9  2  0  0  0  0
 18 17  1  0  0  0  0
 19 28  1  0  0  0  0
 20 22  1  0  0  0  0
 20 19  2  0  0  0  0
 21 20  1  0  0  0  0
 22 24  2  0  0  0  0
 23 22  1  0  0  0  0
 24 25  1  0  0  0  0
 24 26  1  0  0  0  0
 26 27  1  0  0  0  0
 28 26  2  0  0  0  0
 28 29  1  0  0  0  0
 30 31  1  0  0  0  0
 30  4  1  0  0  0  0
 31 32  1  0  0  0  0
 33 34  1  0  0  0  0
 33 31  2  0  0  0  0
 35 33  1  0  0  0  0
 36 35  1  0  0  0  0
 37 35  2  0  0  0  0
 37 39  1  0  0  0  0
 38 37  1  0  0  0  0
 39 30  2  0  0  0  0
 40 39  1  0  0  0  0
M  END
$$$$
