CSD_code = PAJDOV | q = 0 | S = 0 | Stoichiometry = C15H13AuClN2PS | MND = 2
 OpenBabel04212202083D

 34 36  0  0  0  0  0  0  0  0999 V2000
   -0.8604    6.8794   12.1777 Au  0  0  0  0  0  0  0  0  0  0  0  0
   -1.9804    7.8545   13.8556 P   0  0  0  0  0  4  0  0  0  0  0  0
    0.2035    5.8061   10.4907 Cl  0  0  0  0  0  0  0  0  0  0  0  0
   -3.6283    7.8456   13.6838 N   0  0  0  0  0  0  0  0  0  0  0  0
   -5.5810    6.7354   13.1150 N   0  0  0  0  0  0  0  0  0  0  0  0
   -6.1357    7.5744   13.1867 H   0  0  0  0  0  0  0  0  0  0  0  0
   -4.2494    6.7710   13.3456 C   0  0  0  0  0  0  0  0  0  0  0  0
   -6.0897    5.5119   12.7529 C   0  0  0  0  0  0  0  0  0  0  0  0
   -7.1381    5.4176   12.5415 H   0  0  0  0  0  0  0  0  0  0  0  0
   -5.1652    4.5447   12.7084 C   0  0  0  0  0  0  0  0  0  0  0  0
   -5.2891    3.5136   12.4534 H   0  0  0  0  0  0  0  0  0  0  0  0
   -1.6730    9.5999   14.1826 C   0  0  0  0  0  0  0  0  0  0  0  0
   -2.6185   10.5839   13.9283 C   0  0  0  0  0  0  0  0  0  0  0  0
   -3.5945   10.2963   13.5668 H   0  0  0  0  0  0  0  0  0  0  0  0
   -2.2971   11.9117   14.1480 C   0  0  0  0  0  0  0  0  0  0  0  0
   -3.0303   12.6816   13.9559 H   0  0  0  0  0  0  0  0  0  0  0  0
   -1.0368   12.2564   14.6082 C   0  0  0  0  0  0  0  0  0  0  0  0
   -0.7900   13.2943   14.7764 H   0  0  0  0  0  0  0  0  0  0  0  0
   -0.0869   11.2741   14.8471 C   0  0  0  0  0  0  0  0  0  0  0  0
    0.8971   11.5470   15.1990 H   0  0  0  0  0  0  0  0  0  0  0  0
   -0.4008    9.9469   14.6287 C   0  0  0  0  0  0  0  0  0  0  0  0
    0.3296    9.1660   14.8021 H   0  0  0  0  0  0  0  0  0  0  0  0
   -1.6983    7.0763   15.4750 C   0  0  0  0  0  0  0  0  0  0  0  0
   -0.9365    5.9198   15.5679 C   0  0  0  0  0  0  0  0  0  0  0  0
   -0.4795    5.5113   14.6751 H   0  0  0  0  0  0  0  0  0  0  0  0
   -0.7665    5.3084   16.7978 C   0  0  0  0  0  0  0  0  0  0  0  0
   -0.1722    4.4101   16.8744 H   0  0  0  0  0  0  0  0  0  0  0  0
   -1.3590    5.8491   17.9270 C   0  0  0  0  0  0  0  0  0  0  0  0
   -1.2249    5.3709   18.8859 H   0  0  0  0  0  0  0  0  0  0  0  0
   -2.1243    7.0021   17.8321 C   0  0  0  0  0  0  0  0  0  0  0  0
   -2.5842    7.4199   18.7157 H   0  0  0  0  0  0  0  0  0  0  0  0
   -2.2977    7.6178   16.6076 C   0  0  0  0  0  0  0  0  0  0  0  0
   -2.8918    8.5168   16.5125 H   0  0  0  0  0  0  0  0  0  0  0  0
   -3.5856    5.1542   13.1234 S   0  0  0  0  0  0  0  0  0  0  0  0
  1  2  1  0  0  0  0
  2 12  1  0  0  0  0
  2 23  1  0  0  0  0
  3  1  1  0  0  0  0
  4  2  1  0  0  0  0
  5  6  1  0  0  0  0
  5  7  1  0  0  0  0
  7  4  2  0  0  0  0
  8  5  1  0  0  0  0
  9  8  1  0  0  0  0
 10  8  2  0  0  0  0
 10 34  1  0  0  0  0
 11 10  1  0  0  0  0
 12 21  1  0  0  0  0
 13 15  1  0  0  0  0
 13 12  2  0  0  0  0
 14 13  1  0  0  0  0
 15 17  2  0  0  0  0
 16 15  1  0  0  0  0
 17 18  1  0  0  0  0
 17 19  1  0  0  0  0
 19 20  1  0  0  0  0
 21 22  1  0  0  0  0
 21 19  2  0  0  0  0
 23 24  2  0  0  0  0
 23 32  1  0  0  0  0
 24 26  1  0  0  0  0
 25 24  1  0  0  0  0
 26 27  1  0  0  0  0
 26 28  2  0  0  0  0
 28 29  1  0  0  0  0
 30 28  1  0  0  0  0
 30 31  1  0  0  0  0
 32 30  2  0  0  0  0
 33 32  1  0  0  0  0
 34  7  1  0  0  0  0
M  END
$$$$
