CSD_code = PAJPAT | q = 0 | S = 0 | Stoichiometry = C23H27Br2N3NiO | MND = 5
 OpenBabel04212202083D

 57 60  0  0  1  0  0  0  0  0999 V2000
    8.5638   12.5710   10.7571 Ni  0  0  0  0  0  0  0  0  0  0  0  0
    8.3752   12.9202   13.0841 Br  0  0  0  0  0  0  0  0  0  0  0  0
    8.0003   11.5356    8.6964 Br  0  0  0  0  0  0  0  0  0  0  0  0
    7.4372   14.0470   10.3353 O   0  0  0  0  0  0  0  0  0  0  0  0
    9.7685   11.2885   11.0288 N   0  0  0  0  0  0  0  0  0  0  0  0
   10.4295   13.7589   10.3280 N   0  0  0  0  0  0  0  0  0  0  0  0
    7.0489   16.2381   10.0379 N   0  0  0  0  0  0  0  0  0  0  0  0
   10.5579   15.1231   10.0406 C   0  0  0  0  0  0  0  0  0  0  0  0
   11.4031   12.9418   10.4600 C   0  0  1  0  0  3  0  0  0  0  0  0
   10.8334   16.0342   11.0679 C   0  0  0  0  0  0  0  0  0  0  0  0
    7.4489   15.2011   10.7583 C   0  0  0  0  0  3  0  0  0  0  0  0
    7.7762   15.4541   11.7760 H   0  0  0  0  0  0  0  0  0  0  0  0
   10.2758   15.5745    8.7458 C   0  0  0  0  0  0  0  0  0  0  0  0
   11.1396   15.5598   12.4558 C   0  0  0  0  0  0  0  0  0  0  0  0
   10.4409   14.7873   12.7711 H   0  0  0  0  0  0  0  0  0  0  0  0
   11.0842   16.3851   13.1610 H   0  0  0  0  0  0  0  0  0  0  0  0
   12.1442   15.1384   12.5063 H   0  0  0  0  0  0  0  0  0  0  0  0
   10.0001   14.5887    7.6563 C   0  0  0  0  0  0  0  0  0  0  0  0
    9.6990   15.0912    6.7410 H   0  0  0  0  0  0  0  0  0  0  0  0
    9.2102   13.9020    7.9559 H   0  0  0  0  0  0  0  0  0  0  0  0
   10.8850   13.9875    7.4454 H   0  0  0  0  0  0  0  0  0  0  0  0
    8.0159    9.7699   11.6261 C   0  0  0  0  0  0  0  0  0  0  0  0
    7.2852   10.5647   11.4782 H   0  0  0  0  0  0  0  0  0  0  0  0
   11.0577   11.5675   10.8405 C   0  0  0  0  0  0  0  0  0  0  0  0
    9.3828   10.0463   11.4143 C   0  0  1  0  0  3  0  0  0  0  0  0
   12.0470   10.5790   11.0226 C   0  0  0  0  0  0  0  0  0  0  0  0
   13.0817   10.8313   10.8620 H   0  0  0  0  0  0  0  0  0  0  0  0
    9.8832    7.7348   12.0016 C   0  0  0  0  0  0  0  0  0  0  0  0
   10.6151    6.9535   12.1445 H   0  0  0  0  0  0  0  0  0  0  0  0
   11.6923    9.3160   11.3979 C   0  0  0  0  0  0  0  0  0  0  0  0
   12.4372    8.5470   11.5372 H   0  0  0  0  0  0  0  0  0  0  0  0
   12.8377   13.3143   10.2467 C   0  0  0  0  0  0  0  0  0  0  0  0
   12.9066   14.3581    9.9461 H   0  0  0  0  0  0  0  0  0  0  0  0
   13.2743   12.6940    9.4652 H   0  0  0  0  0  0  0  0  0  0  0  0
   13.4099   13.1706   11.1622 H   0  0  0  0  0  0  0  0  0  0  0  0
    7.6125    8.5207   12.0071 C   0  0  0  0  0  0  0  0  0  0  0  0
    6.5643    8.3188   12.1646 H   0  0  0  0  0  0  0  0  0  0  0  0
    8.5506    7.4947   12.1943 C   0  0  0  0  0  0  0  0  0  0  0  0
    8.2123    6.5138   12.4920 H   0  0  0  0  0  0  0  0  0  0  0  0
    6.6154   16.0656    8.6704 C   0  0  0  0  0  0  0  0  0  0  0  0
    6.6556   15.0074    8.4202 H   0  0  0  0  0  0  0  0  0  0  0  0
    7.2731   16.6211    8.0003 H   0  0  0  0  0  0  0  0  0  0  0  0
    5.5926   16.4260    8.5511 H   0  0  0  0  0  0  0  0  0  0  0  0
   10.3327    9.0098   11.6102 C   0  0  0  0  0  0  0  0  0  0  0  0
   10.5258   17.8609    9.5029 C   0  0  0  0  0  0  0  0  0  0  0  0
   10.2692   16.9379    8.4997 C   0  0  0  0  0  0  0  0  0  0  0  0
   10.0607   17.2847    7.4967 H   0  0  0  0  0  0  0  0  0  0  0  0
   10.8060   17.3892   10.7772 C   0  0  0  0  0  0  0  0  0  0  0  0
   11.0124   18.0949   11.5695 H   0  0  0  0  0  0  0  0  0  0  0  0
    7.0630   17.5832   10.5468 C   0  0  0  0  0  0  0  0  0  0  0  0
    7.4443   17.5914   11.5654 H   0  0  0  0  0  0  0  0  0  0  0  0
    6.0531   18.0001   10.5397 H   0  0  0  0  0  0  0  0  0  0  0  0
    7.7060   18.2079    9.9237 H   0  0  0  0  0  0  0  0  0  0  0  0
   10.5234   19.3335    9.2177 C   0  0  0  0  0  0  0  0  0  0  0  0
    9.9416   19.5584    8.3262 H   0  0  0  0  0  0  0  0  0  0  0  0
   11.5429   19.6820    9.0497 H   0  0  0  0  0  0  0  0  0  0  0  0
   10.1160   19.8923   10.0585 H   0  0  0  0  0  0  0  0  0  0  0  0
  1  5  1  0  0  0  0
  1  2  1  0  0  0  0
  3  1  1  0  0  0  0
  4  1  1  0  0  0  0
  4 11  1  0  0  0  0
  5 25  1  0  0  0  0
  6  9  1  0  0  0  0
  6  1  1  0  0  0  0
  7 50  1  0  0  0  0
  7 11  1  0  0  0  0
  8  6  1  0  0  0  0
  8 10  1  0  0  0  0
  9 32  1  6  0  0  0
  9 24  1  0  0  0  0
 10 14  1  0  0  0  0
 11 12  1  0  0  0  0
 13  8  2  0  0  0  0
 14 17  1  0  0  0  0
 14 15  1  0  0  0  0
 14 16  1  0  0  0  0
 18 20  1  0  0  0  0
 18 13  1  0  0  0  0
 19 18  1  0  0  0  0
 21 18  1  0  0  0  0
 22 36  2  0  0  0  0
 23 22  1  0  0  0  0
 24 26  2  0  0  0  0
 24  5  1  0  0  0  0
 25 44  1  6  0  0  0
 25 22  1  0  0  0  0
 26 30  1  0  0  0  0
 27 26  1  0  0  0  0
 28 29  1  0  0  0  0
 28 38  2  0  0  0  0
 30 31  1  0  0  0  0
 30 44  2  0  0  0  0
 32 35  1  0  0  0  0
 33 32  1  0  0  0  0
 34 32  1  0  0  0  0
 36 37  1  0  0  0  0
 36 38  1  0  0  0  0
 38 39  1  0  0  0  0
 40  7  1  0  0  0  0
 41 40  1  0  0  0  0
 42 40  1  0  0  0  0
 43 40  1  0  0  0  0
 44 28  1  0  0  0  0
 45 48  1  0  0  0  0
 46 13  1  0  0  0  0
 46 45  2  0  0  0  0
 47 46  1  0  0  0  0
 48 10  2  0  0  0  0
 48 49  1  0  0  0  0
 50 51  1  0  0  0  0
 52 50  1  0  0  0  0
 53 50  1  0  0  0  0
 54 45  1  0  0  0  0
 54 57  1  0  0  0  0
 55 54  1  0  0  0  0
 56 54  1  0  0  0  0
M  END
$$$$
