CSD_code = PAJQAS | q = 0 | S = 0 | Stoichiometry = C13H23IN2OPd | MND = 4
 OpenBabel04212202083D

 41 42  0  0  0  0  0  0  0  0999 V2000
    6.0181    0.2054    2.6174 Pd  0  0  0  0  0  0  0  0  0  0  0  0
    6.7917    2.4311    1.6733 I   0  0  0  0  0  0  0  0  0  0  0  0
   10.7034   -0.1664    6.5216 O   0  0  0  0  0  0  0  0  0  0  0  0
    5.3315   -1.7608    3.3588 N   0  0  0  0  0  4  0  0  0  0  0  0
    4.1429   -0.0025    1.3288 N   0  0  0  0  0  4  0  0  0  0  0  0
    7.5542    0.2471    3.8574 C   0  0  0  0  0  0  0  0  0  0  0  0
    8.7429   -0.3665    3.4863 C   0  0  0  0  0  0  0  0  0  0  0  0
    9.7709   -0.4898    4.4016 C   0  0  0  0  0  0  0  0  0  0  0  0
    9.6284    0.0172    5.6934 C   0  0  0  0  0  0  0  0  0  0  0  0
    8.4496    0.6594    6.0519 C   0  0  0  0  0  0  0  0  0  0  0  0
    7.4191    0.7763    5.1278 C   0  0  0  0  0  0  0  0  0  0  0  0
   10.6674    0.4138    7.8003 C   0  0  0  0  0  0  0  0  0  0  0  0
    5.4479   -2.0345    4.7880 C   0  0  0  0  0  0  0  0  0  0  0  0
    6.1655   -2.7055    2.6164 C   0  0  0  0  0  0  0  0  0  0  0  0
    4.2029    0.2874   -0.1007 C   0  0  0  0  0  0  0  0  0  0  0  0
    3.2838    0.9807    1.9918 C   0  0  0  0  0  0  0  0  0  0  0  0
    3.9239   -1.8721    2.9623 C   0  0  0  0  0  0  0  0  0  0  0  0
    3.6522   -1.3642    1.5425 C   0  0  0  0  0  0  0  0  0  0  0  0
    8.8802   -0.7314    2.4692 H   0  0  0  0  0  0  0  0  0  0  0  0
   10.7036   -0.9632    4.1358 H   0  0  0  0  0  0  0  0  0  0  0  0
    8.3211    1.0825    7.0364 H   0  0  0  0  0  0  0  0  0  0  0  0
    6.5104    1.3047    5.4107 H   0  0  0  0  0  0  0  0  0  0  0  0
   11.6323    0.1906    8.2532 H   0  0  0  0  0  0  0  0  0  0  0  0
   10.5361    1.4994    7.7463 H   0  0  0  0  0  0  0  0  0  0  0  0
    9.8719   -0.0176    8.4186 H   0  0  0  0  0  0  0  0  0  0  0  0
    5.0733   -3.0399    5.0285 H   0  0  0  0  0  0  0  0  0  0  0  0
    6.4913   -1.9635    5.0945 H   0  0  0  0  0  0  0  0  0  0  0  0
    4.8746   -1.3006    5.3563 H   0  0  0  0  0  0  0  0  0  0  0  0
    5.7796   -3.7322    2.7073 H   0  0  0  0  0  0  0  0  0  0  0  0
    6.2069   -2.4345    1.5576 H   0  0  0  0  0  0  0  0  0  0  0  0
    7.1808   -2.6783    3.0155 H   0  0  0  0  0  0  0  0  0  0  0  0
    4.8896   -0.4041   -0.5924 H   0  0  0  0  0  0  0  0  0  0  0  0
    3.2126    0.1996   -0.5695 H   0  0  0  0  0  0  0  0  0  0  0  0
    4.5763    1.2997   -0.2522 H   0  0  0  0  0  0  0  0  0  0  0  0
    3.6154    1.9863    1.7252 H   0  0  0  0  0  0  0  0  0  0  0  0
    2.2325    0.8647    1.6874 H   0  0  0  0  0  0  0  0  0  0  0  0
    3.3515    0.8798    3.0823 H   0  0  0  0  0  0  0  0  0  0  0  0
    3.5919   -2.9231    3.0271 H   0  0  0  0  0  0  0  0  0  0  0  0
    3.3262   -1.2936    3.6742 H   0  0  0  0  0  0  0  0  0  0  0  0
    2.5654   -1.4230    1.3554 H   0  0  0  0  0  0  0  0  0  0  0  0
    4.1432   -2.0249    0.8210 H   0  0  0  0  0  0  0  0  0  0  0  0
  1  4  1  0  0  0  0
  1  6  1  0  0  0  0
  2  1  1  0  0  0  0
  3 12  1  0  0  0  0
  4 13  1  0  0  0  0
  5 18  1  0  0  0  0
  5 16  1  0  0  0  0
  5  1  1  0  0  0  0
  6 11  1  0  0  0  0
  7  6  2  0  0  0  0
  7  8  1  0  0  0  0
  8  9  2  0  0  0  0
  9 10  1  0  0  0  0
  9  3  1  0  0  0  0
 10 21  1  0  0  0  0
 11 22  1  0  0  0  0
 11 10  2  0  0  0  0
 12 23  1  0  0  0  0
 12 25  1  0  0  0  0
 13 26  1  0  0  0  0
 13 27  1  0  0  0  0
 13 28  1  0  0  0  0
 14 29  1  0  0  0  0
 14 31  1  0  0  0  0
 14  4  1  0  0  0  0
 15  5  1  0  0  0  0
 16 37  1  0  0  0  0
 17 38  1  0  0  0  0
 17  4  1  0  0  0  0
 17 39  1  0  0  0  0
 18 17  1  0  0  0  0
 19  7  1  0  0  0  0
 20  8  1  0  0  0  0
 24 12  1  0  0  0  0
 30 14  1  0  0  0  0
 32 15  1  0  0  0  0
 33 15  1  0  0  0  0
 34 15  1  0  0  0  0
 35 16  1  0  0  0  0
 36 16  1  0  0  0  0
 40 18  1  0  0  0  0
 41 18  1  0  0  0  0
M  END
$$$$
