CSD_code = PAJYEE | q = 1 | S = 0 | Stoichiometry = C26H20ClN3PPd(1+) | MND = 4
 OpenBabel04212202083D

 52 58  0  0  0  0  0  0  0  0999 V2000
    8.3554   18.9332    0.9861 Pd  0  0  2  0  0  0  0  0  0  0  0  0
    9.2719   17.3455   -0.2556 Cl  0  0  0  0  0  0  0  0  0  0  0  0
    9.7211   18.7398    2.7265 P   0  0  0  0  0  4  0  0  0  0  0  0
    7.4764   20.3333    2.0631 N   0  0  0  0  0  0  0  0  0  0  0  0
    6.9400   19.5357   -0.3782 N   0  0  0  0  0  0  0  0  0  0  0  0
    8.9128   19.8502    3.7689 N   0  0  0  0  0  0  0  0  0  0  0  0
    9.2974   20.0834    4.6761 H   0  0  0  0  0  0  0  0  0  0  0  0
    7.5980   21.9540    5.3855 C   0  0  0  0  0  0  0  0  0  0  0  0
    8.4179   21.4458    5.8704 H   0  0  0  0  0  0  0  0  0  0  0  0
    6.9223   22.9335    6.0665 C   0  0  0  0  0  0  0  0  0  0  0  0
    7.2133   23.1867    7.0739 H   0  0  0  0  0  0  0  0  0  0  0  0
    5.8539   23.6116    5.4660 C   0  0  0  0  0  0  0  0  0  0  0  0
    5.3352   24.3794    6.0182 H   0  0  0  0  0  0  0  0  0  0  0  0
    5.4703   23.3023    4.1883 C   0  0  0  0  0  0  0  0  0  0  0  0
    4.6479   23.8204    3.7197 H   0  0  0  0  0  0  0  0  0  0  0  0
    6.1410   22.3006    3.4613 C   0  0  0  0  0  0  0  0  0  0  0  0
    7.2266   21.6135    4.0714 C   0  0  0  0  0  0  0  0  0  0  0  0
    5.7561   21.9595    2.1435 C   0  0  0  0  0  0  0  0  0  0  0  0
    4.9288   22.4837    1.6960 H   0  0  0  0  0  0  0  0  0  0  0  0
    6.4323   20.9772    1.4678 C   0  0  0  0  0  0  0  0  0  0  0  0
    7.8748   20.6044    3.2949 C   0  0  0  0  0  0  0  0  0  0  0  0
    6.1391   20.5140    0.1018 C   0  0  0  0  0  0  0  0  0  0  0  0
    5.1047   21.0240   -0.6799 C   0  0  0  0  0  0  0  0  0  0  0  0
    4.4656   21.8019   -0.2969 H   0  0  0  0  0  0  0  0  0  0  0  0
    4.9008   20.5213   -1.9543 C   0  0  0  0  0  0  0  0  0  0  0  0
    4.1019   20.9074   -2.5680 H   0  0  0  0  0  0  0  0  0  0  0  0
    5.7341   19.5184   -2.4256 C   0  0  0  0  0  0  0  0  0  0  0  0
    5.6066   19.1011   -3.4107 H   0  0  0  0  0  0  0  0  0  0  0  0
    6.7455   19.0528   -1.5997 C   0  0  0  0  0  0  0  0  0  0  0  0
    7.4251   18.2684   -1.9167 H   0  0  0  0  0  0  0  0  0  0  0  0
   10.1509   17.3757    3.8214 C   0  0  0  0  0  0  0  0  0  0  0  0
    9.4180   17.0859    4.9688 C   0  0  0  0  0  0  0  0  0  0  0  0
    9.7661   15.9915    5.7404 C   0  0  0  0  0  0  0  0  0  0  0  0
   10.8234   15.1793    5.3609 C   0  0  0  0  0  0  0  0  0  0  0  0
   11.5349   15.4517    4.2017 C   0  0  0  0  0  0  0  0  0  0  0  0
   11.1982   16.5446    3.4259 C   0  0  0  0  0  0  0  0  0  0  0  0
    8.5790   17.7074    5.2504 H   0  0  0  0  0  0  0  0  0  0  0  0
    9.2066   15.7669    6.6357 H   0  0  0  0  0  0  0  0  0  0  0  0
   11.0872   14.3253    5.9653 H   0  0  0  0  0  0  0  0  0  0  0  0
   12.3476   14.8090    3.9020 H   0  0  0  0  0  0  0  0  0  0  0  0
   11.7341   16.7636    2.5124 H   0  0  0  0  0  0  0  0  0  0  0  0
   11.2732   19.5981    2.3285 C   0  0  0  0  0  0  0  0  0  0  0  0
   12.3431   19.6717    3.2152 C   0  0  0  0  0  0  0  0  0  0  0  0
   13.4801   20.3737    2.8564 C   0  0  0  0  0  0  0  0  0  0  0  0
   13.5516   20.9984    1.6208 C   0  0  0  0  0  0  0  0  0  0  0  0
   12.4857   20.9281    0.7362 C   0  0  0  0  0  0  0  0  0  0  0  0
   11.3441   20.2306    1.0873 C   0  0  0  0  0  0  0  0  0  0  0  0
   12.2877   19.1707    4.1717 H   0  0  0  0  0  0  0  0  0  0  0  0
   14.3143   20.4290    3.5386 H   0  0  0  0  0  0  0  0  0  0  0  0
   14.4442   21.5373    1.3432 H   0  0  0  0  0  0  0  0  0  0  0  0
   12.5507   21.4098   -0.2271 H   0  0  0  0  0  0  0  0  0  0  0  0
   10.4994   20.1484    0.3872 H   0  0  0  0  0  0  0  0  0  0  0  0
  1  2  1  1  0  0  0
  1  4  1  0  0  0  0
  1  3  1  0  0  0  0
  3  6  1  0  0  0  0
  3 31  1  0  0  0  0
  4 21  1  0  0  0  0
  5 22  1  0  0  0  0
  5  1  1  0  0  0  0
  6  7  1  0  0  0  0
  8  9  1  0  0  0  0
  8 10  2  0  0  0  0
 10 11  1  0  0  0  0
 12 13  1  0  0  0  0
 12 10  1  0  0  0  0
 14 12  2  0  0  0  0
 15 14  1  0  0  0  0
 16 17  1  0  0  0  0
 16 14  1  0  0  0  0
 17  8  1  0  0  0  0
 18 16  2  0  0  0  0
 19 18  1  0  0  0  0
 20  4  1  0  0  0  0
 20 18  1  0  0  0  0
 21  6  1  0  0  0  0
 21 17  2  0  0  0  0
 22 20  2  0  0  0  0
 23 24  1  0  0  0  0
 23 22  1  0  0  0  0
 25 23  2  0  0  0  0
 26 25  1  0  0  0  0
 27 25  1  0  0  0  0
 27 29  2  0  0  0  0
 28 27  1  0  0  0  0
 29  5  1  0  0  0  0
 30 29  1  0  0  0  0
 31 32  1  0  0  0  0
 32 37  1  0  0  0  0
 32 33  2  0  0  0  0
 33 38  1  0  0  0  0
 34 33  1  0  0  0  0
 34 39  1  0  0  0  0
 35 34  2  0  0  0  0
 36 31  2  0  0  0  0
 36 35  1  0  0  0  0
 40 35  1  0  0  0  0
 41 36  1  0  0  0  0
 42  3  1  0  0  0  0
 42 43  1  0  0  0  0
 43 48  1  0  0  0  0
 44 43  2  0  0  0  0
 44 49  1  0  0  0  0
 45 44  1  0  0  0  0
 46 47  1  0  0  0  0
 46 45  2  0  0  0  0
 47 42  2  0  0  0  0
 50 45  1  0  0  0  0
 51 46  1  0  0  0  0
 52 47  1  0  0  0  0
M  END
$$$$
