CSD_code = PAKFUD | q = 0 | S = 0 | Stoichiometry = C12H16Cl2N6ORuS | MND = 6
 OpenBabel04212202083D

 39 43  0  0  1  0  0  0  0  0999 V2000
    5.9065    0.7878    2.6856 Ru  0  0  0  0  0  0  0  0  0  0  0  0
    7.7802   -0.6094    2.7047 Cl  0  0  0  0  0  0  0  0  0  0  0  0
    4.5831   -0.6664    1.4302 Cl  0  0  0  0  0  0  0  0  0  0  0  0
    6.7535    1.5757    0.7248 S   0  0  0  0  0  0  0  0  0  0  0  0
    6.0580    2.7504    0.2090 O   0  0  0  0  0  1  0  0  0  0  0  0
    8.5291    1.9955    0.7089 C   0  0  0  0  0  0  0  0  0  0  0  0
    8.6608    2.9042    1.2865 H   0  0  0  0  0  0  0  0  0  0  0  0
    8.8361    2.1621   -0.3168 H   0  0  0  0  0  0  0  0  0  0  0  0
    9.0580    1.1590    1.1533 H   0  0  0  0  0  0  0  0  0  0  0  0
    6.8205    0.3382   -0.5944 C   0  0  0  0  0  0  0  0  0  0  0  0
    5.8103   -0.0226   -0.7607 H   0  0  0  0  0  0  0  0  0  0  0  0
    7.4440   -0.4709   -0.2283 H   0  0  0  0  0  0  0  0  0  0  0  0
    7.2240    0.7992   -1.4883 H   0  0  0  0  0  0  0  0  0  0  0  0
    3.5315    2.5105    1.8107 C   0  0  0  0  0  3  0  0  0  0  0  0
    3.6212    2.2090    0.7857 H   0  0  0  0  0  0  0  0  0  0  0  0
    4.3643    2.0495    2.7180 N   0  0  1  0  0  0  0  0  0  0  0  0
    6.8643    2.0370    3.9480 N   0  0  1  0  0  0  0  0  0  0  0  0
    5.1280   -0.0078    4.3437 N   0  0  1  0  0  0  0  0  0  0  0  0
    4.0165    2.6040    3.8926 N   0  0  0  0  0  0  0  0  0  0  0  0
    4.6313    0.8113    5.2865 N   0  0  0  0  0  0  0  0  0  0  0  0
    6.1322    2.5825    4.9398 N   0  0  0  0  0  0  0  0  0  0  0  0
    2.6143    3.3914    2.4079 C   0  0  0  0  0  0  0  0  0  0  0  0
    1.8211    3.9199    1.9221 H   0  0  0  0  0  0  0  0  0  0  0  0
    2.9444    3.4293    3.7355 C   0  0  0  0  0  0  0  0  0  0  0  0
    2.5196    3.9618    4.5619 H   0  0  0  0  0  0  0  0  0  0  0  0
    8.1139    2.4050    4.1563 C   0  0  0  0  0  3  0  0  0  0  0  0
    8.8992    2.0579    3.5155 H   0  0  0  0  0  0  0  0  0  0  0  0
    8.1998    3.2079    5.3041 C   0  0  0  0  0  0  0  0  0  0  0  0
    9.0824    3.6510    5.7153 H   0  0  0  0  0  0  0  0  0  0  0  0
    6.9221    3.2986    5.7863 C   0  0  0  0  0  0  0  0  0  0  0  0
    6.5176    3.8048    6.6387 H   0  0  0  0  0  0  0  0  0  0  0  0
    4.9180   -1.2434    4.7471 C   0  0  0  0  0  3  0  0  0  0  0  0
    5.2332   -2.0734    4.1421 H   0  0  0  0  0  0  0  0  0  0  0  0
    4.2671   -1.2297    5.9916 C   0  0  0  0  0  0  0  0  0  0  0  0
    3.9657   -2.0785    6.5689 H   0  0  0  0  0  0  0  0  0  0  0  0
    4.0983    0.0916    6.3105 C   0  0  0  0  0  0  0  0  0  0  0  0
    3.6539    0.5673    7.1608 H   0  0  0  0  0  0  0  0  0  0  0  0
    4.7384    2.2367    5.0806 C   0  0  1  0  0  0  0  0  0  0  0  0
    4.3184    2.7658    5.9451 H   0  0  0  0  0  0  0  0  0  0  0  0
  1  2  1  0  0  0  0
  1 16  1  0  0  0  0
  1 17  1  0  0  0  0
  1 18  1  0  0  0  0
  3  1  1  0  0  0  0
  4  1  1  0  0  0  0
  5  4  1  0  0  0  0
  6  4  1  0  0  0  0
  6  9  1  0  0  0  0
  6  7  1  0  0  0  0
  8  6  1  0  0  0  0
 10 12  1  0  0  0  0
 10  4  1  0  0  0  0
 11 10  1  0  0  0  0
 13 10  1  0  0  0  0
 14 22  1  0  0  0  0
 15 14  1  0  0  0  0
 16 14  1  1  0  0  0
 16 19  1  0  0  0  0
 17 26  1  1  0  0  0
 17 21  1  0  0  0  0
 18 32  1  6  0  0  0
 18 20  1  0  0  0  0
 19 38  1  0  0  0  0
 20 36  1  0  0  0  0
 21 38  1  0  0  0  0
 21 30  1  0  0  0  0
 22 24  2  0  0  0  0
 23 22  1  0  0  0  0
 24 19  1  0  0  0  0
 24 25  1  0  0  0  0
 26 28  1  0  0  0  0
 27 26  1  0  0  0  0
 28 29  1  0  0  0  0
 28 30  2  0  0  0  0
 30 31  1  0  0  0  0
 32 34  1  0  0  0  0
 33 32  1  0  0  0  0
 34 36  2  0  0  0  0
 34 35  1  0  0  0  0
 36 37  1  0  0  0  0
 38 20  1  0  0  0  0
 38 39  1  1  0  0  0
M  END
$$$$
