CSD_code = PAKLUL | q = 1 | S = 0 | Stoichiometry = C22H34ClN4Pd(1+) | MND = 4
 OpenBabel04212202083D

 62 65  0  0  0  0  0  0  0  0999 V2000
    6.6617   12.4578    0.2087 Pd  0  0  1  0  0  0  0  0  0  0  0  0
    7.3927   10.5336   -0.7091 Cl  0  0  0  0  0  0  0  0  0  0  0  0
    7.1090   15.2157    0.9538 N   0  0  0  0  0  0  0  0  0  0  0  0
    6.9121   16.1600    1.2805 H   0  0  0  0  0  0  0  0  0  0  0  0
    4.8878   14.7537    0.9318 N   0  0  0  0  0  0  0  0  0  0  0  0
    4.6894   15.7377    1.1022 H   0  0  0  0  0  0  0  0  0  0  0  0
    5.2042   10.4729    1.9821 N   0  0  0  0  0  2  0  0  0  0  0  0
    7.9510   13.4227   -1.0789 N   0  0  0  0  0  4  0  0  0  0  0  0
    8.3885   12.6799   -1.6398 H   0  0  0  0  0  0  0  0  0  0  0  0
    7.5829   14.1446   -1.7050 H   0  0  0  0  0  0  0  0  0  0  0  0
    6.1278   14.3211    0.8256 C   0  0  0  0  0  0  0  0  0  0  0  0
    8.4802   14.8876    0.8283 C   0  0  0  0  0  0  0  0  0  0  0  0
    8.8996   13.9657   -0.1412 C   0  0  0  0  0  0  0  0  0  0  0  0
   10.2425   13.6190   -0.2002 C   0  0  0  0  0  0  0  0  0  0  0  0
   10.5634   12.8936   -0.9349 H   0  0  0  0  0  0  0  0  0  0  0  0
   11.1790   14.1767    0.6594 C   0  0  0  0  0  0  0  0  0  0  0  0
   12.6123   13.7687    0.5733 C   0  0  0  0  0  0  0  0  0  0  0  0
   12.7585   13.0143   -0.1939 H   0  0  0  0  0  0  0  0  0  0  0  0
   12.9499   13.3645    1.5264 H   0  0  0  0  0  0  0  0  0  0  0  0
   13.2409   14.6274    0.3420 H   0  0  0  0  0  0  0  0  0  0  0  0
   10.7642   15.1375    1.5916 C   0  0  0  0  0  0  0  0  0  0  0  0
   11.7504   15.7834    2.5083 C   0  0  0  0  0  0  0  0  0  0  0  0
   12.5254   16.2922    1.9372 H   0  0  0  0  0  0  0  0  0  0  0  0
   12.2406   15.0347    3.1287 H   0  0  0  0  0  0  0  0  0  0  0  0
   11.2656   16.5072    3.1569 H   0  0  0  0  0  0  0  0  0  0  0  0
    9.4207   15.4739    1.6632 C   0  0  0  0  0  0  0  0  0  0  0  0
    9.0917   16.1977    2.3947 H   0  0  0  0  0  0  0  0  0  0  0  0
    3.7202   13.8954    0.7653 C   0  0  0  0  0  0  0  0  0  0  0  0
    3.8517   13.0218    1.4217 H   0  0  0  0  0  0  0  0  0  0  0  0
    3.5955   13.3977   -0.6830 C   0  0  0  0  0  0  0  0  0  0  0  0
    4.5139   12.8433   -0.9748 H   0  0  0  0  0  0  0  0  0  0  0  0
    3.4755   14.2541   -1.3503 H   0  0  0  0  0  0  0  0  0  0  0  0
    2.3840   12.4767   -0.8064 C   0  0  0  0  0  0  0  0  0  0  0  0
    2.2881   12.1352   -1.8369 H   0  0  0  0  0  0  0  0  0  0  0  0
    2.5381   11.5980   -0.1764 H   0  0  0  0  0  0  0  0  0  0  0  0
    1.1121   13.2038   -0.3792 C   0  0  0  0  0  0  0  0  0  0  0  0
    0.9263   14.0393   -1.0563 H   0  0  0  0  0  0  0  0  0  0  0  0
    0.2607   12.5268   -0.4463 H   0  0  0  0  0  0  0  0  0  0  0  0
    1.2433   13.7264    1.0479 C   0  0  0  0  0  0  0  0  0  0  0  0
    1.3540   12.8871    1.7375 H   0  0  0  0  0  0  0  0  0  0  0  0
    0.3425   14.2720    1.3286 H   0  0  0  0  0  0  0  0  0  0  0  0
    2.4564   14.6463    1.1732 C   0  0  0  0  0  0  0  0  0  0  0  0
    2.3195   15.5122    0.5212 H   0  0  0  0  0  0  0  0  0  0  0  0
    2.5489   15.0002    2.2021 H   0  0  0  0  0  0  0  0  0  0  0  0
    5.6980   11.3608    1.4248 C   0  0  0  0  0  2  0  0  0  0  0  0
    4.6077    9.4434    2.7146 C   0  0  0  0  0  0  0  0  0  0  0  0
    4.3632    8.6463    2.0015 H   0  0  0  0  0  0  0  0  0  0  0  0
    3.3248    9.9501    3.3837 C   0  0  0  0  0  0  0  0  0  0  0  0
    2.6320   10.3185    2.6238 H   0  0  0  0  0  0  0  0  0  0  0  0
    3.5732   10.7771    4.0530 H   0  0  0  0  0  0  0  0  0  0  0  0
    2.6823    8.8168    4.1792 C   0  0  0  0  0  0  0  0  0  0  0  0
    1.7803    9.1861    4.6682 H   0  0  0  0  0  0  0  0  0  0  0  0
    2.3890    8.0156    3.4980 H   0  0  0  0  0  0  0  0  0  0  0  0
    3.6557    8.2713    5.2198 C   0  0  0  0  0  0  0  0  0  0  0  0
    3.1885    7.4511    5.7647 H   0  0  0  0  0  0  0  0  0  0  0  0
    3.8974    9.0557    5.9400 H   0  0  0  0  0  0  0  0  0  0  0  0
    4.9362    7.7817    4.5501 C   0  0  0  0  0  0  0  0  0  0  0  0
    4.7044    6.9523    3.8791 H   0  0  0  0  0  0  0  0  0  0  0  0
    5.6351    7.4165    5.3027 H   0  0  0  0  0  0  0  0  0  0  0  0
    5.5944    8.9087    3.7592 C   0  0  0  0  0  0  0  0  0  0  0  0
    5.8764    9.7205    4.4334 H   0  0  0  0  0  0  0  0  0  0  0  0
    6.4963    8.5500    3.2608 H   0  0  0  0  0  0  0  0  0  0  0  0
  1  2  1  6  0  0  0
  1 11  2  0  0  0  0
  1 45  1  0  0  0  0
  3  4  1  0  0  0  0
  5  6  1  0  0  0  0
  7 46  1  0  0  0  0
  8 13  1  0  0  0  0
  8  1  1  0  0  0  0
  9  8  1  0  0  0  0
 10  8  1  0  0  0  0
 11  5  1  0  0  0  0
 11  3  1  0  0  0  0
 12  3  1  0  0  0  0
 12 26  1  0  0  0  0
 13 12  2  0  0  0  0
 14 13  1  0  0  0  0
 14 16  2  0  0  0  0
 15 14  1  0  0  0  0
 16 21  1  0  0  0  0
 17 16  1  0  0  0  0
 17 19  1  0  0  0  0
 18 17  1  0  0  0  0
 20 17  1  0  0  0  0
 21 26  2  0  0  0  0
 21 22  1  0  0  0  0
 22 24  1  0  0  0  0
 22 25  1  0  0  0  0
 23 22  1  0  0  0  0
 26 27  1  0  0  0  0
 28  5  1  0  0  0  0
 28 42  1  0  0  0  0
 28 29  1  0  0  0  0
 30 28  1  0  0  0  0
 31 30  1  0  0  0  0
 32 30  1  0  0  0  0
 33 30  1  0  0  0  0
 33 36  1  0  0  0  0
 33 35  1  0  0  0  0
 34 33  1  0  0  0  0
 36 39  1  0  0  0  0
 37 36  1  0  0  0  0
 38 36  1  0  0  0  0
 39 42  1  0  0  0  0
 39 41  1  0  0  0  0
 39 40  1  0  0  0  0
 42 44  1  0  0  0  0
 43 42  1  0  0  0  0
 45  7  1  0  0  0  0
 46 48  1  0  0  0  0
 46 60  1  0  0  0  0
 47 46  1  0  0  0  0
 48 50  1  0  0  0  0
 48 51  1  0  0  0  0
 49 48  1  0  0  0  0
 51 52  1  0  0  0  0
 51 54  1  0  0  0  0
 53 51  1  0  0  0  0
 54 55  1  0  0  0  0
 54 56  1  0  0  0  0
 57 54  1  0  0  0  0
 57 59  1  0  0  0  0
 58 57  1  0  0  0  0
 60 61  1  0  0  0  0
 60 57  1  0  0  0  0
 62 60  1  0  0  0  0
M  END
$$$$
