CSD_code = PAKZOT | q = 0 | S = 0 | Stoichiometry = C13H13BrN3O3ReS2 | MND = 6
 OpenBabel04212202083D

 36 37  0  0  1  0  0  0  0  0999 V2000
    2.5559    2.1269    7.1586 Re  0  0  0  0  0  0  0  0  0  0  0  0
    3.0988    2.1193    9.6474 Br  0  0  0  0  0  0  0  0  0  0  0  0
    0.9609    0.1754    7.6660 S   0  0  0  0  0  0  0  0  0  0  0  0
    3.4839    8.7942    5.3411 S   0  0  0  0  0  0  0  0  0  0  0  0
    4.4357    4.5683    6.8820 O   0  0  0  0  0  1  0  0  0  0  0  0
    1.5718    2.0370    4.2386 O   0  0  0  0  0  1  0  0  0  0  0  0
    4.9067    0.1939    6.6584 O   0  0  0  0  0  1  0  0  0  0  0  0
   -0.8607    0.3479    9.5484 N   0  0  0  0  0  0  0  0  0  0  0  0
   -1.3013    0.8592   10.2988 H   0  0  0  0  0  0  0  0  0  0  0  0
   -0.0799    2.3618    8.7683 N   0  0  0  0  0  0  0  0  0  0  0  0
   -0.6586    2.8059    9.4822 H   0  0  0  0  0  0  0  0  0  0  0  0
    0.6884    3.1834    8.0041 N   0  0  0  0  0  0  0  0  0  0  0  0
   -0.0226    1.0070    8.7291 C   0  0  2  0  0  3  0  0  0  0  0  0
    0.5521    4.4459    8.2144 C   0  0  0  0  0  3  0  0  0  0  0  0
   -0.0784    4.7769    9.0451 H   0  0  0  0  0  0  0  0  0  0  0  0
    1.2160    5.4807    7.4652 C   0  0  0  0  0  0  0  0  0  0  0  0
    1.5104    5.3453    6.1045 C   0  0  0  0  0  0  0  0  0  0  0  0
    1.1732    4.4714    5.5678 H   0  0  0  0  0  0  0  0  0  0  0  0
    2.1800    6.3386    5.4233 C   0  0  0  0  0  0  0  0  0  0  0  0
    2.3819    6.2033    4.3736 H   0  0  0  0  0  0  0  0  0  0  0  0
    2.5874    7.4891    6.0920 C   0  0  0  0  0  0  0  0  0  0  0  0
    2.2559    7.6534    7.4400 C   0  0  0  0  0  0  0  0  0  0  0  0
    2.5571    8.5578    7.9456 H   0  0  0  0  0  0  0  0  0  0  0  0
    1.5690    6.6729    8.1120 C   0  0  0  0  0  0  0  0  0  0  0  0
    1.3367    6.8015    9.1589 H   0  0  0  0  0  0  0  0  0  0  0  0
   -0.8021   -1.0887    9.6867 C   0  0  0  0  0  0  0  0  0  0  0  0
   -1.6194   -1.4145   10.3235 H   0  0  0  0  0  0  0  0  0  0  0  0
    0.1502   -1.4056   10.1206 H   0  0  0  0  0  0  0  0  0  0  0  0
   -0.9014   -1.5508    8.7044 H   0  0  0  0  0  0  0  0  0  0  0  0
    3.9760    8.1157    3.7313 C   0  0  0  0  0  0  0  0  0  0  0  0
    4.6501    8.8488    3.2992 H   0  0  0  0  0  0  0  0  0  0  0  0
    3.1069    7.9948    3.0911 H   0  0  0  0  0  0  0  0  0  0  0  0
    4.4963    7.1741    3.8783 H   0  0  0  0  0  0  0  0  0  0  0  0
    3.7049    3.6839    6.9482 C   0  0  0  0  0  2  0  0  0  0  0  0
    1.9430    2.0851    5.3238 C   0  0  0  0  0  2  0  0  0  0  0  0
    4.0543    0.9447    6.7848 C   0  0  0  0  0  2  0  0  0  0  0  0
  1  3  1  0  0  0  0
  1 12  1  0  0  0  0
  1  2  1  0  0  0  0
  3 13  1  0  0  0  0
  4 21  1  0  0  0  0
  5 34  1  0  0  0  0
  6 35  1  0  0  0  0
  7 36  1  0  0  0  0
  8 26  1  0  0  0  0
  8  9  1  0  0  0  0
 10 11  1  0  0  0  0
 12 14  1  0  0  0  0
 12 10  1  0  0  0  0
 13 10  1  0  0  0  0
 13  8  1  6  0  0  0
 14 15  1  0  0  0  0
 16 24  1  0  0  0  0
 16 14  1  0  0  0  0
 17 16  2  0  0  0  0
 18 17  1  0  0  0  0
 19 21  2  0  0  0  0
 19 17  1  0  0  0  0
 20 19  1  0  0  0  0
 21 22  1  0  0  0  0
 22 23  1  0  0  0  0
 22 24  2  0  0  0  0
 24 25  1  0  0  0  0
 26 28  1  0  0  0  0
 26 27  1  0  0  0  0
 29 26  1  0  0  0  0
 30 33  1  0  0  0  0
 30  4  1  0  0  0  0
 31 30  1  0  0  0  0
 32 30  1  0  0  0  0
 34  1  1  0  0  0  0
 35  1  1  0  0  0  0
 36  1  1  0  0  0  0
M  END
$$$$
