CSD_code = PAKZEH | q = 0 | S = 0 | Stoichiometry = C17H26Cl2NPPt | MND = 4
 OpenBabel04212202083D

 48 50  0  0  0  0  0  0  0  0999 V2000
    0.3448    1.1150    2.9488 Pt  0  0  0  0  0  0  0  0  0  0  0  0
    1.8441    1.3243    4.6788 Cl  0  0  0  0  0  0  0  0  0  0  0  0
    1.0700    3.0613    2.0661 Cl  0  0  0  0  0  0  0  0  0  0  0  0
   -1.2041    0.8391    1.3335 P   0  0  0  0  0  4  0  0  0  0  0  0
   -0.3939   -0.7488    3.7881 N   0  0  0  0  0  4  0  0  0  0  0  0
   -2.1769   -2.5665    3.3265 C   0  0  0  0  0  0  0  0  0  0  0  0
   -1.4983   -3.4196    3.3921 H   0  0  0  0  0  0  0  0  0  0  0  0
   -2.7164   -2.5015    4.2742 H   0  0  0  0  0  0  0  0  0  0  0  0
   -1.4593   -1.2843    2.9962 C   0  0  0  0  0  0  0  0  0  0  0  0
   -1.9318   -0.7384    1.8518 C   0  0  0  0  0  0  0  0  0  0  0  0
   -2.9568   -1.6165    1.2952 C   0  0  0  0  0  0  0  0  0  0  0  0
   -3.7016   -1.5511    0.1281 C   0  0  0  0  0  0  0  0  0  0  0  0
   -3.5802   -0.7385   -0.5695 H   0  0  0  0  0  0  0  0  0  0  0  0
   -4.6126   -2.5603   -0.1379 C   0  0  0  0  0  0  0  0  0  0  0  0
   -5.1990   -2.5197   -1.0436 H   0  0  0  0  0  0  0  0  0  0  0  0
   -4.7817   -3.6213    0.7383 C   0  0  0  0  0  0  0  0  0  0  0  0
   -5.4998   -4.3943    0.5103 H   0  0  0  0  0  0  0  0  0  0  0  0
   -4.0294   -3.7028    1.9015 C   0  0  0  0  0  0  0  0  0  0  0  0
   -4.1530   -4.5348    2.5790 H   0  0  0  0  0  0  0  0  0  0  0  0
   -3.1181   -2.7042    2.1695 C   0  0  0  0  0  0  0  0  0  0  0  0
   -0.7345    0.5953   -0.4405 C   0  0  0  0  0  0  0  0  0  0  0  0
   -1.5756    0.1642   -0.9941 H   0  0  0  0  0  0  0  0  0  0  0  0
   -0.3211    1.9305   -1.0495 C   0  0  0  0  0  0  0  0  0  0  0  0
   -1.1764    2.5913   -1.1737 H   0  0  0  0  0  0  0  0  0  0  0  0
    0.1319    1.7723   -2.0265 H   0  0  0  0  0  0  0  0  0  0  0  0
    0.4050    2.4227   -0.4032 H   0  0  0  0  0  0  0  0  0  0  0  0
    0.4305   -0.3918   -0.4263 C   0  0  0  0  0  0  0  0  0  0  0  0
    0.1133   -1.3595   -0.0369 H   0  0  0  0  0  0  0  0  0  0  0  0
    1.2287   -0.0005    0.2088 H   0  0  0  0  0  0  0  0  0  0  0  0
    0.8270   -0.5370   -1.4290 H   0  0  0  0  0  0  0  0  0  0  0  0
   -2.5369    2.1237    1.4203 C   0  0  0  0  0  0  0  0  0  0  0  0
   -2.0320    3.0380    1.0823 H   0  0  0  0  0  0  0  0  0  0  0  0
   -3.7733    1.8697    0.5688 C   0  0  0  0  0  0  0  0  0  0  0  0
   -3.5134    1.7356   -0.4788 H   0  0  0  0  0  0  0  0  0  0  0  0
   -4.4452    2.7238    0.6403 H   0  0  0  0  0  0  0  0  0  0  0  0
   -4.3083    0.9893    0.9184 H   0  0  0  0  0  0  0  0  0  0  0  0
   -2.8893    2.2898    2.8970 C   0  0  0  0  0  0  0  0  0  0  0  0
   -1.9747    2.4467    3.4795 H   0  0  0  0  0  0  0  0  0  0  0  0
   -3.4013    1.4031    3.2711 H   0  0  0  0  0  0  0  0  0  0  0  0
   -3.5390    3.1501    3.0427 H   0  0  0  0  0  0  0  0  0  0  0  0
   -0.8353   -0.5150    5.1678 C   0  0  0  0  0  0  0  0  0  0  0  0
   -0.0356    0.0011    5.7002 H   0  0  0  0  0  0  0  0  0  0  0  0
   -1.0574   -1.4568    5.6804 H   0  0  0  0  0  0  0  0  0  0  0  0
   -1.7251    0.1145    5.1636 H   0  0  0  0  0  0  0  0  0  0  0  0
    0.7531   -1.6668    3.7835 C   0  0  0  0  0  0  0  0  0  0  0  0
    1.5808   -1.1828    4.3032 H   0  0  0  0  0  0  0  0  0  0  0  0
    1.0483   -1.8753    2.7546 H   0  0  0  0  0  0  0  0  0  0  0  0
    0.5142   -2.6076    4.2910 H   0  0  0  0  0  0  0  0  0  0  0  0
  1  5  1  0  0  0  0
  1  2  1  0  0  0  0
  3  1  1  0  0  0  0
  4 31  1  0  0  0  0
  4 10  1  0  0  0  0
  4  1  1  0  0  0  0
  5 41  1  0  0  0  0
  6  7  1  0  0  0  0
  6  8  1  0  0  0  0
  9  6  1  0  0  0  0
  9  5  1  0  0  0  0
 10  9  2  0  0  0  0
 11 10  1  0  0  0  0
 11 20  1  0  0  0  0
 12 11  2  0  0  0  0
 13 12  1  0  0  0  0
 14 12  1  0  0  0  0
 14 16  2  0  0  0  0
 15 14  1  0  0  0  0
 16 18  1  0  0  0  0
 17 16  1  0  0  0  0
 18 20  2  0  0  0  0
 18 19  1  0  0  0  0
 20  6  1  0  0  0  0
 21 27  1  0  0  0  0
 21  4  1  0  0  0  0
 22 21  1  0  0  0  0
 23 21  1  0  0  0  0
 23 26  1  0  0  0  0
 24 23  1  0  0  0  0
 25 23  1  0  0  0  0
 27 28  1  0  0  0  0
 27 29  1  0  0  0  0
 30 27  1  0  0  0  0
 31 37  1  0  0  0  0
 32 31  1  0  0  0  0
 33 35  1  0  0  0  0
 33 36  1  0  0  0  0
 33 31  1  0  0  0  0
 34 33  1  0  0  0  0
 37 40  1  0  0  0  0
 37 39  1  0  0  0  0
 37 38  1  0  0  0  0
 41 43  1  0  0  0  0
 41 42  1  0  0  0  0
 44 41  1  0  0  0  0
 45  5  1  0  0  0  0
 45 48  1  0  0  0  0
 45 46  1  0  0  0  0
 47 45  1  0  0  0  0
M  END
$$$$
