CSD_code = PALSUT | q = 0 | S = 0 | Stoichiometry = C30H28AuBrN2O4 | MND = 2
 OpenBabel04212202083D

 66 70  0  0  1  0  0  0  0  0999 V2000
   15.1922    9.7351   -5.5743 Au  0  0  0  0  0  0  0  0  0  0  0  0
   15.9286   11.9593   -5.8421 Br  0  0  0  0  0  0  0  0  0  0  0  0
   14.5732    7.8293   -5.3309 C   0  0  2  0  0  3  0  0  0  0  0  0
    9.8357   11.9610    1.7463 O   0  0  0  0  0  0  0  0  0  0  0  0
   15.4380    7.0139   -7.4604 C   0  0  0  0  0  0  0  0  0  0  0  0
   13.9194    7.2658   -4.2989 N   0  0  0  0  0  0  0  0  0  0  0  0
    5.7647   12.0844    1.5157 O   0  0  0  0  0  0  0  0  0  0  0  0
    9.1129   12.6553    2.6477 C   0  0  0  0  0  0  0  0  0  0  0  0
    5.8929   10.5781   -0.5963 O   0  0  0  0  0  0  0  0  0  0  0  0
    5.5035   11.1288    0.1384 H   0  0  0  0  0  0  0  0  0  0  0  0
   14.7666    6.8417   -6.2189 N   0  0  0  0  0  0  0  0  0  0  0  0
   13.4611    7.9739   -3.1344 C   0  0  0  0  0  0  0  0  0  0  0  0
   14.0267    8.9082   -3.0728 H   0  0  0  0  0  0  0  0  0  0  0  0
   13.6691    7.3730   -2.2440 H   0  0  0  0  0  0  0  0  0  0  0  0
   12.0546   14.3039    4.2825 C   0  0  0  0  0  0  0  0  0  0  0  0
   13.0750   14.5566    4.0356 H   0  0  0  0  0  0  0  0  0  0  0  0
   16.8181    6.8272   -7.5167 C   0  0  0  0  0  0  0  0  0  0  0  0
   15.3765    7.5527   -9.7832 C   0  0  0  0  0  0  0  0  0  0  0  0
   14.8200    7.8419  -10.6625 H   0  0  0  0  0  0  0  0  0  0  0  0
   10.0882    9.2007   -2.1284 O   0  0  0  0  0  0  0  0  0  0  0  0
   14.2390    5.6667   -5.7569 C   0  0  0  0  0  0  0  0  0  0  0  0
   14.2920    4.7562   -6.3174 H   0  0  0  0  0  0  0  0  0  0  0  0
   11.9650    8.2787   -3.2287 C   0  0  0  0  0  0  0  0  0  0  0  0
   11.3901    7.3510   -3.2421 H   0  0  0  0  0  0  0  0  0  0  0  0
   11.7584    8.8166   -4.1554 H   0  0  0  0  0  0  0  0  0  0  0  0
   10.0092   10.6047   -0.1507 C   0  0  0  0  0  0  0  0  0  0  0  0
   11.0752   10.6338   -0.0045 H   0  0  0  0  0  0  0  0  0  0  0  0
   11.4953    9.1244   -2.0492 C   0  0  0  0  0  0  0  0  0  0  0  0
   11.7960    8.6535   -1.1022 H   0  0  0  0  0  0  0  0  0  0  0  0
   11.9413   10.1261   -2.1021 H   0  0  0  0  0  0  0  0  0  0  0  0
   14.7011    7.3799   -8.5853 C   0  0  0  0  0  0  0  0  0  0  0  0
    9.2045   11.2990    0.7461 C   0  0  0  0  0  0  0  0  0  0  0  0
    9.4108    9.9113   -1.1954 C   0  0  0  0  0  0  0  0  0  0  0  0
    7.7607   12.7254    2.6021 C   0  0  0  0  0  0  0  0  0  0  0  0
    7.2127   13.3110    3.3204 H   0  0  0  0  0  0  0  0  0  0  0  0
    6.9995   12.0452    1.5793 C   0  0  0  0  0  0  0  0  0  0  0  0
    8.0221    9.9092   -1.3374 C   0  0  0  0  0  0  0  0  0  0  0  0
    7.5755    9.3665   -2.1532 H   0  0  0  0  0  0  0  0  0  0  0  0
    9.4339   13.6556    4.9114 C   0  0  0  0  0  0  0  0  0  0  0  0
    8.4227   13.3846    5.1713 H   0  0  0  0  0  0  0  0  0  0  0  0
   17.4549    7.0100   -8.7337 C   0  0  0  0  0  0  0  0  0  0  0  0
   18.5248    6.8746   -8.7922 H   0  0  0  0  0  0  0  0  0  0  0  0
   13.7001    5.9359   -4.5441 C   0  0  0  0  0  0  0  0  0  0  0  0
   13.1953    5.2993   -3.8477 H   0  0  0  0  0  0  0  0  0  0  0  0
    7.2146   10.5949   -0.4463 C   0  0  0  0  0  0  0  0  0  0  0  0
    9.9409   13.3324    3.6531 C   0  0  0  0  0  0  0  0  0  0  0  0
   10.2310   14.2991    5.8386 C   0  0  0  0  0  0  0  0  0  0  0  0
    9.8302   14.5424    6.8112 H   0  0  0  0  0  0  0  0  0  0  0  0
   11.5407   14.6282    5.5272 C   0  0  0  0  0  0  0  0  0  0  0  0
   12.1592   15.1328    6.2541 H   0  0  0  0  0  0  0  0  0  0  0  0
    7.8120   11.3085    0.6236 C   0  0  0  0  0  0  0  0  0  0  0  0
   11.2636   13.6579    3.3519 C   0  0  0  0  0  0  0  0  0  0  0  0
   11.6608   13.4111    2.3793 H   0  0  0  0  0  0  0  0  0  0  0  0
   13.2229    7.6010   -8.4836 C   0  0  0  0  0  0  0  0  0  0  0  0
   12.7979    7.7990   -9.4633 H   0  0  0  0  0  0  0  0  0  0  0  0
   13.0167    8.4565   -7.8396 H   0  0  0  0  0  0  0  0  0  0  0  0
   12.7242    6.7316   -8.0553 H   0  0  0  0  0  0  0  0  0  0  0  0
   17.4651    7.5974  -11.1687 C   0  0  0  0  0  0  0  0  0  0  0  0
   16.8052    7.4215  -12.0146 H   0  0  0  0  0  0  0  0  0  0  0  0
   18.3328    6.9472  -11.2520 H   0  0  0  0  0  0  0  0  0  0  0  0
   17.8122    8.6296  -11.2198 H   0  0  0  0  0  0  0  0  0  0  0  0
   16.7499    7.3727   -9.8735 C   0  0  0  0  0  0  0  0  0  0  0  0
   17.5837    6.4613   -6.2819 C   0  0  0  0  0  0  0  0  0  0  0  0
   18.6320    6.3008   -6.5161 H   0  0  0  0  0  0  0  0  0  0  0  0
   17.1844    5.5547   -5.8272 H   0  0  0  0  0  0  0  0  0  0  0  0
   17.5134    7.2637   -5.5467 H   0  0  0  0  0  0  0  0  0  0  0  0
  2  1  1  0  0  0  0
  3  1  1  1  0  0  0
  3  6  1  0  0  0  0
  4  8  1  0  0  0  0
  5 11  1  0  0  0  0
  6 12  1  0  0  0  0
  7 36  2  0  0  0  0
  8 46  1  0  0  0  0
  9 45  1  0  0  0  0
  9 10  1  0  0  0  0
 11 21  1  0  0  0  0
 11  3  1  0  0  0  0
 12 13  1  0  0  0  0
 12 14  1  0  0  0  0
 15 49  1  0  0  0  0
 16 15  1  0  0  0  0
 17  5  1  0  0  0  0
 17 63  1  0  0  0  0
 18 31  1  0  0  0  0
 19 18  1  0  0  0  0
 20 28  1  0  0  0  0
 20 33  1  0  0  0  0
 21 43  2  0  0  0  0
 22 21  1  0  0  0  0
 23 12  1  0  0  0  0
 23 28  1  0  0  0  0
 24 23  1  0  0  0  0
 25 23  1  0  0  0  0
 26 27  1  0  0  0  0
 26 32  1  0  0  0  0
 28 29  1  0  0  0  0
 30 28  1  0  0  0  0
 31 54  1  0  0  0  0
 31  5  2  0  0  0  0
 32  4  1  0  0  0  0
 33 26  2  0  0  0  0
 34  8  2  0  0  0  0
 34 35  1  0  0  0  0
 36 34  1  0  0  0  0
 37 33  1  0  0  0  0
 37 45  2  0  0  0  0
 38 37  1  0  0  0  0
 39 40  1  0  0  0  0
 39 47  1  0  0  0  0
 41 17  2  0  0  0  0
 42 41  1  0  0  0  0
 43  6  1  0  0  0  0
 43 44  1  0  0  0  0
 45 51  1  0  0  0  0
 46 39  2  0  0  0  0
 47 48  1  0  0  0  0
 49 47  2  0  0  0  0
 49 50  1  0  0  0  0
 51 32  2  0  0  0  0
 51 36  1  0  0  0  0
 52 46  1  0  0  0  0
 52 15  2  0  0  0  0
 53 52  1  0  0  0  0
 54 57  1  0  0  0  0
 54 56  1  0  0  0  0
 55 54  1  0  0  0  0
 58 62  1  0  0  0  0
 59 58  1  0  0  0  0
 60 58  1  0  0  0  0
 61 58  1  0  0  0  0
 62 18  2  0  0  0  0
 62 41  1  0  0  0  0
 63 65  1  0  0  0  0
 63 66  1  0  0  0  0
 64 63  1  0  0  0  0
M  END
$$$$
