CSD_code = PAMGOA | q = 0 | S = 0 | Stoichiometry = C13H16BCl4N4NbS2 | MND = 10
 OpenBabel04212202083D

 41 42  0  0  1  0  0  0  0  0999 V2000
    5.2222    3.4324   12.9444 Nb  0  0  0  0  0  0  0  0  0  0  0  0
    3.3993    2.3601   14.0677 Cl  0  0  0  0  0  0  0  0  0  0  0  0
    6.7970    5.0722   14.0535 C   0  0  0  0  0  3  0  0  0  0  0  0
    7.2409    5.8873   13.4996 H   0  0  0  0  0  0  0  0  0  0  0  0
    7.2845    1.3647    9.5064 B   0  0  0  0  0  0  0  0  0  0  0  0
    8.0485    1.6885   10.3467 H   0  0  0  0  0  0  0  0  0  0  0  0
    3.8276    5.3343   12.5322 Cl  0  0  0  0  0  0  0  0  0  0  0  0
    5.7194    5.1763   14.9584 C   0  0  0  0  0  0  0  0  0  0  0  0
    5.1399    6.0676   15.1465 H   0  0  0  0  0  0  0  0  0  0  0  0
    3.9776    2.6106   11.0073 Cl  0  0  0  0  0  0  0  0  0  0  0  0
    5.5568    3.9384   15.5921 C   0  0  0  0  0  0  0  0  0  0  0  0
    4.8290    3.7057   16.3548 H   0  0  0  0  0  0  0  0  0  0  0  0
    8.0898    0.5276    8.1048 Cl  0  0  0  0  0  0  0  0  0  0  0  0
    6.5308    3.0518   15.0874 C   0  0  0  0  0  3  0  0  0  0  0  0
    6.7342    2.0564   15.4558 H   0  0  0  0  0  0  0  0  0  0  0  0
    7.3162    3.7578   14.1442 C   0  0  1  0  0  0  0  0  0  0  0  0
    8.2507    3.4173   13.7194 H   0  0  0  0  0  0  0  0  0  0  0  0
    6.4247    1.1137   12.6991 S   0  0  0  0  0  0  0  0  0  0  0  0
    6.1983    0.4031   10.0610 N   0  0  0  0  0  0  0  0  0  0  0  0
    5.7683    0.3317   11.3246 C   0  0  0  0  0  0  0  0  0  0  0  0
    4.7423   -0.5334   11.3991 N   0  0  0  0  0  0  0  0  0  0  0  0
    5.4098   -0.4249    9.3170 C   0  0  0  0  0  0  0  0  0  0  0  0
    5.5774   -0.5483    8.2674 H   0  0  0  0  0  0  0  0  0  0  0  0
    4.5057   -1.0101   10.1429 C   0  0  0  0  0  0  0  0  0  0  0  0
    3.7261   -1.7138    9.9378 H   0  0  0  0  0  0  0  0  0  0  0  0
    4.0108   -0.8303   12.5984 C   0  0  0  0  0  0  0  0  0  0  0  0
    4.6709   -1.2921   13.3343 H   0  0  0  0  0  0  0  0  0  0  0  0
    3.1924   -1.5049   12.3610 H   0  0  0  0  0  0  0  0  0  0  0  0
    3.6134    0.0966   13.0257 H   0  0  0  0  0  0  0  0  0  0  0  0
    6.8774    4.2513   11.0814 S   0  0  0  0  0  0  0  0  0  0  0  0
    6.5093    2.5840    8.9375 N   0  0  0  0  0  0  0  0  0  0  0  0
    6.2534    3.7310    9.5745 C   0  0  0  0  0  0  0  0  0  0  0  0
    5.4549    4.4970    8.8115 N   0  0  0  0  0  0  0  0  0  0  0  0
    5.8380    2.6208    7.7506 C   0  0  0  0  0  0  0  0  0  0  0  0
    5.9066    1.8116    7.0539 H   0  0  0  0  0  0  0  0  0  0  0  0
    5.1824    3.8062    7.6671 C   0  0  0  0  0  0  0  0  0  0  0  0
    4.5543    4.2038    6.8974 H   0  0  0  0  0  0  0  0  0  0  0  0
    4.9357    5.7767    9.2035 C   0  0  0  0  0  0  0  0  0  0  0  0
    4.2582    5.6556   10.0563 H   0  0  0  0  0  0  0  0  0  0  0  0
    4.3997    6.2192    8.3674 H   0  0  0  0  0  0  0  0  0  0  0  0
    5.7554    6.4288    9.5088 H   0  0  0  0  0  0  0  0  0  0  0  0
  1  2  1  0  0  0  0
  1 16  1  0  0  0  0
  3 16  1  0  0  0  0
  3  8  1  0  0  0  0
  4  3  1  0  0  0  0
  5 19  1  0  0  0  0
  5  6  1  0  0  0  0
  7  1  1  0  0  0  0
  8  9  1  0  0  0  0
  8 11  2  0  0  0  0
 10  1  1  0  0  0  0
 11 12  1  0  0  0  0
 13  5  1  0  0  0  0
 14 15  1  0  0  0  0
 14 11  1  0  0  0  0
 16 17  1  6  0  0  0
 16 14  1  0  0  0  0
 19 20  1  0  0  0  0
 20 21  1  0  0  0  0
 20 18  2  0  0  0  0
 21 26  1  0  0  0  0
 22 19  1  0  0  0  0
 22 24  2  0  0  0  0
 23 22  1  0  0  0  0
 24 21  1  0  0  0  0
 25 24  1  0  0  0  0
 26 29  1  0  0  0  0
 26 27  1  0  0  0  0
 28 26  1  0  0  0  0
 31  5  1  0  0  0  0
 31 32  1  0  0  0  0
 32 30  2  0  0  0  0
 33 38  1  0  0  0  0
 33 32  1  0  0  0  0
 34 31  1  0  0  0  0
 35 34  1  0  0  0  0
 36 34  2  0  0  0  0
 36 33  1  0  0  0  0
 37 36  1  0  0  0  0
 38 41  1  0  0  0  0
 38 39  1  0  0  0  0
 40 38  1  0  0  0  0
M  END
$$$$
