CSD_code = PANBOY | q = 1 | S = 0 | Stoichiometry = C9H13AuClN4O3(1+) | MND = 4
 OpenBabel04212202083D

 31 33  0  0  1  0  0  0  0  0999 V2000
   18.4823    5.8737    2.5038 C   0  0  2  0  0  0  0  0  0  0  0  0
   19.5400    6.0569    2.2879 H   0  0  0  0  0  0  0  0  0  0  0  0
   17.8851    7.1334    3.1431 C   0  0  0  0  0  0  0  0  0  0  0  0
   16.2287    7.8387    4.7391 C   0  0  1  0  0  0  0  0  0  0  0  0
   16.5556    8.8307    4.4074 H   0  0  0  0  0  0  0  0  0  0  0  0
   14.6956    7.7765    4.7734 C   0  0  0  0  0  0  0  0  0  0  0  0
   14.3060    8.6297    5.3293 H   0  0  0  0  0  0  0  0  0  0  0  0
   14.3367    7.8481    3.7426 H   0  0  0  0  0  0  0  0  0  0  0  0
   14.1836    6.5191    5.3896 C   0  0  0  0  0  0  0  0  0  0  0  0
   13.0512    6.3314    6.1313 C   0  0  0  0  0  0  0  0  0  0  0  0
   12.3037    7.0332    6.4390 H   0  0  0  0  0  0  0  0  0  0  0  0
   14.0609    4.4085    5.9187 C   0  0  0  0  0  3  0  0  0  0  0  0
   14.3010    3.3658    5.9987 H   0  0  0  0  0  0  0  0  0  0  0  0
   16.7958    7.5633    6.1317 C   0  0  0  0  0  0  0  0  0  0  0  0
   17.7410    5.5400    1.2174 C   0  0  0  0  0  0  0  0  0  0  0  0
   18.1770    4.6671    0.7360 H   0  0  0  0  0  0  0  0  0  0  0  0
   17.8118    6.3790    0.5302 H   0  0  0  0  0  0  0  0  0  0  0  0
   16.6890    5.3477    1.4214 H   0  0  0  0  0  0  0  0  0  0  0  0
   18.3360    4.7624    3.4801 N   0  0  0  0  0  4  0  0  0  0  0  0
   19.0804    4.8054    4.1802 H   0  0  0  0  0  0  0  0  0  0  0  0
   18.4340    3.8592    3.0070 H   0  0  0  0  0  0  0  0  0  0  0  0
   16.7600    6.8426    3.8489 N   0  0  0  0  0  0  0  0  0  0  0  0
   14.7990    5.2982    5.2678 N   0  0  0  0  0  0  0  0  0  0  0  0
   12.9978    5.0059    6.4450 N   0  0  0  0  0  0  0  0  0  0  0  0
   12.2736    4.5559    6.9881 H   0  0  0  0  0  0  0  0  0  0  0  0
   18.3312    8.2416    2.9952 O   0  0  0  0  0  0  0  0  0  0  0  0
   17.2463    6.4773    6.4326 O   0  0  0  0  0  0  0  0  0  0  0  0
   16.7271    8.5854    6.9424 O   0  0  0  0  0  0  0  0  0  0  0  0
   17.1152    8.4027    7.8173 H   0  0  0  0  0  0  0  0  0  0  0  0
   16.4969    2.7512    4.9008 Cl  0  0  0  0  0  0  0  0  0  0  0  0
   16.5516    4.9647    4.4218 Au  0  0  2  0  0  0  0  0  0  0  0  0
  1  2  1  6  0  0  0
  1  3  1  0  0  0  0
  1 19  1  0  0  0  0
  3 22  1  0  0  0  0
  4  5  1  6  0  0  0
  4  6  1  0  0  0  0
  4 14  1  0  0  0  0
  6  7  1  0  0  0  0
  6  9  1  0  0  0  0
  8  6  1  0  0  0  0
  9 10  2  0  0  0  0
 10 11  1  0  0  0  0
 10 24  1  0  0  0  0
 12 13  1  0  0  0  0
 12 24  1  0  0  0  0
 14 27  2  0  0  0  0
 14 28  1  0  0  0  0
 15 18  1  0  0  0  0
 15  1  1  0  0  0  0
 16 15  1  0  0  0  0
 17 15  1  0  0  0  0
 19 20  1  0  0  0  0
 19 31  1  0  0  0  0
 21 19  1  0  0  0  0
 22 31  1  0  0  0  0
 22  4  1  0  0  0  0
 23  9  1  0  0  0  0
 23 12  1  0  0  0  0
 24 25  1  0  0  0  0
 26  3  2  0  0  0  0
 28 29  1  0  0  0  0
 31 30  1  6  0  0  0
 31 23  1  0  0  0  0
M  END
$$$$
