CSD_code = PANBAK | q = 0 | S = 0 | Stoichiometry = C17H14ClN2O3Rh | MND = 4
 OpenBabel04212202083D

 38 40  0  0  0  0  0  0  0  0999 V2000
    2.1129   -1.7565    8.6293 Cl  0  0  0  0  0  0  0  0  0  0  0  0
    2.4290    0.3517    9.2730 Rh  0  0  0  0  0  0  0  0  0  0  0  0
    2.8053    3.2262    9.9958 O   0  0  0  0  0  1  0  0  0  0  0  0
    3.3877   -0.9444   11.7962 O   0  0  0  0  0  1  0  0  0  0  0  0
   -4.4085    1.3363    2.7044 O   0  0  0  0  0  0  0  0  0  0  0  0
    2.4743    0.7537    6.2819 N   0  0  0  0  0  0  0  0  0  0  0  0
    0.4599    0.9011    7.0031 N   0  0  0  0  0  0  0  0  0  0  0  0
    2.6622    2.1182    9.7239 C   0  0  0  0  0  2  0  0  0  0  0  0
    3.0359   -0.3687   10.8762 C   0  0  0  0  0  2  0  0  0  0  0  0
    1.7365    0.7916    7.4129 C   0  0  0  0  0  0  0  0  0  0  0  0
    0.3610    0.9310    5.6326 C   0  0  0  0  0  0  0  0  0  0  0  0
    1.6564    0.8351    5.1570 C   0  0  0  0  0  0  0  0  0  0  0  0
    2.2571    0.8389    3.8785 C   0  0  0  0  0  0  0  0  0  0  0  0
    1.6264    0.9383    3.0099 H   0  0  0  0  0  0  0  0  0  0  0  0
    3.6077    0.7229    3.7828 C   0  0  0  0  0  0  0  0  0  0  0  0
    4.0922    0.7194    2.8196 H   0  0  0  0  0  0  0  0  0  0  0  0
    4.4058    0.5997    4.9559 C   0  0  0  0  0  0  0  0  0  0  0  0
    5.4736    0.4909    4.8635 H   0  0  0  0  0  0  0  0  0  0  0  0
    3.8292    0.6227    6.1777 C   0  0  0  0  0  0  0  0  0  0  0  0
    4.3627    0.5322    7.1202 H   0  0  0  0  0  0  0  0  0  0  0  0
   -0.6399    0.8864    7.9309 C   0  0  0  0  0  0  0  0  0  0  0  0
   -0.3085    0.3643    8.8390 H   0  0  0  0  0  0  0  0  0  0  0  0
   -1.4894    0.3627    7.4943 H   0  0  0  0  0  0  0  0  0  0  0  0
   -0.9397    1.9014    8.2006 H   0  0  0  0  0  0  0  0  0  0  0  0
   -0.8798    1.0215    4.8783 C   0  0  0  0  0  0  0  0  0  0  0  0
   -1.8864    1.9283    5.2180 C   0  0  0  0  0  0  0  0  0  0  0  0
   -1.7516    2.5982    6.0530 H   0  0  0  0  0  0  0  0  0  0  0  0
   -3.0420    2.0050    4.4751 C   0  0  0  0  0  0  0  0  0  0  0  0
   -3.8206    2.7063    4.7297 H   0  0  0  0  0  0  0  0  0  0  0  0
   -3.2331    1.1786    3.3651 C   0  0  0  0  0  0  0  0  0  0  0  0
   -2.2331    0.2746    3.0181 C   0  0  0  0  0  0  0  0  0  0  0  0
   -2.3473   -0.3820    2.1703 H   0  0  0  0  0  0  0  0  0  0  0  0
   -1.0750    0.2025    3.7688 C   0  0  0  0  0  0  0  0  0  0  0  0
   -0.3167   -0.5187    3.5034 H   0  0  0  0  0  0  0  0  0  0  0  0
   -4.6607    0.5397    1.5716 C   0  0  0  0  0  0  0  0  0  0  0  0
   -3.9213    0.7161    0.7839 H   0  0  0  0  0  0  0  0  0  0  0  0
   -5.6444    0.8397    1.2145 H   0  0  0  0  0  0  0  0  0  0  0  0
   -4.6776   -0.5251    1.8245 H   0  0  0  0  0  0  0  0  0  0  0  0
  1  2  1  0  0  0  0
  2  8  1  0  0  0  0
  2  9  1  0  0  0  0
  5 30  1  0  0  0  0
  6 10  1  0  0  0  0
  7 10  1  0  0  0  0
  7 21  1  0  0  0  0
  8  3  1  0  0  0  0
  9  4  1  0  0  0  0
 10  2  2  0  0  0  0
 11  7  1  0  0  0  0
 12 11  2  0  0  0  0
 12  6  1  0  0  0  0
 13 12  1  0  0  0  0
 14 13  1  0  0  0  0
 15 13  2  0  0  0  0
 15 17  1  0  0  0  0
 16 15  1  0  0  0  0
 17 19  2  0  0  0  0
 18 17  1  0  0  0  0
 19  6  1  0  0  0  0
 19 20  1  0  0  0  0
 21 24  1  0  0  0  0
 21 22  1  0  0  0  0
 23 21  1  0  0  0  0
 25 26  1  0  0  0  0
 25 11  1  0  0  0  0
 26 27  1  0  0  0  0
 28 29  1  0  0  0  0
 28 26  2  0  0  0  0
 30 28  1  0  0  0  0
 31 30  2  0  0  0  0
 31 33  1  0  0  0  0
 32 31  1  0  0  0  0
 33 25  2  0  0  0  0
 34 33  1  0  0  0  0
 35 38  1  0  0  0  0
 35  5  1  0  0  0  0
 36 35  1  0  0  0  0
 37 35  1  0  0  0  0
M  END
$$$$
