CSD_code = PANCEO | q = 0 | S = 0 | Stoichiometry = C12H24Cl2FN5NiO2 | MND = 5
 OpenBabel04212202083D

 47 49  0  0  1  0  0  0  0  0999 V2000
    0.7240    3.1936    7.6494 Ni  0  0  0  0  0  0  0  0  0  0  0  0
    1.8513    2.9131    9.3672 Cl  0  0  0  0  0  0  0  0  0  0  0  0
   -0.2207    3.4683    5.8072 Cl  0  0  0  0  0  0  0  0  0  0  0  0
    4.3210    1.0539    7.1008 O   0  0  0  0  0  0  0  0  0  0  0  0
    4.6662    4.6687    7.4748 O   0  0  0  0  0  0  0  0  0  0  0  0
    3.3684    3.2459    4.6050 F   0  0  0  0  0  0  0  0  0  0  0  0
    4.0932    3.0550    5.7865 C   0  0  2  0  0  0  0  0  0  0  0  0
    3.5909    1.7616    6.4511 C   0  0  0  0  0  0  0  0  0  0  0  0
    1.7973    0.1546    6.4870 C   0  0  0  0  0  0  0  0  0  0  0  0
    2.3582   -0.2223    7.3476 H   0  0  0  0  0  0  0  0  0  0  0  0
    2.0100   -0.4900    5.6244 H   0  0  0  0  0  0  0  0  0  0  0  0
    0.3037    0.1521    6.7727 C   0  0  0  0  0  0  0  0  0  0  0  0
   -0.2482    0.4989    5.8929 H   0  0  0  0  0  0  0  0  0  0  0  0
   -0.0121   -0.8774    7.0014 H   0  0  0  0  0  0  0  0  0  0  0  0
   -1.3655    0.9210    8.3451 C   0  0  0  0  0  0  0  0  0  0  0  0
   -1.5457   -0.0733    8.7788 H   0  0  0  0  0  0  0  0  0  0  0  0
   -2.0272    1.0475    7.4821 H   0  0  0  0  0  0  0  0  0  0  0  0
   -1.6643    2.0083    9.3749 C   0  0  0  0  0  0  0  0  0  0  0  0
   -2.7039    1.9182    9.7277 H   0  0  0  0  0  0  0  0  0  0  0  0
   -0.9909    1.9026   10.2300 H   0  0  0  0  0  0  0  0  0  0  0  0
   -1.4373    4.4474    9.6143 C   0  0  0  0  0  0  0  0  0  0  0  0
   -0.7759    4.2591   10.4645 H   0  0  0  0  0  0  0  0  0  0  0  0
   -2.4500    4.6595    9.9920 H   0  0  0  0  0  0  0  0  0  0  0  0
   -0.9184    5.6380    8.8109 C   0  0  0  0  0  0  0  0  0  0  0  0
   -1.5723    5.8069    7.9493 H   0  0  0  0  0  0  0  0  0  0  0  0
   -0.9200    6.5455    9.4320 H   0  0  0  0  0  0  0  0  0  0  0  0
    0.9037    6.3715    7.3989 C   0  0  0  0  0  0  0  0  0  0  0  0
    0.7857    7.3767    7.8320 H   0  0  0  0  0  0  0  0  0  0  0  0
    0.3157    6.3179    6.4768 H   0  0  0  0  0  0  0  0  0  0  0  0
    2.3753    6.1383    7.0948 C   0  0  0  0  0  0  0  0  0  0  0  0
    2.7277    6.8881    6.3747 H   0  0  0  0  0  0  0  0  0  0  0  0
    2.9778    6.2216    8.0043 H   0  0  0  0  0  0  0  0  0  0  0  0
    3.8298    4.2584    6.7080 C   0  0  0  0  0  0  0  0  0  0  0  0
    5.5723    2.9476    5.4601 C   0  0  0  0  0  0  0  0  0  0  0  0
    5.9128    3.8600    4.9770 H   0  0  0  0  0  0  0  0  0  0  0  0
    5.7473    2.0982    4.8046 H   0  0  0  0  0  0  0  0  0  0  0  0
    6.1146    2.8056    6.3899 H   0  0  0  0  0  0  0  0  0  0  0  0
    2.2709    1.5039    6.2353 N   0  0  0  0  0  0  0  0  0  0  0  0
    1.7958    1.9924    5.4784 H   0  0  0  0  0  0  0  0  0  0  0  0
    0.0115    1.0525    7.8800 N   0  0  2  0  0  4  0  0  0  0  0  0
    0.6338    0.8250    8.6608 H   0  0  0  0  0  0  0  0  0  0  0  0
   -1.3929    3.2867    8.7456 N   0  0  1  0  0  4  0  0  0  0  0  0
   -2.0452    3.4232    7.9732 H   0  0  0  0  0  0  0  0  0  0  0  0
    2.5871    4.8004    6.5716 N   0  0  0  0  0  0  0  0  0  0  0  0
    2.0464    4.5743    5.7386 H   0  0  0  0  0  0  0  0  0  0  0  0
    0.4200    5.3431    8.3101 N   0  0  2  0  0  4  0  0  0  0  0  0
    1.0549    5.2906    9.1120 H   0  0  0  0  0  0  0  0  0  0  0  0
  1 40  1  0  0  0  0
  1 46  1  0  0  0  0
  1 42  1  0  0  0  0
  1  2  1  0  0  0  0
  3  1  1  0  0  0  0
  7  6  1  6  0  0  0
  7  8  1  0  0  0  0
  7 33  1  0  0  0  0
  8  4  2  0  0  0  0
  9 12  1  0  0  0  0
  9 10  1  0  0  0  0
 11  9  1  0  0  0  0
 12 14  1  0  0  0  0
 12 40  1  0  0  0  0
 13 12  1  0  0  0  0
 15 16  1  0  0  0  0
 15 18  1  0  0  0  0
 17 15  1  0  0  0  0
 18 19  1  0  0  0  0
 18 20  1  0  0  0  0
 21 23  1  0  0  0  0
 21 22  1  0  0  0  0
 24 26  1  0  0  0  0
 24 21  1  0  0  0  0
 25 24  1  0  0  0  0
 27 28  1  0  0  0  0
 27 46  1  0  0  0  0
 29 27  1  0  0  0  0
 30 27  1  0  0  0  0
 30 32  1  0  0  0  0
 31 30  1  0  0  0  0
 33  5  2  0  0  0  0
 34  7  1  0  0  0  0
 34 37  1  0  0  0  0
 35 34  1  0  0  0  0
 36 34  1  0  0  0  0
 38  8  1  0  0  0  0
 38  9  1  0  0  0  0
 39 38  1  0  0  0  0
 40 15  1  0  0  0  0
 40 41  1  1  0  0  0
 42 43  1  6  0  0  0
 42 18  1  0  0  0  0
 42 21  1  0  0  0  0
 44 33  1  0  0  0  0
 44 30  1  0  0  0  0
 45 44  1  0  0  0  0
 46 24  1  0  0  0  0
 46 47  1  1  0  0  0
M  END
$$$$
