CSD_code = PANDUF | q = 0 | S = 0 | Stoichiometry = C14H17Cl2N3Zn | MND = 4
 OpenBabel04212202083D

 37 39  0  0  0  0  0  0  0  0999 V2000
    5.7045    4.6000    0.0234 Zn  0  0  0  0  0  0  0  0  0  0  0  0
    4.9390    4.2441    2.0717 Cl  0  0  0  0  0  0  0  0  0  0  0  0
    6.4869    3.3679   -1.6028 Cl  0  0  0  0  0  0  0  0  0  0  0  0
    7.1749    6.1021    0.4952 N   0  0  0  0  0  0  0  0  0  0  0  0
    5.2168    6.7520   -1.4679 H   0  0  0  0  0  0  0  0  0  0  0  0
    4.7373    6.4704   -0.6124 N   0  0  0  0  0  4  0  0  0  0  0  0
   -0.7888    6.4435   -1.6810 N   0  0  0  0  0  0  0  0  0  0  0  0
    8.4594    5.9257    0.7760 C   0  0  0  0  0  3  0  0  0  0  0  0
    8.8722    4.9649    0.5027 H   0  0  0  0  0  0  0  0  0  0  0  0
    9.2305    6.9064    1.3730 C   0  0  0  0  0  0  0  0  0  0  0  0
   10.2715    6.7264    1.5864 H   0  0  0  0  0  0  0  0  0  0  0  0
    8.6303    8.1165    1.6897 C   0  0  0  0  0  0  0  0  0  0  0  0
    9.1963    8.9058    2.1608 H   0  0  0  0  0  0  0  0  0  0  0  0
    7.2922    8.2981    1.3879 C   0  0  0  0  0  0  0  0  0  0  0  0
    6.7909    9.2257    1.6166 H   0  0  0  0  0  0  0  0  0  0  0  0
    6.5901    7.2592    0.7867 C   0  0  0  0  0  0  0  0  0  0  0  0
    5.1290    7.3835    0.4636 C   0  0  0  0  0  0  0  0  0  0  0  0
    4.5676    7.0989    1.3603 H   0  0  0  0  0  0  0  0  0  0  0  0
    4.8838    8.4263    0.2183 H   0  0  0  0  0  0  0  0  0  0  0  0
    3.3247    6.4711   -0.8804 C   0  0  0  0  0  0  0  0  0  0  0  0
    2.8393    6.9216   -2.0982 C   0  0  0  0  0  0  0  0  0  0  0  0
    3.5267    7.2772   -2.8546 H   0  0  0  0  0  0  0  0  0  0  0  0
    1.4874    6.8962   -2.3762 C   0  0  0  0  0  0  0  0  0  0  0  0
    1.1625    7.2392   -3.3439 H   0  0  0  0  0  0  0  0  0  0  0  0
    0.5616    6.4313   -1.4315 C   0  0  0  0  0  0  0  0  0  0  0  0
    1.0730    5.9777   -0.2049 C   0  0  0  0  0  0  0  0  0  0  0  0
    0.4133    5.5941    0.5542 H   0  0  0  0  0  0  0  0  0  0  0  0
    2.4243    5.9970    0.0638 C   0  0  0  0  0  0  0  0  0  0  0  0
    2.7838    5.6152    1.0073 H   0  0  0  0  0  0  0  0  0  0  0  0
   -1.2695    6.7660   -3.0025 C   0  0  0  0  0  0  0  0  0  0  0  0
   -0.9465    7.7692   -3.2878 H   0  0  0  0  0  0  0  0  0  0  0  0
   -2.3570    6.7559   -3.0024 H   0  0  0  0  0  0  0  0  0  0  0  0
   -0.9171    6.0544   -3.7590 H   0  0  0  0  0  0  0  0  0  0  0  0
   -1.6816    5.7333   -0.7957 C   0  0  0  0  0  0  0  0  0  0  0  0
   -1.4123    4.6753   -0.7021 H   0  0  0  0  0  0  0  0  0  0  0  0
   -2.6965    5.7951   -1.1806 H   0  0  0  0  0  0  0  0  0  0  0  0
   -1.6726    6.1858    0.1986 H   0  0  0  0  0  0  0  0  0  0  0  0
  1  4  1  0  0  0  0
  1  2  1  0  0  0  0
  3  1  1  0  0  0  0
  4  8  1  0  0  0  0
  4 16  1  0  0  0  0
  5  6  1  0  0  0  0
  6  1  1  0  0  0  0
  6 17  1  0  0  0  0
  7 25  1  0  0  0  0
  7 34  1  0  0  0  0
  8 10  1  0  0  0  0
  9  8  1  0  0  0  0
 10 11  1  0  0  0  0
 10 12  2  0  0  0  0
 12 13  1  0  0  0  0
 14 15  1  0  0  0  0
 14 12  1  0  0  0  0
 16 14  2  0  0  0  0
 17 16  1  0  0  0  0
 17 18  1  0  0  0  0
 19 17  1  0  0  0  0
 20  6  1  0  0  0  0
 20 28  1  0  0  0  0
 21 20  2  0  0  0  0
 22 21  1  0  0  0  0
 23 21  1  0  0  0  0
 23 25  2  0  0  0  0
 24 23  1  0  0  0  0
 25 26  1  0  0  0  0
 26 28  2  0  0  0  0
 26 27  1  0  0  0  0
 28 29  1  0  0  0  0
 30 32  1  0  0  0  0
 30  7  1  0  0  0  0
 31 30  1  0  0  0  0
 33 30  1  0  0  0  0
 34 35  1  0  0  0  0
 34 37  1  0  0  0  0
 36 34  1  0  0  0  0
M  END
$$$$
