CSD_code = PANLAT | q = 0 | S = 0 | Stoichiometry = C23H18ClF5N2Pd | MND = 4
 OpenBabel04212202083D

 50 53  0  0  1  0  0  0  0  0999 V2000
   10.9209    1.7492   10.2673 Pd  0  0  1  0  0  0  0  0  0  0  0  0
   11.9530   -0.2131   10.1603 Cl  0  0  0  0  0  0  0  0  0  0  0  0
    9.8779    3.4740   10.5243 N   0  0  0  0  0  0  0  0  0  0  0  0
   12.3735    2.5699   11.5251 N   0  0  0  0  0  0  0  0  0  0  0  0
    9.5320    1.0126    9.0963 C   0  0  0  0  0  0  0  0  0  0  0  0
    9.6743    0.9509    7.7218 C   0  0  0  0  0  0  0  0  0  0  0  0
    8.6745    0.4615    6.8949 C   0  0  0  0  0  0  0  0  0  0  0  0
    7.4899    0.0086    7.4727 C   0  0  0  0  0  0  0  0  0  0  0  0
    7.3115    0.0575    8.8538 C   0  0  0  0  0  0  0  0  0  0  0  0
    8.3404    0.5615    9.6338 C   0  0  0  0  0  0  0  0  0  0  0  0
    9.7718    3.9261   11.7122 C   0  0  1  0  0  3  0  0  0  0  0  0
   10.4592    3.1343   12.8023 C   0  0  0  0  0  0  0  0  0  0  0  0
   10.1476    2.0765   12.7137 H   0  0  0  0  0  0  0  0  0  0  0  0
   10.2078    3.5173   13.7902 H   0  0  0  0  0  0  0  0  0  0  0  0
   11.9477    3.2270   12.5308 C   0  0  2  0  0  3  0  0  0  0  0  0
   13.6863    2.4931   11.0571 C   0  0  0  0  0  0  0  0  0  0  0  0
   13.8637    2.4687    9.6694 C   0  0  0  0  0  0  0  0  0  0  0  0
   12.9869    2.5058    9.0135 H   0  0  0  0  0  0  0  0  0  0  0  0
   15.1319    2.3584    9.1372 C   0  0  0  0  0  0  0  0  0  0  0  0
   15.2629    2.3400    8.0662 H   0  0  0  0  0  0  0  0  0  0  0  0
   16.2320    2.2414    9.9747 C   0  0  0  0  0  0  0  0  0  0  0  0
   17.2215    2.1392    9.5560 H   0  0  0  0  0  0  0  0  0  0  0  0
   16.0553    2.2206   11.3469 C   0  0  0  0  0  0  0  0  0  0  0  0
   16.9052    2.0937   12.0009 H   0  0  0  0  0  0  0  0  0  0  0  0
   14.7912    2.3505   11.8945 C   0  0  0  0  0  0  0  0  0  0  0  0
   14.6573    2.2782   12.9631 H   0  0  0  0  0  0  0  0  0  0  0  0
   12.7366    4.1708   13.3821 C   0  0  0  0  0  0  0  0  0  0  0  0
   13.6642    4.4609   12.8927 H   0  0  0  0  0  0  0  0  0  0  0  0
   12.9780    3.7007   14.3358 H   0  0  0  0  0  0  0  0  0  0  0  0
   12.1482    5.0619   13.5951 H   0  0  0  0  0  0  0  0  0  0  0  0
    9.1044    5.2053   12.0997 C   0  0  0  0  0  0  0  0  0  0  0  0
    8.8685    5.8090   11.2262 H   0  0  0  0  0  0  0  0  0  0  0  0
    9.7477    5.7756   12.7683 H   0  0  0  0  0  0  0  0  0  0  0  0
    8.1808    4.9898   12.6374 H   0  0  0  0  0  0  0  0  0  0  0  0
    9.2976    4.0243    9.3764 C   0  0  0  0  0  0  0  0  0  0  0  0
   10.1144    4.2196    8.2620 C   0  0  0  0  0  0  0  0  0  0  0  0
   11.1749    3.9992    8.3390 H   0  0  0  0  0  0  0  0  0  0  0  0
    9.5686    4.6766    7.0797 C   0  0  0  0  0  0  0  0  0  0  0  0
   10.2034    4.8236    6.2196 H   0  0  0  0  0  0  0  0  0  0  0  0
    8.2065    4.9237    6.9905 C   0  0  0  0  0  0  0  0  0  0  0  0
    7.7794    5.2640    6.0600 H   0  0  0  0  0  0  0  0  0  0  0  0
    7.3926    4.7164    8.0906 C   0  0  0  0  0  0  0  0  0  0  0  0
    6.3301    4.8937    8.0205 H   0  0  0  0  0  0  0  0  0  0  0  0
    7.9309    4.2758    9.2870 C   0  0  0  0  0  0  0  0  0  0  0  0
    7.2926    4.0777   10.1353 H   0  0  0  0  0  0  0  0  0  0  0  0
   10.8377    1.4321    7.2197 F   0  0  0  0  0  0  0  0  0  0  0  0
    8.8155    0.4337    5.5615 F   0  0  0  0  0  0  0  0  0  0  0  0
    6.5047   -0.4597    6.6919 F   0  0  0  0  0  0  0  0  0  0  0  0
    6.1557   -0.3590    9.3933 F   0  0  0  0  0  0  0  0  0  0  0  0
    8.2200    0.6806   10.9859 F   0  0  0  0  0  0  0  0  0  0  0  0
  1  2  1  1  0  0  0
  1  3  1  0  0  0  0
  1  4  1  0  0  0  0
  3 11  1  0  0  0  0
  4 15  1  0  0  0  0
  5 10  1  0  0  0  0
  5  1  1  0  0  0  0
  6  5  2  0  0  0  0
  7  8  2  0  0  0  0
  7  6  1  0  0  0  0
  8  9  1  0  0  0  0
  9 49  1  0  0  0  0
  9 10  2  0  0  0  0
 10 50  1  0  0  0  0
 11 31  1  6  0  0  0
 11 12  1  0  0  0  0
 12 14  1  0  0  0  0
 13 12  1  0  0  0  0
 15 12  1  0  0  0  0
 15 27  1  6  0  0  0
 16  4  1  0  0  0  0
 16 25  1  0  0  0  0
 17 16  2  0  0  0  0
 18 17  1  0  0  0  0
 19 17  1  0  0  0  0
 19 21  2  0  0  0  0
 20 19  1  0  0  0  0
 21 23  1  0  0  0  0
 22 21  1  0  0  0  0
 23 25  2  0  0  0  0
 23 24  1  0  0  0  0
 25 26  1  0  0  0  0
 27 30  1  0  0  0  0
 27 29  1  0  0  0  0
 28 27  1  0  0  0  0
 31 34  1  0  0  0  0
 31 33  1  0  0  0  0
 32 31  1  0  0  0  0
 35  3  1  0  0  0  0
 36 37  1  0  0  0  0
 36 35  2  0  0  0  0
 38 36  1  0  0  0  0
 39 38  1  0  0  0  0
 40 38  2  0  0  0  0
 40 42  1  0  0  0  0
 41 40  1  0  0  0  0
 42 44  2  0  0  0  0
 43 42  1  0  0  0  0
 44 35  1  0  0  0  0
 44 45  1  0  0  0  0
 46  6  1  0  0  0  0
 47  7  1  0  0  0  0
 48  8  1  0  0  0  0
M  END
$$$$
