CSD_code = PAPSOR | q = 0 | S = 0 | Stoichiometry = C30H29I2NO3PRe | MND = 6
 OpenBabel04212202083D

 67 72  0  0  1  0  0  0  0  0999 V2000
    6.8914   17.6646    3.0350 Re  0  0  0  0  0  0  0  0  0  0  0  0
    6.1398   15.2845    1.8948 I   0  0  0  0  0  0  0  0  0  0  0  0
    7.6355   19.9046    4.4336 I   0  0  0  0  0  0  0  0  0  0  0  0
    5.0221   17.5957    4.2534 N   0  0  2  0  0  0  0  0  0  0  0  0
    4.9093   16.9829    5.3719 C   0  0  0  0  0  3  0  0  0  0  0  0
    3.9489   17.0017    5.8906 H   0  0  0  0  0  0  0  0  0  0  0  0
    1.1612   19.2313    3.6812 O   0  0  0  0  0  0  0  0  0  0  0  0
    6.2428   18.5530    1.7981 O   0  0  0  0  0  1  0  0  0  0  0  0
   10.1888   16.1972   -0.2494 C   0  0  0  0  0  0  0  0  0  0  0  0
   11.0523   16.0463    0.3838 H   0  0  0  0  0  0  0  0  0  0  0  0
   10.1840   15.7182   -1.5469 C   0  0  0  0  0  0  0  0  0  0  0  0
   11.0457   15.1869   -1.9231 H   0  0  0  0  0  0  0  0  0  0  0  0
    5.9336   16.2439    6.0596 C   0  0  0  0  0  0  0  0  0  0  0  0
    5.6294   15.6253    7.2767 C   0  0  0  0  0  0  0  0  0  0  0  0
    4.6259   15.7174    7.6676 H   0  0  0  0  0  0  0  0  0  0  0  0
    6.5791   14.9106    7.9702 C   0  0  0  0  0  0  0  0  0  0  0  0
    6.3247   14.4395    8.9067 H   0  0  0  0  0  0  0  0  0  0  0  0
    7.8696   14.7966    7.4614 C   0  0  0  0  0  0  0  0  0  0  0  0
    8.6148   14.2363    8.0058 H   0  0  0  0  0  0  0  0  0  0  0  0
    8.2080   15.3920    6.2680 C   0  0  0  0  0  0  0  0  0  0  0  0
    9.2060   15.3109    5.8626 H   0  0  0  0  0  0  0  0  0  0  0  0
    7.2539   16.1220    5.5454 C   0  0  0  0  0  0  0  0  0  0  0  0
    7.5508   16.6896    4.4145 O   0  0  0  0  0  0  0  0  0  0  0  0
    3.8746   18.3019    3.7044 C   0  0  0  0  0  0  0  0  0  0  0  0
    4.2090   18.7420    2.7535 H   0  0  0  0  0  0  0  0  0  0  0  0
    2.6986   17.3650    3.4047 C   0  0  0  0  0  0  0  0  0  0  0  0
    3.0010   16.5909    2.6979 H   0  0  0  0  0  0  0  0  0  0  0  0
    2.3506   16.8859    4.3222 H   0  0  0  0  0  0  0  0  0  0  0  0
    1.5586   18.1960    2.8133 C   0  0  0  0  0  0  0  0  0  0  0  0
    1.8755   18.6159    1.8460 H   0  0  0  0  0  0  0  0  0  0  0  0
    0.6725   17.5776    2.6585 H   0  0  0  0  0  0  0  0  0  0  0  0
    2.2120   20.1322    3.9405 C   0  0  0  0  0  0  0  0  0  0  0  0
    1.7941   20.9005    4.5936 H   0  0  0  0  0  0  0  0  0  0  0  0
    2.5453   20.6026    3.0024 H   0  0  0  0  0  0  0  0  0  0  0  0
    9.0450   17.6081    1.8896 P   0  0  0  0  0  4  0  0  0  0  0  0
   10.1743   16.6830    2.9472 C   0  0  0  0  0  0  0  0  0  0  0  0
   10.2121   15.2924    2.8610 C   0  0  0  0  0  0  0  0  0  0  0  0
    9.6319   14.7813    2.1038 H   0  0  0  0  0  0  0  0  0  0  0  0
   10.9838   14.5727    3.7550 C   0  0  0  0  0  0  0  0  0  0  0  0
   11.0162   13.4953    3.6876 H   0  0  0  0  0  0  0  0  0  0  0  0
   11.6987   15.2314    4.7443 C   0  0  0  0  0  0  0  0  0  0  0  0
   12.2972   14.6653    5.4430 H   0  0  0  0  0  0  0  0  0  0  0  0
   11.6295   16.6122    4.8546 C   0  0  0  0  0  0  0  0  0  0  0  0
   12.1642   17.1214    5.6427 H   0  0  0  0  0  0  0  0  0  0  0  0
   10.8615   17.3417    3.9652 C   0  0  0  0  0  0  0  0  0  0  0  0
   10.7846   18.4166    4.0626 H   0  0  0  0  0  0  0  0  0  0  0  0
    9.0707   16.8660    0.2357 C   0  0  0  0  0  0  0  0  0  0  0  0
    9.0798   15.9158   -2.3599 C   0  0  0  0  0  0  0  0  0  0  0  0
    9.0800   15.5303   -3.3684 H   0  0  0  0  0  0  0  0  0  0  0  0
    7.9768   16.6067   -1.8841 C   0  0  0  0  0  0  0  0  0  0  0  0
    7.1184   16.7630   -2.5192 H   0  0  0  0  0  0  0  0  0  0  0  0
    7.9720   17.0882   -0.5890 C   0  0  0  0  0  0  0  0  0  0  0  0
    7.1137   17.6234   -0.1988 H   0  0  0  0  0  0  0  0  0  0  0  0
    9.8022   19.2082    1.4983 C   0  0  0  0  0  0  0  0  0  0  0  0
   11.1821   19.3711    1.4521 C   0  0  0  0  0  0  0  0  0  0  0  0
   11.8376   18.5543    1.7220 H   0  0  0  0  0  0  0  0  0  0  0  0
   11.7098   20.5899    1.0663 C   0  0  0  0  0  0  0  0  0  0  0  0
   12.7812   20.7241    1.0413 H   0  0  0  0  0  0  0  0  0  0  0  0
   10.8702   21.6344    0.7151 C   0  0  0  0  0  0  0  0  0  0  0  0
   11.2898   22.5853    0.4228 H   0  0  0  0  0  0  0  0  0  0  0  0
    9.4953   21.4627    0.7365 C   0  0  0  0  0  0  0  0  0  0  0  0
    8.8421   22.2760    0.4599 H   0  0  0  0  0  0  0  0  0  0  0  0
    8.9588   20.2492    1.1221 C   0  0  0  0  0  0  0  0  0  0  0  0
    7.8851   20.1014    1.1524 H   0  0  0  0  0  0  0  0  0  0  0  0
    3.3996   19.4417    4.6131 C   0  0  0  0  0  0  0  0  0  0  0  0
    4.2052   20.1597    4.7740 H   0  0  0  0  0  0  0  0  0  0  0  0
    3.0813   19.0486    5.5808 H   0  0  0  0  0  0  0  0  0  0  0  0
  1  4  1  0  0  0  0
  1 23  1  0  0  0  0
  1  3  1  0  0  0  0
  2  1  1  0  0  0  0
  4 24  1  6  0  0  0
  4  5  1  0  0  0  0
  5  6  1  0  0  0  0
  5 13  1  0  0  0  0
  7 32  1  0  0  0  0
  8  1  1  0  0  0  0
  9 47  1  0  0  0  0
  9 10  1  0  0  0  0
 11  9  2  0  0  0  0
 12 11  1  0  0  0  0
 13 14  1  0  0  0  0
 14 15  1  0  0  0  0
 14 16  2  0  0  0  0
 16 17  1  0  0  0  0
 18 16  1  0  0  0  0
 18 19  1  0  0  0  0
 20 18  2  0  0  0  0
 21 20  1  0  0  0  0
 22 13  2  0  0  0  0
 22 20  1  0  0  0  0
 23 22  1  0  0  0  0
 24 65  1  0  0  0  0
 25 24  1  0  0  0  0
 26 24  1  0  0  0  0
 26 28  1  0  0  0  0
 27 26  1  0  0  0  0
 29 26  1  0  0  0  0
 29  7  1  0  0  0  0
 30 29  1  0  0  0  0
 31 29  1  0  0  0  0
 32 33  1  0  0  0  0
 32 65  1  0  0  0  0
 34 32  1  0  0  0  0
 35 36  1  0  0  0  0
 35  1  1  0  0  0  0
 36 45  1  0  0  0  0
 37 36  2  0  0  0  0
 37 39  1  0  0  0  0
 38 37  1  0  0  0  0
 39 41  2  0  0  0  0
 40 39  1  0  0  0  0
 41 43  1  0  0  0  0
 41 42  1  0  0  0  0
 43 44  1  0  0  0  0
 45 46  1  0  0  0  0
 45 43  2  0  0  0  0
 47 35  1  0  0  0  0
 48 50  2  0  0  0  0
 48 11  1  0  0  0  0
 49 48  1  0  0  0  0
 50 52  1  0  0  0  0
 51 50  1  0  0  0  0
 52 53  1  0  0  0  0
 52 47  2  0  0  0  0
 54 35  1  0  0  0  0
 55 54  1  0  0  0  0
 55 56  1  0  0  0  0
 57 55  2  0  0  0  0
 58 57  1  0  0  0  0
 59 61  2  0  0  0  0
 59 57  1  0  0  0  0
 60 59  1  0  0  0  0
 61 63  1  0  0  0  0
 62 61  1  0  0  0  0
 63 64  1  0  0  0  0
 63 54  2  0  0  0  0
 65 66  1  0  0  0  0
 65 67  1  0  0  0  0
M  END
$$$$
