CSD_code = PAPSEE | q = 0 | S = 0 | Stoichiometry = C14H17ClNORh | MND = 5
 OpenBabel04212202083D

 35 36  0  0  1  0  0  0  0  0999 V2000
    5.6134    4.4267    8.2773 Rh  0  0  0  0  0  0  0  0  0  0  0  0
    4.8323    6.5137    8.1377 Cl  0  0  0  0  0 15  0  0  0  0  0  0
    4.1062    3.8784    9.1538 C   0  0  0  0  0  2  0  0  0  0  0  0
    3.1513    3.5500    9.6935 O   0  0  0  0  0  1  0  0  0  0  0  0
    7.2590    5.0927    7.2423 N   0  0  2  0  0  4  0  0  0  0  0  0
    7.8340    5.8166    7.6745 H   0  0  0  0  0  0  0  0  0  0  0  0
    7.2401    5.1856    5.7876 C   0  0  0  0  0  0  0  0  0  0  0  0
    5.9079    4.9172    5.1229 C   0  0  0  0  0  0  0  0  0  0  0  0
    8.0045    6.3346    5.1695 C   0  0  0  0  0  0  0  0  0  0  0  0
    7.9925    4.0918    6.4743 C   0  0  1  0  0  0  0  0  0  0  0  0
    9.4868    4.1186    6.4874 C   0  0  0  0  0  0  0  0  0  0  0  0
   10.2016    4.5636    7.5925 C   0  0  0  0  0  0  0  0  0  0  0  0
   11.5857    4.5542    7.5796 C   0  0  0  0  0  0  0  0  0  0  0  0
   12.2679    4.0992    6.4649 C   0  0  0  0  0  0  0  0  0  0  0  0
   11.5616    3.6474    5.3622 C   0  0  0  0  0  0  0  0  0  0  0  0
   10.1794    3.6548    5.3735 C   0  0  0  0  0  0  0  0  0  0  0  0
    7.3850    2.6885    6.5468 C   0  0  0  0  0  0  0  0  0  0  0  0
    6.4294    2.5381    7.7199 C   0  0  0  0  0  3  0  0  0  0  0  0
    5.6693    1.7728    7.5774 H   0  0  0  0  0  0  0  0  0  0  0  0
    6.8370    2.8514    9.0186 C   0  0  0  0  0  0  0  0  0  0  0  0
    7.8532    3.1970    9.1890 H   0  0  0  0  0  0  0  0  0  0  0  0
    6.3943    2.3327    9.8603 H   0  0  0  0  0  0  0  0  0  0  0  0
    5.2642    4.3082    5.7715 H   0  0  0  0  0  0  0  0  0  0  0  0
    6.0478    4.4116    4.1686 H   0  0  0  0  0  0  0  0  0  0  0  0
    5.3983    5.8623    4.9481 H   0  0  0  0  0  0  0  0  0  0  0  0
    8.9848    6.4573    5.6261 H   0  0  0  0  0  0  0  0  0  0  0  0
    7.4395    7.2567    5.2963 H   0  0  0  0  0  0  0  0  0  0  0  0
    8.1435    6.1602    4.1047 H   0  0  0  0  0  0  0  0  0  0  0  0
    9.6829    4.9123    8.4752 H   0  0  0  0  0  0  0  0  0  0  0  0
   12.1307    4.9021    8.4444 H   0  0  0  0  0  0  0  0  0  0  0  0
   13.3473    4.0942    6.4562 H   0  0  0  0  0  0  0  0  0  0  0  0
   12.0895    3.2894    4.4911 H   0  0  0  0  0  0  0  0  0  0  0  0
    9.6254    3.3042    4.5151 H   0  0  0  0  0  0  0  0  0  0  0  0
    6.8675    2.4571    5.6134 H   0  0  0  0  0  0  0  0  0  0  0  0
    8.1935    1.9586    6.6602 H   0  0  0  0  0  0  0  0  0  0  0  0
  1 20  1  0  0  0  0
  1  3  1  0  0  0  0
  3  4  1  0  0  0  0
  5  6  1  1  0  0  0
  5  1  1  0  0  0  0
  7 10  1  0  0  0  0
  7  5  1  0  0  0  0
  8 23  1  0  0  0  0
  8  7  1  0  0  0  0
  9 27  1  0  0  0  0
  9 26  1  0  0  0  0
  9  7  1  0  0  0  0
 10 11  1  1  0  0  0
 10 17  1  0  0  0  0
 10  5  1  0  0  0  0
 11 12  1  0  0  0  0
 12 29  1  0  0  0  0
 13 12  2  0  0  0  0
 13 30  1  0  0  0  0
 14 13  1  0  0  0  0
 15 16  1  0  0  0  0
 15 14  2  0  0  0  0
 16 11  2  0  0  0  0
 17 35  1  0  0  0  0
 17 18  1  0  0  0  0
 18 20  1  0  0  0  0
 19 18  1  0  0  0  0
 20 21  1  0  0  0  0
 20 22  1  0  0  0  0
 24  8  1  0  0  0  0
 25  8  1  0  0  0  0
 28  9  1  0  0  0  0
 31 14  1  0  0  0  0
 32 15  1  0  0  0  0
 33 16  1  0  0  0  0
 34 17  1  0  0  0  0
M  END
$$$$
