CSD_code = PAQKOK | q = 0 | S = 0 | Stoichiometry = C21H27ClN3OPRu | MND = 6
 OpenBabel04212202083D

 55 59  0  0  0  0  0  0  0  0999 V2000
    1.7093   13.4288    2.4570 Ru  0  0  0  0  0  0  0  0  0  0  0  0
    2.8748   11.5373    1.7466 P   0  0  0  0  0  4  0  0  0  0  0  0
    0.8571   12.5975    5.2076 O   0  0  0  0  0  1  0  0  0  0  0  0
    3.4574   12.1353    0.2498 N   0  0  0  0  0  0  0  0  0  0  0  0
    2.3697   14.0886    0.7124 N   0  0  0  0  0  0  0  0  0  0  0  0
    0.9168   15.2707    2.5126 N   0  0  0  0  0  0  0  0  0  0  0  0
    0.1920   15.8664    3.4500 C   0  0  0  0  0  0  0  0  0  0  0  0
   -0.1146   15.2558    4.2905 H   0  0  0  0  0  0  0  0  0  0  0  0
   -0.1683   17.2116    3.3878 C   0  0  0  0  0  0  0  0  0  0  0  0
   -0.7553   17.6316    4.1896 H   0  0  0  0  0  0  0  0  0  0  0  0
    0.2315   17.9919    2.3246 C   0  0  0  0  0  0  0  0  0  0  0  0
   -0.0283   19.0378    2.2650 H   0  0  0  0  0  0  0  0  0  0  0  0
    1.0033   17.3977    1.3138 C   0  0  0  0  0  0  0  0  0  0  0  0
    1.5064   18.0866    0.1723 C   0  0  0  0  0  0  0  0  0  0  0  0
    1.2602   19.1329    0.0674 H   0  0  0  0  0  0  0  0  0  0  0  0
    2.2849   17.4658   -0.7524 C   0  0  0  0  0  0  0  0  0  0  0  0
    2.6692   18.0110   -1.6020 H   0  0  0  0  0  0  0  0  0  0  0  0
    2.6273   16.0922   -0.6243 C   0  0  0  0  0  0  0  0  0  0  0  0
    3.4614   15.3718   -1.4991 C   0  0  0  0  0  0  0  0  0  0  0  0
    3.8823   15.8607   -2.3646 H   0  0  0  0  0  0  0  0  0  0  0  0
    3.7534   14.0565   -1.2288 C   0  0  0  0  0  0  0  0  0  0  0  0
    4.4141   13.4925   -1.8700 H   0  0  0  0  0  0  0  0  0  0  0  0
    3.1988   13.4332   -0.0949 C   0  0  0  0  0  0  0  0  0  0  0  0
    2.1146   15.3865    0.4806 C   0  0  0  0  0  0  0  0  0  0  0  0
    1.3117   16.0302    1.4591 C   0  0  0  0  0  0  0  0  0  0  0  0
    4.4655   11.0084    2.6514 C   0  0  0  0  0  0  0  0  0  0  0  0
    5.5566   12.0195    2.2942 C   0  0  0  0  0  0  0  0  0  0  0  0
    6.3950   11.9005    2.9784 H   0  0  0  0  0  0  0  0  0  0  0  0
    5.1890   13.0389    2.4007 H   0  0  0  0  0  0  0  0  0  0  0  0
    5.9275   11.8721    1.2801 H   0  0  0  0  0  0  0  0  0  0  0  0
    4.9995    9.6031    2.3885 C   0  0  0  0  0  0  0  0  0  0  0  0
    5.9335    9.4860    2.9384 H   0  0  0  0  0  0  0  0  0  0  0  0
    5.2158    9.4383    1.3362 H   0  0  0  0  0  0  0  0  0  0  0  0
    4.3131    8.8410    2.7463 H   0  0  0  0  0  0  0  0  0  0  0  0
    4.1090   11.1399    4.1341 C   0  0  0  0  0  0  0  0  0  0  0  0
    3.2349   10.5368    4.3812 H   0  0  0  0  0  0  0  0  0  0  0  0
    3.8898   12.1792    4.3736 H   0  0  0  0  0  0  0  0  0  0  0  0
    4.9423   10.8150    4.7551 H   0  0  0  0  0  0  0  0  0  0  0  0
    1.9160   10.0236    1.1139 C   0  0  0  0  0  0  0  0  0  0  0  0
    2.7153    8.9572    0.3621 C   0  0  0  0  0  0  0  0  0  0  0  0
    3.2425    8.2853    1.0286 H   0  0  0  0  0  0  0  0  0  0  0  0
    3.4261    9.4012   -0.3323 H   0  0  0  0  0  0  0  0  0  0  0  0
    2.0224    8.3531   -0.2231 H   0  0  0  0  0  0  0  0  0  0  0  0
    1.2176    9.4335    2.3357 C   0  0  0  0  0  0  0  0  0  0  0  0
    0.5152    8.6565    2.0383 H   0  0  0  0  0  0  0  0  0  0  0  0
    0.6706   10.2222    2.8554 H   0  0  0  0  0  0  0  0  0  0  0  0
    1.9365    8.9966    3.0263 H   0  0  0  0  0  0  0  0  0  0  0  0
    0.8698   10.5682    0.1381 C   0  0  0  0  0  0  0  0  0  0  0  0
    1.3384   10.9154   -0.7816 H   0  0  0  0  0  0  0  0  0  0  0  0
    0.3199   11.3942    0.5823 H   0  0  0  0  0  0  0  0  0  0  0  0
    0.1602    9.7825   -0.1155 H   0  0  0  0  0  0  0  0  0  0  0  0
    1.1725   12.9069    4.1450 C   0  0  0  0  0  2  0  0  0  0  0  0
    3.6248   14.5781    3.3231 Cl  0  0  0  0  0  0  0  0  0  0  0  0
    0.3897   12.9168    1.8843 H   0  0  0  0  0  0  0  0  0  0  0  0
    4.1237   11.6215   -0.3128 H   0  0  0  0  0  0  0  0  0  0  0  0
  1  6  1  0  0  0  0
  1 53  1  0  0  0  0
  1 52  1  0  0  0  0
  2  1  1  0  0  0  0
  2 26  1  0  0  0  0
  4  2  1  0  0  0  0
  5  1  1  0  0  0  0
  6  7  1  0  0  0  0
  7  8  1  0  0  0  0
  9  7  2  0  0  0  0
  9 10  1  0  0  0  0
 11  9  1  0  0  0  0
 12 11  1  0  0  0  0
 13 25  1  0  0  0  0
 13 11  2  0  0  0  0
 14 13  1  0  0  0  0
 15 14  1  0  0  0  0
 16 18  1  0  0  0  0
 16 14  2  0  0  0  0
 17 16  1  0  0  0  0
 18 24  1  0  0  0  0
 19 21  1  0  0  0  0
 19 18  2  0  0  0  0
 20 19  1  0  0  0  0
 21 23  2  0  0  0  0
 22 21  1  0  0  0  0
 23  4  1  0  0  0  0
 23  5  1  0  0  0  0
 24  5  1  0  0  0  0
 24 25  2  0  0  0  0
 25  6  1  0  0  0  0
 26 35  1  0  0  0  0
 27 29  1  0  0  0  0
 27 26  1  0  0  0  0
 27 28  1  0  0  0  0
 30 27  1  0  0  0  0
 31 26  1  0  0  0  0
 31 34  1  0  0  0  0
 31 32  1  0  0  0  0
 33 31  1  0  0  0  0
 35 37  1  0  0  0  0
 35 36  1  0  0  0  0
 35 38  1  0  0  0  0
 39  2  1  0  0  0  0
 39 44  1  0  0  0  0
 40 41  1  0  0  0  0
 40 39  1  0  0  0  0
 42 40  1  0  0  0  0
 43 40  1  0  0  0  0
 44 46  1  0  0  0  0
 44 47  1  0  0  0  0
 45 44  1  0  0  0  0
 48 50  1  0  0  0  0
 48 39  1  0  0  0  0
 49 48  1  0  0  0  0
 51 48  1  0  0  0  0
 52  3  1  0  0  0  0
 54  1  1  0  0  0  0
 55  4  1  0  0  0  0
M  END
$$$$
