CSD_code = PAQKUQ | q = 0 | S = 0 | Stoichiometry = C19H27ClN3OPRu | MND = 6
 OpenBabel04212202083D

 53 56  0  0  1  0  0  0  0  0999 V2000
    0.0676    3.4940    4.1678 Ru  0  0  0  0  0  0  0  0  0  0  0  0
    1.5925    5.0707    3.3970 P   0  0  0  0  0  4  0  0  0  0  0  0
    1.6462    2.0123    5.2001 Cl  0  0  0  0  0  0  0  0  0  0  0  0
    1.5885    6.0703    4.7817 N   0  0  0  0  0  0  0  0  0  0  0  0
    0.2053    4.5531    5.8230 N   0  0  0  0  0  0  0  0  0  0  0  0
   -1.1834    2.4741    5.3213 N   0  0  0  0  0  0  0  0  0  0  0  0
   -0.0727    1.7299    1.7470 O   0  0  0  0  0  1  0  0  0  0  0  0
   -1.8755    1.3851    4.9805 C   0  0  0  0  0  3  0  0  0  0  0  0
   -1.8390    1.1004    3.9358 H   0  0  0  0  0  0  0  0  0  0  0  0
   -2.6022    0.6367    5.8844 C   0  0  0  0  0  0  0  0  0  0  0  0
   -3.1325   -0.2402    5.5497 H   0  0  0  0  0  0  0  0  0  0  0  0
   -2.6273    1.0261    7.2185 C   0  0  0  0  0  0  0  0  0  0  0  0
   -3.1788    0.4599    7.9526 H   0  0  0  0  0  0  0  0  0  0  0  0
   -1.9224    2.1560    7.5817 C   0  0  0  0  0  0  0  0  0  0  0  0
   -1.9134    2.4862    8.6077 H   0  0  0  0  0  0  0  0  0  0  0  0
   -1.2056    2.8648    6.6188 C   0  0  0  0  0  0  0  0  0  0  0  0
   -0.4169    4.0571    6.9073 C   0  0  1  0  0  3  0  0  0  0  0  0
   -0.2824    4.6576    8.1574 C   0  0  0  0  0  0  0  0  0  0  0  0
   -0.7837    4.2529    9.0199 H   0  0  0  0  0  0  0  0  0  0  0  0
    0.5184    5.7801    8.2767 C   0  0  0  0  0  0  0  0  0  0  0  0
    0.6438    6.2616    9.2340 H   0  0  0  0  0  0  0  0  0  0  0  0
    1.1686    6.2764    7.1596 C   0  0  0  0  0  0  0  0  0  0  0  0
    1.8099    7.1416    7.2252 H   0  0  0  0  0  0  0  0  0  0  0  0
    0.9926    5.6304    5.9366 C   0  0  0  0  0  0  0  0  0  0  0  0
    1.1058    6.3448    2.0760 C   0  0  0  0  0  0  0  0  0  0  0  0
   -0.3386    6.7442    2.3836 C   0  0  0  0  0  0  0  0  0  0  0  0
   -0.4240    7.1520    3.3899 H   0  0  0  0  0  0  0  0  0  0  0  0
   -0.9982    5.8853    2.3028 H   0  0  0  0  0  0  0  0  0  0  0  0
   -0.6722    7.5014    1.6758 H   0  0  0  0  0  0  0  0  0  0  0  0
    1.9318    7.6321    2.0405 C   0  0  0  0  0  0  0  0  0  0  0  0
    1.4078    8.3632    1.4254 H   0  0  0  0  0  0  0  0  0  0  0  0
    2.9125    7.4914    1.6036 H   0  0  0  0  0  0  0  0  0  0  0  0
    2.0407    8.0636    3.0335 H   0  0  0  0  0  0  0  0  0  0  0  0
    1.1422    5.6221    0.7319 C   0  0  0  0  0  0  0  0  0  0  0  0
    0.6555    6.2233   -0.0346 H   0  0  0  0  0  0  0  0  0  0  0  0
    0.6100    4.6729    0.8173 H   0  0  0  0  0  0  0  0  0  0  0  0
    2.1617    5.4239    0.4089 H   0  0  0  0  0  0  0  0  0  0  0  0
    3.4341    4.6107    3.2136 C   0  0  0  0  0  0  0  0  0  0  0  0
    4.3519    5.6212    2.5304 C   0  0  0  0  0  0  0  0  0  0  0  0
    5.3723    5.2400    2.5771 H   0  0  0  0  0  0  0  0  0  0  0  0
    4.3392    6.5852    3.0341 H   0  0  0  0  0  0  0  0  0  0  0  0
    4.1022    5.7512    1.4812 H   0  0  0  0  0  0  0  0  0  0  0  0
    3.4301    3.3027    2.4204 C   0  0  0  0  0  0  0  0  0  0  0  0
    4.4497    2.9591    2.2522 H   0  0  0  0  0  0  0  0  0  0  0  0
    2.9425    3.4282    1.4546 H   0  0  0  0  0  0  0  0  0  0  0  0
    2.8992    2.5328    2.9777 H   0  0  0  0  0  0  0  0  0  0  0  0
    3.9743    4.3527    4.6222 C   0  0  0  0  0  0  0  0  0  0  0  0
    3.3106    3.6927    5.1784 H   0  0  0  0  0  0  0  0  0  0  0  0
    4.1117    5.2796    5.1792 H   0  0  0  0  0  0  0  0  0  0  0  0
    4.9415    3.8576    4.5521 H   0  0  0  0  0  0  0  0  0  0  0  0
   -0.0310    2.4164    2.6701 C   0  0  0  0  0  2  0  0  0  0  0  0
   -1.1086    4.3282    3.6741 H   0  0  0  0  0  0  0  0  0  0  0  0
    2.2529    6.8292    4.8762 H   0  0  0  0  0  0  0  0  0  0  0  0
  1  3  1  0  0  0  0
  1  6  1  0  0  0  0
  1  5  1  0  0  0  0
  2  1  1  0  0  0  0
  2  4  1  0  0  0  0
  4 53  1  0  0  0  0
  4 24  1  0  0  0  0
  5 24  1  0  0  0  0
  5 17  1  0  0  0  0
  6 16  1  0  0  0  0
  7 51  1  0  0  0  0
  8  6  1  0  0  0  0
  8 10  1  0  0  0  0
  9  8  1  0  0  0  0
 10 12  2  0  0  0  0
 11 10  1  0  0  0  0
 12 14  1  0  0  0  0
 12 13  1  0  0  0  0
 14 15  1  0  0  0  0
 16 14  2  0  0  0  0
 17 16  1  1  0  0  0
 17 18  1  0  0  0  0
 18 20  2  0  0  0  0
 18 19  1  0  0  0  0
 20 21  1  0  0  0  0
 22 23  1  0  0  0  0
 22 20  1  0  0  0  0
 24 22  2  0  0  0  0
 25 26  1  0  0  0  0
 25  2  1  0  0  0  0
 26 27  1  0  0  0  0
 28 26  1  0  0  0  0
 29 26  1  0  0  0  0
 30 25  1  0  0  0  0
 30 33  1  0  0  0  0
 31 30  1  0  0  0  0
 32 30  1  0  0  0  0
 34 36  1  0  0  0  0
 34 25  1  0  0  0  0
 35 34  1  0  0  0  0
 37 34  1  0  0  0  0
 38  2  1  0  0  0  0
 38 47  1  0  0  0  0
 39 40  1  0  0  0  0
 39 41  1  0  0  0  0
 39 38  1  0  0  0  0
 42 39  1  0  0  0  0
 43 46  1  0  0  0  0
 43 38  1  0  0  0  0
 44 43  1  0  0  0  0
 45 43  1  0  0  0  0
 47 48  1  0  0  0  0
 47 49  1  0  0  0  0
 50 47  1  0  0  0  0
 51  1  1  0  0  0  0
 52  1  1  0  0  0  0
M  END
$$$$
