CSD_code = PAQQUV | q = 0 | S = 0 | Stoichiometry = C6H14I2N2Pt | MND = 4
 OpenBabel04212202083D

 25 26  0  0  1  0  0  0  0  0999 V2000
    2.6642    3.7453    5.4658 Pt  0  0  0  0  0  0  0  0  0  0  0  0
    4.5262    3.8430    3.7016 I   0  0  0  0  0  0  0  0  0  0  0  0
    0.6741    3.6530    3.8473 I   0  0  0  0  0  0  0  0  0  0  0  0
    4.1154    3.7946    7.0704 N   0  0  0  0  0  4  0  0  0  0  0  0
    1.3384    3.6915    7.1757 N   0  0  0  0  0  4  0  0  0  0  0  0
    4.2916    3.7931    9.5602 C   0  0  0  0  0  0  0  0  0  0  0  0
    1.3509    3.7026    9.6717 C   0  0  0  0  0  0  0  0  0  0  0  0
    2.1053    3.3654    8.3835 C   0  0  2  0  0  0  0  0  0  0  0  0
    3.4422    4.1257    8.3315 C   0  0  2  0  0  0  0  0  0  0  0  0
    2.2067    3.3724   10.8922 C   0  0  0  0  0  0  0  0  0  0  0  0
    3.5305    4.1294   10.8403 C   0  0  0  0  0  0  0  0  0  0  0  0
    4.5360    2.7270    9.5524 H   0  0  0  0  0  0  0  0  0  0  0  0
    5.2283    4.3538    9.5239 H   0  0  0  0  0  0  0  0  0  0  0  0
    1.1053    4.7685    9.6780 H   0  0  0  0  0  0  0  0  0  0  0  0
    0.4147    3.1409    9.7086 H   0  0  0  0  0  0  0  0  0  0  0  0
    2.3182    2.2879    8.3612 H   0  0  0  0  0  0  0  0  0  0  0  0
    3.2287    5.2032    8.3210 H   0  0  0  0  0  0  0  0  0  0  0  0
    1.6640    3.6366   11.8002 H   0  0  0  0  0  0  0  0  0  0  0  0
    2.4011    2.2980   10.9203 H   0  0  0  0  0  0  0  0  0  0  0  0
    4.1403    3.8697   11.7061 H   0  0  0  0  0  0  0  0  0  0  0  0
    3.3386    5.2040   10.8777 H   0  0  0  0  0  0  0  0  0  0  0  0
    4.5185    2.8559    7.1141 H   0  0  0  0  0  0  0  0  0  0  0  0
    4.8844    4.4345    6.8700 H   0  0  0  0  0  0  0  0  0  0  0  0
    0.9339    4.6277    7.2486 H   0  0  0  0  0  0  0  0  0  0  0  0
    0.5599    3.0474    7.0338 H   0  0  0  0  0  0  0  0  0  0  0  0
  1  4  1  0  0  0  0
  1  5  1  0  0  0  0
  2  1  1  0  0  0  0
  3  1  1  0  0  0  0
  4 22  1  0  0  0  0
  4  9  1  0  0  0  0
  5 24  1  0  0  0  0
  5  8  1  0  0  0  0
  6 11  1  0  0  0  0
  7 14  1  0  0  0  0
  7 15  1  0  0  0  0
  7 10  1  0  0  0  0
  8 16  1  6  0  0  0
  8  7  1  0  0  0  0
  9 17  1  1  0  0  0
  9  8  1  0  0  0  0
  9  6  1  0  0  0  0
 10 19  1  0  0  0  0
 10 18  1  0  0  0  0
 11 21  1  0  0  0  0
 11 10  1  0  0  0  0
 11 20  1  0  0  0  0
 12  6  1  0  0  0  0
 13  6  1  0  0  0  0
 23  4  1  0  0  0  0
 25  5  1  0  0  0  0
M  END
$$$$
