CSD_code = PARBIU | q = 0 | S = 0 | Stoichiometry = C30H32BrIrN2 | MND = 6
 OpenBabel04212202083D

 66 69  0  0  1  0  0  0  0  0999 V2000
    3.4943    3.5207    8.6545 C   0  0  2  0  0  3  0  0  0  0  0  0
    5.2709    3.3476   10.0375 C   0  0  0  0  0  0  0  0  0  0  0  0
    6.0015    3.6935   10.7386 H   0  0  0  0  0  0  0  0  0  0  0  0
    5.1008    2.1219    9.4600 C   0  0  0  0  0  0  0  0  0  0  0  0
    5.8248    0.9092    9.5283 C   0  0  0  0  0  0  0  0  0  0  0  0
    6.6961    0.8669   10.1610 H   0  0  0  0  0  0  0  0  0  0  0  0
    5.3977   -0.1465    8.7920 C   0  0  0  0  0  0  0  0  0  0  0  0
    5.9281   -1.0853    8.8023 H   0  0  0  0  0  0  0  0  0  0  0  0
    4.2033   -0.0361    8.0377 C   0  0  0  0  0  0  0  0  0  0  0  0
    3.8188   -0.9073    7.5330 H   0  0  0  0  0  0  0  0  0  0  0  0
    3.4840    1.1226    7.9868 C   0  0  0  0  0  0  0  0  0  0  0  0
    0.7831    4.6645    5.7116 C   0  0  0  0  0  3  0  0  0  0  0  0
   -0.1939    4.4707    6.1506 H   0  0  0  0  0  0  0  0  0  0  0  0
    1.3748    5.8903    5.9418 C   0  0  0  0  0  3  0  0  0  0  0  0
    0.8558    6.6068    6.5729 H   0  0  0  0  0  0  0  0  0  0  0  0
    2.3730    6.4998    4.9872 C   0  0  0  0  0  0  0  0  0  0  0  0
    2.2587    7.5859    4.9941 H   0  0  0  0  0  0  0  0  0  0  0  0
    2.1538    6.1590    3.9735 H   0  0  0  0  0  0  0  0  0  0  0  0
    3.8194    6.1474    5.3675 C   0  0  0  0  0  0  0  0  0  0  0  0
    4.4577    6.1459    4.4756 H   0  0  0  0  0  0  0  0  0  0  0  0
    4.2016    6.9237    6.0343 H   0  0  0  0  0  0  0  0  0  0  0  0
    3.9465    4.8187    6.0764 C   0  0  2  0  0  0  0  0  0  0  0  0
    4.8899    4.7279    6.6122 H   0  0  0  0  0  0  0  0  0  0  0  0
    3.3699    3.6183    5.6268 C   0  0  0  0  0  3  0  0  0  0  0  0
    3.9072    2.7076    5.8816 H   0  0  0  0  0  0  0  0  0  0  0  0
    2.5877    3.5103    4.3354 C   0  0  0  0  0  0  0  0  0  0  0  0
    2.7021    2.4996    3.9379 H   0  0  0  0  0  0  0  0  0  0  0  0
    3.0215    4.1946    3.6020 H   0  0  0  0  0  0  0  0  0  0  0  0
    1.0859    3.7993    4.5144 C   0  0  0  0  0  0  0  0  0  0  0  0
    0.6855    4.2794    3.6139 H   0  0  0  0  0  0  0  0  0  0  0  0
    0.5554    2.8542    4.6375 H   0  0  0  0  0  0  0  0  0  0  0  0
    2.1626    1.1486    7.3497 C   0  0  0  0  0  0  0  0  0  0  0  0
    1.9559    0.5238    6.1215 C   0  0  0  0  0  0  0  0  0  0  0  0
    2.7964    0.1040    5.5876 H   0  0  0  0  0  0  0  0  0  0  0  0
    0.6874    0.4546    5.5779 C   0  0  0  0  0  0  0  0  0  0  0  0
    0.5387   -0.0303    4.6236 H   0  0  0  0  0  0  0  0  0  0  0  0
   -0.3918    1.0068    6.2522 C   0  0  0  0  0  0  0  0  0  0  0  0
   -1.3816    0.9520    5.8231 H   0  0  0  0  0  0  0  0  0  0  0  0
   -0.1985    1.6198    7.4773 C   0  0  0  0  0  0  0  0  0  0  0  0
   -1.0315    2.0454    8.0155 H   0  0  0  0  0  0  0  0  0  0  0  0
    1.0709    1.6938    8.0273 C   0  0  0  0  0  0  0  0  0  0  0  0
    1.1969    2.0925    9.0215 H   0  0  0  0  0  0  0  0  0  0  0  0
    4.0790    5.4717   10.0637 C   0  0  0  0  0  0  0  0  0  0  0  0
    4.7967    6.5605    9.5784 C   0  0  0  0  0  0  0  0  0  0  0  0
    4.5059    7.8218   10.0837 C   0  0  0  0  0  0  0  0  0  0  0  0
    5.0457    8.6729    9.6932 H   0  0  0  0  0  0  0  0  0  0  0  0
    3.5546    8.0058   11.0722 C   0  0  0  0  0  0  0  0  0  0  0  0
    2.9359    6.8866   11.6136 C   0  0  0  0  0  0  0  0  0  0  0  0
    2.2314    7.0090   12.4223 H   0  0  0  0  0  0  0  0  0  0  0  0
    3.1959    5.6124   11.1402 C   0  0  0  0  0  0  0  0  0  0  0  0
    5.9102    6.4176    8.5836 C   0  0  0  0  0  0  0  0  0  0  0  0
    6.8089    6.8920    8.9767 H   0  0  0  0  0  0  0  0  0  0  0  0
    5.6591    6.9151    7.6491 H   0  0  0  0  0  0  0  0  0  0  0  0
    6.1373    5.3758    8.3749 H   0  0  0  0  0  0  0  0  0  0  0  0
    3.2165    9.3719   11.5841 C   0  0  0  0  0  0  0  0  0  0  0  0
    2.1703    9.5944   11.3794 H   0  0  0  0  0  0  0  0  0  0  0  0
    3.8332   10.1319   11.1113 H   0  0  0  0  0  0  0  0  0  0  0  0
    3.3617    9.4224   12.6621 H   0  0  0  0  0  0  0  0  0  0  0  0
    2.5621    4.4228   11.7896 C   0  0  0  0  0  0  0  0  0  0  0  0
    3.2515    3.5814   11.8408 H   0  0  0  0  0  0  0  0  0  0  0  0
    1.6828    4.1180   11.2252 H   0  0  0  0  0  0  0  0  0  0  0  0
    2.2404    4.6755   12.7959 H   0  0  0  0  0  0  0  0  0  0  0  0
    4.2918    4.1623    9.5445 N   0  0  0  0  0  0  0  0  0  0  0  0
    3.9720    2.2350    8.6379 N   0  0  0  0  0  0  0  0  0  0  0  0
    0.5279    4.9712    8.9722 Br  0  0  0  0  0 15  0  0  0  0  0  0
    2.2498    4.3957    7.2818 Ir  0  0  0  0  0  0  0  0  0  0  0  0
  1 66  1  6  0  0  0
  1 63  1  0  0  0  0
  2  3  1  0  0  0  0
  4  5  1  0  0  0  0
  4  2  2  0  0  0  0
  5  6  1  0  0  0  0
  7  8  1  0  0  0  0
  7  5  2  0  0  0  0
  9  7  1  0  0  0  0
 10  9  1  0  0  0  0
 11  9  2  0  0  0  0
 11 64  1  0  0  0  0
 12 14  1  0  0  0  0
 12 13  1  0  0  0  0
 14 15  1  0  0  0  0
 16 17  1  0  0  0  0
 16 19  1  0  0  0  0
 16 14  1  0  0  0  0
 18 16  1  0  0  0  0
 19 21  1  0  0  0  0
 19 22  1  0  0  0  0
 20 19  1  0  0  0  0
 22 23  1  1  0  0  0
 22 66  1  0  0  0  0
 24 25  1  0  0  0  0
 24 22  1  0  0  0  0
 26 29  1  0  0  0  0
 26 24  1  0  0  0  0
 27 26  1  0  0  0  0
 28 26  1  0  0  0  0
 29 31  1  0  0  0  0
 29 12  1  0  0  0  0
 30 29  1  0  0  0  0
 32 11  1  0  0  0  0
 32 41  1  0  0  0  0
 33 32  2  0  0  0  0
 34 33  1  0  0  0  0
 35 33  1  0  0  0  0
 35 37  2  0  0  0  0
 36 35  1  0  0  0  0
 37 39  1  0  0  0  0
 38 37  1  0  0  0  0
 39 40  1  0  0  0  0
 39 41  2  0  0  0  0
 41 42  1  0  0  0  0
 43 50  1  0  0  0  0
 44 43  2  0  0  0  0
 44 45  1  0  0  0  0
 45 47  2  0  0  0  0
 46 45  1  0  0  0  0
 47 55  1  0  0  0  0
 47 48  1  0  0  0  0
 48 49  1  0  0  0  0
 50 48  2  0  0  0  0
 50 59  1  0  0  0  0
 51 52  1  0  0  0  0
 51 44  1  0  0  0  0
 53 51  1  0  0  0  0
 54 51  1  0  0  0  0
 55 58  1  0  0  0  0
 56 55  1  0  0  0  0
 57 55  1  0  0  0  0
 59 60  1  0  0  0  0
 59 62  1  0  0  0  0
 61 59  1  0  0  0  0
 63  2  1  0  0  0  0
 63 43  1  0  0  0  0
 64  1  1  0  0  0  0
 64  4  1  0  0  0  0
M  END
$$$$
