CSD_code = PARCAN | q = 0 | S = 0 | Stoichiometry = C27H27BrN2Pd | MND = 5
 OpenBabel04212202083D

 58 60  0  0  1  0  0  0  0  0999 V2000
    0.5286    3.3776    3.6284 C   0  0  0  0  0  3  0  0  0  0  0  0
    1.1497    4.2752    3.7349 H   0  0  0  0  0  0  0  0  0  0  0  0
   -0.1359    3.1825    4.4649 H   0  0  0  0  0  0  0  0  0  0  0  0
    0.9886    2.3121    2.8591 C   0  0  0  0  0  3  0  0  0  0  0  0
    0.5612    1.3190    2.9977 H   0  0  0  0  0  0  0  0  0  0  0  0
    1.7828    2.5812    1.7257 C   0  0  0  0  0  0  0  0  0  0  0  0
    2.0757    1.7486    1.0934 H   0  0  0  0  0  0  0  0  0  0  0  0
    2.5355    3.3669    1.8122 H   0  0  0  0  0  0  0  0  0  0  0  0
   -0.1033    4.0639   -0.4005 C   0  0  2  0  0  3  0  0  0  0  0  0
   -1.3533    2.1596   -1.2759 C   0  0  0  0  0  0  0  0  0  0  0  0
   -1.7203    1.5081   -2.4144 C   0  0  0  0  0  0  0  0  0  0  0  0
   -2.2596    0.5784   -2.3394 H   0  0  0  0  0  0  0  0  0  0  0  0
   -1.4539    2.0671   -3.6919 C   0  0  0  0  0  0  0  0  0  0  0  0
   -1.7750    1.5282   -4.5693 H   0  0  0  0  0  0  0  0  0  0  0  0
   -0.8346    3.2712   -3.8110 C   0  0  0  0  0  0  0  0  0  0  0  0
   -0.6440    3.7301   -4.7674 H   0  0  0  0  0  0  0  0  0  0  0  0
   -0.4065    3.9364   -2.6383 C   0  0  0  0  0  0  0  0  0  0  0  0
    0.3034    5.0766   -2.3623 C   0  0  0  0  0  0  0  0  0  0  0  0
    0.7047    5.8240   -3.0143 H   0  0  0  0  0  0  0  0  0  0  0  0
   -1.6977    1.7621    0.0855 C   0  0  0  0  0  0  0  0  0  0  0  0
   -2.2119    2.5365    0.6590 H   0  0  0  0  0  0  0  0  0  0  0  0
   -1.5238    0.5321    0.5896 C   0  0  0  0  0  0  0  0  0  0  0  0
   -1.0655   -0.2336   -0.0262 H   0  0  0  0  0  0  0  0  0  0  0  0
   -1.8981    0.1269    1.9352 C   0  0  0  0  0  0  0  0  0  0  0  0
   -1.9630   -1.2323    2.2485 C   0  0  0  0  0  0  0  0  0  0  0  0
   -1.7444   -1.9634    1.4824 H   0  0  0  0  0  0  0  0  0  0  0  0
   -2.3133   -1.6499    3.5181 C   0  0  0  0  0  0  0  0  0  0  0  0
   -2.3645   -2.7056    3.7417 H   0  0  0  0  0  0  0  0  0  0  0  0
   -2.5937   -0.7177    4.5037 C   0  0  0  0  0  0  0  0  0  0  0  0
   -2.8634   -1.0439    5.4972 H   0  0  0  0  0  0  0  0  0  0  0  0
   -2.5169    0.6354    4.2115 C   0  0  0  0  0  0  0  0  0  0  0  0
   -2.7259    1.3661    4.9789 H   0  0  0  0  0  0  0  0  0  0  0  0
   -2.1723    1.0572    2.9427 C   0  0  0  0  0  0  0  0  0  0  0  0
   -2.0938    2.1220    2.7439 H   0  0  0  0  0  0  0  0  0  0  0  0
    1.1830    6.1010   -0.2614 C   0  0  0  0  0  0  0  0  0  0  0  0
    2.5321    5.8719    0.0255 C   0  0  0  0  0  0  0  0  0  0  0  0
    3.1969    6.7869    0.8265 C   0  0  0  0  0  0  0  0  0  0  0  0
    4.2375    6.6188    1.0663 H   0  0  0  0  0  0  0  0  0  0  0  0
    2.5555    7.9152    1.3232 C   0  0  0  0  0  0  0  0  0  0  0  0
    1.2375    8.1480    0.9634 C   0  0  0  0  0  0  0  0  0  0  0  0
    0.7375    9.0379    1.3161 H   0  0  0  0  0  0  0  0  0  0  0  0
    0.5314    7.2607    0.1617 C   0  0  0  0  0  0  0  0  0  0  0  0
    3.2650    4.7172   -0.5947 C   0  0  0  0  0  0  0  0  0  0  0  0
    2.6544    3.8160   -0.6196 H   0  0  0  0  0  0  0  0  0  0  0  0
    4.1825    4.5070   -0.0506 H   0  0  0  0  0  0  0  0  0  0  0  0
    3.5323    4.9680   -1.6229 H   0  0  0  0  0  0  0  0  0  0  0  0
    3.2913    8.8636    2.2193 C   0  0  0  0  0  0  0  0  0  0  0  0
    3.4316    8.4141    3.2022 H   0  0  0  0  0  0  0  0  0  0  0  0
    2.7378    9.7902    2.3443 H   0  0  0  0  0  0  0  0  0  0  0  0
    4.2756    9.0914    1.8141 H   0  0  0  0  0  0  0  0  0  0  0  0
   -0.8778    7.5470   -0.2453 C   0  0  0  0  0  0  0  0  0  0  0  0
   -1.0378    7.3204   -1.2982 H   0  0  0  0  0  0  0  0  0  0  0  0
   -1.1191    8.5909   -0.0670 H   0  0  0  0  0  0  0  0  0  0  0  0
   -1.5681    6.9373    0.3382 H   0  0  0  0  0  0  0  0  0  0  0  0
   -0.6621    3.3429   -1.4013 N   0  0  0  0  0  0  0  0  0  0  0  0
    0.4648    5.1209   -1.0063 N   0  0  0  0  0  0  0  0  0  0  0  0
   -1.9202    5.0586    2.1715 Br  0  0  0  0  0 15  0  0  0  0  0  0
   -0.0199    3.6641    1.5884 Pd  0  0  0  0  0  0  0  0  0  0  0  0
  1  2  1  0  0  0  0
  1  3  1  0  0  0  0
  4  5  1  0  0  0  0
  4  1  1  0  0  0  0
  6  8  1  0  0  0  0
  6  4  1  0  0  0  0
  7  6  1  0  0  0  0
  9 58  1  6  0  0  0
 10 20  1  0  0  0  0
 11 12  1  0  0  0  0
 11 10  2  0  0  0  0
 13 11  1  0  0  0  0
 14 13  1  0  0  0  0
 15 13  2  0  0  0  0
 15 17  1  0  0  0  0
 16 15  1  0  0  0  0
 17 18  2  0  0  0  0
 17 55  1  0  0  0  0
 18 56  1  0  0  0  0
 19 18  1  0  0  0  0
 20 22  2  0  0  0  0
 20 21  1  0  0  0  0
 22 24  1  0  0  0  0
 23 22  1  0  0  0  0
 24 25  2  0  0  0  0
 24 33  1  0  0  0  0
 25 27  1  0  0  0  0
 26 25  1  0  0  0  0
 27 28  1  0  0  0  0
 27 29  2  0  0  0  0
 29 30  1  0  0  0  0
 31 29  1  0  0  0  0
 31 32  1  0  0  0  0
 33 31  2  0  0  0  0
 34 33  1  0  0  0  0
 35 36  2  0  0  0  0
 35 42  1  0  0  0  0
 36 37  1  0  0  0  0
 37 38  1  0  0  0  0
 37 39  2  0  0  0  0
 39 47  1  0  0  0  0
 40 41  1  0  0  0  0
 40 39  1  0  0  0  0
 42 40  2  0  0  0  0
 43 45  1  0  0  0  0
 43 36  1  0  0  0  0
 44 43  1  0  0  0  0
 46 43  1  0  0  0  0
 47 49  1  0  0  0  0
 47 48  1  0  0  0  0
 50 47  1  0  0  0  0
 51 53  1  0  0  0  0
 51 42  1  0  0  0  0
 51 54  1  0  0  0  0
 52 51  1  0  0  0  0
 55 10  1  0  0  0  0
 55  9  1  0  0  0  0
 56  9  1  0  0  0  0
 56 35  1  0  0  0  0
 58  6  1  0  0  0  0
M  END
$$$$
