CSD_code = PARFOD | q = 0 | S = 0 | Stoichiometry = C33H26IO3P2Re | MND = 6
 OpenBabel04212202083D

 66 70  0  0  0  0  0  0  0  0999 V2000
   -1.5831    3.3376    3.8744 Re  0  0  0  0  0  0  0  0  0  0  0  0
   -3.5323    2.5256    5.6514 I   0  0  0  0  0  0  0  0  0  0  0  0
   -2.8377    2.0077    2.2269 P   0  0  0  0  0  4  0  0  0  0  0  0
   -0.7521    4.5436    5.8015 P   0  0  0  0  0  4  0  0  0  0  0  0
   -0.3604    1.8853    4.3679 C   0  0  0  0  0  2  0  0  0  0  0  0
    0.4240    1.1103    4.6808 O   0  0  0  0  0  1  0  0  0  0  0  0
   -0.3523    4.0365    2.5512 C   0  0  0  0  0  2  0  0  0  0  0  0
    0.3388    4.4740    1.7412 O   0  0  0  0  0  1  0  0  0  0  0  0
   -2.7890    4.8566    3.5345 C   0  0  0  0  0  2  0  0  0  0  0  0
   -3.4896    5.7526    3.4417 O   0  0  0  0  0  1  0  0  0  0  0  0
   -4.4460    2.7689    1.8931 C   0  0  0  0  0  0  0  0  0  0  0  0
   -4.4657    3.9396    1.1354 C   0  0  0  0  0  0  0  0  0  0  0  0
   -5.6543    4.6160    0.9436 C   0  0  0  0  0  0  0  0  0  0  0  0
   -6.8214    4.1410    1.5231 C   0  0  0  0  0  0  0  0  0  0  0  0
   -6.7982    2.9926    2.2967 C   0  0  0  0  0  0  0  0  0  0  0  0
   -5.6134    2.3035    2.4880 C   0  0  0  0  0  0  0  0  0  0  0  0
   -3.5411    4.3140    0.7092 H   0  0  0  0  0  0  0  0  0  0  0  0
   -5.6694    5.5207    0.3534 H   0  0  0  0  0  0  0  0  0  0  0  0
   -7.7480    4.6770    1.3805 H   0  0  0  0  0  0  0  0  0  0  0  0
   -7.7029    2.6352    2.7650 H   0  0  0  0  0  0  0  0  0  0  0  0
   -5.5910    1.4192    3.1095 H   0  0  0  0  0  0  0  0  0  0  0  0
   -3.2233    0.2594    2.5458 C   0  0  0  0  0  0  0  0  0  0  0  0
   -4.0604   -0.3967    1.6447 C   0  0  0  0  0  0  0  0  0  0  0  0
   -4.3422   -1.7366    1.8192 C   0  0  0  0  0  0  0  0  0  0  0  0
   -3.7880   -2.4321    2.8837 C   0  0  0  0  0  0  0  0  0  0  0  0
   -2.9483   -1.7851    3.7726 C   0  0  0  0  0  0  0  0  0  0  0  0
   -2.6621   -0.4417    3.6030 C   0  0  0  0  0  0  0  0  0  0  0  0
   -4.4901    0.1477    0.8145 H   0  0  0  0  0  0  0  0  0  0  0  0
   -4.9959   -2.2421    1.1235 H   0  0  0  0  0  0  0  0  0  0  0  0
   -4.0134   -3.4796    3.0178 H   0  0  0  0  0  0  0  0  0  0  0  0
   -2.5161   -2.3226    4.6031 H   0  0  0  0  0  0  0  0  0  0  0  0
   -2.0133    0.0599    4.3059 H   0  0  0  0  0  0  0  0  0  0  0  0
   -2.0528    1.8241    0.5926 C   0  0  0  0  0  0  0  0  0  0  0  0
   -0.6961    1.5122    0.5930 C   0  0  0  0  0  0  0  0  0  0  0  0
   -0.0292    1.2992   -0.5974 C   0  0  0  0  0  0  0  0  0  0  0  0
   -0.7152    1.3949   -1.7977 C   0  0  0  0  0  0  0  0  0  0  0  0
   -2.0674    1.6936   -1.8019 C   0  0  0  0  0  0  0  0  0  0  0  0
   -2.7415    1.9033   -0.6118 C   0  0  0  0  0  0  0  0  0  0  0  0
   -0.1704    1.4441    1.5395 H   0  0  0  0  0  0  0  0  0  0  0  0
    1.0245    1.0630   -0.5912 H   0  0  0  0  0  0  0  0  0  0  0  0
   -0.1952    1.2369   -2.7308 H   0  0  0  0  0  0  0  0  0  0  0  0
   -2.6026    1.7649   -2.7376 H   0  0  0  0  0  0  0  0  0  0  0  0
   -3.7968    2.1388   -0.6248 H   0  0  0  0  0  0  0  0  0  0  0  0
    1.0021    4.9395    6.0257 C   0  0  0  0  0  0  0  0  0  0  0  0
    1.9497    4.5626    5.0839 C   0  0  0  0  0  0  0  0  0  0  0  0
    3.2841    4.8681    5.2891 C   0  0  0  0  0  0  0  0  0  0  0  0
    3.6696    5.5477    6.4318 C   0  0  0  0  0  0  0  0  0  0  0  0
    2.7239    5.9223    7.3757 C   0  0  0  0  0  0  0  0  0  0  0  0
    1.3916    5.6199    7.1774 C   0  0  0  0  0  0  0  0  0  0  0  0
    1.6351    4.0301    4.1945 H   0  0  0  0  0  0  0  0  0  0  0  0
    4.0216    4.5750    4.5567 H   0  0  0  0  0  0  0  0  0  0  0  0
    4.7106    5.7865    6.5911 H   0  0  0  0  0  0  0  0  0  0  0  0
    3.0293    6.4498    8.2673 H   0  0  0  0  0  0  0  0  0  0  0  0
    0.6444    5.9075    7.9061 H   0  0  0  0  0  0  0  0  0  0  0  0
   -1.5831    6.1101    6.1353 C   0  0  0  0  0  0  0  0  0  0  0  0
   -2.6410    6.1873    7.0345 C   0  0  0  0  0  0  0  0  0  0  0  0
   -3.3049    7.3900    7.1989 C   0  0  0  0  0  0  0  0  0  0  0  0
   -2.9193    8.5041    6.4716 C   0  0  0  0  0  0  0  0  0  0  0  0
   -1.8700    8.4230    5.5681 C   0  0  0  0  0  0  0  0  0  0  0  0
   -1.2048    7.2258    5.3919 C   0  0  0  0  0  0  0  0  0  0  0  0
   -2.9469    5.3091    7.5878 H   0  0  0  0  0  0  0  0  0  0  0  0
   -4.1292    7.4543    7.8934 H   0  0  0  0  0  0  0  0  0  0  0  0
   -3.4424    9.4398    6.6028 H   0  0  0  0  0  0  0  0  0  0  0  0
   -1.5773    9.2918    4.9968 H   0  0  0  0  0  0  0  0  0  0  0  0
   -0.3915    7.1387    4.6805 H   0  0  0  0  0  0  0  0  0  0  0  0
   -0.9906    3.9034    7.0125 H   0  0  0  0  0  0  0  0  0  0  0  0
  1  5  1  0  0  0  0
  1  2  1  0  0  0  0
  1  4  1  0  0  0  0
  3 22  1  0  0  0  0
  3  1  1  0  0  0  0
  4 44  1  0  0  0  0
  4 55  1  0  0  0  0
  4 66  1  0  0  0  0
  5  6  1  0  0  0  0
  7  1  1  0  0  0  0
  8  7  1  0  0  0  0
  9  1  1  0  0  0  0
 10  9  1  0  0  0  0
 11  3  1  0  0  0  0
 11 16  1  0  0  0  0
 12 11  2  0  0  0  0
 13 12  1  0  0  0  0
 13 14  2  0  0  0  0
 14 15  1  0  0  0  0
 15 16  2  0  0  0  0
 15 20  1  0  0  0  0
 16 21  1  0  0  0  0
 17 12  1  0  0  0  0
 18 13  1  0  0  0  0
 19 14  1  0  0  0  0
 22 27  1  0  0  0  0
 23 24  1  0  0  0  0
 23 22  2  0  0  0  0
 24 25  2  0  0  0  0
 25 30  1  0  0  0  0
 25 26  1  0  0  0  0
 26 31  1  0  0  0  0
 27 26  2  0  0  0  0
 27 32  1  0  0  0  0
 28 23  1  0  0  0  0
 29 24  1  0  0  0  0
 33 34  1  0  0  0  0
 33  3  1  0  0  0  0
 34 39  1  0  0  0  0
 35 40  1  0  0  0  0
 35 34  2  0  0  0  0
 36 35  1  0  0  0  0
 37 36  2  0  0  0  0
 37 38  1  0  0  0  0
 38 33  2  0  0  0  0
 41 36  1  0  0  0  0
 42 37  1  0  0  0  0
 43 38  1  0  0  0  0
 44 49  1  0  0  0  0
 45 46  1  0  0  0  0
 45 44  2  0  0  0  0
 46 47  2  0  0  0  0
 47 52  1  0  0  0  0
 47 48  1  0  0  0  0
 48 53  1  0  0  0  0
 49 48  2  0  0  0  0
 49 54  1  0  0  0  0
 50 45  1  0  0  0  0
 51 46  1  0  0  0  0
 55 56  1  0  0  0  0
 56 57  2  0  0  0  0
 56 61  1  0  0  0  0
 57 62  1  0  0  0  0
 58 63  1  0  0  0  0
 58 57  1  0  0  0  0
 59 58  2  0  0  0  0
 60 59  1  0  0  0  0
 60 55  2  0  0  0  0
 64 59  1  0  0  0  0
 65 60  1  0  0  0  0
M  END
$$$$
