CSD_code = PARHUA | q = 0 | S = 0 | Stoichiometry = C12H20Cl3NTi | MND = 8
 OpenBabel04212202083D

 37 37  0  0  0  0  0  0  0  0999 V2000
   -0.1800    1.2211    8.2089 Ti  0  0  0  0  0  0  0  0  0  0  0  0
   -0.8744   -0.7218    8.8694 Cl  0  0  0  0  0  0  0  0  0  0  0  0
   -2.1463    1.8816    7.5842 Cl  0  0  0  0  0  0  0  0  0  0  0  0
   -0.1136    2.1980   10.1179 Cl  0  0  0  0  0  0  0  0  0  0  0  0
    1.5224    1.6382    7.3683 N   0  0  0  0  0  0  0  0  0  0  0  0
    0.7284    2.0947    6.3379 C   0  0  0  0  0  0  0  0  0  0  0  0
    0.3284    1.0127    5.5442 C   0  0  0  0  0  0  0  0  0  0  0  0
   -0.2583    1.0510    4.6410 H   0  0  0  0  0  0  0  0  0  0  0  0
    0.8929   -0.1449    6.1157 C   0  0  0  0  0  0  0  0  0  0  0  0
    0.8130   -1.1465    5.7259 H   0  0  0  0  0  0  0  0  0  0  0  0
    1.6190    0.2688    7.2393 C   0  0  0  0  0  0  0  0  0  0  0  0
    0.6148    3.5812    6.0870 C   0  0  0  0  0  0  0  0  0  0  0  0
    0.4012    4.3198    7.4166 C   0  0  0  0  0  0  0  0  0  0  0  0
    0.4364    5.3947    7.2494 H   0  0  0  0  0  0  0  0  0  0  0  0
    1.1845    4.0543    8.1313 H   0  0  0  0  0  0  0  0  0  0  0  0
   -0.5755    4.0703    7.8416 H   0  0  0  0  0  0  0  0  0  0  0  0
    1.9488    4.0310    5.4670 C   0  0  0  0  0  0  0  0  0  0  0  0
    1.9251    5.0980    5.2589 H   0  0  0  0  0  0  0  0  0  0  0  0
    2.1339    3.4990    4.5365 H   0  0  0  0  0  0  0  0  0  0  0  0
    2.7667    3.8229    6.1527 H   0  0  0  0  0  0  0  0  0  0  0  0
   -0.5378    3.8914    5.1298 C   0  0  0  0  0  0  0  0  0  0  0  0
   -0.6406    4.9677    5.0138 H   0  0  0  0  0  0  0  0  0  0  0  0
   -1.4725    3.4932    5.5204 H   0  0  0  0  0  0  0  0  0  0  0  0
   -0.3532    3.4606    4.1487 H   0  0  0  0  0  0  0  0  0  0  0  0
    2.6035   -0.4923    8.0977 C   0  0  0  0  0  0  0  0  0  0  0  0
    2.5150   -0.0039    9.5512 C   0  0  0  0  0  0  0  0  0  0  0  0
    2.6399    1.0811    9.5978 H   0  0  0  0  0  0  0  0  0  0  0  0
    3.3020   -0.4676   10.1429 H   0  0  0  0  0  0  0  0  0  0  0  0
    1.5504   -0.2760    9.9897 H   0  0  0  0  0  0  0  0  0  0  0  0
    2.3368   -1.9978    8.0385 C   0  0  0  0  0  0  0  0  0  0  0  0
    2.4872   -2.3786    7.0311 H   0  0  0  0  0  0  0  0  0  0  0  0
    1.3164   -2.2145    8.3489 H   0  0  0  0  0  0  0  0  0  0  0  0
    3.0211   -2.5191    8.7035 H   0  0  0  0  0  0  0  0  0  0  0  0
    4.0057   -0.1851    7.5447 C   0  0  0  0  0  0  0  0  0  0  0  0
    4.7610   -0.7096    8.1245 H   0  0  0  0  0  0  0  0  0  0  0  0
    4.1997    0.8837    7.5955 H   0  0  0  0  0  0  0  0  0  0  0  0
    4.0820   -0.5009    6.5066 H   0  0  0  0  0  0  0  0  0  0  0  0
  1  2  1  0  0  0  0
  1  4  1  0  0  0  0
  3  1  1  0  0  0  0
  5  1  1  0  0  0  0
  6  5  1  0  0  0  0
  7  9  1  0  0  0  0
  7  6  2  0  0  0  0
  8  7  1  0  0  0  0
  9 11  2  0  0  0  0
 10  9  1  0  0  0  0
 11  5  1  0  0  0  0
 11 25  1  0  0  0  0
 12  6  1  0  0  0  0
 12 13  1  0  0  0  0
 13 16  1  0  0  0  0
 13 15  1  0  0  0  0
 14 13  1  0  0  0  0
 17 12  1  0  0  0  0
 17 20  1  0  0  0  0
 18 17  1  0  0  0  0
 19 17  1  0  0  0  0
 21 23  1  0  0  0  0
 21 12  1  0  0  0  0
 22 21  1  0  0  0  0
 24 21  1  0  0  0  0
 25 26  1  0  0  0  0
 26 27  1  0  0  0  0
 26 29  1  0  0  0  0
 26 28  1  0  0  0  0
 30 25  1  0  0  0  0
 30 32  1  0  0  0  0
 30 33  1  0  0  0  0
 31 30  1  0  0  0  0
 34 36  1  0  0  0  0
 34 25  1  0  0  0  0
 34 35  1  0  0  0  0
 37 34  1  0  0  0  0
M  END
$$$$
