CSD_code = PARPEG | q = 0 | S = 0 | Stoichiometry = C6H8Cl2N8O4Pd | MND = 4
 OpenBabel04212202083D

 29 30  0  0  0  0  0  0  0  0999 V2000
   -0.3489   12.8516    2.3960 Pd  0  0  0  0  0  0  0  0  0  0  0  0
    0.4051   14.3254    0.8226 Cl  0  0  0  0  0  0  0  0  0  0  0  0
    1.2390   14.6478    5.6705 N   0  0  0  0  0  0  0  0  0  0  0  0
    2.1186   13.8026    5.1946 N   0  0  0  0  0  0  0  0  0  0  0  0
    1.7419   13.2523    4.0700 N   0  0  0  0  0  2  0  0  0  0  0  0
    0.5774   13.7412    3.8023 N   0  0  0  0  0  0  0  0  0  0  0  0
    0.2664   14.6039    4.7871 C   0  0  0  0  0  0  0  0  0  0  0  0
   -0.6435   15.1683    4.8460 H   0  0  0  0  0  0  0  0  0  0  0  0
    3.3824   13.5526    5.8049 C   0  0  0  0  0  0  0  0  0  0  0  0
    3.7610   12.5903    5.4535 H   0  0  0  0  0  0  0  0  0  0  0  0
    3.2683   13.5332    6.8918 H   0  0  0  0  0  0  0  0  0  0  0  0
    4.3823   14.6537    5.4364 C   0  0  0  0  0  0  0  0  0  0  0  0
    5.5741   14.3899    5.9614 O   0  0  0  0  0  0  0  0  0  0  0  0
    6.2176   15.0803    5.7319 H   0  0  0  0  0  0  0  0  0  0  0  0
    4.1234   15.6123    4.7753 O   0  0  0  0  0  0  0  0  0  0  0  0
   -1.1039   11.3783    3.9692 Cl  0  0  0  0  0  0  0  0  0  0  0  0
   -1.9384   11.0570   -0.8786 N   0  0  0  0  0  0  0  0  0  0  0  0
   -2.8179   11.9015   -0.4015 N   0  0  0  0  0  0  0  0  0  0  0  0
   -2.4403   12.4515    0.7230 N   0  0  0  0  0  2  0  0  0  0  0  0
   -1.2754   11.9628    0.9894 N   0  0  0  0  0  0  0  0  0  0  0  0
   -0.9650   11.1006    0.0039 C   0  0  0  0  0  0  0  0  0  0  0  0
   -0.0551   10.5365   -0.0560 H   0  0  0  0  0  0  0  0  0  0  0  0
   -4.0824   12.1514   -1.0105 C   0  0  0  0  0  0  0  0  0  0  0  0
   -4.4608   13.1136   -0.6587 H   0  0  0  0  0  0  0  0  0  0  0  0
   -3.9693   12.1708   -2.0975 H   0  0  0  0  0  0  0  0  0  0  0  0
   -5.0817   11.0501   -0.6411 C   0  0  0  0  0  0  0  0  0  0  0  0
   -6.2743   11.3141   -1.1641 O   0  0  0  0  0  0  0  0  0  0  0  0
   -6.9174   10.6235   -0.9341 H   0  0  0  0  0  0  0  0  0  0  0  0
   -4.8218   10.0910    0.0191 O   0  0  0  0  0  0  0  0  0  0  0  0
  1  6  1  0  0  0  0
  1 16  1  0  0  0  0
  2  1  1  0  0  0  0
  4  3  1  0  0  0  0
  4  9  1  0  0  0  0
  5  4  1  0  0  0  0
  6  5  1  0  0  0  0
  6  7  1  0  0  0  0
  7  8  1  0  0  0  0
  7  3  2  0  0  0  0
  9 11  1  0  0  0  0
 10  9  1  0  0  0  0
 12  9  1  0  0  0  0
 12 13  1  0  0  0  0
 14 13  1  0  0  0  0
 15 12  2  0  0  0  0
 17 18  1  0  0  0  0
 17 21  2  0  0  0  0
 18 19  1  0  0  0  0
 19 20  1  0  0  0  0
 20  1  1  0  0  0  0
 21 20  1  0  0  0  0
 22 21  1  0  0  0  0
 23 24  1  0  0  0  0
 23 26  1  0  0  0  0
 23 18  1  0  0  0  0
 25 23  1  0  0  0  0
 26 29  2  0  0  0  0
 27 28  1  0  0  0  0
 27 26  1  0  0  0  0
M  END
$$$$
