CSD_code = PARSAD | q = 0 | S = 0 | Stoichiometry = C10H28Cl2N4Ni | MND = 6
 OpenBabel04212202083D

 45 46  0  0  0  0  0  0  0  0999 V2000
    8.3959    6.8955    2.7889 Ni  0  0  0  0  0  0  0  0  0  0  0  0
    7.3300    6.9816    1.0013 Cl  0  0  0  0  0  0  0  0  0  0  0  0
    6.8768    8.3566    3.6890 N   0  0  0  0  0  4  0  0  0  0  0  0
    6.8692    5.3970    3.7965 N   0  0  0  0  0  4  0  0  0  0  0  0
    6.4571    9.5531    2.9715 C   0  0  0  0  0  0  0  0  0  0  0  0
    7.3181   10.1835    2.7625 H   0  0  0  0  0  0  0  0  0  0  0  0
    5.7263   10.1353    3.5495 H   0  0  0  0  0  0  0  0  0  0  0  0
    6.0061    9.2617    2.0230 H   0  0  0  0  0  0  0  0  0  0  0  0
    5.7203    7.5820    4.1277 C   0  0  0  0  0  0  0  0  0  0  0  0
    5.0893    7.4018    3.2537 H   0  0  0  0  0  0  0  0  0  0  0  0
    5.1249    8.1411    4.8683 H   0  0  0  0  0  0  0  0  0  0  0  0
    6.1628    6.2606    4.7503 C   0  0  0  0  0  0  0  0  0  0  0  0
    6.8491    6.4804    5.5729 H   0  0  0  0  0  0  0  0  0  0  0  0
    5.2818    5.7382    5.1582 H   0  0  0  0  0  0  0  0  0  0  0  0
    5.9136    4.7859    2.8742 C   0  0  0  0  0  0  0  0  0  0  0  0
    6.4375    4.1127    2.1994 H   0  0  0  0  0  0  0  0  0  0  0  0
    5.4275    5.5435    2.2662 H   0  0  0  0  0  0  0  0  0  0  0  0
    5.1494    4.2166    3.4239 H   0  0  0  0  0  0  0  0  0  0  0  0
    7.5237    4.3278    4.5494 C   0  0  0  0  0  0  0  0  0  0  0  0
    8.2879    4.7482    5.2005 H   0  0  0  0  0  0  0  0  0  0  0  0
    7.9957    3.6300    3.8607 H   0  0  0  0  0  0  0  0  0  0  0  0
    6.7944    3.7736    5.1581 H   0  0  0  0  0  0  0  0  0  0  0  0
    7.4110    8.6325    4.5162 H   0  0  0  0  0  0  0  0  0  0  0  0
    9.4612    6.9826    4.5776 Cl  0  0  0  0  0  0  0  0  0  0  0  0
    9.9140    8.3568    1.8871 N   0  0  0  0  0  4  0  0  0  0  0  0
    9.9215    5.3970    1.7797 N   0  0  0  0  0  4  0  0  0  0  0  0
   10.3336    9.5530    2.6049 C   0  0  0  0  0  0  0  0  0  0  0  0
    9.4727   10.1835    2.8139 H   0  0  0  0  0  0  0  0  0  0  0  0
   11.0647   10.1353    2.0272 H   0  0  0  0  0  0  0  0  0  0  0  0
   10.7844    9.2614    3.5535 H   0  0  0  0  0  0  0  0  0  0  0  0
   11.0704    7.5821    1.4486 C   0  0  0  0  0  0  0  0  0  0  0  0
   11.7013    7.4018    2.3228 H   0  0  0  0  0  0  0  0  0  0  0  0
   11.6660    8.1410    0.7082 H   0  0  0  0  0  0  0  0  0  0  0  0
   10.6280    6.2606    0.8260 C   0  0  0  0  0  0  0  0  0  0  0  0
    9.9418    6.4804    0.0034 H   0  0  0  0  0  0  0  0  0  0  0  0
   11.5090    5.7382    0.4182 H   0  0  0  0  0  0  0  0  0  0  0  0
   10.8771    4.7860    2.7021 C   0  0  0  0  0  0  0  0  0  0  0  0
   10.3531    4.1129    3.3770 H   0  0  0  0  0  0  0  0  0  0  0  0
   11.3630    5.5437    3.3102 H   0  0  0  0  0  0  0  0  0  0  0  0
   11.6412    4.2167    2.1525 H   0  0  0  0  0  0  0  0  0  0  0  0
    9.2670    4.3277    1.0269 C   0  0  0  0  0  0  0  0  0  0  0  0
    8.5029    4.7480    0.3757 H   0  0  0  0  0  0  0  0  0  0  0  0
    8.7951    3.6300    1.7157 H   0  0  0  0  0  0  0  0  0  0  0  0
    9.9964    3.7735    0.4184 H   0  0  0  0  0  0  0  0  0  0  0  0
    9.3801    8.6329    1.0598 H   0  0  0  0  0  0  0  0  0  0  0  0
  1  3  1  0  0  0  0
  1  4  1  0  0  0  0
  1 24  1  0  0  0  0
  2  1  1  0  0  0  0
  3  9  1  0  0  0  0
  3 23  1  0  0  0  0
  4 19  1  0  0  0  0
  4 12  1  0  0  0  0
  5  7  1  0  0  0  0
  5  3  1  0  0  0  0
  6  5  1  0  0  0  0
  8  5  1  0  0  0  0
  9 12  1  0  0  0  0
  9 11  1  0  0  0  0
 10  9  1  0  0  0  0
 12 14  1  0  0  0  0
 12 13  1  0  0  0  0
 15 18  1  0  0  0  0
 15  4  1  0  0  0  0
 16 15  1  0  0  0  0
 17 15  1  0  0  0  0
 19 22  1  0  0  0  0
 19 20  1  0  0  0  0
 21 19  1  0  0  0  0
 25 27  1  0  0  0  0
 25  1  1  0  0  0  0
 26 37  1  0  0  0  0
 26  1  1  0  0  0  0
 27 28  1  0  0  0  0
 27 30  1  0  0  0  0
 29 27  1  0  0  0  0
 31 25  1  0  0  0  0
 31 32  1  0  0  0  0
 33 31  1  0  0  0  0
 34 31  1  0  0  0  0
 34 26  1  0  0  0  0
 35 34  1  0  0  0  0
 36 34  1  0  0  0  0
 37 39  1  0  0  0  0
 37 38  1  0  0  0  0
 40 37  1  0  0  0  0
 41 43  1  0  0  0  0
 41 26  1  0  0  0  0
 42 41  1  0  0  0  0
 44 41  1  0  0  0  0
 45 25  1  0  0  0  0
M  END
$$$$
