CSD_code = PARTEH | q = 0 | S = 0 | Stoichiometry = C32H28IOP2RhS2 | MND = 5
 OpenBabel04212202083D

 67 72  0  0  0  0  0  0  0  0999 V2000
   -0.4049    1.6753    8.8249 I   0  0  0  0  0  0  0  0  0  0  0  0
   -0.2379   -0.5896   10.1145 Rh  0  0  0  0  0  0  0  0  0  0  0  0
   -0.9372   -1.9031    8.1494 S   0  0  0  0  0  0  0  0  0  0  0  0
    0.4372   -2.7656   11.0014 S   0  0  0  0  0  0  0  0  0  0  0  0
   -0.8705   -3.3070    9.5709 P   0  0  0  0  0  4  0  0  0  0  0  0
    0.9042    0.4735   11.7682 P   0  0  0  0  0  4  0  0  0  0  0  0
    2.8627    0.2578    9.8853 C   0  0  0  0  0  0  0  0  0  0  0  0
    4.0036    0.5969    9.1865 C   0  0  0  0  0  0  0  0  0  0  0  0
    4.7158    1.7306    9.5470 C   0  0  0  0  0  0  0  0  0  0  0  0
    4.2813    2.5200   10.5980 C   0  0  0  0  0  0  0  0  0  0  0  0
    3.1400    2.1811   11.3053 C   0  0  0  0  0  0  0  0  0  0  0  0
    2.4305    1.0411   10.9557 C   0  0  0  0  0  0  0  0  0  0  0  0
    0.0422   -5.0563    7.5921 C   0  0  0  0  0  0  0  0  0  0  0  0
    0.3993   -6.3040    7.1127 C   0  0  0  0  0  0  0  0  0  0  0  0
    0.2827   -7.4177    7.9278 C   0  0  0  0  0  0  0  0  0  0  0  0
   -0.1909   -7.2914    9.2253 C   0  0  0  0  0  0  0  0  0  0  0  0
   -0.5528   -6.0496    9.7101 C   0  0  0  0  0  0  0  0  0  0  0  0
   -0.4384   -4.9361    8.8871 C   0  0  0  0  0  0  0  0  0  0  0  0
    1.0588    2.2306   13.8926 C   0  0  0  0  0  0  0  0  0  0  0  0
    0.6662    3.3040   14.6687 C   0  0  0  0  0  0  0  0  0  0  0  0
   -0.4691    4.0258   14.3341 C   0  0  0  0  0  0  0  0  0  0  0  0
   -1.2110    3.6700   13.2213 C   0  0  0  0  0  0  0  0  0  0  0  0
   -0.8198    2.5988   12.4369 C   0  0  0  0  0  0  0  0  0  0  0  0
    0.3185    1.8756   12.7650 C   0  0  0  0  0  0  0  0  0  0  0  0
    2.7716   -1.2316   13.0068 C   0  0  0  0  0  0  0  0  0  0  0  0
    3.1622   -2.1309   13.9831 C   0  0  0  0  0  0  0  0  0  0  0  0
    2.2987   -2.4590   15.0142 C   0  0  0  0  0  0  0  0  0  0  0  0
    1.0380   -1.8853   15.0717 C   0  0  0  0  0  0  0  0  0  0  0  0
    0.6412   -0.9841   14.1029 C   0  0  0  0  0  0  0  0  0  0  0  0
    1.5116   -0.6474   13.0687 C   0  0  0  0  0  0  0  0  0  0  0  0
   -2.7628   -3.4551   11.6530 C   0  0  0  0  0  0  0  0  0  0  0  0
   -4.0484   -3.6234   12.1370 C   0  0  0  0  0  0  0  0  0  0  0  0
   -5.0879   -3.9031   11.2655 C   0  0  0  0  0  0  0  0  0  0  0  0
   -4.8489   -4.0216    9.9045 C   0  0  0  0  0  0  0  0  0  0  0  0
   -3.5690   -3.8526    9.4129 C   0  0  0  0  0  0  0  0  0  0  0  0
   -2.5302   -3.5663   10.2906 C   0  0  0  0  0  0  0  0  0  0  0  0
   -1.9580   -0.4043   11.0649 C   0  0  0  0  0  0  0  0  0  0  0  0
   -3.1776   -0.1923   10.2122 C   0  0  0  0  0  0  0  0  0  0  0  0
   -1.9496   -0.4512   12.2596 O   0  0  0  0  0  0  0  0  0  0  0  0
    2.2845   -0.6257    9.5931 H   0  0  0  0  0  0  0  0  0  0  0  0
    4.3324   -0.0107    8.3562 H   0  0  0  0  0  0  0  0  0  0  0  0
    4.8286    3.4119   10.8651 H   0  0  0  0  0  0  0  0  0  0  0  0
    2.7937    2.8108   12.1119 H   0  0  0  0  0  0  0  0  0  0  0  0
    0.1268   -4.1765    6.9678 H   0  0  0  0  0  0  0  0  0  0  0  0
    0.7700   -6.4055    6.1036 H   0  0  0  0  0  0  0  0  0  0  0  0
    0.5636   -8.3904    7.5520 H   0  0  0  0  0  0  0  0  0  0  0  0
   -0.2775   -8.1624    9.8580 H   0  0  0  0  0  0  0  0  0  0  0  0
   -0.9233   -5.9311   10.7202 H   0  0  0  0  0  0  0  0  0  0  0  0
    1.9367    1.6583   14.1625 H   0  0  0  0  0  0  0  0  0  0  0  0
    1.2462    3.5772   15.5383 H   0  0  0  0  0  0  0  0  0  0  0  0
   -0.7746    4.8628   14.9442 H   0  0  0  0  0  0  0  0  0  0  0  0
   -2.0970    4.2282   12.9591 H   0  0  0  0  0  0  0  0  0  0  0  0
   -1.3996    2.3295   11.5680 H   0  0  0  0  0  0  0  0  0  0  0  0
    3.4470   -0.9832   12.1995 H   0  0  0  0  0  0  0  0  0  0  0  0
    4.1433   -2.5806   13.9339 H   0  0  0  0  0  0  0  0  0  0  0  0
   -0.3442   -0.5411   14.1325 H   0  0  0  0  0  0  0  0  0  0  0  0
   -4.2362   -3.5314   13.1962 H   0  0  0  0  0  0  0  0  0  0  0  0
   -5.6608   -4.2414    9.2275 H   0  0  0  0  0  0  0  0  0  0  0  0
    5.6037    2.0048    8.9970 H   0  0  0  0  0  0  0  0  0  0  0  0
    2.6059   -3.1661   15.7708 H   0  0  0  0  0  0  0  0  0  0  0  0
    0.3614   -2.1459   15.8727 H   0  0  0  0  0  0  0  0  0  0  0  0
   -1.9453   -3.2314   12.3254 H   0  0  0  0  0  0  0  0  0  0  0  0
   -6.0903   -4.0295   11.6470 H   0  0  0  0  0  0  0  0  0  0  0  0
   -3.3641   -3.9311    8.3530 H   0  0  0  0  0  0  0  0  0  0  0  0
   -3.0834   -0.6035    9.2087 H   0  0  0  0  0  0  0  0  0  0  0  0
   -4.0408   -0.6241   10.7191 H   0  0  0  0  0  0  0  0  0  0  0  0
   -3.3256    0.8850   10.1156 H   0  0  0  0  0  0  0  0  0  0  0  0
  1  2  1  0  0  0  0
  2  4  1  0  0  0  0
  2 37  1  0  0  0  0
  2  6  1  0  0  0  0
  3  5  1  0  0  0  0
  3  2  1  0  0  0  0
  5 36  1  0  0  0  0
  5  4  1  0  0  0  0
  6 24  1  0  0  0  0
  6 30  1  0  0  0  0
  7 12  1  0  0  0  0
  8  9  1  0  0  0  0
  8  7  2  0  0  0  0
  9 10  2  0  0  0  0
 10 42  1  0  0  0  0
 10 11  1  0  0  0  0
 11 43  1  0  0  0  0
 12 11  2  0  0  0  0
 12  6  1  0  0  0  0
 13 18  1  0  0  0  0
 14 13  2  0  0  0  0
 14 15  1  0  0  0  0
 15 16  2  0  0  0  0
 16 17  1  0  0  0  0
 16 47  1  0  0  0  0
 17 48  1  0  0  0  0
 18  5  1  0  0  0  0
 18 17  2  0  0  0  0
 19 49  1  0  0  0  0
 19 20  1  0  0  0  0
 20 50  1  0  0  0  0
 21 20  2  0  0  0  0
 21 51  1  0  0  0  0
 22 21  1  0  0  0  0
 23 24  1  0  0  0  0
 23 22  2  0  0  0  0
 24 19  2  0  0  0  0
 25 30  2  0  0  0  0
 25 26  1  0  0  0  0
 26 27  2  0  0  0  0
 27 28  1  0  0  0  0
 27 60  1  0  0  0  0
 28 61  1  0  0  0  0
 29 56  1  0  0  0  0
 29 28  2  0  0  0  0
 30 29  1  0  0  0  0
 31 32  1  0  0  0  0
 31 62  1  0  0  0  0
 32 57  1  0  0  0  0
 33 63  1  0  0  0  0
 33 32  2  0  0  0  0
 34 33  1  0  0  0  0
 35 34  2  0  0  0  0
 35 36  1  0  0  0  0
 36 31  2  0  0  0  0
 37 39  2  0  0  0  0
 38 66  1  0  0  0  0
 38 37  1  0  0  0  0
 40  7  1  0  0  0  0
 41  8  1  0  0  0  0
 44 13  1  0  0  0  0
 45 14  1  0  0  0  0
 46 15  1  0  0  0  0
 52 22  1  0  0  0  0
 53 23  1  0  0  0  0
 54 25  1  0  0  0  0
 55 26  1  0  0  0  0
 58 34  1  0  0  0  0
 59  9  1  0  0  0  0
 64 35  1  0  0  0  0
 65 38  1  0  0  0  0
 67 38  1  0  0  0  0
M  END
$$$$
