CSD_code = PASGEV | q = 1 | S = 0 | Stoichiometry = C13H26BrN2NiS2(1+) | MND = 5
 OpenBabel04212202083D

 45 49  0  0  1  0  0  0  0  0999 V2000
    3.7716    9.2021    0.3245 Ni  0  0  0  0  0  0  0  0  0  0  0  0
    5.1867    7.4967    0.2917 S   0  0  1  0  0  3  0  0  0  0  0  0
    4.7683    9.9205    2.1699 S   0  0  2  0  0  3  0  0  0  0  0  0
    2.0086    7.9519    1.5425 Br  0  0  0  0  0  0  0  0  0  0  0  0
    3.2243    8.8240   -1.6454 N   0  0  2  0  0  4  0  0  0  0  0  0
    2.8392   11.0432    0.0763 N   0  0  1  0  0  4  0  0  0  0  0  0
    5.0496    7.1337   -1.4963 C   0  0  0  0  0  0  0  0  0  0  0  0
    3.6251    7.4320   -1.9294 C   0  0  0  0  0  0  0  0  0  0  0  0
    3.9257    9.7891   -2.5216 C   0  0  0  0  0  0  0  0  0  0  0  0
    4.5705   10.9301   -1.7250 C   0  0  0  0  0  0  0  0  0  0  0  0
    3.5753   11.8076   -0.9556 C   0  0  0  0  0  0  0  0  0  0  0  0
    1.7595    8.8951   -1.8315 C   0  0  0  0  0  0  0  0  0  0  0  0
    1.1534   10.2832   -1.6553 C   0  0  0  0  0  0  0  0  0  0  0  0
    1.4129   10.8928   -0.2818 C   0  0  0  0  0  0  0  0  0  0  0  0
    2.8824   11.7125    1.3913 C   0  0  0  0  0  0  0  0  0  0  0  0
    4.2628   11.6726    2.0228 C   0  0  0  0  0  0  0  0  0  0  0  0
    6.5737   10.0755    1.9179 C   0  0  0  0  0  0  0  0  0  0  0  0
    7.2231    8.7109    1.7295 C   0  0  0  0  0  0  0  0  0  0  0  0
    6.9180    8.0820    0.3765 C   0  0  0  0  0  0  0  0  0  0  0  0
    5.2744    6.0774   -1.6434 H   0  0  0  0  0  0  0  0  0  0  0  0
    5.7891    7.7344   -2.0244 H   0  0  0  0  0  0  0  0  0  0  0  0
    3.5076    7.2093   -2.9988 H   0  0  0  0  0  0  0  0  0  0  0  0
    2.9539    6.7738   -1.3698 H   0  0  0  0  0  0  0  0  0  0  0  0
    3.2352   10.1982   -3.2618 H   0  0  0  0  0  0  0  0  0  0  0  0
    4.7144    9.2749   -3.0758 H   0  0  0  0  0  0  0  0  0  0  0  0
    5.1301   11.5633   -2.4159 H   0  0  0  0  0  0  0  0  0  0  0  0
    5.2900   10.4996   -1.0092 H   0  0  0  0  0  0  0  0  0  0  0  0
    4.1340   12.6184   -0.4821 H   0  0  0  0  0  0  0  0  0  0  0  0
    2.8752   12.2721   -1.6527 H   0  0  0  0  0  0  0  0  0  0  0  0
    1.3014    8.2258   -1.0984 H   0  0  0  0  0  0  0  0  0  0  0  0
    1.5075    8.5308   -2.8357 H   0  0  0  0  0  0  0  0  0  0  0  0
    1.4691   10.9563   -2.4524 H   0  0  0  0  0  0  0  0  0  0  0  0
    0.0729   10.1712   -1.7527 H   0  0  0  0  0  0  0  0  0  0  0  0
    0.9273   11.8763   -0.2408 H   0  0  0  0  0  0  0  0  0  0  0  0
    0.9499   10.2497    0.4714 H   0  0  0  0  0  0  0  0  0  0  0  0
    2.1893   11.1853    2.0537 H   0  0  0  0  0  0  0  0  0  0  0  0
    2.5440   12.7540    1.3032 H   0  0  0  0  0  0  0  0  0  0  0  0
    5.0149   12.1969    1.4346 H   0  0  0  0  0  0  0  0  0  0  0  0
    4.2305   12.0989    3.0254 H   0  0  0  0  0  0  0  0  0  0  0  0
    6.9601   10.5502    2.8200 H   0  0  0  0  0  0  0  0  0  0  0  0
    6.7649   10.7254    1.0618 H   0  0  0  0  0  0  0  0  0  0  0  0
    8.3057    8.8311    1.8157 H   0  0  0  0  0  0  0  0  0  0  0  0
    6.9000    8.0383    2.5274 H   0  0  0  0  0  0  0  0  0  0  0  0
    7.1014    8.7869   -0.4367 H   0  0  0  0  0  0  0  0  0  0  0  0
    7.5379    7.1975    0.2290 H   0  0  0  0  0  0  0  0  0  0  0  0
  1  4  1  0  0  0  0
  1  3  1  0  0  0  0
  2  7  1  6  0  0  0
  2  1  1  0  0  0  0
  2 19  1  0  0  0  0
  3 17  1  6  0  0  0
  5  9  1  6  0  0  0
  5  1  1  0  0  0  0
  6 11  1  6  0  0  0
  6  1  1  0  0  0  0
  6 15  1  0  0  0  0
  8  5  1  0  0  0  0
  8  7  1  0  0  0  0
  8 23  1  0  0  0  0
  9 10  1  0  0  0  0
 10 27  1  0  0  0  0
 10 11  1  0  0  0  0
 11 28  1  0  0  0  0
 12 13  1  0  0  0  0
 12  5  1  0  0  0  0
 12 30  1  0  0  0  0
 13 14  1  0  0  0  0
 14 34  1  0  0  0  0
 14  6  1  0  0  0  0
 14 35  1  0  0  0  0
 15 16  1  0  0  0  0
 15 36  1  0  0  0  0
 16  3  1  0  0  0  0
 16 39  1  0  0  0  0
 17 40  1  0  0  0  0
 18 42  1  0  0  0  0
 18 17  1  0  0  0  0
 18 43  1  0  0  0  0
 19 18  1  0  0  0  0
 20  7  1  0  0  0  0
 21  7  1  0  0  0  0
 22  8  1  0  0  0  0
 24  9  1  0  0  0  0
 25  9  1  0  0  0  0
 26 10  1  0  0  0  0
 29 11  1  0  0  0  0
 31 12  1  0  0  0  0
 32 13  1  0  0  0  0
 33 13  1  0  0  0  0
 37 15  1  0  0  0  0
 38 16  1  0  0  0  0
 41 17  1  0  0  0  0
 44 19  1  0  0  0  0
 45 19  1  0  0  0  0
M  END
$$$$
