CSD_code = PASZOB | q = 0 | S = 0 | Stoichiometry = C26H27Cl2N3Pt | MND = 4
 OpenBabel04212202083D

 59 63  0  0  1  0  0  0  0  0999 V2000
    6.1995    4.8060    9.4287 Pt  0  0  0  0  0  0  0  0  0  0  0  0
    7.1023    5.8067   11.2200 Cl  0  0  0  0  0  0  0  0  0  0  0  0
    7.3612    2.9514    9.9187 Cl  0  0  0  0  0  0  0  0  0  0  0  0
    5.0699    6.3549    8.9407 N   0  0  0  0  0  0  0  0  0  0  0  0
    4.3282    6.1359    7.8174 N   0  0  2  0  0  0  0  0  0  0  0  0
    5.3387    4.1174    7.7355 N   0  0  0  0  0  0  0  0  0  0  0  0
    4.6895    7.4810    9.4945 C   0  0  0  0  0  0  0  0  0  0  0  0
    5.1650    7.8390   10.3873 H   0  0  0  0  0  0  0  0  0  0  0  0
    3.6289    8.0443    8.7434 C   0  0  0  0  0  0  0  0  0  0  0  0
    2.8407    9.1885    8.8818 C   0  0  0  0  0  0  0  0  0  0  0  0
    3.0200    9.8767    9.6921 H   0  0  0  0  0  0  0  0  0  0  0  0
    1.8348    9.3941    7.9668 C   0  0  0  0  0  0  0  0  0  0  0  0
    1.2066   10.2677    8.0474 H   0  0  0  0  0  0  0  0  0  0  0  0
    1.5948    8.4808    6.9354 C   0  0  0  0  0  0  0  0  0  0  0  0
    0.7815    8.6650    6.2505 H   0  0  0  0  0  0  0  0  0  0  0  0
    2.3629    7.3460    6.7709 C   0  0  0  0  0  0  0  0  0  0  0  0
    2.1535    6.6471    5.9778 H   0  0  0  0  0  0  0  0  0  0  0  0
    3.3996    7.1434    7.6730 C   0  0  2  0  0  3  0  0  0  0  0  0
    4.5809    4.9710    7.1209 C   0  0  2  0  0  3  0  0  0  0  0  0
    4.1163    4.8489    5.7302 C   0  0  0  0  0  0  0  0  0  0  0  0
    4.3282    5.9196    4.8577 C   0  0  0  0  0  0  0  0  0  0  0  0
    4.7735    6.8335    5.2239 H   0  0  0  0  0  0  0  0  0  0  0  0
    3.9956    5.8057    3.5223 C   0  0  0  0  0  0  0  0  0  0  0  0
    4.1712    6.6367    2.8562 H   0  0  0  0  0  0  0  0  0  0  0  0
    3.4457    4.6287    3.0395 C   0  0  0  0  0  0  0  0  0  0  0  0
    3.1870    4.5420    1.9953 H   0  0  0  0  0  0  0  0  0  0  0  0
    3.2361    3.5636    3.8987 C   0  0  0  0  0  0  0  0  0  0  0  0
    2.8119    2.6432    3.5278 H   0  0  0  0  0  0  0  0  0  0  0  0
    3.5752    3.6652    5.2358 C   0  0  0  0  0  0  0  0  0  0  0  0
    3.4141    2.8275    5.8939 H   0  0  0  0  0  0  0  0  0  0  0  0
    5.6985    2.8775    7.1704 C   0  0  0  0  0  0  0  0  0  0  0  0
    6.6245    2.8164    6.1202 C   0  0  0  0  0  0  0  0  0  0  0  0
    6.9361    1.5680    5.6037 C   0  0  0  0  0  0  0  0  0  0  0  0
    7.6527    1.4836    4.8035 H   0  0  0  0  0  0  0  0  0  0  0  0
    6.3437    0.4228    6.1015 C   0  0  0  0  0  0  0  0  0  0  0  0
    6.5875   -0.5376    5.6724 H   0  0  0  0  0  0  0  0  0  0  0  0
    5.4661    0.4990    7.1652 C   0  0  0  0  0  0  0  0  0  0  0  0
    5.0361   -0.4057    7.5634 H   0  0  0  0  0  0  0  0  0  0  0  0
    5.1437    1.7213    7.7356 C   0  0  0  0  0  0  0  0  0  0  0  0
    7.3366    4.0648    5.6493 C   0  0  0  0  0  0  0  0  0  0  0  0
    6.6585    4.9197    5.7296 H   0  0  0  0  0  0  0  0  0  0  0  0
    7.7857    3.9910    4.1906 C   0  0  0  0  0  0  0  0  0  0  0  0
    8.6143    3.2993    4.0666 H   0  0  0  0  0  0  0  0  0  0  0  0
    8.1208    4.9729    3.8630 H   0  0  0  0  0  0  0  0  0  0  0  0
    6.9623    3.6782    3.5511 H   0  0  0  0  0  0  0  0  0  0  0  0
    8.5298    4.3265    6.5753 C   0  0  0  0  0  0  0  0  0  0  0  0
    8.1900    4.4878    7.6037 H   0  0  0  0  0  0  0  0  0  0  0  0
    9.0747    5.2101    6.2507 H   0  0  0  0  0  0  0  0  0  0  0  0
    9.2043    3.4742    6.5748 H   0  0  0  0  0  0  0  0  0  0  0  0
    4.2177    1.8058    8.9291 C   0  0  0  0  0  0  0  0  0  0  0  0
    4.3994    2.7652    9.4380 H   0  0  0  0  0  0  0  0  0  0  0  0
    2.7492    1.7610    8.4961 C   0  0  0  0  0  0  0  0  0  0  0  0
    2.4806    2.6382    7.9092 H   0  0  0  0  0  0  0  0  0  0  0  0
    2.1056    1.7338    9.3725 H   0  0  0  0  0  0  0  0  0  0  0  0
    2.5555    0.8706    7.9003 H   0  0  0  0  0  0  0  0  0  0  0  0
    4.5105    0.7054    9.9484 C   0  0  0  0  0  0  0  0  0  0  0  0
    4.2144   -0.2739    9.5812 H   0  0  0  0  0  0  0  0  0  0  0  0
    3.9601    0.9026   10.8655 H   0  0  0  0  0  0  0  0  0  0  0  0
    5.5719    0.6958   10.1797 H   0  0  0  0  0  0  0  0  0  0  0  0
  1  3  1  0  0  0  0
  1  2  1  0  0  0  0
  4  1  1  0  0  0  0
  4  7  1  0  0  0  0
  5  4  1  1  0  0  0
  6  1  1  0  0  0  0
  7  8  1  0  0  0  0
  9 10  1  0  0  0  0
  9  7  2  0  0  0  0
 10 11  1  0  0  0  0
 12 13  1  0  0  0  0
 12 10  2  0  0  0  0
 14 12  1  0  0  0  0
 15 14  1  0  0  0  0
 16 14  2  0  0  0  0
 17 16  1  0  0  0  0
 18 16  1  1  0  0  0
 18  5  1  0  0  0  0
 18  9  1  0  0  0  0
 19 20  1  6  0  0  0
 19  6  1  0  0  0  0
 19  5  1  0  0  0  0
 21 22  1  0  0  0  0
 21 20  2  0  0  0  0
 23 21  1  0  0  0  0
 24 23  1  0  0  0  0
 25 23  2  0  0  0  0
 25 27  1  0  0  0  0
 26 25  1  0  0  0  0
 27 29  2  0  0  0  0
 28 27  1  0  0  0  0
 29 20  1  0  0  0  0
 29 30  1  0  0  0  0
 31  6  1  0  0  0  0
 31 39  1  0  0  0  0
 32 31  2  0  0  0  0
 33 35  2  0  0  0  0
 33 32  1  0  0  0  0
 34 33  1  0  0  0  0
 35 37  1  0  0  0  0
 36 35  1  0  0  0  0
 37 38  1  0  0  0  0
 37 39  2  0  0  0  0
 39 50  1  0  0  0  0
 40 41  1  0  0  0  0
 40 32  1  0  0  0  0
 40 46  1  0  0  0  0
 42 40  1  0  0  0  0
 43 42  1  0  0  0  0
 44 42  1  0  0  0  0
 45 42  1  0  0  0  0
 46 47  1  0  0  0  0
 48 46  1  0  0  0  0
 49 46  1  0  0  0  0
 50 51  1  0  0  0  0
 50 56  1  0  0  0  0
 52 50  1  0  0  0  0
 52 54  1  0  0  0  0
 53 52  1  0  0  0  0
 55 52  1  0  0  0  0
 56 59  1  0  0  0  0
 56 58  1  0  0  0  0
 57 56  1  0  0  0  0
M  END
$$$$
