CSD_code = PATDUM | q = 0 | S = 0 | Stoichiometry = C9H6AuCl2NS | MND = 4
 OpenBabel04212202083D

 20 22  0  0  0  0  0  0  0  0999 V2000
    6.0485    5.5787    2.2835 Au  0  0  0  0  0  0  0  0  0  0  0  0
    7.1432    3.5237    4.1505 C   0  0  0  0  0  0  0  0  0  0  0  0
    7.4478    4.4189    4.6757 H   0  0  0  0  0  0  0  0  0  0  0  0
    7.4362    2.2514    4.6461 C   0  0  0  0  0  0  0  0  0  0  0  0
    7.9781    2.1641    5.5736 H   0  0  0  0  0  0  0  0  0  0  0  0
    7.0283    1.1490    3.9422 C   0  0  0  0  0  0  0  0  0  0  0  0
    7.2381    0.1502    4.2958 H   0  0  0  0  0  0  0  0  0  0  0  0
    6.3221    1.3136    2.7346 C   0  0  0  0  0  0  0  0  0  0  0  0
    6.0610    2.6439    2.2943 C   0  0  0  0  0  0  0  0  0  0  0  0
    5.3555    2.8487    1.0889 C   0  0  0  0  0  0  0  0  0  0  0  0
    4.9287    1.7579    0.3540 C   0  0  0  0  0  0  0  0  0  0  0  0
    4.3911    1.9330   -0.5639 H   0  0  0  0  0  0  0  0  0  0  0  0
    5.1870    0.4588    0.7892 C   0  0  0  0  0  0  0  0  0  0  0  0
    4.8410   -0.3715    0.1933 H   0  0  0  0  0  0  0  0  0  0  0  0
    5.8706    0.2318    1.9569 C   0  0  0  0  0  3  0  0  0  0  0  0
    6.0730   -0.7715    2.2978 H   0  0  0  0  0  0  0  0  0  0  0  0
    5.5189    7.5410    1.3821 Cl  0  0  0  0  0  0  0  0  0  0  0  0
    7.0681    6.6704    4.0280 Cl  0  0  0  0  0  0  0  0  0  0  0  0
    6.4852    3.7077    3.0249 N   0  0  0  0  0  0  0  0  0  0  0  0
    5.0223    4.4634    0.5266 S   0  0  0  0  0  0  0  0  0  0  0  0
  1 19  1  0  0  0  0
  1 18  1  0  0  0  0
  2  4  2  0  0  0  0
  2  3  1  0  0  0  0
  4  5  1  0  0  0  0
  6  7  1  0  0  0  0
  6  4  1  0  0  0  0
  8  6  2  0  0  0  0
  9  8  1  0  0  0  0
  9 19  1  0  0  0  0
 10  9  2  0  0  0  0
 11 13  2  0  0  0  0
 11 10  1  0  0  0  0
 12 11  1  0  0  0  0
 13 15  1  0  0  0  0
 14 13  1  0  0  0  0
 15 16  1  0  0  0  0
 15  8  1  0  0  0  0
 17  1  1  0  0  0  0
 19  2  1  0  0  0  0
 20 10  1  0  0  0  0
 20  1  1  0  0  0  0
M  END
$$$$
