CSD_code = PATGOJ | q = 0 | S = 0 | Stoichiometry = C8H22CuIN2 | MND = 3
 OpenBabel04212202083D

 34 33  0  0  0  0  0  0  0  0999 V2000
    3.0098    7.4632    5.7470 Cu  0  0  0  0  0  0  0  0  0  0  0  0
    5.4823    7.2827    5.7547 I   0  0  0  0  0  0  0  0  0  0  0  0
    1.4876    6.9581    4.4067 N   0  0  0  0  0  4  0  0  0  0  0  0
    0.6563    6.7335    4.9504 H   0  0  0  0  0  0  0  0  0  0  0  0
    1.2952    7.8012    3.8695 H   0  0  0  0  0  0  0  0  0  0  0  0
    1.7843    5.8453    3.4821 C   0  0  0  0  0  0  0  0  0  0  0  0
    2.9354    6.2743    2.5766 C   0  0  0  0  0  0  0  0  0  0  0  0
    2.6483    7.1256    1.9619 H   0  0  0  0  0  0  0  0  0  0  0  0
    3.2244    5.4588    1.9205 H   0  0  0  0  0  0  0  0  0  0  0  0
    3.7980    6.5548    3.1750 H   0  0  0  0  0  0  0  0  0  0  0  0
    2.1897    4.6341    4.3191 C   0  0  0  0  0  0  0  0  0  0  0  0
    3.0591    4.8771    4.9257 H   0  0  0  0  0  0  0  0  0  0  0  0
    2.4453    3.7979    3.6752 H   0  0  0  0  0  0  0  0  0  0  0  0
    1.3773    4.3265    4.9761 H   0  0  0  0  0  0  0  0  0  0  0  0
    0.5427    5.5195    2.6443 C   0  0  0  0  0  0  0  0  0  0  0  0
    0.2296    6.3871    2.0649 H   0  0  0  0  0  0  0  0  0  0  0  0
   -0.2851    5.2102    3.2818 H   0  0  0  0  0  0  0  0  0  0  0  0
    0.7566    4.7103    1.9519 H   0  0  0  0  0  0  0  0  0  0  0  0
    1.8998    8.3378    7.3254 N   0  0  0  0  0  4  0  0  0  0  0  0
    2.5180    9.0974    7.6018 H   0  0  0  0  0  0  0  0  0  0  0  0
    1.0364    8.7505    6.9789 H   0  0  0  0  0  0  0  0  0  0  0  0
    1.6226    7.4799    8.4908 C   0  0  0  0  0  0  0  0  0  0  0  0
    2.9596    7.0617    9.0969 C   0  0  0  0  0  0  0  0  0  0  0  0
    3.5830    6.5881    8.3431 H   0  0  0  0  0  0  0  0  0  0  0  0
    2.8062    6.3593    9.9110 H   0  0  0  0  0  0  0  0  0  0  0  0
    3.4938    7.9265    9.4844 H   0  0  0  0  0  0  0  0  0  0  0  0
    0.8572    6.2516    7.9977 C   0  0  0  0  0  0  0  0  0  0  0  0
    1.4523    5.7190    7.2592 H   0  0  0  0  0  0  0  0  0  0  0  0
   -0.0926    6.5420    7.5498 H   0  0  0  0  0  0  0  0  0  0  0  0
    0.6513    5.5774    8.8241 H   0  0  0  0  0  0  0  0  0  0  0  0
    0.7869    8.2419    9.5257 C   0  0  0  0  0  0  0  0  0  0  0  0
    1.3116    9.1361    9.8579 H   0  0  0  0  0  0  0  0  0  0  0  0
    0.5988    7.6171   10.3944 H   0  0  0  0  0  0  0  0  0  0  0  0
   -0.1737    8.5396    9.1062 H   0  0  0  0  0  0  0  0  0  0  0  0
  1  2  1  0  0  0  0
  1 19  1  0  0  0  0
  3  4  1  0  0  0  0
  3  1  1  0  0  0  0
  5  3  1  0  0  0  0
  6 11  1  0  0  0  0
  6  3  1  0  0  0  0
  7 10  1  0  0  0  0
  7  6  1  0  0  0  0
  8  7  1  0  0  0  0
  9  7  1  0  0  0  0
 11 12  1  0  0  0  0
 11 14  1  0  0  0  0
 13 11  1  0  0  0  0
 15 17  1  0  0  0  0
 15  6  1  0  0  0  0
 16 15  1  0  0  0  0
 18 15  1  0  0  0  0
 19 20  1  0  0  0  0
 19 22  1  0  0  0  0
 21 19  1  0  0  0  0
 22 23  1  0  0  0  0
 22 31  1  0  0  0  0
 23 26  1  0  0  0  0
 23 25  1  0  0  0  0
 24 23  1  0  0  0  0
 27 22  1  0  0  0  0
 27 30  1  0  0  0  0
 28 27  1  0  0  0  0
 29 27  1  0  0  0  0
 31 32  1  0  0  0  0
 31 33  1  0  0  0  0
 34 31  1  0  0  0  0
M  END
$$$$
