CSD_code = PATKEC | q = 0 | S = 0 | Stoichiometry = C22H23ClN4Pd | MND = 4
 OpenBabel04212202083D

 51 55  0  0  1  0  0  0  0  0999 V2000
    8.0354    1.0424    2.0719 Pd  0  0  2  0  0  0  0  0  0  0  0  0
    9.6248    1.9942    2.8180 N   0  0  0  0  0  0  0  0  0  0  0  0
    7.2875    1.4844    3.8882 N   0  0  0  0  0  0  0  0  0  0  0  0
    9.4150    2.5540    4.0411 C   0  0  0  0  0  0  0  0  0  0  0  0
    8.1420    2.2890    4.6140 C   0  0  0  0  0  0  0  0  0  0  0  0
    6.1749    1.3079    4.6091 C   0  0  2  0  0  3  0  0  0  0  0  0
    6.2874    2.0025    5.8146 C   0  0  0  0  0  0  0  0  0  0  0  0
    5.5432    2.0378    6.5877 H   0  0  0  0  0  0  0  0  0  0  0  0
   11.6495    3.4513    4.0166 C   0  0  0  0  0  0  0  0  0  0  0  0
   12.4402    4.0263    4.4757 H   0  0  0  0  0  0  0  0  0  0  0  0
    7.5273    2.6300    5.8340 C   0  0  0  0  0  0  0  0  0  0  0  0
   11.8472    2.8475    2.7761 C   0  0  0  0  0  0  0  0  0  0  0  0
   12.7853    2.9333    2.2531 H   0  0  0  0  0  0  0  0  0  0  0  0
   10.8046    2.1354    2.2189 C   0  0  0  0  0  0  0  0  0  0  0  0
   10.9166    1.6616    1.2500 H   0  0  0  0  0  0  0  0  0  0  0  0
   10.4395    3.3039    4.6489 C   0  0  0  0  0  0  0  0  0  0  0  0
   10.2612    3.7553    5.6085 H   0  0  0  0  0  0  0  0  0  0  0  0
    6.4104    0.1723    1.3351 N   0  0  0  0  0  0  0  0  0  0  0  0
    6.1635   -1.1508    1.3982 C   0  0  1  0  0  3  0  0  0  0  0  0
    5.5748    0.9708    0.6757 C   0  0  0  0  0  0  0  0  0  0  0  0
    5.8375    2.0293    0.6512 H   0  0  0  0  0  0  0  0  0  0  0  0
    7.0934   -1.9813    2.1299 C   0  0  0  0  0  0  0  0  0  0  0  0
    5.0196   -1.6847    0.7903 C   0  0  0  0  0  0  0  0  0  0  0  0
    4.8521   -2.7478    0.8288 H   0  0  0  0  0  0  0  0  0  0  0  0
    4.4299    0.5074    0.0568 C   0  0  0  0  0  0  0  0  0  0  0  0
    3.7782    1.1898   -0.4640 H   0  0  0  0  0  0  0  0  0  0  0  0
    4.1479   -0.8529    0.1211 C   0  0  0  0  0  0  0  0  0  0  0  0
    3.2668   -1.2527   -0.3575 H   0  0  0  0  0  0  0  0  0  0  0  0
    6.8750   -3.0808    2.9533 C   0  0  0  0  0  0  0  0  0  0  0  0
    5.0230    0.4654    4.1732 C   0  0  0  0  0  0  0  0  0  0  0  0
    5.3596   -0.5432    3.9322 H   0  0  0  0  0  0  0  0  0  0  0  0
    4.5347    0.8870    3.2929 H   0  0  0  0  0  0  0  0  0  0  0  0
    4.2928    0.4077    4.9766 H   0  0  0  0  0  0  0  0  0  0  0  0
    8.0485    3.4814    6.9412 C   0  0  0  0  0  0  0  0  0  0  0  0
    7.2946    3.5622    7.7213 H   0  0  0  0  0  0  0  0  0  0  0  0
    8.2839    4.4858    6.5879 H   0  0  0  0  0  0  0  0  0  0  0  0
    8.9483    3.0487    7.3803 H   0  0  0  0  0  0  0  0  0  0  0  0
    5.5788   -3.7424    3.2776 C   0  0  0  0  0  0  0  0  0  0  0  0
    4.7572   -3.0286    3.2632 H   0  0  0  0  0  0  0  0  0  0  0  0
    5.6324   -4.1958    4.2647 H   0  0  0  0  0  0  0  0  0  0  0  0
    5.3586   -4.5333    2.5592 H   0  0  0  0  0  0  0  0  0  0  0  0
    8.9457    0.6621   -0.0050 Cl  0  0  0  0  0  0  0  0  0  0  0  0
    8.1250   -3.4373    3.4924 C   0  0  0  0  0  0  0  0  0  0  0  0
    8.3006   -4.2361    4.1858 H   0  0  0  0  0  0  0  0  0  0  0  0
    8.4406   -1.6798    2.1894 N   0  0  0  0  0  0  0  0  0  0  0  0
    8.9166   -1.0914    1.4943 H   0  0  0  0  0  0  0  0  0  0  0  0
    9.0719   -2.5771    2.9848 C   0  0  0  0  0  0  0  0  0  0  0  0
   10.5419   -2.5012    3.1874 C   0  0  0  0  0  0  0  0  0  0  0  0
   10.8394   -3.0993    4.0436 H   0  0  0  0  0  0  0  0  0  0  0  0
   10.8380   -1.4649    3.3539 H   0  0  0  0  0  0  0  0  0  0  0  0
   11.0716   -2.8674    2.3072 H   0  0  0  0  0  0  0  0  0  0  0  0
  1 42  1  6  0  0  0
  1  2  1  0  0  0  0
  1  3  1  0  0  0  0
  2  4  1  0  0  0  0
  3  6  1  0  0  0  0
  3  5  1  0  0  0  0
  4  5  2  0  0  0  0
  4 16  1  0  0  0  0
  5 11  1  0  0  0  0
  6 30  1  1  0  0  0
  6  7  1  0  0  0  0
  7 11  2  0  0  0  0
  7  8  1  0  0  0  0
  9 10  1  0  0  0  0
  9 16  2  0  0  0  0
 11 34  1  0  0  0  0
 12  9  1  0  0  0  0
 13 12  1  0  0  0  0
 14 12  2  0  0  0  0
 14  2  1  0  0  0  0
 15 14  1  0  0  0  0
 16 17  1  0  0  0  0
 18 19  1  0  0  0  0
 18  1  1  0  0  0  0
 19 22  1  1  0  0  0
 20 18  1  0  0  0  0
 21 20  1  0  0  0  0
 22 45  1  0  0  0  0
 22 29  2  0  0  0  0
 23 24  1  0  0  0  0
 23 19  1  0  0  0  0
 25 27  1  0  0  0  0
 25 20  2  0  0  0  0
 26 25  1  0  0  0  0
 27 23  2  0  0  0  0
 28 27  1  0  0  0  0
 29 38  1  0  0  0  0
 29 43  1  0  0  0  0
 30 33  1  0  0  0  0
 31 30  1  0  0  0  0
 32 30  1  0  0  0  0
 34 37  1  0  0  0  0
 34 35  1  0  0  0  0
 36 34  1  0  0  0  0
 38 40  1  0  0  0  0
 39 38  1  0  0  0  0
 41 38  1  0  0  0  0
 43 44  1  0  0  0  0
 45 47  1  0  0  0  0
 46 45  1  0  0  0  0
 47 48  1  0  0  0  0
 47 43  2  0  0  0  0
 48 50  1  0  0  0  0
 48 49  1  0  0  0  0
 51 48  1  0  0  0  0
M  END
$$$$
