CSD_code = PATSIN | q = 0 | S = 0 | Stoichiometry = C20H16ClN5Pd | MND = 4
 OpenBabel04212202083D

 43 48  0  0  0  0  0  0  0  0999 V2000
    5.9455   14.7150    4.2286 Pd  0  0  2  0  0  0  0  0  0  0  0  0
    7.4358   16.2577    3.5248 Cl  0  0  0  0  0  0  0  0  0  0  0  0
    5.0835   12.9804    4.7202 N   0  0  0  0  0  0  0  0  0  0  0  0
    5.1450   11.9699    2.5295 N   0  0  0  0  0  0  0  0  0  0  0  0
    5.2984   14.3163    2.2067 N   0  0  0  0  0  0  0  0  0  0  0  0
    5.0826   13.1084    7.0984 N   0  0  0  0  0  0  0  0  0  0  0  0
    5.6692   14.7578    8.4809 N   0  0  0  0  0  0  0  0  0  0  0  0
    5.2549   14.1152    9.1493 H   0  0  0  0  0  0  0  0  0  0  0  0
    4.9155   11.9789    3.7974 C   0  0  0  0  0  0  0  0  0  0  0  0
    4.4787   10.7706    4.5102 C   0  0  0  0  0  0  0  0  0  0  0  0
    4.1352    9.5084    4.0726 C   0  0  0  0  0  0  0  0  0  0  0  0
    4.1564    9.2653    3.0223 H   0  0  0  0  0  0  0  0  0  0  0  0
    3.7652    8.5738    5.0323 C   0  0  0  0  0  0  0  0  0  0  0  0
    3.4875    7.5767    4.7236 H   0  0  0  0  0  0  0  0  0  0  0  0
    3.7473    8.8967    6.3822 C   0  0  0  0  0  0  0  0  0  0  0  0
    3.4558    8.1454    7.1016 H   0  0  0  0  0  0  0  0  0  0  0  0
    4.1001   10.1655    6.8250 C   0  0  0  0  0  0  0  0  0  0  0  0
    4.0927   10.4201    7.8730 H   0  0  0  0  0  0  0  0  0  0  0  0
    4.4624   11.0968    5.8730 C   0  0  0  0  0  0  0  0  0  0  0  0
    4.8963   12.4939    5.9589 C   0  0  0  0  0  0  0  0  0  0  0  0
    5.6388   14.3308    7.1855 C   0  0  0  0  0  0  0  0  0  0  0  0
    6.1938   15.9249    8.8999 C   0  0  0  0  0  0  0  0  0  0  0  0
    6.7451   16.7481    7.9507 C   0  0  0  0  0  0  0  0  0  0  0  0
    7.1754   17.6930    8.2411 H   0  0  0  0  0  0  0  0  0  0  0  0
    6.7463   16.3580    6.6059 C   0  0  0  0  0  0  0  0  0  0  0  0
    7.1993   17.0252    5.8837 H   0  0  0  0  0  0  0  0  0  0  0  0
    6.2038   15.1521    6.1675 C   0  0  0  0  0  0  0  0  0  0  0  0
    5.2461   15.3322    1.3428 C   0  0  0  0  0  0  0  0  0  0  0  0
    5.4870   15.1397   -0.0123 C   0  0  0  0  0  0  0  0  0  0  0  0
    5.4619   15.9832   -0.6839 H   0  0  0  0  0  0  0  0  0  0  0  0
    5.7667   13.8619   -0.4778 C   0  0  0  0  0  0  0  0  0  0  0  0
    5.9945   13.6983   -1.5208 H   0  0  0  0  0  0  0  0  0  0  0  0
    5.6923   12.8007    0.3974 C   0  0  0  0  0  0  0  0  0  0  0  0
    5.8189   11.7790    0.0803 H   0  0  0  0  0  0  0  0  0  0  0  0
    5.4209   13.0526    1.7514 C   0  0  0  0  0  0  0  0  0  0  0  0
    6.1298   16.2236   10.3605 C   0  0  0  0  0  0  0  0  0  0  0  0
    6.6356   15.4452   10.9314 H   0  0  0  0  0  0  0  0  0  0  0  0
    5.0934   16.2676   10.6952 H   0  0  0  0  0  0  0  0  0  0  0  0
    6.6047   17.1762   10.5741 H   0  0  0  0  0  0  0  0  0  0  0  0
    4.8399   16.6710    1.8776 C   0  0  0  0  0  0  0  0  0  0  0  0
    4.5810   16.5823    2.9447 H   0  0  0  0  0  0  0  0  0  0  0  0
    3.9822   17.0460    1.3193 H   0  0  0  0  0  0  0  0  0  0  0  0
    5.6586   17.3823    1.7821 H   0  0  0  0  0  0  0  0  0  0  0  0
  1  2  1  6  0  0  0
  1  3  1  0  0  0  0
  1 27  1  0  0  0  0
  3 20  1  0  0  0  0
  4  9  1  0  0  0  0
  5  1  1  0  0  0  0
  6 21  2  0  0  0  0
  7 22  1  0  0  0  0
  7  8  1  0  0  0  0
  9 10  2  0  0  0  0
  9  3  1  0  0  0  0
 10 19  1  0  0  0  0
 11 10  1  0  0  0  0
 11 13  2  0  0  0  0
 12 11  1  0  0  0  0
 13 15  1  0  0  0  0
 14 13  1  0  0  0  0
 15 17  2  0  0  0  0
 15 16  1  0  0  0  0
 17 18  1  0  0  0  0
 19 20  2  0  0  0  0
 19 17  1  0  0  0  0
 20  6  1  0  0  0  0
 21  7  1  0  0  0  0
 22 36  1  0  0  0  0
 23 24  1  0  0  0  0
 23 22  2  0  0  0  0
 25 23  1  0  0  0  0
 26 25  1  0  0  0  0
 27 25  2  0  0  0  0
 27 21  1  0  0  0  0
 28 40  1  0  0  0  0
 28  5  1  0  0  0  0
 29 28  2  0  0  0  0
 30 29  1  0  0  0  0
 31 29  1  0  0  0  0
 31 33  2  0  0  0  0
 32 31  1  0  0  0  0
 33 35  1  0  0  0  0
 34 33  1  0  0  0  0
 35  5  1  0  0  0  0
 35  4  2  0  0  0  0
 36 39  1  0  0  0  0
 36 38  1  0  0  0  0
 36 37  1  0  0  0  0
 40 41  1  0  0  0  0
 42 40  1  0  0  0  0
 43 40  1  0  0  0  0
M  END
$$$$
