CSD_code = PAWWIU | q = 0 | S = 0 | Stoichiometry = C12H16Cl2N2Pt | MND = 4
 OpenBabel04212202083D

 33 35  0  0  0  0  0  0  0  0999 V2000
    0.2352    3.2060    2.2549 Pt  0  0  2  0  0  0  0  0  0  0  0  0
    1.3575    1.4810    3.0984 Cl  0  0  0  0  0  0  0  0  0  0  0  0
    4.5617    2.0271   -1.3851 Cl  0  0  0  0  0  0  0  0  0  0  0  0
   -1.1408    3.1505    4.0467 N   0  0  0  0  0  4  0  0  0  0  0  0
   -0.6733    4.7739    1.4030 N   0  0  0  0  0  0  0  0  0  0  0  0
    1.4211    3.3884    0.6570 C   0  0  0  0  0  0  0  0  0  0  0  0
    2.5162    2.6367    0.2566 C   0  0  0  0  0  0  0  0  0  0  0  0
    2.8468    1.7860    0.8332 H   0  0  0  0  0  0  0  0  0  0  0  0
    3.2027    2.9760   -0.9016 C   0  0  0  0  0  0  0  0  0  0  0  0
    2.8315    4.0603   -1.6885 C   0  0  0  0  0  0  0  0  0  0  0  0
    3.3904    4.2958   -2.5805 H   0  0  0  0  0  0  0  0  0  0  0  0
    1.7454    4.8192   -1.3095 C   0  0  0  0  0  0  0  0  0  0  0  0
    1.4378    5.6656   -1.9068 H   0  0  0  0  0  0  0  0  0  0  0  0
    1.0419    4.4893   -0.1501 C   0  0  0  0  0  0  0  0  0  0  0  0
   -0.1061    5.1993    0.3238 C   0  0  0  0  0  0  0  0  0  0  0  0
   -0.4957    6.0638   -0.2122 H   0  0  0  0  0  0  0  0  0  0  0  0
   -1.8550    5.4413    1.8861 C   0  0  0  0  0  0  0  0  0  0  0  0
   -2.7377    4.9165    1.4963 H   0  0  0  0  0  0  0  0  0  0  0  0
   -1.8855    6.4715    1.5053 H   0  0  0  0  0  0  0  0  0  0  0  0
   -1.9193    5.4597    3.4135 C   0  0  0  0  0  0  0  0  0  0  0  0
   -0.9665    5.8203    3.8046 H   0  0  0  0  0  0  0  0  0  0  0  0
   -2.6938    6.1680    3.7136 H   0  0  0  0  0  0  0  0  0  0  0  0
   -2.2646    4.0927    4.0033 C   0  0  0  0  0  0  0  0  0  0  0  0
   -3.0601    3.6508    3.3960 H   0  0  0  0  0  0  0  0  0  0  0  0
   -2.6618    4.2288    5.0217 H   0  0  0  0  0  0  0  0  0  0  0  0
   -0.2749    3.4638    5.1865 C   0  0  0  0  0  0  0  0  0  0  0  0
    0.1616    4.4563    5.0745 H   0  0  0  0  0  0  0  0  0  0  0  0
    0.5342    2.7362    5.2359 H   0  0  0  0  0  0  0  0  0  0  0  0
   -0.8406    3.4316    6.1277 H   0  0  0  0  0  0  0  0  0  0  0  0
   -1.6756    1.7978    4.2231 C   0  0  0  0  0  0  0  0  0  0  0  0
   -2.2766    1.5203    3.3563 H   0  0  0  0  0  0  0  0  0  0  0  0
   -2.2985    1.7362    5.1251 H   0  0  0  0  0  0  0  0  0  0  0  0
   -0.8518    1.0916    4.3111 H   0  0  0  0  0  0  0  0  0  0  0  0
  1  2  1  6  0  0  0
  1  4  1  0  0  0  0
  3  9  1  0  0  0  0
  4 30  1  0  0  0  0
  4 26  1  0  0  0  0
  5 17  1  0  0  0  0
  5  1  1  0  0  0  0
  6  1  2  0  0  0  0
  7  6  1  0  0  0  0
  7  8  1  0  0  0  0
  9  7  2  0  0  0  0
 10 12  2  0  0  0  0
 10  9  1  0  0  0  0
 11 10  1  0  0  0  0
 12 14  1  0  0  0  0
 13 12  1  0  0  0  0
 14 15  2  0  0  0  0
 14  6  1  0  0  0  0
 15  5  1  0  0  0  0
 16 15  1  0  0  0  0
 17 20  1  0  0  0  0
 18 17  1  0  0  0  0
 19 17  1  0  0  0  0
 20 22  1  0  0  0  0
 20 21  1  0  0  0  0
 20 23  1  0  0  0  0
 23  4  1  0  0  0  0
 23 25  1  0  0  0  0
 24 23  1  0  0  0  0
 26 28  1  0  0  0  0
 26 29  1  0  0  0  0
 27 26  1  0  0  0  0
 30 33  1  0  0  0  0
 30 32  1  0  0  0  0
 31 30  1  0  0  0  0
M  END
$$$$
