CSD_code = PAWYOC | q = 0 | S = 0 | Stoichiometry = C8H17Cl2O4V | MND = 6
 OpenBabel04212202083D

 32 31  0  0  0  0  0  0  0  0999 V2000
    3.5432    2.3797    8.8785 C   0  0  0  0  0  0  0  0  0  0  0  0
    3.9728    1.4463    9.2814 H   0  0  0  0  0  0  0  0  0  0  0  0
    3.4530    3.1181    9.6921 H   0  0  0  0  0  0  0  0  0  0  0  0
    4.4554    2.9184    7.7641 C   0  0  0  0  0  0  0  0  0  0  0  0
    4.1142    3.9235    7.4690 H   0  0  0  0  0  0  0  0  0  0  0  0
    5.4940    2.9638    8.1201 H   0  0  0  0  0  0  0  0  0  0  0  0
    4.8837    2.4604    5.4677 C   0  0  0  0  0  0  0  0  0  0  0  0
    4.5073    3.4640    5.2182 H   0  0  0  0  0  0  0  0  0  0  0  0
    4.5154    1.7523    4.7211 H   0  0  0  0  0  0  0  0  0  0  0  0
    6.4099    2.4552    5.4805 C   0  0  0  0  0  0  0  0  0  0  0  0
    6.8046    3.2282    6.1359 H   0  0  0  0  0  0  0  0  0  0  0  0
    6.7779    2.6374    4.4749 H   0  0  0  0  0  0  0  0  0  0  0  0
    6.7743    1.4876    5.8170 H   0  0  0  0  0  0  0  0  0  0  0  0
    0.9215    5.1783    6.1897 C   0  0  0  0  0  0  0  0  0  0  0  0
    1.4409    4.8395    5.2931 H   0  0  0  0  0  0  0  0  0  0  0  0
    1.0944    6.2569    6.3355 H   0  0  0  0  0  0  0  0  0  0  0  0
   -0.5771    4.8639    6.1877 C   0  0  0  0  0  0  0  0  0  0  0  0
   -1.1604    5.6608    5.7317 H   0  0  0  0  0  0  0  0  0  0  0  0
   -0.7507    3.9326    5.6464 H   0  0  0  0  0  0  0  0  0  0  0  0
   -0.8879    4.6704    7.6824 C   0  0  0  0  0  0  0  0  0  0  0  0
   -1.3645    3.7063    7.8503 H   0  0  0  0  0  0  0  0  0  0  0  0
   -1.5231    5.4606    8.0790 H   0  0  0  0  0  0  0  0  0  0  0  0
    0.5017    4.6917    8.3434 C   0  0  0  0  0  0  0  0  0  0  0  0
    0.7023    5.6747    8.7988 H   0  0  0  0  0  0  0  0  0  0  0  0
    0.6326    3.9028    9.0864 H   0  0  0  0  0  0  0  0  0  0  0  0
   -0.0360    1.7034    7.3967 O   0  0  0  0  0  1  0  0  0  0  0  0
    2.3355    2.0849    8.3401 O   0  0  0  0  0  0  0  0  0  0  0  0
    4.3097    2.0241    6.6864 O   0  0  0  0  0  0  0  0  0  0  0  0
    1.4418    4.4709    7.3015 O   0  0  0  0  0  0  0  0  0  0  0  0
    1.8506   -0.3752    6.9420 Cl  0  0  0  0  0  0  0  0  0  0  0  0
    1.5679    2.1680    5.1154 Cl  0  0  0  0  0  0  0  0  0  0  0  0
    1.4561    1.6556    7.0783 V   0  0  0  0  0  0  0  0  0  0  0  0
  1  2  1  0  0  0  0
  1  3  1  0  0  0  0
  4  6  1  0  0  0  0
  4  1  1  0  0  0  0
  5  4  1  0  0  0  0
  7 10  1  0  0  0  0
  7 28  1  0  0  0  0
  8  7  1  0  0  0  0
  9  7  1  0  0  0  0
 10 13  1  0  0  0  0
 10 11  1  0  0  0  0
 12 10  1  0  0  0  0
 14 16  1  0  0  0  0
 14 29  1  0  0  0  0
 15 14  1  0  0  0  0
 17 14  1  0  0  0  0
 17 20  1  0  0  0  0
 18 17  1  0  0  0  0
 19 17  1  0  0  0  0
 20 21  1  0  0  0  0
 20 22  1  0  0  0  0
 20 23  1  0  0  0  0
 23 24  1  0  0  0  0
 23 25  1  0  0  0  0
 27  1  1  0  0  0  0
 28  4  1  0  0  0  0
 29 23  1  0  0  0  0
 30 32  1  0  0  0  0
 31 32  1  0  0  0  0
 32 26  1  0  0  0  0
 32 27  1  0  0  0  0
M  END
$$$$
