CSD_code = PAXMAD | q = 0 | S = 0 | Stoichiometry = C22H20Cl2NO2PRu | MND = 6
 OpenBabel04212202083D

 49 52  0  0  0  0  0  0  0  0999 V2000
    0.7048    1.8361    6.5341 Ru  0  0  0  0  0  0  0  0  0  0  0  0
    0.8417    3.4347    4.7409 Cl  0  0  0  0  0  0  0  0  0  0  0  0
    1.3889    3.4250    8.1246 Cl  0  0  0  0  0  0  0  0  0  0  0  0
    0.8346    0.4334    8.3391 P   0  0  0  0  0  4  0  0  0  0  0  0
   -2.0735    2.9084    6.7534 O   0  0  0  0  0  1  0  0  0  0  0  0
   -0.1131   -0.1469    4.4466 O   0  0  0  0  0  1  0  0  0  0  0  0
    2.9352    1.3130    6.4837 N   0  0  0  0  0  4  0  0  0  0  0  0
   -1.0340    2.4537    6.6704 C   0  0  0  0  0  2  0  0  0  0  0  0
    0.2240    0.5926    5.2511 C   0  0  0  0  0  2  0  0  0  0  0  0
    2.5815    0.5665    8.8041 C   0  0  0  0  0  0  0  0  0  0  0  0
    3.4542    1.0252    7.8124 C   0  0  0  0  0  0  0  0  0  0  0  0
    4.7993    1.1599    8.1287 C   0  0  0  0  0  0  0  0  0  0  0  0
    5.5086    1.5073    7.3943 H   0  0  0  0  0  0  0  0  0  0  0  0
    5.2576    0.8659    9.4028 C   0  0  0  0  0  0  0  0  0  0  0  0
    6.3060    0.9904    9.6280 H   0  0  0  0  0  0  0  0  0  0  0  0
    4.3848    0.4279   10.3826 C   0  0  0  0  0  0  0  0  0  0  0  0
    4.7443    0.2142   11.3775 H   0  0  0  0  0  0  0  0  0  0  0  0
    3.0435    0.2772   10.0819 C   0  0  0  0  0  0  0  0  0  0  0  0
    2.3436   -0.0462   10.8391 H   0  0  0  0  0  0  0  0  0  0  0  0
    3.1796    0.1262    5.6464 C   0  0  0  0  0  0  0  0  0  0  0  0
    4.2511   -0.1080    5.6137 H   0  0  0  0  0  0  0  0  0  0  0  0
    2.8349    0.3211    4.6299 H   0  0  0  0  0  0  0  0  0  0  0  0
    2.6454   -0.7387    6.0471 H   0  0  0  0  0  0  0  0  0  0  0  0
    3.6366    2.4586    5.8795 C   0  0  0  0  0  0  0  0  0  0  0  0
    3.6129    3.3024    6.5701 H   0  0  0  0  0  0  0  0  0  0  0  0
    3.1200    2.7500    4.9629 H   0  0  0  0  0  0  0  0  0  0  0  0
    4.6737    2.2155    5.6302 H   0  0  0  0  0  0  0  0  0  0  0  0
    0.6100   -1.3326    7.9588 C   0  0  0  0  0  0  0  0  0  0  0  0
   -0.6361   -1.6895    7.4481 C   0  0  0  0  0  0  0  0  0  0  0  0
   -1.3905   -0.9197    7.3284 H   0  0  0  0  0  0  0  0  0  0  0  0
   -0.8933   -3.0005    7.0988 C   0  0  0  0  0  0  0  0  0  0  0  0
   -1.8593   -3.2754    6.7033 H   0  0  0  0  0  0  0  0  0  0  0  0
    0.0960   -3.9613    7.2493 C   0  0  0  0  0  0  0  0  0  0  0  0
   -0.1008   -4.9854    6.9702 H   0  0  0  0  0  0  0  0  0  0  0  0
    1.3370   -3.6098    7.7527 C   0  0  0  0  0  0  0  0  0  0  0  0
    2.1063   -4.3591    7.8680 H   0  0  0  0  0  0  0  0  0  0  0  0
    1.5989   -2.2973    8.1092 C   0  0  0  0  0  0  0  0  0  0  0  0
    2.5680   -2.0236    8.5059 H   0  0  0  0  0  0  0  0  0  0  0  0
   -0.1186    0.6058    9.8722 C   0  0  0  0  0  0  0  0  0  0  0  0
   -0.7319    1.8172   10.1741 C   0  0  0  0  0  0  0  0  0  0  0  0
   -0.6246    2.6540    9.4980 H   0  0  0  0  0  0  0  0  0  0  0  0
   -1.4588    1.9487   11.3439 C   0  0  0  0  0  0  0  0  0  0  0  0
   -1.9317    2.8907   11.5769 H   0  0  0  0  0  0  0  0  0  0  0  0
   -1.5808    0.8761   12.2117 C   0  0  0  0  0  0  0  0  0  0  0  0
   -2.1487    0.9805   13.1242 H   0  0  0  0  0  0  0  0  0  0  0  0
   -0.9797   -0.3355   11.9079 C   0  0  0  0  0  0  0  0  0  0  0  0
   -1.0805   -1.1743   12.5811 H   0  0  0  0  0  0  0  0  0  0  0  0
   -0.2531   -0.4772   10.7405 C   0  0  0  0  0  0  0  0  0  0  0  0
    0.2013   -1.4280   10.4957 H   0  0  0  0  0  0  0  0  0  0  0  0
  1  8  1  0  0  0  0
  1  3  1  0  0  0  0
  1  4  1  0  0  0  0
  2  1  1  0  0  0  0
  4 10  1  0  0  0  0
  4 39  1  0  0  0  0
  6  9  1  0  0  0  0
  7  1  1  0  0  0  0
  7 11  1  0  0  0  0
  8  5  1  0  0  0  0
  9  1  1  0  0  0  0
 10 18  1  0  0  0  0
 11 12  1  0  0  0  0
 11 10  2  0  0  0  0
 12 14  2  0  0  0  0
 13 12  1  0  0  0  0
 14 15  1  0  0  0  0
 14 16  1  0  0  0  0
 16 17  1  0  0  0  0
 18 16  2  0  0  0  0
 18 19  1  0  0  0  0
 20 23  1  0  0  0  0
 20  7  1  0  0  0  0
 21 20  1  0  0  0  0
 22 20  1  0  0  0  0
 24  7  1  0  0  0  0
 24 25  1  0  0  0  0
 26 24  1  0  0  0  0
 27 24  1  0  0  0  0
 28 37  1  0  0  0  0
 28  4  1  0  0  0  0
 29 28  2  0  0  0  0
 30 29  1  0  0  0  0
 31 33  2  0  0  0  0
 31 29  1  0  0  0  0
 32 31  1  0  0  0  0
 33 35  1  0  0  0  0
 34 33  1  0  0  0  0
 35 36  1  0  0  0  0
 35 37  2  0  0  0  0
 37 38  1  0  0  0  0
 39 40  2  0  0  0  0
 39 48  1  0  0  0  0
 40 42  1  0  0  0  0
 41 40  1  0  0  0  0
 42 43  1  0  0  0  0
 42 44  2  0  0  0  0
 44 45  1  0  0  0  0
 46 44  1  0  0  0  0
 46 47  1  0  0  0  0
 48 46  2  0  0  0  0
 49 48  1  0  0  0  0
M  END
$$$$
