CSD_code = PAXMEH | q = 0 | S = 0 | Stoichiometry = C21H17Cl2O2PRuS | MND = 6
 OpenBabel04212202083D

 45 48  0  0  0  0  0  0  0  0999 V2000
    7.1504    6.4322    4.9403 C   0  0  0  0  0  2  0  0  0  0  0  0
    7.6745    8.0692    2.8589 C   0  0  0  0  0  2  0  0  0  0  0  0
    3.2989    7.7208    2.6079 C   0  0  0  0  0  0  0  0  0  0  0  0
    3.6771    7.1994    1.3716 C   0  0  0  0  0  0  0  0  0  0  0  0
    2.7314    6.9130    0.4037 C   0  0  0  0  0  0  0  0  0  0  0  0
    3.0444    6.4888   -0.5382 H   0  0  0  0  0  0  0  0  0  0  0  0
    1.3916    7.1521    0.6648 C   0  0  0  0  0  0  0  0  0  0  0  0
    0.6512    6.9225   -0.0860 H   0  0  0  0  0  0  0  0  0  0  0  0
    1.0045    7.6603    1.8938 C   0  0  0  0  0  0  0  0  0  0  0  0
   -0.0412    7.8273    2.1038 H   0  0  0  0  0  0  0  0  0  0  0  0
    1.9510    7.9449    2.8638 C   0  0  0  0  0  0  0  0  0  0  0  0
    1.6477    8.3254    3.8284 H   0  0  0  0  0  0  0  0  0  0  0  0
    5.8606    8.3419    0.1553 C   0  0  0  0  0  0  0  0  0  0  0  0
    5.2648    8.4199   -0.7499 H   0  0  0  0  0  0  0  0  0  0  0  0
    6.9119    8.2415   -0.0985 H   0  0  0  0  0  0  0  0  0  0  0  0
    5.7052    9.2060    0.7969 H   0  0  0  0  0  0  0  0  0  0  0  0
    4.9095    9.8643    3.5513 C   0  0  0  0  0  0  0  0  0  0  0  0
    5.9398   10.4171    4.3097 C   0  0  0  0  0  0  0  0  0  0  0  0
    6.4663    9.7812    5.0139 H   0  0  0  0  0  0  0  0  0  0  0  0
    6.2793   11.7464    4.1567 C   0  0  0  0  0  0  0  0  0  0  0  0
    7.0764   12.1723    4.7470 H   0  0  0  0  0  0  0  0  0  0  0  0
    5.6000   12.5303    3.2349 C   0  0  0  0  0  0  0  0  0  0  0  0
    5.8692   13.5678    3.1072 H   0  0  0  0  0  0  0  0  0  0  0  0
    4.5804   11.9836    2.4745 C   0  0  0  0  0  0  0  0  0  0  0  0
    4.0540   12.5941    1.7555 H   0  0  0  0  0  0  0  0  0  0  0  0
    4.2309   10.6519    2.6288 C   0  0  0  0  0  0  0  0  0  0  0  0
    3.4299   10.2294    2.0361 H   0  0  0  0  0  0  0  0  0  0  0  0
    3.8187    8.0799    5.4408 C   0  0  0  0  0  0  0  0  0  0  0  0
    3.9952    6.9987    6.2976 C   0  0  0  0  0  0  0  0  0  0  0  0
    4.5924    6.1560    5.9780 H   0  0  0  0  0  0  0  0  0  0  0  0
    3.3912    7.0003    7.5423 C   0  0  0  0  0  0  0  0  0  0  0  0
    3.5279    6.1588    8.2043 H   0  0  0  0  0  0  0  0  0  0  0  0
    2.6157    8.0776    7.9382 C   0  0  0  0  0  0  0  0  0  0  0  0
    2.1444    8.0769    8.9097 H   0  0  0  0  0  0  0  0  0  0  0  0
    2.4484    9.1620    7.0910 C   0  0  0  0  0  0  0  0  0  0  0  0
    1.8509   10.0061    7.4028 H   0  0  0  0  0  0  0  0  0  0  0  0
    3.0498    9.1706    5.8462 C   0  0  0  0  0  0  0  0  0  0  0  0
    2.9342   10.0258    5.1936 H   0  0  0  0  0  0  0  0  0  0  0  0
    7.6025    6.1550    5.9479 O   0  0  0  0  0  1  0  0  0  0  0  0
    8.4395    8.8706    2.5785 O   0  0  0  0  0  1  0  0  0  0  0  0
    4.6159    8.0841    3.8139 P   0  0  0  0  0  4  0  0  0  0  0  0
    5.3945    6.8075    1.0246 S   0  0  1  0  0  3  0  0  0  0  0  0
    7.8603    5.1376    2.3201 Cl  0  0  0  0  0  0  0  0  0  0  0  0
    4.7239    5.1526    3.6142 Cl  0  0  0  0  0  0  0  0  0  0  0  0
    6.4231    6.7700    3.2658 Ru  0  0  0  0  0  0  0  0  0  0  0  0
  1 39  1  0  0  0  0
  2 45  1  0  0  0  0
  3 11  1  0  0  0  0
  3 41  1  0  0  0  0
  4  3  2  0  0  0  0
  5  7  2  0  0  0  0
  5  4  1  0  0  0  0
  6  5  1  0  0  0  0
  7  9  1  0  0  0  0
  8  7  1  0  0  0  0
  9 10  1  0  0  0  0
  9 11  2  0  0  0  0
 11 12  1  0  0  0  0
 13 16  1  0  0  0  0
 14 13  1  0  0  0  0
 15 13  1  0  0  0  0
 17 41  1  0  0  0  0
 17 18  1  0  0  0  0
 18 19  1  0  0  0  0
 20 18  2  0  0  0  0
 20 21  1  0  0  0  0
 22 20  1  0  0  0  0
 23 22  1  0  0  0  0
 24 26  1  0  0  0  0
 24 22  2  0  0  0  0
 25 24  1  0  0  0  0
 26 17  2  0  0  0  0
 27 26  1  0  0  0  0
 28 37  2  0  0  0  0
 28 29  1  0  0  0  0
 29 31  2  0  0  0  0
 30 29  1  0  0  0  0
 31 33  1  0  0  0  0
 31 32  1  0  0  0  0
 33 34  1  0  0  0  0
 35 36  1  0  0  0  0
 35 33  2  0  0  0  0
 37 35  1  0  0  0  0
 38 37  1  0  0  0  0
 40  2  1  0  0  0  0
 41 28  1  0  0  0  0
 42 13  1  6  0  0  0
 42  4  1  0  0  0  0
 42 45  1  0  0  0  0
 43 45  1  0  0  0  0
 45 44  1  0  0  0  0
 45 41  1  0  0  0  0
 45  1  1  0  0  0  0
M  END
$$$$
