CSD_code = PAXPUC | q = 0 | S = 0 | Stoichiometry = C9H14Cl2N2O2PtS | MND = 4
 OpenBabel04212202083D

 31 31  0  0  0  0  0  0  0  0999 V2000
   -0.1030   10.4489    8.9602 Pt  0  0  0  0  0  0  0  0  0  0  0  0
   -1.4055   12.2951    8.9150 Cl  0  0  0  0  0  0  0  0  0  0  0  0
    1.8491   11.5972    8.7184 Cl  0  0  0  0  0  0  0  0  0  0  0  0
   -2.0844    9.3106    8.9502 S   0  0  0  0  0  0  0  0  0  0  0  0
    1.9342    8.6228    7.9248 O   0  0  0  0  0  0  0  0  0  0  0  0
    2.2511    9.5336    7.7413 H   0  0  0  0  0  0  0  0  0  0  0  0
   -2.0069    7.8554    9.0066 O   0  0  0  0  0  1  0  0  0  0  0  0
    1.0602    8.7971    9.0073 N   0  0  0  0  0  0  0  0  0  0  0  0
    1.6081    6.6472    9.6399 N   0  0  0  0  0  4  0  0  0  0  0  0
    2.1730    6.5507    8.8126 H   0  0  0  0  0  0  0  0  0  0  0  0
    1.5806    5.9174   10.3260 H   0  0  0  0  0  0  0  0  0  0  0  0
    0.9627    7.8093    9.8318 C   0  0  0  0  0  0  0  0  0  0  0  0
    0.1323    7.9957   11.0327 C   0  0  0  0  0  0  0  0  0  0  0  0
   -3.0215    9.7329    7.4510 C   0  0  0  0  0  0  0  0  0  0  0  0
   -2.4291    9.4248    6.5954 H   0  0  0  0  0  0  0  0  0  0  0  0
   -3.1642   10.8074    7.4457 H   0  0  0  0  0  0  0  0  0  0  0  0
   -3.9642    9.1984    7.4643 H   0  0  0  0  0  0  0  0  0  0  0  0
   -3.3138    9.8340   10.1851 C   0  0  0  0  0  0  0  0  0  0  0  0
   -3.3970   10.9124   10.1178 H   0  0  0  0  0  0  0  0  0  0  0  0
   -2.9466    9.5388   11.1620 H   0  0  0  0  0  0  0  0  0  0  0  0
   -4.2541    9.3406    9.9714 H   0  0  0  0  0  0  0  0  0  0  0  0
   -0.6831    6.9683   11.4969 C   0  0  0  0  0  0  0  0  0  0  0  0
   -0.7279    6.0340   10.9596 H   0  0  0  0  0  0  0  0  0  0  0  0
   -1.4800    7.1672   12.6098 C   0  0  0  0  0  0  0  0  0  0  0  0
   -2.1222    6.3721   12.9574 H   0  0  0  0  0  0  0  0  0  0  0  0
   -1.4616    8.3838   13.2732 C   0  0  0  0  0  0  0  0  0  0  0  0
   -2.0876    8.5355   14.1400 H   0  0  0  0  0  0  0  0  0  0  0  0
   -0.6347    9.4035   12.8282 C   0  0  0  0  0  0  0  0  0  0  0  0
   -0.6075   10.3470   13.3513 H   0  0  0  0  0  0  0  0  0  0  0  0
    0.1615    9.2162   11.7111 C   0  0  0  0  0  0  0  0  0  0  0  0
    0.8498    9.9954   11.4008 H   0  0  0  0  0  0  0  0  0  0  0  0
  1  8  1  0  0  0  0
  2  1  1  0  0  0  0
  3  1  1  0  0  0  0
  4  1  1  0  0  0  0
  4  7  1  0  0  0  0
  4 18  1  0  0  0  0
  5  8  1  0  0  0  0
  6  5  1  0  0  0  0
  8 12  1  0  0  0  0
  9 12  2  0  0  0  0
  9 11  1  0  0  0  0
 10  9  1  0  0  0  0
 12 13  1  0  0  0  0
 13 22  2  0  0  0  0
 13 30  1  0  0  0  0
 14 17  1  0  0  0  0
 14  4  1  0  0  0  0
 15 14  1  0  0  0  0
 16 14  1  0  0  0  0
 18 20  1  0  0  0  0
 19 18  1  0  0  0  0
 21 18  1  0  0  0  0
 22 24  1  0  0  0  0
 23 22  1  0  0  0  0
 24 25  1  0  0  0  0
 24 26  2  0  0  0  0
 26 27  1  0  0  0  0
 28 26  1  0  0  0  0
 28 29  1  0  0  0  0
 30 28  2  0  0  0  0
 31 30  1  0  0  0  0
M  END
$$$$
