CSD_code = PAXPOW | q = 0 | S = 0 | Stoichiometry = C10H13Cl2F3N2O2PtS | MND = 4
 OpenBabel04212202083D

 34 34  0  0  0  0  0  0  0  0999 V2000
    7.6869    7.8457    8.5235 Pt  0  0  0  0  0  0  0  0  0  0  0  0
    7.9389    9.6100    9.9032 Cl  0  0  0  0  0  0  0  0  0  0  0  0
    9.1070    8.6735    6.9475 Cl  0  0  0  0  0  0  0  0  0  0  0  0
    6.0895    7.1825   10.0257 S   0  0  0  0  0  0  0  0  0  0  0  0
    8.6835    2.3509   13.2305 F   0  0  0  0  0  0  0  0  0  0  0  0
    8.3008    4.4055   13.7395 F   0  0  0  0  0  0  0  0  0  0  0  0
   10.2780    3.7916   13.1578 F   0  0  0  0  0  0  0  0  0  0  0  0
    7.1259    6.6115    5.9368 O   0  0  0  0  0  0  0  0  0  0  0  0
    7.6341    7.4389    5.7739 H   0  0  0  0  0  0  0  0  0  0  0  0
    5.4680    5.8852    9.7812 O   0  0  0  0  0  1  0  0  0  0  0  0
    7.4661    6.2763    7.2518 N   0  0  0  0  0  0  0  0  0  0  0  0
    7.0721    4.0841    6.6438 N   0  0  0  0  0  4  0  0  0  0  0  0
    6.8374    4.3996    5.7160 H   0  0  0  0  0  0  0  0  0  0  0  0
    7.2255    3.1083    6.8160 H   0  0  0  0  0  0  0  0  0  0  0  0
    7.4610    5.0164    7.5318 C   0  0  0  0  0  0  0  0  0  0  0  0
    7.8869    4.6091    8.8809 C   0  0  0  0  0  0  0  0  0  0  0  0
    4.7596    8.4204   10.0307 C   0  0  0  0  0  0  0  0  0  0  0  0
    4.3464    8.4658    9.0281 H   0  0  0  0  0  0  0  0  0  0  0  0
    5.2003    9.3728   10.3024 H   0  0  0  0  0  0  0  0  0  0  0  0
    3.9957    8.1134   10.7355 H   0  0  0  0  0  0  0  0  0  0  0  0
    6.5207    7.2515   11.7907 C   0  0  0  0  0  0  0  0  0  0  0  0
    6.9564    8.2254   11.9801 H   0  0  0  0  0  0  0  0  0  0  0  0
    7.2405    6.4670   11.9945 H   0  0  0  0  0  0  0  0  0  0  0  0
    5.6215    7.0904   12.3727 H   0  0  0  0  0  0  0  0  0  0  0  0
    7.2097    3.5985    9.5565 C   0  0  0  0  0  0  0  0  0  0  0  0
    6.3651    3.1141    9.0942 H   0  0  0  0  0  0  0  0  0  0  0  0
    7.5733    3.2618   10.8461 C   0  0  0  0  0  0  0  0  0  0  0  0
    7.0375    2.4942   11.3825 H   0  0  0  0  0  0  0  0  0  0  0  0
    8.6303    3.9253   11.4562 C   0  0  0  0  0  0  0  0  0  0  0  0
    9.3337    4.9152   10.7803 C   0  0  0  0  0  0  0  0  0  0  0  0
   10.1635    5.4124   11.2586 H   0  0  0  0  0  0  0  0  0  0  0  0
    8.9629    5.2558    9.4917 C   0  0  0  0  0  0  0  0  0  0  0  0
    9.5403    5.9931    8.9447 H   0  0  0  0  0  0  0  0  0  0  0  0
    8.9796    3.6110   12.8844 C   0  0  0  0  0  0  0  0  0  0  0  0
  1  2  1  0  0  0  0
  1  4  1  0  0  0  0
  3  1  1  0  0  0  0
  4 17  1  0  0  0  0
  4 21  1  0  0  0  0
  8 11  1  0  0  0  0
  9  8  1  0  0  0  0
 10  4  1  0  0  0  0
 11 15  1  0  0  0  0
 11  1  1  0  0  0  0
 12 14  1  0  0  0  0
 12 15  2  0  0  0  0
 13 12  1  0  0  0  0
 15 16  1  0  0  0  0
 16 32  2  0  0  0  0
 16 25  1  0  0  0  0
 17 19  1  0  0  0  0
 17 20  1  0  0  0  0
 18 17  1  0  0  0  0
 21 22  1  0  0  0  0
 21 23  1  0  0  0  0
 21 24  1  0  0  0  0
 25 27  2  0  0  0  0
 26 25  1  0  0  0  0
 27 28  1  0  0  0  0
 27 29  1  0  0  0  0
 29 34  1  0  0  0  0
 30 31  1  0  0  0  0
 30 29  2  0  0  0  0
 32 30  1  0  0  0  0
 33 32  1  0  0  0  0
 34  7  1  0  0  0  0
 34  5  1  0  0  0  0
 34  6  1  0  0  0  0
M  END
$$$$
