CSD_code = PAXPUZ | q = 0 | S = 0 | Stoichiometry = C10H23B4Cl2Ta | MND = 12
 OpenBabel04212202083D

 40 38  0  0  1  0  0  0  0  0999 V2000
    9.9232    1.6144    1.5723 Ta  0  0  0  0  0  0  0  0  0  0  0  0
   12.0547    2.3587    1.6870 Cl  0  0  0  0  0  0  0  0  0  0  0  0
    8.9844    2.9533   -0.0007 Cl  0  0  0  0  0  0  0  0  0  0  0  0
    9.6658    3.6693    4.2598 C   0  0  0  0  0  0  0  0  0  0  0  0
   10.0225    2.3461    4.3635 C   0  0  0  0  0  0  0  0  0  0  0  0
    8.9546    1.5276    3.7747 C   0  0  1  0  0  0  0  0  0  0  0  0
    7.8955    2.4815    3.4195 C   0  0  0  0  0  0  0  0  0  0  0  0
    8.3529    3.7521    3.6786 C   0  0  0  0  0  0  0  0  0  0  0  0
   10.4603    4.8671    4.6615 C   0  0  0  0  0  0  0  0  0  0  0  0
   11.4678    4.5876    4.9569 H   0  0  0  0  0  0  0  0  0  0  0  0
    9.9857    5.3758    5.5010 H   0  0  0  0  0  0  0  0  0  0  0  0
   10.5225    5.5748    3.8356 H   0  0  0  0  0  0  0  0  0  0  0  0
   11.2429    1.7618    5.0042 C   0  0  0  0  0  0  0  0  0  0  0  0
   12.0759    2.4602    4.9704 H   0  0  0  0  0  0  0  0  0  0  0  0
   11.5437    0.8456    4.4950 H   0  0  0  0  0  0  0  0  0  0  0  0
   11.0446    1.5233    6.0507 H   0  0  0  0  0  0  0  0  0  0  0  0
    8.6096    0.1979    4.4028 C   0  0  0  0  0  0  0  0  0  0  0  0
    9.4883   -0.4385    4.4791 H   0  0  0  0  0  0  0  0  0  0  0  0
    7.8543   -0.3255    3.8239 H   0  0  0  0  0  0  0  0  0  0  0  0
    8.2186    0.3613    5.4083 H   0  0  0  0  0  0  0  0  0  0  0  0
    6.5404    2.0887    2.9178 C   0  0  0  0  0  0  0  0  0  0  0  0
    6.1881    2.7866    2.1601 H   0  0  0  0  0  0  0  0  0  0  0  0
    5.8189    2.0883    3.7368 H   0  0  0  0  0  0  0  0  0  0  0  0
    6.5645    1.0922    2.4821 H   0  0  0  0  0  0  0  0  0  0  0  0
    7.6533    5.0410    3.4000 C   0  0  0  0  0  0  0  0  0  0  0  0
    6.6054    4.8727    3.1683 H   0  0  0  0  0  0  0  0  0  0  0  0
    8.1170    5.5485    2.5523 H   0  0  0  0  0  0  0  0  0  0  0  0
    7.7185    5.7044    4.2608 H   0  0  0  0  0  0  0  0  0  0  0  0
    8.2711   -0.7419    0.8822 B   0  0  0  0  0  0  0  0  0  0  0  0
    7.7036    0.1547    0.3312 H   0  0  0  0  0  0  0  0  0  0  0  0
    8.3085   -1.6530   -0.1807 H   0  0  0  0  0  0  0  0  0  0  0  0
    7.6149   -1.2784    1.7058 H   0  0  0  0  0  0  0  0  0  0  0  0
   10.0373   -0.5452    1.1689 B   0  0  0  0  0  0  0  0  0  0  0  0
   10.6222   -0.9723    2.1236 H   0  0  0  0  0  0  0  0  0  0  0  0
   10.8984   -0.7529   -0.4345 B   0  0  0  0  0  2  0  0  0  0  0  0
   10.7674    0.2041   -1.1233 H   0  0  0  0  0  0  0  0  0  0  0  0
   10.0701   -1.6758   -1.0692 H   0  0  0  0  0  0  0  0  0  0  0  0
   11.9819   -1.2148   -0.4258 H   0  0  0  0  0  0  0  0  0  0  0  0
    9.5366   -1.8184    0.0687 B   0  0  0  0  0  0  0  0  0  0  0  0
    9.7295   -2.9017    0.4878 H   0  0  0  0  0  0  0  0  0  0  0  0
  1  2  1  0  0  0  0
  3  1  1  0  0  0  0
  4  5  2  0  0  0  0
  4  9  1  0  0  0  0
  5 13  1  0  0  0  0
  6  1  1  6  0  0  0
  6  5  1  0  0  0  0
  6 17  1  0  0  0  0
  7  8  2  0  0  0  0
  7  6  1  0  0  0  0
  8  4  1  0  0  0  0
  9 10  1  0  0  0  0
  9 11  1  0  0  0  0
 12  9  1  0  0  0  0
 13 16  1  0  0  0  0
 14 13  1  0  0  0  0
 15 13  1  0  0  0  0
 17 18  1  0  0  0  0
 17 20  1  0  0  0  0
 19 17  1  0  0  0  0
 21  7  1  0  0  0  0
 21 23  1  0  0  0  0
 22 21  1  0  0  0  0
 24 21  1  0  0  0  0
 25  8  1  0  0  0  0
 25 28  1  0  0  0  0
 26 25  1  0  0  0  0
 27 25  1  0  0  0  0
 29 33  1  0  0  0  0
 29 32  1  0  0  0  0
 30 29  1  0  0  0  0
 31 39  1  0  0  0  0
 33 34  1  0  0  0  0
 35 38  1  0  0  0  0
 36 35  1  0  0  0  0
 37 39  1  0  0  0  0
 39 40  1  0  0  0  0
 39 33  1  0  0  0  0
M  END
$$$$
