CSD_code = PAXYAR | q = 1 | S = 0 | Stoichiometry = C13H14ClN2ORu(1+) | MND = 9
 OpenBabel04212202083D

 32 33  0  0  1  0  0  0  0  0999 V2000
    3.4196    9.0909    2.4906 Ru  0  0  0  0  0  0  0  0  0  0  0  0
    3.3088    8.0455    4.1775 N   0  0  0  0  0  0  0  0  0  0  0  0
    5.0887    8.1693    2.5130 N   0  0  0  0  0  0  0  0  0  0  0  0
    5.9211    8.3690    1.4397 O   0  0  0  0  0  0  0  0  0  0  0  0
    5.3780    7.2727    3.4078 C   0  0  0  0  0  0  0  0  0  0  0  0
    6.6011    6.4289    3.3908 C   0  0  0  0  0  0  0  0  0  0  0  0
    4.3148    6.2991    5.4865 C   0  0  0  0  0  0  0  0  0  0  0  0
    3.2234    6.2953    6.3330 C   0  0  0  0  0  0  0  0  0  0  0  0
    4.3352    7.1848    4.4083 C   0  0  0  0  0  0  0  0  0  0  0  0
    2.1739    7.1724    6.0779 C   0  0  0  0  0  0  0  0  0  0  0  0
    2.2557    8.0222    4.9905 C   0  0  0  0  0  0  0  0  0  0  0  0
    4.0226   10.8282    1.0458 C   0  0  0  0  0  0  0  0  0  0  0  0
    1.8134   10.8159    2.8008 C   0  0  0  0  0  0  0  0  0  0  0  0
    2.7880   10.3379    0.6158 C   0  0  0  0  0  0  0  0  0  0  0  0
    1.6680   10.3500    1.4961 C   0  0  0  0  0  0  0  0  0  0  0  0
    4.1899   11.2389    2.3903 C   0  0  1  0  0  0  0  0  0  0  0  0
    3.0925   11.2128    3.2722 C   0  0  0  0  0  3  0  0  0  0  0  0
    2.6544    7.1239    1.5018 Cl  0  0  0  0  0 15  0  0  0  0  0  0
    5.7115    7.7031    0.7578 H   0  0  0  0  0  0  0  0  0  0  0  0
    3.1938   11.6195    4.2728 H   0  0  0  0  0  0  0  0  0  0  0  0
    5.1371   11.6561    2.7129 H   0  0  0  0  0  0  0  0  0  0  0  0
    4.8487   10.9180    0.3503 H   0  0  0  0  0  0  0  0  0  0  0  0
    2.6477   10.0412   -0.4180 H   0  0  0  0  0  0  0  0  0  0  0  0
    0.6910   10.0665    1.1200 H   0  0  0  0  0  0  0  0  0  0  0  0
    0.9461   10.9214    3.4426 H   0  0  0  0  0  0  0  0  0  0  0  0
    1.4439    8.6988    4.7555 H   0  0  0  0  0  0  0  0  0  0  0  0
    1.3002    7.1912    6.7084 H   0  0  0  0  0  0  0  0  0  0  0  0
    3.1798    5.6166    7.1695 H   0  0  0  0  0  0  0  0  0  0  0  0
    5.1376    5.6196    5.6366 H   0  0  0  0  0  0  0  0  0  0  0  0
    6.3400    5.4014    3.1357 H   0  0  0  0  0  0  0  0  0  0  0  0
    7.3105    6.8069    2.6584 H   0  0  0  0  0  0  0  0  0  0  0  0
    7.0725    6.4233    4.3710 H   0  0  0  0  0  0  0  0  0  0  0  0
  1  3  1  0  0  0  0
  1  2  1  0  0  0  0
  2  9  1  0  0  0  0
  2 11  1  0  0  0  0
  3  5  1  0  0  0  0
  4  3  1  0  0  0  0
  5  9  2  0  0  0  0
  6  5  1  0  0  0  0
  6 32  1  0  0  0  0
  7 29  1  0  0  0  0
  7  8  2  0  0  0  0
  8 28  1  0  0  0  0
  9  7  1  0  0  0  0
 10  8  1  0  0  0  0
 10 27  1  0  0  0  0
 11 10  2  0  0  0  0
 12 16  1  0  0  0  0
 13 17  1  0  0  0  0
 13 25  1  0  0  0  0
 14 12  2  0  0  0  0
 14 15  1  0  0  0  0
 15 13  2  0  0  0  0
 16  1  1  0  0  0  0
 16 21  1  1  0  0  0
 16 17  1  0  0  0  0
 17 20  1  0  0  0  0
 19  4  1  0  0  0  0
 22 12  1  0  0  0  0
 23 14  1  0  0  0  0
 24 15  1  0  0  0  0
 26 11  1  0  0  0  0
 30  6  1  0  0  0  0
 31  6  1  0  0  0  0
M  END
$$$$
