CSD_code = PAYCUN | q = 0 | S = 0 | Stoichiometry = C21H12ClN4O3Re | MND = 6
 OpenBabel04212202083D

 42 46  0  0  1  0  0  0  0  0999 V2000
    3.4196   12.9815    2.9400 Re  0  0  0  0  0  0  0  0  0  0  0  0
    1.3957   12.2720    1.9151 Cl  0  0  0  0  0  0  0  0  0  0  0  0
    2.7097   11.5373    4.4211 N   0  0  0  0  0  0  0  0  0  0  0  0
    0.8020    9.7337    5.3253 N   0  0  0  0  0  0  0  0  0  0  0  0
    4.1281   11.1030    2.2233 N   0  0  0  0  0  0  0  0  0  0  0  0
    1.2485    8.4765    2.0550 N   0  0  0  0  0  0  0  0  0  0  0  0
    3.8660   13.9901    1.3330 C   0  0  0  0  0  2  0  0  0  0  0  0
    2.4145   14.5091    3.6258 C   0  0  0  0  0  2  0  0  0  0  0  0
    5.0804   13.4026    3.8533 C   0  0  0  0  0  2  0  0  0  0  0  0
    4.0715   14.5083    0.3349 O   0  0  0  0  0  1  0  0  0  0  0  0
    1.7104   15.3393    3.9754 O   0  0  0  0  0  1  0  0  0  0  0  0
    6.0617   13.6259    4.4104 O   0  0  0  0  0  1  0  0  0  0  0  0
    2.5241   10.3694    3.8093 C   0  0  0  0  0  0  0  0  0  0  0  0
    1.4524    9.5118    4.2094 C   0  0  0  0  0  0  0  0  0  0  0  0
    0.4979   11.0070    7.3125 C   0  0  0  0  0  0  0  0  0  0  0  0
    0.7533   12.1458    8.0259 C   0  0  0  0  0  0  0  0  0  0  0  0
    1.6478   13.1103    7.5345 C   0  0  0  0  0  0  0  0  0  0  0  0
    2.2833   12.9352    6.3348 C   0  0  0  0  0  0  0  0  0  0  0  0
    2.0461   11.7729    5.5770 C   0  0  2  0  0  3  0  0  0  0  0  0
    1.1305   10.7993    6.0724 C   0  0  0  0  0  0  0  0  0  0  0  0
    3.5098   10.0481    2.7770 C   0  0  2  0  0  3  0  0  0  0  0  0
    5.0500   10.8839    1.2891 C   0  0  0  0  0  0  0  0  0  0  0  0
    5.4246    9.6168    0.8866 C   0  0  0  0  0  0  0  0  0  0  0  0
    4.8512    8.5200    1.5173 C   0  0  0  0  0  0  0  0  0  0  0  0
    3.8899    8.7387    2.4829 C   0  0  0  0  0  0  0  0  0  0  0  0
    0.8934    8.4690    3.3370 C   0  0  0  0  0  0  0  0  0  0  0  0
    0.6841    7.6136    1.2369 C   0  0  0  0  0  0  0  0  0  0  0  0
   -0.2599    6.6797    1.6435 C   0  0  0  0  0  0  0  0  0  0  0  0
   -0.6233    6.6585    2.9813 C   0  0  0  0  0  0  0  0  0  0  0  0
   -0.0440    7.5692    3.8466 C   0  0  0  0  0  0  0  0  0  0  0  0
   -0.1863   10.2516    7.6651 H   0  0  0  0  0  0  0  0  0  0  0  0
    0.2656   12.3118    8.9746 H   0  0  0  0  0  0  0  0  0  0  0  0
    1.8398   13.9987    8.1166 H   0  0  0  0  0  0  0  0  0  0  0  0
    2.9945   13.6604    5.9626 H   0  0  0  0  0  0  0  0  0  0  0  0
    5.5092   11.7623    0.8538 H   0  0  0  0  0  0  0  0  0  0  0  0
    6.1646    9.4930    0.1125 H   0  0  0  0  0  0  0  0  0  0  0  0
    5.1531    7.5157    1.2629 H   0  0  0  0  0  0  0  0  0  0  0  0
    3.4482    7.9151    3.0186 H   0  0  0  0  0  0  0  0  0  0  0  0
    1.0068    7.6762    0.2058 H   0  0  0  0  0  0  0  0  0  0  0  0
   -0.6946    5.9934    0.9338 H   0  0  0  0  0  0  0  0  0  0  0  0
   -1.3514    5.9469    3.3430 H   0  0  0  0  0  0  0  0  0  0  0  0
   -0.2998    7.6076    4.8928 H   0  0  0  0  0  0  0  0  0  0  0  0
  1  8  1  0  0  0  0
  1  9  1  0  0  0  0
  1  3  1  0  0  0  0
  2  1  1  0  0  0  0
  3 19  1  0  0  0  0
  4 20  2  0  0  0  0
  5 21  1  0  0  0  0
  5  1  1  0  0  0  0
  6 26  1  0  0  0  0
  7  1  1  0  0  0  0
  8 11  1  0  0  0  0
  9 12  1  0  0  0  0
 10  7  1  0  0  0  0
 13 14  2  0  0  0  0
 13  3  1  0  0  0  0
 14  4  1  0  0  0  0
 15 31  1  0  0  0  0
 15 16  2  0  0  0  0
 16 32  1  0  0  0  0
 17 16  1  0  0  0  0
 17 33  1  0  0  0  0
 18 17  2  0  0  0  0
 19 20  1  1  0  0  0
 19 18  1  0  0  0  0
 20 15  1  0  0  0  0
 21 25  1  1  0  0  0
 21 13  1  0  0  0  0
 22  5  1  0  0  0  0
 23 22  2  0  0  0  0
 23 24  1  0  0  0  0
 24 25  2  0  0  0  0
 25 38  1  0  0  0  0
 26 30  2  0  0  0  0
 26 14  1  0  0  0  0
 27 28  1  0  0  0  0
 27  6  2  0  0  0  0
 28 29  2  0  0  0  0
 29 41  1  0  0  0  0
 29 30  1  0  0  0  0
 30 42  1  0  0  0  0
 34 18  1  0  0  0  0
 35 22  1  0  0  0  0
 36 23  1  0  0  0  0
 37 24  1  0  0  0  0
 39 27  1  0  0  0  0
 40 28  1  0  0  0  0
M  END
$$$$
