CSD_code = PAYLEH | q = 0 | S = 0 | Stoichiometry = C13H22Cl3OPZr | MND = 10
 OpenBabel04212202083D

 41 41  0  0  1  0  0  0  0  0999 V2000
    1.2469    6.9517    6.0354 Zr  0  0  0  0  0  0  0  0  0  0  0  0
    0.5613    6.0377    3.9300 Cl  0  0  0  0  0  0  0  0  0  0  0  0
    1.6197    4.8512    7.0201 Cl  0  0  0  0  0  0  0  0  0  0  0  0
    2.8952    8.1815    7.2927 Cl  0  0  0  0  0  0  0  0  0  0  0  0
    1.9650    8.9716    4.4185 P   0  0  0  0  0  0  0  0  0  0  0  0
   -0.4663    8.8495    6.2870 C   0  0  0  0  0  0  0  0  0  0  0  0
   -0.0521    8.5169    7.5973 C   0  0  0  0  0  0  0  0  0  0  0  0
   -0.4261    7.1833    7.8581 C   0  0  0  0  0  0  0  0  0  0  0  0
   -1.1031    6.6895    6.7141 C   0  0  1  0  0  0  0  0  0  0  0  0
   -1.1356    7.7238    5.7536 C   0  0  0  0  0  0  0  0  0  0  0  0
   -0.2696   10.1717    5.5966 C   0  0  0  0  0  0  0  0  0  0  0  0
    1.2142   10.4293    5.2863 C   0  0  0  0  0  0  0  0  0  0  0  0
    1.3231    9.2153    2.7090 C   0  0  0  0  0  0  0  0  0  0  0  0
    3.6899    9.5799    4.2248 C   0  0  0  0  0  0  0  0  0  0  0  0
    3.3528    6.3256    5.1012 O   0  0  0  0  0  0  0  0  0  0  0  0
    3.4873    5.5100    3.9221 C   0  0  0  0  0  0  0  0  0  0  0  0
    4.9628    5.1482    3.8386 C   0  0  0  0  0  0  0  0  0  0  0  0
    5.2732    4.9121    5.3114 C   0  0  0  0  0  0  0  0  0  0  0  0
    4.4619    6.0167    5.9830 C   0  0  0  0  0  0  0  0  0  0  0  0
    0.4059    9.1937    8.3067 H   0  0  0  0  0  0  0  0  0  0  0  0
   -0.3214    6.6681    8.8071 H   0  0  0  0  0  0  0  0  0  0  0  0
   -1.6030    5.7301    6.6333 H   0  0  0  0  0  0  0  0  0  0  0  0
   -1.6577    7.6881    4.8054 H   0  0  0  0  0  0  0  0  0  0  0  0
   -0.6440   10.9840    6.2284 H   0  0  0  0  0  0  0  0  0  0  0  0
   -0.8471   10.1797    4.6675 H   0  0  0  0  0  0  0  0  0  0  0  0
    1.7706   10.5528    6.2210 H   0  0  0  0  0  0  0  0  0  0  0  0
    1.3354   11.3348    4.6827 H   0  0  0  0  0  0  0  0  0  0  0  0
    1.4851   10.2377    2.3684 H   0  0  0  0  0  0  0  0  0  0  0  0
    0.2610    8.9778    2.6881 H   0  0  0  0  0  0  0  0  0  0  0  0
    1.8287    8.5212    2.0397 H   0  0  0  0  0  0  0  0  0  0  0  0
    3.6964   10.5739    3.7783 H   0  0  0  0  0  0  0  0  0  0  0  0
    4.2455    8.8932    3.5871 H   0  0  0  0  0  0  0  0  0  0  0  0
    4.1557    9.6106    5.2083 H   0  0  0  0  0  0  0  0  0  0  0  0
    3.1219    6.0876    3.0687 H   0  0  0  0  0  0  0  0  0  0  0  0
    2.8761    4.6044    4.0377 H   0  0  0  0  0  0  0  0  0  0  0  0
    5.1387    4.2761    3.2145 H   0  0  0  0  0  0  0  0  0  0  0  0
    5.5436    5.9879    3.4540 H   0  0  0  0  0  0  0  0  0  0  0  0
    4.9039    3.9340    5.6193 H   0  0  0  0  0  0  0  0  0  0  0  0
    6.3318    4.9838    5.5483 H   0  0  0  0  0  0  0  0  0  0  0  0
    4.0707    5.7081    6.9582 H   0  0  0  0  0  0  0  0  0  0  0  0
    5.0522    6.9330    6.1008 H   0  0  0  0  0  0  0  0  0  0  0  0
  1  9  1  0  0  0  0
  1  3  1  0  0  0  0
  1  4  1  0  0  0  0
  2  1  1  0  0  0  0
  5 12  1  0  0  0  0
  6  7  1  0  0  0  0
  7  8  2  0  0  0  0
  7 20  1  0  0  0  0
  8 21  1  0  0  0  0
  9 22  1  6  0  0  0
  9  8  1  0  0  0  0
 10  6  2  0  0  0  0
 10  9  1  0  0  0  0
 11 24  1  0  0  0  0
 11  6  1  0  0  0  0
 12 11  1  0  0  0  0
 12 26  1  0  0  0  0
 13  5  1  0  0  0  0
 14  5  1  0  0  0  0
 14 33  1  0  0  0  0
 15 19  1  0  0  0  0
 16 35  1  0  0  0  0
 16 15  1  0  0  0  0
 17 16  1  0  0  0  0
 17 18  1  0  0  0  0
 18 39  1  0  0  0  0
 18 38  1  0  0  0  0
 18 19  1  0  0  0  0
 19 41  1  0  0  0  0
 19 40  1  0  0  0  0
 23 10  1  0  0  0  0
 25 11  1  0  0  0  0
 27 12  1  0  0  0  0
 28 13  1  0  0  0  0
 29 13  1  0  0  0  0
 30 13  1  0  0  0  0
 31 14  1  0  0  0  0
 32 14  1  0  0  0  0
 34 16  1  0  0  0  0
 36 17  1  0  0  0  0
 37 17  1  0  0  0  0
M  END
$$$$
