CSD_code = PAYLIL | q = 0 | S = 0 | Stoichiometry = C17H30Cl3OPZr | MND = 10
 OpenBabel04212202083D

 53 53  0  0  1  0  0  0  0  0999 V2000
    5.0952    2.3323   16.9895 Zr  0  0  0  0  0  0  0  0  0  0  0  0
    4.2517    3.6798   15.1880 Cl  0  0  0  0  0  0  0  0  0  0  0  0
    4.7120    0.3034   15.8688 Cl  0  0  0  0  0  0  0  0  0  0  0  0
    7.0506    1.4231   18.0218 Cl  0  0  0  0  0  0  0  0  0  0  0  0
    6.3958    4.6781   17.2785 P   0  0  0  0  0  0  0  0  0  0  0  0
    3.9450    3.7638   18.8283 C   0  0  0  0  0  0  0  0  0  0  0  0
    4.5167    2.6056   19.4260 C   0  0  2  0  0  3  0  0  0  0  0  0
    3.8773    1.4632   18.8653 C   0  0  1  0  0  0  0  0  0  0  0  0
    2.8906    1.9243   17.9403 C   0  0  2  0  0  3  0  0  0  0  0  0
    2.9214    3.3430   17.9399 C   0  0  0  0  0  0  0  0  0  0  0  0
    5.4499    2.5599   20.6045 C   0  0  0  0  0  0  0  0  0  0  0  0
    4.1309    0.0378   19.2736 C   0  0  0  0  0  0  0  0  0  0  0  0
    1.8761    1.1027   17.1948 C   0  0  0  0  0  0  0  0  0  0  0  0
    1.8881    4.2069   17.2766 C   0  0  0  0  0  0  0  0  0  0  0  0
    4.3270    5.1943   19.0915 C   0  0  0  0  0  0  0  0  0  0  0  0
    5.0467    5.8019   17.8764 C   0  0  0  0  0  0  0  0  0  0  0  0
    7.0064    5.6913   15.8691 C   0  0  0  0  0  0  0  0  0  0  0  0
    7.7132    5.0269   18.5221 C   0  0  0  0  0  0  0  0  0  0  0  0
    6.8446    2.5006   15.2198 O   0  0  0  0  0  0  0  0  0  0  0  0
    8.2524    2.2955   15.3282 C   0  0  0  0  0  0  0  0  0  0  0  0
    8.4526    0.8496   14.8760 C   0  0  0  0  0  0  0  0  0  0  0  0
    7.3868    0.6955   13.7783 C   0  0  0  0  0  0  0  0  0  0  0  0
    6.5410    1.9716   13.9224 C   0  0  0  0  0  0  0  0  0  0  0  0
    5.0237    1.9234   21.3813 H   0  0  0  0  0  0  0  0  0  0  0  0
    5.5938    3.5521   21.0291 H   0  0  0  0  0  0  0  0  0  0  0  0
    6.4262    2.1508   20.3386 H   0  0  0  0  0  0  0  0  0  0  0  0
    3.4713   -0.2517   20.0960 H   0  0  0  0  0  0  0  0  0  0  0  0
    5.1633   -0.0858   19.6037 H   0  0  0  0  0  0  0  0  0  0  0  0
    3.9550   -0.6448   18.4403 H   0  0  0  0  0  0  0  0  0  0  0  0
    0.8875    1.2233   17.6452 H   0  0  0  0  0  0  0  0  0  0  0  0
    2.1322    0.0446   17.2141 H   0  0  0  0  0  0  0  0  0  0  0  0
    1.8129    1.4247   16.1516 H   0  0  0  0  0  0  0  0  0  0  0  0
    0.8912    3.8765   17.5748 H   0  0  0  0  0  0  0  0  0  0  0  0
    1.9466    4.1489   16.1892 H   0  0  0  0  0  0  0  0  0  0  0  0
    2.0038    5.2485   17.5681 H   0  0  0  0  0  0  0  0  0  0  0  0
    4.9811    5.2510   19.9650 H   0  0  0  0  0  0  0  0  0  0  0  0
    3.4355    5.7902   19.3141 H   0  0  0  0  0  0  0  0  0  0  0  0
    5.4532    6.7909   18.1138 H   0  0  0  0  0  0  0  0  0  0  0  0
    4.3454    5.9026   17.0415 H   0  0  0  0  0  0  0  0  0  0  0  0
    7.1236    6.7311   16.1738 H   0  0  0  0  0  0  0  0  0  0  0  0
    6.2867    5.6226   15.0549 H   0  0  0  0  0  0  0  0  0  0  0  0
    7.9663    5.3049   15.5302 H   0  0  0  0  0  0  0  0  0  0  0  0
    7.8687    6.0992   18.6376 H   0  0  0  0  0  0  0  0  0  0  0  0
    8.6402    4.5575   18.1965 H   0  0  0  0  0  0  0  0  0  0  0  0
    7.4355    4.5876   19.4778 H   0  0  0  0  0  0  0  0  0  0  0  0
    8.5615    2.4798   16.3577 H   0  0  0  0  0  0  0  0  0  0  0  0
    8.7683    2.9892   14.6466 H   0  0  0  0  0  0  0  0  0  0  0  0
    6.8242    2.7202   13.1687 H   0  0  0  0  0  0  0  0  0  0  0  0
    5.4681    1.7828   13.8585 H   0  0  0  0  0  0  0  0  0  0  0  0
    8.2383    0.1839   15.7127 H   0  0  0  0  0  0  0  0  0  0  0  0
    9.4632    0.6632   14.5206 H   0  0  0  0  0  0  0  0  0  0  0  0
    7.8261    0.6299   12.7845 H   0  0  0  0  0  0  0  0  0  0  0  0
    6.7744   -0.1870   13.9513 H   0  0  0  0  0  0  0  0  0  0  0  0
  1  4  1  0  0  0  0
  1  8  1  0  0  0  0
  2  1  1  0  0  0  0
  3  1  1  0  0  0  0
  5 16  1  0  0  0  0
  5 18  1  0  0  0  0
  6 15  1  0  0  0  0
  6  7  1  0  0  0  0
  7 11  1  1  0  0  0
  8 12  1  1  0  0  0
  8  7  1  0  0  0  0
  9 13  1  1  0  0  0
  9  8  1  0  0  0  0
 10  9  1  0  0  0  0
 10  6  2  0  0  0  0
 11 25  1  0  0  0  0
 11 24  1  0  0  0  0
 12 28  1  0  0  0  0
 12 27  1  0  0  0  0
 13 31  1  0  0  0  0
 13 30  1  0  0  0  0
 14 35  1  0  0  0  0
 14 33  1  0  0  0  0
 14 10  1  0  0  0  0
 15 37  1  0  0  0  0
 15 36  1  0  0  0  0
 16 38  1  0  0  0  0
 16 15  1  0  0  0  0
 17 40  1  0  0  0  0
 17  5  1  0  0  0  0
 18 43  1  0  0  0  0
 18 45  1  0  0  0  0
 19 20  1  0  0  0  0
 20 46  1  0  0  0  0
 21 20  1  0  0  0  0
 21 50  1  0  0  0  0
 22 23  1  0  0  0  0
 22 53  1  0  0  0  0
 22 21  1  0  0  0  0
 23 19  1  0  0  0  0
 26 11  1  0  0  0  0
 29 12  1  0  0  0  0
 32 13  1  0  0  0  0
 34 14  1  0  0  0  0
 39 16  1  0  0  0  0
 41 17  1  0  0  0  0
 42 17  1  0  0  0  0
 44 18  1  0  0  0  0
 47 20  1  0  0  0  0
 48 23  1  0  0  0  0
 49 23  1  0  0  0  0
 51 21  1  0  0  0  0
 52 22  1  0  0  0  0
M  END
$$$$
