CSD_code = PAYPEL | q = 0 | S = 0 | Stoichiometry = C21H27ClHfO | MND = 12
 OpenBabel04212202083D

 51 55  0  0  1  0  0  0  0  0999 V2000
    2.0530    1.0396    2.2041 Hf  0  0  1  0  0  0  0  0  0  0  0  0
    1.4586   -1.1278    1.6348 Cl  0  0  0  0  0  0  0  0  0  0  0  0
    3.2266    0.7571    3.5721 O   0  0  0  0  0  0  0  0  0  0  0  0
    3.8349    2.5395    1.2812 C   0  0  0  0  0  0  0  0  0  0  0  0
    4.3942    3.2642    1.8552 H   0  0  0  0  0  0  0  0  0  0  0  0
    2.6381    2.7938    0.5753 C   0  0  0  0  0  0  0  0  0  0  0  0
    2.1586    3.7585    0.4852 H   0  0  0  0  0  0  0  0  0  0  0  0
    2.3119    1.6346   -0.1687 C   0  0  1  0  0  0  0  0  0  0  0  0
    1.5373    1.5593   -0.9208 H   0  0  0  0  0  0  0  0  0  0  0  0
    3.3341    0.6827    0.0526 C   0  0  0  0  0  0  0  0  0  0  0  0
    3.4342   -0.2646   -0.4583 H   0  0  0  0  0  0  0  0  0  0  0  0
    4.2676    1.2380    0.9455 C   0  0  0  0  0  0  0  0  0  0  0  0
    5.2063    0.7891    1.2338 H   0  0  0  0  0  0  0  0  0  0  0  0
   -0.4578    1.1607    2.4298 C   0  0  0  0  0  0  0  0  0  0  0  0
   -1.1655    0.5327    1.9073 H   0  0  0  0  0  0  0  0  0  0  0  0
    0.0093    2.4168    1.9971 C   0  0  0  0  0  3  0  0  0  0  0  0
   -0.3225    2.9363    1.1085 H   0  0  0  0  0  0  0  0  0  0  0  0
    0.7937    2.9737    3.0396 C   0  0  1  0  0  0  0  0  0  0  0  0
    1.1759    3.9846    3.0765 H   0  0  0  0  0  0  0  0  0  0  0  0
    0.7844    2.0627    4.1192 C   0  0  0  0  0  3  0  0  0  0  0  0
    1.1846    2.2522    5.1041 H   0  0  0  0  0  0  0  0  0  0  0  0
    0.0274    0.9376    3.7366 C   0  0  0  0  0  0  0  0  0  0  0  0
   -0.2424    0.1075    4.3738 H   0  0  0  0  0  0  0  0  0  0  0  0
    4.0389    0.4224    4.6662 C   0  0  1  0  0  0  0  0  0  0  0  0
    3.2144   -0.3592    5.7172 C   0  0  1  0  0  0  0  0  0  0  0  0
    2.4158    0.2925    6.0891 H   0  0  0  0  0  0  0  0  0  0  0  0
    2.5978   -1.5836    5.0388 C   0  0  0  0  0  0  0  0  0  0  0  0
    1.9733   -2.1252    5.7531 H   0  0  0  0  0  0  0  0  0  0  0  0
    1.9665   -1.2606    4.2046 H   0  0  0  0  0  0  0  0  0  0  0  0
    3.7088   -2.4951    4.5186 C   0  0  1  0  0  0  0  0  0  0  0  0
    3.2604   -3.3624    4.0235 H   0  0  0  0  0  0  0  0  0  0  0  0
    4.5650   -1.7277    3.5113 C   0  0  0  0  0  0  0  0  0  0  0  0
    5.3555   -2.3738    3.1227 H   0  0  0  0  0  0  0  0  0  0  0  0
    3.9437   -1.4004    2.6698 H   0  0  0  0  0  0  0  0  0  0  0  0
    5.1832   -0.5069    4.1946 C   0  0  2  0  0  0  0  0  0  0  0  0
    5.7992    0.0450    3.4759 H   0  0  0  0  0  0  0  0  0  0  0  0
    4.5791   -2.9582    5.6865 C   0  0  0  0  0  0  0  0  0  0  0  0
    5.3690   -3.6202    5.3246 H   0  0  0  0  0  0  0  0  0  0  0  0
    3.9745   -3.5191    6.4028 H   0  0  0  0  0  0  0  0  0  0  0  0
    5.1954   -1.7375    6.3686 C   0  0  1  0  0  0  0  0  0  0  0  0
    5.8205   -2.0622    7.2084 H   0  0  0  0  0  0  0  0  0  0  0  0
    6.0523   -0.9739    5.3612 C   0  0  0  0  0  0  0  0  0  0  0  0
    6.8384   -1.6283    4.9766 H   0  0  0  0  0  0  0  0  0  0  0  0
    6.5401   -0.1266    5.8454 H   0  0  0  0  0  0  0  0  0  0  0  0
    4.0831   -0.8267    6.8848 C   0  0  0  0  0  0  0  0  0  0  0  0
    3.4574   -1.3760    7.5926 H   0  0  0  0  0  0  0  0  0  0  0  0
    4.5096    0.0240    7.4183 H   0  0  0  0  0  0  0  0  0  0  0  0
    4.5802    1.7492    5.2257 C   0  0  0  0  0  0  0  0  0  0  0  0
    3.7439    2.3890    5.5005 H   0  0  0  0  0  0  0  0  0  0  0  0
    5.2119    1.6047    6.0946 H   0  0  0  0  0  0  0  0  0  0  0  0
    5.1563    2.2496    4.4500 H   0  0  0  0  0  0  0  0  0  0  0  0
  1  2  1  1  0  0  0
  1 18  1  0  0  0  0
  1  3  1  0  0  0  0
  4  5  1  0  0  0  0
  6  4  2  0  0  0  0
  7  6  1  0  0  0  0
  8  9  1  6  0  0  0
  8 10  1  0  0  0  0
  8  6  1  0  0  0  0
  8  1  1  0  0  0  0
 10 12  2  0  0  0  0
 11 10  1  0  0  0  0
 12 13  1  0  0  0  0
 12  4  1  0  0  0  0
 14 22  2  0  0  0  0
 15 14  1  0  0  0  0
 16 14  1  0  0  0  0
 16 18  1  0  0  0  0
 17 16  1  0  0  0  0
 18 19  1  1  0  0  0
 18 20  1  0  0  0  0
 20 21  1  0  0  0  0
 22 20  1  0  0  0  0
 22 23  1  0  0  0  0
 24  3  1  6  0  0  0
 24 48  1  0  0  0  0
 24 25  1  0  0  0  0
 25 26  1  1  0  0  0
 25 45  1  0  0  0  0
 27 25  1  0  0  0  0
 27 28  1  0  0  0  0
 29 27  1  0  0  0  0
 30 31  1  6  0  0  0
 30 27  1  0  0  0  0
 30 37  1  0  0  0  0
 32 35  1  0  0  0  0
 32 30  1  0  0  0  0
 33 32  1  0  0  0  0
 34 32  1  0  0  0  0
 35 36  1  6  0  0  0
 35 24  1  0  0  0  0
 35 42  1  0  0  0  0
 37 40  1  0  0  0  0
 37 39  1  0  0  0  0
 38 37  1  0  0  0  0
 40 45  1  0  0  0  0
 40 41  1  1  0  0  0
 42 44  1  0  0  0  0
 42 40  1  0  0  0  0
 43 42  1  0  0  0  0
 45 47  1  0  0  0  0
 45 46  1  0  0  0  0
 48 49  1  0  0  0  0
 48 50  1  0  0  0  0
 51 48  1  0  0  0  0
M  END
$$$$
