CSD_code = PAYSUD | q = 0 | S = 0 | Stoichiometry = C28H24ClNiP | MND = 5
 OpenBabel04212202083D

 55 57  0  0  1  0  0  0  0  0999 V2000
    6.9403    9.8369   11.0293 Ni  0  0  0  0  0  0  0  0  0  0  0  0
    4.9067    9.7210   10.5687 Cl  0  0  0  0  0 15  0  0  0  0  0  0
    7.3687    7.9790   10.0571 P   0  0  0  0  0  0  0  0  0  0  0  0
    6.8874   11.7329   11.8991 C   0  0  0  0  0  0  0  0  0  0  0  0
    7.7244   10.8779   12.6500 C   0  0  0  0  0  0  0  0  0  0  0  0
    8.7418   10.3903   11.8043 C   0  0  2  0  0  0  0  0  0  0  0  0
    8.7200   11.1710   10.5763 C   0  0  0  0  0  0  0  0  0  0  0  0
    9.5815   11.2330    9.4860 C   0  0  0  0  0  0  0  0  0  0  0  0
    9.2865   12.1198    8.4649 C   0  0  0  0  0  0  0  0  0  0  0  0
    8.1540   12.9288    8.5139 C   0  0  0  0  0  0  0  0  0  0  0  0
    7.2789   12.8795    9.5855 C   0  0  0  0  0  0  0  0  0  0  0  0
    7.5576   12.0017   10.6281 C   0  0  0  0  0  0  0  0  0  0  0  0
    5.7317   12.5218   12.4199 C   0  0  0  0  0  0  0  0  0  0  0  0
    6.6272    7.9397    8.3945 C   0  0  0  0  0  0  0  0  0  0  0  0
    6.6074    9.1492    7.7035 C   0  0  0  0  0  0  0  0  0  0  0  0
    6.0827    9.2123    6.4276 C   0  0  0  0  0  0  0  0  0  0  0  0
    5.5646    8.0692    5.8385 C   0  0  0  0  0  0  0  0  0  0  0  0
    5.5695    6.8692    6.5290 C   0  0  0  0  0  0  0  0  0  0  0  0
    6.0998    6.7987    7.8062 C   0  0  0  0  0  0  0  0  0  0  0  0
    6.8015    6.4554   10.8679 C   0  0  0  0  0  0  0  0  0  0  0  0
    7.2979    5.2039   10.5120 C   0  0  0  0  0  0  0  0  0  0  0  0
    6.8267    4.0718   11.1511 C   0  0  0  0  0  0  0  0  0  0  0  0
    5.8668    4.1805   12.1458 C   0  0  0  0  0  0  0  0  0  0  0  0
    5.3786    5.4251   12.5080 C   0  0  0  0  0  0  0  0  0  0  0  0
    5.8467    6.5616   11.8729 C   0  0  0  0  0  0  0  0  0  0  0  0
    9.1204    7.6038    9.7133 C   0  0  0  0  0  0  0  0  0  0  0  0
    9.9113    7.1603   10.7709 C   0  0  0  0  0  0  0  0  0  0  0  0
   11.2628    6.9420   10.5877 C   0  0  0  0  0  0  0  0  0  0  0  0
   11.8407    7.1786    9.3494 C   0  0  0  0  0  0  0  0  0  0  0  0
   11.0612    7.6307    8.2981 C   0  0  0  0  0  0  0  0  0  0  0  0
    9.7056    7.8483    8.4770 C   0  0  0  0  0  0  0  0  0  0  0  0
    7.5910   10.6301   13.6931 H   0  0  0  0  0  0  0  0  0  0  0  0
    9.5838    9.7879   12.1156 H   0  0  0  0  0  0  0  0  0  0  0  0
   10.4608   10.6051    9.4432 H   0  0  0  0  0  0  0  0  0  0  0  0
    9.9484   12.1888    7.6137 H   0  0  0  0  0  0  0  0  0  0  0  0
    7.9572   13.6102    7.6990 H   0  0  0  0  0  0  0  0  0  0  0  0
    6.3999   13.5067    9.6120 H   0  0  0  0  0  0  0  0  0  0  0  0
    4.8725   12.4302   11.7561 H   0  0  0  0  0  0  0  0  0  0  0  0
    6.0074   13.5766   12.4777 H   0  0  0  0  0  0  0  0  0  0  0  0
    5.4433   12.1741   13.4097 H   0  0  0  0  0  0  0  0  0  0  0  0
    6.9915   10.0421    8.1886 H   0  0  0  0  0  0  0  0  0  0  0  0
    6.0678   10.1521    5.8958 H   0  0  0  0  0  0  0  0  0  0  0  0
    5.1472    8.1168    4.8435 H   0  0  0  0  0  0  0  0  0  0  0  0
    5.1527    5.9825    6.0739 H   0  0  0  0  0  0  0  0  0  0  0  0
    6.0872    5.8637    8.3470 H   0  0  0  0  0  0  0  0  0  0  0  0
    8.0572    5.1222    9.7458 H   0  0  0  0  0  0  0  0  0  0  0  0
    7.2097    3.1004   10.8736 H   0  0  0  0  0  0  0  0  0  0  0  0
    5.5028    3.2918   12.6404 H   0  0  0  0  0  0  0  0  0  0  0  0
    4.6356    5.5100   13.2869 H   0  0  0  0  0  0  0  0  0  0  0  0
    5.4771    7.5444   12.1436 H   0  0  0  0  0  0  0  0  0  0  0  0
    9.4524    6.9853   11.7360 H   0  0  0  0  0  0  0  0  0  0  0  0
   11.8706    6.5943   11.4107 H   0  0  0  0  0  0  0  0  0  0  0  0
   12.8986    7.0143    9.2071 H   0  0  0  0  0  0  0  0  0  0  0  0
   11.5110    7.8198    7.3342 H   0  0  0  0  0  0  0  0  0  0  0  0
    9.1001    8.2069    7.6567 H   0  0  0  0  0  0  0  0  0  0  0  0
  1  6  1  0  0  0  0
  3 20  1  0  0  0  0
  4 13  1  0  0  0  0
  4  5  2  0  0  0  0
  5 32  1  0  0  0  0
  6 33  1  1  0  0  0
  6  5  1  0  0  0  0
  7 12  1  0  0  0  0
  7  6  1  0  0  0  0
  8  7  2  0  0  0  0
  9 10  2  0  0  0  0
  9  8  1  0  0  0  0
 10 11  1  0  0  0  0
 11 37  1  0  0  0  0
 11 12  2  0  0  0  0
 12  4  1  0  0  0  0
 13 39  1  0  0  0  0
 13 40  1  0  0  0  0
 14  3  1  0  0  0  0
 15 41  1  0  0  0  0
 15 14  2  0  0  0  0
 16 15  1  0  0  0  0
 17 16  2  0  0  0  0
 17 18  1  0  0  0  0
 18 19  2  0  0  0  0
 19 45  1  0  0  0  0
 19 14  1  0  0  0  0
 20 25  1  0  0  0  0
 21 20  2  0  0  0  0
 21 22  1  0  0  0  0
 22 23  2  0  0  0  0
 23 24  1  0  0  0  0
 23 48  1  0  0  0  0
 24 49  1  0  0  0  0
 25 50  1  0  0  0  0
 25 24  2  0  0  0  0
 26  3  1  0  0  0  0
 26 27  1  0  0  0  0
 27 51  1  0  0  0  0
 28 27  2  0  0  0  0
 28 52  1  0  0  0  0
 29 28  1  0  0  0  0
 30 31  1  0  0  0  0
 30 29  2  0  0  0  0
 31 26  2  0  0  0  0
 34  8  1  0  0  0  0
 35  9  1  0  0  0  0
 36 10  1  0  0  0  0
 38 13  1  0  0  0  0
 42 16  1  0  0  0  0
 43 17  1  0  0  0  0
 44 18  1  0  0  0  0
 46 21  1  0  0  0  0
 47 22  1  0  0  0  0
 53 29  1  0  0  0  0
 54 30  1  0  0  0  0
 55 31  1  0  0  0  0
M  END
$$$$
