CSD_code = PAYVET | q = 0 | S = 0 | Stoichiometry = C26H31BrCuN3S | MND = 3
 OpenBabel04212202083D

 63 66  0  0  0  0  0  0  0  0999 V2000
    2.7581    2.5070    9.3156 Br  0  0  0  0  0  0  0  0  0  0  0  0
    1.7255    4.3607    8.5722 Cu  0  0  0  0  0  0  0  0  0  0  0  0
   -0.2649    5.1396    7.7163 S   0  0  1  0  0  3  0  0  0  0  0  0
    2.4314    6.2593    8.4652 N   0  0  0  0  0  0  0  0  0  0  0  0
    4.5828    7.2054    8.2695 N   0  0  0  0  0  0  0  0  0  0  0  0
    3.8692    6.2300   10.2596 N   0  0  0  0  0  0  0  0  0  0  0  0
    3.6028    6.5279    8.9539 C   0  0  0  0  0  3  0  0  0  0  0  0
    4.9127    6.8811    6.9023 C   0  0  0  0  0  0  0  0  0  0  0  0
    4.4170    5.9599    6.6048 H   0  0  0  0  0  0  0  0  0  0  0  0
    5.9921    6.7239    6.8204 H   0  0  0  0  0  0  0  0  0  0  0  0
    4.6295    7.6829    6.2119 H   0  0  0  0  0  0  0  0  0  0  0  0
    5.4952    8.1058    8.9301 C   0  0  0  0  0  0  0  0  0  0  0  0
    5.1405    8.3086    9.9370 H   0  0  0  0  0  0  0  0  0  0  0  0
    5.5309    9.0457    8.3707 H   0  0  0  0  0  0  0  0  0  0  0  0
    6.5129    7.7040    8.9824 H   0  0  0  0  0  0  0  0  0  0  0  0
    2.7722    5.9182   11.1485 C   0  0  0  0  0  0  0  0  0  0  0  0
    1.9056    6.5151   10.8739 H   0  0  0  0  0  0  0  0  0  0  0  0
    3.0778    6.1648   12.1660 H   0  0  0  0  0  0  0  0  0  0  0  0
    2.5003    4.8592   11.1141 H   0  0  0  0  0  0  0  0  0  0  0  0
    5.0981    5.5419   10.6067 C   0  0  0  0  0  0  0  0  0  0  0  0
    5.8277    5.6353    9.8087 H   0  0  0  0  0  0  0  0  0  0  0  0
    4.8966    4.4774   10.7601 H   0  0  0  0  0  0  0  0  0  0  0  0
    5.5107    5.9606   11.5263 H   0  0  0  0  0  0  0  0  0  0  0  0
    1.8968    6.9046    7.2937 C   0  0  0  0  0  0  0  0  0  0  0  0
    2.2609    6.4431    6.3694 H   0  0  0  0  0  0  0  0  0  0  0  0
    2.1785    7.9665    7.2736 H   0  0  0  0  0  0  0  0  0  0  0  0
    0.3697    6.8081    7.3235 C   0  0  0  0  0  0  0  0  0  0  0  0
   -0.0645    7.1213    6.3754 H   0  0  0  0  0  0  0  0  0  0  0  0
   -0.0273    7.4306    8.1269 H   0  0  0  0  0  0  0  0  0  0  0  0
   -0.4831    4.3198    6.0378 C   0  0  0  0  0  0  0  0  0  0  0  0
   -0.8990    2.8820    6.3045 C   0  0  0  0  0  0  0  0  0  0  0  0
   -0.5359    1.8688    5.4239 C   0  0  0  0  0  0  0  0  0  0  0  0
    0.0860    2.0884    4.5681 H   0  0  0  0  0  0  0  0  0  0  0  0
   -0.9520    0.5681    5.6408 C   0  0  0  0  0  0  0  0  0  0  0  0
   -0.6515   -0.2075    4.9521 H   0  0  0  0  0  0  0  0  0  0  0  0
   -1.7399    0.2597    6.7356 C   0  0  0  0  0  0  0  0  0  0  0  0
   -2.0541   -0.7582    6.9094 H   0  0  0  0  0  0  0  0  0  0  0  0
   -2.1208    1.2652    7.6059 C   0  0  0  0  0  0  0  0  0  0  0  0
   -2.7375    1.0382    8.4623 H   0  0  0  0  0  0  0  0  0  0  0  0
   -1.7113    2.5678    7.3862 C   0  0  0  0  0  0  0  0  0  0  0  0
   -2.0196    3.3445    8.0703 H   0  0  0  0  0  0  0  0  0  0  0  0
    0.8537    4.4274    5.3516 C   0  0  0  0  0  0  0  0  0  0  0  0
    1.8970    3.5975    5.7617 C   0  0  0  0  0  0  0  0  0  0  0  0
    1.7121    2.8292    6.4990 H   0  0  0  0  0  0  0  0  0  0  0  0
    3.1602    3.7268    5.2150 C   0  0  0  0  0  0  0  0  0  0  0  0
    3.9523    3.0755    5.5527 H   0  0  0  0  0  0  0  0  0  0  0  0
    3.4030    4.6882    4.2464 C   0  0  0  0  0  0  0  0  0  0  0  0
    4.3890    4.7923    3.8181 H   0  0  0  0  0  0  0  0  0  0  0  0
    2.3734    5.5142    3.8295 C   0  0  0  0  0  0  0  0  0  0  0  0
    2.5525    6.2664    3.0750 H   0  0  0  0  0  0  0  0  0  0  0  0
    1.1085    5.3914    4.3824 C   0  0  0  0  0  0  0  0  0  0  0  0
    0.3199    6.0533    4.0536 H   0  0  0  0  0  0  0  0  0  0  0  0
   -1.6298    4.9404    5.2661 C   0  0  0  0  0  0  0  0  0  0  0  0
   -1.7991    4.5749    3.9324 C   0  0  0  0  0  0  0  0  0  0  0  0
   -1.0973    3.8972    3.4698 H   0  0  0  0  0  0  0  0  0  0  0  0
   -2.8569    5.0694    3.1943 C   0  0  0  0  0  0  0  0  0  0  0  0
   -2.9687    4.7771    2.1606 H   0  0  0  0  0  0  0  0  0  0  0  0
   -3.7715    5.9314    3.7765 C   0  0  0  0  0  0  0  0  0  0  0  0
   -4.5977    6.3186    3.1993 H   0  0  0  0  0  0  0  0  0  0  0  0
   -3.6221    6.2840    5.1048 C   0  0  0  0  0  0  0  0  0  0  0  0
   -4.3341    6.9465    5.5746 H   0  0  0  0  0  0  0  0  0  0  0  0
   -2.5620    5.7888    5.8453 C   0  0  0  0  0  0  0  0  0  0  0  0
   -2.4698    6.0661    6.8845 H   0  0  0  0  0  0  0  0  0  0  0  0
  2  1  1  0  0  0  0
  3 30  1  6  0  0  0
  3  2  1  0  0  0  0
  4  2  1  0  0  0  0
  4  7  1  0  0  0  0
  5 12  1  0  0  0  0
  5  7  1  0  0  0  0
  6 20  1  0  0  0  0
  6 16  1  0  0  0  0
  7  6  1  0  0  0  0
  8  5  1  0  0  0  0
  9  8  1  0  0  0  0
 10  8  1  0  0  0  0
 11  8  1  0  0  0  0
 12 15  1  0  0  0  0
 12 13  1  0  0  0  0
 14 12  1  0  0  0  0
 16 18  1  0  0  0  0
 17 16  1  0  0  0  0
 19 16  1  0  0  0  0
 20 22  1  0  0  0  0
 20 23  1  0  0  0  0
 21 20  1  0  0  0  0
 24 27  1  0  0  0  0
 24  4  1  0  0  0  0
 25 24  1  0  0  0  0
 26 24  1  0  0  0  0
 27  3  1  0  0  0  0
 27 29  1  0  0  0  0
 28 27  1  0  0  0  0
 30 31  1  0  0  0  0
 31 40  1  0  0  0  0
 32 34  1  0  0  0  0
 32 31  2  0  0  0  0
 33 32  1  0  0  0  0
 34 36  2  0  0  0  0
 35 34  1  0  0  0  0
 36 37  1  0  0  0  0
 36 38  1  0  0  0  0
 38 39  1  0  0  0  0
 40 38  2  0  0  0  0
 40 41  1  0  0  0  0
 42 43  1  0  0  0  0
 42 30  1  0  0  0  0
 43 44  1  0  0  0  0
 45 46  1  0  0  0  0
 45 43  2  0  0  0  0
 47 45  1  0  0  0  0
 48 47  1  0  0  0  0
 49 47  2  0  0  0  0
 49 51  1  0  0  0  0
 50 49  1  0  0  0  0
 51 42  2  0  0  0  0
 52 51  1  0  0  0  0
 53 62  1  0  0  0  0
 53 30  1  0  0  0  0
 54 53  2  0  0  0  0
 55 54  1  0  0  0  0
 56 58  2  0  0  0  0
 56 54  1  0  0  0  0
 57 56  1  0  0  0  0
 58 60  1  0  0  0  0
 59 58  1  0  0  0  0
 60 61  1  0  0  0  0
 60 62  2  0  0  0  0
 62 63  1  0  0  0  0
M  END
$$$$
