CSD_code = PAZMOS | q = 0 | S = 0 | Stoichiometry = C31H27ClNP2Rh | MND = 4
 OpenBabel04212202083D

 63 69  0  0  1  0  0  0  0  0999 V2000
    0.1450   12.3678    0.5711 Rh  0  0  2  0  0  0  0  0  0  0  0  0
   -0.7106   10.8960    2.0217 Cl  0  0  0  0  0  0  0  0  0  0  0  0
    1.4314   13.4612    2.0237 P   0  0  0  0  0  4  0  0  0  0  0  0
   -0.9656   11.6217   -1.2041 P   0  0  0  0  0  4  0  0  0  0  0  0
    0.9357   13.6202   -0.7302 N   0  0  0  0  0  0  0  0  0  0  0  0
    1.5216   14.7720   -0.3313 C   0  0  1  0  0  3  0  0  0  0  0  0
    2.0960   15.6540   -1.2296 C   0  0  0  0  0  0  0  0  0  0  0  0
    2.5567   16.5583   -0.8626 H   0  0  0  0  0  0  0  0  0  0  0  0
    2.0661   15.3797   -2.5874 C   0  0  0  0  0  0  0  0  0  0  0  0
    2.4991   16.0599   -3.3032 H   0  0  0  0  0  0  0  0  0  0  0  0
    1.4645   14.1996   -2.9936 C   0  0  0  0  0  0  0  0  0  0  0  0
    1.4215   13.9357   -4.0391 H   0  0  0  0  0  0  0  0  0  0  0  0
    0.9242   13.3398   -2.0540 C   0  0  0  0  0  0  0  0  0  0  0  0
    1.5334   15.0847    1.1334 C   0  0  0  0  0  0  0  0  0  0  0  0
    0.6227   15.6379    1.3948 H   0  0  0  0  0  0  0  0  0  0  0  0
    2.4062   15.6868    1.3970 H   0  0  0  0  0  0  0  0  0  0  0  0
    0.3103   12.0452   -2.4865 C   0  0  0  0  0  0  0  0  0  0  0  0
    1.0665   11.2522   -2.4536 H   0  0  0  0  0  0  0  0  0  0  0  0
   -0.0838   12.1062   -3.5031 H   0  0  0  0  0  0  0  0  0  0  0  0
    1.2416   13.8971    3.7775 C   0  0  0  0  0  0  0  0  0  0  0  0
    1.4117   15.1704    4.3093 C   0  0  0  0  0  0  0  0  0  0  0  0
    1.6573   16.0066    3.6697 H   0  0  0  0  0  0  0  0  0  0  0  0
    1.2613   15.3729    5.6702 C   0  0  0  0  0  0  0  0  0  0  0  0
    1.3956   16.3630    6.0828 H   0  0  0  0  0  0  0  0  0  0  0  0
    0.9388   14.3140    6.5027 C   0  0  0  0  0  0  0  0  0  0  0  0
    0.8228   14.4807    7.5638 H   0  0  0  0  0  0  0  0  0  0  0  0
    0.7552   13.0460    5.9740 C   0  0  0  0  0  0  0  0  0  0  0  0
    0.4907   12.2229    6.6211 H   0  0  0  0  0  0  0  0  0  0  0  0
    0.9035   12.8370    4.6161 C   0  0  0  0  0  0  0  0  0  0  0  0
    0.7367   11.8606    4.1807 H   0  0  0  0  0  0  0  0  0  0  0  0
    3.1748   12.9255    1.9715 C   0  0  0  0  0  0  0  0  0  0  0  0
    4.1894   13.5697    2.6691 C   0  0  0  0  0  0  0  0  0  0  0  0
    3.9543   14.4073    3.3119 H   0  0  0  0  0  0  0  0  0  0  0  0
    5.4942   13.1278    2.5481 C   0  0  0  0  0  0  0  0  0  0  0  0
    6.2845   13.6273    3.0901 H   0  0  0  0  0  0  0  0  0  0  0  0
    5.7906   12.0436    1.7368 C   0  0  0  0  0  0  0  0  0  0  0  0
    6.8117   11.7025    1.6475 H   0  0  0  0  0  0  0  0  0  0  0  0
    4.7802   11.3920    1.0482 C   0  0  0  0  0  0  0  0  0  0  0  0
    5.0130   10.5407    0.4250 H   0  0  0  0  0  0  0  0  0  0  0  0
    3.4749   11.8317    1.1676 C   0  0  0  0  0  0  0  0  0  0  0  0
    2.6576   11.3272    0.6510 H   0  0  0  0  0  0  0  0  0  0  0  0
   -1.4491    9.9333   -1.6678 C   0  0  0  0  0  0  0  0  0  0  0  0
   -0.4663    8.9547   -1.5363 C   0  0  0  0  0  0  0  0  0  0  0  0
    0.5225    9.2420   -1.1988 H   0  0  0  0  0  0  0  0  0  0  0  0
   -0.7577    7.6318   -1.8027 C   0  0  0  0  0  0  0  0  0  0  0  0
    0.0088    6.8771   -1.7027 H   0  0  0  0  0  0  0  0  0  0  0  0
   -2.0413    7.2717   -2.1835 C   0  0  0  0  0  0  0  0  0  0  0  0
   -2.2732    6.2370   -2.3891 H   0  0  0  0  0  0  0  0  0  0  0  0
   -3.0317    8.2347   -2.2773 C   0  0  0  0  0  0  0  0  0  0  0  0
   -4.0377    7.9498   -2.5501 H   0  0  0  0  0  0  0  0  0  0  0  0
   -2.7431    9.5623   -2.0125 C   0  0  0  0  0  0  0  0  0  0  0  0
   -3.5243   10.3072   -2.0664 H   0  0  0  0  0  0  0  0  0  0  0  0
   -2.3480   12.6798   -1.7344 C   0  0  0  0  0  0  0  0  0  0  0  0
   -2.8833   12.6689   -3.0183 C   0  0  0  0  0  0  0  0  0  0  0  0
   -2.5078   11.9717   -3.7557 H   0  0  0  0  0  0  0  0  0  0  0  0
   -3.9019   13.5444   -3.3465 C   0  0  0  0  0  0  0  0  0  0  0  0
   -4.3200   13.5346   -4.3430 H   0  0  0  0  0  0  0  0  0  0  0  0
   -4.3884   14.4342   -2.4010 C   0  0  0  0  0  0  0  0  0  0  0  0
   -5.1852   15.1146   -2.6642 H   0  0  0  0  0  0  0  0  0  0  0  0
   -3.8558   14.4518   -1.1223 C   0  0  0  0  0  0  0  0  0  0  0  0
   -4.2366   15.1457   -0.3871 H   0  0  0  0  0  0  0  0  0  0  0  0
   -2.8369   13.5772   -0.7910 C   0  0  0  0  0  0  0  0  0  0  0  0
   -2.4021   13.5695    0.2075 H   0  0  0  0  0  0  0  0  0  0  0  0
  1  2  1  6  0  0  0
  1  3  1  0  0  0  0
  3 20  1  0  0  0  0
  4  1  1  0  0  0  0
  5  6  1  0  0  0  0
  5  1  1  0  0  0  0
  6  7  1  6  0  0  0
  6 14  1  0  0  0  0
  7  8  1  0  0  0  0
  9  7  2  0  0  0  0
 10  9  1  0  0  0  0
 11  9  1  0  0  0  0
 11 13  2  0  0  0  0
 12 11  1  0  0  0  0
 13  5  1  0  0  0  0
 14 15  1  0  0  0  0
 14 16  1  0  0  0  0
 14  3  1  0  0  0  0
 17 18  1  0  0  0  0
 17 13  1  0  0  0  0
 17  4  1  0  0  0  0
 19 17  1  0  0  0  0
 20 21  2  0  0  0  0
 20 29  1  0  0  0  0
 21 23  1  0  0  0  0
 22 21  1  0  0  0  0
 23 24  1  0  0  0  0
 23 25  2  0  0  0  0
 25 26  1  0  0  0  0
 27 25  1  0  0  0  0
 27 28  1  0  0  0  0
 29 27  2  0  0  0  0
 30 29  1  0  0  0  0
 31  3  1  0  0  0  0
 31 32  1  0  0  0  0
 32 33  1  0  0  0  0
 34 32  2  0  0  0  0
 34 35  1  0  0  0  0
 36 34  1  0  0  0  0
 37 36  1  0  0  0  0
 38 40  1  0  0  0  0
 38 36  2  0  0  0  0
 39 38  1  0  0  0  0
 40 31  2  0  0  0  0
 41 40  1  0  0  0  0
 42 43  1  0  0  0  0
 42  4  1  0  0  0  0
 43 44  1  0  0  0  0
 45 46  1  0  0  0  0
 45 43  2  0  0  0  0
 47 45  1  0  0  0  0
 48 47  1  0  0  0  0
 49 47  2  0  0  0  0
 49 51  1  0  0  0  0
 50 49  1  0  0  0  0
 51 42  2  0  0  0  0
 52 51  1  0  0  0  0
 53  4  1  0  0  0  0
 53 62  1  0  0  0  0
 54 53  2  0  0  0  0
 55 54  1  0  0  0  0
 56 54  1  0  0  0  0
 56 58  2  0  0  0  0
 57 56  1  0  0  0  0
 58 60  1  0  0  0  0
 59 58  1  0  0  0  0
 60 62  2  0  0  0  0
 60 61  1  0  0  0  0
 62 63  1  0  0  0  0
M  END
$$$$
