CSD_code = PEBDEF | q = 0 | S = 0 | Stoichiometry = C23H32BIMoN8O | MND = 6
 OpenBabel04212202083D

 67 72  0  0  1  0  0  0  0  0999 V2000
    4.5632   20.6296   30.5375 Mo  0  0  0  0  0  0  0  0  0  0  0  0
    6.6576   20.4342   32.3449 I   0  0  0  0  0  0  0  0  0  0  0  0
    4.4885   23.5538   30.6250 O   0  0  0  0  0  1  0  0  0  0  0  0
    4.5397   22.3593   30.5833 N   0  0  0  0  0  2  0  0  0  0  0  0
    4.5603   18.4179   30.4602 N   0  0  1  0  0  0  0  0  0  0  0  0
    4.7086   17.8084   29.2644 N   0  0  0  0  0  0  0  0  0  0  0  0
    3.3191   20.4619   28.8060 N   0  0  1  0  0  0  0  0  0  0  0  0
    3.5416   19.5074   27.8826 N   0  0  0  0  0  0  0  0  0  0  0  0
    6.0529   20.5466   28.9257 N   0  0  2  0  0  0  0  0  0  0  0  0
    6.0007   19.5452   28.0212 N   0  0  0  0  0  0  0  0  0  0  0  0
    3.0901   20.4513   31.7322 N   0  0  0  0  0  0  0  0  0  0  0  0
    4.7881   18.6102   27.9638 B   0  0  1  0  0  0  0  0  0  0  0  0
    4.3982   17.6675   32.8596 C   0  0  0  0  0  0  0  0  0  0  0  0
    4.5252   17.4609   31.3903 C   0  0  2  0  0  3  0  0  0  0  0  0
    4.6515   16.2122   30.7738 C   0  0  0  0  0  0  0  0  0  0  0  0
    4.7693   16.4718   29.4239 C   0  0  0  0  0  0  0  0  0  0  0  0
    4.9406   15.5016   28.3120 C   0  0  0  0  0  0  0  0  0  0  0  0
    1.6472   22.2570   29.2207 C   0  0  0  0  0  0  0  0  0  0  0  0
    2.2205   21.1290   28.4476 C   0  0  2  0  0  3  0  0  0  0  0  0
    1.7241   20.5803   27.2648 C   0  0  0  0  0  0  0  0  0  0  0  0
    2.5928   19.5556   26.9320 C   0  0  0  0  0  0  0  0  0  0  0  0
    2.5399   18.6467   25.7583 C   0  0  0  0  0  0  0  0  0  0  0  0
    7.5788   22.4606   29.4371 C   0  0  0  0  0  0  0  0  0  0  0  0
    7.1508   21.2638   28.6700 C   0  0  1  0  0  3  0  0  0  0  0  0
    7.8201   20.6995   27.5813 C   0  0  0  0  0  0  0  0  0  0  0  0
    7.0595   19.6129   27.1932 C   0  0  0  0  0  0  0  0  0  0  0  0
    7.3119   18.6591   26.0825 C   0  0  0  0  0  0  0  0  0  0  0  0
    2.4815   21.3985   32.6358 C   0  0  2  0  0  0  0  0  0  0  0  0
    2.8870   21.0922   34.0914 C   0  0  0  0  0  0  0  0  0  0  0  0
    0.9682   21.4326   32.5535 C   0  0  0  0  0  0  0  0  0  0  0  0
    0.3109   22.6555   32.4722 C   0  0  0  0  0  0  0  0  0  0  0  0
   -1.0701   22.7140   32.4187 C   0  0  0  0  0  0  0  0  0  0  0  0
   -1.8164   21.5479   32.4433 C   0  0  0  0  0  0  0  0  0  0  0  0
   -1.1727   20.3259   32.5298 C   0  0  0  0  0  0  0  0  0  0  0  0
    0.2088   20.2691   32.5897 C   0  0  0  0  0  0  0  0  0  0  0  0
    2.6164   19.5542   31.8677 H   0  0  0  0  0  0  0  0  0  0  0  0
    4.8495   17.8942   27.0309 H   0  0  0  0  0  0  0  0  0  0  0  0
    3.5991   17.0379   33.2516 H   0  0  0  0  0  0  0  0  0  0  0  0
    4.2016   18.7037   33.1167 H   0  0  0  0  0  0  0  0  0  0  0  0
    5.3270   17.3698   33.3469 H   0  0  0  0  0  0  0  0  0  0  0  0
    4.6623   15.2564   31.2564 H   0  0  0  0  0  0  0  0  0  0  0  0
    4.9543   14.4926   28.7155 H   0  0  0  0  0  0  0  0  0  0  0  0
    5.8759   15.6811   27.7847 H   0  0  0  0  0  0  0  0  0  0  0  0
    4.1261   15.5832   27.5942 H   0  0  0  0  0  0  0  0  0  0  0  0
    0.9180   22.7853   28.6116 H   0  0  0  0  0  0  0  0  0  0  0  0
    2.4241   22.9533   29.5266 H   0  0  0  0  0  0  0  0  0  0  0  0
    1.1465   21.8881   30.1162 H   0  0  0  0  0  0  0  0  0  0  0  0
    0.8544   20.8929   26.7241 H   0  0  0  0  0  0  0  0  0  0  0  0
    1.6592   18.8750   25.1645 H   0  0  0  0  0  0  0  0  0  0  0  0
    2.4915   17.6069   26.0769 H   0  0  0  0  0  0  0  0  0  0  0  0
    3.4249   18.7688   25.1363 H   0  0  0  0  0  0  0  0  0  0  0  0
    8.1522   23.1202   28.7894 H   0  0  0  0  0  0  0  0  0  0  0  0
    8.2160   22.1677   30.2727 H   0  0  0  0  0  0  0  0  0  0  0  0
    6.7267   23.0057   29.8351 H   0  0  0  0  0  0  0  0  0  0  0  0
    8.7340   21.0413   27.1406 H   0  0  0  0  0  0  0  0  0  0  0  0
    8.2491   18.9137   25.5954 H   0  0  0  0  0  0  0  0  0  0  0  0
    6.5104   18.7001   25.3466 H   0  0  0  0  0  0  0  0  0  0  0  0
    7.3756   17.6392   26.4577 H   0  0  0  0  0  0  0  0  0  0  0  0
    2.8754   22.3909   32.3814 H   0  0  0  0  0  0  0  0  0  0  0  0
    2.4809   21.8528   34.7533 H   0  0  0  0  0  0  0  0  0  0  0  0
    3.9725   21.0953   34.1806 H   0  0  0  0  0  0  0  0  0  0  0  0
    2.5002   20.1223   34.4019 H   0  0  0  0  0  0  0  0  0  0  0  0
    0.8912   23.5664   32.4465 H   0  0  0  0  0  0  0  0  0  0  0  0
   -1.5643   23.6722   32.3558 H   0  0  0  0  0  0  0  0  0  0  0  0
   -2.8944   21.5908   32.3985 H   0  0  0  0  0  0  0  0  0  0  0  0
   -1.7480   19.4117   32.5560 H   0  0  0  0  0  0  0  0  0  0  0  0
    0.6899   19.3031   32.6708 H   0  0  0  0  0  0  0  0  0  0  0  0
  1  4  1  0  0  0  0
  1 11  1  0  0  0  0
  1  2  1  0  0  0  0
  4  3  1  0  0  0  0
  5  6  1  1  0  0  0
  5  1  1  0  0  0  0
  5 14  1  0  0  0  0
  6 16  1  0  0  0  0
  7  8  1  1  0  0  0
  7  1  1  0  0  0  0
  8 12  1  0  0  0  0
  9 10  1  1  0  0  0
  9  1  1  0  0  0  0
 11 36  1  0  0  0  0
 11 28  1  0  0  0  0
 12 37  1  6  0  0  0
 12 10  1  0  0  0  0
 12  6  1  0  0  0  0
 13 39  1  0  0  0  0
 13 38  1  0  0  0  0
 13 40  1  0  0  0  0
 14 13  1  1  0  0  0
 15 41  1  0  0  0  0
 15 14  1  0  0  0  0
 16 15  2  0  0  0  0
 17 42  1  0  0  0  0
 17 16  1  0  0  0  0
 18 46  1  0  0  0  0
 18 47  1  0  0  0  0
 19  7  1  0  0  0  0
 19 18  1  1  0  0  0
 20 19  1  0  0  0  0
 21 20  2  0  0  0  0
 21  8  1  0  0  0  0
 22 50  1  0  0  0  0
 22 21  1  0  0  0  0
 23 54  1  0  0  0  0
 23 53  1  0  0  0  0
 24  9  1  0  0  0  0
 24 23  1  1  0  0  0
 25 24  1  0  0  0  0
 26 25  2  0  0  0  0
 26 10  1  0  0  0  0
 27 58  1  0  0  0  0
 27 26  1  0  0  0  0
 28 59  1  6  0  0  0
 28 29  1  0  0  0  0
 29 61  1  0  0  0  0
 29 62  1  0  0  0  0
 29 60  1  0  0  0  0
 30 35  1  0  0  0  0
 30 28  1  0  0  0  0
 31 30  2  0  0  0  0
 32 33  2  0  0  0  0
 32 31  1  0  0  0  0
 33 34  1  0  0  0  0
 34 66  1  0  0  0  0
 34 35  2  0  0  0  0
 35 67  1  0  0  0  0
 43 17  1  0  0  0  0
 44 17  1  0  0  0  0
 45 18  1  0  0  0  0
 48 20  1  0  0  0  0
 49 22  1  0  0  0  0
 51 22  1  0  0  0  0
 52 23  1  0  0  0  0
 55 25  1  0  0  0  0
 56 27  1  0  0  0  0
 57 27  1  0  0  0  0
 63 31  1  0  0  0  0
 64 32  1  0  0  0  0
 65 33  1  0  0  0  0
M  END
$$$$
