CSD_code = PEBHUC | q = 0 | S = 0 | Stoichiometry = C21H20Br2N2Ni | MND = 4
 OpenBabel04212202083D

 46 50  0  0  1  0  0  0  0  0999 V2000
    3.1875    2.0522    6.1207 Br  0  0  0  0  0  0  0  0  0  0  0  0
    1.3306    2.9870    2.3615 Br  0  0  0  0  0  0  0  0  0  0  0  0
    4.8237    1.1201    1.3853 C   0  0  0  0  0  0  0  0  0  0  0  0
    4.7205    2.4228    0.9227 C   0  0  0  0  0  0  0  0  0  0  0  0
    3.7469    2.8689    0.7892 H   0  0  0  0  0  0  0  0  0  0  0  0
    5.8564    3.1561    0.6236 C   0  0  0  0  0  0  0  0  0  0  0  0
    5.7602    4.1731    0.2744 H   0  0  0  0  0  0  0  0  0  0  0  0
    7.1088    2.5840    0.7660 C   0  0  0  0  0  0  0  0  0  0  0  0
    7.9960    3.1534    0.5312 H   0  0  0  0  0  0  0  0  0  0  0  0
    7.2243    1.2801    1.2113 C   0  0  0  0  0  0  0  0  0  0  0  0
    8.1995    0.8321    1.3361 H   0  0  0  0  0  0  0  0  0  0  0  0
    6.0909    0.5410    1.5296 C   0  0  0  0  0  0  0  0  0  0  0  0
    6.2034   -0.8339    2.0362 C   0  0  0  0  0  0  0  0  0  0  0  0
    7.0508   -1.7606    1.4392 C   0  0  0  0  0  0  0  0  0  0  0  0
    7.6389   -1.4648    0.5827 H   0  0  0  0  0  0  0  0  0  0  0  0
    7.1245   -3.0549    1.9202 C   0  0  0  0  0  0  0  0  0  0  0  0
    7.7801   -3.7696    1.4452 H   0  0  0  0  0  0  0  0  0  0  0  0
    6.3589   -3.4341    3.0100 C   0  0  0  0  0  0  0  0  0  0  0  0
    6.4163   -4.4438    3.3886 H   0  0  0  0  0  0  0  0  0  0  0  0
    5.5232   -2.5141    3.6198 C   0  0  0  0  0  0  0  0  0  0  0  0
    4.9430   -2.8061    4.4847 H   0  0  0  0  0  0  0  0  0  0  0  0
    5.4346   -1.2152    3.1414 C   0  0  0  0  0  0  0  0  0  0  0  0
    4.5639   -0.1908    3.8141 C   0  0  0  0  0  0  0  0  0  0  0  0
    5.1165    0.7514    3.8915 H   0  0  0  0  0  0  0  0  0  0  0  0
    4.3271   -0.5180    4.8276 H   0  0  0  0  0  0  0  0  0  0  0  0
    3.5982    0.2880    1.6495 C   0  0  0  0  0  0  0  0  0  0  0  0
    3.7493   -0.6999    1.1849 H   0  0  0  0  0  0  0  0  0  0  0  0
    2.7289    0.7576    1.1821 H   0  0  0  0  0  0  0  0  0  0  0  0
    2.3614   -1.0222    3.2090 C   0  0  0  0  0  0  0  0  0  0  0  0
    2.8806   -1.9682    2.9955 H   0  0  0  0  0  0  0  0  0  0  0  0
    1.5792   -0.8897    2.4546 H   0  0  0  0  0  0  0  0  0  0  0  0
    1.6989   -1.1240    4.5935 C   0  0  0  0  0  0  0  0  0  0  0  0
    1.3849   -2.1556    4.7537 H   0  0  0  0  0  0  0  0  0  0  0  0
    2.4296   -0.8702    5.3680 H   0  0  0  0  0  0  0  0  0  0  0  0
    0.5121   -0.2273    4.7835 C   0  0  1  0  0  3  0  0  0  0  0  0
   -0.7310   -0.7684    5.0968 C   0  0  0  0  0  0  0  0  0  0  0  0
   -0.8404   -1.8408    5.1340 H   0  0  0  0  0  0  0  0  0  0  0  0
   -1.8040    0.0583    5.3700 C   0  0  0  0  0  0  0  0  0  0  0  0
   -2.7699   -0.3561    5.6125 H   0  0  0  0  0  0  0  0  0  0  0  0
   -1.6029    1.4300    5.3427 C   0  0  0  0  0  0  0  0  0  0  0  0
   -2.3959    2.1218    5.5729 H   0  0  0  0  0  0  0  0  0  0  0  0
   -0.3546    1.9075    5.0036 C   0  0  0  0  0  0  0  0  0  0  0  0
   -0.1661    2.9762    4.9706 H   0  0  0  0  0  0  0  0  0  0  0  0
    3.3012    0.1025    3.0918 N   0  0  0  0  0  4  0  0  0  0  0  0
    0.6686    1.0994    4.7079 N   0  0  0  0  0  0  0  0  0  0  0  0
    2.1738    1.9109    4.1404 Ni  0  0  0  0  0  0  0  0  0  0  0  0
  2 46  1  0  0  0  0
  3 12  1  0  0  0  0
  3 26  1  0  0  0  0
  4  3  2  0  0  0  0
  5  4  1  0  0  0  0
  6  8  2  0  0  0  0
  6  4  1  0  0  0  0
  7  6  1  0  0  0  0
  8 10  1  0  0  0  0
  9  8  1  0  0  0  0
 10 11  1  0  0  0  0
 10 12  2  0  0  0  0
 12 13  1  0  0  0  0
 13 22  1  0  0  0  0
 14 16  1  0  0  0  0
 14 13  2  0  0  0  0
 15 14  1  0  0  0  0
 16 18  2  0  0  0  0
 17 16  1  0  0  0  0
 18 19  1  0  0  0  0
 18 20  1  0  0  0  0
 20 21  1  0  0  0  0
 22 20  2  0  0  0  0
 22 23  1  0  0  0  0
 23 24  1  0  0  0  0
 23 25  1  0  0  0  0
 26 44  1  0  0  0  0
 27 26  1  0  0  0  0
 28 26  1  0  0  0  0
 29 32  1  0  0  0  0
 30 29  1  0  0  0  0
 31 29  1  0  0  0  0
 32 33  1  0  0  0  0
 32 35  1  0  0  0  0
 32 34  1  0  0  0  0
 35 36  1  1  0  0  0
 36 37  1  0  0  0  0
 36 38  2  0  0  0  0
 38 39  1  0  0  0  0
 40 38  1  0  0  0  0
 40 41  1  0  0  0  0
 42 40  2  0  0  0  0
 43 42  1  0  0  0  0
 44 29  1  0  0  0  0
 44 23  1  0  0  0  0
 44 46  1  0  0  0  0
 45 35  1  0  0  0  0
 45 42  1  0  0  0  0
 46 45  1  0  0  0  0
 46  1  1  0  0  0  0
M  END
$$$$
