CSD_code = PEBHOW | q = 0 | S = 0 | Stoichiometry = C21H20Cl2N2Ni | MND = 4
 OpenBabel04212202083D

 46 50  0  0  0  0  0  0  0  0999 V2000
    6.3282    1.8779    2.6931 Ni  0  0  0  0  0  0  0  0  0  0  0  0
    5.3658    1.8405    0.8723 Cl  0  0  0  0  0  0  0  0  0  0  0  0
    7.1958    2.6332    4.4203 Cl  0  0  0  0  0  0  0  0  0  0  0  0
    5.2134    0.0460    3.7070 N   0  0  0  0  0  4  0  0  0  0  0  0
    7.8759    1.1266    2.0961 N   0  0  0  0  0  0  0  0  0  0  0  0
    3.9268   -0.2436    3.0295 C   0  0  0  0  0  0  0  0  0  0  0  0
    4.1348   -0.5912    2.0173 H   0  0  0  0  0  0  0  0  0  0  0  0
    3.3867    0.7046    2.9478 H   0  0  0  0  0  0  0  0  0  0  0  0
    3.7897    1.0849    5.4575 C   0  0  0  0  0  0  0  0  0  0  0  0
    2.3344   -0.8310    4.8736 C   0  0  0  0  0  0  0  0  0  0  0  0
    4.9773    0.2135    5.1591 C   0  0  0  0  0  0  0  0  0  0  0  0
    5.8756    0.6565    5.5950 H   0  0  0  0  0  0  0  0  0  0  0  0
    4.8101   -0.7751    5.6170 H   0  0  0  0  0  0  0  0  0  0  0  0
    3.0584   -1.2409    3.7474 C   0  0  0  0  0  0  0  0  0  0  0  0
    6.8062   -1.0762    2.1209 C   0  0  0  0  0  0  0  0  0  0  0  0
    7.0835   -2.1001    1.8700 H   0  0  0  0  0  0  0  0  0  0  0  0
    6.0765   -0.7202    1.3875 H   0  0  0  0  0  0  0  0  0  0  0  0
    2.5016    0.5441    5.3650 C   0  0  0  0  0  0  0  0  0  0  0  0
    2.9203   -2.5417    3.2862 C   0  0  0  0  0  0  0  0  0  0  0  0
    3.4660   -2.8566    2.4071 H   0  0  0  0  0  0  0  0  0  0  0  0
    9.2688   -0.7576    1.7485 C   0  0  0  0  0  0  0  0  0  0  0  0
    9.3665   -1.8306    1.6936 H   0  0  0  0  0  0  0  0  0  0  0  0
    8.9296    1.9235    1.8971 C   0  0  0  0  0  3  0  0  0  0  0  0
    8.7567    2.9916    1.9617 H   0  0  0  0  0  0  0  0  0  0  0  0
    1.4817   -1.7295    5.5050 C   0  0  0  0  0  0  0  0  0  0  0  0
    0.9285   -1.4109    6.3765 H   0  0  0  0  0  0  0  0  0  0  0  0
    1.4041    1.3226    5.7144 C   0  0  0  0  0  0  0  0  0  0  0  0
    0.4108    0.9049    5.6339 H   0  0  0  0  0  0  0  0  0  0  0  0
    2.8510    3.1677    6.2096 C   0  0  0  0  0  0  0  0  0  0  0  0
    2.9883    4.1897    6.5304 H   0  0  0  0  0  0  0  0  0  0  0  0
   10.1893    1.4313    1.6204 C   0  0  0  0  0  0  0  0  0  0  0  0
   11.0088    2.1129    1.4617 H   0  0  0  0  0  0  0  0  0  0  0  0
    3.9519    2.3945    5.8817 C   0  0  0  0  0  0  0  0  0  0  0  0
    4.9462    2.8087    5.9537 H   0  0  0  0  0  0  0  0  0  0  0  0
    6.1624   -1.0609    3.5212 C   0  0  0  0  0  0  0  0  0  0  0  0
    5.6555   -2.0217    3.6920 H   0  0  0  0  0  0  0  0  0  0  0  0
    6.9532   -0.9565    4.2699 H   0  0  0  0  0  0  0  0  0  0  0  0
   10.3690    0.0580    1.5615 C   0  0  0  0  0  0  0  0  0  0  0  0
   11.3415   -0.3660    1.3650 H   0  0  0  0  0  0  0  0  0  0  0  0
    1.3578   -3.0254    5.0385 C   0  0  0  0  0  0  0  0  0  0  0  0
    0.6978   -3.7179    5.5398 H   0  0  0  0  0  0  0  0  0  0  0  0
    2.0798   -3.4341    3.9299 C   0  0  0  0  0  0  0  0  0  0  0  0
    1.9844   -4.4454    3.5631 H   0  0  0  0  0  0  0  0  0  0  0  0
    8.0184   -0.2022    2.0005 C   0  0  0  0  0  0  0  0  0  0  0  0
    1.5777    2.6293    6.1323 C   0  0  0  0  0  0  0  0  0  0  0  0
    0.7182    3.2296    6.3929 H   0  0  0  0  0  0  0  0  0  0  0  0
  1  4  1  0  0  0  0
  1  3  1  0  0  0  0
  2  1  1  0  0  0  0
  4 11  1  0  0  0  0
  5  1  1  0  0  0  0
  6  4  1  0  0  0  0
  6 14  1  0  0  0  0
  7  6  1  0  0  0  0
  8  6  1  0  0  0  0
  9 33  1  0  0  0  0
 10 18  1  0  0  0  0
 10 25  1  0  0  0  0
 11  9  1  0  0  0  0
 11 12  1  0  0  0  0
 11 13  1  0  0  0  0
 14 10  2  0  0  0  0
 15 35  1  0  0  0  0
 16 15  1  0  0  0  0
 17 15  1  0  0  0  0
 18  9  2  0  0  0  0
 18 27  1  0  0  0  0
 19 14  1  0  0  0  0
 19 42  2  0  0  0  0
 20 19  1  0  0  0  0
 21 44  2  0  0  0  0
 22 21  1  0  0  0  0
 23 24  1  0  0  0  0
 23  5  1  0  0  0  0
 25 26  1  0  0  0  0
 27 45  2  0  0  0  0
 28 27  1  0  0  0  0
 29 30  1  0  0  0  0
 31 23  1  0  0  0  0
 32 31  1  0  0  0  0
 33 34  1  0  0  0  0
 33 29  2  0  0  0  0
 35 36  1  0  0  0  0
 35  4  1  0  0  0  0
 35 37  1  0  0  0  0
 38 31  2  0  0  0  0
 38 21  1  0  0  0  0
 39 38  1  0  0  0  0
 40 25  2  0  0  0  0
 40 41  1  0  0  0  0
 42 40  1  0  0  0  0
 43 42  1  0  0  0  0
 44  5  1  0  0  0  0
 44 15  1  0  0  0  0
 45 29  1  0  0  0  0
 45 46  1  0  0  0  0
M  END
$$$$
