CSD_code = PEBHUA | q = 0 | S = 0 | Stoichiometry = C20H25I3N4Zr | MND = 6
 OpenBabel04212202083D

 53 57  0  0  1  0  0  0  0  0999 V2000
    8.8456    2.3056    9.8521 Zr  0  0  0  0  0  0  0  0  0  0  0  0
    6.3445    1.0548   10.6265 I   0  0  0  0  0  0  0  0  0  0  0  0
   11.4383    3.4842    9.2956 I   0  0  0  0  0  0  0  0  0  0  0  0
    7.8177    3.1421    7.3166 I   0  0  0  0  0  0  0  0  0  0  0  0
    7.9485    5.2783   11.4856 N   0  0  0  0  0  0  0  0  0  0  0  0
    8.4603    4.0382   11.3911 C   0  0  2  0  0  3  0  0  0  0  0  0
    8.9024    3.7379   12.6467 N   0  0  0  0  0  0  0  0  0  0  0  0
    8.6571    4.7802   13.4982 C   0  0  0  0  0  0  0  0  0  0  0  0
    8.9211    4.7691   14.5349 H   0  0  0  0  0  0  0  0  0  0  0  0
    8.0514    5.7492   12.7655 C   0  0  0  0  0  0  0  0  0  0  0  0
    7.7001    6.7186   13.0535 H   0  0  0  0  0  0  0  0  0  0  0  0
    9.6430    1.6695   11.7957 C   0  0  0  0  0  0  0  0  0  0  0  0
    9.5373    2.4956   12.9106 C   0  0  0  0  0  0  0  0  0  0  0  0
   10.0331    2.1043   14.1487 C   0  0  0  0  0  0  0  0  0  0  0  0
    9.9551    2.7368   15.0200 H   0  0  0  0  0  0  0  0  0  0  0  0
   10.6446    0.8631   14.2531 C   0  0  0  0  0  0  0  0  0  0  0  0
   11.0317    0.5480   15.2099 H   0  0  0  0  0  0  0  0  0  0  0  0
    7.3165    5.9520   10.3737 C   0  0  0  0  0  0  0  0  0  0  0  0
    7.9559    5.8458    9.4863 H   0  0  0  0  0  0  0  0  0  0  0  0
    7.2261    7.0145   10.6107 H   0  0  0  0  0  0  0  0  0  0  0  0
    5.9382    5.3456   10.0905 C   0  0  0  0  0  0  0  0  0  0  0  0
    5.2971    5.4737   10.9666 H   0  0  0  0  0  0  0  0  0  0  0  0
    6.0508    4.2688    9.9154 H   0  0  0  0  0  0  0  0  0  0  0  0
    5.2788    5.9810    8.8700 C   0  0  0  0  0  0  0  0  0  0  0  0
    5.1277    7.0479    9.0501 H   0  0  0  0  0  0  0  0  0  0  0  0
    5.9382    5.8752    8.0071 H   0  0  0  0  0  0  0  0  0  0  0  0
    3.9448    5.3143    8.5613 C   0  0  0  0  0  0  0  0  0  0  0  0
    3.4842    5.7752    7.6921 H   0  0  0  0  0  0  0  0  0  0  0  0
    3.2628    5.4052    9.4040 H   0  0  0  0  0  0  0  0  0  0  0  0
    4.0922    4.2583    8.3501 H   0  0  0  0  0  0  0  0  0  0  0  0
   10.0916   -0.7401    8.6365 N   0  0  0  0  0  0  0  0  0  0  0  0
    9.8266    0.1899    9.5713 C   0  0  1  0  0  3  0  0  0  0  0  0
   10.3463   -0.3102   10.7296 N   0  0  0  0  0  0  0  0  0  0  0  0
   10.9159   -1.5336   10.5050 C   0  0  0  0  0  0  0  0  0  0  0  0
   11.3888   -2.1131   11.2700 H   0  0  0  0  0  0  0  0  0  0  0  0
   10.7505   -1.8054    9.1854 C   0  0  0  0  0  0  0  0  0  0  0  0
   11.0521   -2.6561    8.6096 H   0  0  0  0  0  0  0  0  0  0  0  0
   10.2719    0.4360   11.9353 C   0  0  0  0  0  0  0  0  0  0  0  0
   10.7771    0.0176   13.1607 C   0  0  0  0  0  0  0  0  0  0  0  0
   11.2649   -0.9378   13.2802 H   0  0  0  0  0  0  0  0  0  0  0  0
    9.6514   -0.6190    7.2648 C   0  0  0  0  0  0  0  0  0  0  0  0
   10.1931   -1.3459    6.6554 H   0  0  0  0  0  0  0  0  0  0  0  0
    9.8947    0.3897    6.9029 H   0  0  0  0  0  0  0  0  0  0  0  0
    8.1404   -0.8519    7.1631 C   0  0  0  0  0  0  0  0  0  0  0  0
    7.9047   -1.8646    7.5007 H   0  0  0  0  0  0  0  0  0  0  0  0
    7.6253   -0.1504    7.8306 H   0  0  0  0  0  0  0  0  0  0  0  0
    7.6290   -0.6494    5.7399 C   0  0  0  0  0  0  0  0  0  0  0  0
    8.1077   -1.3703    5.0732 H   0  0  0  0  0  0  0  0  0  0  0  0
    7.8953    0.3526    5.3995 H   0  0  0  0  0  0  0  0  0  0  0  0
    6.1159   -0.8106    5.6759 C   0  0  0  0  0  0  0  0  0  0  0  0
    5.7629   -0.6639    4.6590 H   0  0  0  0  0  0  0  0  0  0  0  0
    5.6321   -0.0760    6.3145 H   0  0  0  0  0  0  0  0  0  0  0  0
    5.8184   -1.8034    6.0062 H   0  0  0  0  0  0  0  0  0  0  0  0
  1  2  1  0  0  0  0
  1  6  1  0  0  0  0
  1 12  1  0  0  0  0
  3  1  1  0  0  0  0
  4  1  1  0  0  0  0
  5 10  1  0  0  0  0
  6  5  1  6  0  0  0
  6  7  1  0  0  0  0
  7 13  1  0  0  0  0
  7  8  1  0  0  0  0
  8  9  1  0  0  0  0
 10 11  1  0  0  0  0
 10  8  2  0  0  0  0
 12 38  2  0  0  0  0
 12 13  1  0  0  0  0
 13 14  2  0  0  0  0
 14 16  1  0  0  0  0
 14 15  1  0  0  0  0
 16 17  1  0  0  0  0
 18 20  1  0  0  0  0
 18  5  1  0  0  0  0
 19 18  1  0  0  0  0
 21 18  1  0  0  0  0
 21 22  1  0  0  0  0
 23 21  1  0  0  0  0
 24 25  1  0  0  0  0
 24 21  1  0  0  0  0
 26 24  1  0  0  0  0
 27 24  1  0  0  0  0
 27 29  1  0  0  0  0
 28 27  1  0  0  0  0
 30 27  1  0  0  0  0
 31 36  1  0  0  0  0
 32 31  1  6  0  0  0
 32  1  1  0  0  0  0
 32 33  1  0  0  0  0
 33 38  1  0  0  0  0
 34 33  1  0  0  0  0
 34 35  1  0  0  0  0
 36 34  2  0  0  0  0
 37 36  1  0  0  0  0
 38 39  1  0  0  0  0
 39 40  1  0  0  0  0
 39 16  2  0  0  0  0
 41 31  1  0  0  0  0
 42 41  1  0  0  0  0
 43 41  1  0  0  0  0
 44 41  1  0  0  0  0
 44 45  1  0  0  0  0
 44 46  1  0  0  0  0
 47 44  1  0  0  0  0
 48 47  1  0  0  0  0
 49 47  1  0  0  0  0
 50 47  1  0  0  0  0
 50 53  1  0  0  0  0
 50 52  1  0  0  0  0
 51 50  1  0  0  0  0
M  END
$$$$
