CSD_code = PEBLUF | q = 0 | S = 0 | Stoichiometry = C29H23ClN3O2PRuS | MND = 6
 OpenBabel04212202083D

 61 67  0  0  0  0  0  0  0  0999 V2000
   -1.3325    8.3322    5.3964 C   0  0  0  0  0  0  0  0  0  0  0  0
   -1.6543    9.1542    4.7747 H   0  0  0  0  0  0  0  0  0  0  0  0
   -2.0793    7.1668    5.4478 C   0  0  0  0  0  0  0  0  0  0  0  0
   -2.9835    7.0783    4.8640 H   0  0  0  0  0  0  0  0  0  0  0  0
    3.1083    9.3734    7.5427 Ru  0  0  0  0  0  0  0  0  0  0  0  0
    1.7626    7.5447    7.9278 P   0  0  0  0  0  4  0  0  0  0  0  0
    6.7686    7.9173    9.5798 S   0  0  0  0  0  0  0  0  0  0  0  0
    4.3547   11.3485    7.1811 Cl  0  0  0  0  0  0  0  0  0  0  0  0
   -0.0814    8.1405    9.9341 C   0  0  0  0  0  0  0  0  0  0  0  0
   -0.7399    8.4370    9.1291 H   0  0  0  0  0  0  0  0  0  0  0  0
    3.3673    9.6488    9.4009 N   0  0  0  0  0  0  0  0  0  0  0  0
    4.9371    8.4210    7.8524 N   0  0  0  0  0  0  0  0  0  0  0  0
    4.4313    9.2028   10.0077 N   0  0  0  0  0  0  0  0  0  0  0  0
    2.4609   10.3910   10.0616 C   0  0  0  0  0  0  0  0  0  0  0  0
    1.3508   10.5178    7.9876 O   0  0  0  0  0  0  0  0  0  0  0  0
    5.2313    8.5793    9.1412 C   0  0  0  0  0  0  0  0  0  0  0  0
    1.3842   10.8357    9.2206 C   0  0  0  0  0  0  0  0  0  0  0  0
    3.9596    4.5472    6.3459 C   0  0  0  0  0  0  0  0  0  0  0  0
    4.6025    4.4387    5.4851 H   0  0  0  0  0  0  0  0  0  0  0  0
    2.5042   10.7087   11.4311 C   0  0  0  0  0  0  0  0  0  0  0  0
    3.3419   10.3481   12.0091 H   0  0  0  0  0  0  0  0  0  0  0  0
    1.1517    7.5681    9.6377 C   0  0  0  0  0  0  0  0  0  0  0  0
    0.2424    7.3885    6.9424 C   0  0  0  0  0  0  0  0  0  0  0  0
    2.5195    5.9037    7.7156 C   0  0  0  0  0  0  0  0  0  0  0  0
    1.4998   11.4494   11.9937 C   0  0  0  0  0  0  0  0  0  0  0  0
    5.9353    7.8122    7.1734 C   0  0  0  0  0  0  0  0  0  0  0  0
    5.8398    7.6573    6.1126 H   0  0  0  0  0  0  0  0  0  0  0  0
    0.4376   11.8932   11.1737 C   0  0  0  0  0  0  0  0  0  0  0  0
   -0.3461   12.4825   11.6295 H   0  0  0  0  0  0  0  0  0  0  0  0
    3.0198    9.3685    5.6723 C   0  0  0  0  0  2  0  0  0  0  0  0
    2.0153    7.2125   10.6741 C   0  0  0  0  0  0  0  0  0  0  0  0
    2.9881    6.7952   10.4434 H   0  0  0  0  0  0  0  0  0  0  0  0
   -0.1707    8.4463    6.1402 C   0  0  0  0  0  0  0  0  0  0  0  0
    0.4146    9.3574    6.1174 H   0  0  0  0  0  0  0  0  0  0  0  0
    0.3681   11.6089    9.8401 C   0  0  0  0  0  0  0  0  0  0  0  0
   -0.4490   11.9594    9.2285 H   0  0  0  0  0  0  0  0  0  0  0  0
    7.0024    7.4572    7.9293 C   0  0  0  0  0  0  0  0  0  0  0  0
    7.9042    6.9694    7.6244 H   0  0  0  0  0  0  0  0  0  0  0  0
   -1.6688    6.1121    6.2488 C   0  0  0  0  0  0  0  0  0  0  0  0
   -2.2527    5.2043    6.2893 H   0  0  0  0  0  0  0  0  0  0  0  0
    1.6355    7.4068   11.9878 C   0  0  0  0  0  0  0  0  0  0  0  0
    2.3071    7.1299   12.7868 H   0  0  0  0  0  0  0  0  0  0  0  0
    3.0687    9.5060    4.5393 O   0  0  0  0  0  1  0  0  0  0  0  0
    2.2974    4.8188    8.5564 C   0  0  0  0  0  0  0  0  0  0  0  0
    1.6477    4.9190    9.4149 H   0  0  0  0  0  0  0  0  0  0  0  0
   -0.4523    8.3369   11.2525 C   0  0  0  0  0  0  0  0  0  0  0  0
   -1.4075    8.7870   11.4780 H   0  0  0  0  0  0  0  0  0  0  0  0
    3.7487    3.4722    7.1955 C   0  0  0  0  0  0  0  0  0  0  0  0
    4.2321    2.5267    7.0001 H   0  0  0  0  0  0  0  0  0  0  0  0
    2.9161    3.6087    8.2938 C   0  0  0  0  0  0  0  0  0  0  0  0
    2.7464    2.7682    8.9508 H   0  0  0  0  0  0  0  0  0  0  0  0
    1.4978   11.8002   13.4498 C   0  0  0  0  0  0  0  0  0  0  0  0
    1.5324   12.8814   13.5794 H   0  0  0  0  0  0  0  0  0  0  0  0
    2.3553   11.3631   13.9539 H   0  0  0  0  0  0  0  0  0  0  0  0
    0.5876   11.4376   13.9265 H   0  0  0  0  0  0  0  0  0  0  0  0
    0.4035    7.9726   12.2779 C   0  0  0  0  0  0  0  0  0  0  0  0
    0.1155    8.1358   13.3055 H   0  0  0  0  0  0  0  0  0  0  0  0
   -0.5111    6.2185    6.9961 C   0  0  0  0  0  0  0  0  0  0  0  0
   -0.1870    5.3968    7.6195 H   0  0  0  0  0  0  0  0  0  0  0  0
    3.3466    5.7581    6.6050 C   0  0  0  0  0  0  0  0  0  0  0  0
    3.4934    6.6126    5.9534 H   0  0  0  0  0  0  0  0  0  0  0  0
  1  3  2  0  0  0  0
  1 33  1  0  0  0  0
  2  1  1  0  0  0  0
  3 39  1  0  0  0  0
  4  3  1  0  0  0  0
  5 12  1  0  0  0  0
  5  6  1  0  0  0  0
  5 15  1  0  0  0  0
  5 11  1  0  0  0  0
  6 22  1  0  0  0  0
  8  5  1  0  0  0  0
  9 46  1  0  0  0  0
 10  9  1  0  0  0  0
 11 13  1  0  0  0  0
 11 14  1  0  0  0  0
 12 16  1  0  0  0  0
 14 20  1  0  0  0  0
 15 17  1  0  0  0  0
 16  7  1  0  0  0  0
 16 13  2  0  0  0  0
 17 35  1  0  0  0  0
 17 14  2  0  0  0  0
 18 60  2  0  0  0  0
 18 48  1  0  0  0  0
 19 18  1  0  0  0  0
 20 25  2  0  0  0  0
 20 21  1  0  0  0  0
 22  9  2  0  0  0  0
 22 31  1  0  0  0  0
 23 58  1  0  0  0  0
 23  6  1  0  0  0  0
 24  6  1  0  0  0  0
 24 44  2  0  0  0  0
 25 52  1  0  0  0  0
 26 12  1  0  0  0  0
 26 37  2  0  0  0  0
 27 26  1  0  0  0  0
 28 29  1  0  0  0  0
 28 25  1  0  0  0  0
 30  5  1  0  0  0  0
 31 41  2  0  0  0  0
 32 31  1  0  0  0  0
 33 23  2  0  0  0  0
 34 33  1  0  0  0  0
 35 28  2  0  0  0  0
 36 35  1  0  0  0  0
 37  7  1  0  0  0  0
 38 37  1  0  0  0  0
 39 40  1  0  0  0  0
 39 58  2  0  0  0  0
 41 56  1  0  0  0  0
 41 42  1  0  0  0  0
 43 30  1  0  0  0  0
 44 45  1  0  0  0  0
 46 47  1  0  0  0  0
 46 56  2  0  0  0  0
 48 50  2  0  0  0  0
 49 48  1  0  0  0  0
 50 44  1  0  0  0  0
 50 51  1  0  0  0  0
 52 53  1  0  0  0  0
 52 55  1  0  0  0  0
 52 54  1  0  0  0  0
 56 57  1  0  0  0  0
 58 59  1  0  0  0  0
 60 24  1  0  0  0  0
 61 60  1  0  0  0  0
M  END
$$$$
