CSD_code = PEBQAO | q = 0 | S = 0 | Stoichiometry = C21H26ClNTi | MND = 11
 OpenBabel04212202083D

 50 53  0  0  1  0  0  0  0  0999 V2000
    3.4693    0.4765    2.9558 Ti  0  0  2  0  0  0  0  0  0  0  0  0
    3.1653   -0.0808    5.0773 Cl  0  0  0  0  0  0  0  0  0  0  0  0
    1.9932    1.5129    2.4925 N   0  0  0  0  0  0  0  0  0  0  0  0
    1.1376    0.4968    2.7902 C   0  0  0  0  0  0  0  0  0  0  0  0
    1.5245   -0.7975    2.5167 C   0  0  0  0  0  0  0  0  0  0  0  0
    2.7281   -0.9866    1.6937 C   0  0  2  0  0  0  0  0  0  0  0  0
    0.7498   -1.9547    3.0883 C   0  0  0  0  0  0  0  0  0  0  0  0
    0.9579   -2.8696    2.5364 H   0  0  0  0  0  0  0  0  0  0  0  0
   -0.3193   -1.7456    3.0419 H   0  0  0  0  0  0  0  0  0  0  0  0
    1.0089   -2.1171    4.1376 H   0  0  0  0  0  0  0  0  0  0  0  0
    1.6088    2.8838    2.7255 C   0  0  0  0  0  0  0  0  0  0  0  0
    2.3998    3.5106    2.2830 H   0  0  0  0  0  0  0  0  0  0  0  0
    1.5387    3.1850    4.2331 C   0  0  0  0  0  0  0  0  0  0  0  0
    2.4892    2.8948    4.6996 H   0  0  0  0  0  0  0  0  0  0  0  0
    0.7476    2.5808    4.6849 H   0  0  0  0  0  0  0  0  0  0  0  0
    1.2458    4.6639    4.4623 C   0  0  0  0  0  0  0  0  0  0  0  0
    1.1832    4.8673    5.5329 H   0  0  0  0  0  0  0  0  0  0  0  0
    2.0623    5.2649    4.0544 H   0  0  0  0  0  0  0  0  0  0  0  0
   -0.0623    5.0580    3.7805 C   0  0  0  0  0  0  0  0  0  0  0  0
   -0.8870    4.5035    4.2340 H   0  0  0  0  0  0  0  0  0  0  0  0
   -0.2534    6.1223    3.9308 H   0  0  0  0  0  0  0  0  0  0  0  0
   -0.0066    4.7488    2.2865 C   0  0  0  0  0  0  0  0  0  0  0  0
    0.7781    5.3495    1.8207 H   0  0  0  0  0  0  0  0  0  0  0  0
   -0.9551    5.0158    1.8161 H   0  0  0  0  0  0  0  0  0  0  0  0
    0.2828    3.2684    2.0546 C   0  0  0  0  0  0  0  0  0  0  0  0
   -0.5308    2.6721    2.4715 H   0  0  0  0  0  0  0  0  0  0  0  0
    0.3454    3.0528    0.9849 H   0  0  0  0  0  0  0  0  0  0  0  0
    3.4264   -2.2672    1.6729 C   0  0  0  0  0  0  0  0  0  0  0  0
    3.7548   -2.9200    2.8705 C   0  0  0  0  0  0  0  0  0  0  0  0
    3.4587   -2.4776    3.8168 H   0  0  0  0  0  0  0  0  0  0  0  0
    4.4670   -4.1023    2.8566 C   0  0  0  0  0  0  0  0  0  0  0  0
    4.7108   -4.5918    3.7888 H   0  0  0  0  0  0  0  0  0  0  0  0
    4.8800   -4.6612    1.6558 C   0  0  0  0  0  0  0  0  0  0  0  0
    5.4391   -5.5849    1.6495 H   0  0  0  0  0  0  0  0  0  0  0  0
    4.5767   -4.0215    0.4656 C   0  0  0  0  0  0  0  0  0  0  0  0
    4.8994   -4.4477   -0.4737 H   0  0  0  0  0  0  0  0  0  0  0  0
    3.8593   -2.8405    0.4724 C   0  0  0  0  0  0  0  0  0  0  0  0
    3.6213   -2.3510   -0.4634 H   0  0  0  0  0  0  0  0  0  0  0  0
    4.8159    1.7447    1.5931 C   0  0  1  0  0  0  0  0  0  0  0  0
    4.5028    2.3017    0.7181 H   0  0  0  0  0  0  0  0  0  0  0  0
    4.9441    2.2605    2.9031 C   0  0  0  0  0  3  0  0  0  0  0  0
    4.7626    3.2841    3.2064 H   0  0  0  0  0  0  0  0  0  0  0  0
    5.5297    1.2609    3.7075 C   0  0  0  0  0  0  0  0  0  0  0  0
    5.8367    1.3766    4.7411 H   0  0  0  0  0  0  0  0  0  0  0  0
    5.7499    0.1235    2.9043 C   0  0  0  0  0  0  0  0  0  0  0  0
    6.2563   -0.7840    3.2131 H   0  0  0  0  0  0  0  0  0  0  0  0
    5.3215    0.4248    1.5945 C   0  0  0  0  0  3  0  0  0  0  0  0
    5.4730   -0.1987    0.7228 H   0  0  0  0  0  0  0  0  0  0  0  0
    0.1945    0.6931    3.3056 H   0  0  0  0  0  0  0  0  0  0  0  0
    2.6407   -0.5046    0.7047 H   0  0  0  0  0  0  0  0  0  0  0  0
  1  2  1  1  0  0  0
  3 11  1  0  0  0  0
  3  4  1  0  0  0  0
  3  1  1  0  0  0  0
  4 49  1  0  0  0  0
  5  4  2  0  0  0  0
  5  7  1  0  0  0  0
  6 50  1  6  0  0  0
  6  5  1  0  0  0  0
  6  1  1  0  0  0  0
  7 10  1  0  0  0  0
  8  7  1  0  0  0  0
  9  7  1  0  0  0  0
 11 13  1  0  0  0  0
 12 11  1  0  0  0  0
 13 16  1  0  0  0  0
 13 15  1  0  0  0  0
 13 14  1  0  0  0  0
 16 17  1  0  0  0  0
 18 16  1  0  0  0  0
 19 21  1  0  0  0  0
 19 20  1  0  0  0  0
 19 16  1  0  0  0  0
 22 19  1  0  0  0  0
 23 22  1  0  0  0  0
 24 22  1  0  0  0  0
 25 22  1  0  0  0  0
 25 26  1  0  0  0  0
 25 11  1  0  0  0  0
 27 25  1  0  0  0  0
 28  6  1  0  0  0  0
 28 29  1  0  0  0  0
 29 30  1  0  0  0  0
 31 29  2  0  0  0  0
 31 32  1  0  0  0  0
 33 31  1  0  0  0  0
 34 33  1  0  0  0  0
 35 37  1  0  0  0  0
 35 33  2  0  0  0  0
 36 35  1  0  0  0  0
 37 28  2  0  0  0  0
 38 37  1  0  0  0  0
 39 40  1  6  0  0  0
 39 47  1  0  0  0  0
 39 41  1  0  0  0  0
 39  1  1  0  0  0  0
 41 42  1  0  0  0  0
 41 43  1  0  0  0  0
 43 44  1  0  0  0  0
 45 46  1  0  0  0  0
 45 43  2  0  0  0  0
 47 45  1  0  0  0  0
 48 47  1  0  0  0  0
M  END
$$$$
