CSD_code = PEBQOC | q = 0 | S = 0 | Stoichiometry = C22H40Cl2N2O2Ti | MND = 6
 OpenBabel04212202083D

 69 71  0  0  0  0  0  0  0  0999 V2000
    4.9681    3.0607    2.2409 Ti  0  0  0  0  0  0  0  0  0  0  0  0
    2.8673    3.0606    3.2068 Cl  0  0  0  0  0  0  0  0  0  0  0  0
    4.0085    3.0614    0.1394 Cl  0  0  0  0  0  0  0  0  0  0  0  0
    4.8665    1.0413    2.1181 O   0  0  0  0  0  0  0  0  0  0  0  0
    5.7995    3.0608    3.9568 N   0  0  0  0  0  0  0  0  0  0  0  0
    6.7448    3.0608    1.5803 N   0  0  0  0  0  0  0  0  0  0  0  0
    7.1584    3.0608    3.8475 C   0  0  0  0  0  0  0  0  0  0  0  0
    7.6601    3.0608    2.5826 C   0  0  0  0  0  0  0  0  0  0  0  0
    5.2561    3.0608    5.3046 C   0  0  0  0  0  0  0  0  0  0  0  0
    5.6468    1.8046    6.1005 C   0  0  0  0  0  0  0  0  0  0  0  0
    4.9646    1.8091    7.4649 C   0  0  0  0  0  0  0  0  0  0  0  0
    5.3438    3.0608    8.2503 C   0  0  0  0  0  0  0  0  0  0  0  0
    7.2438    3.0608    0.2189 C   0  0  0  0  0  0  0  0  0  0  0  0
    8.0670    1.8036   -0.1045 C   0  0  0  0  0  0  0  0  0  0  0  0
    8.4872    1.8087   -1.5707 C   0  0  0  0  0  0  0  0  0  0  0  0
    9.2979    3.0608   -1.8912 C   0  0  0  0  0  0  0  0  0  0  0  0
    5.7647    0.0646    2.6341 C   0  0  0  0  0  0  0  0  0  0  0  0
    4.8961   -1.0361    3.2797 C   0  0  0  0  0  0  0  0  0  0  0  0
    3.4635   -0.5935    2.9554 C   0  0  0  0  0  0  0  0  0  0  0  0
    3.6819    0.3287    1.7614 C   0  0  0  0  0  0  0  0  0  0  0  0
    7.7995    3.0607    4.7224 H   0  0  0  0  0  0  0  0  0  0  0  0
    8.7264    3.0607    2.3849 H   0  0  0  0  0  0  0  0  0  0  0  0
    4.1634    3.0608    5.2083 H   0  0  0  0  0  0  0  0  0  0  0  0
    5.3419    0.9202    5.5355 H   0  0  0  0  0  0  0  0  0  0  0  0
    6.7305    1.7659    6.2351 H   0  0  0  0  0  0  0  0  0  0  0  0
    5.2518    0.9160    8.0252 H   0  0  0  0  0  0  0  0  0  0  0  0
    3.8817    1.7851    7.3248 H   0  0  0  0  0  0  0  0  0  0  0  0
    6.4208    3.0608    8.4366 H   0  0  0  0  0  0  0  0  0  0  0  0
    4.8374    3.0608    9.2177 H   0  0  0  0  0  0  0  0  0  0  0  0
    6.3671    3.0607   -0.4410 H   0  0  0  0  0  0  0  0  0  0  0  0
    8.9548    1.7641    0.5309 H   0  0  0  0  0  0  0  0  0  0  0  0
    7.4579    0.9205    0.1086 H   0  0  0  0  0  0  0  0  0  0  0  0
    9.0773    0.9156   -1.7901 H   0  0  0  0  0  0  0  0  0  0  0  0
    7.5945    1.7857   -2.1996 H   0  0  0  0  0  0  0  0  0  0  0  0
   10.2162    3.0608   -1.2985 H   0  0  0  0  0  0  0  0  0  0  0  0
    9.5808    3.0608   -2.9459 H   0  0  0  0  0  0  0  0  0  0  0  0
    6.3581   -0.3490    1.8046 H   0  0  0  0  0  0  0  0  0  0  0  0
    6.4353    0.5651    3.3387 H   0  0  0  0  0  0  0  0  0  0  0  0
    5.0650   -1.1104    4.3524 H   0  0  0  0  0  0  0  0  0  0  0  0
    5.1159   -2.0060    2.8343 H   0  0  0  0  0  0  0  0  0  0  0  0
    3.0432   -0.0087    3.7762 H   0  0  0  0  0  0  0  0  0  0  0  0
    2.8011   -1.4255    2.7311 H   0  0  0  0  0  0  0  0  0  0  0  0
    3.8653   -0.2399    0.8371 H   0  0  0  0  0  0  0  0  0  0  0  0
    2.8739    1.0459    1.6024 H   0  0  0  0  0  0  0  0  0  0  0  0
    4.8664    5.0800    2.1182 O   0  0  0  0  0  0  0  0  0  0  0  0
    5.7647    6.0568    2.6340 C   0  0  0  0  0  0  0  0  0  0  0  0
    4.8961    7.1576    3.2796 C   0  0  0  0  0  0  0  0  0  0  0  0
    3.4636    6.7150    2.9556 C   0  0  0  0  0  0  0  0  0  0  0  0
    3.6818    5.7927    1.7616 C   0  0  0  0  0  0  0  0  0  0  0  0
    3.8650    6.3612    0.8372 H   0  0  0  0  0  0  0  0  0  0  0  0
    2.8737    5.0755    1.6028 H   0  0  0  0  0  0  0  0  0  0  0  0
    3.0433    6.1303    3.7764 H   0  0  0  0  0  0  0  0  0  0  0  0
    2.8011    7.5471    2.7313 H   0  0  0  0  0  0  0  0  0  0  0  0
    5.0652    7.2321    4.3523 H   0  0  0  0  0  0  0  0  0  0  0  0
    5.1159    8.1275    2.8341 H   0  0  0  0  0  0  0  0  0  0  0  0
    6.3579    6.4703    1.8044 H   0  0  0  0  0  0  0  0  0  0  0  0
    6.4353    5.5564    3.3386 H   0  0  0  0  0  0  0  0  0  0  0  0
    8.4871    4.3128   -1.5707 C   0  0  0  0  0  0  0  0  0  0  0  0
    8.0670    4.3179   -0.1045 C   0  0  0  0  0  0  0  0  0  0  0  0
    8.9548    4.3575    0.5309 H   0  0  0  0  0  0  0  0  0  0  0  0
    7.4578    5.2010    0.1086 H   0  0  0  0  0  0  0  0  0  0  0  0
    9.0773    5.2059   -1.7902 H   0  0  0  0  0  0  0  0  0  0  0  0
    7.5945    4.3358   -2.1996 H   0  0  0  0  0  0  0  0  0  0  0  0
    4.9646    4.3125    7.4649 C   0  0  0  0  0  0  0  0  0  0  0  0
    5.6468    4.3170    6.1004 C   0  0  0  0  0  0  0  0  0  0  0  0
    5.3419    5.2013    5.5354 H   0  0  0  0  0  0  0  0  0  0  0  0
    6.7305    4.3556    6.2350 H   0  0  0  0  0  0  0  0  0  0  0  0
    5.2518    5.2056    8.0252 H   0  0  0  0  0  0  0  0  0  0  0  0
    3.8817    4.3364    7.3248 H   0  0  0  0  0  0  0  0  0  0  0  0
  1  2  1  0  0  0  0
  1  5  1  0  0  0  0
  3  1  1  0  0  0  0
  4 17  1  0  0  0  0
  5  9  1  0  0  0  0
  6  1  1  0  0  0  0
  6  8  1  0  0  0  0
  7  5  1  0  0  0  0
  7 21  1  0  0  0  0
  8  7  2  0  0  0  0
  9 65  1  0  0  0  0
  9 10  1  0  0  0  0
 10 25  1  0  0  0  0
 10 11  1  0  0  0  0
 11 26  1  0  0  0  0
 11 12  1  0  0  0  0
 12 28  1  0  0  0  0
 12 29  1  0  0  0  0
 13  6  1  0  0  0  0
 14 32  1  0  0  0  0
 14 13  1  0  0  0  0
 14 31  1  0  0  0  0
 15 14  1  0  0  0  0
 16 58  1  0  0  0  0
 16 15  1  0  0  0  0
 16 35  1  0  0  0  0
 17 18  1  0  0  0  0
 17 38  1  0  0  0  0
 18 39  1  0  0  0  0
 19 18  1  0  0  0  0
 19 41  1  0  0  0  0
 20  4  1  0  0  0  0
 20 19  1  0  0  0  0
 22  8  1  0  0  0  0
 23  9  1  0  0  0  0
 24 10  1  0  0  0  0
 27 11  1  0  0  0  0
 30 13  1  0  0  0  0
 33 15  1  0  0  0  0
 34 15  1  0  0  0  0
 36 16  1  0  0  0  0
 37 17  1  0  0  0  0
 40 18  1  0  0  0  0
 42 19  1  0  0  0  0
 43 20  1  0  0  0  0
 44 20  1  0  0  0  0
 45 46  1  0  0  0  0
 46 47  1  0  0  0  0
 46 57  1  0  0  0  0
 47 54  1  0  0  0  0
 48 47  1  0  0  0  0
 48 52  1  0  0  0  0
 49 45  1  0  0  0  0
 49 48  1  0  0  0  0
 50 49  1  0  0  0  0
 51 49  1  0  0  0  0
 53 48  1  0  0  0  0
 55 47  1  0  0  0  0
 56 46  1  0  0  0  0
 58 59  1  0  0  0  0
 59 61  1  0  0  0  0
 59 13  1  0  0  0  0
 59 60  1  0  0  0  0
 62 58  1  0  0  0  0
 63 58  1  0  0  0  0
 64 68  1  0  0  0  0
 64 12  1  0  0  0  0
 65 67  1  0  0  0  0
 65 64  1  0  0  0  0
 66 65  1  0  0  0  0
 69 64  1  0  0  0  0
M  END
$$$$
