CSD_code = PEBVEZ | q = 0 | S = 0 | Stoichiometry = C19H38ClN3SiZn | MND = 4
 OpenBabel04212202083D

 63 64  0  0  1  0  0  0  0  0999 V2000
   12.4077    0.7949    2.4704 Zn  0  0  0  0  0  0  0  0  0  0  0  0
   12.9758   -0.8403    1.0125 Cl  0  0  0  0  0  0  0  0  0  0  0  0
   11.4763    3.8322    5.5277 N   0  0  0  0  0  0  0  0  0  0  0  0
   14.4147    1.0361    3.5934 N   0  0  0  0  0  4  0  0  0  0  0  0
   13.2819    2.5040    1.2499 N   0  0  0  0  0  4  0  0  0  0  0  0
    9.7515   -0.2854    4.0361 Si  0  0  0  0  0  0  0  0  0  0  0  0
   10.8438    1.2372    3.6779 C   0  0  2  0  0  0  0  0  0  0  0  0
   11.2705    1.5646    4.6218 H   0  0  0  0  0  0  0  0  0  0  0  0
   10.0704    2.3569    3.0962 C   0  0  0  0  0  0  0  0  0  0  0  0
    9.6601    2.3026    1.7631 C   0  0  0  0  0  0  0  0  0  0  0  0
    9.9407    1.4362    1.1764 H   0  0  0  0  0  0  0  0  0  0  0  0
    8.9318    3.3191    1.1800 C   0  0  0  0  0  0  0  0  0  0  0  0
    8.6320    3.2464    0.1439 H   0  0  0  0  0  0  0  0  0  0  0  0
    8.5914    4.4365    1.9255 C   0  0  0  0  0  0  0  0  0  0  0  0
    8.0284    5.2434    1.4802 H   0  0  0  0  0  0  0  0  0  0  0  0
    8.9772    4.5032    3.2516 C   0  0  0  0  0  0  0  0  0  0  0  0
    8.7006    5.3682    3.8402 H   0  0  0  0  0  0  0  0  0  0  0  0
    9.6994    3.4799    3.8516 C   0  0  0  0  0  0  0  0  0  0  0  0
   10.0488    3.5893    5.3128 C   0  0  0  0  0  0  0  0  0  0  0  0
    9.4465    4.3922    5.7735 H   0  0  0  0  0  0  0  0  0  0  0  0
    9.7921    2.6517    5.8112 H   0  0  0  0  0  0  0  0  0  0  0  0
   11.8319    3.6287    6.9178 C   0  0  0  0  0  0  0  0  0  0  0  0
   12.8984    3.8144    7.0474 H   0  0  0  0  0  0  0  0  0  0  0  0
   11.6216    2.5972    7.1985 H   0  0  0  0  0  0  0  0  0  0  0  0
   11.2810    4.2965    7.5990 H   0  0  0  0  0  0  0  0  0  0  0  0
   11.8377    5.1682    5.0991 C   0  0  0  0  0  0  0  0  0  0  0  0
   11.3669    5.9491    5.7178 H   0  0  0  0  0  0  0  0  0  0  0  0
   11.5223    5.3103    4.0672 H   0  0  0  0  0  0  0  0  0  0  0  0
   12.9200    5.2889    5.1617 H   0  0  0  0  0  0  0  0  0  0  0  0
    8.2831    0.2020    5.1612 C   0  0  0  0  0  0  0  0  0  0  0  0
    8.6079    0.4504    6.1668 H   0  0  0  0  0  0  0  0  0  0  0  0
    7.5682   -0.6104    5.2432 H   0  0  0  0  0  0  0  0  0  0  0  0
    7.7580    1.0635    4.7604 H   0  0  0  0  0  0  0  0  0  0  0  0
    9.0523   -1.0857    2.4541 C   0  0  0  0  0  0  0  0  0  0  0  0
    8.3380   -0.4335    1.9613 H   0  0  0  0  0  0  0  0  0  0  0  0
    8.5439   -2.0184    2.6796 H   0  0  0  0  0  0  0  0  0  0  0  0
    9.8458   -1.3084    1.7468 H   0  0  0  0  0  0  0  0  0  0  0  0
   10.8559   -1.5456    4.9560 C   0  0  0  0  0  0  0  0  0  0  0  0
   11.6914   -1.8489    4.3316 H   0  0  0  0  0  0  0  0  0  0  0  0
   10.2982   -2.4398    5.2128 H   0  0  0  0  0  0  0  0  0  0  0  0
   11.2582   -1.1359    5.8778 H   0  0  0  0  0  0  0  0  0  0  0  0
   15.0556    2.1927    2.9664 C   0  0  0  0  0  0  0  0  0  0  0  0
   14.7180    3.0936    3.4813 H   0  0  0  0  0  0  0  0  0  0  0  0
   16.1492    2.1360    3.0722 H   0  0  0  0  0  0  0  0  0  0  0  0
   14.7124    2.3037    1.4826 C   0  0  0  0  0  0  0  0  0  0  0  0
   14.9967    1.3775    0.9803 H   0  0  0  0  0  0  0  0  0  0  0  0
   15.2948    3.1299    1.0443 H   0  0  0  0  0  0  0  0  0  0  0  0
   14.2239    1.2749    5.0205 C   0  0  0  0  0  0  0  0  0  0  0  0
   13.7482    0.4042    5.4678 H   0  0  0  0  0  0  0  0  0  0  0  0
   13.5722    2.1342    5.1649 H   0  0  0  0  0  0  0  0  0  0  0  0
   15.1803    1.4532    5.5299 H   0  0  0  0  0  0  0  0  0  0  0  0
   15.2248   -0.1633    3.4075 C   0  0  0  0  0  0  0  0  0  0  0  0
   16.2164   -0.0507    3.8659 H   0  0  0  0  0  0  0  0  0  0  0  0
   15.3401   -0.3754    2.3482 H   0  0  0  0  0  0  0  0  0  0  0  0
   14.7193   -1.0135    3.8608 H   0  0  0  0  0  0  0  0  0  0  0  0
   12.8576    3.8317    1.6789 C   0  0  0  0  0  0  0  0  0  0  0  0
   12.9436    3.9250    2.7572 H   0  0  0  0  0  0  0  0  0  0  0  0
   11.8107    3.9737    1.4195 H   0  0  0  0  0  0  0  0  0  0  0  0
   13.4542    4.6173    1.1958 H   0  0  0  0  0  0  0  0  0  0  0  0
   13.0017    2.3505   -0.1754 C   0  0  0  0  0  0  0  0  0  0  0  0
   11.9419    2.5212   -0.3531 H   0  0  0  0  0  0  0  0  0  0  0  0
   13.2445    1.3366   -0.4861 H   0  0  0  0  0  0  0  0  0  0  0  0
   13.5823    3.0630   -0.7753 H   0  0  0  0  0  0  0  0  0  0  0  0
  1  4  1  0  0  0  0
  1  7  1  0  0  0  0
  2  1  1  0  0  0  0
  3 22  1  0  0  0  0
  4 48  1  0  0  0  0
  5 45  1  0  0  0  0
  5 56  1  0  0  0  0
  5  1  1  0  0  0  0
  6 38  1  0  0  0  0
  6 30  1  0  0  0  0
  7  6  1  0  0  0  0
  7  8  1  1  0  0  0
  9  7  1  0  0  0  0
  9 18  1  0  0  0  0
 10  9  2  0  0  0  0
 11 10  1  0  0  0  0
 12 10  1  0  0  0  0
 12 14  2  0  0  0  0
 13 12  1  0  0  0  0
 14 16  1  0  0  0  0
 15 14  1  0  0  0  0
 16 17  1  0  0  0  0
 16 18  2  0  0  0  0
 18 19  1  0  0  0  0
 19  3  1  0  0  0  0
 19 20  1  0  0  0  0
 19 21  1  0  0  0  0
 22 23  1  0  0  0  0
 22 24  1  0  0  0  0
 22 25  1  0  0  0  0
 26 29  1  0  0  0  0
 26  3  1  0  0  0  0
 26 27  1  0  0  0  0
 28 26  1  0  0  0  0
 30 32  1  0  0  0  0
 30 31  1  0  0  0  0
 33 30  1  0  0  0  0
 34 36  1  0  0  0  0
 34  6  1  0  0  0  0
 35 34  1  0  0  0  0
 37 34  1  0  0  0  0
 38 40  1  0  0  0  0
 38 41  1  0  0  0  0
 39 38  1  0  0  0  0
 42 44  1  0  0  0  0
 42 43  1  0  0  0  0
 42  4  1  0  0  0  0
 45 42  1  0  0  0  0
 46 45  1  0  0  0  0
 47 45  1  0  0  0  0
 48 50  1  0  0  0  0
 48 49  1  0  0  0  0
 48 51  1  0  0  0  0
 52  4  1  0  0  0  0
 52 55  1  0  0  0  0
 52 53  1  0  0  0  0
 54 52  1  0  0  0  0
 56 57  1  0  0  0  0
 58 56  1  0  0  0  0
 59 56  1  0  0  0  0
 60  5  1  0  0  0  0
 61 60  1  0  0  0  0
 62 60  1  0  0  0  0
 63 60  1  0  0  0  0
M  END
$$$$
