CSD_code = PEBXAV | q = 0 | S = 0 | Stoichiometry = C7H12Cl4O4Ti | MND = 6
 OpenBabel04212202083D

 28 28  0  0  1  0  0  0  0  0999 V2000
   -0.7113   12.0999    3.3830 Ti  0  0  0  0  0  0  0  0  0  0  0  0
    0.4839   10.3581    3.7489 Cl  0  0  0  0  0  0  0  0  0  0  0  0
    0.6976   13.2552    2.2528 Cl  0  0  0  0  0  0  0  0  0  0  0  0
   -0.3705   13.1035    5.3698 Cl  0  0  0  0  0  0  0  0  0  0  0  0
   -1.9354   11.3026    1.6710 Cl  0  0  0  0  0  0  0  0  0  0  0  0
   -2.3020   11.2675    4.5084 O   0  0  0  0  0  0  0  0  0  0  0  0
   -2.1269   13.6714    3.2626 O   0  0  0  0  0  0  0  0  0  0  0  0
   -4.2029   11.1557    5.6593 O   0  0  0  0  0  0  0  0  0  0  0  0
   -3.9318   14.8896    3.7203 O   0  0  0  0  0  0  0  0  0  0  0  0
   -3.4692   11.5868    4.6733 C   0  0  1  0  0  3  0  0  0  0  0  0
   -3.3116   13.7574    3.5465 C   0  0  2  0  0  3  0  0  0  0  0  0
   -3.5658   10.2746    6.6140 C   0  0  0  0  0  0  0  0  0  0  0  0
   -2.6531   11.0458    7.5533 C   0  0  0  0  0  0  0  0  0  0  0  0
   -3.1431   16.0959    3.5914 C   0  0  0  0  0  0  0  0  0  0  0  0
   -2.2703   16.3189    4.8158 C   0  0  0  0  0  0  0  0  0  0  0  0
   -4.1883   12.5350    3.7339 C   0  0  0  0  0  0  0  0  0  0  0  0
   -2.9992    9.5171    6.0636 H   0  0  0  0  0  0  0  0  0  0  0  0
   -4.3980    9.8132    7.1477 H   0  0  0  0  0  0  0  0  0  0  0  0
   -2.2269   10.3584    8.2777 H   0  0  0  0  0  0  0  0  0  0  0  0
   -1.8397   11.5177    7.0020 H   0  0  0  0  0  0  0  0  0  0  0  0
   -3.2135   11.8128    8.0821 H   0  0  0  0  0  0  0  0  0  0  0  0
   -3.8844   16.8878    3.4738 H   0  0  0  0  0  0  0  0  0  0  0  0
   -2.5273   16.0133    2.6904 H   0  0  0  0  0  0  0  0  0  0  0  0
   -1.5485   15.5101    4.9307 H   0  0  0  0  0  0  0  0  0  0  0  0
   -1.7277   17.2519    4.6984 H   0  0  0  0  0  0  0  0  0  0  0  0
   -2.8818   16.3776    5.7128 H   0  0  0  0  0  0  0  0  0  0  0  0
   -4.2363   12.0321    2.7559 H   0  0  0  0  0  0  0  0  0  0  0  0
   -5.1796   12.7969    4.0994 H   0  0  0  0  0  0  0  0  0  0  0  0
  1  2  1  0  0  0  0
  1  6  1  0  0  0  0
  1  4  1  0  0  0  0
  3  1  1  0  0  0  0
  5  1  1  0  0  0  0
  6 10  1  0  0  0  0
  7  1  1  0  0  0  0
  7 11  1  0  0  0  0
  8 12  1  0  0  0  0
 10  8  1  1  0  0  0
 11  9  1  1  0  0  0
 11 16  1  0  0  0  0
 12 18  1  0  0  0  0
 12 13  1  0  0  0  0
 13 21  1  0  0  0  0
 13 19  1  0  0  0  0
 14  9  1  0  0  0  0
 14 15  1  0  0  0  0
 15 24  1  0  0  0  0
 15 26  1  0  0  0  0
 16 28  1  0  0  0  0
 16 10  1  0  0  0  0
 17 12  1  0  0  0  0
 20 13  1  0  0  0  0
 22 14  1  0  0  0  0
 23 14  1  0  0  0  0
 25 15  1  0  0  0  0
 27 16  1  0  0  0  0
M  END
$$$$
