CSD_code = PEBZUT | q = 0 | S = 0 | Stoichiometry = C11H17Cl4N3OPt | MND = 6
 OpenBabel04212202083D

 37 38  0  0  0  0  0  0  0  0999 V2000
    4.2640    2.4861    2.7036 Pt  0  0  0  0  0  0  0  0  0  0  0  0
    3.7890    0.2660    3.0674 Cl  0  0  0  0  0  0  0  0  0  0  0  0
    2.6939    3.1076    4.2367 Cl  0  0  0  0  0  0  0  0  0  0  0  0
    2.6958    2.5860    0.9241 Cl  0  0  0  0  0  0  0  0  0  0  0  0
    5.9790    2.4468    4.3164 Cl  0  0  0  0  0  0  0  0  0  0  0  0
    5.7418    1.9816    1.2313 N   0  0  0  0  0  4  0  0  0  0  0  0
    6.3100    1.1953    1.5448 H   0  0  0  0  0  0  0  0  0  0  0  0
    5.2241    1.7105    0.3927 H   0  0  0  0  0  0  0  0  0  0  0  0
    4.8805    4.5058    2.2271 N   0  0  0  0  0  4  0  0  0  0  0  0
    5.5336    4.7724    2.9837 H   0  0  0  0  0  0  0  0  0  0  0  0
    2.5435    6.3098    4.1708 N   0  0  0  0  0  0  0  0  0  0  0  0
    1.7307    6.0256    3.6470 H   0  0  0  0  0  0  0  0  0  0  0  0
    4.8031    6.1933    4.3009 O   0  0  0  0  0  0  0  0  0  0  0  0
    6.5380    3.1908    1.0113 C   0  0  0  0  0  0  0  0  0  0  0  0
    7.1207    3.1268    0.0855 H   0  0  0  0  0  0  0  0  0  0  0  0
    7.2209    3.3031    1.8588 H   0  0  0  0  0  0  0  0  0  0  0  0
    5.5941    4.3930    0.9548 C   0  0  0  0  0  0  0  0  0  0  0  0
    4.8491    4.2391    0.1667 H   0  0  0  0  0  0  0  0  0  0  0  0
    6.1601    5.3080    0.7424 H   0  0  0  0  0  0  0  0  0  0  0  0
    3.8193    5.5093    2.2525 C   0  0  0  0  0  0  0  0  0  0  0  0
    2.8768    5.0759    1.9135 H   0  0  0  0  0  0  0  0  0  0  0  0
    4.0799    6.3567    1.6045 H   0  0  0  0  0  0  0  0  0  0  0  0
    3.7591    6.0292    3.6998 C   0  0  0  0  0  0  0  0  0  0  0  0
    2.3217    6.7112    5.5468 C   0  0  0  0  0  0  0  0  0  0  0  0
    3.3124    6.8434    5.9921 H   0  0  0  0  0  0  0  0  0  0  0  0
    1.8034    5.9075    6.0782 H   0  0  0  0  0  0  0  0  0  0  0  0
    1.5357    7.9928    5.6204 C   0  0  0  0  0  0  0  0  0  0  0  0
    1.9671    9.1090    4.9132 C   0  0  0  0  0  0  0  0  0  0  0  0
    2.8695    9.0433    4.3226 H   0  0  0  0  0  0  0  0  0  0  0  0
    1.2551   10.2928    4.9686 C   0  0  0  0  0  0  0  0  0  0  0  0
    1.5991   11.1547    4.4159 H   0  0  0  0  0  0  0  0  0  0  0  0
    0.1048   10.3753    5.7359 C   0  0  0  0  0  0  0  0  0  0  0  0
   -0.4503   11.3003    5.7817 H   0  0  0  0  0  0  0  0  0  0  0  0
   -0.3293    9.2690    6.4450 C   0  0  0  0  0  0  0  0  0  0  0  0
   -1.2248    9.3287    7.0456 H   0  0  0  0  0  0  0  0  0  0  0  0
    0.3808    8.0819    6.3840 C   0  0  0  0  0  0  0  0  0  0  0  0
    0.0382    7.2196    6.9374 H   0  0  0  0  0  0  0  0  0  0  0  0
  1  2  1  0  0  0  0
  1  3  1  0  0  0  0
  1  5  1  0  0  0  0
  4  1  1  0  0  0  0
  6  7  1  0  0  0  0
  6  1  1  0  0  0  0
  8  6  1  0  0  0  0
  9 20  1  0  0  0  0
  9  1  1  0  0  0  0
  9 10  1  0  0  0  0
 11 24  1  0  0  0  0
 12 11  1  0  0  0  0
 14  6  1  0  0  0  0
 14 16  1  0  0  0  0
 15 14  1  0  0  0  0
 17 14  1  0  0  0  0
 17  9  1  0  0  0  0
 18 17  1  0  0  0  0
 19 17  1  0  0  0  0
 20 23  1  0  0  0  0
 21 20  1  0  0  0  0
 22 20  1  0  0  0  0
 23 11  1  0  0  0  0
 23 13  2  0  0  0  0
 24 27  1  0  0  0  0
 24 25  1  0  0  0  0
 24 26  1  0  0  0  0
 27 36  1  0  0  0  0
 28 30  1  0  0  0  0
 28 27  2  0  0  0  0
 29 28  1  0  0  0  0
 30 32  2  0  0  0  0
 31 30  1  0  0  0  0
 32 33  1  0  0  0  0
 32 34  1  0  0  0  0
 34 35  1  0  0  0  0
 36 34  2  0  0  0  0
 36 37  1  0  0  0  0
M  END
$$$$
