CSD_code = PEDGUB | q = 0 | S = 0 | Stoichiometry = C19H11Cl2F4N3Ni | MND = 5
 OpenBabel04212202083D

 40 44  0  0  0  0  0  0  0  0999 V2000
   17.0031    1.4175    2.9652 Ni  0  0  0  0  0  0  0  0  0  0  0  0
   18.7287    1.7154    1.9126 Cl  0  0  0  0  0  0  0  0  0  0  0  0
   14.8557    2.0909   -3.4587 F   0  0  0  0  0  0  0  0  0  0  0  0
   14.1483    5.0916    0.0749 F   0  0  0  0  0  0  0  0  0  0  0  0
   17.0030   -0.6204    2.9652 N   0  0  0  0  0  0  0  0  0  0  0  0
   15.8917    0.8150    1.0315 N   0  0  0  0  0  0  0  0  0  0  0  0
   16.4060   -1.2788    1.9715 C   0  0  0  0  0  0  0  0  0  0  0  0
   16.3888   -2.6741    1.9389 C   0  0  0  0  0  0  0  0  0  0  0  0
   15.9075   -3.1900    1.1229 H   0  0  0  0  0  0  0  0  0  0  0  0
   17.0030   -3.3738    2.9652 C   0  0  0  0  0  0  0  0  0  0  0  0
   17.0030   -4.4531    2.9652 H   0  0  0  0  0  0  0  0  0  0  0  0
   15.7929   -0.4540    0.9414 C   0  0  0  0  0  0  0  0  0  0  0  0
   15.2541   -0.9620    0.1405 H   0  0  0  0  0  0  0  0  0  0  0  0
   15.4048    1.7001    0.0912 C   0  0  0  0  0  0  0  0  0  0  0  0
   15.0142    2.9616    0.5469 C   0  0  0  0  0  0  0  0  0  0  0  0
   15.0728    3.1911    1.6027 H   0  0  0  0  0  0  0  0  0  0  0  0
   14.5432    3.8871   -0.3608 C   0  0  0  0  0  0  0  0  0  0  0  0
   14.4731    3.6198   -1.7196 C   0  0  0  0  0  0  0  0  0  0  0  0
   14.1182    4.3583   -2.4191 H   0  0  0  0  0  0  0  0  0  0  0  0
   14.8959    2.3727   -2.1452 C   0  0  0  0  0  0  0  0  0  0  0  0
   15.3510    1.4029   -1.2738 C   0  0  0  0  0  0  0  0  0  0  0  0
   15.7002    0.4593   -1.6610 H   0  0  0  0  0  0  0  0  0  0  0  0
   15.2771    1.7144    4.0181 Cl  0  0  0  0  0  0  0  0  0  0  0  0
   19.1505    2.0909    9.3891 F   0  0  0  0  0  0  0  0  0  0  0  0
   19.8578    5.0916    5.8555 F   0  0  0  0  0  0  0  0  0  0  0  0
   18.1143    0.8150    4.8989 N   0  0  0  0  0  0  0  0  0  0  0  0
   17.6000   -1.2788    3.9590 C   0  0  0  0  0  0  0  0  0  0  0  0
   17.6172   -2.6741    3.9916 C   0  0  0  0  0  0  0  0  0  0  0  0
   18.0985   -3.1901    4.8075 H   0  0  0  0  0  0  0  0  0  0  0  0
   18.2132   -0.4540    4.9891 C   0  0  0  0  0  3  0  0  0  0  0  0
   18.7519   -0.9620    5.7899 H   0  0  0  0  0  0  0  0  0  0  0  0
   18.6013    1.7000    5.8392 C   0  0  0  0  0  0  0  0  0  0  0  0
   18.9919    2.9616    5.3835 C   0  0  0  0  0  0  0  0  0  0  0  0
   18.9333    3.1910    4.3277 H   0  0  0  0  0  0  0  0  0  0  0  0
   19.4629    3.8870    6.2911 C   0  0  0  0  0  0  0  0  0  0  0  0
   19.5331    3.6198    7.6499 C   0  0  0  0  0  0  0  0  0  0  0  0
   19.8880    4.3583    8.3494 H   0  0  0  0  0  0  0  0  0  0  0  0
   19.1102    2.3727    8.0756 C   0  0  0  0  0  0  0  0  0  0  0  0
   18.6551    1.4029    7.2042 C   0  0  0  0  0  0  0  0  0  0  0  0
   18.3059    0.4593    7.5915 H   0  0  0  0  0  0  0  0  0  0  0  0
  1  5  1  0  0  0  0
  1 23  1  0  0  0  0
  1 26  1  0  0  0  0
  2  1  1  0  0  0  0
  3 20  1  0  0  0  0
  5 27  1  0  0  0  0
  6  1  1  0  0  0  0
  7  5  1  0  0  0  0
  8  7  1  0  0  0  0
  8 10  2  0  0  0  0
  9  8  1  0  0  0  0
 10 28  1  0  0  0  0
 11 10  1  0  0  0  0
 12  6  1  0  0  0  0
 12  7  2  0  0  0  0
 13 12  1  0  0  0  0
 14 15  1  0  0  0  0
 14  6  1  0  0  0  0
 15 16  1  0  0  0  0
 17  4  1  0  0  0  0
 17 15  2  0  0  0  0
 18 17  1  0  0  0  0
 19 18  1  0  0  0  0
 20 18  2  0  0  0  0
 20 21  1  0  0  0  0
 21 14  2  0  0  0  0
 22 21  1  0  0  0  0
 25 35  1  0  0  0  0
 26 30  1  0  0  0  0
 26 32  1  0  0  0  0
 27 28  2  0  0  0  0
 27 30  1  0  0  0  0
 28 29  1  0  0  0  0
 30 31  1  0  0  0  0
 32 39  1  0  0  0  0
 33 32  2  0  0  0  0
 33 35  1  0  0  0  0
 34 33  1  0  0  0  0
 35 36  2  0  0  0  0
 36 38  1  0  0  0  0
 36 37  1  0  0  0  0
 38 24  1  0  0  0  0
 39 40  1  0  0  0  0
 39 38  2  0  0  0  0
M  END
$$$$
