CSD_code = PEDHOW | q = 0 | S = 0 | Stoichiometry = C19H32Cl2NPPd | MND = 4
 OpenBabel04212202083D

 56 57  0  0  1  0  0  0  0  0999 V2000
    4.2923    9.3531    1.8371 Pd  0  0  1  0  0  0  0  0  0  0  0  0
    2.4893    8.4032    0.9545 P   0  0  0  0  0  4  0  0  0  0  0  0
    2.4441    7.0093    0.9892 H   0  0  0  0  0  0  0  0  0  0  0  0
    3.4614   11.4712    1.3634 Cl  0  0  0  0  0  0  0  0  0  0  0  0
    7.4088    6.5266    3.4915 Cl  0  0  0  0  0  0  0  0  0  0  0  0
    5.1561    7.6102    2.4126 C   0  0  0  0  0  0  0  0  0  0  0  0
    6.3875    7.8199    2.8409 C   0  0  2  0  0  3  0  0  0  0  0  0
    7.0720    9.1550    2.7850 C   0  0  0  0  0  0  0  0  0  0  0  0
    7.7228    9.3018    3.6601 H   0  0  0  0  0  0  0  0  0  0  0  0
    7.7039    9.1989    1.8891 H   0  0  0  0  0  0  0  0  0  0  0  0
    6.0501   10.2086    2.7041 N   0  0  0  0  0  4  0  0  0  0  0  0
    5.5519   10.5338    4.0441 C   0  0  0  0  0  0  0  0  0  0  0  0
    5.1878    9.6232    4.5333 H   0  0  0  0  0  0  0  0  0  0  0  0
    4.7315   11.2549    3.9634 H   0  0  0  0  0  0  0  0  0  0  0  0
    6.3477   10.9742    4.6620 H   0  0  0  0  0  0  0  0  0  0  0  0
    6.6063   11.4064    2.0804 C   0  0  0  0  0  0  0  0  0  0  0  0
    7.4712   11.7780    2.6458 H   0  0  0  0  0  0  0  0  0  0  0  0
    5.8465   12.1879    2.0408 H   0  0  0  0  0  0  0  0  0  0  0  0
    6.9165   11.1781    1.0584 H   0  0  0  0  0  0  0  0  0  0  0  0
    4.5112    6.3000    2.4874 C   0  0  0  0  0  0  0  0  0  0  0  0
    4.4963    5.4451    1.3854 C   0  0  0  0  0  0  0  0  0  0  0  0
    5.0041    5.7470    0.4790 H   0  0  0  0  0  0  0  0  0  0  0  0
    3.8598    4.2202    1.4534 C   0  0  0  0  0  0  0  0  0  0  0  0
    3.8623    3.5650    0.5937 H   0  0  0  0  0  0  0  0  0  0  0  0
    3.2222    3.8297    2.6195 C   0  0  0  0  0  0  0  0  0  0  0  0
    2.7225    2.8735    2.6706 H   0  0  0  0  0  0  0  0  0  0  0  0
    3.2372    4.6671    3.7229 C   0  0  0  0  0  0  0  0  0  0  0  0
    2.7520    4.3615    4.6391 H   0  0  0  0  0  0  0  0  0  0  0  0
    3.8770    5.8907    3.6602 C   0  0  0  0  0  0  0  0  0  0  0  0
    3.9026    6.5384    4.5266 H   0  0  0  0  0  0  0  0  0  0  0  0
    0.9173    8.7114    1.9270 C   0  0  0  0  0  0  0  0  0  0  0  0
    0.3039   10.0844    1.6729 C   0  0  0  0  0  0  0  0  0  0  0  0
   -0.2104   10.1167    0.7164 H   0  0  0  0  0  0  0  0  0  0  0  0
    1.0731   10.8543    1.6826 H   0  0  0  0  0  0  0  0  0  0  0  0
   -0.4207   10.3129    2.4532 H   0  0  0  0  0  0  0  0  0  0  0  0
    1.4397    8.6379    3.3689 C   0  0  0  0  0  0  0  0  0  0  0  0
    2.2128    9.4076    3.5251 H   0  0  0  0  0  0  0  0  0  0  0  0
    1.8755    7.6555    3.5628 H   0  0  0  0  0  0  0  0  0  0  0  0
    0.6335    8.8081    4.0806 H   0  0  0  0  0  0  0  0  0  0  0  0
   -0.1058    7.6061    1.6764 C   0  0  0  0  0  0  0  0  0  0  0  0
   -0.9597    7.7392    2.3391 H   0  0  0  0  0  0  0  0  0  0  0  0
    0.3254    6.6241    1.8660 H   0  0  0  0  0  0  0  0  0  0  0  0
   -0.4693    7.6351    0.6516 H   0  0  0  0  0  0  0  0  0  0  0  0
    2.4592    8.6108   -0.9102 C   0  0  0  0  0  0  0  0  0  0  0  0
    3.9562    8.6181   -1.2553 C   0  0  0  0  0  0  0  0  0  0  0  0
    4.1025    8.6903   -2.3321 H   0  0  0  0  0  0  0  0  0  0  0  0
    4.4326    7.7003   -0.8993 H   0  0  0  0  0  0  0  0  0  0  0  0
    4.4478    9.4817   -0.7777 H   0  0  0  0  0  0  0  0  0  0  0  0
    1.8249    9.9264   -1.3499 C   0  0  0  0  0  0  0  0  0  0  0  0
    2.0729   10.1263   -2.3914 H   0  0  0  0  0  0  0  0  0  0  0  0
    2.1986   10.7497   -0.7436 H   0  0  0  0  0  0  0  0  0  0  0  0
    0.7421    9.8878   -1.2631 H   0  0  0  0  0  0  0  0  0  0  0  0
    1.7701    7.4226   -1.5783 C   0  0  0  0  0  0  0  0  0  0  0  0
    0.7174    7.3773   -1.3087 H   0  0  0  0  0  0  0  0  0  0  0  0
    2.2418    6.4854   -1.2872 H   0  0  0  0  0  0  0  0  0  0  0  0
    1.8369    7.5190   -2.6612 H   0  0  0  0  0  0  0  0  0  0  0  0
  1  4  1  1  0  0  0
  1  6  2  0  0  0  0
  1 11  1  0  0  0  0
  2  3  1  0  0  0  0
  2  1  1  0  0  0  0
  2 31  1  0  0  0  0
  6 20  1  0  0  0  0
  6  7  1  0  0  0  0
  7  5  1  6  0  0  0
  8  7  1  0  0  0  0
  8  9  1  0  0  0  0
 10  8  1  0  0  0  0
 11  8  1  0  0  0  0
 11 12  1  0  0  0  0
 12 13  1  0  0  0  0
 12 15  1  0  0  0  0
 14 12  1  0  0  0  0
 16 17  1  0  0  0  0
 16 11  1  0  0  0  0
 18 16  1  0  0  0  0
 19 16  1  0  0  0  0
 20 29  1  0  0  0  0
 21 23  1  0  0  0  0
 21 20  2  0  0  0  0
 22 21  1  0  0  0  0
 23 25  2  0  0  0  0
 24 23  1  0  0  0  0
 25 26  1  0  0  0  0
 25 27  1  0  0  0  0
 27 28  1  0  0  0  0
 29 27  2  0  0  0  0
 29 30  1  0  0  0  0
 31 36  1  0  0  0  0
 32 34  1  0  0  0  0
 32 31  1  0  0  0  0
 32 35  1  0  0  0  0
 33 32  1  0  0  0  0
 36 37  1  0  0  0  0
 36 38  1  0  0  0  0
 36 39  1  0  0  0  0
 40 42  1  0  0  0  0
 40 31  1  0  0  0  0
 40 41  1  0  0  0  0
 43 40  1  0  0  0  0
 44  2  1  0  0  0  0
 45 44  1  0  0  0  0
 45 47  1  0  0  0  0
 45 48  1  0  0  0  0
 46 45  1  0  0  0  0
 49 52  1  0  0  0  0
 49 44  1  0  0  0  0
 49 51  1  0  0  0  0
 50 49  1  0  0  0  0
 53 54  1  0  0  0  0
 53 55  1  0  0  0  0
 53 44  1  0  0  0  0
 56 53  1  0  0  0  0
M  END
$$$$
