CSD_code = PEDKAK | q = 0 | S = 0 | Stoichiometry = C12H12Br2N4O6Zn | MND = 4
 OpenBabel04212202083D

 37 38  0  0  0  0  0  0  0  0999 V2000
    0.9965    2.8555    2.6350 Br  0  0  0  0  0  0  0  0  0  0  0  0
   -1.9001    1.7087   -0.5914 Br  0  0  0  0  0  0  0  0  0  0  0  0
   -0.6544    2.9831    0.9986 Zn  0  0  0  0  0  0  0  0  0  0  0  0
   -1.9248    4.6265    1.0743 O   0  0  0  0  0  0  0  0  0  0  0  0
   -4.4213    5.7590   -4.3400 O   0  0  0  0  0  0  0  0  0  0  0  0
   -6.2377    5.2615   -3.3130 O   0  0  0  0  0  0  0  0  0  0  0  0
    0.6857    3.7581   -0.5549 O   0  0  0  0  0  0  0  0  0  0  0  0
    5.1142   -0.1716   -2.3334 O   0  0  0  0  0  0  0  0  0  0  0  0
    6.2029    1.3263   -1.2481 O   0  0  0  0  0  0  0  0  0  0  0  0
   -2.6594    4.8394    0.0481 N   0  0  0  0  0  0  0  0  0  0  0  0
   -5.0401    5.4230   -3.3550 N   0  0  0  0  0  0  0  0  0  0  0  0
    1.7365    3.0818   -0.8350 N   0  0  0  0  0  0  0  0  0  0  0  0
    5.1813    0.8520   -1.6922 N   0  0  0  0  0  0  0  0  0  0  0  0
   -3.9938    4.7572    0.1636 C   0  0  0  0  0  3  0  0  0  0  0  0
   -4.8606    4.9264   -0.9028 C   0  0  0  0  0  0  0  0  0  0  0  0
   -4.2739    5.2143   -2.1456 C   0  0  0  0  0  0  0  0  0  0  0  0
   -2.8873    5.3063   -2.2466 C   0  0  0  0  0  0  0  0  0  0  0  0
   -2.0985    5.1161   -1.1434 C   0  0  0  0  0  0  0  0  0  0  0  0
   -6.3216    4.7846   -0.6732 C   0  0  0  0  0  0  0  0  0  0  0  0
    1.6628    2.0863   -1.7347 C   0  0  0  0  0  3  0  0  0  0  0  0
    2.7428    1.2878   -2.0696 C   0  0  0  0  0  0  0  0  0  0  0  0
    3.9598    1.5812   -1.4327 C   0  0  0  0  0  0  0  0  0  0  0  0
    4.0206    2.6202   -0.5057 C   0  0  0  0  0  0  0  0  0  0  0  0
    2.9022    3.3568   -0.2173 C   0  0  0  0  0  0  0  0  0  0  0  0
    2.5480    0.1969   -3.0597 C   0  0  0  0  0  0  0  0  0  0  0  0
   -4.3549    4.5169    1.1531 H   0  0  0  0  0  0  0  0  0  0  0  0
   -2.4433    5.5163   -3.2076 H   0  0  0  0  0  0  0  0  0  0  0  0
   -1.0194    5.1388   -1.1670 H   0  0  0  0  0  0  0  0  0  0  0  0
   -6.7123    3.9536   -1.2590 H   0  0  0  0  0  0  0  0  0  0  0  0
   -6.5292    4.6103    0.3784 H   0  0  0  0  0  0  0  0  0  0  0  0
   -6.8553    5.6725   -1.0076 H   0  0  0  0  0  0  0  0  0  0  0  0
    0.6854    1.9229   -2.1677 H   0  0  0  0  0  0  0  0  0  0  0  0
    4.9553    2.8323   -0.0099 H   0  0  0  0  0  0  0  0  0  0  0  0
    2.8851    4.1484    0.5150 H   0  0  0  0  0  0  0  0  0  0  0  0
    1.5410    0.2259   -3.4655 H   0  0  0  0  0  0  0  0  0  0  0  0
    3.2717    0.2714   -3.8694 H   0  0  0  0  0  0  0  0  0  0  0  0
    2.7154   -0.7703   -2.5878 H   0  0  0  0  0  0  0  0  0  0  0  0
  2  3  1  0  0  0  0
  3  4  1  0  0  0  0
  3  1  1  0  0  0  0
  5 11  2  0  0  0  0
  7  3  1  0  0  0  0
  8 13  2  0  0  0  0
 10 14  1  0  0  0  0
 10  4  1  0  0  0  0
 11  6  2  0  0  0  0
 11 16  1  0  0  0  0
 12  7  1  0  0  0  0
 12 24  1  0  0  0  0
 13 22  1  0  0  0  0
 13  9  2  0  0  0  0
 14 26  1  0  0  0  0
 15 19  1  0  0  0  0
 15 14  1  0  0  0  0
 16 15  2  0  0  0  0
 17 16  1  0  0  0  0
 17 18  2  0  0  0  0
 18 10  1  0  0  0  0
 19 30  1  0  0  0  0
 20 12  1  0  0  0  0
 21 20  1  0  0  0  0
 21 22  2  0  0  0  0
 22 23  1  0  0  0  0
 23 24  2  0  0  0  0
 23 33  1  0  0  0  0
 24 34  1  0  0  0  0
 25 37  1  0  0  0  0
 25 21  1  0  0  0  0
 27 17  1  0  0  0  0
 28 18  1  0  0  0  0
 29 19  1  0  0  0  0
 31 19  1  0  0  0  0
 32 20  1  0  0  0  0
 35 25  1  0  0  0  0
 36 25  1  0  0  0  0
M  END
$$$$
