CSD_code = PEDZAZ | q = 1 | S = 0 | Stoichiometry = C28H35ClPRuS4(1+) | MND = 6
 OpenBabel04212202083D

 70 76  0  0  0  0  0  0  0  0999 V2000
    0.6492    2.8875    2.5057 Ru  0  0  0  0  0  0  0  0  0  0  0  0
    0.9860    1.6673    0.4921 Cl  0  0  0  0  0  0  0  0  0  0  0  0
    0.4973    4.1757    4.4531 S   0  0  1  0  0  3  0  0  0  0  0  0
    2.8988    3.6614    2.4334 S   0  0  2  0  0  3  0  0  0  0  0  0
   -0.1819    4.7212    1.1746 S   0  0  1  0  0  3  0  0  0  0  0  0
   -1.6462    2.2476    2.5234 S   0  0  2  0  0  3  0  0  0  0  0  0
    1.3804    0.9826    3.6367 P   0  0  0  0  0  4  0  0  0  0  0  0
    1.5544    5.5937    3.9653 C   0  0  0  0  0  0  0  0  0  0  0  0
    2.9298    5.0732    3.6081 C   0  0  0  0  0  0  0  0  0  0  0  0
    3.2843    4.4322    0.8196 C   0  0  0  0  0  0  0  0  0  0  0  0
    2.3146    5.4573    0.2502 C   0  0  0  0  0  0  0  0  0  0  0  0
    0.9889    4.8680   -0.2184 C   0  0  0  0  0  0  0  0  0  0  0  0
   -1.6722    4.0380    0.3432 C   0  0  0  0  0  0  0  0  0  0  0  0
   -2.0362    2.6285    0.7795 C   0  0  0  0  0  0  0  0  0  0  0  0
   -2.7456    3.4700    3.3533 C   0  0  0  0  0  0  0  0  0  0  0  0
   -2.2337    3.9746    4.6934 C   0  0  0  0  0  0  0  0  0  0  0  0
   -1.1220    5.0112    4.5692 C   0  0  0  0  0  0  0  0  0  0  0  0
    2.7542   -0.0346    3.0049 C   0  0  0  0  0  0  0  0  0  0  0  0
    3.5871    0.3784    1.9734 C   0  0  0  0  0  0  0  0  0  0  0  0
    4.6225   -0.4351    1.5469 C   0  0  0  0  0  0  0  0  0  0  0  0
    4.8364   -1.6619    2.1503 C   0  0  0  0  0  0  0  0  0  0  0  0
    4.0142   -2.0748    3.1873 C   0  0  0  0  0  0  0  0  0  0  0  0
    2.9771   -1.2688    3.6147 C   0  0  0  0  0  0  0  0  0  0  0  0
    0.1050   -0.2914    3.8714 C   0  0  0  0  0  0  0  0  0  0  0  0
   -0.5853   -0.6861    2.7266 C   0  0  0  0  0  0  0  0  0  0  0  0
   -1.5305   -1.6914    2.7938 C   0  0  0  0  0  0  0  0  0  0  0  0
   -1.7930   -2.3129    4.0045 C   0  0  0  0  0  0  0  0  0  0  0  0
   -1.0981   -1.9354    5.1414 C   0  0  0  0  0  0  0  0  0  0  0  0
   -0.1468   -0.9315    5.0806 C   0  0  0  0  0  0  0  0  0  0  0  0
    1.9695    1.4248    5.2967 C   0  0  0  0  0  0  0  0  0  0  0  0
    3.3308    1.5530    5.5531 C   0  0  0  0  0  0  0  0  0  0  0  0
    3.7637    1.9844    6.7948 C   0  0  0  0  0  0  0  0  0  0  0  0
    2.8452    2.2978    7.7833 C   0  0  0  0  0  0  0  0  0  0  0  0
    1.4869    2.1906    7.5269 C   0  0  0  0  0  0  0  0  0  0  0  0
    1.0498    1.7670    6.2864 C   0  0  0  0  0  0  0  0  0  0  0  0
    1.6079    6.2674    4.8213 H   0  0  0  0  0  0  0  0  0  0  0  0
    1.0747    6.0997    3.1255 H   0  0  0  0  0  0  0  0  0  0  0  0
    3.5551    5.8499    3.1711 H   0  0  0  0  0  0  0  0  0  0  0  0
    3.4195    4.6673    4.4951 H   0  0  0  0  0  0  0  0  0  0  0  0
    3.3601    3.5752    0.1478 H   0  0  0  0  0  0  0  0  0  0  0  0
    4.2742    4.8715    0.9455 H   0  0  0  0  0  0  0  0  0  0  0  0
    2.8064    5.9026   -0.6189 H   0  0  0  0  0  0  0  0  0  0  0  0
    2.1370    6.2645    0.9668 H   0  0  0  0  0  0  0  0  0  0  0  0
    0.5125    5.5330   -0.9394 H   0  0  0  0  0  0  0  0  0  0  0  0
    1.1209    3.8685   -0.6393 H   0  0  0  0  0  0  0  0  0  0  0  0
   -1.4655    4.0561   -0.7258 H   0  0  0  0  0  0  0  0  0  0  0  0
   -2.4742    4.7474    0.5567 H   0  0  0  0  0  0  0  0  0  0  0  0
   -3.0992    2.4367    0.6327 H   0  0  0  0  0  0  0  0  0  0  0  0
   -1.4451    1.8935    0.2279 H   0  0  0  0  0  0  0  0  0  0  0  0
   -3.6838    2.9331    3.4936 H   0  0  0  0  0  0  0  0  0  0  0  0
   -2.9067    4.3045    2.6740 H   0  0  0  0  0  0  0  0  0  0  0  0
   -3.0758    4.4307    5.2192 H   0  0  0  0  0  0  0  0  0  0  0  0
   -1.8847    3.1334    5.2976 H   0  0  0  0  0  0  0  0  0  0  0  0
   -1.2581    5.6459    3.6927 H   0  0  0  0  0  0  0  0  0  0  0  0
   -1.0729    5.6303    5.4648 H   0  0  0  0  0  0  0  0  0  0  0  0
    3.4195    1.3311    1.4932 H   0  0  0  0  0  0  0  0  0  0  0  0
    5.2602   -0.1106    0.7385 H   0  0  0  0  0  0  0  0  0  0  0  0
    5.6408   -2.2976    1.8132 H   0  0  0  0  0  0  0  0  0  0  0  0
    4.1795   -3.0303    3.6614 H   0  0  0  0  0  0  0  0  0  0  0  0
    2.3353   -1.5946    4.4208 H   0  0  0  0  0  0  0  0  0  0  0  0
   -0.3615   -0.2076    1.7819 H   0  0  0  0  0  0  0  0  0  0  0  0
   -2.0587   -1.9957    1.9028 H   0  0  0  0  0  0  0  0  0  0  0  0
   -2.5320   -3.0975    4.0603 H   0  0  0  0  0  0  0  0  0  0  0  0
   -1.2905   -2.4298    6.0819 H   0  0  0  0  0  0  0  0  0  0  0  0
    0.4016   -0.6576    5.9704 H   0  0  0  0  0  0  0  0  0  0  0  0
    4.0464    1.3066    4.7807 H   0  0  0  0  0  0  0  0  0  0  0  0
    4.8214    2.0735    6.9922 H   0  0  0  0  0  0  0  0  0  0  0  0
    3.1862    2.6281    8.7524 H   0  0  0  0  0  0  0  0  0  0  0  0
    0.7704    2.4400    8.2953 H   0  0  0  0  0  0  0  0  0  0  0  0
   -0.0091    1.6932    6.0733 H   0  0  0  0  0  0  0  0  0  0  0  0
  1  6  1  0  0  0  0
  1  7  1  0  0  0  0
  1  3  1  0  0  0  0
  2  1  1  0  0  0  0
  3  8  1  6  0  0  0
  3 17  1  0  0  0  0
  4 10  1  6  0  0  0
  4  1  1  0  0  0  0
  4  9  1  0  0  0  0
  5 12  1  6  0  0  0
  5  1  1  0  0  0  0
  6 14  1  6  0  0  0
  6 15  1  0  0  0  0
  7 24  1  0  0  0  0
  7 30  1  0  0  0  0
  8 36  1  0  0  0  0
  9  8  1  0  0  0  0
  9 39  1  0  0  0  0
 10 41  1  0  0  0  0
 11 10  1  0  0  0  0
 11 43  1  0  0  0  0
 12 11  1  0  0  0  0
 13 47  1  0  0  0  0
 13 14  1  0  0  0  0
 13  5  1  0  0  0  0
 15 50  1  0  0  0  0
 15 16  1  0  0  0  0
 16 52  1  0  0  0  0
 16 53  1  0  0  0  0
 17 16  1  0  0  0  0
 17 55  1  0  0  0  0
 18 23  1  0  0  0  0
 18  7  1  0  0  0  0
 19 18  2  0  0  0  0
 20 19  1  0  0  0  0
 20 21  2  0  0  0  0
 21 22  1  0  0  0  0
 22 23  2  0  0  0  0
 22 59  1  0  0  0  0
 23 60  1  0  0  0  0
 24 29  1  0  0  0  0
 25 26  1  0  0  0  0
 25 24  2  0  0  0  0
 26 27  2  0  0  0  0
 27 63  1  0  0  0  0
 27 28  1  0  0  0  0
 28 64  1  0  0  0  0
 29 28  2  0  0  0  0
 29 65  1  0  0  0  0
 30 31  2  0  0  0  0
 30 35  1  0  0  0  0
 31 32  1  0  0  0  0
 32 67  1  0  0  0  0
 32 33  2  0  0  0  0
 33 68  1  0  0  0  0
 34 33  1  0  0  0  0
 34 69  1  0  0  0  0
 35 34  2  0  0  0  0
 37  8  1  0  0  0  0
 38  9  1  0  0  0  0
 40 10  1  0  0  0  0
 42 11  1  0  0  0  0
 44 12  1  0  0  0  0
 45 12  1  0  0  0  0
 46 13  1  0  0  0  0
 48 14  1  0  0  0  0
 49 14  1  0  0  0  0
 51 15  1  0  0  0  0
 54 17  1  0  0  0  0
 56 19  1  0  0  0  0
 57 20  1  0  0  0  0
 58 21  1  0  0  0  0
 61 25  1  0  0  0  0
 62 26  1  0  0  0  0
 66 31  1  0  0  0  0
 70 35  1  0  0  0  0
M  END
$$$$
