CSD_code = PEFSEB | q = 0 | S = 0 | Stoichiometry = C20H14Cl6O4Ti | MND = 6
 OpenBabel04212202083D

 45 48  0  0  1  0  0  0  0  0999 V2000
   -3.0467    5.8745   11.2300 Ti  0  0  0  0  0  0  0  0  0  0  0  0
   -2.4449    6.8728    9.3263 Cl  0  0  0  0  0  0  0  0  0  0  0  0
   -1.6934    1.6255   11.1008 Cl  0  0  0  0  0  0  0  0  0  0  0  0
    0.1688   -0.5675    6.5906 Cl  0  0  0  0  0  0  0  0  0  0  0  0
   -2.5120    4.2046   10.3858 O   0  0  0  0  0  0  0  0  0  0  0  0
   -2.9957    3.7259    9.3173 C   0  0  0  0  0  0  0  0  0  0  0  0
   -2.2277    2.6450    8.6434 C   0  0  0  0  0  0  0  0  0  0  0  0
   -4.2222    4.1227    8.7706 C   0  0  0  0  0  0  0  0  0  0  0  0
   -4.5703    3.6587    7.8629 H   0  0  0  0  0  0  0  0  0  0  0  0
   -0.7446    0.6622    7.3713 C   0  0  0  0  0  0  0  0  0  0  0  0
   -1.5748    1.6546    9.3825 C   0  0  0  0  0  0  0  0  0  0  0  0
   -1.3656    1.6482    6.6159 C   0  0  0  0  0  0  0  0  0  0  0  0
   -1.2672    1.6492    5.5423 H   0  0  0  0  0  0  0  0  0  0  0  0
   -2.1036    2.6241    7.2552 C   0  0  0  0  0  0  0  0  0  0  0  0
   -2.5688    3.4078    6.6786 H   0  0  0  0  0  0  0  0  0  0  0  0
   -0.8468    0.6574    8.7537 C   0  0  0  0  0  0  0  0  0  0  0  0
   -0.3631   -0.1080    9.3385 H   0  0  0  0  0  0  0  0  0  0  0  0
   -6.3647    5.4282    8.8085 C   0  0  0  0  0  0  0  0  0  0  0  0
   -6.8317    4.5824    8.3136 H   0  0  0  0  0  0  0  0  0  0  0  0
   -6.1835    6.2086    8.0694 H   0  0  0  0  0  0  0  0  0  0  0  0
   -7.0192    5.8326    9.5777 H   0  0  0  0  0  0  0  0  0  0  0  0
   -5.0431    5.0544    9.4172 C   0  0  1  0  0  3  0  0  0  0  0  0
   -4.7300    5.5990   10.5192 O   0  0  0  0  0  0  0  0  0  0  0  0
   -3.6463    7.6967   12.2958 Cl  0  0  0  0  0  0  0  0  0  0  0  0
   -5.0036    2.8616   11.8118 Cl  0  0  0  0  0  0  0  0  0  0  0  0
   -5.2717   -0.8570   15.6577 Cl  0  0  0  0  0  0  0  0  0  0  0  0
   -3.4078    4.8346   12.7572 O   0  0  0  0  0  0  0  0  0  0  0  0
   -2.6457    3.9795   13.3029 C   0  0  1  0  0  3  0  0  0  0  0  0
   -3.2929    2.7933   13.9208 C   0  0  0  0  0  0  0  0  0  0  0  0
   -1.2540    4.0948   13.3003 C   0  0  0  0  0  0  0  0  0  0  0  0
   -0.6515    3.3741   13.8275 H   0  0  0  0  0  0  0  0  0  0  0  0
   -4.5157    0.5380   14.9970 C   0  0  0  0  0  0  0  0  0  0  0  0
   -4.3985    2.2097   13.2890 C   0  0  0  0  0  0  0  0  0  0  0  0
   -3.4311    1.1096   15.6495 C   0  0  0  0  0  0  0  0  0  0  0  0
   -3.0690    0.6835   16.5713 H   0  0  0  0  0  0  0  0  0  0  0  0
   -2.8271    2.2245   15.1041 C   0  0  0  0  0  0  0  0  0  0  0  0
   -1.9943    2.6824   15.6143 H   0  0  0  0  0  0  0  0  0  0  0  0
   -5.0014    1.0788   13.8167 C   0  0  0  0  0  0  0  0  0  0  0  0
   -5.8420    0.6328   13.3114 H   0  0  0  0  0  0  0  0  0  0  0  0
    0.8704    5.2666   12.6646 C   0  0  0  0  0  0  0  0  0  0  0  0
    1.3503    4.3411   12.3535 H   0  0  0  0  0  0  0  0  0  0  0  0
    1.1659    5.4742   13.6913 H   0  0  0  0  0  0  0  0  0  0  0  0
    1.1934    6.0817   12.0207 H   0  0  0  0  0  0  0  0  0  0  0  0
   -0.6263    5.1249   12.5790 C   0  0  0  0  0  0  0  0  0  0  0  0
   -1.2593    5.9366   11.8487 O   0  0  0  0  0  0  0  0  0  0  0  0
  1 45  1  0  0  0  0
  1 24  1  0  0  0  0
  1 27  1  0  0  0  0
  2  1  1  0  0  0  0
  4 10  1  0  0  0  0
  5  1  1  0  0  0  0
  6  5  1  0  0  0  0
  7  6  1  0  0  0  0
  7 11  1  0  0  0  0
  8  6  2  0  0  0  0
  8 22  1  0  0  0  0
  9  8  1  0  0  0  0
 10 16  1  0  0  0  0
 11  3  1  0  0  0  0
 12 14  1  0  0  0  0
 12 10  2  0  0  0  0
 13 12  1  0  0  0  0
 14  7  2  0  0  0  0
 15 14  1  0  0  0  0
 16 17  1  0  0  0  0
 16 11  2  0  0  0  0
 18 21  1  0  0  0  0
 19 18  1  0  0  0  0
 20 18  1  0  0  0  0
 22 18  1  1  0  0  0
 22 23  1  0  0  0  0
 23  1  1  0  0  0  0
 25 33  1  0  0  0  0
 27 28  1  0  0  0  0
 28 29  1  6  0  0  0
 29 36  1  0  0  0  0
 30 28  1  0  0  0  0
 30 31  1  0  0  0  0
 32 34  1  0  0  0  0
 32 26  1  0  0  0  0
 33 38  1  0  0  0  0
 33 29  2  0  0  0  0
 34 35  1  0  0  0  0
 36 37  1  0  0  0  0
 36 34  2  0  0  0  0
 38 32  2  0  0  0  0
 39 38  1  0  0  0  0
 40 42  1  0  0  0  0
 41 40  1  0  0  0  0
 43 40  1  0  0  0  0
 44 40  1  0  0  0  0
 44 30  2  0  0  0  0
 45 44  1  0  0  0  0
M  END
$$$$
