CSD_code = PEFSOL | q = 0 | S = 0 | Stoichiometry = C20H16Cl4O4Ti | MND = 6
 OpenBabel04212202083D

 45 48  0  0  1  0  0  0  0  0999 V2000
    9.9877   17.7782    2.7947 Ti  0  0  0  0  0  0  0  0  0  0  0  0
   10.6684   16.2874    1.2985 Cl  0  0  0  0  0  0  0  0  0  0  0  0
   11.9744   11.2375    7.8150 Cl  0  0  0  0  0  0  0  0  0  0  0  0
   10.5145   16.5841    4.2022 O   0  0  0  0  0  0  0  0  0  0  0  0
   11.7978   14.8876    5.1931 C   0  0  0  0  0  0  0  0  0  0  0  0
   11.6899   18.5109    2.8548 O   0  0  0  0  0  0  0  0  0  0  0  0
   11.8999   12.6326    6.8064 C   0  0  0  0  0  0  0  0  0  0  0  0
   11.6817   16.1046    4.3549 C   0  0  2  0  0  3  0  0  0  0  0  0
   12.8344   13.9665    5.0509 C   0  0  0  0  0  0  0  0  0  0  0  0
   13.5866   14.1074    4.2915 H   0  0  0  0  0  0  0  0  0  0  0  0
   12.8323   16.7062    3.8248 C   0  0  0  0  0  0  0  0  0  0  0  0
   13.7969   16.2688    4.0195 H   0  0  0  0  0  0  0  0  0  0  0  0
   12.7758   17.9033    3.1041 C   0  0  0  0  0  0  0  0  0  0  0  0
   10.8015   14.6448    6.1403 C   0  0  0  0  0  0  0  0  0  0  0  0
    9.9903   15.3534    6.2295 H   0  0  0  0  0  0  0  0  0  0  0  0
   12.8851   12.8416    5.8512 C   0  0  0  0  0  0  0  0  0  0  0  0
   13.6818   12.1236    5.7364 H   0  0  0  0  0  0  0  0  0  0  0  0
   10.8514   13.5303    6.9522 C   0  0  0  0  0  0  0  0  0  0  0  0
   10.0860   13.3507    7.6907 H   0  0  0  0  0  0  0  0  0  0  0  0
   14.0480   18.5190    2.5903 C   0  0  0  0  0  0  0  0  0  0  0  0
   14.2928   18.0418    1.6410 H   0  0  0  0  0  0  0  0  0  0  0  0
   14.8745   18.3671    3.2782 H   0  0  0  0  0  0  0  0  0  0  0  0
   13.8919   19.5802    2.4073 H   0  0  0  0  0  0  0  0  0  0  0  0
    9.3041   19.2676    1.2989 Cl  0  0  0  0  0  0  0  0  0  0  0  0
    8.0002   24.3185    7.8149 Cl  0  0  0  0  0  0  0  0  0  0  0  0
    9.4604   18.9720    4.2022 O   0  0  0  0  0  0  0  0  0  0  0  0
    8.1770   20.6683    5.1931 C   0  0  0  0  0  0  0  0  0  0  0  0
    8.2853   17.0456    2.8540 O   0  0  0  0  0  0  0  0  0  0  0  0
    8.0747   22.9234    6.8064 C   0  0  0  0  0  0  0  0  0  0  0  0
    8.2931   19.4514    4.3549 C   0  0  2  0  0  3  0  0  0  0  0  0
    7.1403   21.5894    5.0509 C   0  0  0  0  0  0  0  0  0  0  0  0
    6.3881   21.4485    4.2915 H   0  0  0  0  0  0  0  0  0  0  0  0
    7.1426   18.8498    3.8247 C   0  0  0  0  0  0  0  0  0  0  0  0
    6.1780   19.2869    4.0197 H   0  0  0  0  0  0  0  0  0  0  0  0
    7.1993   17.6531    3.1035 C   0  0  0  0  0  0  0  0  0  0  0  0
    9.1732   20.9112    6.1403 C   0  0  0  0  0  0  0  0  0  0  0  0
    9.9845   20.2027    6.2295 H   0  0  0  0  0  0  0  0  0  0  0  0
    7.0896   22.7143    5.8512 C   0  0  0  0  0  0  0  0  0  0  0  0
    6.2928   23.4324    5.7364 H   0  0  0  0  0  0  0  0  0  0  0  0
    9.1232   22.0257    6.9522 C   0  0  0  0  0  0  0  0  0  0  0  0
    9.8887   22.2054    7.6906 H   0  0  0  0  0  0  0  0  0  0  0  0
    5.9270   17.0371    2.5902 C   0  0  0  0  0  0  0  0  0  0  0  0
    5.6816   17.5144    1.6412 H   0  0  0  0  0  0  0  0  0  0  0  0
    5.1007   17.1884    3.2783 H   0  0  0  0  0  0  0  0  0  0  0  0
    6.0832   15.9760    2.4068 H   0  0  0  0  0  0  0  0  0  0  0  0
  1 28  1  0  0  0  0
  1  6  1  0  0  0  0
  1 26  1  0  0  0  0
  1  4  1  0  0  0  0
  2  1  1  0  0  0  0
  4  8  1  0  0  0  0
  5 14  1  0  0  0  0
  6 13  1  0  0  0  0
  7 18  1  0  0  0  0
  7  3  1  0  0  0  0
  8  5  1  1  0  0  0
  9  5  2  0  0  0  0
  9 16  1  0  0  0  0
 10  9  1  0  0  0  0
 11 12  1  0  0  0  0
 11  8  1  0  0  0  0
 13 11  2  0  0  0  0
 14 15  1  0  0  0  0
 14 18  2  0  0  0  0
 16  7  2  0  0  0  0
 17 16  1  0  0  0  0
 18 19  1  0  0  0  0
 20 13  1  0  0  0  0
 20 22  1  0  0  0  0
 21 20  1  0  0  0  0
 23 20  1  0  0  0  0
 24  1  1  0  0  0  0
 26 30  1  0  0  0  0
 27 36  1  0  0  0  0
 28 35  1  0  0  0  0
 29 40  1  0  0  0  0
 29 25  1  0  0  0  0
 30 27  1  1  0  0  0
 31 27  2  0  0  0  0
 31 38  1  0  0  0  0
 32 31  1  0  0  0  0
 33 34  1  0  0  0  0
 33 30  1  0  0  0  0
 35 33  2  0  0  0  0
 36 37  1  0  0  0  0
 36 40  2  0  0  0  0
 38 29  2  0  0  0  0
 39 38  1  0  0  0  0
 40 41  1  0  0  0  0
 42 35  1  0  0  0  0
 42 44  1  0  0  0  0
 43 42  1  0  0  0  0
 45 42  1  0  0  0  0
M  END
$$$$
