CSD_code = PEFTUS | q = 0 | S = 0 | Stoichiometry = C20H14Br2Cl4O4Ti | MND = 6
 OpenBabel04212202083D

 45 48  0  0  1  0  0  0  0  0999 V2000
    3.8944    2.0297    9.0859 Br  0  0  0  0  0  0  0  0  0  0  0  0
    3.6010    5.6013    8.5182 Br  0  0  0  0  0  0  0  0  0  0  0  0
    2.1603    3.6877    8.8304 Ti  0  0  0  0  0  0  0  0  0  0  0  0
    0.5088    0.6421    4.1257 Cl  0  0  0  0  0  0  0  0  0  0  0  0
    0.2930    6.5481   13.5691 Cl  0  0  0  0  0  0  0  0  0  0  0  0
    2.9516    1.0758   14.8241 Cl  0  0  0  0  0  0  0  0  0  0  0  0
    2.2997    6.4564    2.8701 Cl  0  0  0  0  0  0  0  0  0  0  0  0
    0.5216    4.8494    8.6466 O   0  0  0  0  0  0  0  0  0  0  0  0
    1.9828    3.3718    7.0601 O   0  0  0  0  0  0  0  0  0  0  0  0
    1.9995    3.9822   10.6073 O   0  0  0  0  0  0  0  0  0  0  0  0
    0.7297    2.2881    9.0682 O   0  0  0  0  0  0  0  0  0  0  0  0
    1.0840    2.8626    6.3103 C   0  0  1  0  0  3  0  0  0  0  0  0
   -0.0594    1.8298    8.2032 C   0  0  0  0  0  0  0  0  0  0  0  0
   -0.2846    5.2093    9.5422 C   0  0  0  0  0  0  0  0  0  0  0  0
    1.6432    4.4622    4.5509 C   0  0  0  0  0  0  0  0  0  0  0  0
    1.8790    5.1455    5.3571 H   0  0  0  0  0  0  0  0  0  0  0  0
    1.7747    4.8589    3.2321 C   0  0  0  0  0  0  0  0  0  0  0  0
    0.0352    2.1086    6.8237 C   0  0  0  0  0  0  0  0  0  0  0  0
   -0.7149    1.7086    6.1640 H   0  0  0  0  0  0  0  0  0  0  0  0
    1.3030    4.1216   12.8360 C   0  0  0  0  0  0  0  0  0  0  0  0
    0.9391    2.2828    3.8229 C   0  0  0  0  0  0  0  0  0  0  0  0
    1.9382    2.9181   13.1472 C   0  0  0  0  0  0  0  0  0  0  0  0
    2.2311    2.2571   12.3410 H   0  0  0  0  0  0  0  0  0  0  0  0
    1.2013    3.1755    4.8639 C   0  0  0  0  0  0  0  0  0  0  0  0
    1.0760    4.3825   11.3922 C   0  0  2  0  0  3  0  0  0  0  0  0
    0.9657    4.9917   13.8747 C   0  0  0  0  0  0  0  0  0  0  0  0
    2.1873    2.5740   14.4637 C   0  0  0  0  0  0  0  0  0  0  0  0
    1.8277    3.4352   15.4932 C   0  0  0  0  0  0  0  0  0  0  0  0
    2.0274    3.1659   16.5178 H   0  0  0  0  0  0  0  0  0  0  0  0
   -0.0889    4.9755   10.9192 C   0  0  0  0  0  0  0  0  0  0  0  0
   -0.8562    5.2821   11.6085 H   0  0  0  0  0  0  0  0  0  0  0  0
    1.4898    3.9716    2.2014 C   0  0  0  0  0  0  0  0  0  0  0  0
    1.5980    4.2828    1.1749 H   0  0  0  0  0  0  0  0  0  0  0  0
    1.2308    4.6441   15.1923 C   0  0  0  0  0  0  0  0  0  0  0  0
    0.9713    5.3317   15.9818 H   0  0  0  0  0  0  0  0  0  0  0  0
   -1.1640    0.9148    8.6619 C   0  0  0  0  0  0  0  0  0  0  0  0
   -0.9868   -0.0847    8.2685 H   0  0  0  0  0  0  0  0  0  0  0  0
   -2.1237    1.2595    8.2844 H   0  0  0  0  0  0  0  0  0  0  0  0
   -1.1843    0.8708    9.7484 H   0  0  0  0  0  0  0  0  0  0  0  0
    1.0861    2.6852    2.5024 C   0  0  0  0  0  0  0  0  0  0  0  0
    0.8874    1.9803    1.7106 H   0  0  0  0  0  0  0  0  0  0  0  0
   -1.5259    5.9523    9.1238 C   0  0  0  0  0  0  0  0  0  0  0  0
   -2.4083    5.5036    9.5735 H   0  0  0  0  0  0  0  0  0  0  0  0
   -1.6150    5.9486    8.0398 H   0  0  0  0  0  0  0  0  0  0  0  0
   -1.4576    6.9823    9.4704 H   0  0  0  0  0  0  0  0  0  0  0  0
  2  3  1  0  0  0  0
  3 11  1  0  0  0  0
  3  1  1  0  0  0  0
  3 10  1  0  0  0  0
  5 26  1  0  0  0  0
  7 17  1  0  0  0  0
  8  3  1  0  0  0  0
  8 14  1  0  0  0  0
  9  3  1  0  0  0  0
 10 25  1  0  0  0  0
 12 24  1  1  0  0  0
 12 18  1  0  0  0  0
 12  9  1  0  0  0  0
 13 36  1  0  0  0  0
 13 11  1  0  0  0  0
 14 30  2  0  0  0  0
 15 24  1  0  0  0  0
 15 16  1  0  0  0  0
 17 15  2  0  0  0  0
 18 13  2  0  0  0  0
 19 18  1  0  0  0  0
 20 22  2  0  0  0  0
 20 26  1  0  0  0  0
 21  4  1  0  0  0  0
 21 24  2  0  0  0  0
 22 27  1  0  0  0  0
 23 22  1  0  0  0  0
 25 20  1  6  0  0  0
 26 34  2  0  0  0  0
 27  6  1  0  0  0  0
 27 28  2  0  0  0  0
 28 29  1  0  0  0  0
 30 25  1  0  0  0  0
 30 31  1  0  0  0  0
 32 40  2  0  0  0  0
 32 17  1  0  0  0  0
 33 32  1  0  0  0  0
 34 28  1  0  0  0  0
 34 35  1  0  0  0  0
 36 39  1  0  0  0  0
 37 36  1  0  0  0  0
 38 36  1  0  0  0  0
 40 21  1  0  0  0  0
 41 40  1  0  0  0  0
 42 45  1  0  0  0  0
 42 14  1  0  0  0  0
 42 43  1  0  0  0  0
 44 42  1  0  0  0  0
M  END
$$$$
