CSD_code = PEGDEN | q = 0 | S = 0 | Stoichiometry = C18H18AuClN2S2 | MND = 2
 OpenBabel04212202083D

 42 44  0  0  0  0  0  0  0  0999 V2000
    3.8560    1.1932    8.7183 Au  0  0  0  0  0  0  0  0  0  0  0  0
    3.8021   -1.0261    9.0691 Cl  0  0  0  0  0  0  0  0  0  0  0  0
    3.8917    3.4849    8.4405 S   0  0  0  0  0  0  0  0  0  0  0  0
    3.8656    2.5023    5.5742 S   0  0  0  0  0  0  0  0  0  0  0  0
    4.9244    5.5779    5.6047 N   0  0  0  0  0  0  0  0  0  0  0  0
    2.9086    5.8856    6.4050 N   0  0  0  0  0  0  0  0  0  0  0  0
    3.8993    3.6598    6.7558 C   0  0  0  0  0  0  0  0  0  0  0  0
    3.9171    5.0405    6.2725 C   0  0  0  0  0  3  0  0  0  0  0  0
    4.6325    6.9549    5.2383 C   0  0  0  0  0  0  0  0  0  0  0  0
    4.7217    7.0761    4.1552 H   0  0  0  0  0  0  0  0  0  0  0  0
    5.3467    7.6260    5.7253 H   0  0  0  0  0  0  0  0  0  0  0  0
    3.1965    7.1493    5.7433 C   0  0  0  0  0  0  0  0  0  0  0  0
    3.1051    7.9703    6.4597 H   0  0  0  0  0  0  0  0  0  0  0  0
    2.4811    7.3127    4.9315 H   0  0  0  0  0  0  0  0  0  0  0  0
    6.2471    5.0307    5.4248 C   0  0  0  0  0  0  0  0  0  0  0  0
    6.5419    5.1802    4.3820 H   0  0  0  0  0  0  0  0  0  0  0  0
    6.1977    3.9569    5.6207 H   0  0  0  0  0  0  0  0  0  0  0  0
    7.2371    5.6918    6.3544 C   0  0  0  0  0  0  0  0  0  0  0  0
    7.0351    5.6368    7.7285 C   0  0  0  0  0  0  0  0  0  0  0  0
    6.1793    5.1103    8.1260 H   0  0  0  0  0  0  0  0  0  0  0  0
    7.9306    6.2460    8.5887 C   0  0  0  0  0  0  0  0  0  0  0  0
    7.7682    6.1937    9.6545 H   0  0  0  0  0  0  0  0  0  0  0  0
    9.0351    6.9126    8.0842 C   0  0  0  0  0  0  0  0  0  0  0  0
    9.7365    7.3833    8.7563 H   0  0  0  0  0  0  0  0  0  0  0  0
    9.2407    6.9700    6.7166 C   0  0  0  0  0  0  0  0  0  0  0  0
   10.1016    7.4858    6.3187 H   0  0  0  0  0  0  0  0  0  0  0  0
    8.3417    6.3662    5.8539 C   0  0  0  0  0  0  0  0  0  0  0  0
    8.5054    6.4109    4.7866 H   0  0  0  0  0  0  0  0  0  0  0  0
    1.5891    5.6096    6.9208 C   0  0  0  0  0  0  0  0  0  0  0  0
    1.3255    6.3995    7.6306 H   0  0  0  0  0  0  0  0  0  0  0  0
    1.6285    4.6594    7.4578 H   0  0  0  0  0  0  0  0  0  0  0  0
    0.5749    5.5435    5.8037 C   0  0  0  0  0  0  0  0  0  0  0  0
   -0.4857    6.4368    5.7524 C   0  0  0  0  0  0  0  0  0  0  0  0
   -0.5985    7.1817    6.5273 H   0  0  0  0  0  0  0  0  0  0  0  0
   -1.4066    6.3686    4.7207 C   0  0  0  0  0  0  0  0  0  0  0  0
   -2.2334    7.0624    4.6934 H   0  0  0  0  0  0  0  0  0  0  0  0
   -1.2668    5.4138    3.7284 C   0  0  0  0  0  0  0  0  0  0  0  0
   -1.9851    5.3606    2.9245 H   0  0  0  0  0  0  0  0  0  0  0  0
   -0.2062    4.5236    3.7715 C   0  0  0  0  0  0  0  0  0  0  0  0
   -0.0949    3.7741    3.0030 H   0  0  0  0  0  0  0  0  0  0  0  0
    0.7110    4.5865    4.8048 C   0  0  0  0  0  0  0  0  0  0  0  0
    1.5319    3.8848    4.8396 H   0  0  0  0  0  0  0  0  0  0  0  0
  1  2  1  0  0  0  0
  3  1  1  0  0  0  0
  4  7  2  0  0  0  0
  5  8  1  0  0  0  0
  6 29  1  0  0  0  0
  7  3  1  0  0  0  0
  8  6  1  0  0  0  0
  8  7  1  0  0  0  0
  9  5  1  0  0  0  0
  9 11  1  0  0  0  0
  9 12  1  0  0  0  0
 10  9  1  0  0  0  0
 12  6  1  0  0  0  0
 12 13  1  0  0  0  0
 14 12  1  0  0  0  0
 15  5  1  0  0  0  0
 15 17  1  0  0  0  0
 15 18  1  0  0  0  0
 16 15  1  0  0  0  0
 18 19  1  0  0  0  0
 19 20  1  0  0  0  0
 19 21  2  0  0  0  0
 21 22  1  0  0  0  0
 23 21  1  0  0  0  0
 23 24  1  0  0  0  0
 25 23  2  0  0  0  0
 26 25  1  0  0  0  0
 27 18  2  0  0  0  0
 27 25  1  0  0  0  0
 28 27  1  0  0  0  0
 29 31  1  0  0  0  0
 29 30  1  0  0  0  0
 32 29  1  0  0  0  0
 33 32  1  0  0  0  0
 33 34  1  0  0  0  0
 35 33  2  0  0  0  0
 36 35  1  0  0  0  0
 37 39  2  0  0  0  0
 37 35  1  0  0  0  0
 38 37  1  0  0  0  0
 39 41  1  0  0  0  0
 40 39  1  0  0  0  0
 41 42  1  0  0  0  0
 41 32  2  0  0  0  0
M  END
$$$$
