CSD_code = PEGLIX | q = 0 | S = 0 | Stoichiometry = C27H26Cl3NOP2Ru | MND = 6
 OpenBabel04212202083D

 61 65  0  0  0  0  0  0  0  0999 V2000
   -2.2283   -3.8947   -4.6775 Ru  0  0  0  0  0  0  0  0  0  0  0  0
   -2.9096   -4.2116   -2.4118 Cl  0  0  0  0  0  0  0  0  0  0  0  0
   -3.7612   -5.5643   -5.4216 Cl  0  0  0  0  0  0  0  0  0  0  0  0
   -0.5778   -5.5258   -4.4602 Cl  0  0  0  0  0  0  0  0  0  0  0  0
   -1.4918   -4.0853   -6.8923 P   0  0  0  0  0  4  0  0  0  0  0  0
   -0.4605   -2.6112   -3.8489 P   0  0  0  0  0  4  0  0  0  0  0  0
   -3.9737   -1.6993   -4.9690 O   0  0  0  0  0  1  0  0  0  0  0  0
   -3.2970   -2.6307   -4.8577 N   0  0  0  0  0  2  0  0  0  0  0  0
    0.2883   -3.6861   -7.1166 C   0  0  0  0  0  0  0  0  0  0  0  0
    0.8676   -4.5212   -6.7135 H   0  0  0  0  0  0  0  0  0  0  0  0
    0.4747   -3.6422   -8.1946 H   0  0  0  0  0  0  0  0  0  0  0  0
    0.6886   -2.3795   -6.4270 C   0  0  0  0  0  0  0  0  0  0  0  0
    1.5708   -1.9720   -6.9288 H   0  0  0  0  0  0  0  0  0  0  0  0
   -0.1255   -1.6525   -6.5312 H   0  0  0  0  0  0  0  0  0  0  0  0
    1.0173   -2.5710   -4.9436 C   0  0  0  0  0  0  0  0  0  0  0  0
    1.6557   -1.7609   -4.5757 H   0  0  0  0  0  0  0  0  0  0  0  0
    1.5494   -3.5146   -4.7836 H   0  0  0  0  0  0  0  0  0  0  0  0
   -2.3982   -2.8890   -7.9188 C   0  0  0  0  0  0  0  0  0  0  0  0
   -1.8039   -1.9988   -8.8061 C   0  0  0  0  0  0  0  0  0  0  0  0
   -0.7335   -1.9871   -8.9451 H   0  0  0  0  0  0  0  0  0  0  0  0
   -2.5878   -1.1128   -9.5259 C   0  0  0  0  0  0  0  0  0  0  0  0
   -2.1180   -0.4208  -10.2096 H   0  0  0  0  0  0  0  0  0  0  0  0
   -3.9637   -1.1106   -9.3747 C   0  0  0  0  0  0  0  0  0  0  0  0
   -4.5677   -0.4147   -9.9372 H   0  0  0  0  0  0  0  0  0  0  0  0
   -4.5642   -2.0041   -8.5015 C   0  0  0  0  0  0  0  0  0  0  0  0
   -5.6371   -2.0106   -8.3830 H   0  0  0  0  0  0  0  0  0  0  0  0
   -3.7874   -2.8859   -7.7749 C   0  0  0  0  0  0  0  0  0  0  0  0
   -4.2518   -3.5941   -7.0966 H   0  0  0  0  0  0  0  0  0  0  0  0
   -1.6593   -5.6548   -7.7897 C   0  0  0  0  0  0  0  0  0  0  0  0
   -2.6517   -5.8184   -8.7525 C   0  0  0  0  0  0  0  0  0  0  0  0
   -3.3315   -5.0104   -8.9775 H   0  0  0  0  0  0  0  0  0  0  0  0
   -2.7773   -7.0230   -9.4191 C   0  0  0  0  0  0  0  0  0  0  0  0
   -3.5534   -7.1423  -10.1606 H   0  0  0  0  0  0  0  0  0  0  0  0
   -1.9227   -8.0738   -9.1321 C   0  0  0  0  0  0  0  0  0  0  0  0
   -2.0311   -9.0165   -9.6474 H   0  0  0  0  0  0  0  0  0  0  0  0
   -0.9348   -7.9146   -8.1751 C   0  0  0  0  0  0  0  0  0  0  0  0
   -0.2707   -8.7330   -7.9397 H   0  0  0  0  0  0  0  0  0  0  0  0
   -0.7981   -6.7126   -7.5059 C   0  0  0  0  0  0  0  0  0  0  0  0
   -0.0434   -6.6142   -6.7402 H   0  0  0  0  0  0  0  0  0  0  0  0
   -1.0210   -0.8913   -3.6731 C   0  0  0  0  0  0  0  0  0  0  0  0
   -0.5104    0.2062   -4.3557 C   0  0  0  0  0  0  0  0  0  0  0  0
    0.3086    0.0939   -5.0511 H   0  0  0  0  0  0  0  0  0  0  0  0
   -1.0506    1.4627   -4.1377 C   0  0  0  0  0  0  0  0  0  0  0  0
   -0.6519    2.3137   -4.6707 H   0  0  0  0  0  0  0  0  0  0  0  0
   -2.0939    1.6314   -3.2439 C   0  0  0  0  0  0  0  0  0  0  0  0
   -2.5106    2.6142   -3.0821 H   0  0  0  0  0  0  0  0  0  0  0  0
   -2.6038    0.5395   -2.5580 C   0  0  0  0  0  0  0  0  0  0  0  0
   -3.4175    0.6682   -1.8606 H   0  0  0  0  0  0  0  0  0  0  0  0
   -2.0732   -0.7171   -2.7726 C   0  0  0  0  0  0  0  0  0  0  0  0
   -2.4637   -1.5821   -2.2469 H   0  0  0  0  0  0  0  0  0  0  0  0
    0.3051   -2.9110   -2.2292 C   0  0  0  0  0  0  0  0  0  0  0  0
    1.0259   -1.8569   -1.6674 C   0  0  0  0  0  0  0  0  0  0  0  0
    1.0782   -0.9044   -2.1781 H   0  0  0  0  0  0  0  0  0  0  0  0
    1.6577   -2.0225   -0.4505 C   0  0  0  0  0  0  0  0  0  0  0  0
    2.2113   -1.2020   -0.0180 H   0  0  0  0  0  0  0  0  0  0  0  0
    1.5741   -3.2351    0.2161 C   0  0  0  0  0  0  0  0  0  0  0  0
    2.0633   -3.3595    1.1709 H   0  0  0  0  0  0  0  0  0  0  0  0
    0.8585   -4.2810   -0.3396 C   0  0  0  0  0  0  0  0  0  0  0  0
    0.7865   -5.2246    0.1797 H   0  0  0  0  0  0  0  0  0  0  0  0
    0.2249   -4.1253   -1.5604 C   0  0  0  0  0  0  0  0  0  0  0  0
   -0.3414   -4.9422   -1.9788 H   0  0  0  0  0  0  0  0  0  0  0  0
  1  4  1  0  0  0  0
  1  6  1  0  0  0  0
  1  2  1  0  0  0  0
  3  1  1  0  0  0  0
  5  1  1  0  0  0  0
  6 40  1  0  0  0  0
  6 51  1  0  0  0  0
  7  8  1  0  0  0  0
  8  1  1  0  0  0  0
  9  5  1  0  0  0  0
  9 10  1  0  0  0  0
  9 12  1  0  0  0  0
 11  9  1  0  0  0  0
 12 15  1  0  0  0  0
 13 12  1  0  0  0  0
 14 12  1  0  0  0  0
 15 17  1  0  0  0  0
 15 16  1  0  0  0  0
 15  6  1  0  0  0  0
 18 27  1  0  0  0  0
 18  5  1  0  0  0  0
 19 18  2  0  0  0  0
 20 19  1  0  0  0  0
 21 23  2  0  0  0  0
 21 19  1  0  0  0  0
 22 21  1  0  0  0  0
 23 25  1  0  0  0  0
 24 23  1  0  0  0  0
 25 26  1  0  0  0  0
 25 27  2  0  0  0  0
 27 28  1  0  0  0  0
 29 38  1  0  0  0  0
 29  5  1  0  0  0  0
 30 29  2  0  0  0  0
 31 30  1  0  0  0  0
 32 34  2  0  0  0  0
 32 30  1  0  0  0  0
 33 32  1  0  0  0  0
 34 36  1  0  0  0  0
 35 34  1  0  0  0  0
 36 37  1  0  0  0  0
 36 38  2  0  0  0  0
 38 39  1  0  0  0  0
 40 49  1  0  0  0  0
 41 43  1  0  0  0  0
 41 40  2  0  0  0  0
 42 41  1  0  0  0  0
 43 45  2  0  0  0  0
 44 43  1  0  0  0  0
 45 46  1  0  0  0  0
 45 47  1  0  0  0  0
 47 48  1  0  0  0  0
 49 47  2  0  0  0  0
 49 50  1  0  0  0  0
 51 52  2  0  0  0  0
 51 60  1  0  0  0  0
 52 54  1  0  0  0  0
 53 52  1  0  0  0  0
 54 55  1  0  0  0  0
 54 56  2  0  0  0  0
 56 57  1  0  0  0  0
 58 59  1  0  0  0  0
 58 56  1  0  0  0  0
 60 58  2  0  0  0  0
 61 60  1  0  0  0  0
M  END
$$$$
