CSD_code = PEGTEA | q = 0 | S = 0 | Stoichiometry = C9H18ClCrNO2 | MND = 4
 OpenBabel04212202083D

 32 32  0  0  0  0  0  0  0  0999 V2000
    6.8209   10.8313    6.9367 Cr  0  0  0  0  0  0  0  0  0  0  0  0
    7.8597   12.1130    8.2032 Cl  0  0  0  0  0  0  0  0  0  0  0  0
    7.7918   10.3506    5.8263 O   0  0  0  0  0  1  0  0  0  0  0  0
    6.0755    9.7849    7.8065 O   0  0  0  0  0  1  0  0  0  0  0  0
    5.5692   11.8981    6.1564 N   0  0  0  0  0  0  0  0  0  0  0  0
    4.2132   11.9393    6.7149 C   0  0  0  0  0  0  0  0  0  0  0  0
    3.3530   13.1239    6.2280 C   0  0  0  0  0  0  0  0  0  0  0  0
    3.4469   13.3512    4.7330 C   0  0  0  0  0  0  0  0  0  0  0  0
    4.9050   13.6340    4.4337 C   0  0  0  0  0  0  0  0  0  0  0  0
    5.8412   12.4752    4.8353 C   0  0  0  0  0  0  0  0  0  0  0  0
    4.2970   12.0928    8.2467 C   0  0  0  0  0  0  0  0  0  0  0  0
    3.4914   10.6194    6.3850 C   0  0  0  0  0  0  0  0  0  0  0  0
    7.2632   13.0707    4.8228 C   0  0  0  0  0  0  0  0  0  0  0  0
    5.7567   11.3646    3.7716 C   0  0  0  0  0  0  0  0  0  0  0  0
    3.6848   14.0323    6.7370 H   0  0  0  0  0  0  0  0  0  0  0  0
    2.3225   12.9303    6.5278 H   0  0  0  0  0  0  0  0  0  0  0  0
    3.0898   12.4840    4.1779 H   0  0  0  0  0  0  0  0  0  0  0  0
    2.8324   14.2058    4.4444 H   0  0  0  0  0  0  0  0  0  0  0  0
    5.0532   13.8259    3.3704 H   0  0  0  0  0  0  0  0  0  0  0  0
    5.2020   14.5322    4.9807 H   0  0  0  0  0  0  0  0  0  0  0  0
    4.6573   11.1833    8.7199 H   0  0  0  0  0  0  0  0  0  0  0  0
    3.3069   12.3101    8.6419 H   0  0  0  0  0  0  0  0  0  0  0  0
    4.9621   12.9162    8.5079 H   0  0  0  0  0  0  0  0  0  0  0  0
    2.5575   10.5663    6.9389 H   0  0  0  0  0  0  0  0  0  0  0  0
    4.1183    9.7770    6.6745 H   0  0  0  0  0  0  0  0  0  0  0  0
    3.2727   10.5412    5.3238 H   0  0  0  0  0  0  0  0  0  0  0  0
    8.0218   12.2927    4.8364 H   0  0  0  0  0  0  0  0  0  0  0  0
    7.4075   13.7221    5.6850 H   0  0  0  0  0  0  0  0  0  0  0  0
    7.3994   13.6600    3.9184 H   0  0  0  0  0  0  0  0  0  0  0  0
    6.1359   11.7384    2.8239 H   0  0  0  0  0  0  0  0  0  0  0  0
    4.7335   11.0281    3.6294 H   0  0  0  0  0  0  0  0  0  0  0  0
    6.3636   10.5144    4.0802 H   0  0  0  0  0  0  0  0  0  0  0  0
  1  4  1  0  0  0  0
  1  2  1  0  0  0  0
  3  1  1  0  0  0  0
  5  6  1  0  0  0  0
  5  1  1  0  0  0  0
  6 11  1  0  0  0  0
  7 16  1  0  0  0  0
  7  6  1  0  0  0  0
  7 15  1  0  0  0  0
  8  7  1  0  0  0  0
  9  8  1  0  0  0  0
  9 10  1  0  0  0  0
  9 20  1  0  0  0  0
 10  5  1  0  0  0  0
 11 23  1  0  0  0  0
 11 22  1  0  0  0  0
 11 21  1  0  0  0  0
 12 25  1  0  0  0  0
 12  6  1  0  0  0  0
 12 24  1  0  0  0  0
 13 10  1  0  0  0  0
 13 27  1  0  0  0  0
 13 28  1  0  0  0  0
 14 32  1  0  0  0  0
 14 10  1  0  0  0  0
 17  8  1  0  0  0  0
 18  8  1  0  0  0  0
 19  9  1  0  0  0  0
 26 12  1  0  0  0  0
 29 13  1  0  0  0  0
 30 14  1  0  0  0  0
 31 14  1  0  0  0  0
M  END
$$$$
