CSD_code = PEGZAC | q = 0 | S = 0 | Stoichiometry = C28H30F2NPTi | MND = 8
 OpenBabel04212202083D

 63 66  0  0  1  0  0  0  0  0999 V2000
   -0.3082    0.2620    4.6471 Ti  0  0  0  0  0  0  0  0  0  0  0  0
   -1.5064   -0.8809    5.1943 F   0  0  0  0  0  0  0  0  0  0  0  0
   -1.2353    1.7351    4.5017 F   0  0  0  0  0  0  0  0  0  0  0  0
    0.8247    0.3895    6.1006 N   0  0  0  0  0  2  0  0  0  0  0  0
    0.2344    1.1736    7.3092 P   0  0  0  0  0  4  0  0  0  0  0  0
   -1.3616    0.5493    7.9528 C   0  0  0  0  0  0  0  0  0  0  0  0
   -1.3727   -0.4023    8.9657 C   0  0  0  0  0  0  0  0  0  0  0  0
   -2.5643   -0.9919    9.3494 C   0  0  0  0  0  0  0  0  0  0  0  0
   -3.7439   -0.6458    8.7114 C   0  0  0  0  0  0  0  0  0  0  0  0
   -3.7331    0.2892    7.6873 C   0  0  0  0  0  0  0  0  0  0  0  0
   -2.5458    0.8852    7.3024 C   0  0  0  0  0  0  0  0  0  0  0  0
   -0.0583    2.9545    6.9666 C   0  0  0  0  0  0  0  0  0  0  0  0
   -0.9175    3.7729    7.6878 C   0  0  0  0  0  0  0  0  0  0  0  0
   -1.0580    5.1033    7.3317 C   0  0  0  0  0  0  0  0  0  0  0  0
   -0.3461    5.6177    6.2605 C   0  0  0  0  0  0  0  0  0  0  0  0
    0.5114    4.8021    5.5380 C   0  0  0  0  0  0  0  0  0  0  0  0
    0.6556    3.4737    5.8926 C   0  0  0  0  0  0  0  0  0  0  0  0
    1.3723    1.1678    8.7346 C   0  0  0  0  0  0  0  0  0  0  0  0
    2.5443    0.4388    8.5973 C   0  0  0  0  0  0  0  0  0  0  0  0
    3.4602    0.3934    9.6326 C   0  0  0  0  0  0  0  0  0  0  0  0
    3.2031    1.0820   10.8072 C   0  0  0  0  0  0  0  0  0  0  0  0
    2.0332    1.8130   10.9456 C   0  0  0  0  0  0  0  0  0  0  0  0
    1.1161    1.8587    9.9111 C   0  0  0  0  0  0  0  0  0  0  0  0
   -0.0800   -1.1896    2.8555 C   0  0  0  0  0  0  0  0  0  0  0  0
    1.1526   -1.1148    3.5565 C   0  0  1  0  0  0  0  0  0  0  0  0
    1.6627    0.2115    3.4228 C   0  0  0  0  0  0  0  0  0  0  0  0
    0.7220    0.9607    2.6708 C   0  0  0  0  0  0  0  0  0  0  0  0
   -0.3600    0.0994    2.3341 C   0  0  0  0  0  0  0  0  0  0  0  0
   -0.8697   -2.4494    2.6387 C   0  0  0  0  0  0  0  0  0  0  0  0
    1.8770   -2.2687    4.1890 C   0  0  0  0  0  0  0  0  0  0  0  0
    3.0360    0.6351    3.8662 C   0  0  0  0  0  0  0  0  0  0  0  0
    0.8442    2.3854    2.2050 C   0  0  0  0  0  0  0  0  0  0  0  0
   -1.5444    0.4994    1.5020 C   0  0  0  0  0  0  0  0  0  0  0  0
   -0.4428   -0.6726    9.4502 H   0  0  0  0  0  0  0  0  0  0  0  0
   -2.5722   -1.7279   10.1406 H   0  0  0  0  0  0  0  0  0  0  0  0
   -4.6729   -1.1117    9.0063 H   0  0  0  0  0  0  0  0  0  0  0  0
   -4.6536    0.5487    7.1846 H   0  0  0  0  0  0  0  0  0  0  0  0
   -2.5313    1.6145    6.4997 H   0  0  0  0  0  0  0  0  0  0  0  0
   -1.4888    3.3677    8.5119 H   0  0  0  0  0  0  0  0  0  0  0  0
   -1.7318    5.7402    7.8868 H   0  0  0  0  0  0  0  0  0  0  0  0
   -0.4659    6.6550    5.9836 H   0  0  0  0  0  0  0  0  0  0  0  0
    1.0603    5.2051    4.6989 H   0  0  0  0  0  0  0  0  0  0  0  0
    1.3068    2.8010    5.3388 H   0  0  0  0  0  0  0  0  0  0  0  0
    2.7036   -0.0884    7.6655 H   0  0  0  0  0  0  0  0  0  0  0  0
    4.3720   -0.1767    9.5285 H   0  0  0  0  0  0  0  0  0  0  0  0
    3.9152    1.0494   11.6189 H   0  0  0  0  0  0  0  0  0  0  0  0
    1.8375    2.3475   11.8640 H   0  0  0  0  0  0  0  0  0  0  0  0
    0.2010    2.4236   10.0148 H   0  0  0  0  0  0  0  0  0  0  0  0
   -0.2437   -3.2032    2.1568 H   0  0  0  0  0  0  0  0  0  0  0  0
   -1.2277   -2.8596    3.5854 H   0  0  0  0  0  0  0  0  0  0  0  0
   -1.7302   -2.2624    1.9996 H   0  0  0  0  0  0  0  0  0  0  0  0
    2.5478   -2.7425    3.4664 H   0  0  0  0  0  0  0  0  0  0  0  0
    2.4710   -1.9270    5.0363 H   0  0  0  0  0  0  0  0  0  0  0  0
    1.1695   -3.0189    4.5417 H   0  0  0  0  0  0  0  0  0  0  0  0
    3.7855   -0.0352    3.4410 H   0  0  0  0  0  0  0  0  0  0  0  0
    3.2607    1.6482    3.5378 H   0  0  0  0  0  0  0  0  0  0  0  0
    3.1216    0.5985    4.9544 H   0  0  0  0  0  0  0  0  0  0  0  0
    0.7623    2.4322    1.1172 H   0  0  0  0  0  0  0  0  0  0  0  0
    0.0524    3.0063    2.6314 H   0  0  0  0  0  0  0  0  0  0  0  0
    1.8036    2.8114    2.4928 H   0  0  0  0  0  0  0  0  0  0  0  0
   -1.3105    0.4248    0.4363 H   0  0  0  0  0  0  0  0  0  0  0  0
   -2.4019   -0.1404    1.7099 H   0  0  0  0  0  0  0  0  0  0  0  0
   -1.8278    1.5305    1.7158 H   0  0  0  0  0  0  0  0  0  0  0  0
  1  2  1  0  0  0  0
  1  4  1  0  0  0  0
  3  1  1  0  0  0  0
  4  5  1  0  0  0  0
  5  6  1  0  0  0  0
  5 18  1  0  0  0  0
  6  7  1  0  0  0  0
  7  8  2  0  0  0  0
  7 34  1  0  0  0  0
  8 35  1  0  0  0  0
  9 36  1  0  0  0  0
  9  8  1  0  0  0  0
 10  9  2  0  0  0  0
 11 10  1  0  0  0  0
 11  6  2  0  0  0  0
 12  5  1  0  0  0  0
 12 13  1  0  0  0  0
 13 39  1  0  0  0  0
 14 13  2  0  0  0  0
 14 40  1  0  0  0  0
 15 14  1  0  0  0  0
 16 17  1  0  0  0  0
 16 15  2  0  0  0  0
 17 12  2  0  0  0  0
 18 23  1  0  0  0  0
 19 18  2  0  0  0  0
 19 20  1  0  0  0  0
 20 21  2  0  0  0  0
 21 22  1  0  0  0  0
 21 46  1  0  0  0  0
 22 47  1  0  0  0  0
 23 48  1  0  0  0  0
 23 22  2  0  0  0  0
 24 25  1  0  0  0  0
 25 30  1  1  0  0  0
 25  1  1  0  0  0  0
 26 25  1  0  0  0  0
 26 31  1  0  0  0  0
 27 26  2  0  0  0  0
 28 27  1  0  0  0  0
 28 24  2  0  0  0  0
 29 24  1  0  0  0  0
 29 50  1  0  0  0  0
 30 54  1  0  0  0  0
 30 53  1  0  0  0  0
 31 57  1  0  0  0  0
 32 60  1  0  0  0  0
 32 59  1  0  0  0  0
 32 27  1  0  0  0  0
 33 62  1  0  0  0  0
 33 63  1  0  0  0  0
 33 28  1  0  0  0  0
 37 10  1  0  0  0  0
 38 11  1  0  0  0  0
 41 15  1  0  0  0  0
 42 16  1  0  0  0  0
 43 17  1  0  0  0  0
 44 19  1  0  0  0  0
 45 20  1  0  0  0  0
 49 29  1  0  0  0  0
 51 29  1  0  0  0  0
 52 30  1  0  0  0  0
 55 31  1  0  0  0  0
 56 31  1  0  0  0  0
 58 32  1  0  0  0  0
 61 33  1  0  0  0  0
M  END
$$$$
