CSD_code = PEJWAD | q = 0 | S = 0 | Stoichiometry = C23H25ClNO3PPd | MND = 4
 OpenBabel04212202083D

 55 58  0  0  1  0  0  0  0  0999 V2000
    3.2898    1.9992   10.8304 Pd  0  0  2  0  0  0  0  0  0  0  0  0
    4.9278    2.2422   12.3539 Cl  0  0  0  0  0  0  0  0  0  0  0  0
    1.6981    1.6297    9.2757 P   0  0  0  0  0  4  0  0  0  0  0  0
    1.9658    1.8504    7.4949 C   0  0  0  0  0  0  0  0  0  0  0  0
    1.9258    0.8233    6.5612 C   0  0  0  0  0  0  0  0  0  0  0  0
    2.2425    1.0869    5.2393 C   0  0  0  0  0  0  0  0  0  0  0  0
    2.6081    2.3638    4.8484 C   0  0  0  0  0  0  0  0  0  0  0  0
    2.6681    3.3877    5.7824 C   0  0  0  0  0  0  0  0  0  0  0  0
    2.3550    3.1305    7.1021 C   0  0  0  0  0  0  0  0  0  0  0  0
    1.2057   -0.1082    9.4976 C   0  0  0  0  0  0  0  0  0  0  0  0
    0.0260   -0.6532    9.0000 C   0  0  0  0  0  0  0  0  0  0  0  0
   -0.2904   -1.9733    9.2657 C   0  0  0  0  0  0  0  0  0  0  0  0
    0.5663   -2.7556   10.0238 C   0  0  0  0  0  0  0  0  0  0  0  0
    1.7515   -2.2237   10.5064 C   0  0  0  0  0  0  0  0  0  0  0  0
    2.0736   -0.9040   10.2448 C   0  0  0  0  0  0  0  0  0  0  0  0
    1.6436    1.7493   12.3407 N   0  0  0  0  0  0  0  0  0  0  0  0
    0.3835    2.0337   12.0094 C   0  0  2  0  0  3  0  0  0  0  0  0
   -0.6833    1.3020   12.5144 C   0  0  0  0  0  0  0  0  0  0  0  0
   -0.4282    0.2527   13.3821 C   0  0  0  0  0  0  0  0  0  0  0  0
    0.8849   -0.0264   13.7280 C   0  0  0  0  0  0  0  0  0  0  0  0
    1.8936    0.7507   13.1823 C   0  0  0  0  0  0  0  0  0  0  0  0
    4.6968    2.0011    9.5207 C   0  0  0  0  0  0  0  0  0  0  0  0
    5.9461    3.4509    8.1461 C   0  0  0  0  0  0  0  0  0  0  0  0
    5.9178    4.9176    7.7441 C   0  0  0  0  0  0  0  0  0  0  0  0
    6.5586    5.7951    8.8245 C   0  0  0  0  0  0  0  0  0  0  0  0
    0.1996    3.1514   11.0216 C   0  0  0  0  0  0  0  0  0  0  0  0
    0.1384    2.5891    9.5930 C   0  0  0  0  0  0  0  0  0  0  0  0
    5.1829    1.0088    9.0476 O   0  0  0  0  0  0  0  0  0  0  0  0
    4.9517    3.2510    9.1661 O   0  0  0  0  0  0  0  0  0  0  0  0
    7.9453    5.5926    8.9326 O   0  0  0  0  0  0  0  0  0  0  0  0
   -1.6944    1.5530   12.2311 H   0  0  0  0  0  0  0  0  0  0  0  0
   -1.2412   -0.3333   13.7843 H   0  0  0  0  0  0  0  0  0  0  0  0
    1.1229   -0.8285   14.4080 H   0  0  0  0  0  0  0  0  0  0  0  0
    2.9409    0.5920   13.4290 H   0  0  0  0  0  0  0  0  0  0  0  0
   -0.6392   -0.0493    8.3974 H   0  0  0  0  0  0  0  0  0  0  0  0
   -1.2072   -2.3942    8.8791 H   0  0  0  0  0  0  0  0  0  0  0  0
    0.3113   -3.7839   10.2323 H   0  0  0  0  0  0  0  0  0  0  0  0
    2.4237   -2.8380   11.0862 H   0  0  0  0  0  0  0  0  0  0  0  0
    3.0172   -0.4771   10.6095 H   0  0  0  0  0  0  0  0  0  0  0  0
    1.6579   -0.1772    6.8689 H   0  0  0  0  0  0  0  0  0  0  0  0
    2.2115    0.2885    4.5125 H   0  0  0  0  0  0  0  0  0  0  0  0
    2.8596    2.5608    3.8169 H   0  0  0  0  0  0  0  0  0  0  0  0
    2.9700    4.3795    5.4785 H   0  0  0  0  0  0  0  0  0  0  0  0
    2.4287    3.9095    7.8538 H   0  0  0  0  0  0  0  0  0  0  0  0
   -0.7081    3.7165   11.2433 H   0  0  0  0  0  0  0  0  0  0  0  0
    1.0719    3.8177   11.0992 H   0  0  0  0  0  0  0  0  0  0  0  0
   -0.7376    1.9478    9.4701 H   0  0  0  0  0  0  0  0  0  0  0  0
    0.0791    3.4093    8.8724 H   0  0  0  0  0  0  0  0  0  0  0  0
    6.9269    3.1804    8.5512 H   0  0  0  0  0  0  0  0  0  0  0  0
    5.7105    2.7904    7.3031 H   0  0  0  0  0  0  0  0  0  0  0  0
    6.4575    5.0388    6.8011 H   0  0  0  0  0  0  0  0  0  0  0  0
    4.8829    5.2267    7.5949 H   0  0  0  0  0  0  0  0  0  0  0  0
    6.1446    5.5324    9.8000 H   0  0  0  0  0  0  0  0  0  0  0  0
    6.3390    6.8535    8.6190 H   0  0  0  0  0  0  0  0  0  0  0  0
    8.3601    5.7952    8.0863 H   0  0  0  0  0  0  0  0  0  0  0  0
  1 16  1  0  0  0  0
  1  2  1  6  0  0  0
  3 10  1  0  0  0  0
  3 27  1  0  0  0  0
  3  1  1  0  0  0  0
  4  3  1  0  0  0  0
  5 40  1  0  0  0  0
  5  4  2  0  0  0  0
  6  5  1  0  0  0  0
  7  6  2  0  0  0  0
  7  8  1  0  0  0  0
  8  9  2  0  0  0  0
  9  4  1  0  0  0  0
  9 44  1  0  0  0  0
 10 15  1  0  0  0  0
 11 12  1  0  0  0  0
 11 10  2  0  0  0  0
 12 13  2  0  0  0  0
 13 37  1  0  0  0  0
 13 14  1  0  0  0  0
 14 38  1  0  0  0  0
 15 14  2  0  0  0  0
 15 39  1  0  0  0  0
 16 21  1  0  0  0  0
 17 16  1  0  0  0  0
 17 18  1  6  0  0  0
 18 19  2  0  0  0  0
 19 20  1  0  0  0  0
 19 32  1  0  0  0  0
 20 33  1  0  0  0  0
 21 34  1  0  0  0  0
 21 20  2  0  0  0  0
 22  1  1  0  0  0  0
 23 49  1  0  0  0  0
 23 29  1  0  0  0  0
 24 23  1  0  0  0  0
 24 25  1  0  0  0  0
 25 30  1  0  0  0  0
 25 53  1  0  0  0  0
 26 46  1  0  0  0  0
 26 45  1  0  0  0  0
 26 17  1  0  0  0  0
 27 26  1  0  0  0  0
 28 22  2  0  0  0  0
 29 22  1  0  0  0  0
 31 18  1  0  0  0  0
 35 11  1  0  0  0  0
 36 12  1  0  0  0  0
 41  6  1  0  0  0  0
 42  7  1  0  0  0  0
 43  8  1  0  0  0  0
 47 27  1  0  0  0  0
 48 27  1  0  0  0  0
 50 23  1  0  0  0  0
 51 24  1  0  0  0  0
 52 24  1  0  0  0  0
 54 25  1  0  0  0  0
 55 30  1  0  0  0  0
M  END
$$$$
