CSD_code = PEKHUJ | q = 0 | S = 0 | Stoichiometry = C36H24Cl2P2Pd | MND = 4
 OpenBabel04212202083D

 65 73  0  0  0  0  0  0  0  0999 V2000
   10.7264    7.3479    3.8565 Pd  0  0  0  0  0  0  0  0  0  0  0  0
   11.7777    9.3448    4.0302 Cl  0  0  0  0  0  0  0  0  0  0  0  0
   12.6788    6.2103    3.7662 Cl  0  0  0  0  0  0  0  0  0  0  0  0
    8.8877    8.6400    3.7995 P   0  0  1  0  0  4  0  0  0  0  0  0
    9.6271    5.4107    3.6689 P   0  0  1  0  0  4  0  0  0  0  0  0
    6.6629    8.5662    5.2597 C   0  0  0  0  0  0  0  0  0  0  0  0
    7.2658    7.9154    4.1675 C   0  0  0  0  0  0  0  0  0  0  0  0
    6.6387    6.8396    3.5511 C   0  0  0  0  0  0  0  0  0  0  0  0
    5.4212    6.3993    4.0687 C   0  0  0  0  0  0  0  0  0  0  0  0
    4.9222    5.5671    3.5934 H   0  0  0  0  0  0  0  0  0  0  0  0
    4.8593    6.9977    5.1826 C   0  0  0  0  0  0  0  0  0  0  0  0
    3.9279    6.6202    5.5778 H   0  0  0  0  0  0  0  0  0  0  0  0
    5.4672    8.0897    5.7767 C   0  0  0  0  0  0  0  0  0  0  0  0
    5.0086    8.5698    6.6276 H   0  0  0  0  0  0  0  0  0  0  0  0
    7.3834    9.7606    5.6796 C   0  0  0  0  0  0  0  0  0  0  0  0
    8.5478   10.0073    4.9279 C   0  0  0  0  0  0  0  0  0  0  0  0
    9.3097   11.1429    5.1458 C   0  0  0  0  0  0  0  0  0  0  0  0
   10.2075   11.3069    4.5701 H   0  0  0  0  0  0  0  0  0  0  0  0
    8.9087   12.0405    6.1228 C   0  0  0  0  0  0  0  0  0  0  0  0
    9.4907   12.9323    6.2994 H   0  0  0  0  0  0  0  0  0  0  0  0
    7.7717   11.7977    6.8793 C   0  0  0  0  0  0  0  0  0  0  0  0
    7.4773   12.5009    7.6446 H   0  0  0  0  0  0  0  0  0  0  0  0
    7.0061   10.6643    6.6628 C   0  0  0  0  0  0  0  0  0  0  0  0
    6.1197   10.4888    7.2543 H   0  0  0  0  0  0  0  0  0  0  0  0
    8.7378    9.2142    2.0853 C   0  0  0  0  0  0  0  0  0  0  0  0
    9.6299    8.7083    1.1428 C   0  0  0  0  0  0  0  0  0  0  0  0
   10.4424    8.0364    1.4585 H   0  0  0  0  0  0  0  0  0  0  0  0
    9.5000    9.0711   -0.1857 C   0  0  0  0  0  0  0  0  0  0  0  0
   10.1899    8.6837   -0.9205 H   0  0  0  0  0  0  0  0  0  0  0  0
    8.4876    9.9351   -0.5715 C   0  0  0  0  0  0  0  0  0  0  0  0
    8.3893   10.2184   -1.6090 H   0  0  0  0  0  0  0  0  0  0  0  0
    7.6039   10.4432    0.3682 C   0  0  0  0  0  0  0  0  0  0  0  0
    6.8209   11.1214    0.0623 H   0  0  0  0  0  0  0  0  0  0  0  0
    7.7230   10.0829    1.6974 C   0  0  0  0  0  0  0  0  0  0  0  0
    7.0391   10.4710    2.4404 H   0  0  0  0  0  0  0  0  0  0  0  0
    8.7033    4.5517    1.3412 C   0  0  0  0  0  0  0  0  0  0  0  0
    8.3399    5.4003    2.4044 C   0  0  0  0  0  0  0  0  0  0  0  0
    7.1677    6.1464    2.3596 C   0  0  0  0  0  0  0  0  0  0  0  0
    6.4074    6.1028    1.1930 C   0  0  0  0  0  0  0  0  0  0  0  0
    5.4938    6.6771    1.1407 H   0  0  0  0  0  0  0  0  0  0  0  0
    6.8118    5.3429    0.1078 C   0  0  0  0  0  0  0  0  0  0  0  0
    6.2195    5.3490   -0.7951 H   0  0  0  0  0  0  0  0  0  0  0  0
    7.9393    4.5420    0.1831 C   0  0  0  0  0  0  0  0  0  0  0  0
    8.2156    3.9135   -0.6497 H   0  0  0  0  0  0  0  0  0  0  0  0
    9.8511    3.7085    1.6569 C   0  0  0  0  0  0  0  0  0  0  0  0
   10.3832    3.9489    2.9380 C   0  0  0  0  0  0  0  0  0  0  0  0
   11.4467    3.2107    3.4265 C   0  0  0  0  0  0  0  0  0  0  0  0
   11.8592    3.4317    4.3994 H   0  0  0  0  0  0  0  0  0  0  0  0
   11.9735    2.2011    2.6371 C   0  0  0  0  0  0  0  0  0  0  0  0
   12.7990    1.6098    3.0036 H   0  0  0  0  0  0  0  0  0  0  0  0
   11.4584    1.9564    1.3724 C   0  0  0  0  0  0  0  0  0  0  0  0
   11.8891    1.1753    0.7631 H   0  0  0  0  0  0  0  0  0  0  0  0
   10.4022    2.7028    0.8763 C   0  0  0  0  0  0  0  0  0  0  0  0
   10.0147    2.5037   -0.1119 H   0  0  0  0  0  0  0  0  0  0  0  0
    8.8290    5.0358    5.2528 C   0  0  0  0  0  0  0  0  0  0  0  0
    9.1809    5.8316    6.3409 C   0  0  0  0  0  0  0  0  0  0  0  0
    9.9717    6.5873    6.2262 H   0  0  0  0  0  0  0  0  0  0  0  0
    8.5372    5.6599    7.5526 C   0  0  0  0  0  0  0  0  0  0  0  0
    8.8029    6.2759    8.3986 H   0  0  0  0  0  0  0  0  0  0  0  0
    7.5463    4.6987    7.6761 C   0  0  0  0  0  0  0  0  0  0  0  0
    7.0385    4.5695    8.6203 H   0  0  0  0  0  0  0  0  0  0  0  0
    7.2040    3.9000    6.5957 C   0  0  0  0  0  0  0  0  0  0  0  0
    6.4336    3.1506    6.7016 H   0  0  0  0  0  0  0  0  0  0  0  0
    7.8427    4.0645    5.3808 C   0  0  0  0  0  0  0  0  0  0  0  0
    7.5808    3.4529    4.5282 H   0  0  0  0  0  0  0  0  0  0  0  0
  1  2  1  0  0  0  0
  3  1  1  0  0  0  0
  4 25  1  6  0  0  0
  4  1  1  0  0  0  0
  4  7  1  0  0  0  0
  4 16  1  0  0  0  0
  5  1  1  0  0  0  0
  5 55  1  1  0  0  0
  6 15  1  0  0  0  0
  6 13  1  0  0  0  0
  7  6  2  0  0  0  0
  8  9  2  0  0  0  0
  8  7  1  0  0  0  0
  9 11  1  0  0  0  0
 10  9  1  0  0  0  0
 11 12  1  0  0  0  0
 11 13  2  0  0  0  0
 13 14  1  0  0  0  0
 15 23  1  0  0  0  0
 16 17  1  0  0  0  0
 16 15  2  0  0  0  0
 17 19  2  0  0  0  0
 18 17  1  0  0  0  0
 19 20  1  0  0  0  0
 19 21  1  0  0  0  0
 21 22  1  0  0  0  0
 23 21  2  0  0  0  0
 23 24  1  0  0  0  0
 26 27  1  0  0  0  0
 26 25  2  0  0  0  0
 28 26  1  0  0  0  0
 29 28  1  0  0  0  0
 30 28  2  0  0  0  0
 30 32  1  0  0  0  0
 31 30  1  0  0  0  0
 32 34  2  0  0  0  0
 33 32  1  0  0  0  0
 34 25  1  0  0  0  0
 34 35  1  0  0  0  0
 36 45  1  0  0  0  0
 36 37  1  0  0  0  0
 37  5  1  0  0  0  0
 38 37  2  0  0  0  0
 38  8  1  0  0  0  0
 39 38  1  0  0  0  0
 40 39  1  0  0  0  0
 41 43  1  0  0  0  0
 41 39  2  0  0  0  0
 42 41  1  0  0  0  0
 43 36  2  0  0  0  0
 44 43  1  0  0  0  0
 45 46  1  0  0  0  0
 46 47  2  0  0  0  0
 46  5  1  0  0  0  0
 47 48  1  0  0  0  0
 49 50  1  0  0  0  0
 49 47  1  0  0  0  0
 51 49  2  0  0  0  0
 52 51  1  0  0  0  0
 53 51  1  0  0  0  0
 53 45  2  0  0  0  0
 54 53  1  0  0  0  0
 55 64  2  0  0  0  0
 55 56  1  0  0  0  0
 56 58  2  0  0  0  0
 57 56  1  0  0  0  0
 58 60  1  0  0  0  0
 58 59  1  0  0  0  0
 60 61  1  0  0  0  0
 62 63  1  0  0  0  0
 62 60  2  0  0  0  0
 64 62  1  0  0  0  0
 65 64  1  0  0  0  0
M  END
$$$$
