CSD_code = PEKWUA | q = 0 | S = 0 | Stoichiometry = C17H10Br2MnN3O3 | MND = 6
 OpenBabel04212202083D

 36 39  0  0  1  0  0  0  0  0999 V2000
    0.0261    4.8547    7.6962 Mn  0  0  0  0  0  0  0  0  0  0  0  0
    1.3907    2.9486    8.4828 Br  0  0  0  0  0  0  0  0  0  0  0  0
    5.7791    4.7018    1.6590 Br  0  0  0  0  0  0  0  0  0  0  0  0
   -0.4497    3.4583    5.1610 O   0  0  0  0  0  1  0  0  0  0  0  0
   -1.6363    7.1197    6.8797 O   0  0  0  0  0  1  0  0  0  0  0  0
   -2.2976    3.4407    8.7930 O   0  0  0  0  0  1  0  0  0  0  0  0
    0.5986    5.7983    9.4667 N   0  0  0  0  0  0  0  0  0  0  0  0
    1.7766    5.6700    7.1502 N   0  0  2  0  0  0  0  0  0  0  0  0
    2.5563    5.6728    6.0775 N   0  0  0  0  0  0  0  0  0  0  0  0
    2.2454    5.2550    5.2119 H   0  0  0  0  0  0  0  0  0  0  0  0
   -0.0497    5.8091   10.6285 C   0  0  0  0  0  3  0  0  0  0  0  0
   -1.0325    5.3549   10.6435 H   0  0  0  0  0  0  0  0  0  0  0  0
    0.4802    6.3583   11.7825 C   0  0  0  0  0  0  0  0  0  0  0  0
   -0.0893    6.3325   12.6972 H   0  0  0  0  0  0  0  0  0  0  0  0
    1.7446    6.9290   11.7397 C   0  0  0  0  0  0  0  0  0  0  0  0
    2.1872    7.3604   12.6242 H   0  0  0  0  0  0  0  0  0  0  0  0
    2.4268    6.9276   10.5391 C   0  0  0  0  0  0  0  0  0  0  0  0
    3.4139    7.3523   10.4535 H   0  0  0  0  0  0  0  0  0  0  0  0
    1.8259    6.3530    9.4222 C   0  0  0  0  0  0  0  0  0  0  0  0
    2.4641    6.2724    8.1262 C   0  0  1  0  0  3  0  0  0  0  0  0
    3.7187    6.6730    7.6435 C   0  0  0  0  0  0  0  0  0  0  0  0
    4.4947    7.1599    8.1949 H   0  0  0  0  0  0  0  0  0  0  0  0
    3.7523    6.2679    6.3190 C   0  0  0  0  0  0  0  0  0  0  0  0
    4.7974    6.4041    5.3209 C   0  0  0  0  0  0  0  0  0  0  0  0
    4.7946    5.6191    4.1675 C   0  0  0  0  0  0  0  0  0  0  0  0
    4.0325    4.8739    3.9986 H   0  0  0  0  0  0  0  0  0  0  0  0
    5.8028    5.7746    3.2343 C   0  0  0  0  0  0  0  0  0  0  0  0
    6.8247    6.6915    3.4179 C   0  0  0  0  0  0  0  0  0  0  0  0
    7.6015    6.7959    2.6770 H   0  0  0  0  0  0  0  0  0  0  0  0
    6.8287    7.4641    4.5667 C   0  0  0  0  0  0  0  0  0  0  0  0
    7.6202    8.1808    4.7224 H   0  0  0  0  0  0  0  0  0  0  0  0
    5.8279    7.3272    5.5093 C   0  0  0  0  0  0  0  0  0  0  0  0
    5.8357    7.9448    6.3929 H   0  0  0  0  0  0  0  0  0  0  0  0
   -0.2592    4.0155    6.1484 C   0  0  0  0  0  2  0  0  0  0  0  0
   -0.9609    6.2454    7.2013 C   0  0  0  0  0  2  0  0  0  0  0  0
   -1.3977    4.0194    8.3794 C   0  0  0  0  0  2  0  0  0  0  0  0
  1 36  1  0  0  0  0
  1  2  1  0  0  0  0
  1  7  1  0  0  0  0
  3 27  1  0  0  0  0
  4 34  1  0  0  0  0
  5 35  1  0  0  0  0
  7 11  1  0  0  0  0
  8  9  1  1  0  0  0
  8  1  1  0  0  0  0
  8 20  1  0  0  0  0
  9 23  1  0  0  0  0
 10  9  1  0  0  0  0
 11 12  1  0  0  0  0
 11 13  1  0  0  0  0
 13 14  1  0  0  0  0
 15 13  2  0  0  0  0
 15 16  1  0  0  0  0
 17 15  1  0  0  0  0
 18 17  1  0  0  0  0
 19  7  1  0  0  0  0
 19 17  2  0  0  0  0
 20 21  1  1  0  0  0
 20 19  1  0  0  0  0
 21 22  1  0  0  0  0
 23 21  2  0  0  0  0
 24 32  1  0  0  0  0
 24 23  1  0  0  0  0
 25 24  2  0  0  0  0
 26 25  1  0  0  0  0
 27 28  2  0  0  0  0
 27 25  1  0  0  0  0
 28 30  1  0  0  0  0
 29 28  1  0  0  0  0
 30 31  1  0  0  0  0
 30 32  2  0  0  0  0
 32 33  1  0  0  0  0
 34  1  1  0  0  0  0
 35  1  1  0  0  0  0
 36  6  1  0  0  0  0
M  END
$$$$
