CSD_code = PELWOT | q = 0 | S = 0 | Stoichiometry = C10H4Cl2F12N4Pd | MND = 4
 OpenBabel04212202083D

 33 34  0  0  1  0  0  0  0  0999 V2000
    5.8104    3.0908    6.7832 Pd  0  0  0  0  0  0  0  0  0  0  0  0
    6.5242    5.0829    7.6750 Cl  0  0  0  0  0  0  0  0  0  0  0  0
    4.9631    0.9325    6.5042 Cl  0  0  0  0  0  0  0  0  0  0  0  0
    7.7077    3.8319    4.9378 F   0  0  0  0  0  0  0  0  0  0  0  0
    9.3314    4.7754    6.0196 F   0  0  0  0  0  0  0  0  0  0  0  0
    9.7601    3.2562    4.5739 F   0  0  0  0  0  0  0  0  0  0  0  0
    9.9189   -1.3324    7.9767 F   0  0  0  0  0  0  0  0  0  0  0  0
   10.2879   -0.0181    9.6335 F   0  0  0  0  0  0  0  0  0  0  0  0
    8.3407   -0.9047    9.3809 F   0  0  0  0  0  0  0  0  0  0  0  0
    5.0841    3.2450    4.1436 F   0  0  0  0  0  0  0  0  0  0  0  0
    5.4677    5.3050    4.5966 F   0  0  0  0  0  0  0  0  0  0  0  0
    3.8843    4.7959    3.2188 F   0  0  0  0  0  0  0  0  0  0  0  0
    0.1927    5.7950    7.7184 F   0  0  0  0  0  0  0  0  0  0  0  0
   -0.2470    3.7100    7.4542 F   0  0  0  0  0  0  0  0  0  0  0  0
    0.9416    4.3467    9.1320 F   0  0  0  0  0  0  0  0  0  0  0  0
    7.5353    2.2587    7.0314 N   0  0  0  0  0  0  0  0  0  0  0  0
    7.6505    1.2204    7.8368 N   0  0  0  0  0  0  0  0  0  0  0  0
    6.7942    0.7527    8.1550 H   0  0  0  0  0  0  0  0  0  0  0  0
    4.0432    3.8267    6.6339 N   0  0  0  0  0  0  0  0  0  0  0  0
    3.0878    3.8582    7.5404 N   0  0  0  0  0  0  0  0  0  0  0  0
    3.2424    3.5152    8.4852 H   0  0  0  0  0  0  0  0  0  0  0  0
    8.9029    3.6158    5.5357 C   0  0  0  0  0  0  0  0  0  0  0  0
    8.7458    2.5380    6.5634 C   0  0  2  0  0  3  0  0  0  0  0  0
    9.6829    1.6378    7.0880 C   0  0  0  0  0  0  0  0  0  0  0  0
   10.7359    1.6053    6.8988 H   0  0  0  0  0  0  0  0  0  0  0  0
    8.9350    0.8017    7.8940 C   0  0  0  0  0  0  0  0  0  0  0  0
    9.3731   -0.3668    8.7225 C   0  0  0  0  0  0  0  0  0  0  0  0
    4.4768    4.4404    4.3510 C   0  0  0  0  0  0  0  0  0  0  0  0
    3.5473    4.3515    5.5190 C   0  0  2  0  0  3  0  0  0  0  0  0
    2.2174    4.7427    5.7142 C   0  0  0  0  0  0  0  0  0  0  0  0
    1.5567    5.1967    5.0049 H   0  0  0  0  0  0  0  0  0  0  0  0
    1.9599    4.4093    7.0293 C   0  0  0  0  0  0  0  0  0  0  0  0
    0.7061    4.5694    7.8325 C   0  0  0  0  0  0  0  0  0  0  0  0
  1 16  1  0  0  0  0
  1  2  1  0  0  0  0
  3  1  1  0  0  0  0
  4 22  1  0  0  0  0
  6 22  1  0  0  0  0
  7 27  1  0  0  0  0
 10 28  1  0  0  0  0
 12 28  1  0  0  0  0
 13 33  1  0  0  0  0
 14 33  1  0  0  0  0
 16 17  1  0  0  0  0
 17 26  1  0  0  0  0
 17 18  1  0  0  0  0
 19  1  1  0  0  0  0
 19 20  1  0  0  0  0
 20 21  1  0  0  0  0
 22  5  1  0  0  0  0
 23 22  1  6  0  0  0
 23 16  1  0  0  0  0
 23 24  1  0  0  0  0
 24 26  2  0  0  0  0
 25 24  1  0  0  0  0
 26 27  1  0  0  0  0
 27  9  1  0  0  0  0
 27  8  1  0  0  0  0
 28 11  1  0  0  0  0
 29 28  1  1  0  0  0
 29 30  1  0  0  0  0
 29 19  1  0  0  0  0
 30 32  2  0  0  0  0
 31 30  1  0  0  0  0
 32 20  1  0  0  0  0
 32 33  1  0  0  0  0
 33 15  1  0  0  0  0
M  END
$$$$
