CSD_code = PEMGOG | q = 0 | S = 0 | Stoichiometry = C16H19Br2CdN3O | MND = 5
 OpenBabel04212202083D

 42 45  0  0  1  0  0  0  0  0999 V2000
    2.0959   12.6198    3.9683 Cd  0  0  0  0  0  0  0  0  0  0  0  0
    1.0032   12.0472    1.7970 Br  0  0  0  0  0  0  0  0  0  0  0  0
    3.6581   14.5408    4.4463 Br  0  0  0  0  0  0  0  0  0  0  0  0
    0.6111   13.3195    5.7311 N   0  0  0  0  0  0  0  0  0  0  0  0
    2.5706   11.4986    6.0704 N   0  0  2  0  0  0  0  0  0  0  0  0
    3.8910   11.0134    3.6640 N   0  0  0  0  0  4  0  0  0  0  0  0
    3.4658   10.1053    3.4419 H   0  0  0  0  0  0  0  0  0  0  0  0
    4.1291    9.2183    1.5490 O   0  0  0  0  0  0  0  0  0  0  0  0
    3.4843    9.6661    0.9847 H   0  0  0  0  0  0  0  0  0  0  0  0
   -0.4051   14.1524    5.5846 C   0  0  0  0  0  3  0  0  0  0  0  0
   -0.8814   14.1577    4.6099 H   0  0  0  0  0  0  0  0  0  0  0  0
   -0.8532   14.9826    6.6032 C   0  0  0  0  0  0  0  0  0  0  0  0
   -1.6820   15.6515    6.4358 H   0  0  0  0  0  0  0  0  0  0  0  0
   -0.2029   14.9335    7.8253 C   0  0  0  0  0  0  0  0  0  0  0  0
   -0.5138   15.5676    8.6418 H   0  0  0  0  0  0  0  0  0  0  0  0
    0.8595   14.0594    7.9841 C   0  0  0  0  0  0  0  0  0  0  0  0
    1.3881   13.9944    8.9222 H   0  0  0  0  0  0  0  0  0  0  0  0
    1.2444   13.2624    6.9075 C   0  0  0  0  0  0  0  0  0  0  0  0
    2.3748   12.3181    7.0238 C   0  0  2  0  0  3  0  0  0  0  0  0
    3.6625   10.5653    6.0684 C   0  0  0  0  0  0  0  0  0  0  0  0
    3.2288    9.5732    5.8967 H   0  0  0  0  0  0  0  0  0  0  0  0
    4.2217   10.5596    7.0130 H   0  0  0  0  0  0  0  0  0  0  0  0
    4.6261   10.8938    4.9169 C   0  0  0  0  0  0  0  0  0  0  0  0
    5.1061   11.8574    5.1222 H   0  0  0  0  0  0  0  0  0  0  0  0
    5.4031   10.1153    4.8828 H   0  0  0  0  0  0  0  0  0  0  0  0
    4.7208   11.3573    2.5036 C   0  0  0  0  0  0  0  0  0  0  0  0
    4.1075   11.9336    1.7966 H   0  0  0  0  0  0  0  0  0  0  0  0
    5.5632   11.9788    2.8142 H   0  0  0  0  0  0  0  0  0  0  0  0
    5.2086   10.0869    1.7943 C   0  0  0  0  0  0  0  0  0  0  0  0
    5.7309   10.3508    0.8659 H   0  0  0  0  0  0  0  0  0  0  0  0
    5.8968    9.5252    2.4322 H   0  0  0  0  0  0  0  0  0  0  0  0
    3.2132   12.4244    8.2441 C   0  0  0  0  0  0  0  0  0  0  0  0
    3.0680   11.5298    9.2986 C   0  0  0  0  0  0  0  0  0  0  0  0
    2.3251   10.7469    9.2381 H   0  0  0  0  0  0  0  0  0  0  0  0
    3.8687   11.6519   10.4208 C   0  0  0  0  0  0  0  0  0  0  0  0
    3.7510   10.9581   11.2397 H   0  0  0  0  0  0  0  0  0  0  0  0
    4.8185   12.6575   10.4907 C   0  0  0  0  0  0  0  0  0  0  0  0
    5.4427   12.7481   11.3669 H   0  0  0  0  0  0  0  0  0  0  0  0
    4.9681   13.5449    9.4372 C   0  0  0  0  0  0  0  0  0  0  0  0
    5.7094   14.3276    9.4880 H   0  0  0  0  0  0  0  0  0  0  0  0
    4.1676   13.4352    8.3143 C   0  0  0  0  0  0  0  0  0  0  0  0
    4.2809   14.1206    7.4871 H   0  0  0  0  0  0  0  0  0  0  0  0
  1  3  1  0  0  0  0
  1  4  1  0  0  0  0
  1  5  1  0  0  0  0
  2  1  1  0  0  0  0
  4 18  1  0  0  0  0
  5 20  1  6  0  0  0
  5 19  1  0  0  0  0
  6  1  1  0  0  0  0
  6 23  1  0  0  0  0
  7  6  1  0  0  0  0
  8 29  1  0  0  0  0
  9  8  1  0  0  0  0
 10  4  1  0  0  0  0
 10 12  1  0  0  0  0
 11 10  1  0  0  0  0
 12 14  2  0  0  0  0
 13 12  1  0  0  0  0
 14 16  1  0  0  0  0
 14 15  1  0  0  0  0
 16 17  1  0  0  0  0
 18 19  1  0  0  0  0
 18 16  2  0  0  0  0
 19 32  1  6  0  0  0
 20 22  1  0  0  0  0
 21 20  1  0  0  0  0
 23 24  1  0  0  0  0
 23 20  1  0  0  0  0
 25 23  1  0  0  0  0
 26 28  1  0  0  0  0
 26  6  1  0  0  0  0
 27 26  1  0  0  0  0
 29 31  1  0  0  0  0
 29 26  1  0  0  0  0
 30 29  1  0  0  0  0
 32 41  2  0  0  0  0
 32 33  1  0  0  0  0
 33 35  2  0  0  0  0
 34 33  1  0  0  0  0
 35 37  1  0  0  0  0
 35 36  1  0  0  0  0
 37 38  1  0  0  0  0
 39 40  1  0  0  0  0
 39 37  2  0  0  0  0
 41 39  1  0  0  0  0
 42 41  1  0  0  0  0
M  END
$$$$
