CSD_code = PEMJUP | q = 0 | S = 0 | Stoichiometry = C23H17BrN2Ni | MND = 4
 OpenBabel04212202083D

 44 49  0  0  0  0  0  0  0  0999 V2000
    6.0012   11.6524   -1.9402 Br  0  0  0  0  0  0  0  0  0  0  0  0
    5.6010   10.4544   -0.1892 Ni  0  0  2  0  0  0  0  0  0  0  0  0
    5.2563    9.3733    1.2860 N   0  0  0  0  0  0  0  0  0  0  0  0
    5.2773    8.6552   -1.1584 N   0  0  0  0  0  0  0  0  0  0  0  0
    4.9945    7.6612   -0.2924 C   0  0  0  0  0  0  0  0  0  0  0  0
    4.4706    6.9359    4.6528 C   0  0  0  0  0  0  0  0  0  0  0  0
    4.7622    7.7919    3.4898 C   0  0  0  0  0  0  0  0  0  0  0  0
    5.0446    9.1464    3.6377 C   0  0  0  0  0  0  0  0  0  0  0  0
    5.0557    9.5927    4.6183 H   0  0  0  0  0  0  0  0  0  0  0  0
    5.8008   11.8305    1.1193 C   0  0  0  0  0  0  0  0  0  0  0  0
    5.3171    8.3841   -2.4556 C   0  0  0  0  0  0  0  0  0  0  0  0
    5.5477    9.2114   -3.1152 H   0  0  0  0  0  0  0  0  0  0  0  0
    5.2880    9.9229    2.5100 C   0  0  0  0  0  0  0  0  0  0  0  0
    5.3529    6.8185    5.7306 C   0  0  0  0  0  0  0  0  0  0  0  0
    5.5981   11.3417    2.4396 C   0  0  0  0  0  0  0  0  0  0  0  0
    5.9942   13.5177    3.3724 C   0  0  0  0  0  0  0  0  0  0  0  0
    6.0701   14.1713    4.2290 H   0  0  0  0  0  0  0  0  0  0  0  0
    3.7939    5.3141    6.8058 C   0  0  0  0  0  0  0  0  0  0  0  0
    3.5366    4.6903    7.6486 H   0  0  0  0  0  0  0  0  0  0  0  0
    4.7224    7.2536    2.2033 C   0  0  0  0  0  0  0  0  0  0  0  0
    4.5070    6.2055    2.0708 H   0  0  0  0  0  0  0  0  0  0  0  0
    5.6959   12.1807    3.5447 C   0  0  0  0  0  0  0  0  0  0  0  0
    5.5362   11.7840    4.5373 H   0  0  0  0  0  0  0  0  0  0  0  0
    3.2728    6.2245    4.6592 C   0  0  0  0  0  0  0  0  0  0  0  0
    2.5981    6.3245    3.8204 H   0  0  0  0  0  0  0  0  0  0  0  0
    6.0997   13.1842    0.9829 C   0  0  0  0  0  3  0  0  0  0  0  0
    6.2653   13.6223    0.0097 H   0  0  0  0  0  0  0  0  0  0  0  0
    4.9936    6.0009    6.7954 C   0  0  0  0  0  0  0  0  0  0  0  0
    5.6731    5.9027    7.6300 H   0  0  0  0  0  0  0  0  0  0  0  0
    4.7444    6.3638   -0.7281 C   0  0  0  0  0  0  0  0  0  0  0  0
    4.5204    5.5846   -0.0174 H   0  0  0  0  0  0  0  0  0  0  0  0
    6.6791    7.5190    5.7605 C   0  0  0  0  0  0  0  0  0  0  0  0
    7.0425    7.7347    4.7585 H   0  0  0  0  0  0  0  0  0  0  0  0
    6.6002    8.4607    6.3046 H   0  0  0  0  0  0  0  0  0  0  0  0
    7.4152    6.9039    6.2745 H   0  0  0  0  0  0  0  0  0  0  0  0
    2.9291    5.4230    5.7300 C   0  0  0  0  0  0  0  0  0  0  0  0
    1.9926    4.8860    5.7248 H   0  0  0  0  0  0  0  0  0  0  0  0
    6.1938   14.0113    2.0950 C   0  0  0  0  0  0  0  0  0  0  0  0
    6.4271   15.0565    1.9519 H   0  0  0  0  0  0  0  0  0  0  0  0
    5.0803    7.1161   -2.9639 C   0  0  0  0  0  0  0  0  0  0  0  0
    5.1260    6.9469   -4.0274 H   0  0  0  0  0  0  0  0  0  0  0  0
    4.7884    6.0874   -2.0831 C   0  0  0  0  0  0  0  0  0  0  0  0
    4.5987    5.0869   -2.4421 H   0  0  0  0  0  0  0  0  0  0  0  0
    4.9815    8.0757    1.1146 C   0  0  0  0  0  0  0  0  0  0  0  0
  2  1  1  1  0  0  0
  2 10  2  0  0  0  0
  2  3  1  0  0  0  0
  3 13  1  0  0  0  0
  4  5  1  0  0  0  0
  4  2  1  0  0  0  0
  5 44  2  0  0  0  0
  6 24  2  0  0  0  0
  6 14  1  0  0  0  0
  7  8  1  0  0  0  0
  7  6  1  0  0  0  0
  8  9  1  0  0  0  0
 10 15  1  0  0  0  0
 11  4  1  0  0  0  0
 12 11  1  0  0  0  0
 13  8  2  0  0  0  0
 14 32  1  0  0  0  0
 14 28  2  0  0  0  0
 15 13  1  0  0  0  0
 15 22  2  0  0  0  0
 16 22  1  0  0  0  0
 16 17  1  0  0  0  0
 18 19  1  0  0  0  0
 20  7  2  0  0  0  0
 21 20  1  0  0  0  0
 22 23  1  0  0  0  0
 24 36  1  0  0  0  0
 25 24  1  0  0  0  0
 26 10  1  0  0  0  0
 26 38  1  0  0  0  0
 27 26  1  0  0  0  0
 28 18  1  0  0  0  0
 28 29  1  0  0  0  0
 30  5  1  0  0  0  0
 30 31  1  0  0  0  0
 32 35  1  0  0  0  0
 32 34  1  0  0  0  0
 33 32  1  0  0  0  0
 36 18  2  0  0  0  0
 37 36  1  0  0  0  0
 38 16  2  0  0  0  0
 39 38  1  0  0  0  0
 40 11  2  0  0  0  0
 40 42  1  0  0  0  0
 41 40  1  0  0  0  0
 42 30  2  0  0  0  0
 43 42  1  0  0  0  0
 44  3  1  0  0  0  0
 44 20  1  0  0  0  0
M  END
$$$$
