CSD_code = PEMKID | q = 1 | S = 0 | Stoichiometry = C12H28ClCrN4(1+) | MND = 5
 OpenBabel04212202083D

 46 49  0  0  1  0  0  0  0  0999 V2000
    8.3549    2.6505    2.1663 Cr  0  0  0  0  0  0  0  0  0  0  0  0
    8.3549    0.4264    2.1663 Cl  0  0  0  0  0  0  0  0  0  0  0  0
    6.9496    3.0582    3.6041 N   0  0  1  0  0  4  0  0  0  0  0  0
    6.9150    3.0622    0.7614 N   0  0  1  0  0  4  0  0  0  0  0  0
    6.2055    4.1051    2.8947 C   0  0  0  0  0  0  0  0  0  0  0  0
    6.8526    4.9853    2.8045 H   0  0  0  0  0  0  0  0  0  0  0  0
    5.3124    4.4105    3.4586 H   0  0  0  0  0  0  0  0  0  0  0  0
    5.7787    3.6356    1.4983 C   0  0  0  0  0  0  0  0  0  0  0  0
    5.0159    2.8638    1.6013 H   0  0  0  0  0  0  0  0  0  0  0  0
    5.3252    4.4726    0.9518 H   0  0  0  0  0  0  0  0  0  0  0  0
    7.6299    4.0954    0.0033 C   0  0  0  0  0  0  0  0  0  0  0  0
    7.7241    4.9840    0.6384 H   0  0  0  0  0  0  0  0  0  0  0  0
    7.0676    4.3914   -0.8940 H   0  0  0  0  0  0  0  0  0  0  0  0
    9.0239    3.6136   -0.4167 C   0  0  0  0  0  0  0  0  0  0  0  0
    8.9169    2.8270   -1.1638 H   0  0  0  0  0  0  0  0  0  0  0  0
    9.5729    4.4399   -0.8866 H   0  0  0  0  0  0  0  0  0  0  0  0
    6.4594    1.9865   -0.1131 C   0  0  0  0  0  0  0  0  0  0  0  0
    6.0296    1.1945    0.4959 H   0  0  0  0  0  0  0  0  0  0  0  0
    7.3053    1.5530   -0.6377 H   0  0  0  0  0  0  0  0  0  0  0  0
    5.7205    2.3353   -0.8422 H   0  0  0  0  0  0  0  0  0  0  0  0
    6.0624    1.9873    4.0466 C   0  0  0  0  0  0  0  0  0  0  0  0
    6.6623    1.1848    4.4694 H   0  0  0  0  0  0  0  0  0  0  0  0
    5.5349    1.5684    3.1951 H   0  0  0  0  0  0  0  0  0  0  0  0
    5.3353    2.3362    4.7873 H   0  0  0  0  0  0  0  0  0  0  0  0
    9.7602    3.0582    0.7284 N   0  0  1  0  0  4  0  0  0  0  0  0
    9.7948    3.0622    3.5712 N   0  0  1  0  0  4  0  0  0  0  0  0
   10.5043    4.1050    1.4379 C   0  0  0  0  0  0  0  0  0  0  0  0
    9.8572    4.9853    1.5281 H   0  0  0  0  0  0  0  0  0  0  0  0
   11.3974    4.4105    0.8740 H   0  0  0  0  0  0  0  0  0  0  0  0
   10.9311    3.6356    2.8343 C   0  0  0  0  0  0  0  0  0  0  0  0
   11.6939    2.8638    2.7313 H   0  0  0  0  0  0  0  0  0  0  0  0
   11.3846    4.4726    3.3808 H   0  0  0  0  0  0  0  0  0  0  0  0
    9.0799    4.0954    4.3293 C   0  0  0  0  0  0  0  0  0  0  0  0
    8.9857    4.9840    3.6942 H   0  0  0  0  0  0  0  0  0  0  0  0
    9.6421    4.3914    5.2266 H   0  0  0  0  0  0  0  0  0  0  0  0
    7.6859    3.6135    4.7492 C   0  0  0  0  0  0  0  0  0  0  0  0
    7.7929    2.8270    5.4964 H   0  0  0  0  0  0  0  0  0  0  0  0
    7.1369    4.4399    5.2192 H   0  0  0  0  0  0  0  0  0  0  0  0
   10.2504    1.9865    4.4457 C   0  0  0  0  0  0  0  0  0  0  0  0
   10.6802    1.1945    3.8367 H   0  0  0  0  0  0  0  0  0  0  0  0
    9.4045    1.5530    4.9703 H   0  0  0  0  0  0  0  0  0  0  0  0
   10.9893    2.3353    5.1748 H   0  0  0  0  0  0  0  0  0  0  0  0
   10.6474    1.9873    0.2860 C   0  0  0  0  0  0  0  0  0  0  0  0
   10.0475    1.1848   -0.1368 H   0  0  0  0  0  0  0  0  0  0  0  0
   11.1749    1.5684    1.1374 H   0  0  0  0  0  0  0  0  0  0  0  0
   11.3745    2.3362   -0.4547 H   0  0  0  0  0  0  0  0  0  0  0  0
  1 26  1  0  0  0  0
  1  3  1  0  0  0  0
  2  1  1  0  0  0  0
  3 21  1  1  0  0  0
  3 36  1  0  0  0  0
  4 17  1  6  0  0  0
  4  8  1  0  0  0  0
  4  1  1  0  0  0  0
  5  7  1  0  0  0  0
  5  3  1  0  0  0  0
  6  5  1  0  0  0  0
  8  9  1  0  0  0  0
  8  5  1  0  0  0  0
 10  8  1  0  0  0  0
 11 12  1  0  0  0  0
 11  4  1  0  0  0  0
 13 11  1  0  0  0  0
 14 11  1  0  0  0  0
 14 25  1  0  0  0  0
 15 14  1  0  0  0  0
 16 14  1  0  0  0  0
 17 18  1  0  0  0  0
 19 17  1  0  0  0  0
 20 17  1  0  0  0  0
 21 22  1  0  0  0  0
 21 24  1  0  0  0  0
 23 21  1  0  0  0  0
 25 43  1  6  0  0  0
 25 27  1  0  0  0  0
 25  1  1  0  0  0  0
 26 33  1  0  0  0  0
 26 39  1  1  0  0  0
 27 28  1  0  0  0  0
 27 30  1  0  0  0  0
 29 27  1  0  0  0  0
 30 32  1  0  0  0  0
 30 26  1  0  0  0  0
 31 30  1  0  0  0  0
 33 36  1  0  0  0  0
 33 35  1  0  0  0  0
 34 33  1  0  0  0  0
 36 38  1  0  0  0  0
 36 37  1  0  0  0  0
 39 41  1  0  0  0  0
 39 42  1  0  0  0  0
 40 39  1  0  0  0  0
 43 45  1  0  0  0  0
 44 43  1  0  0  0  0
 46 43  1  0  0  0  0
M  END
$$$$
