CSD_code = PENLOL | q = 0 | S = 0 | Stoichiometry = C11H22Br2CuN2P | MND = 3
 OpenBabel04212202083D

 39 38  0  0  1  0  0  0  0  0999 V2000
    6.9593    9.0303    3.6108 C   0  0  2  0  0  3  0  0  0  0  0  0
    6.2971   10.4759    5.1426 C   0  0  0  0  0  0  0  0  0  0  0  0
    6.3338   11.3485    5.7618 H   0  0  0  0  0  0  0  0  0  0  0  0
    5.3633    9.4932    5.0597 C   0  0  0  0  0  0  0  0  0  0  0  0
    4.4461    9.3662    5.5966 H   0  0  0  0  0  0  0  0  0  0  0  0
    8.4640   10.9794    4.0868 C   0  0  0  0  0  0  0  0  0  0  0  0
    8.8218   10.9258    3.0625 H   0  0  0  0  0  0  0  0  0  0  0  0
    9.2496   10.6303    4.7611 H   0  0  0  0  0  0  0  0  0  0  0  0
    8.2314   12.0160    4.3285 H   0  0  0  0  0  0  0  0  0  0  0  0
    5.0897    7.4236    3.7289 C   0  0  0  0  0  0  0  0  0  0  0  0
    5.7452    6.5539    3.8270 H   0  0  0  0  0  0  0  0  0  0  0  0
    4.7687    7.5024    2.6851 H   0  0  0  0  0  0  0  0  0  0  0  0
    4.2175    7.2916    4.3640 H   0  0  0  0  0  0  0  0  0  0  0  0
    9.4557    7.8360    3.1854 C   0  0  0  0  0  0  0  0  0  0  0  0
    9.9446    8.8162    3.2344 H   0  0  0  0  0  0  0  0  0  0  0  0
    9.2512    7.2722    4.5883 C   0  0  0  0  0  0  0  0  0  0  0  0
   10.2159    7.1121    5.0657 H   0  0  0  0  0  0  0  0  0  0  0  0
    8.7428    6.3121    4.5279 H   0  0  0  0  0  0  0  0  0  0  0  0
    8.6660    7.9397    5.2202 H   0  0  0  0  0  0  0  0  0  0  0  0
   10.3287    6.8821    2.3770 C   0  0  0  0  0  0  0  0  0  0  0  0
    9.8233    5.9256    2.2650 H   0  0  0  0  0  0  0  0  0  0  0  0
   11.2693    6.7071    2.8962 H   0  0  0  0  0  0  0  0  0  0  0  0
   10.5564    7.2844    1.3922 H   0  0  0  0  0  0  0  0  0  0  0  0
    8.1577    9.2943    1.0107 C   0  0  0  0  0  0  0  0  0  0  0  0
    9.0703    9.8446    1.2760 H   0  0  0  0  0  0  0  0  0  0  0  0
    6.9790   10.2448    0.8247 C   0  0  0  0  0  0  0  0  0  0  0  0
    6.0779    9.6739    0.6082 H   0  0  0  0  0  0  0  0  0  0  0  0
    7.1700   10.8992   -0.0237 H   0  0  0  0  0  0  0  0  0  0  0  0
    6.7969   10.8686    1.6977 H   0  0  0  0  0  0  0  0  0  0  0  0
    8.4011    8.5454   -0.2990 C   0  0  0  0  0  0  0  0  0  0  0  0
    8.7173    9.2380   -1.0769 H   0  0  0  0  0  0  0  0  0  0  0  0
    7.4792    8.0702   -0.6237 H   0  0  0  0  0  0  0  0  0  0  0  0
    9.1660    7.7790   -0.1902 H   0  0  0  0  0  0  0  0  0  0  0  0
    6.0521    5.3101    1.1091 Cu  0  0  0  0  0  0  0  0  0  0  0  0
    7.2787   10.1822    4.2432 N   0  0  0  0  0  0  0  0  0  0  0  0
    5.7875    8.6127    4.1183 N   0  0  0  0  0  0  0  0  0  0  0  0
    7.7861    7.9872    2.3223 P   0  0  0  0  0  0  0  0  0  0  0  0
    4.9012    7.0053    0.1279 Br  0  0  0  0  0  0  0  0  0  0  0  0
    7.2359    4.4697    2.8512 Br  0  0  0  0  0  0  0  0  0  0  0  0
  1 37  1  1  0  0  0
  1 36  1  0  0  0  0
  1 35  1  0  0  0  0
  2  3  1  0  0  0  0
  4  2  2  0  0  0  0
  4  5  1  0  0  0  0
  6 35  1  0  0  0  0
  6  9  1  0  0  0  0
  6  8  1  0  0  0  0
  7  6  1  0  0  0  0
 10 11  1  0  0  0  0
 10 36  1  0  0  0  0
 10 13  1  0  0  0  0
 12 10  1  0  0  0  0
 14 15  1  0  0  0  0
 14 16  1  0  0  0  0
 16 17  1  0  0  0  0
 16 19  1  0  0  0  0
 18 16  1  0  0  0  0
 20 22  1  0  0  0  0
 20 14  1  0  0  0  0
 21 20  1  0  0  0  0
 23 20  1  0  0  0  0
 24 25  1  0  0  0  0
 24 37  1  0  0  0  0
 26 24  1  0  0  0  0
 26 29  1  0  0  0  0
 27 26  1  0  0  0  0
 28 26  1  0  0  0  0
 30 33  1  0  0  0  0
 30 24  1  0  0  0  0
 31 30  1  0  0  0  0
 32 30  1  0  0  0  0
 34 39  1  0  0  0  0
 35  2  1  0  0  0  0
 36  4  1  0  0  0  0
 37 14  1  0  0  0  0
 38 34  1  0  0  0  0
M  END
$$$$
