CSD_code = PENNOL | q = 0 | S = 0 | Stoichiometry = C22H30Cl2Ti | MND = 12
 OpenBabel04212202083D

 55 58  0  0  1  0  0  0  0  0999 V2000
    2.9829    3.0227    4.3839 Ti  0  0  0  0  0  0  0  0  0  0  0  0
    2.5336    4.6189    2.8844 Cl  0  0  0  0  0  0  0  0  0  0  0  0
    2.4635    1.4079    2.9281 Cl  0  0  0  0  0  0  0  0  0  0  0  0
    2.1468    3.8251    6.4907 C   0  0  0  0  0  0  0  0  0  0  0  0
    2.1677    2.4029    6.5585 C   0  0  0  0  0  0  0  0  0  0  0  0
    1.2958    1.9036    5.5591 C   0  0  0  0  0  0  0  0  0  0  0  0
    0.7357    3.0144    4.8622 C   0  0  1  0  0  0  0  0  0  0  0  0
    1.2536    4.2004    5.4574 C   0  0  0  0  0  0  0  0  0  0  0  0
    2.7197    4.8010    7.4759 C   0  0  0  0  0  0  0  0  0  0  0  0
    2.7500    1.5483    7.6449 C   0  0  0  0  0  0  0  0  0  0  0  0
    0.8953    0.4641    5.4398 C   0  0  0  0  0  0  0  0  0  0  0  0
   -0.3288    2.9665    3.8091 C   0  0  0  0  0  0  0  0  0  0  0  0
    0.7837    5.6020    5.2162 C   0  0  0  0  0  0  0  0  0  0  0  0
    5.2074    2.1663    3.6513 C   0  0  0  0  0  0  0  0  0  0  0  0
    4.9388    1.8747    5.0065 C   0  0  0  0  0  0  0  0  0  0  0  0
    4.8444    3.1083    5.6999 C   0  0  1  0  0  0  0  0  0  0  0  0
    4.9715    4.1594    4.7593 C   0  0  0  0  0  0  0  0  0  0  0  0
    5.2065    3.5694    3.4971 C   0  0  0  0  0  0  0  0  0  0  0  0
    5.6319    4.1030    2.1729 C   0  0  2  0  0  0  0  0  0  0  0  0
    4.9641    3.2201    1.0972 C   0  0  0  0  0  0  0  0  0  0  0  0
    6.0862    2.2009    1.3541 C   0  0  2  0  0  0  0  0  0  0  0  0
    5.6678    1.2946    2.5177 C   0  0  0  0  0  0  0  0  0  0  0  0
    6.9733    3.3873    1.8145 C   0  0  0  0  0  0  0  0  0  0  0  0
    7.9940    3.1583    2.9225 C   0  0  0  0  0  0  0  0  0  0  0  0
    7.6868    4.0583    0.6446 C   0  0  0  0  0  0  0  0  0  0  0  0
    3.3408    4.3088    8.2209 H   0  0  0  0  0  0  0  0  0  0  0  0
    1.9041    5.3028    8.0009 H   0  0  0  0  0  0  0  0  0  0  0  0
    3.3128    5.5706    6.9795 H   0  0  0  0  0  0  0  0  0  0  0  0
    3.4594    2.0948    8.2620 H   0  0  0  0  0  0  0  0  0  0  0  0
    3.2487    0.6684    7.2384 H   0  0  0  0  0  0  0  0  0  0  0  0
    1.9447    1.1973    8.2945 H   0  0  0  0  0  0  0  0  0  0  0  0
    1.7678   -0.1906    5.4535 H   0  0  0  0  0  0  0  0  0  0  0  0
    0.3479    0.2813    4.5185 H   0  0  0  0  0  0  0  0  0  0  0  0
    0.2533    0.1942    6.2821 H   0  0  0  0  0  0  0  0  0  0  0  0
   -0.1634    3.7465    3.0644 H   0  0  0  0  0  0  0  0  0  0  0  0
   -1.3122    3.1201    4.2592 H   0  0  0  0  0  0  0  0  0  0  0  0
   -0.3277    2.0048    3.2981 H   0  0  0  0  0  0  0  0  0  0  0  0
    0.2732    5.6863    4.2603 H   0  0  0  0  0  0  0  0  0  0  0  0
    1.6176    6.3039    5.2236 H   0  0  0  0  0  0  0  0  0  0  0  0
    0.0866    5.8906    6.0073 H   0  0  0  0  0  0  0  0  0  0  0  0
    4.9902    0.8920    5.4601 H   0  0  0  0  0  0  0  0  0  0  0  0
    4.8681    3.2252    6.7725 H   0  0  0  0  0  0  0  0  0  0  0  0
    5.0373    5.2175    4.9840 H   0  0  0  0  0  0  0  0  0  0  0  0
    5.5755    5.1878    2.0825 H   0  0  0  0  0  0  0  0  0  0  0  0
    3.9487    2.8863    1.3075 H   0  0  0  0  0  0  0  0  0  0  0  0
    4.9960    3.6611    0.1049 H   0  0  0  0  0  0  0  0  0  0  0  0
    6.4474    1.6141    0.5083 H   0  0  0  0  0  0  0  0  0  0  0  0
    4.8703    0.6229    2.1838 H   0  0  0  0  0  0  0  0  0  0  0  0
    6.5062    0.6727    2.8486 H   0  0  0  0  0  0  0  0  0  0  0  0
    8.4588    4.1045    3.1946 H   0  0  0  0  0  0  0  0  0  0  0  0
    8.7728    2.4847    2.5689 H   0  0  0  0  0  0  0  0  0  0  0  0
    7.5507    2.7322    3.8170 H   0  0  0  0  0  0  0  0  0  0  0  0
    8.5002    3.4252    0.2940 H   0  0  0  0  0  0  0  0  0  0  0  0
    8.1085    5.0106    0.9616 H   0  0  0  0  0  0  0  0  0  0  0  0
    7.0186    4.2447   -0.1900 H   0  0  0  0  0  0  0  0  0  0  0  0
  1  7  1  0  0  0  0
  1 16  1  0  0  0  0
  2  1  1  0  0  0  0
  3  1  1  0  0  0  0
  4  5  1  0  0  0  0
  4  9  1  0  0  0  0
  5 10  1  0  0  0  0
  6  5  2  0  0  0  0
  7 12  1  6  0  0  0
  7  8  1  0  0  0  0
  7  6  1  0  0  0  0
  8  4  2  0  0  0  0
  9 27  1  0  0  0  0
  9 26  1  0  0  0  0
 10 29  1  0  0  0  0
 10 31  1  0  0  0  0
 11 32  1  0  0  0  0
 11  6  1  0  0  0  0
 11 34  1  0  0  0  0
 12 36  1  0  0  0  0
 13 39  1  0  0  0  0
 13  8  1  0  0  0  0
 13 40  1  0  0  0  0
 14 15  2  0  0  0  0
 15 41  1  0  0  0  0
 15 16  1  0  0  0  0
 16 42  1  1  0  0  0
 17 43  1  0  0  0  0
 17 16  1  0  0  0  0
 18 14  1  0  0  0  0
 18 17  2  0  0  0  0
 19 44  1  6  0  0  0
 19 18  1  0  0  0  0
 20 45  1  0  0  0  0
 20 21  1  0  0  0  0
 20 19  1  0  0  0  0
 21 47  1  6  0  0  0
 21 23  1  0  0  0  0
 21 22  1  0  0  0  0
 22 49  1  0  0  0  0
 22 14  1  0  0  0  0
 23 19  1  0  0  0  0
 23 24  1  0  0  0  0
 24 50  1  0  0  0  0
 24 52  1  0  0  0  0
 25 54  1  0  0  0  0
 25 23  1  0  0  0  0
 28  9  1  0  0  0  0
 30 10  1  0  0  0  0
 33 11  1  0  0  0  0
 35 12  1  0  0  0  0
 37 12  1  0  0  0  0
 38 13  1  0  0  0  0
 46 20  1  0  0  0  0
 48 22  1  0  0  0  0
 51 24  1  0  0  0  0
 53 25  1  0  0  0  0
 55 25  1  0  0  0  0
M  END
$$$$
