CSD_code = PENNIF | q = 0 | S = 0 | Stoichiometry = C17H20Cl2Ti | MND = 12
 OpenBabel04212202083D

 40 42  0  0  1  0  0  0  0  0999 V2000
   -4.6485   -2.4797  -20.9610 Ti  0  0  0  0  0  0  0  0  0  0  0  0
   -3.2496   -4.2311  -21.1547 Cl  0  0  0  0  0  0  0  0  0  0  0  0
   -2.8853   -1.2052  -20.4843 Cl  0  0  0  0  0  0  0  0  0  0  0  0
   -6.4784   -1.9993  -19.5982 C   0  0  0  0  0  0  0  0  0  0  0  0
   -5.3247   -1.7734  -18.8194 C   0  0  0  0  0  3  0  0  0  0  0  0
   -4.6802   -3.0139  -18.6246 C   0  0  0  0  0  0  0  0  0  0  0  0
   -5.4471   -4.0085  -19.2613 C   0  0  0  0  0  0  0  0  0  0  0  0
   -6.5491   -3.3872  -19.8739 C   0  0  0  0  0  0  0  0  0  0  0  0
   -6.0498   -1.0907  -22.4998 C   0  0  1  0  0  3  0  0  0  0  0  0
   -6.3915   -2.4551  -22.6251 C   0  0  0  0  0  3  0  0  0  0  0  0
   -5.2398   -3.1577  -23.0434 C   0  0  1  0  0  0  0  0  0  0  0  0
   -4.1817   -2.2177  -23.1995 C   0  0  0  0  0  0  0  0  0  0  0  0
   -4.6903   -0.9411  -22.8754 C   0  0  0  0  0  0  0  0  0  0  0  0
   -4.1523    0.4363  -23.1452 C   0  0  0  0  0  0  0  0  0  0  0  0
   -5.3355    1.4151  -23.1928 C   0  0  1  0  0  0  0  0  0  0  0  0
   -6.5212    0.7580  -23.9224 C   0  0  0  0  0  0  0  0  0  0  0  0
   -6.8994    0.1399  -22.5502 C   0  0  2  0  0  0  0  0  0  0  0  0
   -6.1893    1.3601  -21.9005 C   0  0  0  0  0  0  0  0  0  0  0  0
   -5.4762    1.1908  -20.5696 C   0  0  0  0  0  0  0  0  0  0  0  0
   -7.1269    2.5611  -21.7772 C   0  0  0  0  0  0  0  0  0  0  0  0
   -7.2530   -1.2747  -19.8104 H   0  0  0  0  0  0  0  0  0  0  0  0
   -5.0372   -0.8409  -18.3512 H   0  0  0  0  0  0  0  0  0  0  0  0
   -3.7939   -3.1807  -18.0255 H   0  0  0  0  0  0  0  0  0  0  0  0
   -5.2567   -5.0723  -19.2284 H   0  0  0  0  0  0  0  0  0  0  0  0
   -7.3845   -3.9061  -20.3251 H   0  0  0  0  0  0  0  0  0  0  0  0
   -7.3924   -2.8612  -22.5677 H   0  0  0  0  0  0  0  0  0  0  0  0
   -5.2024   -4.2016  -23.3323 H   0  0  0  0  0  0  0  0  0  0  0  0
   -3.2016   -2.4299  -23.6121 H   0  0  0  0  0  0  0  0  0  0  0  0
   -3.4256    0.7462  -22.3888 H   0  0  0  0  0  0  0  0  0  0  0  0
   -3.6373    0.4354  -24.1112 H   0  0  0  0  0  0  0  0  0  0  0  0
   -5.0145    2.4007  -23.5309 H   0  0  0  0  0  0  0  0  0  0  0  0
   -7.2491    1.4738  -24.2922 H   0  0  0  0  0  0  0  0  0  0  0  0
   -6.2776    0.0503  -24.7128 H   0  0  0  0  0  0  0  0  0  0  0  0
   -7.9517   -0.0317  -22.3196 H   0  0  0  0  0  0  0  0  0  0  0  0
   -4.8285    0.3167  -20.5548 H   0  0  0  0  0  0  0  0  0  0  0  0
   -4.8648    2.0703  -20.3757 H   0  0  0  0  0  0  0  0  0  0  0  0
   -6.2062    1.1065  -19.7656 H   0  0  0  0  0  0  0  0  0  0  0  0
   -7.6712    2.7624  -22.6943 H   0  0  0  0  0  0  0  0  0  0  0  0
   -7.8530    2.3865  -20.9851 H   0  0  0  0  0  0  0  0  0  0  0  0
   -6.5541    3.4503  -21.5221 H   0  0  0  0  0  0  0  0  0  0  0  0
  1  3  1  0  0  0  0
  2  1  1  0  0  0  0
  4  5  1  0  0  0  0
  5  6  1  0  0  0  0
  5 22  1  0  0  0  0
  6 23  1  0  0  0  0
  7 24  1  0  0  0  0
  7  6  2  0  0  0  0
  8  4  2  0  0  0  0
  8  7  1  0  0  0  0
  9 13  1  6  0  0  0
 10 26  1  0  0  0  0
 10  9  1  0  0  0  0
 11 27  1  6  0  0  0
 11 10  1  0  0  0  0
 11  1  1  0  0  0  0
 12 11  1  0  0  0  0
 12 13  2  0  0  0  0
 14 13  1  0  0  0  0
 14 29  1  0  0  0  0
 15 31  1  6  0  0  0
 15 14  1  0  0  0  0
 15 18  1  0  0  0  0
 16 15  1  0  0  0  0
 16 17  1  0  0  0  0
 17  9  1  0  0  0  0
 17 34  1  1  0  0  0
 17 18  1  0  0  0  0
 18 20  1  0  0  0  0
 18 19  1  0  0  0  0
 19 35  1  0  0  0  0
 19 36  1  0  0  0  0
 19 37  1  0  0  0  0
 20 40  1  0  0  0  0
 20 39  1  0  0  0  0
 21  4  1  0  0  0  0
 25  8  1  0  0  0  0
 28 12  1  0  0  0  0
 30 14  1  0  0  0  0
 32 16  1  0  0  0  0
 33 16  1  0  0  0  0
 38 20  1  0  0  0  0
M  END
$$$$
