CSD_code = PENZAM | q = -1 | S = 0 | Stoichiometry = C4H12Cl4IrO2S2(1-) | MND = 6
 OpenBabel04212202083D

 25 24  0  0  0  0  0  0  0  0999 V2000
    1.8246    7.5630    9.2714 Ir  0  0  0  0  0  0  0  0  0  0  0  0
    2.7130    6.7466   11.2689 Cl  0  0  0  0  0  0  0  0  0  0  0  0
    3.0713    9.5167    9.5152 Cl  0  0  0  0  0  0  0  0  0  0  0  0
    3.4549    6.6956    7.8994 S   0  0  0  0  0  0  0  0  0  0  0  0
    4.5509    5.9286    8.4608 O   0  0  0  0  0  1  0  0  0  0  0  0
    2.7403    5.6779    6.5744 C   0  0  0  0  0  0  0  0  0  0  0  0
    2.2637    4.8233    7.0422 H   0  0  0  0  0  0  0  0  0  0  0  0
    3.5427    5.3649    5.9168 H   0  0  0  0  0  0  0  0  0  0  0  0
    1.9998    6.2879    6.0706 H   0  0  0  0  0  0  0  0  0  0  0  0
    4.2076    7.9828    6.8607 C   0  0  0  0  0  0  0  0  0  0  0  0
    4.9002    7.5049    6.1778 H   0  0  0  0  0  0  0  0  0  0  0  0
    4.7237    8.6721    7.5203 H   0  0  0  0  0  0  0  0  0  0  0  0
    3.3986    8.4910    6.3493 H   0  0  0  0  0  0  0  0  0  0  0  0
    0.9363    8.3774    7.2737 Cl  0  0  0  0  0  0  0  0  0  0  0  0
    0.5791    5.6081    9.0282 Cl  0  0  0  0  0  0  0  0  0  0  0  0
    0.1944    8.4287   10.6444 S   0  0  0  0  0  0  0  0  0  0  0  0
   -0.9014    9.1957   10.0827 O   0  0  0  0  0  1  0  0  0  0  0  0
    0.9090    9.4466   11.9692 C   0  0  0  0  0  0  0  0  0  0  0  0
    1.3857   10.3011   11.5013 H   0  0  0  0  0  0  0  0  0  0  0  0
    0.1065    9.7596   12.6268 H   0  0  0  0  0  0  0  0  0  0  0  0
    1.6495    8.8366   12.4731 H   0  0  0  0  0  0  0  0  0  0  0  0
   -0.5584    7.1416   11.6830 C   0  0  0  0  0  0  0  0  0  0  0  0
   -1.2510    7.6196   12.3658 H   0  0  0  0  0  0  0  0  0  0  0  0
   -1.0744    6.4523   11.0234 H   0  0  0  0  0  0  0  0  0  0  0  0
    0.2506    6.6335   12.1945 H   0  0  0  0  0  0  0  0  0  0  0  0
  1  3  1  0  0  0  0
  1 16  1  0  0  0  0
  1  2  1  0  0  0  0
  4  5  1  0  0  0  0
  4  1  1  0  0  0  0
  6  7  1  0  0  0  0
  6  4  1  0  0  0  0
  8  6  1  0  0  0  0
  9  6  1  0  0  0  0
 10 12  1  0  0  0  0
 10  4  1  0  0  0  0
 11 10  1  0  0  0  0
 13 10  1  0  0  0  0
 14  1  1  0  0  0  0
 15  1  1  0  0  0  0
 16 22  1  0  0  0  0
 16 18  1  0  0  0  0
 17 16  1  0  0  0  0
 18 21  1  0  0  0  0
 18 20  1  0  0  0  0
 19 18  1  0  0  0  0
 22 25  1  0  0  0  0
 22 23  1  0  0  0  0
 24 22  1  0  0  0  0
M  END
$$$$
