CSD_code = PEPCIY | q = 0 | S = 0 | Stoichiometry = C21H17Cl2N3Pd | MND = 4
 OpenBabel04212202083D

 44 48  0  0  1  0  0  0  0  0999 V2000
    5.4522    1.0836    5.7441 Pd  0  0  0  0  0  0  0  0  0  0  0  0
    3.6114    1.7868    4.7164 Cl  0  0  0  0  0  0  0  0  0  0  0  0
    6.6019    1.1437    3.8441 Cl  0  0  0  0  0  0  0  0  0  0  0  0
    4.5290    1.2844    7.5628 N   0  0  0  0  0  0  0  0  0  0  0  0
    7.3832    1.0804    7.9000 N   0  0  2  0  0  0  0  0  0  0  0  0
    7.0571    0.4216    6.7895 N   0  0  0  0  0  0  0  0  0  0  0  0
    3.2625    0.9320    7.7709 C   0  0  0  0  0  3  0  0  0  0  0  0
    2.7636    0.4423    6.9434 H   0  0  0  0  0  0  0  0  0  0  0  0
    2.6081    1.2016    8.9607 C   0  0  0  0  0  0  0  0  0  0  0  0
    1.5795    0.9063    9.0875 H   0  0  0  0  0  0  0  0  0  0  0  0
    3.2926    1.8620    9.9690 C   0  0  0  0  0  0  0  0  0  0  0  0
    2.8111    2.0960   10.9057 H   0  0  0  0  0  0  0  0  0  0  0  0
    4.6154    2.2215    9.7498 C   0  0  0  0  0  0  0  0  0  0  0  0
    5.1769    2.7469   10.5072 H   0  0  0  0  0  0  0  0  0  0  0  0
    5.2031    1.9180    8.5333 C   0  0  0  0  0  0  0  0  0  0  0  0
    6.6429    2.2773    8.2180 C   0  0  0  0  0  0  0  0  0  0  0  0
    6.6510    2.9298    7.3187 H   0  0  0  0  0  0  0  0  0  0  0  0
    7.1221    2.7934    9.0512 H   0  0  0  0  0  0  0  0  0  0  0  0
    8.4111    0.4666    8.5386 C   0  0  1  0  0  3  0  0  0  0  0  0
    8.9951    0.9296    9.7922 C   0  0  0  0  0  0  0  0  0  0  0  0
    8.1944    1.2523   10.8863 C   0  0  0  0  0  0  0  0  0  0  0  0
    7.1224    1.1304   10.8216 H   0  0  0  0  0  0  0  0  0  0  0  0
    8.7703    1.6835   12.0672 C   0  0  0  0  0  0  0  0  0  0  0  0
    8.1426    1.9290   12.9112 H   0  0  0  0  0  0  0  0  0  0  0  0
   10.1469    1.7935   12.1718 C   0  0  0  0  0  0  0  0  0  0  0  0
   10.5931    2.1342   13.0938 H   0  0  0  0  0  0  0  0  0  0  0  0
   10.9496    1.4557   11.0943 C   0  0  0  0  0  0  0  0  0  0  0  0
   12.0234    1.5306   11.1759 H   0  0  0  0  0  0  0  0  0  0  0  0
   10.3800    1.0233    9.9117 C   0  0  0  0  0  0  0  0  0  0  0  0
   11.0008    0.7673    9.0665 H   0  0  0  0  0  0  0  0  0  0  0  0
    8.7421   -0.6367    7.7717 C   0  0  0  0  0  0  0  0  0  0  0  0
    9.4968   -1.3630    7.9920 H   0  0  0  0  0  0  0  0  0  0  0  0
    7.8465   -0.6419    6.6883 C   0  0  0  0  0  0  0  0  0  0  0  0
    7.6862   -1.6032    5.6042 C   0  0  0  0  0  0  0  0  0  0  0  0
    8.7944   -2.2601    5.0756 C   0  0  0  0  0  0  0  0  0  0  0  0
    9.7759   -2.0533    5.4757 H   0  0  0  0  0  0  0  0  0  0  0  0
    8.6446   -3.1435    4.0233 C   0  0  0  0  0  0  0  0  0  0  0  0
    9.5116   -3.6380    3.6107 H   0  0  0  0  0  0  0  0  0  0  0  0
    7.3893   -3.3829    3.4899 C   0  0  0  0  0  0  0  0  0  0  0  0
    7.2760   -4.0643    2.6602 H   0  0  0  0  0  0  0  0  0  0  0  0
    6.2786   -2.7469    4.0211 C   0  0  0  0  0  0  0  0  0  0  0  0
    5.2993   -2.9343    3.6075 H   0  0  0  0  0  0  0  0  0  0  0  0
    6.4187   -1.8647    5.0762 C   0  0  0  0  0  0  0  0  0  0  0  0
    5.5245   -1.3891    5.5049 H   0  0  0  0  0  0  0  0  0  0  0  0
  1  6  1  0  0  0  0
  1  4  1  0  0  0  0
  2  1  1  0  0  0  0
  3  1  1  0  0  0  0
  4  7  1  0  0  0  0
  4 15  1  0  0  0  0
  5  6  1  6  0  0  0
  5 16  1  0  0  0  0
  5 19  1  0  0  0  0
  7  9  1  0  0  0  0
  8  7  1  0  0  0  0
  9 10  1  0  0  0  0
  9 11  2  0  0  0  0
 11 12  1  0  0  0  0
 13 11  1  0  0  0  0
 13 14  1  0  0  0  0
 15 13  2  0  0  0  0
 16 15  1  0  0  0  0
 16 18  1  0  0  0  0
 17 16  1  0  0  0  0
 19 20  1  1  0  0  0
 20 29  2  0  0  0  0
 20 21  1  0  0  0  0
 21 23  2  0  0  0  0
 22 21  1  0  0  0  0
 23 25  1  0  0  0  0
 23 24  1  0  0  0  0
 25 26  1  0  0  0  0
 27 28  1  0  0  0  0
 27 25  2  0  0  0  0
 29 27  1  0  0  0  0
 30 29  1  0  0  0  0
 31 32  1  0  0  0  0
 31 19  1  0  0  0  0
 33  6  1  0  0  0  0
 33 31  2  0  0  0  0
 34 33  1  0  0  0  0
 35 36  1  0  0  0  0
 35 34  2  0  0  0  0
 37 35  1  0  0  0  0
 38 37  1  0  0  0  0
 39 41  1  0  0  0  0
 39 37  2  0  0  0  0
 40 39  1  0  0  0  0
 41 43  2  0  0  0  0
 42 41  1  0  0  0  0
 43 44  1  0  0  0  0
 43 34  1  0  0  0  0
M  END
$$$$
