CSD_code = PEPHIE | q = 0 | S = 0 | Stoichiometry = C20H22ClMnN2O2 | MND = 5
 OpenBabel04212202083D

 48 52  0  0  1  0  0  0  0  0999 V2000
    6.9494    1.2942    3.8733 Mn  0  0  0  0  0  0  0  0  0  0  0  0
    6.2699    2.9333    2.5817 Cl  0  0  0  0  0  0  0  0  0  0  0  0
    7.8529    2.6844    5.1074 N   0  0  1  0  0  0  0  0  0  0  0  0
    6.0636    0.9232    5.3038 O   0  0  0  0  0  0  0  0  0  0  0  0
    8.6414    1.2831    3.0149 N   0  0  1  0  0  0  0  0  0  0  0  0
    7.4492    3.1874    6.2311 C   0  0  1  0  0  3  0  0  0  0  0  0
    5.6295    3.3498    7.9512 C   0  0  0  0  0  0  0  0  0  0  0  0
    6.0375    4.2740    8.3273 H   0  0  0  0  0  0  0  0  0  0  0  0
    5.6055    1.5283    6.3665 C   0  0  0  0  0  0  0  0  0  0  0  0
    6.9931   -0.9466    2.3125 C   0  0  0  0  0  0  0  0  0  0  0  0
    3.9409    1.6533    8.1133 C   0  0  0  0  0  0  0  0  0  0  0  0
    3.0686    1.2456    8.6019 H   0  0  0  0  0  0  0  0  0  0  0  0
    4.4874    1.0030    7.0299 C   0  0  0  0  0  0  0  0  0  0  0  0
    4.0544    0.0921    6.6440 H   0  0  0  0  0  0  0  0  0  0  0  0
    6.2194    2.7148    6.8531 C   0  0  0  0  0  0  0  0  0  0  0  0
    6.3018   -2.1515    2.0457 C   0  0  0  0  0  0  0  0  0  0  0  0
    5.2518   -2.1814    2.2958 H   0  0  0  0  0  0  0  0  0  0  0  0
    9.1064    0.3661    2.1942 C   0  0  1  0  0  3  0  0  0  0  0  0
    8.2324    4.2508    6.9658 C   0  0  0  0  0  0  0  0  0  0  0  0
    9.3014    4.1281    6.7922 H   0  0  0  0  0  0  0  0  0  0  0  0
    8.0706    4.1525    8.0389 H   0  0  0  0  0  0  0  0  0  0  0  0
    8.3853   -0.8612    1.9840 C   0  0  0  0  0  0  0  0  0  0  0  0
    9.3323    2.5575    3.1533 C   0  0  0  0  0  0  0  0  0  0  0  0
    8.8526    3.2529    2.4496 H   0  0  0  0  0  0  0  0  0  0  0  0
   10.4015    2.4969    2.9451 H   0  0  0  0  0  0  0  0  0  0  0  0
    8.9928   -1.9994    1.4183 C   0  0  0  0  0  0  0  0  0  0  0  0
   10.0441   -1.9788    1.1789 H   0  0  0  0  0  0  0  0  0  0  0  0
    6.9412   -3.2382    1.5154 C   0  0  0  0  0  0  0  0  0  0  0  0
    6.3965   -4.1534    1.3364 H   0  0  0  0  0  0  0  0  0  0  0  0
    6.3318    0.0607    2.7726 O   0  0  0  0  0  0  0  0  0  0  0  0
    8.3007   -3.1630    1.2026 C   0  0  0  0  0  0  0  0  0  0  0  0
    8.8060   -4.0232    0.7901 H   0  0  0  0  0  0  0  0  0  0  0  0
   10.3876    0.5670    1.4125 C   0  0  0  0  0  0  0  0  0  0  0  0
   10.4643    1.6077    1.0945 H   0  0  0  0  0  0  0  0  0  0  0  0
   10.3410   -0.0327    0.5041 H   0  0  0  0  0  0  0  0  0  0  0  0
    9.1467    3.0883    4.5784 C   0  0  0  0  0  0  0  0  0  0  0  0
    9.9274    2.6627    5.2234 H   0  0  0  0  0  0  0  0  0  0  0  0
    9.2516    4.1760    4.5606 H   0  0  0  0  0  0  0  0  0  0  0  0
    7.7912    5.6430    6.4997 C   0  0  0  0  0  0  0  0  0  0  0  0
    7.9094    5.7498    5.4245 H   0  0  0  0  0  0  0  0  0  0  0  0
    8.3849    6.4078    6.9953 H   0  0  0  0  0  0  0  0  0  0  0  0
    6.7429    5.8091    6.7316 H   0  0  0  0  0  0  0  0  0  0  0  0
   11.6296    0.1688    2.2167 C   0  0  0  0  0  0  0  0  0  0  0  0
   12.5248    0.3241    1.6182 H   0  0  0  0  0  0  0  0  0  0  0  0
   11.5810   -0.8794    2.5007 H   0  0  0  0  0  0  0  0  0  0  0  0
   11.7199    0.7548    3.1285 H   0  0  0  0  0  0  0  0  0  0  0  0
    4.5065    2.8372    8.5669 C   0  0  0  0  0  0  0  0  0  0  0  0
    4.0701    3.3587    9.4054 H   0  0  0  0  0  0  0  0  0  0  0  0
  1  3  1  0  0  0  0
  1  4  1  0  0  0  0
  2  1  1  0  0  0  0
  3 36  1  1  0  0  0
  3  6  1  0  0  0  0
  4  9  1  0  0  0  0
  5 23  1  6  0  0  0
  5  1  1  0  0  0  0
  6 15  1  0  0  0  0
  6 19  1  1  0  0  0
  7  8  1  0  0  0  0
  7 47  1  0  0  0  0
  9 15  1  0  0  0  0
  9 13  2  0  0  0  0
 10 30  1  0  0  0  0
 11 47  2  0  0  0  0
 11 12  1  0  0  0  0
 13 11  1  0  0  0  0
 14 13  1  0  0  0  0
 15  7  2  0  0  0  0
 16 17  1  0  0  0  0
 16 10  1  0  0  0  0
 18 33  1  6  0  0  0
 18  5  1  0  0  0  0
 19 21  1  0  0  0  0
 20 19  1  0  0  0  0
 22 18  1  0  0  0  0
 22 10  2  0  0  0  0
 23 36  1  0  0  0  0
 24 23  1  0  0  0  0
 25 23  1  0  0  0  0
 26 22  1  0  0  0  0
 27 26  1  0  0  0  0
 28 16  2  0  0  0  0
 29 28  1  0  0  0  0
 30  1  1  0  0  0  0
 31 26  2  0  0  0  0
 31 28  1  0  0  0  0
 32 31  1  0  0  0  0
 33 43  1  0  0  0  0
 34 33  1  0  0  0  0
 35 33  1  0  0  0  0
 36 37  1  0  0  0  0
 38 36  1  0  0  0  0
 39 42  1  0  0  0  0
 39 19  1  0  0  0  0
 39 41  1  0  0  0  0
 40 39  1  0  0  0  0
 43 45  1  0  0  0  0
 43 46  1  0  0  0  0
 44 43  1  0  0  0  0
 47 48  1  0  0  0  0
M  END
$$$$
