CSD_code = PEPQIM | q = 0 | S = 0 | Stoichiometry = C14H31Br3OP2Zn | MND = 4
 OpenBabel04212202083D

 52 51  0  0  0  0  0  0  0  0999 V2000
    2.8325   13.9451    1.1337 Br  0  0  0  0  0  0  0  0  0  0  0  0
    2.7827   10.4135    3.8647 Br  0  0  0  0  0  0  0  0  0  0  0  0
    1.7832   14.1849    5.1988 Br  0  0  0  0  0  0  0  0  0  0  0  0
    2.4466   12.7607    3.2399 Zn  0  0  0  0  0  0  0  0  0  0  0  0
   -1.1064   15.1318    2.2937 P   0  0  0  0  0  4  0  0  0  0  0  0
   -1.1507   11.3644    4.6812 P   0  0  0  0  0  4  0  0  0  0  0  0
    0.3057   12.4774    2.8226 O   0  0  0  0  0  0  0  0  0  0  0  0
   -0.6876   12.7592    3.5205 C   0  0  0  0  0  0  0  0  0  0  0  0
   -1.4853   13.8634    3.4655 C   0  0  0  0  0  0  0  0  0  0  0  0
   -2.2950   14.0213    4.1578 H   0  0  0  0  0  0  0  0  0  0  0  0
    0.3335   16.1652    2.7192 C   0  0  0  0  0  0  0  0  0  0  0  0
    0.1820   16.5269    3.7404 H   0  0  0  0  0  0  0  0  0  0  0  0
    1.2012   15.5052    2.7338 H   0  0  0  0  0  0  0  0  0  0  0  0
    0.5860   17.2976    1.7320 C   0  0  0  0  0  0  0  0  0  0  0  0
    0.9204   16.9002    0.7771 H   0  0  0  0  0  0  0  0  0  0  0  0
    1.3794   17.9320    2.1189 H   0  0  0  0  0  0  0  0  0  0  0  0
   -0.2982   17.9130    1.5772 H   0  0  0  0  0  0  0  0  0  0  0  0
   -0.8669    9.8369    3.7314 C   0  0  0  0  0  0  0  0  0  0  0  0
    0.2094    9.8009    3.5265 H   0  0  0  0  0  0  0  0  0  0  0  0
   -1.1113    8.9909    4.3795 H   0  0  0  0  0  0  0  0  0  0  0  0
   -1.6573    9.7965    2.4291 C   0  0  0  0  0  0  0  0  0  0  0  0
   -2.7305    9.8591    2.6045 H   0  0  0  0  0  0  0  0  0  0  0  0
   -1.4497    8.8672    1.9044 H   0  0  0  0  0  0  0  0  0  0  0  0
   -1.3574   10.6197    1.7840 H   0  0  0  0  0  0  0  0  0  0  0  0
   -0.1035   11.2362    6.1697 C   0  0  0  0  0  0  0  0  0  0  0  0
   -0.1841   10.2052    6.5279 H   0  0  0  0  0  0  0  0  0  0  0  0
    0.9280   11.3857    5.8400 H   0  0  0  0  0  0  0  0  0  0  0  0
   -0.4615   12.2471    7.2506 C   0  0  0  0  0  0  0  0  0  0  0  0
   -0.3858   13.2609    6.8632 H   0  0  0  0  0  0  0  0  0  0  0  0
    0.2484   12.1579    8.0686 H   0  0  0  0  0  0  0  0  0  0  0  0
   -1.4613   12.0816    7.6460 H   0  0  0  0  0  0  0  0  0  0  0  0
   -2.9148   11.4589    5.1911 C   0  0  0  0  0  0  0  0  0  0  0  0
   -3.0207   12.3469    5.8192 H   0  0  0  0  0  0  0  0  0  0  0  0
   -3.5131   11.6120    4.2891 H   0  0  0  0  0  0  0  0  0  0  0  0
   -3.3798   10.2172    5.9410 C   0  0  0  0  0  0  0  0  0  0  0  0
   -3.3402    9.3372    5.3037 H   0  0  0  0  0  0  0  0  0  0  0  0
   -4.4083   10.3476    6.2714 H   0  0  0  0  0  0  0  0  0  0  0  0
   -2.7631   10.0360    6.8179 H   0  0  0  0  0  0  0  0  0  0  0  0
   -2.5950   16.1990    2.2375 C   0  0  0  0  0  0  0  0  0  0  0  0
   -2.5399   16.8209    1.3415 H   0  0  0  0  0  0  0  0  0  0  0  0
   -3.4590   15.5373    2.1368 H   0  0  0  0  0  0  0  0  0  0  0  0
   -2.7285   17.0603    3.4876 C   0  0  0  0  0  0  0  0  0  0  0  0
   -2.6579   16.4526    4.3874 H   0  0  0  0  0  0  0  0  0  0  0  0
   -3.6902   17.5692    3.4923 H   0  0  0  0  0  0  0  0  0  0  0  0
   -1.9464   17.8138    3.5265 H   0  0  0  0  0  0  0  0  0  0  0  0
   -0.8499   14.4521    0.6183 C   0  0  0  0  0  0  0  0  0  0  0  0
   -0.6817   15.2935   -0.0578 H   0  0  0  0  0  0  0  0  0  0  0  0
    0.0717   13.8658    0.6500 H   0  0  0  0  0  0  0  0  0  0  0  0
   -2.0207   13.5984    0.1498 C   0  0  0  0  0  0  0  0  0  0  0  0
   -2.2279   12.8077    0.8686 H   0  0  0  0  0  0  0  0  0  0  0  0
   -1.7794   13.1369   -0.8046 H   0  0  0  0  0  0  0  0  0  0  0  0
   -2.9222   14.1951    0.0222 H   0  0  0  0  0  0  0  0  0  0  0  0
  1  4  1  0  0  0  0
  4  2  1  0  0  0  0
  4  3  1  0  0  0  0
  5 11  1  0  0  0  0
  5  9  1  0  0  0  0
  6 32  1  0  0  0  0
  6 25  1  0  0  0  0
  7  4  1  0  0  0  0
  7  8  1  0  0  0  0
  8  6  1  0  0  0  0
  9  8  2  0  0  0  0
  9 10  1  0  0  0  0
 11 13  1  0  0  0  0
 11 12  1  0  0  0  0
 14 16  1  0  0  0  0
 14 11  1  0  0  0  0
 15 14  1  0  0  0  0
 17 14  1  0  0  0  0
 18 20  1  0  0  0  0
 18  6  1  0  0  0  0
 19 18  1  0  0  0  0
 21 22  1  0  0  0  0
 21 18  1  0  0  0  0
 23 21  1  0  0  0  0
 24 21  1  0  0  0  0
 25 26  1  0  0  0  0
 25 28  1  0  0  0  0
 27 25  1  0  0  0  0
 28 31  1  0  0  0  0
 28 30  1  0  0  0  0
 29 28  1  0  0  0  0
 32 33  1  0  0  0  0
 32 35  1  0  0  0  0
 34 32  1  0  0  0  0
 35 37  1  0  0  0  0
 35 38  1  0  0  0  0
 36 35  1  0  0  0  0
 39  5  1  0  0  0  0
 39 42  1  0  0  0  0
 40 39  1  0  0  0  0
 41 39  1  0  0  0  0
 42 44  1  0  0  0  0
 42 45  1  0  0  0  0
 42 43  1  0  0  0  0
 46 48  1  0  0  0  0
 46  5  1  0  0  0  0
 47 46  1  0  0  0  0
 49 46  1  0  0  0  0
 49 50  1  0  0  0  0
 51 49  1  0  0  0  0
 52 49  1  0  0  0  0
M  END
$$$$
