CSD_code = PEQTUA | q = 0 | S = 0 | Stoichiometry = C6H18Cl3OP2Re | MND = 6
 OpenBabel04212202083D

 31 30  0  0  0  0  0  0  0  0999 V2000
    0.2903    3.2475    6.2004 Re  0  0  0  0  0  0  0  0  0  0  0  0
   -0.5925    5.3117    6.8644 Cl  0  0  0  0  0  0  0  0  0  0  0  0
   -1.5455    2.2226    6.9480 Cl  0  0  0  0  0  0  0  0  0  0  0  0
   -0.6810    3.4419    4.0791 Cl  0  0  0  0  0  0  0  0  0  0  0  0
    0.9418    3.3215    8.5722 P   0  0  0  0  0  4  0  0  0  0  0  0
    0.8325    1.0621    5.2081 P   0  0  0  0  0  4  0  0  0  0  0  0
    1.8189    3.7700    5.8000 O   0  0  0  0  0  1  0  0  0  0  0  0
    1.8028    1.8743    9.2840 C   0  0  0  0  0  0  0  0  0  0  0  0
    2.0921    4.6974    8.8760 C   0  0  0  0  0  0  0  0  0  0  0  0
   -0.4191    3.6057    9.7415 C   0  0  0  0  0  0  0  0  0  0  0  0
    1.7014   -0.1702    6.2420 C   0  0  0  0  0  0  0  0  0  0  0  0
   -0.5871    0.1297    4.5637 C   0  0  0  0  0  0  0  0  0  0  0  0
    1.9282    1.2654    3.7705 C   0  0  0  0  0  0  0  0  0  0  0  0
    2.7155    1.6878    8.7238 H   0  0  0  0  0  0  0  0  0  0  0  0
    1.1534    1.0045    9.2193 H   0  0  0  0  0  0  0  0  0  0  0  0
    2.0459    2.0698   10.3272 H   0  0  0  0  0  0  0  0  0  0  0  0
    1.5878    5.6255    8.6114 H   0  0  0  0  0  0  0  0  0  0  0  0
    2.9613    4.5759    8.2313 H   0  0  0  0  0  0  0  0  0  0  0  0
    2.3938    4.7134    9.9227 H   0  0  0  0  0  0  0  0  0  0  0  0
   -1.0924    2.7506    9.7283 H   0  0  0  0  0  0  0  0  0  0  0  0
   -0.9642    4.4954    9.4302 H   0  0  0  0  0  0  0  0  0  0  0  0
   -0.0082    3.7442   10.7411 H   0  0  0  0  0  0  0  0  0  0  0  0
    1.0805   -0.4185    7.0995 H   0  0  0  0  0  0  0  0  0  0  0  0
    2.6434    0.2496    6.5857 H   0  0  0  0  0  0  0  0  0  0  0  0
    1.8915   -1.0694    5.6580 H   0  0  0  0  0  0  0  0  0  0  0  0
   -1.2328   -0.1634    5.3894 H   0  0  0  0  0  0  0  0  0  0  0  0
   -0.2256   -0.7537    4.0383 H   0  0  0  0  0  0  0  0  0  0  0  0
   -1.1447    0.7721    3.8839 H   0  0  0  0  0  0  0  0  0  0  0  0
    1.4122    1.8814    3.0356 H   0  0  0  0  0  0  0  0  0  0  0  0
    2.1770    0.2938    3.3450 H   0  0  0  0  0  0  0  0  0  0  0  0
    2.8313    1.7839    4.0889 H   0  0  0  0  0  0  0  0  0  0  0  0
  1  2  1  0  0  0  0
  1  3  1  0  0  0  0
  1  5  1  0  0  0  0
  4  1  1  0  0  0  0
  5  9  1  0  0  0  0
  5  8  1  0  0  0  0
  5 10  1  0  0  0  0
  6  1  1  0  0  0  0
  6 11  1  0  0  0  0
  7  1  1  0  0  0  0
  8 16  1  0  0  0  0
  9 19  1  0  0  0  0
 10 22  1  0  0  0  0
 11 24  1  0  0  0  0
 11 23  1  0  0  0  0
 12  6  1  0  0  0  0
 12 26  1  0  0  0  0
 13 31  1  0  0  0  0
 13  6  1  0  0  0  0
 14  8  1  0  0  0  0
 15  8  1  0  0  0  0
 17  9  1  0  0  0  0
 18  9  1  0  0  0  0
 20 10  1  0  0  0  0
 21 10  1  0  0  0  0
 25 11  1  0  0  0  0
 27 12  1  0  0  0  0
 28 12  1  0  0  0  0
 29 13  1  0  0  0  0
 30 13  1  0  0  0  0
M  END
$$$$
