CSD_code = PEQYIU | q = 0 | S = 0 | Stoichiometry = C12H11Cl4N3S2Zn | MND = 4
 OpenBabel04212202083D

 33 36  0  0  1  0  0  0  0  0999 V2000
   12.1217   -2.4593  -12.6393 Zn  0  0  0  0  0  0  0  0  0  0  0  0
   14.2189   -4.5232  -15.9278 S   0  0  0  0  0  0  0  0  0  0  0  0
   18.9428   -0.4599  -13.9298 Cl  0  0  0  0  0  0  0  0  0  0  0  0
   17.7621   -1.2004  -16.7376 Cl  0  0  0  0  0  0  0  0  0  0  0  0
   11.8958   -0.8618  -11.1885 Cl  0  0  0  0  0  0  0  0  0  0  0  0
   12.0659   -4.6949  -12.4397 Cl  0  0  0  0  0  0  0  0  0  0  0  0
    9.1730   -3.4929  -15.8170 S   0  0  0  0  0  0  0  0  0  0  0  0
   13.4123   -2.4591  -14.3691 N   0  0  0  0  0  0  0  0  0  0  0  0
   11.7961   -3.8267  -15.3730 N   0  0  2  0  0  0  0  0  0  0  0  0
   14.7266   -2.0065  -14.2848 C   0  0  0  0  0  0  0  0  0  0  0  0
   17.3332   -1.0450  -14.0705 C   0  0  0  0  0  0  0  0  0  0  0  0
   10.6905   -3.1389  -14.9917 C   0  0  1  0  0  3  0  0  0  0  0  0
   15.5157   -1.8583  -15.4252 C   0  0  0  0  0  0  0  0  0  0  0  0
   15.1193   -2.0781  -16.4040 H   0  0  0  0  0  0  0  0  0  0  0  0
   16.5382   -1.1739  -12.9389 C   0  0  0  0  0  0  0  0  0  0  0  0
   16.9411   -0.9020  -11.9765 H   0  0  0  0  0  0  0  0  0  0  0  0
   15.2450   -1.6409  -13.0439 C   0  0  0  0  0  0  0  0  0  0  0  0
   14.6293   -1.7308  -12.1592 H   0  0  0  0  0  0  0  0  0  0  0  0
   10.6482   -2.2285  -14.0999 N   0  0  1  0  0  0  0  0  0  0  0  0
   16.8106   -1.3801  -15.3170 C   0  0  0  0  0  0  0  0  0  0  0  0
   13.0863   -3.4459  -15.1154 C   0  0  2  0  0  3  0  0  0  0  0  0
   11.6533   -5.0473  -16.1556 C   0  0  0  0  0  0  0  0  0  0  0  0
   11.4852   -4.7888  -17.2089 H   0  0  0  0  0  0  0  0  0  0  0  0
   10.7985   -5.6169  -15.7858 H   0  0  0  0  0  0  0  0  0  0  0  0
   12.9407   -5.8204  -15.9713 C   0  0  0  0  0  0  0  0  0  0  0  0
   13.1502   -6.5089  -16.7844 H   0  0  0  0  0  0  0  0  0  0  0  0
   12.9631   -6.3366  -15.0110 H   0  0  0  0  0  0  0  0  0  0  0  0
    8.2885   -2.4102  -14.6531 C   0  0  0  0  0  0  0  0  0  0  0  0
    7.5652   -1.8134  -15.2024 H   0  0  0  0  0  0  0  0  0  0  0  0
    7.7696   -3.0525  -13.9413 H   0  0  0  0  0  0  0  0  0  0  0  0
    9.3776   -1.5608  -13.9840 C   0  0  0  0  0  0  0  0  0  0  0  0
    9.4718   -0.5816  -14.4675 H   0  0  0  0  0  0  0  0  0  0  0  0
    9.1593   -1.3940  -12.9277 H   0  0  0  0  0  0  0  0  0  0  0  0
  1  6  1  0  0  0  0
  1  5  1  0  0  0  0
  4 20  1  0  0  0  0
  7 28  1  0  0  0  0
  8 10  1  0  0  0  0
  8  1  1  0  0  0  0
  9 22  1  6  0  0  0
  9 21  1  0  0  0  0
  9 12  1  0  0  0  0
 10 17  1  0  0  0  0
 11  3  1  0  0  0  0
 11 15  1  0  0  0  0
 12  7  1  6  0  0  0
 12 19  1  0  0  0  0
 13 20  1  0  0  0  0
 13 10  2  0  0  0  0
 14 13  1  0  0  0  0
 15 16  1  0  0  0  0
 17 15  2  0  0  0  0
 17 18  1  0  0  0  0
 19 31  1  1  0  0  0
 19  1  1  0  0  0  0
 20 11  2  0  0  0  0
 21  2  1  1  0  0  0
 21  8  1  0  0  0  0
 22 25  1  0  0  0  0
 22 24  1  0  0  0  0
 23 22  1  0  0  0  0
 25  2  1  0  0  0  0
 25 27  1  0  0  0  0
 26 25  1  0  0  0  0
 28 31  1  0  0  0  0
 28 30  1  0  0  0  0
 29 28  1  0  0  0  0
 31 33  1  0  0  0  0
 32 31  1  0  0  0  0
M  END
$$$$
