CSD_code = PERBOE | q = 0 | S = 0 | Stoichiometry = C20H30F2Ti | MND = 12
 OpenBabel04212202083D

 53 54  0  0  1  0  0  0  0  0999 V2000
    0.4461    3.7020    3.6263 Ti  0  0  0  0  0  0  0  0  0  0  0  0
    2.2216    3.6515    3.7059 F   0  0  0  0  0  0  0  0  0  0  0  0
    0.4104    3.7869    1.8533 F   0  0  0  0  0  0  0  0  0  0  0  0
   -0.7506    2.1745    4.9955 C   0  0  1  0  0  3  0  0  0  0  0  0
    0.6211    1.7953    4.9568 C   0  0  1  0  0  0  0  0  0  0  0  0
    0.9244    1.3763    3.6315 C   0  0  0  0  0  0  0  0  0  0  0  0
   -0.2444    1.5118    2.8499 C   0  0  0  0  0  0  0  0  0  0  0  0
   -1.2712    2.0373    3.6722 C   0  0  1  0  0  3  0  0  0  0  0  0
   -1.5916    2.1959    6.2419 C   0  0  0  0  0  0  0  0  0  0  0  0
   -2.4703    2.8262    6.1387 H   0  0  0  0  0  0  0  0  0  0  0  0
   -1.0255    2.5241    7.1093 H   0  0  0  0  0  0  0  0  0  0  0  0
   -1.9382    1.1774    6.4420 H   0  0  0  0  0  0  0  0  0  0  0  0
    1.5612    1.6734    6.1234 C   0  0  0  0  0  0  0  0  0  0  0  0
    1.1241    2.0889    7.0294 H   0  0  0  0  0  0  0  0  0  0  0  0
    2.4991    2.1933    5.9183 H   0  0  0  0  0  0  0  0  0  0  0  0
    1.7909    0.6224    6.3126 H   0  0  0  0  0  0  0  0  0  0  0  0
    2.2239    0.8142    3.1398 C   0  0  0  0  0  0  0  0  0  0  0  0
    2.1075   -0.2432    2.8930 H   0  0  0  0  0  0  0  0  0  0  0  0
    2.9993    0.9146    3.8954 H   0  0  0  0  0  0  0  0  0  0  0  0
    2.5478    1.3433    2.2416 H   0  0  0  0  0  0  0  0  0  0  0  0
   -0.3838    1.0870    1.4202 C   0  0  0  0  0  0  0  0  0  0  0  0
    0.5138    1.3406    0.8574 H   0  0  0  0  0  0  0  0  0  0  0  0
   -1.2346    1.5766    0.9507 H   0  0  0  0  0  0  0  0  0  0  0  0
   -0.5290    0.0052    1.3650 H   0  0  0  0  0  0  0  0  0  0  0  0
   -2.7130    2.1170    3.2515 C   0  0  0  0  0  0  0  0  0  0  0  0
   -3.3576    2.3584    4.0934 H   0  0  0  0  0  0  0  0  0  0  0  0
   -3.0318    1.1508    2.8552 H   0  0  0  0  0  0  0  0  0  0  0  0
   -2.8604    2.8612    2.4654 H   0  0  0  0  0  0  0  0  0  0  0  0
   -0.0890    5.2560    5.4572 C   0  0  0  0  0  0  0  0  0  0  0  0
    1.0439    5.7114    4.7403 C   0  0  0  0  0  0  0  0  0  0  0  0
    0.6485    5.9786    3.4029 C   0  0  2  0  0  0  0  0  0  0  0  0
   -0.7451    5.7073    3.3011 C   0  0  0  0  0  0  0  0  0  0  0  0
   -1.2058    5.2736    4.5700 C   0  0  0  0  0  0  0  0  0  0  0  0
   -0.1155    5.1564    6.9569 C   0  0  0  0  0  0  0  0  0  0  0  0
    0.6388    4.4620    7.3285 H   0  0  0  0  0  0  0  0  0  0  0  0
   -1.0895    4.8450    7.3246 H   0  0  0  0  0  0  0  0  0  0  0  0
    0.1045    6.1372    7.3853 H   0  0  0  0  0  0  0  0  0  0  0  0
    2.3891    6.0103    5.3308 C   0  0  0  0  0  0  0  0  0  0  0  0
    2.4180    7.0438    5.6856 H   0  0  0  0  0  0  0  0  0  0  0  0
    3.1727    5.8825    4.5861 H   0  0  0  0  0  0  0  0  0  0  0  0
    2.6015    5.3537    6.1733 H   0  0  0  0  0  0  0  0  0  0  0  0
    1.5353    6.5383    2.3305 C   0  0  0  0  0  0  0  0  0  0  0  0
    1.0403    6.4910    1.3628 H   0  0  0  0  0  0  0  0  0  0  0  0
    2.4619    5.9640    2.2712 H   0  0  0  0  0  0  0  0  0  0  0  0
    1.7853    7.5793    2.5469 H   0  0  0  0  0  0  0  0  0  0  0  0
   -1.6060    6.0061    2.1072 C   0  0  0  0  0  0  0  0  0  0  0  0
   -2.6049    5.5933    2.2353 H   0  0  0  0  0  0  0  0  0  0  0  0
   -1.1711    5.5881    1.1989 H   0  0  0  0  0  0  0  0  0  0  0  0
   -1.6981    7.0865    1.9731 H   0  0  0  0  0  0  0  0  0  0  0  0
   -2.6575    5.2747    4.9629 C   0  0  0  0  0  0  0  0  0  0  0  0
   -3.0516    6.2876    4.8473 H   0  0  0  0  0  0  0  0  0  0  0  0
   -2.7903    4.9909    6.0039 H   0  0  0  0  0  0  0  0  0  0  0  0
   -3.2609    4.6166    4.3403 H   0  0  0  0  0  0  0  0  0  0  0  0
  1  2  1  0  0  0  0
  1  5  1  0  0  0  0
  3  1  1  0  0  0  0
  4  9  1  1  0  0  0
  5  4  1  0  0  0  0
  5 13  1  1  0  0  0
  6  5  1  0  0  0  0
  7  6  2  0  0  0  0
  7  8  1  0  0  0  0
  8 25  1  1  0  0  0
  8  4  1  0  0  0  0
  9 12  1  0  0  0  0
  9 11  1  0  0  0  0
 10  9  1  0  0  0  0
 13 16  1  0  0  0  0
 13 14  1  0  0  0  0
 15 13  1  0  0  0  0
 17  6  1  0  0  0  0
 17 19  1  0  0  0  0
 18 17  1  0  0  0  0
 20 17  1  0  0  0  0
 21  7  1  0  0  0  0
 22 21  1  0  0  0  0
 23 21  1  0  0  0  0
 24 21  1  0  0  0  0
 25 26  1  0  0  0  0
 27 25  1  0  0  0  0
 28 25  1  0  0  0  0
 29 34  1  0  0  0  0
 30 38  1  0  0  0  0
 30 29  2  0  0  0  0
 31 42  1  6  0  0  0
 31  1  1  0  0  0  0
 31 30  1  0  0  0  0
 32 31  1  0  0  0  0
 32 33  2  0  0  0  0
 33 50  1  0  0  0  0
 33 29  1  0  0  0  0
 34 36  1  0  0  0  0
 34 35  1  0  0  0  0
 34 37  1  0  0  0  0
 38 39  1  0  0  0  0
 38 41  1  0  0  0  0
 40 38  1  0  0  0  0
 42 45  1  0  0  0  0
 43 42  1  0  0  0  0
 44 42  1  0  0  0  0
 46 47  1  0  0  0  0
 46 32  1  0  0  0  0
 48 46  1  0  0  0  0
 49 46  1  0  0  0  0
 50 52  1  0  0  0  0
 51 50  1  0  0  0  0
 53 50  1  0  0  0  0
M  END
$$$$
