CSD_code = PERRIP | q = 0 | S = 0 | Stoichiometry = C22H24Cl2N2Pd | MND = 4
 OpenBabel04212202083D

 51 54  0  0  0  0  0  0  0  0999 V2000
    1.4468    9.7315    2.1603 Pd  0  0  0  0  0  0  0  0  0  0  0  0
    0.4769    8.4125    3.6533 Cl  0  0  0  0  0  0  0  0  0  0  0  0
    2.5553   10.6475    3.8759 Cl  0  0  0  0  0  0  0  0  0  0  0  0
    2.3969   10.0908   -0.3812 C   0  0  0  0  0  0  0  0  0  0  0  0
    3.0628   10.3619   -1.1983 H   0  0  0  0  0  0  0  0  0  0  0  0
    0.4898    9.0266    0.4533 N   0  0  0  0  0  0  0  0  0  0  0  0
    2.5222   10.6048    0.7978 N   0  0  0  0  0  0  0  0  0  0  0  0
    1.3022    9.1939   -0.6008 C   0  0  0  0  0  0  0  0  0  0  0  0
   -2.1289    6.8906   -1.0152 C   0  0  0  0  0  0  0  0  0  0  0  0
   -2.3224    6.3493   -1.9299 H   0  0  0  0  0  0  0  0  0  0  0  0
    1.0657    8.5639   -1.8433 C   0  0  0  0  0  0  0  0  0  0  0  0
    1.7670    8.7183   -2.6483 H   0  0  0  0  0  0  0  0  0  0  0  0
   -0.0211    7.7526   -1.9818 C   0  0  0  0  0  0  0  0  0  0  0  0
   -0.2058    7.2147   -2.8999 H   0  0  0  0  0  0  0  0  0  0  0  0
   -0.6667    8.3395    0.2950 C   0  0  0  0  0  0  0  0  0  0  0  0
   -3.0253    6.8641    0.0206 C   0  0  0  0  0  0  0  0  0  0  0  0
   -3.9322    6.2845   -0.0620 H   0  0  0  0  0  0  0  0  0  0  0  0
   -1.6365    8.3461    1.3175 C   0  0  0  0  0  0  0  0  0  0  0  0
   -1.4486    8.9389    2.2032 H   0  0  0  0  0  0  0  0  0  0  0  0
   -2.7864    7.6145    1.1802 C   0  0  0  0  0  0  0  0  0  0  0  0
   -3.5224    7.6208    1.9694 H   0  0  0  0  0  0  0  0  0  0  0  0
   -0.9442    7.6405   -0.9162 C   0  0  0  0  0  0  0  0  0  0  0  0
    5.0501    9.6265    1.6899 C   0  0  0  0  0  0  0  0  0  0  0  0
    4.0828    9.0871    1.7504 H   0  0  0  0  0  0  0  0  0  0  0  0
    1.8120   13.3244    0.5607 C   0  0  0  0  0  0  0  0  0  0  0  0
    1.4657   12.6330   -0.2195 H   0  0  0  0  0  0  0  0  0  0  0  0
    4.1995   13.8292    1.2900 C   0  0  0  0  0  0  0  0  0  0  0  0
    3.9943   14.8852    1.2273 H   0  0  0  0  0  0  0  0  0  0  0  0
    0.8601   13.2093    1.7603 C   0  0  0  0  0  0  0  0  0  0  0  0
    0.7632   12.1638    2.1039 H   0  0  0  0  0  0  0  0  0  0  0  0
   -0.1296   13.5700    1.4870 H   0  0  0  0  0  0  0  0  0  0  0  0
    1.2349   13.8031    2.5907 H   0  0  0  0  0  0  0  0  0  0  0  0
    4.7740   11.1059    1.5229 C   0  0  0  0  0  0  0  0  0  0  0  0
    3.2100   12.9117    0.9738 C   0  0  0  0  0  0  0  0  0  0  0  0
    3.5221   11.5500    1.0836 C   0  0  0  0  0  0  0  0  0  0  0  0
    5.4557   13.4083    1.6883 C   0  0  0  0  0  0  0  0  0  0  0  0
    6.2154   14.1392    1.9217 H   0  0  0  0  0  0  0  0  0  0  0  0
    5.7957    9.3311    2.9912 C   0  0  0  0  0  0  0  0  0  0  0  0
    6.8103    9.7200    2.9689 H   0  0  0  0  0  0  0  0  0  0  0  0
    5.8481    8.2557    3.1468 H   0  0  0  0  0  0  0  0  0  0  0  0
    5.2608    9.7761    3.8262 H   0  0  0  0  0  0  0  0  0  0  0  0
    5.7385   12.0615    1.8067 C   0  0  0  0  0  0  0  0  0  0  0  0
    6.7179   11.7518    2.1341 H   0  0  0  0  0  0  0  0  0  0  0  0
    5.8304    9.0966    0.4838 C   0  0  0  0  0  0  0  0  0  0  0  0
    5.2766    9.2503   -0.4409 H   0  0  0  0  0  0  0  0  0  0  0  0
    6.0213    8.0317    0.5975 H   0  0  0  0  0  0  0  0  0  0  0  0
    6.7851    9.6119    0.3992 H   0  0  0  0  0  0  0  0  0  0  0  0
    1.7475   14.7374   -0.0185 C   0  0  0  0  0  0  0  0  0  0  0  0
    0.7648   14.9094   -0.4528 H   0  0  0  0  0  0  0  0  0  0  0  0
    2.4947   14.8719   -0.7977 H   0  0  0  0  0  0  0  0  0  0  0  0
    1.9054   15.4840    0.7555 H   0  0  0  0  0  0  0  0  0  0  0  0
  1  2  1  0  0  0  0
  1  3  1  0  0  0  0
  4  7  1  0  0  0  0
  5  4  1  0  0  0  0
  6  1  1  0  0  0  0
  7 35  1  0  0  0  0
  7  1  1  0  0  0  0
  8  4  2  0  0  0  0
  8  6  1  0  0  0  0
  9 22  2  0  0  0  0
  9 16  1  0  0  0  0
 10  9  1  0  0  0  0
 11  8  1  0  0  0  0
 12 11  1  0  0  0  0
 13 11  2  0  0  0  0
 13 22  1  0  0  0  0
 14 13  1  0  0  0  0
 15  6  1  0  0  0  0
 15 18  2  0  0  0  0
 16 20  2  0  0  0  0
 17 16  1  0  0  0  0
 18 19  1  0  0  0  0
 20 18  1  0  0  0  0
 20 21  1  0  0  0  0
 22 15  1  0  0  0  0
 23 24  1  0  0  0  0
 23 38  1  0  0  0  0
 25 34  1  0  0  0  0
 25 29  1  0  0  0  0
 26 25  1  0  0  0  0
 27 36  1  0  0  0  0
 28 27  1  0  0  0  0
 29 30  1  0  0  0  0
 29 32  1  0  0  0  0
 31 29  1  0  0  0  0
 33 23  1  0  0  0  0
 33 42  1  0  0  0  0
 34 35  1  0  0  0  0
 34 27  2  0  0  0  0
 35 33  2  0  0  0  0
 36 42  2  0  0  0  0
 36 37  1  0  0  0  0
 38 40  1  0  0  0  0
 38 41  1  0  0  0  0
 39 38  1  0  0  0  0
 42 43  1  0  0  0  0
 44 46  1  0  0  0  0
 44 23  1  0  0  0  0
 45 44  1  0  0  0  0
 47 44  1  0  0  0  0
 48 25  1  0  0  0  0
 48 51  1  0  0  0  0
 49 48  1  0  0  0  0
 50 48  1  0  0  0  0
M  END
$$$$
