CSD_code = PERWAM | q = 0 | S = 0 | Stoichiometry = C12H12Cl2FeN4S3 | MND = 6
 OpenBabel04212202083D

 34 39  0  0  1  0  0  0  0  0999 V2000
    6.2039    8.2104    4.7003 C   0  0  0  0  0  0  0  0  0  0  0  0
    7.0042    7.4609    4.7310 H   0  0  0  0  0  0  0  0  0  0  0  0
    5.4149    7.8669    5.3805 H   0  0  0  0  0  0  0  0  0  0  0  0
    6.7313    9.5254    5.1618 C   0  0  2  0  0  3  0  0  0  0  0  0
    7.2389   11.6712    4.9765 C   0  0  0  0  0  0  0  0  0  0  0  0
    7.2584   12.5787    4.4003 H   0  0  0  0  0  0  0  0  0  0  0  0
    7.6780   11.4686    6.2359 C   0  0  0  0  0  0  0  0  0  0  0  0
    8.1316   12.1618    6.9131 H   0  0  0  0  0  0  0  0  0  0  0  0
    6.4565    7.5843    2.3584 C   0  0  0  0  0  0  0  0  0  0  0  0
    5.8572    7.5234    1.4429 H   0  0  0  0  0  0  0  0  0  0  0  0
    6.7099    6.5731    2.7014 H   0  0  0  0  0  0  0  0  0  0  0  0
    7.6724    8.3812    2.0229 C   0  0  2  0  0  3  0  0  0  0  0  0
    8.7791   10.2633    1.6470 C   0  0  0  0  0  0  0  0  0  0  0  0
    8.8244   11.3368    1.6155 H   0  0  0  0  0  0  0  0  0  0  0  0
    9.7501    9.3840    1.3092 C   0  0  0  0  0  0  0  0  0  0  0  0
   10.7423    9.5760    0.9573 H   0  0  0  0  0  0  0  0  0  0  0  0
    4.2318    8.1910    3.2693 C   0  0  0  0  0  0  0  0  0  0  0  0
    3.8596    7.3440    3.8594 H   0  0  0  0  0  0  0  0  0  0  0  0
    3.9676    8.0514    2.2146 H   0  0  0  0  0  0  0  0  0  0  0  0
    3.6187    9.4822    3.6960 C   0  0  1  0  0  3  0  0  0  0  0  0
    3.5149   11.6917    3.8190 C   0  0  0  0  0  0  0  0  0  0  0  0
    3.9305   12.6645    3.6281 H   0  0  0  0  0  0  0  0  0  0  0  0
    2.3241   11.3986    4.3905 C   0  0  0  0  0  0  0  0  0  0  0  0
    1.5742   12.0626    4.7675 H   0  0  0  0  0  0  0  0  0  0  0  0
    5.6846    8.3518    3.3363 N   0  0  1  0  0  4  0  0  0  0  0  0
    6.7066   10.5716    4.3789 N   0  0  0  0  0  0  0  0  0  0  0  0
    7.6205    9.6860    2.0479 N   0  0  0  0  0  0  0  0  0  0  0  0
    4.2314   10.6064    3.4378 N   0  0  0  0  0  0  0  0  0  0  0  0
    7.4223    9.8279    6.7176 S   0  0  0  0  0  0  0  0  0  0  0  0
    9.1937    7.7618    1.5002 S   0  0  0  0  0  0  0  0  0  0  0  0
    2.0855    9.6908    4.4556 S   0  0  0  0  0  0  0  0  0  0  0  0
    6.2848   12.3498    2.1562 Cl  0  0  0  0  0  0  0  0  0  0  0  0
    5.0294    9.8108    0.7710 Cl  0  0  0  0  0  0  0  0  0  0  0  0
    5.9523   10.2913    2.7084 Fe  0  0  0  0  0  0  0  0  0  0  0  0
  1  2  1  0  0  0  0
  1  4  1  0  0  0  0
  1  3  1  0  0  0  0
  4 29  1  6  0  0  0
  5  7  2  0  0  0  0
  6  5  1  0  0  0  0
  7 29  1  0  0  0  0
  7  8  1  0  0  0  0
  9 11  1  0  0  0  0
 10  9  1  0  0  0  0
 12 30  1  6  0  0  0
 12 27  1  0  0  0  0
 12  9  1  0  0  0  0
 13 27  1  0  0  0  0
 14 13  1  0  0  0  0
 15 30  1  0  0  0  0
 15 13  2  0  0  0  0
 16 15  1  0  0  0  0
 17 25  1  0  0  0  0
 17 20  1  0  0  0  0
 17 18  1  0  0  0  0
 19 17  1  0  0  0  0
 20 31  1  6  0  0  0
 21 23  2  0  0  0  0
 22 21  1  0  0  0  0
 23 31  1  0  0  0  0
 23 24  1  0  0  0  0
 25  9  1  6  0  0  0
 25  1  1  0  0  0  0
 26  5  1  0  0  0  0
 26  4  1  0  0  0  0
 27 34  1  0  0  0  0
 28 20  1  0  0  0  0
 28 21  1  0  0  0  0
 32 34  1  0  0  0  0
 33 34  1  0  0  0  0
 34 25  1  0  0  0  0
 34 28  1  0  0  0  0
 34 26  1  0  0  0  0
M  END
$$$$
