CSD_code = PERZEU | q = 1 | S = 0 | Stoichiometry = C15H33ClN3O6P2Pt(1+) | MND = 4
 OpenBabel04212202083D

 61 61  0  0  0  0  0  0  0  0999 V2000
    4.9286   14.5190   10.1813 C   0  0  0  0  0  3  0  0  0  0  0  0
    5.3000   14.6409   11.1924 H   0  0  0  0  0  0  0  0  0  0  0  0
    5.3169   15.3818    9.1754 C   0  0  0  0  0  0  0  0  0  0  0  0
    5.9916   16.1936    9.3909 H   0  0  0  0  0  0  0  0  0  0  0  0
    4.8326   15.1677    7.8923 C   0  0  0  0  0  0  0  0  0  0  0  0
    5.1226   15.8142    7.0790 H   0  0  0  0  0  0  0  0  0  0  0  0
    3.9731   14.1042    7.6769 C   0  0  0  0  0  0  0  0  0  0  0  0
    3.5683   13.9044    6.6981 H   0  0  0  0  0  0  0  0  0  0  0  0
    3.6240   13.2728    8.7343 C   0  0  0  0  0  0  0  0  0  0  0  0
    2.6927   12.1153    8.5507 C   0  0  0  0  0  0  0  0  0  0  0  0
    3.1716   11.2226    8.9666 H   0  0  0  0  0  0  0  0  0  0  0  0
    2.5104   11.9405    7.4909 H   0  0  0  0  0  0  0  0  0  0  0  0
    1.3527   12.3638    9.2519 C   0  0  0  0  0  0  0  0  0  0  0  0
    1.4093   13.2130    9.9354 H   0  0  0  0  0  0  0  0  0  0  0  0
    0.3220   14.9737    6.7490 C   0  0  0  0  0  0  0  0  0  0  0  0
    0.7004   15.2611    5.7652 H   0  0  0  0  0  0  0  0  0  0  0  0
   -0.7707   14.9832    6.7382 H   0  0  0  0  0  0  0  0  0  0  0  0
    0.8211   15.9165    7.8301 C   0  0  0  0  0  0  0  0  0  0  0  0
    0.4005   15.6137    8.7866 H   0  0  0  0  0  0  0  0  0  0  0  0
    0.4970   16.9292    7.6086 H   0  0  0  0  0  0  0  0  0  0  0  0
    1.9072   15.8956    7.8900 H   0  0  0  0  0  0  0  0  0  0  0  0
   -1.3230   10.8728    6.8117 C   0  0  0  0  0  0  0  0  0  0  0  0
   -2.1070   11.1017    7.5398 H   0  0  0  0  0  0  0  0  0  0  0  0
   -1.2283    9.7905    6.6956 H   0  0  0  0  0  0  0  0  0  0  0  0
   -1.6251   11.5480    5.4868 C   0  0  0  0  0  0  0  0  0  0  0  0
   -1.7312   12.6202    5.6411 H   0  0  0  0  0  0  0  0  0  0  0  0
   -2.5511   11.1563    5.0749 H   0  0  0  0  0  0  0  0  0  0  0  0
   -0.8183   11.3724    4.7795 H   0  0  0  0  0  0  0  0  0  0  0  0
   -1.6686   10.3986   10.9578 C   0  0  0  0  0  0  0  0  0  0  0  0
   -2.5431   11.0530   10.9904 H   0  0  0  0  0  0  0  0  0  0  0  0
   -1.2142   10.3483   11.9530 H   0  0  0  0  0  0  0  0  0  0  0  0
   -2.0436    9.0136   10.4643 C   0  0  0  0  0  0  0  0  0  0  0  0
   -2.4833    9.0783    9.4728 H   0  0  0  0  0  0  0  0  0  0  0  0
   -2.7651    8.5676   11.1434 H   0  0  0  0  0  0  0  0  0  0  0  0
   -1.1618    8.3807   10.4129 H   0  0  0  0  0  0  0  0  0  0  0  0
    2.2997    8.7637    9.9115 C   0  0  0  0  0  0  0  0  0  0  0  0
    2.7021    8.3070    9.0044 H   0  0  0  0  0  0  0  0  0  0  0  0
    3.0787    9.3692   10.3850 H   0  0  0  0  0  0  0  0  0  0  0  0
    1.8039    7.6999   10.8756 C   0  0  0  0  0  0  0  0  0  0  0  0
    1.3498    8.1678   11.7462 H   0  0  0  0  0  0  0  0  0  0  0  0
    2.6368    7.0793   11.1942 H   0  0  0  0  0  0  0  0  0  0  0  0
    1.0638    7.0672   10.3929 H   0  0  0  0  0  0  0  0  0  0  0  0
    5.4062   10.8647   10.4368 Cl  0  0  0  0  0  0  0  0  0  0  0  0
    4.1029   13.4907    9.9677 N   0  0  0  0  0  0  0  0  0  0  0  0
    2.4346   13.4152   12.5405 N   0  0  0  0  0  4  0  0  0  0  0  0
    2.1865   14.3124   12.1342 H   0  0  0  0  0  0  0  0  0  0  0  0
    2.6940   13.5713   13.5112 H   0  0  0  0  0  0  0  0  0  0  0  0
    1.6171   12.8014   12.5140 H   0  0  0  0  0  0  0  0  0  0  0  0
    3.7823   10.7404   12.9441 N   0  0  0  0  0  4  0  0  0  0  0  0
    3.9939   11.0311   13.8978 H   0  0  0  0  0  0  0  0  0  0  0  0
    4.4456   10.0082   12.6772 H   0  0  0  0  0  0  0  0  0  0  0  0
    2.8365   10.3538   12.9088 H   0  0  0  0  0  0  0  0  0  0  0  0
   -0.7530   11.0420   10.0635 O   0  0  0  0  0  0  0  0  0  0  0  0
    1.2260    9.6027    9.4705 O   0  0  0  0  0  0  0  0  0  0  0  0
    1.2686   10.9591   11.6493 O   0  0  0  0  0  0  0  0  0  0  0  0
   -0.0685   11.3007    7.3451 O   0  0  0  0  0  0  0  0  0  0  0  0
   -1.2242   13.3237    8.5347 O   0  0  0  0  0  0  0  0  0  0  0  0
    0.7814   13.6437    6.9625 O   0  0  0  0  0  0  0  0  0  0  0  0
    0.8061   10.9259   10.2368 P   0  0  0  0  0  0  0  0  0  0  0  0
    0.0141   12.7221    8.0482 P   0  0  0  0  0  0  0  0  0  0  0  0
    3.8576   12.1796   11.4465 Pt  0  0  0  0  0  0  0  0  0  0  0  0
  1  2  1  0  0  0  0
  3  4  1  0  0  0  0
  3  1  1  0  0  0  0
  5  3  2  0  0  0  0
  6  5  1  0  0  0  0
  7  5  1  0  0  0  0
  7  9  2  0  0  0  0
  8  7  1  0  0  0  0
  9 44  1  0  0  0  0
 10  9  1  0  0  0  0
 10 11  1  0  0  0  0
 10 13  1  0  0  0  0
 12 10  1  0  0  0  0
 13 14  1  0  0  0  0
 13 59  1  0  0  0  0
 15 58  1  0  0  0  0
 15 18  1  0  0  0  0
 16 15  1  0  0  0  0
 17 15  1  0  0  0  0
 18 21  1  0  0  0  0
 18 19  1  0  0  0  0
 20 18  1  0  0  0  0
 22 56  1  0  0  0  0
 22 23  1  0  0  0  0
 24 22  1  0  0  0  0
 25 26  1  0  0  0  0
 25 22  1  0  0  0  0
 27 25  1  0  0  0  0
 28 25  1  0  0  0  0
 29 30  1  0  0  0  0
 29 31  1  0  0  0  0
 32 29  1  0  0  0  0
 32 34  1  0  0  0  0
 33 32  1  0  0  0  0
 35 32  1  0  0  0  0
 36 38  1  0  0  0  0
 36 39  1  0  0  0  0
 37 36  1  0  0  0  0
 39 41  1  0  0  0  0
 39 40  1  0  0  0  0
 42 39  1  0  0  0  0
 43 61  1  0  0  0  0
 44  1  1  0  0  0  0
 44 61  1  0  0  0  0
 45 47  1  0  0  0  0
 46 45  1  0  0  0  0
 48 45  1  0  0  0  0
 49 50  1  0  0  0  0
 51 49  1  0  0  0  0
 52 49  1  0  0  0  0
 53 59  1  0  0  0  0
 53 29  1  0  0  0  0
 54 36  1  0  0  0  0
 54 59  1  0  0  0  0
 56 60  1  0  0  0  0
 58 60  1  0  0  0  0
 59 55  2  0  0  0  0
 60 57  2  0  0  0  0
 60 13  1  0  0  0  0
 61 45  1  0  0  0  0
 61 49  1  0  0  0  0
M  END
$$$$
