CSD_code = PESSAH | q = 0 | S = 0 | Stoichiometry = C28H31IN2O3Pd | MND = 4
 OpenBabel04212202083D

 66 72  0  0  1  0  0  0  0  0999 V2000
    5.9955    2.6159    0.5023 I   0  0  0  0  0  0  0  0  0  0  0  0
    8.3213    2.7992   -0.5416 Pd  0  0  1  0  0  0  0  0  0  0  0  0
    7.5467    2.7832   -3.1331 O   0  0  0  0  0  0  0  0  0  0  0  0
    9.0503    4.8889   -4.3345 O   0  0  0  0  0  0  0  0  0  0  0  0
   10.3935    4.2810   -6.7552 O   0  0  0  0  0  0  0  0  0  0  0  0
    9.4815    1.7638    1.1065 N   0  0  0  0  0  0  0  0  0  0  0  0
   10.3373    2.6254   -1.3173 N   0  0  0  0  0  0  0  0  0  0  0  0
    8.9520    1.2544    2.2103 C   0  0  0  0  0  0  0  0  0  0  0  0
    9.5354    0.2123    2.9132 C   0  0  0  0  0  0  0  0  0  0  0  0
   10.7119   -0.3347    2.4268 C   0  0  0  0  0  0  0  0  0  0  0  0
   11.2734    0.1996    1.2804 C   0  0  0  0  0  0  0  0  0  0  0  0
   10.6397    1.2674    0.6457 C   0  0  0  0  0  0  0  0  0  0  0  0
   11.1894    1.9088   -0.5630 C   0  0  0  0  0  0  0  0  0  0  0  0
   12.5358    1.7962   -0.9058 C   0  0  0  0  0  0  0  0  0  0  0  0
   13.0011    2.4046   -2.0583 C   0  0  0  0  0  0  0  0  0  0  0  0
   12.1051    3.1134   -2.8410 C   0  0  0  0  0  0  0  0  0  0  0  0
   10.7852    3.2013   -2.4261 C   0  0  0  0  0  0  0  0  0  0  0  0
    7.5349    3.4819   -2.1572 C   0  0  0  0  0  0  0  0  0  0  0  0
    6.9410    4.8644   -2.0653 C   0  0  1  0  0  0  0  0  0  0  0  0
    7.6163    5.7717   -1.0133 C   0  0  2  0  0  0  0  0  0  0  0  0
    6.6323    6.8975   -0.6808 C   0  0  0  0  0  0  0  0  0  0  0  0
    6.6168    7.7271   -1.9832 C   0  0  0  0  0  0  0  0  0  0  0  0
    7.6435    7.0130   -2.8738 C   0  0  2  0  0  0  0  0  0  0  0  0
    7.0082    5.6984   -3.3773 C   0  0  1  0  0  0  0  0  0  0  0  0
    8.6580    6.5136   -1.8471 C   0  0  0  0  0  0  0  0  0  0  0  0
    7.8605    5.0667   -4.4636 C   0  0  0  0  0  0  0  0  0  0  0  0
    7.1343    4.7695   -5.7497 C   0  0  1  0  0  0  0  0  0  0  0  0
    6.7577    6.0968   -6.4504 C   0  0  2  0  0  0  0  0  0  0  0  0
    5.7579    5.7793   -7.5687 C   0  0  0  0  0  0  0  0  0  0  0  0
    6.6300    5.0809   -8.6314 C   0  0  0  0  0  0  0  0  0  0  0  0
    8.0162    5.0665   -7.9814 C   0  0  2  0  0  0  0  0  0  0  0  0
    7.9984    4.0533   -6.8236 C   0  0  1  0  0  0  0  0  0  0  0  0
    8.0324    6.3969   -7.2337 C   0  0  0  0  0  0  0  0  0  0  0  0
    9.4164    3.6731   -6.3930 C   0  0  0  0  0  0  0  0  0  0  0  0
    9.4999    2.3462   -5.6789 C   0  0  0  0  0  0  0  0  0  0  0  0
    8.0232    1.6979    2.5487 H   0  0  0  0  0  0  0  0  0  0  0  0
    9.0688   -0.1651    3.8085 H   0  0  0  0  0  0  0  0  0  0  0  0
   11.1858   -1.1648    2.9289 H   0  0  0  0  0  0  0  0  0  0  0  0
   12.1769   -0.2243    0.8725 H   0  0  0  0  0  0  0  0  0  0  0  0
   13.2154    1.2531   -0.2690 H   0  0  0  0  0  0  0  0  0  0  0  0
   14.0413    2.3248   -2.3357 H   0  0  0  0  0  0  0  0  0  0  0  0
   12.4074    3.5999   -3.7540 H   0  0  0  0  0  0  0  0  0  0  0  0
   10.0732    3.7487   -3.0289 H   0  0  0  0  0  0  0  0  0  0  0  0
    5.8935    4.6874   -1.7895 H   0  0  0  0  0  0  0  0  0  0  0  0
    7.9947    5.2227   -0.1281 H   0  0  0  0  0  0  0  0  0  0  0  0
    5.6493    6.5138   -0.4124 H   0  0  0  0  0  0  0  0  0  0  0  0
    7.0003    7.4892    0.1572 H   0  0  0  0  0  0  0  0  0  0  0  0
    6.9276    8.7553   -1.7999 H   0  0  0  0  0  0  0  0  0  0  0  0
    5.6299    7.7543   -2.4439 H   0  0  0  0  0  0  0  0  0  0  0  0
    8.0386    7.6308   -3.6792 H   0  0  0  0  0  0  0  0  0  0  0  0
    6.0025    5.8636   -3.7675 H   0  0  0  0  0  0  0  0  0  0  0  0
    9.1360    7.3251   -1.3010 H   0  0  0  0  0  0  0  0  0  0  0  0
    9.4185    5.8665   -2.2776 H   0  0  0  0  0  0  0  0  0  0  0  0
    6.2408    4.1912   -5.5010 H   0  0  0  0  0  0  0  0  0  0  0  0
    6.4149    6.8738   -5.7691 H   0  0  0  0  0  0  0  0  0  0  0  0
    4.9418    5.1479   -7.2186 H   0  0  0  0  0  0  0  0  0  0  0  0
    5.3244    6.7012   -7.9573 H   0  0  0  0  0  0  0  0  0  0  0  0
    6.6510    5.6517   -9.5598 H   0  0  0  0  0  0  0  0  0  0  0  0
    6.2775    4.0766   -8.8641 H   0  0  0  0  0  0  0  0  0  0  0  0
    8.8374    4.8985   -8.6747 H   0  0  0  0  0  0  0  0  0  0  0  0
    7.5071    3.1228   -7.1205 H   0  0  0  0  0  0  0  0  0  0  0  0
    8.9126    6.5089   -6.6046 H   0  0  0  0  0  0  0  0  0  0  0  0
    7.9365    7.2592   -7.8907 H   0  0  0  0  0  0  0  0  0  0  0  0
    8.7612    2.2782   -4.8861 H   0  0  0  0  0  0  0  0  0  0  0  0
   10.4985    2.1973   -5.2767 H   0  0  0  0  0  0  0  0  0  0  0  0
    9.2948    1.5584   -6.4033 H   0  0  0  0  0  0  0  0  0  0  0  0
  2  1  1  6  0  0  0
  2  6  1  0  0  0  0
  3 18  2  0  0  0  0
  5 34  2  0  0  0  0
  6  8  1  0  0  0  0
  7 13  1  0  0  0  0
  7  2  1  0  0  0  0
  8 36  1  0  0  0  0
  8  9  2  0  0  0  0
  9 37  1  0  0  0  0
 10  9  1  0  0  0  0
 10 38  1  0  0  0  0
 11 10  2  0  0  0  0
 12  6  1  0  0  0  0
 12 11  1  0  0  0  0
 13 12  2  0  0  0  0
 14 13  1  0  0  0  0
 14 40  1  0  0  0  0
 15 14  2  0  0  0  0
 16 17  2  0  0  0  0
 16 15  1  0  0  0  0
 17  7  1  0  0  0  0
 18 19  1  0  0  0  0
 18  2  1  0  0  0  0
 19 44  1  1  0  0  0
 19 20  1  0  0  0  0
 20 21  1  0  0  0  0
 20 45  1  1  0  0  0
 21 46  1  0  0  0  0
 21 47  1  0  0  0  0
 22 48  1  0  0  0  0
 22 21  1  0  0  0  0
 23 50  1  6  0  0  0
 23 22  1  0  0  0  0
 23 25  1  0  0  0  0
 24 51  1  6  0  0  0
 24 23  1  0  0  0  0
 24 19  1  0  0  0  0
 25 52  1  0  0  0  0
 25 20  1  0  0  0  0
 26  4  2  0  0  0  0
 26 24  1  0  0  0  0
 27 54  1  1  0  0  0
 27 26  1  0  0  0  0
 28 55  1  1  0  0  0
 28 27  1  0  0  0  0
 29 56  1  0  0  0  0
 29 28  1  0  0  0  0
 30 31  1  0  0  0  0
 30 29  1  0  0  0  0
 31 60  1  6  0  0  0
 31 33  1  0  0  0  0
 31 32  1  0  0  0  0
 32 61  1  6  0  0  0
 32 34  1  0  0  0  0
 32 27  1  0  0  0  0
 33 62  1  0  0  0  0
 33 28  1  0  0  0  0
 34 35  1  0  0  0  0
 35 65  1  0  0  0  0
 35 64  1  0  0  0  0
 39 11  1  0  0  0  0
 41 15  1  0  0  0  0
 42 16  1  0  0  0  0
 43 17  1  0  0  0  0
 49 22  1  0  0  0  0
 53 25  1  0  0  0  0
 57 29  1  0  0  0  0
 58 30  1  0  0  0  0
 59 30  1  0  0  0  0
 63 33  1  0  0  0  0
 66 35  1  0  0  0  0
M  END
$$$$
