CSD_code = PETKAA | q = 0 | S = 0 | Stoichiometry = C13H27ClF6P3Rh | MND = 6
 OpenBabel04212202083D

 51 51  0  0  0  0  0  0  0  0999 V2000
    9.2415    0.5604    6.7859 Rh  0  0  0  0  0  0  0  0  0  0  0  0
   10.3228   -0.7073    5.1562 P   0  0  0  0  0  4  0  0  0  0  0  0
   10.4682    2.5295    6.2761 P   0  0  0  0  0  4  0  0  0  0  0  0
    7.9024    1.6285    8.3663 P   0  0  0  0  0  4  0  0  0  0  0  0
   11.0606    0.3957    8.2789 Cl  0  0  0  0  0  0  0  0  0  0  0  0
    9.2921   -2.2723    7.3328 F   0  0  0  0  0  0  0  0  0  0  0  0
    8.1781   -1.1962    8.8131 F   0  0  0  0  0  0  0  0  0  0  0  0
    6.4886   -2.5926    7.0055 F   0  0  0  0  0  0  0  0  0  0  0  0
    5.6618   -0.7553    5.0492 F   0  0  0  0  0  0  0  0  0  0  0  0
    7.9491    0.6582    4.1846 F   0  0  0  0  0  0  0  0  0  0  0  0
    6.8290    1.7399    5.6780 F   0  0  0  0  0  0  0  0  0  0  0  0
    8.4445   -1.1876    7.4568 C   0  0  0  0  0  0  0  0  0  0  0  0
    7.1704   -1.4749    6.7068 C   0  0  0  0  0  0  0  0  0  0  0  0
    6.7804   -0.6043    5.7811 C   0  0  0  0  0  0  0  0  0  0  0  0
    7.6274    0.6158    5.5323 C   0  0  0  0  0  0  0  0  0  0  0  0
   10.7386    0.0978    3.5507 C   0  0  0  0  0  0  0  0  0  0  0  0
   11.9110   -1.4263    5.6893 C   0  0  0  0  0  0  0  0  0  0  0  0
    9.5026   -2.1860    4.4424 C   0  0  0  0  0  0  0  0  0  0  0  0
   12.2306    2.3081    5.8093 C   0  0  0  0  0  0  0  0  0  0  0  0
    9.8864    3.6941    4.9739 C   0  0  0  0  0  0  0  0  0  0  0  0
   10.8069    3.6768    7.6694 C   0  0  0  0  0  0  0  0  0  0  0  0
    6.2412    0.9613    8.7716 C   0  0  0  0  0  0  0  0  0  0  0  0
    7.3619    3.3588    8.0263 C   0  0  0  0  0  0  0  0  0  0  0  0
    8.6366    1.7359   10.0315 C   0  0  0  0  0  0  0  0  0  0  0  0
   11.6688   -0.3203    3.1683 H   0  0  0  0  0  0  0  0  0  0  0  0
    9.9339   -0.1041    2.8482 H   0  0  0  0  0  0  0  0  0  0  0  0
   10.8317    1.1742    3.6478 H   0  0  0  0  0  0  0  0  0  0  0  0
   12.3383   -2.0201    4.8815 H   0  0  0  0  0  0  0  0  0  0  0  0
   12.5965   -0.6369    5.9885 H   0  0  0  0  0  0  0  0  0  0  0  0
   11.7210   -2.0557    6.5568 H   0  0  0  0  0  0  0  0  0  0  0  0
   10.1561   -2.5637    3.6552 H   0  0  0  0  0  0  0  0  0  0  0  0
    9.3511   -2.9660    5.1818 H   0  0  0  0  0  0  0  0  0  0  0  0
    8.5460   -1.9074    4.0048 H   0  0  0  0  0  0  0  0  0  0  0  0
   12.6699    3.2882    5.6237 H   0  0  0  0  0  0  0  0  0  0  0  0
   12.7261    1.8395    6.6580 H   0  0  0  0  0  0  0  0  0  0  0  0
   12.3627    1.6821    4.9329 H   0  0  0  0  0  0  0  0  0  0  0  0
   10.5714    4.5347    4.8723 H   0  0  0  0  0  0  0  0  0  0  0  0
    9.8070    3.1705    4.0233 H   0  0  0  0  0  0  0  0  0  0  0  0
    8.8938    4.0609    5.2277 H   0  0  0  0  0  0  0  0  0  0  0  0
   11.3885    4.5198    7.2960 H   0  0  0  0  0  0  0  0  0  0  0  0
    9.9037    4.0445    8.1451 H   0  0  0  0  0  0  0  0  0  0  0  0
   11.3935    3.1227    8.4003 H   0  0  0  0  0  0  0  0  0  0  0  0
    5.7797    1.6605    9.4698 H   0  0  0  0  0  0  0  0  0  0  0  0
    5.6317    0.9048    7.8719 H   0  0  0  0  0  0  0  0  0  0  0  0
    6.2965   -0.0183    9.2359 H   0  0  0  0  0  0  0  0  0  0  0  0
    7.3506    3.9247    8.9570 H   0  0  0  0  0  0  0  0  0  0  0  0
    8.0076    3.8487    7.3046 H   0  0  0  0  0  0  0  0  0  0  0  0
    6.3592    3.3284    7.6070 H   0  0  0  0  0  0  0  0  0  0  0  0
    7.9419    2.2293   10.7110 H   0  0  0  0  0  0  0  0  0  0  0  0
    8.8412    0.7235   10.3748 H   0  0  0  0  0  0  0  0  0  0  0  0
    9.5799    2.2754    9.9894 H   0  0  0  0  0  0  0  0  0  0  0  0
  1 12  1  0  0  0  0
  1  5  1  0  0  0  0
  1  4  1  0  0  0  0
  2 17  1  0  0  0  0
  2  1  1  0  0  0  0
  3  1  1  0  0  0  0
  3 21  1  0  0  0  0
  4 22  1  0  0  0  0
  4 24  1  0  0  0  0
  6 12  1  0  0  0  0
  9 14  1  0  0  0  0
 10 15  1  0  0  0  0
 12  7  1  0  0  0  0
 13  8  1  0  0  0  0
 13 12  1  0  0  0  0
 14 13  2  0  0  0  0
 15 11  1  0  0  0  0
 15 14  1  0  0  0  0
 15  1  1  0  0  0  0
 16 27  1  0  0  0  0
 16  2  1  0  0  0  0
 17 29  1  0  0  0  0
 17 30  1  0  0  0  0
 18  2  1  0  0  0  0
 18 32  1  0  0  0  0
 19  3  1  0  0  0  0
 19 35  1  0  0  0  0
 20 39  1  0  0  0  0
 20  3  1  0  0  0  0
 21 41  1  0  0  0  0
 21 42  1  0  0  0  0
 22 45  1  0  0  0  0
 22 43  1  0  0  0  0
 23  4  1  0  0  0  0
 23 46  1  0  0  0  0
 24 50  1  0  0  0  0
 24 49  1  0  0  0  0
 25 16  1  0  0  0  0
 26 16  1  0  0  0  0
 28 17  1  0  0  0  0
 31 18  1  0  0  0  0
 33 18  1  0  0  0  0
 34 19  1  0  0  0  0
 36 19  1  0  0  0  0
 37 20  1  0  0  0  0
 38 20  1  0  0  0  0
 40 21  1  0  0  0  0
 44 22  1  0  0  0  0
 47 23  1  0  0  0  0
 48 23  1  0  0  0  0
 51 24  1  0  0  0  0
M  END
$$$$
