CSD_code = PETKAB | q = 1 | S = 0 | Stoichiometry = C9H27ClP3Pt(1+) | MND = 4
 OpenBabel04212202083D

 41 40  0  0  0  0  0  0  0  0999 V2000
    9.7943    1.9805    6.9395 Pt  0  0  0  0  0  0  0  0  0  0  0  0
   10.3622    4.0255    6.1370 Cl  0  0  0  0  0  0  0  0  0  0  0  0
    9.8958    1.2855    4.7132 P   0  0  0  0  0  4  0  0  0  0  0  0
    9.6113   -0.0955    7.9539 P   0  0  0  0  0  4  0  0  0  0  0  0
    9.4391    3.3136    8.8372 P   0  0  0  0  0  4  0  0  0  0  0  0
    8.0133   -0.5440    8.7174 C   0  0  0  0  0  0  0  0  0  0  0  0
    8.1154   -1.4793    9.2661 H   0  0  0  0  0  0  0  0  0  0  0  0
    7.2674   -0.6674    7.9341 H   0  0  0  0  0  0  0  0  0  0  0  0
    7.6778    0.2376    9.3924 H   0  0  0  0  0  0  0  0  0  0  0  0
   10.9744    4.0556    9.4792 C   0  0  0  0  0  0  0  0  0  0  0  0
   10.7315    4.7593   10.2746 H   0  0  0  0  0  0  0  0  0  0  0  0
   11.4861    4.5796    8.6748 H   0  0  0  0  0  0  0  0  0  0  0  0
   11.6321    3.2803    9.8690 H   0  0  0  0  0  0  0  0  0  0  0  0
   10.0246   -1.6418    7.0659 C   0  0  0  0  0  0  0  0  0  0  0  0
   11.0589   -1.6031    6.7307 H   0  0  0  0  0  0  0  0  0  0  0  0
    9.3722   -1.7973    6.2107 H   0  0  0  0  0  0  0  0  0  0  0  0
    9.9096   -2.4804    7.7522 H   0  0  0  0  0  0  0  0  0  0  0  0
    8.6266    2.7017   10.3677 C   0  0  0  0  0  0  0  0  0  0  0  0
    9.1173    1.8250   10.7801 H   0  0  0  0  0  0  0  0  0  0  0  0
    7.5870    2.4619   10.1528 H   0  0  0  0  0  0  0  0  0  0  0  0
    8.6512    3.4963   11.1125 H   0  0  0  0  0  0  0  0  0  0  0  0
    8.3554    0.4180    4.2379 C   0  0  0  0  0  0  0  0  0  0  0  0
    7.5204    1.1095    4.3446 H   0  0  0  0  0  0  0  0  0  0  0  0
    8.1733   -0.4438    4.8745 H   0  0  0  0  0  0  0  0  0  0  0  0
    8.4196    0.0946    3.2002 H   0  0  0  0  0  0  0  0  0  0  0  0
    9.9652    2.5894    3.4449 C   0  0  0  0  0  0  0  0  0  0  0  0
   10.9188    3.1106    3.4982 H   0  0  0  0  0  0  0  0  0  0  0  0
    9.1675    3.3118    3.6063 H   0  0  0  0  0  0  0  0  0  0  0  0
    9.8526    2.1317    2.4621 H   0  0  0  0  0  0  0  0  0  0  0  0
   11.2359    0.1762    4.1509 C   0  0  0  0  0  0  0  0  0  0  0  0
   11.1722    0.0648    3.0692 H   0  0  0  0  0  0  0  0  0  0  0  0
   11.1633   -0.8018    4.6159 H   0  0  0  0  0  0  0  0  0  0  0  0
   12.1967    0.6207    4.4052 H   0  0  0  0  0  0  0  0  0  0  0  0
    8.3607    4.7466    8.5004 C   0  0  0  0  0  0  0  0  0  0  0  0
    8.1980    5.2937    9.4286 H   0  0  0  0  0  0  0  0  0  0  0  0
    7.4024    4.3999    8.1150 H   0  0  0  0  0  0  0  0  0  0  0  0
    8.8180    5.4017    7.7640 H   0  0  0  0  0  0  0  0  0  0  0  0
   10.8237   -0.2121    9.3193 C   0  0  0  0  0  0  0  0  0  0  0  0
   10.7159   -1.1650    9.8358 H   0  0  0  0  0  0  0  0  0  0  0  0
   10.6986    0.6010   10.0287 H   0  0  0  0  0  0  0  0  0  0  0  0
   11.8259   -0.1460    8.8969 H   0  0  0  0  0  0  0  0  0  0  0  0
  1  4  1  0  0  0  0
  1  5  1  0  0  0  0
  2  1  1  0  0  0  0
  3  1  1  0  0  0  0
  4  6  1  0  0  0  0
  4 38  1  0  0  0  0
  5 10  1  0  0  0  0
  5 18  1  0  0  0  0
  6  7  1  0  0  0  0
  6  9  1  0  0  0  0
  8  6  1  0  0  0  0
 10 13  1  0  0  0  0
 10 11  1  0  0  0  0
 12 10  1  0  0  0  0
 14 17  1  0  0  0  0
 14  4  1  0  0  0  0
 15 14  1  0  0  0  0
 16 14  1  0  0  0  0
 18 19  1  0  0  0  0
 18 21  1  0  0  0  0
 20 18  1  0  0  0  0
 22 23  1  0  0  0  0
 22  3  1  0  0  0  0
 22 24  1  0  0  0  0
 25 22  1  0  0  0  0
 26 27  1  0  0  0  0
 26 28  1  0  0  0  0
 26  3  1  0  0  0  0
 29 26  1  0  0  0  0
 30 33  1  0  0  0  0
 30 32  1  0  0  0  0
 30  3  1  0  0  0  0
 31 30  1  0  0  0  0
 34  5  1  0  0  0  0
 34 35  1  0  0  0  0
 36 34  1  0  0  0  0
 37 34  1  0  0  0  0
 38 39  1  0  0  0  0
 38 40  1  0  0  0  0
 41 38  1  0  0  0  0
M  END
$$$$
