CSD_code = PETLAE | q = 0 | S = 0 | Stoichiometry = C25H20Cl2Hf | MND = 12
 OpenBabel04212202083D

 48 53  0  0  1  0  0  0  0  0999 V2000
    1.8882    7.8810    3.3517 Hf  0  0  0  0  0  0  0  0  0  0  0  0
    4.0247    7.0754    3.1068 Cl  0  0  0  0  0  0  0  0  0  0  0  0
    1.4466    6.5381    5.1638 Cl  0  0  0  0  0  0  0  0  0  0  0  0
    2.9370   10.1060    3.5980 C   0  0  0  0  0  0  0  0  0  0  0  0
    3.8472   10.4309    2.5776 C   0  0  0  0  0  0  0  0  0  0  0  0
    3.5006   10.7575    1.6065 H   0  0  0  0  0  0  0  0  0  0  0  0
    5.1981   10.3534    2.8395 C   0  0  0  0  0  0  0  0  0  0  0  0
    5.9036   10.6038    2.0615 H   0  0  0  0  0  0  0  0  0  0  0  0
    5.6773    9.9568    4.0897 C   0  0  0  0  0  0  0  0  0  0  0  0
    6.7424    9.9010    4.2526 H   0  0  0  0  0  0  0  0  0  0  0  0
    4.8092    9.6398    5.1144 C   0  0  0  0  0  0  0  0  0  0  0  0
    5.1844    9.3415    6.0821 H   0  0  0  0  0  0  0  0  0  0  0  0
    3.4370    9.7154    4.8884 C   0  0  0  0  0  0  0  0  0  0  0  0
    2.3057    9.5124    5.7577 C   0  0  0  0  0  0  0  0  0  0  0  0
    2.2187    9.1812    7.1070 C   0  0  0  0  0  0  0  0  0  0  0  0
    3.1137    8.9816    7.6769 H   0  0  0  0  0  0  0  0  0  0  0  0
    0.9756    9.1175    7.7030 C   0  0  0  0  0  0  0  0  0  0  0  0
    0.8942    8.8591    8.7474 H   0  0  0  0  0  0  0  0  0  0  0  0
   -0.1831    9.3960    6.9771 C   0  0  0  0  0  0  0  0  0  0  0  0
   -1.1393    9.3594    7.4779 H   0  0  0  0  0  0  0  0  0  0  0  0
   -0.1300    9.7219    5.6381 C   0  0  0  0  0  0  0  0  0  0  0  0
   -1.0349    9.9672    5.0986 H   0  0  0  0  0  0  0  0  0  0  0  0
    1.1163    9.7668    4.9992 C   0  0  0  0  0  0  0  0  0  0  0  0
    1.4795   10.0664    3.6242 C   0  0  0  0  0  0  0  0  0  0  0  0
    0.5764   10.7786    2.6377 C   0  0  0  0  0  0  0  0  0  0  0  0
    1.1957   11.2225    1.8557 H   0  0  0  0  0  0  0  0  0  0  0  0
    0.0477   11.5965    3.1375 H   0  0  0  0  0  0  0  0  0  0  0  0
   -0.4534    9.8168    1.9971 C   0  0  0  0  0  0  0  0  0  0  0  0
   -1.3271    9.7250    2.6450 H   0  0  0  0  0  0  0  0  0  0  0  0
   -0.7914   10.2291    1.0417 H   0  0  0  0  0  0  0  0  0  0  0  0
    0.1613    8.4582    1.8020 C   0  0  1  0  0  3  0  0  0  0  0  0
    1.2869    8.1633    0.9605 C   0  0  0  0  0  0  0  0  0  0  0  0
    2.0258    8.9336    0.0425 C   0  0  0  0  0  0  0  0  0  0  0  0
    1.7783    9.9731   -0.1237 H   0  0  0  0  0  0  0  0  0  0  0  0
    3.0271    8.3328   -0.6793 C   0  0  0  0  0  0  0  0  0  0  0  0
    3.5976    8.9138   -1.3883 H   0  0  0  0  0  0  0  0  0  0  0  0
    3.3181    6.9670   -0.5315 C   0  0  0  0  0  0  0  0  0  0  0  0
    4.1088    6.5357   -1.1257 H   0  0  0  0  0  0  0  0  0  0  0  0
    2.6080    6.1759    0.3360 C   0  0  0  0  0  0  0  0  0  0  0  0
    2.8216    5.1208    0.4288 H   0  0  0  0  0  0  0  0  0  0  0  0
    1.5815    6.7549    1.1011 C   0  0  0  0  0  0  0  0  0  0  0  0
    0.6613    6.2146    2.0481 C   0  0  0  0  0  3  0  0  0  0  0  0
    0.5492    5.1664    2.2921 H   0  0  0  0  0  0  0  0  0  0  0  0
   -0.2289    7.2491    2.4398 C   0  0  1  0  0  0  0  0  0  0  0  0
   -1.4091    7.0684    3.3521 C   0  0  0  0  0  0  0  0  0  0  0  0
   -2.3157    7.4589    2.8891 H   0  0  0  0  0  0  0  0  0  0  0  0
   -1.2560    7.5802    4.3053 H   0  0  0  0  0  0  0  0  0  0  0  0
   -1.5579    6.0116    3.5615 H   0  0  0  0  0  0  0  0  0  0  0  0
  1 24  1  0  0  0  0
  1  3  1  0  0  0  0
  2  1  1  0  0  0  0
  4 24  1  0  0  0  0
  4 13  1  0  0  0  0
  5  7  1  0  0  0  0
  5  4  2  0  0  0  0
  6  5  1  0  0  0  0
  7  9  2  0  0  0  0
  8  7  1  0  0  0  0
  9 10  1  0  0  0  0
  9 11  1  0  0  0  0
 11 12  1  0  0  0  0
 13 11  2  0  0  0  0
 13 14  1  0  0  0  0
 14 15  1  0  0  0  0
 15 16  1  0  0  0  0
 15 17  2  0  0  0  0
 17 18  1  0  0  0  0
 19 20  1  0  0  0  0
 19 17  1  0  0  0  0
 21 19  2  0  0  0  0
 22 21  1  0  0  0  0
 23 21  1  0  0  0  0
 23 14  2  0  0  0  0
 24 23  1  0  0  0  0
 25 27  1  0  0  0  0
 25 24  1  0  0  0  0
 26 25  1  0  0  0  0
 28 25  1  0  0  0  0
 28 29  1  0  0  0  0
 30 28  1  0  0  0  0
 31 32  1  1  0  0  0
 31 28  1  0  0  0  0
 31 44  1  0  0  0  0
 32 41  1  0  0  0  0
 33 32  2  0  0  0  0
 34 33  1  0  0  0  0
 35 37  2  0  0  0  0
 35 33  1  0  0  0  0
 36 35  1  0  0  0  0
 37 39  1  0  0  0  0
 38 37  1  0  0  0  0
 39 40  1  0  0  0  0
 39 41  2  0  0  0  0
 41 42  1  0  0  0  0
 42 43  1  0  0  0  0
 42 44  1  0  0  0  0
 44  1  1  0  0  0  0
 44 45  1  1  0  0  0
 45 48  1  0  0  0  0
 45 47  1  0  0  0  0
 46 45  1  0  0  0  0
M  END
$$$$
