CSD_code = PETLIK | q = 0 | S = 0 | Stoichiometry = C16H22BCl3P2Pt | MND = 4
 OpenBabel04212202083D

 45 46  0  0  0  0  0  0  0  0999 V2000
   -1.4108    0.2804   13.0511 C   0  0  0  0  0  0  0  0  0  0  0  0
   -2.2742   -0.1374   12.5343 H   0  0  0  0  0  0  0  0  0  0  0  0
   -1.7392    1.0690   13.7255 H   0  0  0  0  0  0  0  0  0  0  0  0
   -0.9202   -0.4956   13.6358 H   0  0  0  0  0  0  0  0  0  0  0  0
    1.6125    2.1872   12.4664 Pt  0  0  0  0  0  0  0  0  0  0  0  0
    1.9620    2.2609   10.0741 Cl  0  0  0  0  0  0  0  0  0  0  0  0
   -0.2160    0.9754   11.8423 P   0  0  0  0  0  4  0  0  0  0  0  0
    3.4246    3.5671   12.5729 P   0  0  0  0  0  4  0  0  0  0  0  0
    1.2660    2.2481   14.4476 B   0  0  0  0  0  0  0  0  0  0  0  0
   -2.1872    1.8278    9.9906 C   0  0  0  0  0  0  0  0  0  0  0  0
   -2.3442    0.7911    9.7295 H   0  0  0  0  0  0  0  0  0  0  0  0
   -1.2427    2.1748   10.9467 C   0  0  0  0  0  0  0  0  0  0  0  0
    4.8861    3.0407   11.6120 C   0  0  0  0  0  0  0  0  0  0  0  0
    4.5688    2.8640   10.5856 H   0  0  0  0  0  0  0  0  0  0  0  0
    5.2836    2.1154   12.0258 H   0  0  0  0  0  0  0  0  0  0  0  0
    5.6509    3.8168   11.6468 H   0  0  0  0  0  0  0  0  0  0  0  0
    0.0507   -0.4408   10.7245 C   0  0  0  0  0  0  0  0  0  0  0  0
    0.6751   -1.1704   11.2407 H   0  0  0  0  0  0  0  0  0  0  0  0
    0.5744   -0.0911    9.8368 H   0  0  0  0  0  0  0  0  0  0  0  0
   -0.8963   -0.9048   10.4514 H   0  0  0  0  0  0  0  0  0  0  0  0
   -1.0443    3.5155   11.2651 C   0  0  0  0  0  0  0  0  0  0  0  0
   -0.2875    3.7747   12.0101 H   0  0  0  0  0  0  0  0  0  0  0  0
    4.1589    3.9124   14.2010 C   0  0  0  0  0  0  0  0  0  0  0  0
   -1.7805    4.4988   10.6329 C   0  0  0  0  0  0  0  0  0  0  0  0
   -1.6201    5.5382   10.8780 H   0  0  0  0  0  0  0  0  0  0  0  0
    5.0730    2.9499   16.2106 C   0  0  0  0  0  0  0  0  0  0  0  0
    5.3576    2.0810   16.7853 H   0  0  0  0  0  0  0  0  0  0  0  0
   -2.9215    2.8153    9.3570 C   0  0  0  0  0  0  0  0  0  0  0  0
   -3.6501    2.5442    8.6068 H   0  0  0  0  0  0  0  0  0  0  0  0
    4.5335    2.7989   14.9488 C   0  0  0  0  0  0  0  0  0  0  0  0
    4.3776    1.8110   14.5310 H   0  0  0  0  0  0  0  0  0  0  0  0
    5.2345    4.2204   16.7420 C   0  0  0  0  0  0  0  0  0  0  0  0
    5.6472    4.3430   17.7323 H   0  0  0  0  0  0  0  0  0  0  0  0
    3.0204    5.1897   11.8458 C   0  0  0  0  0  0  0  0  0  0  0  0
    2.2437    5.6734   12.4375 H   0  0  0  0  0  0  0  0  0  0  0  0
    2.6402    5.0058   10.8409 H   0  0  0  0  0  0  0  0  0  0  0  0
    3.9064    5.8220   11.7924 H   0  0  0  0  0  0  0  0  0  0  0  0
   -2.7202    4.1476    9.6764 C   0  0  0  0  0  0  0  0  0  0  0  0
   -3.2920    4.9142    9.1744 H   0  0  0  0  0  0  0  0  0  0  0  0
    4.3184    5.1806   14.7399 C   0  0  0  0  0  0  0  0  0  0  0  0
    4.0160    6.0539   14.1821 H   0  0  0  0  0  0  0  0  0  0  0  0
    4.8557    5.3304   16.0075 C   0  0  0  0  0  0  0  0  0  0  0  0
    4.9721    6.3197   16.4256 H   0  0  0  0  0  0  0  0  0  0  0  0
    0.8819    3.7968   15.1510 Cl  0  0  0  0  0  0  0  0  0  0  0  0
    1.3130    0.9419   15.5745 Cl  0  0  0  0  0  0  0  0  0  0  0  0
  1  4  1  0  0  0  0
  1  3  1  0  0  0  0
  2  1  1  0  0  0  0
  5  8  1  0  0  0  0
  5  9  2  0  0  0  0
  6  5  1  0  0  0  0
  7  5  1  0  0  0  0
  7  1  1  0  0  0  0
  8 23  1  0  0  0  0
  9 44  1  0  0  0  0
  9 45  1  0  0  0  0
 10 12  1  0  0  0  0
 11 10  1  0  0  0  0
 12 21  2  0  0  0  0
 12  7  1  0  0  0  0
 13 16  1  0  0  0  0
 13 15  1  0  0  0  0
 13  8  1  0  0  0  0
 14 13  1  0  0  0  0
 17 18  1  0  0  0  0
 17  7  1  0  0  0  0
 19 17  1  0  0  0  0
 20 17  1  0  0  0  0
 21 22  1  0  0  0  0
 23 40  2  0  0  0  0
 23 30  1  0  0  0  0
 24 25  1  0  0  0  0
 24 21  1  0  0  0  0
 26 32  1  0  0  0  0
 26 27  1  0  0  0  0
 28 38  1  0  0  0  0
 28 10  2  0  0  0  0
 29 28  1  0  0  0  0
 30 26  2  0  0  0  0
 31 30  1  0  0  0  0
 32 33  1  0  0  0  0
 34 35  1  0  0  0  0
 34  8  1  0  0  0  0
 36 34  1  0  0  0  0
 37 34  1  0  0  0  0
 38 24  2  0  0  0  0
 39 38  1  0  0  0  0
 40 42  1  0  0  0  0
 41 40  1  0  0  0  0
 42 43  1  0  0  0  0
 42 32  2  0  0  0  0
M  END
$$$$
