CSD_code = PETXUK | q = 0 | S = 0 | Stoichiometry = C24H16BrF5N2Pd | MND = 4
 OpenBabel04212202083D

 49 53  0  0  1  0  0  0  0  0999 V2000
    7.5956    5.5448   12.1905 Pd  0  0  1  0  0  0  0  0  0  0  0  0
    5.7550    5.4530   10.6875 Br  0  0  0  0  0  0  0  0  0  0  0  0
    7.0438    7.3643   13.1862 N   0  0  0  0  0  0  0  0  0  0  0  0
    8.5639    5.3262   14.1293 N   0  0  0  0  0  0  0  0  0  0  0  0
    8.7325    4.2035   11.1419 C   0  0  1  0  0  0  0  0  0  0  0  0
    9.4634    3.8271   11.8742 H   0  0  0  0  0  0  0  0  0  0  0  0
    8.0711    3.0215   10.4284 C   0  0  0  0  0  0  0  0  0  0  0  0
    7.4244    2.5034   11.1446 H   0  0  0  0  0  0  0  0  0  0  0  0
    7.4609    3.3530    9.5902 H   0  0  0  0  0  0  0  0  0  0  0  0
    9.3287    5.2936   10.3432 C   0  0  0  0  0  0  0  0  0  0  0  0
   10.2837    6.1174   10.9745 C   0  0  0  0  0  0  0  0  0  0  0  0
   10.6285    5.8627   11.9741 H   0  0  0  0  0  0  0  0  0  0  0  0
   10.8262    7.2099   10.3251 C   0  0  0  0  0  0  0  0  0  0  0  0
   11.5570    7.8254   10.8308 H   0  0  0  0  0  0  0  0  0  0  0  0
   10.4435    7.5100    9.0274 C   0  0  0  0  0  0  0  0  0  0  0  0
   10.8714    8.3606    8.5185 H   0  0  0  0  0  0  0  0  0  0  0  0
    9.5091    6.7095    8.3896 C   0  0  0  0  0  0  0  0  0  0  0  0
    9.2050    6.9382    7.3792 H   0  0  0  0  0  0  0  0  0  0  0  0
    8.9529    5.6205    9.0323 C   0  0  0  0  0  0  0  0  0  0  0  0
    8.2146    5.0309    8.5119 H   0  0  0  0  0  0  0  0  0  0  0  0
    9.1365    2.0748    9.9571 C   0  0  0  0  0  0  0  0  0  0  0  0
    9.8433    1.2902   10.8658 C   0  0  0  0  0  0  0  0  0  0  0  0
   10.8714    0.4417   10.4787 C   0  0  0  0  0  0  0  0  0  0  0  0
   11.2235    0.3612    9.1351 C   0  0  0  0  0  0  0  0  0  0  0  0
   10.5354    1.1299    8.2027 C   0  0  0  0  0  0  0  0  0  0  0  0
    9.5085    1.9711    8.6199 C   0  0  0  0  0  0  0  0  0  0  0  0
    9.5234    1.3547   12.1692 F   0  0  0  0  0  0  0  0  0  0  0  0
   11.5219   -0.2916   11.3881 F   0  0  0  0  0  0  0  0  0  0  0  0
   12.2116   -0.4477    8.7465 F   0  0  0  0  0  0  0  0  0  0  0  0
   10.8620    1.0559    6.9102 F   0  0  0  0  0  0  0  0  0  0  0  0
    8.8580    2.6838    7.6961 F   0  0  0  0  0  0  0  0  0  0  0  0
    7.7842    7.5851   14.2867 C   0  0  1  0  0  3  0  0  0  0  0  0
    7.9956    8.8727   14.7743 C   0  0  0  0  0  0  0  0  0  0  0  0
    8.6164    9.0306   15.6421 H   0  0  0  0  0  0  0  0  0  0  0  0
    7.4244    9.9453   14.1125 C   0  0  0  0  0  0  0  0  0  0  0  0
    7.5802   10.9519   14.4695 H   0  0  0  0  0  0  0  0  0  0  0  0
    6.6534    9.7029   12.9846 C   0  0  0  0  0  0  0  0  0  0  0  0
    6.1860   10.5100   12.4444 H   0  0  0  0  0  0  0  0  0  0  0  0
    6.4926    8.3961   12.5554 C   0  0  0  0  0  0  0  0  0  0  0  0
    5.8869    8.1608   11.6866 H   0  0  0  0  0  0  0  0  0  0  0  0
    8.3406    6.3850   14.9300 C   0  0  1  0  0  3  0  0  0  0  0  0
    8.5825    6.3253   16.3011 C   0  0  0  0  0  0  0  0  0  0  0  0
    8.3746    7.1810   16.9236 H   0  0  0  0  0  0  0  0  0  0  0  0
    9.0584    5.1512   16.8553 C   0  0  0  0  0  0  0  0  0  0  0  0
    9.2502    5.0837   17.9151 H   0  0  0  0  0  0  0  0  0  0  0  0
    9.2685    4.0607   16.0231 C   0  0  0  0  0  0  0  0  0  0  0  0
    9.6285    3.1220   16.4116 H   0  0  0  0  0  0  0  0  0  0  0  0
    9.0060    4.1946   14.6711 C   0  0  0  0  0  0  0  0  0  0  0  0
    9.1619    3.3582   14.0004 H   0  0  0  0  0  0  0  0  0  0  0  0
  1  2  1  1  0  0  0
  1  3  1  0  0  0  0
  1  4  1  0  0  0  0
  3 32  1  0  0  0  0
  4 48  1  0  0  0  0
  4 41  1  0  0  0  0
  5  6  1  1  0  0  0
  5  1  1  0  0  0  0
  7  5  1  0  0  0  0
  7  8  1  0  0  0  0
  9  7  1  0  0  0  0
 10 11  1  0  0  0  0
 10  5  1  0  0  0  0
 11 12  1  0  0  0  0
 13 14  1  0  0  0  0
 13 11  2  0  0  0  0
 15 13  1  0  0  0  0
 16 15  1  0  0  0  0
 17 15  2  0  0  0  0
 17 19  1  0  0  0  0
 18 17  1  0  0  0  0
 19 10  2  0  0  0  0
 20 19  1  0  0  0  0
 21  7  1  0  0  0  0
 21 22  1  0  0  0  0
 22 27  1  0  0  0  0
 23 22  2  0  0  0  0
 23 28  1  0  0  0  0
 24 23  1  0  0  0  0
 25 26  1  0  0  0  0
 25 24  2  0  0  0  0
 26 21  2  0  0  0  0
 29 24  1  0  0  0  0
 30 25  1  0  0  0  0
 31 26  1  0  0  0  0
 32 33  1  1  0  0  0
 32 41  1  0  0  0  0
 33 34  1  0  0  0  0
 35 36  1  0  0  0  0
 35 33  2  0  0  0  0
 37 35  1  0  0  0  0
 38 37  1  0  0  0  0
 39 37  2  0  0  0  0
 39  3  1  0  0  0  0
 40 39  1  0  0  0  0
 41 42  1  1  0  0  0
 42 44  2  0  0  0  0
 42 43  1  0  0  0  0
 44 45  1  0  0  0  0
 46 47  1  0  0  0  0
 46 44  1  0  0  0  0
 48 46  2  0  0  0  0
 49 48  1  0  0  0  0
M  END
$$$$
