CSD_code = PEVSUH | q = 0 | S = 0 | Stoichiometry = C36H30F2Ti | MND = 12
 OpenBabel04212202083D

 69 74  0  0  1  0  0  0  0  0999 V2000
   10.9757    0.8942   19.5492 Ti  0  0  0  0  0  0  0  0  0  0  0  0
   10.9028   -0.3345   20.8031 F   0  0  0  0  0  0  0  0  0  0  0  0
    8.9812    1.5783   20.6054 C   0  0  2  0  0  3  0  0  0  0  0  0
    9.5218    2.7045   19.9495 C   0  0  2  0  0  0  0  0  0  0  0  0
    9.7691    3.6493   20.4160 H   0  0  0  0  0  0  0  0  0  0  0  0
    9.4828    2.4640   18.5529 C   0  0  0  0  0  3  0  0  0  0  0  0
    9.7017    3.1882   17.7788 H   0  0  0  0  0  0  0  0  0  0  0  0
    8.8946    1.2042   18.3471 C   0  0  0  0  0  0  0  0  0  0  0  0
    8.6556    0.7601   17.3911 H   0  0  0  0  0  0  0  0  0  0  0  0
    8.6093    0.6418   19.6075 C   0  0  0  0  0  0  0  0  0  0  0  0
    8.1124   -0.3036   19.7862 H   0  0  0  0  0  0  0  0  0  0  0  0
    8.7030    1.4194   22.0792 C   0  0  0  0  0  0  0  0  0  0  0  0
    8.7699    0.3493   22.3179 H   0  0  0  0  0  0  0  0  0  0  0  0
    9.7453    2.1516   22.8971 C   0  0  0  0  0  0  0  0  0  0  0  0
   10.8467    1.4683   23.3983 C   0  0  0  0  0  0  0  0  0  0  0  0
   10.9407    0.4055   23.2230 H   0  0  0  0  0  0  0  0  0  0  0  0
   11.8158    2.1376   24.1268 C   0  0  0  0  0  0  0  0  0  0  0  0
   12.6654    1.5968   24.5176 H   0  0  0  0  0  0  0  0  0  0  0  0
   11.6959    3.4970   24.3613 C   0  0  0  0  0  0  0  0  0  0  0  0
   12.4517    4.0192   24.9293 H   0  0  0  0  0  0  0  0  0  0  0  0
   10.5971    4.1830   23.8711 C   0  0  0  0  0  0  0  0  0  0  0  0
   10.4937    5.2422   24.0579 H   0  0  0  0  0  0  0  0  0  0  0  0
    9.6263    3.5145   23.1461 C   0  0  0  0  0  0  0  0  0  0  0  0
    8.7619    4.0507   22.7804 H   0  0  0  0  0  0  0  0  0  0  0  0
    7.3109    1.8887   22.4586 C   0  0  0  0  0  0  0  0  0  0  0  0
    6.8561    1.6347   23.7482 C   0  0  0  0  0  0  0  0  0  0  0  0
    7.4956    1.1050   24.4402 H   0  0  0  0  0  0  0  0  0  0  0  0
    5.6023    2.0552   24.1494 C   0  0  0  0  0  0  0  0  0  0  0  0
    5.2619    1.8500   25.1539 H   0  0  0  0  0  0  0  0  0  0  0  0
    4.7832    2.7371   23.2645 C   0  0  0  0  0  0  0  0  0  0  0  0
    3.8025    3.0654   23.5757 H   0  0  0  0  0  0  0  0  0  0  0  0
    5.2284    2.9935   21.9801 C   0  0  0  0  0  0  0  0  0  0  0  0
    4.5948    3.5242   21.2843 H   0  0  0  0  0  0  0  0  0  0  0  0
    6.4856    2.5734   21.5784 C   0  0  0  0  0  0  0  0  0  0  0  0
    6.8230    2.7774   20.5725 H   0  0  0  0  0  0  0  0  0  0  0  0
   11.0473   -0.3337   18.2945 F   0  0  0  0  0  0  0  0  0  0  0  0
   12.9710    1.5765   18.4932 C   0  0  0  0  0  0  0  0  0  0  0  0
   12.4317    2.7030   19.1498 C   0  0  2  0  0  0  0  0  0  0  0  0
   12.1855    3.6484   18.6839 H   0  0  0  0  0  0  0  0  0  0  0  0
   12.4702    2.4617   20.5463 C   0  0  0  0  0  0  0  0  0  0  0  0
   12.2520    3.1856   21.3209 H   0  0  0  0  0  0  0  0  0  0  0  0
   13.0573    1.2011   20.7512 C   0  0  0  0  0  0  0  0  0  0  0  0
   13.2959    0.7563   21.7070 H   0  0  0  0  0  0  0  0  0  0  0  0
   13.3418    0.6391   19.4906 C   0  0  0  0  0  0  0  0  0  0  0  0
   13.8376   -0.3068   19.3113 H   0  0  0  0  0  0  0  0  0  0  0  0
   13.2488    1.4181   17.0193 C   0  0  0  0  0  0  0  0  0  0  0  0
   13.1810    0.3482   16.7801 H   0  0  0  0  0  0  0  0  0  0  0  0
   12.2069    2.1516   16.2021 C   0  0  0  0  0  0  0  0  0  0  0  0
   11.1050    1.4694   15.7003 C   0  0  0  0  0  0  0  0  0  0  0  0
   11.0104    0.4065   15.8747 H   0  0  0  0  0  0  0  0  0  0  0  0
   10.1363    2.1401   14.9726 C   0  0  0  0  0  0  0  0  0  0  0  0
    9.2863    1.6000   14.5813 H   0  0  0  0  0  0  0  0  0  0  0  0
   10.2571    3.4995   14.7392 C   0  0  0  0  0  0  0  0  0  0  0  0
    9.5014    4.0227   14.1719 H   0  0  0  0  0  0  0  0  0  0  0  0
   11.3564    4.1843   15.2298 C   0  0  0  0  0  0  0  0  0  0  0  0
   11.4603    5.2437   15.0438 H   0  0  0  0  0  0  0  0  0  0  0  0
   12.3268    3.5146   15.9541 C   0  0  0  0  0  0  0  0  0  0  0  0
   13.1917    4.0500   16.3200 H   0  0  0  0  0  0  0  0  0  0  0  0
   14.6412    1.8865   16.6396 C   0  0  0  0  0  0  0  0  0  0  0  0
   15.0952    1.6329   15.3497 C   0  0  0  0  0  0  0  0  0  0  0  0
   14.4552    1.1036   14.6578 H   0  0  0  0  0  0  0  0  0  0  0  0
   16.3489    2.0532   14.9479 C   0  0  0  0  0  0  0  0  0  0  0  0
   16.6888    1.8479   13.9434 H   0  0  0  0  0  0  0  0  0  0  0  0
   17.1688    2.7342   15.8328 C   0  0  0  0  0  0  0  0  0  0  0  0
   18.1494    3.0623   15.5212 H   0  0  0  0  0  0  0  0  0  0  0  0
   16.7244    2.9901   17.1176 C   0  0  0  0  0  0  0  0  0  0  0  0
   17.3585    3.5205   17.8132 H   0  0  0  0  0  0  0  0  0  0  0  0
   15.4671    2.5705   17.5197 C   0  0  0  0  0  0  0  0  0  0  0  0
   15.1303    2.7744   18.5258 H   0  0  0  0  0  0  0  0  0  0  0  0
  1  4  1  0  0  0  0
  1  2  1  0  0  0  0
  3 12  1  6  0  0  0
  4  5  1  1  0  0  0
  4  3  1  0  0  0  0
  6  4  1  0  0  0  0
  7  6  1  0  0  0  0
  8  6  1  0  0  0  0
  8 10  2  0  0  0  0
  9  8  1  0  0  0  0
 10 11  1  0  0  0  0
 10  3  1  0  0  0  0
 12 13  1  0  0  0  0
 12 25  1  0  0  0  0
 12 14  1  0  0  0  0
 14 23  2  0  0  0  0
 14 15  1  0  0  0  0
 15 17  2  0  0  0  0
 16 15  1  0  0  0  0
 17 19  1  0  0  0  0
 17 18  1  0  0  0  0
 19 20  1  0  0  0  0
 21 22  1  0  0  0  0
 21 19  2  0  0  0  0
 23 21  1  0  0  0  0
 24 23  1  0  0  0  0
 25 26  1  0  0  0  0
 26 28  2  0  0  0  0
 26 27  1  0  0  0  0
 28 29  1  0  0  0  0
 30 31  1  0  0  0  0
 30 28  1  0  0  0  0
 32 30  2  0  0  0  0
 33 32  1  0  0  0  0
 34 32  1  0  0  0  0
 34 25  2  0  0  0  0
 35 34  1  0  0  0  0
 36  1  1  0  0  0  0
 37 38  1  0  0  0  0
 37 44  2  0  0  0  0
 38 39  1  6  0  0  0
 38  1  1  0  0  0  0
 38 40  1  0  0  0  0
 40 42  2  0  0  0  0
 40 41  1  0  0  0  0
 42 43  1  0  0  0  0
 44 42  1  0  0  0  0
 45 44  1  0  0  0  0
 46 37  1  0  0  0  0
 47 46  1  0  0  0  0
 48 46  1  0  0  0  0
 49 50  1  0  0  0  0
 49 48  2  0  0  0  0
 51 49  1  0  0  0  0
 52 51  1  0  0  0  0
 53 51  2  0  0  0  0
 53 55  1  0  0  0  0
 54 53  1  0  0  0  0
 55 57  2  0  0  0  0
 56 55  1  0  0  0  0
 57 48  1  0  0  0  0
 57 58  1  0  0  0  0
 59 46  1  0  0  0  0
 59 68  1  0  0  0  0
 60 59  2  0  0  0  0
 61 60  1  0  0  0  0
 62 60  1  0  0  0  0
 62 64  2  0  0  0  0
 63 62  1  0  0  0  0
 64 66  1  0  0  0  0
 65 64  1  0  0  0  0
 66 68  2  0  0  0  0
 66 67  1  0  0  0  0
 68 69  1  0  0  0  0
M  END
$$$$
