CSD_code = PEVWIZ | q = 0 | S = 0 | Stoichiometry = C30H26Cl2N4PRh | MND = 6
 OpenBabel04212202083D

 64 70  0  0  0  0  0  0  0  0999 V2000
   10.2052    9.6927    8.0597 Rh  0  0  0  0  0  0  0  0  0  0  0  0
    9.3686   11.7319    7.3801 P   0  0  0  0  0  4  0  0  0  0  0  0
    9.8188    9.0860    5.8254 Cl  0  0  0  0  0  0  0  0  0  0  0  0
   11.0863    7.6108    8.6644 Cl  0  0  0  0  0  0  0  0  0  0  0  0
   12.2714   10.1489    7.7515 N   0  0  0  0  0  4  0  0  0  0  0  0
   12.5303    9.1452    7.7425 H   0  0  0  0  0  0  0  0  0  0  0  0
   12.6823   10.5866    6.9247 H   0  0  0  0  0  0  0  0  0  0  0  0
   10.5949   10.2796    9.8773 N   0  0  0  0  0  0  0  0  0  0  0  0
    9.7959   10.3539   10.8585 N   0  0  0  0  0  2  0  0  0  0  0  0
    8.4259    9.0748    8.5844 N   0  0  0  0  0  0  0  0  0  0  0  0
    7.9035    8.5095    7.9166 H   0  0  0  0  0  0  0  0  0  0  0  0
    7.8517    9.2798    9.7493 C   0  0  0  0  0  0  0  0  0  0  0  0
    6.5148    8.8482    9.9868 C   0  0  0  0  0  0  0  0  0  0  0  0
    6.0152    8.3099    9.1922 H   0  0  0  0  0  0  0  0  0  0  0  0
    5.8737    9.1028   11.1598 C   0  0  0  0  0  0  0  0  0  0  0  0
    4.8563    8.7677   11.2996 H   0  0  0  0  0  0  0  0  0  0  0  0
    6.5200    9.8005   12.1995 C   0  0  0  0  0  0  0  0  0  0  0  0
    5.9904    9.9989   13.1182 H   0  0  0  0  0  0  0  0  0  0  0  0
    7.8110   10.2002   12.0380 C   0  0  0  0  0  0  0  0  0  0  0  0
    8.3419   10.7189   12.8211 H   0  0  0  0  0  0  0  0  0  0  0  0
    8.5265    9.9555   10.8389 C   0  0  0  0  0  0  0  0  0  0  0  0
   11.8894   10.7393   10.0721 C   0  0  0  0  0  0  0  0  0  0  0  0
   12.3397   11.2483   11.2930 C   0  0  0  0  0  0  0  0  0  0  0  0
   11.6678   11.2290   12.1359 H   0  0  0  0  0  0  0  0  0  0  0  0
   13.6100   11.7769   11.3908 C   0  0  0  0  0  0  0  0  0  0  0  0
   13.9529   12.1736   12.3342 H   0  0  0  0  0  0  0  0  0  0  0  0
   14.4458   11.8125   10.2834 C   0  0  0  0  0  0  0  0  0  0  0  0
   15.4337   12.2388   10.3633 H   0  0  0  0  0  0  0  0  0  0  0  0
   14.0183   11.2895    9.0737 C   0  0  0  0  0  0  0  0  0  0  0  0
   14.6705   11.3053    8.2118 H   0  0  0  0  0  0  0  0  0  0  0  0
   12.7524   10.7401    8.9632 C   0  0  0  0  0  0  0  0  0  0  0  0
    8.8508   12.7391    8.8090 C   0  0  0  0  0  0  0  0  0  0  0  0
    9.8543   13.2005    9.6613 C   0  0  0  0  0  0  0  0  0  0  0  0
   10.8925   13.0713    9.3835 H   0  0  0  0  0  0  0  0  0  0  0  0
    9.5331   13.8183   10.8533 C   0  0  0  0  0  0  0  0  0  0  0  0
   10.3211   14.1671   11.5044 H   0  0  0  0  0  0  0  0  0  0  0  0
    8.2048   13.9768   11.2153 C   0  0  0  0  0  0  0  0  0  0  0  0
    7.9519   14.4468   12.1539 H   0  0  0  0  0  0  0  0  0  0  0  0
    7.2031   13.5322   10.3700 C   0  0  0  0  0  0  0  0  0  0  0  0
    6.1667   13.6593   10.6457 H   0  0  0  0  0  0  0  0  0  0  0  0
    7.5210   12.9144    9.1728 C   0  0  0  0  0  0  0  0  0  0  0  0
    6.7309   12.5747    8.5193 H   0  0  0  0  0  0  0  0  0  0  0  0
   10.5749   12.7817    6.5072 C   0  0  0  0  0  0  0  0  0  0  0  0
   10.7480   14.1345    6.7794 C   0  0  0  0  0  0  0  0  0  0  0  0
   10.1532   14.6171    7.5411 H   0  0  0  0  0  0  0  0  0  0  0  0
   11.6767   14.8695    6.0626 C   0  0  0  0  0  0  0  0  0  0  0  0
   11.8069   15.9198    6.2786 H   0  0  0  0  0  0  0  0  0  0  0  0
   12.4296   14.2683    5.0677 C   0  0  0  0  0  0  0  0  0  0  0  0
   13.1522   14.8480    4.5127 H   0  0  0  0  0  0  0  0  0  0  0  0
   12.2421   12.9263    4.7755 C   0  0  0  0  0  0  0  0  0  0  0  0
   12.8116   12.4596    3.9851 H   0  0  0  0  0  0  0  0  0  0  0  0
   11.3190   12.1844    5.4896 C   0  0  0  0  0  0  0  0  0  0  0  0
   11.1348   11.1447    5.2476 H   0  0  0  0  0  0  0  0  0  0  0  0
    7.9424   11.7512    6.2494 C   0  0  0  0  0  0  0  0  0  0  0  0
    7.9762   12.4403    5.0418 C   0  0  0  0  0  0  0  0  0  0  0  0
    8.8536   13.0021    4.7584 H   0  0  0  0  0  0  0  0  0  0  0  0
    6.8867   12.4020    4.1893 C   0  0  0  0  0  0  0  0  0  0  0  0
    6.9261   12.9352    3.2506 H   0  0  0  0  0  0  0  0  0  0  0  0
    5.7563   11.6794    4.5290 C   0  0  0  0  0  0  0  0  0  0  0  0
    4.9119   11.6448    3.8567 H   0  0  0  0  0  0  0  0  0  0  0  0
    5.7155   10.9924    5.7312 C   0  0  0  0  0  0  0  0  0  0  0  0
    4.8378   10.4227    6.0005 H   0  0  0  0  0  0  0  0  0  0  0  0
    6.8015   11.0249    6.5851 C   0  0  0  0  0  0  0  0  0  0  0  0
    6.7704   10.4768    7.5150 H   0  0  0  0  0  0  0  0  0  0  0  0
  1 10  1  0  0  0  0
  1  4  1  0  0  0  0
  1  8  1  0  0  0  0
  2  1  1  0  0  0  0
  2 32  1  0  0  0  0
  3  1  1  0  0  0  0
  5  1  1  0  0  0  0
  5 31  1  0  0  0  0
  6  5  1  0  0  0  0
  7  5  1  0  0  0  0
  8 22  1  0  0  0  0
  8  9  1  0  0  0  0
 10 12  1  0  0  0  0
 11 10  1  0  0  0  0
 12 13  2  0  0  0  0
 12 21  1  0  0  0  0
 13 15  1  0  0  0  0
 14 13  1  0  0  0  0
 15 16  1  0  0  0  0
 15 17  2  0  0  0  0
 17 18  1  0  0  0  0
 19 17  1  0  0  0  0
 19 20  1  0  0  0  0
 21  9  1  0  0  0  0
 21 19  2  0  0  0  0
 22 23  1  0  0  0  0
 23 25  2  0  0  0  0
 23 24  1  0  0  0  0
 25 26  1  0  0  0  0
 27 28  1  0  0  0  0
 27 25  1  0  0  0  0
 29 27  2  0  0  0  0
 30 29  1  0  0  0  0
 31 29  1  0  0  0  0
 31 22  2  0  0  0  0
 32 41  2  0  0  0  0
 32 33  1  0  0  0  0
 33 35  2  0  0  0  0
 34 33  1  0  0  0  0
 35 37  1  0  0  0  0
 35 36  1  0  0  0  0
 37 38  1  0  0  0  0
 39 40  1  0  0  0  0
 39 37  2  0  0  0  0
 41 39  1  0  0  0  0
 42 41  1  0  0  0  0
 43 44  1  0  0  0  0
 43  2  1  0  0  0  0
 44 45  1  0  0  0  0
 46 47  1  0  0  0  0
 46 44  2  0  0  0  0
 48 46  1  0  0  0  0
 49 48  1  0  0  0  0
 50 48  2  0  0  0  0
 50 52  1  0  0  0  0
 51 50  1  0  0  0  0
 52 43  2  0  0  0  0
 53 52  1  0  0  0  0
 54 63  1  0  0  0  0
 54  2  1  0  0  0  0
 55 54  2  0  0  0  0
 56 55  1  0  0  0  0
 57 59  2  0  0  0  0
 57 55  1  0  0  0  0
 58 57  1  0  0  0  0
 59 61  1  0  0  0  0
 60 59  1  0  0  0  0
 61 62  1  0  0  0  0
 61 63  2  0  0  0  0
 63 64  1  0  0  0  0
M  END
$$$$
