CSD_code = PEWWUL | q = 0 | S = 0 | Stoichiometry = C35H25Br2Cl2NO2PRe | MND = 6
 OpenBabel04212202083D

 69 75  0  0  0  0  0  0  0  0999 V2000
    9.1129   18.7291    3.0251 Re  0  0  0  0  0  0  0  0  0  0  0  0
    8.5409   18.4297    4.5530 O   0  0  0  0  0  1  0  0  0  0  0  0
    9.5215   19.3994    1.2888 O   0  0  0  0  0  0  0  0  0  0  0  0
    7.1208   19.5845    2.2023 N   0  0  0  0  0  0  0  0  0  0  0  0
    9.8862   20.9945    3.6999 P   0  0  0  0  0  4  0  0  0  0  0  0
    3.7635   15.8680    9.8043 Cl  0  0  0  0  0  0  0  0  0  0  0  0
    1.3228   17.1011    8.2714 Cl  0  0  0  0  0  0  0  0  0  0  0  0
   11.3952   17.9027    3.3567 Br  0  0  0  0  0  0  0  0  0  0  0  0
    8.3786   16.5544    2.0523 Br  0  0  0  0  0  0  0  0  0  0  0  0
    9.7993   21.2903    5.4867 C   0  0  0  0  0  0  0  0  0  0  0  0
    9.4636   22.5375    6.0077 C   0  0  0  0  0  0  0  0  0  0  0  0
    9.2226   23.3559    5.3424 H   0  0  0  0  0  0  0  0  0  0  0  0
    9.4402   22.7247    7.3775 C   0  0  0  0  0  0  0  0  0  0  0  0
    9.1791   23.6922    7.7806 H   0  0  0  0  0  0  0  0  0  0  0  0
    9.7525   21.6769    8.2295 C   0  0  0  0  0  0  0  0  0  0  0  0
    9.7300   21.8292    9.2982 H   0  0  0  0  0  0  0  0  0  0  0  0
   10.0923   20.4373    7.7125 C   0  0  0  0  0  0  0  0  0  0  0  0
   10.3365   19.6215    8.3754 H   0  0  0  0  0  0  0  0  0  0  0  0
   10.1184   20.2405    6.3434 C   0  0  0  0  0  0  0  0  0  0  0  0
   10.3750   19.2715    5.9356 H   0  0  0  0  0  0  0  0  0  0  0  0
   11.5591   21.5153    3.2206 C   0  0  0  0  0  0  0  0  0  0  0  0
   12.3065   22.3447    4.0518 C   0  0  0  0  0  0  0  0  0  0  0  0
   11.9028   22.6699    4.9998 H   0  0  0  0  0  0  0  0  0  0  0  0
   13.5726   22.7439    3.6653 C   0  0  0  0  0  0  0  0  0  0  0  0
   14.1505   23.3855    4.3140 H   0  0  0  0  0  0  0  0  0  0  0  0
   14.1027   22.3172    2.4586 C   0  0  0  0  0  0  0  0  0  0  0  0
   15.0948   22.6261    2.1658 H   0  0  0  0  0  0  0  0  0  0  0  0
   13.3652   21.4840    1.6339 C   0  0  0  0  0  0  0  0  0  0  0  0
   13.7811   21.1376    0.6998 H   0  0  0  0  0  0  0  0  0  0  0  0
   12.0979   21.0817    2.0117 C   0  0  0  0  0  0  0  0  0  0  0  0
   11.5369   20.4133    1.3740 H   0  0  0  0  0  0  0  0  0  0  0  0
    8.7685   22.2112    2.9564 C   0  0  0  0  0  0  0  0  0  0  0  0
    9.1081   22.9150    1.8063 C   0  0  0  0  0  0  0  0  0  0  0  0
   10.1088   22.8385    1.4032 H   0  0  0  0  0  0  0  0  0  0  0  0
    8.1639   23.7112    1.1822 C   0  0  0  0  0  0  0  0  0  0  0  0
    8.4288   24.2532    0.2869 H   0  0  0  0  0  0  0  0  0  0  0  0
    6.8826   23.8073    1.6985 C   0  0  0  0  0  0  0  0  0  0  0  0
    6.1477   24.4250    1.2050 H   0  0  0  0  0  0  0  0  0  0  0  0
    6.5407   23.1093    2.8471 C   0  0  0  0  0  0  0  0  0  0  0  0
    5.5418   23.1844    3.2509 H   0  0  0  0  0  0  0  0  0  0  0  0
    7.4753   22.3067    3.4709 C   0  0  0  0  0  0  0  0  0  0  0  0
    7.2143   21.7416    4.3570 H   0  0  0  0  0  0  0  0  0  0  0  0
    7.3474   20.1201    0.9940 C   0  0  0  0  0  0  0  0  0  0  0  0
    8.6851   20.0107    0.5004 C   0  0  0  0  0  0  0  0  0  0  0  0
    8.9907   20.5453   -0.7403 C   0  0  0  0  0  0  0  0  0  0  0  0
    9.9947   20.4536   -1.1255 H   0  0  0  0  0  0  0  0  0  0  0  0
    7.9986   21.1847   -1.4827 C   0  0  0  0  0  0  0  0  0  0  0  0
    8.2597   21.5945   -2.4470 H   0  0  0  0  0  0  0  0  0  0  0  0
    6.7085   21.2978   -1.0234 C   0  0  0  0  0  3  0  0  0  0  0  0
    5.9523   21.7893   -1.6157 H   0  0  0  0  0  0  0  0  0  0  0  0
    6.3518   20.7582    0.2221 C   0  0  0  0  0  0  0  0  0  0  0  0
    5.0588   20.7859    0.7894 C   0  0  0  0  0  0  0  0  0  0  0  0
    4.2552   21.2638    0.2487 H   0  0  0  0  0  0  0  0  0  0  0  0
    4.8384   20.1971    1.9986 C   0  0  0  0  0  0  0  0  0  0  0  0
    3.8536   20.1985    2.4355 H   0  0  0  0  0  0  0  0  0  0  0  0
    5.8946   19.5765    2.7142 C   0  0  0  0  0  0  0  0  0  0  0  0
    5.7049   18.9290    3.9857 C   0  0  0  0  0  0  0  0  0  0  0  0
    6.6273   18.5974    4.4476 H   0  0  0  0  0  0  0  0  0  0  0  0
    4.5368   18.6756    4.5986 C   0  0  0  0  0  0  0  0  0  0  0  0
    3.6028   18.9808    4.1444 H   0  0  0  0  0  0  0  0  0  0  0  0
    4.3945   17.9879    5.8646 C   0  0  0  0  0  0  0  0  0  0  0  0
    3.1148   17.8683    6.4158 C   0  0  0  0  0  0  0  0  0  0  0  0
    2.2625   18.2837    5.8997 H   0  0  0  0  0  0  0  0  0  0  0  0
    2.9146   17.2234    7.6210 C   0  0  0  0  0  0  0  0  0  0  0  0
    3.9977   16.6745    8.3048 C   0  0  0  0  0  0  0  0  0  0  0  0
    5.2721   16.7806    7.7623 C   0  0  0  0  0  0  0  0  0  0  0  0
    6.1052   16.3457    8.2912 H   0  0  0  0  0  0  0  0  0  0  0  0
    5.4716   17.4277    6.5614 C   0  0  0  0  0  0  0  0  0  0  0  0
    6.4710   17.4838    6.1617 H   0  0  0  0  0  0  0  0  0  0  0  0
  1  8  1  0  0  0  0
  1  5  1  0  0  0  0
  1  2  1  0  0  0  0
  3  1  1  0  0  0  0
  4 56  1  0  0  0  0
  4  1  1  0  0  0  0
  5 10  1  0  0  0  0
  9  1  1  0  0  0  0
 10 11  2  0  0  0  0
 10 19  1  0  0  0  0
 11 13  1  0  0  0  0
 12 11  1  0  0  0  0
 13 14  1  0  0  0  0
 13 15  2  0  0  0  0
 15 16  1  0  0  0  0
 17 15  1  0  0  0  0
 17 18  1  0  0  0  0
 19 17  2  0  0  0  0
 20 19  1  0  0  0  0
 21  5  1  0  0  0  0
 21 22  1  0  0  0  0
 22 23  1  0  0  0  0
 24 22  2  0  0  0  0
 24 25  1  0  0  0  0
 26 24  1  0  0  0  0
 27 26  1  0  0  0  0
 28 30  1  0  0  0  0
 28 26  2  0  0  0  0
 29 28  1  0  0  0  0
 30 21  2  0  0  0  0
 31 30  1  0  0  0  0
 32 41  1  0  0  0  0
 32  5  1  0  0  0  0
 33 32  2  0  0  0  0
 34 33  1  0  0  0  0
 35 37  2  0  0  0  0
 35 33  1  0  0  0  0
 36 35  1  0  0  0  0
 37 39  1  0  0  0  0
 38 37  1  0  0  0  0
 39 40  1  0  0  0  0
 39 41  2  0  0  0  0
 41 42  1  0  0  0  0
 43  4  1  0  0  0  0
 44 43  2  0  0  0  0
 44  3  1  0  0  0  0
 45 44  1  0  0  0  0
 46 45  1  0  0  0  0
 47 49  1  0  0  0  0
 47 45  2  0  0  0  0
 48 47  1  0  0  0  0
 49 51  1  0  0  0  0
 50 49  1  0  0  0  0
 51 52  2  0  0  0  0
 51 43  1  0  0  0  0
 52 54  1  0  0  0  0
 53 52  1  0  0  0  0
 54 55  1  0  0  0  0
 54 56  2  0  0  0  0
 56 57  1  0  0  0  0
 57 58  1  0  0  0  0
 57 59  2  0  0  0  0
 59 61  1  0  0  0  0
 60 59  1  0  0  0  0
 61 62  2  0  0  0  0
 61 68  1  0  0  0  0
 62 64  1  0  0  0  0
 63 62  1  0  0  0  0
 64  7  1  0  0  0  0
 64 65  2  0  0  0  0
 65  6  1  0  0  0  0
 66 67  1  0  0  0  0
 66 65  1  0  0  0  0
 68 66  2  0  0  0  0
 69 68  1  0  0  0  0
M  END
$$$$
