CSD_code = PEWWOF | q = 0 | S = 0 | Stoichiometry = C9H20ClNORuS2 | MND = 6
 OpenBabel04212202083D

 35 36  0  0  1  0  0  0  0  0999 V2000
    4.1101    3.9852    3.3978 Ru  0  0  0  0  0  0  0  0  0  0  0  0
    5.0411    2.7394    1.5909 Cl  0  0  0  0  0  0  0  0  0  0  0  0
    2.1445    2.6575    3.0633 S   0  0  1  0  0  3  0  0  0  0  0  0
    6.0178    5.4081    3.1916 S   0  0  1  0  0  3  0  0  0  0  0  0
    5.2930    2.3010    5.5624 O   0  0  0  0  0  1  0  0  0  0  0  0
    3.3570    5.1087    1.7632 N   0  0  1  0  0  4  0  0  0  0  0  0
    4.8276    2.9503    4.7333 C   0  0  0  0  0  2  0  0  0  0  0  0
    7.1537    7.6090    4.4412 C   0  0  0  0  0  0  0  0  0  0  0  0
    8.0656    7.0233    4.5204 H   0  0  0  0  0  0  0  0  0  0  0  0
    7.1220    8.3161    5.2670 H   0  0  0  0  0  0  0  0  0  0  0  0
    7.1859    8.1719    3.5110 H   0  0  0  0  0  0  0  0  0  0  0  0
    5.4356    6.3565    1.7280 C   0  0  0  0  0  0  0  0  0  0  0  0
    5.9039    7.3387    1.7507 H   0  0  0  0  0  0  0  0  0  0  0  0
    5.8172    5.7900    0.8759 H   0  0  0  0  0  0  0  0  0  0  0  0
    0.8664    3.0892    4.3096 C   0  0  0  0  0  0  0  0  0  0  0  0
    0.7604    4.1725    4.3294 H   0  0  0  0  0  0  0  0  0  0  0  0
   -0.0623    2.6190    3.9839 H   0  0  0  0  0  0  0  0  0  0  0  0
    5.9429    6.6980    4.4945 C   0  0  0  0  0  0  0  0  0  0  0  0
    5.0071    7.2433    4.3855 H   0  0  0  0  0  0  0  0  0  0  0  0
    5.9121    6.1328    5.4259 H   0  0  0  0  0  0  0  0  0  0  0  0
    1.9111    5.0330    1.6054 C   0  0  0  0  0  0  0  0  0  0  0  0
    1.5840    5.5026    0.6620 H   0  0  0  0  0  0  0  0  0  0  0  0
    1.4368    5.5662    2.4386 H   0  0  0  0  0  0  0  0  0  0  0  0
    3.9171    6.4494    1.6676 C   0  0  0  0  0  0  0  0  0  0  0  0
    3.5359    7.0507    2.5026 H   0  0  0  0  0  0  0  0  0  0  0  0
    3.6236    6.9418    0.7248 H   0  0  0  0  0  0  0  0  0  0  0  0
    1.4931    3.5687    1.6041 C   0  0  0  0  0  0  0  0  0  0  0  0
    1.9290    3.0496    0.7476 H   0  0  0  0  0  0  0  0  0  0  0  0
    0.4105    3.4511    1.5906 H   0  0  0  0  0  0  0  0  0  0  0  0
    1.3162    2.5674    5.6589 C   0  0  0  0  0  0  0  0  0  0  0  0
    1.4310    1.4866    5.6312 H   0  0  0  0  0  0  0  0  0  0  0  0
    0.5907    2.8267    6.4259 H   0  0  0  0  0  0  0  0  0  0  0  0
    2.2783    3.0143    5.9115 H   0  0  0  0  0  0  0  0  0  0  0  0
    3.4266    4.9278    4.3904 H   0  0  0  0  0  0  0  0  0  0  0  0
    3.7933    4.5239    1.0270 H   0  0  0  0  0  0  0  0  0  0  0  0
  1 34  1  0  0  0  0
  1  7  1  0  0  0  0
  2  1  1  0  0  0  0
  3  1  1  0  0  0  0
  3 15  1  1  0  0  0
  4  1  1  0  0  0  0
  4 18  1  1  0  0  0
  6 35  1  6  0  0  0
  6  1  1  0  0  0  0
  7  5  1  0  0  0  0
  8 18  1  0  0  0  0
  8  9  1  0  0  0  0
  8 10  1  0  0  0  0
 11  8  1  0  0  0  0
 12 13  1  0  0  0  0
 12  4  1  0  0  0  0
 14 12  1  0  0  0  0
 15 16  1  0  0  0  0
 15 30  1  0  0  0  0
 17 15  1  0  0  0  0
 18 20  1  0  0  0  0
 19 18  1  0  0  0  0
 21  6  1  0  0  0  0
 21 23  1  0  0  0  0
 22 21  1  0  0  0  0
 24 12  1  0  0  0  0
 24  6  1  0  0  0  0
 24 25  1  0  0  0  0
 26 24  1  0  0  0  0
 27 21  1  0  0  0  0
 27  3  1  0  0  0  0
 28 27  1  0  0  0  0
 29 27  1  0  0  0  0
 30 33  1  0  0  0  0
 30 32  1  0  0  0  0
 31 30  1  0  0  0  0
M  END
$$$$
