CSD_code = PEWXIA | q = 0 | S = 0 | Stoichiometry = C35H24Cl5NO2PRe | MND = 6
 OpenBabel04212202083D

 69 75  0  0  1  0  0  0  0  0999 V2000
   14.2198    9.7417    6.5916 Re  0  0  0  0  0  0  0  0  0  0  0  0
   14.8221   11.2890    6.5493 O   0  0  0  0  0  1  0  0  0  0  0  0
   13.0088    8.1497    6.6685 O   0  0  0  0  0  0  0  0  0  0  0  0
   12.8356   10.0979    8.3768 N   0  0  0  0  0  0  0  0  0  0  0  0
   12.4499   10.2899    4.9408 P   0  0  0  0  0  4  0  0  0  0  0  0
   15.4531    8.8039    4.9291 Cl  0  0  0  0  0  0  0  0  0  0  0  0
   15.5877    8.7039    8.1164 Cl  0  0  0  0  0  0  0  0  0  0  0  0
   11.0876    5.8626    6.2940 Cl  0  0  0  0  0  0  0  0  0  0  0  0
    8.5252    8.1828   10.4013 Cl  0  0  0  0  0  0  0  0  0  0  0  0
   14.0402   15.5291   11.7316 Cl  0  0  0  0  0  0  0  0  0  0  0  0
   12.8011   11.7668    3.9452 C   0  0  0  0  0  0  0  0  0  0  0  0
   11.8356   12.7186    3.6355 C   0  0  0  0  0  0  0  0  0  0  0  0
   10.8308   12.6228    4.0241 H   0  0  0  0  0  0  0  0  0  0  0  0
   12.1701   13.7992    2.8386 C   0  0  0  0  0  0  0  0  0  0  0  0
   11.4209   14.5396    2.5992 H   0  0  0  0  0  0  0  0  0  0  0  0
   13.4597   13.9332    2.3510 C   0  0  0  0  0  0  0  0  0  0  0  0
   13.7140   14.7797    1.7306 H   0  0  0  0  0  0  0  0  0  0  0  0
   14.4236   12.9875    2.6638 C   0  0  0  0  0  0  0  0  0  0  0  0
   15.4301   13.0965    2.2894 H   0  0  0  0  0  0  0  0  0  0  0  0
   14.0990   11.9051    3.4605 C   0  0  0  0  0  0  0  0  0  0  0  0
   14.8437   11.1655    3.7245 H   0  0  0  0  0  0  0  0  0  0  0  0
   11.9422    9.0548    3.7102 C   0  0  0  0  0  0  0  0  0  0  0  0
   10.9630    9.4231    2.7882 C   0  0  0  0  0  0  0  0  0  0  0  0
   10.5501   10.4222    2.8112 H   0  0  0  0  0  0  0  0  0  0  0  0
   10.5241    8.5103    1.8491 C   0  0  0  0  0  0  0  0  0  0  0  0
    9.7640    8.7961    1.1368 H   0  0  0  0  0  0  0  0  0  0  0  0
   11.0583    7.2306    1.8213 C   0  0  0  0  0  0  0  0  0  0  0  0
   10.7113    6.5191    1.0868 H   0  0  0  0  0  0  0  0  0  0  0  0
   12.0371    6.8680    2.7300 C   0  0  0  0  0  0  0  0  0  0  0  0
   12.4568    5.8738    2.7064 H   0  0  0  0  0  0  0  0  0  0  0  0
   12.4841    7.7764    3.6748 C   0  0  0  0  0  0  0  0  0  0  0  0
   13.2537    7.4939    4.3764 H   0  0  0  0  0  0  0  0  0  0  0  0
   10.9398   10.6816    5.8627 C   0  0  0  0  0  0  0  0  0  0  0  0
    9.8376    9.8352    5.8983 C   0  0  0  0  0  0  0  0  0  0  0  0
    9.8146    8.9513    5.2766 H   0  0  0  0  0  0  0  0  0  0  0  0
    8.7739   10.1265    6.7351 C   0  0  0  0  0  0  0  0  0  0  0  0
    7.9197    9.4671    6.7638 H   0  0  0  0  0  0  0  0  0  0  0  0
    8.8066   11.2542    7.5381 C   0  0  0  0  0  0  0  0  0  0  0  0
    7.9774   11.4716    8.1940 H   0  0  0  0  0  0  0  0  0  0  0  0
    9.9054   12.1004    7.5060 C   0  0  0  0  0  0  0  0  0  0  0  0
    9.9314   12.9786    8.1339 H   0  0  0  0  0  0  0  0  0  0  0  0
   10.9726   11.8136    6.6777 C   0  0  0  0  0  0  0  0  0  0  0  0
   11.8492   12.4496    6.6561 H   0  0  0  0  0  0  0  0  0  0  0  0
   11.8859    9.1493    8.4428 C   0  0  2  0  0  3  0  0  0  0  0  0
   12.0048    8.0974    7.4804 C   0  0  0  0  0  0  0  0  0  0  0  0
   11.0156    7.1148    7.4751 C   0  0  0  0  0  0  0  0  0  0  0  0
    9.9586    7.1491    8.3829 C   0  0  0  0  0  0  0  0  0  0  0  0
    9.2111    6.3726    8.3445 H   0  0  0  0  0  0  0  0  0  0  0  0
    9.8623    8.1597    9.3105 C   0  0  0  0  0  0  0  0  0  0  0  0
   10.8223    9.1871    9.3736 C   0  0  0  0  0  0  0  0  0  0  0  0
   10.8240   10.2656   10.2833 C   0  0  0  0  0  0  0  0  0  0  0  0
   10.0416   10.3322   11.0235 H   0  0  0  0  0  0  0  0  0  0  0  0
   11.8212   11.1933   10.2237 C   0  0  0  0  0  0  0  0  0  0  0  0
   11.8570   12.0033   10.9332 H   0  0  0  0  0  0  0  0  0  0  0  0
   12.8421   11.1030    9.2448 C   0  0  0  0  0  0  0  0  0  0  0  0
   13.9178   12.0598    9.1608 C   0  0  0  0  0  0  0  0  0  0  0  0
   14.7750   11.7139    8.5980 H   0  0  0  0  0  0  0  0  0  0  0  0
   13.9196   13.2949    9.6850 C   0  0  0  0  0  0  0  0  0  0  0  0
   13.0767   13.6504   10.2625 H   0  0  0  0  0  0  0  0  0  0  0  0
   15.0121   14.2364    9.5394 C   0  0  0  0  0  0  0  0  0  0  0  0
   15.1530   15.3154   10.4221 C   0  0  0  0  0  0  0  0  0  0  0  0
   16.1892   16.2239   10.2981 C   0  0  0  0  0  0  0  0  0  0  0  0
   16.2734   17.0378   11.0016 H   0  0  0  0  0  0  0  0  0  0  0  0
   17.1081   16.0792    9.2736 C   0  0  0  0  0  0  0  0  0  0  0  0
   17.9154   16.7887    9.1764 H   0  0  0  0  0  0  0  0  0  0  0  0
   16.9831   15.0292    8.3769 C   0  0  0  0  0  0  0  0  0  0  0  0
   17.6929   14.9188    7.5717 H   0  0  0  0  0  0  0  0  0  0  0  0
   15.9504   14.1232    8.5067 C   0  0  0  0  0  0  0  0  0  0  0  0
   15.8472   13.3241    7.7890 H   0  0  0  0  0  0  0  0  0  0  0  0
  1  3  1  0  0  0  0
  1  7  1  0  0  0  0
  1  4  1  0  0  0  0
  2  1  1  0  0  0  0
  3 45  1  0  0  0  0
  4 44  1  0  0  0  0
  4 55  1  0  0  0  0
  5 33  1  0  0  0  0
  5  1  1  0  0  0  0
  6  1  1  0  0  0  0
  8 46  1  0  0  0  0
 11  5  1  0  0  0  0
 12 11  1  0  0  0  0
 12 13  1  0  0  0  0
 14 12  2  0  0  0  0
 15 14  1  0  0  0  0
 16 18  2  0  0  0  0
 16 14  1  0  0  0  0
 17 16  1  0  0  0  0
 18 20  1  0  0  0  0
 19 18  1  0  0  0  0
 20 21  1  0  0  0  0
 20 11  2  0  0  0  0
 22  5  1  0  0  0  0
 23 24  1  0  0  0  0
 23 22  2  0  0  0  0
 25 23  1  0  0  0  0
 26 25  1  0  0  0  0
 27 25  2  0  0  0  0
 27 29  1  0  0  0  0
 28 27  1  0  0  0  0
 29 31  2  0  0  0  0
 30 29  1  0  0  0  0
 31 22  1  0  0  0  0
 31 32  1  0  0  0  0
 33 34  2  0  0  0  0
 33 42  1  0  0  0  0
 34 36  1  0  0  0  0
 35 34  1  0  0  0  0
 36 37  1  0  0  0  0
 36 38  2  0  0  0  0
 38 39  1  0  0  0  0
 40 38  1  0  0  0  0
 40 41  1  0  0  0  0
 42 40  2  0  0  0  0
 43 42  1  0  0  0  0
 44 45  1  6  0  0  0
 44 50  1  0  0  0  0
 46 45  2  0  0  0  0
 46 47  1  0  0  0  0
 47 49  2  0  0  0  0
 48 47  1  0  0  0  0
 49 50  1  0  0  0  0
 49  9  1  0  0  0  0
 50 51  2  0  0  0  0
 51 52  1  0  0  0  0
 53 51  1  0  0  0  0
 53 54  1  0  0  0  0
 55 53  2  0  0  0  0
 56 55  1  0  0  0  0
 56 58  2  0  0  0  0
 57 56  1  0  0  0  0
 58 59  1  0  0  0  0
 60 58  1  0  0  0  0
 60 61  1  0  0  0  0
 61 10  1  0  0  0  0
 62 61  2  0  0  0  0
 62 63  1  0  0  0  0
 64 62  1  0  0  0  0
 65 64  1  0  0  0  0
 66 68  1  0  0  0  0
 66 64  2  0  0  0  0
 67 66  1  0  0  0  0
 68 60  2  0  0  0  0
 69 68  1  0  0  0  0
M  END
$$$$
