CSD_code = PEWXAS | q = 0 | S = 0 | Stoichiometry = C35H25Cl4NO2PRe | MND = 6
 OpenBabel04212202083D

 69 75  0  0  0  0  0  0  0  0999 V2000
    8.2468    7.6737    2.9585 Re  0  0  0  0  0  0  0  0  0  0  0  0
    8.2327    8.3543    4.4755 O   0  0  0  0  0  1  0  0  0  0  0  0
    8.7428    6.9235    1.2251 O   0  0  0  0  0  0  0  0  0  0  0  0
    9.8082    9.1257    2.0794 N   0  0  0  0  0  0  0  0  0  0  0  0
    9.9707    6.0204    3.6431 P   0  0  0  0  0  4  0  0  0  0  0  0
    6.6538    6.0691    3.2323 Cl  0  0  0  0  0  0  0  0  0  0  0  0
    6.6996    9.0179    1.9025 Cl  0  0  0  0  0  0  0  0  0  0  0  0
   10.1715    5.8879    5.4412 C   0  0  0  0  0  0  0  0  0  0  0  0
   11.4113    5.7703    6.0610 C   0  0  0  0  0  0  0  0  0  0  0  0
   12.3183    5.7858    5.4716 H   0  0  0  0  0  0  0  0  0  0  0  0
   11.4797    5.6448    7.4373 C   0  0  0  0  0  0  0  0  0  0  0  0
   12.4423    5.5558    7.9195 H   0  0  0  0  0  0  0  0  0  0  0  0
   10.3198    5.6350    8.1948 C   0  0  0  0  0  0  0  0  0  0  0  0
   10.3808    5.5391    9.2687 H   0  0  0  0  0  0  0  0  0  0  0  0
    9.0842    5.7542    7.5779 C   0  0  0  0  0  0  0  0  0  0  0  0
    8.1816    5.7520    8.1697 H   0  0  0  0  0  0  0  0  0  0  0  0
    9.0061    5.8817    6.2034 C   0  0  0  0  0  0  0  0  0  0  0  0
    8.0500    5.9902    5.7074 H   0  0  0  0  0  0  0  0  0  0  0  0
    9.8451    4.2952    3.0859 C   0  0  0  0  0  0  0  0  0  0  0  0
   10.6492    3.3321    3.6920 C   0  0  0  0  0  0  0  0  0  0  0  0
   11.3144    3.6127    4.4964 H   0  0  0  0  0  0  0  0  0  0  0  0
   10.5890    2.0185    3.2668 C   0  0  0  0  0  0  0  0  0  0  0  0
   11.2122    1.2731    3.7386 H   0  0  0  0  0  0  0  0  0  0  0  0
    9.7281    1.6573    2.2419 C   0  0  0  0  0  0  0  0  0  0  0  0
    9.6808    0.6288    1.9161 H   0  0  0  0  0  0  0  0  0  0  0  0
    8.9259    2.6128    1.6416 C   0  0  0  0  0  0  0  0  0  0  0  0
    8.2496    2.3311    0.8486 H   0  0  0  0  0  0  0  0  0  0  0  0
    8.9810    3.9313    2.0596 C   0  0  0  0  0  0  0  0  0  0  0  0
    8.3460    4.6735    1.6000 H   0  0  0  0  0  0  0  0  0  0  0  0
   11.5692    6.5936    3.0121 C   0  0  0  0  0  0  0  0  0  0  0  0
   12.1830    6.0069    1.9114 C   0  0  0  0  0  0  0  0  0  0  0  0
   11.7674    5.1068    1.4802 H   0  0  0  0  0  0  0  0  0  0  0  0
   13.3193    6.5817    1.3692 C   0  0  0  0  0  0  0  0  0  0  0  0
   13.7917    6.1275    0.5112 H   0  0  0  0  0  0  0  0  0  0  0  0
   13.8439    7.7395    1.9183 C   0  0  0  0  0  0  0  0  0  0  0  0
   14.7273    8.1873    1.4885 H   0  0  0  0  0  0  0  0  0  0  0  0
   13.2346    8.3278    3.0167 C   0  0  0  0  0  0  0  0  0  0  0  0
   13.6428    9.2323    3.4431 H   0  0  0  0  0  0  0  0  0  0  0  0
   12.0964    7.7639    3.5583 C   0  0  0  0  0  0  0  0  0  0  0  0
   11.5947    8.2240    4.4002 H   0  0  0  0  0  0  0  0  0  0  0  0
   10.2607    8.6467    0.9102 C   0  0  0  0  0  0  0  0  0  0  0  0
    9.6626    7.4268    0.4582 C   0  0  0  0  0  0  0  0  0  0  0  0
   10.0968    6.8733   -0.7380 C   0  0  0  0  0  0  0  0  0  0  0  0
    9.6457    5.9578   -1.0881 H   0  0  0  0  0  0  0  0  0  0  0  0
   11.0978    7.5021   -1.4754 C   0  0  0  0  0  0  0  0  0  0  0  0
   11.4176    7.0509   -2.4031 H   0  0  0  0  0  0  0  0  0  0  0  0
   11.6793    8.6752   -1.0562 C   0  0  0  0  0  3  0  0  0  0  0  0
   12.4491    9.1515   -1.6433 H   0  0  0  0  0  0  0  0  0  0  0  0
   11.2665    9.2770    0.1422 C   0  0  0  0  0  0  0  0  0  0  0  0
   11.7742   10.4868    0.6650 C   0  0  0  0  0  0  0  0  0  0  0  0
   12.5492   11.0116    0.1260 H   0  0  0  0  0  0  0  0  0  0  0  0
   11.2695   10.9818    1.8300 C   0  0  0  0  0  0  0  0  0  0  0  0
   11.6381   11.9102    2.2339 H   0  0  0  0  0  0  0  0  0  0  0  0
   10.2586   10.2878    2.5433 C   0  0  0  0  0  0  0  0  0  0  0  0
    9.6921   10.7860    3.7697 C   0  0  0  0  0  0  0  0  0  0  0  0
    9.0275   10.0809    4.2533 H   0  0  0  0  0  0  0  0  0  0  0  0
    9.8742   11.9995    4.3155 C   0  0  0  0  0  0  0  0  0  0  0  0
   10.5162   12.7281    3.8369 H   0  0  0  0  0  0  0  0  0  0  0  0
    9.2525   12.4562    5.5418 C   0  0  0  0  0  0  0  0  0  0  0  0
    9.6087   13.7120    6.0432 C   0  0  0  0  0  0  0  0  0  0  0  0
   10.3316   14.3189    5.5195 H   0  0  0  0  0  0  0  0  0  0  0  0
    9.0513   14.1983    7.2104 C   0  0  0  0  0  0  0  0  0  0  0  0
    8.1135   13.4368    7.9037 C   0  0  0  0  0  0  0  0  0  0  0  0
    7.7461   12.1915    7.4098 C   0  0  0  0  0  0  0  0  0  0  0  0
    7.0136   11.6097    7.9466 H   0  0  0  0  0  0  0  0  0  0  0  0
    8.3057   11.7046    6.2477 C   0  0  0  0  0  0  0  0  0  0  0  0
    7.9942   10.7387    5.8842 H   0  0  0  0  0  0  0  0  0  0  0  0
    9.5212   15.7488    7.8008 Cl  0  0  0  0  0  0  0  0  0  0  0  0
    7.4104   14.0294    9.3567 Cl  0  0  0  0  0  0  0  0  0  0  0  0
  1  6  1  0  0  0  0
  1  5  1  0  0  0  0
  1  2  1  0  0  0  0
  3  1  1  0  0  0  0
  4 54  1  0  0  0  0
  4  1  1  0  0  0  0
  5  8  1  0  0  0  0
  7  1  1  0  0  0  0
  8  9  2  0  0  0  0
  8 17  1  0  0  0  0
  9 11  1  0  0  0  0
 10  9  1  0  0  0  0
 11 12  1  0  0  0  0
 11 13  2  0  0  0  0
 13 14  1  0  0  0  0
 15 16  1  0  0  0  0
 15 13  1  0  0  0  0
 17 15  2  0  0  0  0
 18 17  1  0  0  0  0
 19  5  1  0  0  0  0
 19 20  1  0  0  0  0
 20 21  1  0  0  0  0
 22 20  2  0  0  0  0
 22 23  1  0  0  0  0
 24 22  1  0  0  0  0
 25 24  1  0  0  0  0
 26 28  1  0  0  0  0
 26 24  2  0  0  0  0
 27 26  1  0  0  0  0
 28 19  2  0  0  0  0
 29 28  1  0  0  0  0
 30 39  1  0  0  0  0
 30  5  1  0  0  0  0
 31 30  2  0  0  0  0
 32 31  1  0  0  0  0
 33 31  1  0  0  0  0
 33 35  2  0  0  0  0
 34 33  1  0  0  0  0
 35 37  1  0  0  0  0
 36 35  1  0  0  0  0
 37 38  1  0  0  0  0
 37 39  2  0  0  0  0
 39 40  1  0  0  0  0
 41  4  1  0  0  0  0
 42 41  2  0  0  0  0
 42  3  1  0  0  0  0
 43 42  1  0  0  0  0
 44 43  1  0  0  0  0
 45 47  1  0  0  0  0
 45 43  2  0  0  0  0
 46 45  1  0  0  0  0
 47 49  1  0  0  0  0
 48 47  1  0  0  0  0
 49 50  2  0  0  0  0
 49 41  1  0  0  0  0
 50 52  1  0  0  0  0
 51 50  1  0  0  0  0
 52 53  1  0  0  0  0
 52 54  2  0  0  0  0
 54 55  1  0  0  0  0
 55 56  1  0  0  0  0
 55 57  2  0  0  0  0
 57 59  1  0  0  0  0
 58 57  1  0  0  0  0
 59 60  2  0  0  0  0
 59 66  1  0  0  0  0
 60 62  1  0  0  0  0
 61 60  1  0  0  0  0
 62 68  1  0  0  0  0
 62 63  2  0  0  0  0
 63 69  1  0  0  0  0
 64 63  1  0  0  0  0
 64 65  1  0  0  0  0
 66 64  2  0  0  0  0
 67 66  1  0  0  0  0
M  END
$$$$
