CSD_code = PEWZUO | q = 0 | S = 0 | Stoichiometry = C19H27BrN2Pd | MND = 4
 OpenBabel04212202083D

 50 52  0  0  1  0  0  0  0  0999 V2000
    2.0639    3.9527    6.8346 Pd  0  0  1  0  0  0  0  0  0  0  0  0
    1.8290    5.3318    8.9013 Br  0  0  0  0  0  0  0  0  0  0  0  0
    0.6437    5.0791    5.8069 N   0  0  0  0  0  4  0  0  0  0  0  0
    0.1086    5.5356    6.5529 H   0  0  0  0  0  0  0  0  0  0  0  0
    3.3413    2.7643    7.7626 N   0  0  0  0  0  0  0  0  0  0  0  0
    1.8849    2.7466    5.2325 C   0  0  0  0  0  0  0  0  0  0  0  0
    2.7107    1.7481    4.7324 C   0  0  0  0  0  0  0  0  0  0  0  0
    3.6681    1.5413    5.2003 H   0  0  0  0  0  0  0  0  0  0  0  0
    2.3322    0.9943    3.6296 C   0  0  0  0  0  0  0  0  0  0  0  0
    2.9904    0.2215    3.2571 H   0  0  0  0  0  0  0  0  0  0  0  0
    1.1187    1.2257    3.0086 C   0  0  0  0  0  0  0  0  0  0  0  0
    0.8245    0.6369    2.1517 H   0  0  0  0  0  0  0  0  0  0  0  0
    0.2814    2.2202    3.4863 C   0  0  0  0  0  0  0  0  0  0  0  0
   -0.6681    2.4103    3.0024 H   0  0  0  0  0  0  0  0  0  0  0  0
    0.6607    2.9712    4.5867 C   0  0  0  0  0  0  0  0  0  0  0  0
   -0.2091    4.0675    5.1549 C   0  0  0  0  0  0  0  0  0  0  0  0
   -0.8555    4.5067    4.3842 H   0  0  0  0  0  0  0  0  0  0  0  0
   -0.8658    3.6376    5.9265 H   0  0  0  0  0  0  0  0  0  0  0  0
    1.1523    6.1719    4.9447 C   0  0  0  0  0  0  0  0  0  0  0  0
    2.1667    6.9637    5.7784 C   0  0  0  0  0  0  0  0  0  0  0  0
    1.6915    7.4129    6.6493 H   0  0  0  0  0  0  0  0  0  0  0  0
    2.6120    7.7561    5.1822 H   0  0  0  0  0  0  0  0  0  0  0  0
    2.9662    6.2921    6.1230 H   0  0  0  0  0  0  0  0  0  0  0  0
    0.0093    7.1041    4.5234 C   0  0  0  0  0  0  0  0  0  0  0  0
   -0.5154    7.4874    5.3972 H   0  0  0  0  0  0  0  0  0  0  0  0
   -0.7078    6.5967    3.8819 H   0  0  0  0  0  0  0  0  0  0  0  0
    0.4086    7.9502    3.9705 H   0  0  0  0  0  0  0  0  0  0  0  0
    1.8631    5.6118    3.7120 C   0  0  0  0  0  0  0  0  0  0  0  0
    2.2906    6.4305    3.1380 H   0  0  0  0  0  0  0  0  0  0  0  0
    1.1827    5.0619    3.0675 H   0  0  0  0  0  0  0  0  0  0  0  0
    2.6682    4.9395    4.0159 H   0  0  0  0  0  0  0  0  0  0  0  0
    2.8547    1.7553    8.4919 C   0  0  1  0  0  3  0  0  0  0  0  0
    3.6941    0.9595    9.2538 C   0  0  0  0  0  0  0  0  0  0  0  0
    3.2804    0.1499    9.8350 H   0  0  0  0  0  0  0  0  0  0  0  0
    5.0620    1.2088    9.2757 C   0  0  0  0  0  0  0  0  0  0  0  0
    5.5315    2.2760    8.5196 C   0  0  0  0  0  0  0  0  0  0  0  0
    6.5825    2.5205    8.5143 H   0  0  0  0  0  0  0  0  0  0  0  0
    4.6464    3.0398    7.7754 C   0  0  0  0  0  0  0  0  0  0  0  0
    1.3722    1.5508    8.4528 C   0  0  0  0  0  0  0  0  0  0  0  0
    0.8689    2.4722    8.7830 H   0  0  0  0  0  0  0  0  0  0  0  0
    1.0706    0.7351    9.1048 H   0  0  0  0  0  0  0  0  0  0  0  0
    1.0550    1.3287    7.4253 H   0  0  0  0  0  0  0  0  0  0  0  0
    5.9848    0.3806   10.1088 C   0  0  0  0  0  0  0  0  0  0  0  0
    5.6400   -0.6494   10.1612 H   0  0  0  0  0  0  0  0  0  0  0  0
    6.0141    0.7774   11.1239 H   0  0  0  0  0  0  0  0  0  0  0  0
    6.9952    0.4013    9.7083 H   0  0  0  0  0  0  0  0  0  0  0  0
    5.0858    4.2293    6.9814 C   0  0  0  0  0  0  0  0  0  0  0  0
    4.6095    4.2118    5.9898 H   0  0  0  0  0  0  0  0  0  0  0  0
    6.1662    4.2537    6.8663 H   0  0  0  0  0  0  0  0  0  0  0  0
    4.7708    5.1381    7.5076 H   0  0  0  0  0  0  0  0  0  0  0  0
  1  5  1  0  0  0  0
  1  2  1  1  0  0  0
  3  4  1  0  0  0  0
  3  1  1  0  0  0  0
  5 38  1  0  0  0  0
  5 32  1  0  0  0  0
  6  1  1  0  0  0  0
  7  8  1  0  0  0  0
  7  6  1  0  0  0  0
  9  7  2  0  0  0  0
 10  9  1  0  0  0  0
 11 13  2  0  0  0  0
 11  9  1  0  0  0  0
 12 11  1  0  0  0  0
 13 15  1  0  0  0  0
 14 13  1  0  0  0  0
 15 16  1  0  0  0  0
 15  6  2  0  0  0  0
 16  3  1  0  0  0  0
 16 18  1  0  0  0  0
 17 16  1  0  0  0  0
 19 20  1  0  0  0  0
 19  3  1  0  0  0  0
 20 23  1  0  0  0  0
 20 21  1  0  0  0  0
 22 20  1  0  0  0  0
 24 19  1  0  0  0  0
 24 25  1  0  0  0  0
 26 24  1  0  0  0  0
 27 24  1  0  0  0  0
 28 31  1  0  0  0  0
 28 19  1  0  0  0  0
 29 28  1  0  0  0  0
 30 28  1  0  0  0  0
 32 39  1  1  0  0  0
 32 33  1  0  0  0  0
 33 35  2  0  0  0  0
 33 34  1  0  0  0  0
 35 43  1  0  0  0  0
 36 35  1  0  0  0  0
 37 36  1  0  0  0  0
 38 36  2  0  0  0  0
 39 40  1  0  0  0  0
 39 41  1  0  0  0  0
 42 39  1  0  0  0  0
 43 44  1  0  0  0  0
 43 45  1  0  0  0  0
 46 43  1  0  0  0  0
 47 50  1  0  0  0  0
 47 38  1  0  0  0  0
 48 47  1  0  0  0  0
 49 47  1  0  0  0  0
M  END
$$$$
