CSD_code = PEWZEY | q = 0 | S = 0 | Stoichiometry = C18H26Cl2N2Pd | MND = 4
 OpenBabel04212202083D

 49 50  0  0  0  0  0  0  0  0999 V2000
    1.6724    2.4997    3.7400 Pd  0  0  0  0  0  0  0  0  0  0  0  0
    1.5986    1.6236    5.8705 Cl  0  0  0  0  0  0  0  0  0  0  0  0
    1.7717    3.3701    1.6249 Cl  0  0  0  0  0  0  0  0  0  0  0  0
    0.6233    4.1331    4.4274 N   0  0  0  0  0  4  0  0  0  0  0  0
    2.7237    0.8258    3.1586 N   0  0  0  0  0  4  0  0  0  0  0  0
    0.6139    3.9395    5.4364 H   0  0  0  0  0  0  0  0  0  0  0  0
    2.7009    0.2827    4.0310 H   0  0  0  0  0  0  0  0  0  0  0  0
    2.8111    5.1956    4.5624 C   0  0  0  0  0  0  0  0  0  0  0  0
   -0.7635    4.1855    3.9635 C   0  0  0  0  0  0  0  0  0  0  0  0
   -0.7548    4.2196    2.8677 H   0  0  0  0  0  0  0  0  0  0  0  0
   -1.2528    5.0977    4.3385 H   0  0  0  0  0  0  0  0  0  0  0  0
    0.5489   -0.0333    2.4960 C   0  0  0  0  0  0  0  0  0  0  0  0
    5.1414    5.2188    3.9510 C   0  0  0  0  0  0  0  0  0  0  0  0
    5.9052    5.3337    3.1964 H   0  0  0  0  0  0  0  0  0  0  0  0
    4.8147    1.7604    3.9943 C   0  0  0  0  0  0  0  0  0  0  0  0
    4.2341    2.6414    4.2994 H   0  0  0  0  0  0  0  0  0  0  0  0
    5.8157    2.0798    3.7185 H   0  0  0  0  0  0  0  0  0  0  0  0
    4.8844    1.0804    4.8422 H   0  0  0  0  0  0  0  0  0  0  0  0
    1.3568    5.3822    4.1995 C   0  0  0  0  0  0  0  0  0  0  0  0
    0.9175    6.1976    4.7967 H   0  0  0  0  0  0  0  0  0  0  0  0
    1.2710    5.6387    3.1390 H   0  0  0  0  0  0  0  0  0  0  0  0
    4.1217    1.0878    2.8172 C   0  0  0  0  0  0  0  0  0  0  0  0
    4.1388    1.7480    1.9427 H   0  0  0  0  0  0  0  0  0  0  0  0
    4.6311    0.1472    2.5569 H   0  0  0  0  0  0  0  0  0  0  0  0
    3.8063    5.3286    3.5975 C   0  0  0  0  0  0  0  0  0  0  0  0
    3.5328    5.5276    2.5718 H   0  0  0  0  0  0  0  0  0  0  0  0
    0.1474   -0.8893    3.5191 C   0  0  0  0  0  0  0  0  0  0  0  0
    0.8839   -1.4661    4.0617 H   0  0  0  0  0  0  0  0  0  0  0  0
   -1.5074    2.9492    4.4497 C   0  0  0  0  0  0  0  0  0  0  0  0
   -0.9383    2.0515    4.1772 H   0  0  0  0  0  0  0  0  0  0  0  0
   -2.4926    2.8906    3.9962 H   0  0  0  0  0  0  0  0  0  0  0  0
   -1.6215    2.9694    5.5325 H   0  0  0  0  0  0  0  0  0  0  0  0
    5.4959    4.9638    5.2652 C   0  0  0  0  0  0  0  0  0  0  0  0
    6.5370    4.8813    5.5401 H   0  0  0  0  0  0  0  0  0  0  0  0
    4.5116    4.8143    6.2283 C   0  0  0  0  0  0  0  0  0  0  0  0
    4.7823    4.6106    7.2534 H   0  0  0  0  0  0  0  0  0  0  0  0
    3.1770    4.9355    5.8828 C   0  0  0  0  0  0  0  0  0  0  0  0
    2.4201    4.8454    6.6500 H   0  0  0  0  0  0  0  0  0  0  0  0
   -0.4145    0.6953    1.8015 C   0  0  0  0  0  0  0  0  0  0  0  0
   -0.1125    1.3595    1.0039 H   0  0  0  0  0  0  0  0  0  0  0  0
   -1.1929   -1.0210    3.8360 C   0  0  0  0  0  0  0  0  0  0  0  0
   -1.4925   -1.6852    4.6327 H   0  0  0  0  0  0  0  0  0  0  0  0
   -1.7572    0.5452    2.1108 C   0  0  0  0  0  0  0  0  0  0  0  0
   -2.4988    1.1006    1.5559 H   0  0  0  0  0  0  0  0  0  0  0  0
    2.0083    0.0725    2.1235 C   0  0  0  0  0  0  0  0  0  0  0  0
    2.4475   -0.9310    2.0082 H   0  0  0  0  0  0  0  0  0  0  0  0
    2.1120    0.6139    1.1777 H   0  0  0  0  0  0  0  0  0  0  0  0
   -2.1476   -0.3122    3.1259 C   0  0  0  0  0  0  0  0  0  0  0  0
   -3.1943   -0.4283    3.3652 H   0  0  0  0  0  0  0  0  0  0  0  0
  1  4  1  0  0  0  0
  1  2  1  0  0  0  0
  3  1  1  0  0  0  0
  4  6  1  0  0  0  0
  5  1  1  0  0  0  0
  5  7  1  0  0  0  0
  8 37  1  0  0  0  0
  9 11  1  0  0  0  0
  9  4  1  0  0  0  0
  9 29  1  0  0  0  0
 10  9  1  0  0  0  0
 12 27  1  0  0  0  0
 13 33  2  0  0  0  0
 14 13  1  0  0  0  0
 15 16  1  0  0  0  0
 15 18  1  0  0  0  0
 17 15  1  0  0  0  0
 19  4  1  0  0  0  0
 19  8  1  0  0  0  0
 19 20  1  0  0  0  0
 21 19  1  0  0  0  0
 22  5  1  0  0  0  0
 22 15  1  0  0  0  0
 23 22  1  0  0  0  0
 24 22  1  0  0  0  0
 25 13  1  0  0  0  0
 25  8  2  0  0  0  0
 26 25  1  0  0  0  0
 27 41  2  0  0  0  0
 27 28  1  0  0  0  0
 29 32  1  0  0  0  0
 30 29  1  0  0  0  0
 31 29  1  0  0  0  0
 33 34  1  0  0  0  0
 33 35  1  0  0  0  0
 35 36  1  0  0  0  0
 37 35  2  0  0  0  0
 37 38  1  0  0  0  0
 39 43  1  0  0  0  0
 39 12  2  0  0  0  0
 40 39  1  0  0  0  0
 41 42  1  0  0  0  0
 43 48  2  0  0  0  0
 44 43  1  0  0  0  0
 45 12  1  0  0  0  0
 45  5  1  0  0  0  0
 46 45  1  0  0  0  0
 47 45  1  0  0  0  0
 48 49  1  0  0  0  0
 48 41  1  0  0  0  0
M  END
$$$$
