CSD_code = PEXCED | q = 0 | S = 0 | Stoichiometry = C25H29BrN2NiO | MND = 4
 OpenBabel04212202083D

 59 63  0  0  0  0  0  0  0  0999 V2000
   -0.9964    4.8418    3.1750 C   0  0  0  0  0  0  0  0  0  0  0  0
   -1.7226    5.5844    4.1656 C   0  0  0  0  0  0  0  0  0  0  0  0
   -3.0122    5.2135    4.4403 C   0  0  0  0  0  0  0  0  0  0  0  0
   -3.5641    5.7877    5.1644 H   0  0  0  0  0  0  0  0  0  0  0  0
   -3.6816    4.1296    3.8321 C   0  0  0  0  0  0  0  0  0  0  0  0
   -2.9795    3.3870    2.9273 C   0  0  0  0  0  3  0  0  0  0  0  0
   -3.4165    2.5310    2.4374 H   0  0  0  0  0  0  0  0  0  0  0  0
   -1.6428    3.7041    2.5968 C   0  0  0  0  0  0  0  0  0  0  0  0
   -0.9204    2.8035    1.7898 C   0  0  0  0  0  0  0  0  0  0  0  0
   -1.4364    1.8711    1.5535 H   0  0  0  0  0  0  0  0  0  0  0  0
   -1.0549    6.7747    4.8404 C   0  0  0  0  0  0  0  0  0  0  0  0
    0.2456    6.3189    5.5161 C   0  0  0  0  0  0  0  0  0  0  0  0
    0.9508    5.9437    4.7815 H   0  0  0  0  0  0  0  0  0  0  0  0
    0.0417    5.5326    6.2413 H   0  0  0  0  0  0  0  0  0  0  0  0
    0.7077    7.1571    6.0320 H   0  0  0  0  0  0  0  0  0  0  0  0
   -0.7470    7.8430    3.7827 C   0  0  0  0  0  0  0  0  0  0  0  0
   -0.0483    7.4669    3.0432 H   0  0  0  0  0  0  0  0  0  0  0  0
   -0.3000    8.7148    4.2537 H   0  0  0  0  0  0  0  0  0  0  0  0
   -1.6606    8.1502    3.2764 H   0  0  0  0  0  0  0  0  0  0  0  0
   -1.9428    7.4121    5.9148 C   0  0  0  0  0  0  0  0  0  0  0  0
   -2.8551    7.8211    5.4856 H   0  0  0  0  0  0  0  0  0  0  0  0
   -1.4001    8.2320    6.3801 H   0  0  0  0  0  0  0  0  0  0  0  0
   -2.1984    6.6956    6.6931 H   0  0  0  0  0  0  0  0  0  0  0  0
   -5.1227    3.8443    4.2221 C   0  0  0  0  0  0  0  0  0  0  0  0
   -5.9835    5.0735    3.8989 C   0  0  0  0  0  0  0  0  0  0  0  0
   -5.9194    5.3092    2.8386 H   0  0  0  0  0  0  0  0  0  0  0  0
   -5.6603    5.9452    4.4610 H   0  0  0  0  0  0  0  0  0  0  0  0
   -7.0245    4.8771    4.1467 H   0  0  0  0  0  0  0  0  0  0  0  0
   -5.7033    2.6444    3.4685 C   0  0  0  0  0  0  0  0  0  0  0  0
   -5.6958    2.8168    2.3946 H   0  0  0  0  0  0  0  0  0  0  0  0
   -6.7349    2.4870    3.7762 H   0  0  0  0  0  0  0  0  0  0  0  0
   -5.1460    1.7367    3.6889 H   0  0  0  0  0  0  0  0  0  0  0  0
   -5.1882    3.5426    5.7258 C   0  0  0  0  0  0  0  0  0  0  0  0
   -6.2111    3.3142    6.0175 H   0  0  0  0  0  0  0  0  0  0  0  0
   -4.8481    4.3884    6.3166 H   0  0  0  0  0  0  0  0  0  0  0  0
   -4.5614    2.6859    5.9652 H   0  0  0  0  0  0  0  0  0  0  0  0
    1.0210    1.8269    0.9500 C   0  0  0  0  0  0  0  0  0  0  0  0
    0.7779    0.6236    1.5949 C   0  0  0  0  0  0  0  0  0  0  0  0
    0.0510    0.5870    2.3930 H   0  0  0  0  0  0  0  0  0  0  0  0
    1.4785   -0.5392    1.2782 C   0  0  0  0  0  0  0  0  0  0  0  0
    1.2349   -1.4554    1.7948 H   0  0  0  0  0  0  0  0  0  0  0  0
    2.4813   -0.5066    0.3510 C   0  0  0  0  0  0  0  0  0  0  0  0
    3.0474   -1.3948    0.1151 H   0  0  0  0  0  0  0  0  0  0  0  0
    2.8235    0.7042   -0.2837 C   0  0  0  0  0  0  0  0  0  0  0  0
    2.0779    1.8853   -0.0130 C   0  0  0  0  0  0  0  0  0  0  0  0
    3.9222    0.7534   -1.1669 C   0  0  0  0  0  0  0  0  0  0  0  0
    4.4669   -0.1589   -1.3577 H   0  0  0  0  0  0  0  0  0  0  0  0
    4.3082    1.9287   -1.7450 C   0  0  0  0  0  0  0  0  0  0  0  0
    5.1661    1.9692   -2.3980 H   0  0  0  0  0  0  0  0  0  0  0  0
    3.5762    3.0933   -1.4989 C   0  0  0  0  0  0  0  0  0  0  0  0
    3.8787    4.0219   -1.9620 H   0  0  0  0  0  0  0  0  0  0  0  0
    2.4710    3.0734   -0.6808 C   0  0  0  0  0  0  0  0  0  0  0  0
    0.3007    2.9559    1.3457 N   0  0  0  0  0  0  0  0  0  0  0  0
    1.7325    4.2776   -0.4940 N   0  0  0  0  0  4  0  0  0  0  0  0
    2.2493    5.0688   -0.8904 H   0  0  0  0  0  0  0  0  0  0  0  0
    0.8239    4.2205   -0.9666 H   0  0  0  0  0  0  0  0  0  0  0  0
    0.1895    5.2036    2.8519 O   0  0  0  0  0  0  0  0  0  0  0  0
    1.1023    4.7284    1.3375 Ni  0  0  1  0  0  0  0  0  0  0  0  0
    2.2584    6.6292    1.3271 Br  0  0  0  0  0  0  0  0  0  0  0  0
  1  2  2  0  0  0  0
  2  3  1  0  0  0  0
  2 11  1  0  0  0  0
  3  4  1  0  0  0  0
  5 24  1  0  0  0  0
  5  3  2  0  0  0  0
  6  5  1  0  0  0  0
  7  6  1  0  0  0  0
  8  6  1  0  0  0  0
  8  1  1  0  0  0  0
  9  8  2  0  0  0  0
 10  9  1  0  0  0  0
 11 12  1  0  0  0  0
 11 20  1  0  0  0  0
 12 15  1  0  0  0  0
 12 14  1  0  0  0  0
 13 12  1  0  0  0  0
 16 18  1  0  0  0  0
 16 11  1  0  0  0  0
 17 16  1  0  0  0  0
 19 16  1  0  0  0  0
 20 22  1  0  0  0  0
 20 23  1  0  0  0  0
 21 20  1  0  0  0  0
 24 33  1  0  0  0  0
 25 28  1  0  0  0  0
 25 24  1  0  0  0  0
 25 27  1  0  0  0  0
 26 25  1  0  0  0  0
 29 32  1  0  0  0  0
 29 31  1  0  0  0  0
 29 24  1  0  0  0  0
 30 29  1  0  0  0  0
 33 36  1  0  0  0  0
 33 34  1  0  0  0  0
 33 35  1  0  0  0  0
 37 53  1  0  0  0  0
 37 38  1  0  0  0  0
 38 39  1  0  0  0  0
 40 38  2  0  0  0  0
 40 41  1  0  0  0  0
 42 40  1  0  0  0  0
 43 42  1  0  0  0  0
 44 45  1  0  0  0  0
 44 42  2  0  0  0  0
 45 37  2  0  0  0  0
 46 44  1  0  0  0  0
 47 46  1  0  0  0  0
 48 50  1  0  0  0  0
 48 46  2  0  0  0  0
 49 48  1  0  0  0  0
 50 52  2  0  0  0  0
 51 50  1  0  0  0  0
 52 54  1  0  0  0  0
 52 45  1  0  0  0  0
 53  9  1  0  0  0  0
 54 58  1  0  0  0  0
 55 54  1  0  0  0  0
 56 54  1  0  0  0  0
 57  1  1  0  0  0  0
 58 59  1  1  0  0  0
 58 53  1  0  0  0  0
 58 57  1  0  0  0  0
M  END
$$$$
