CSD_code = PEXJEJ | q = 0 | S = 0 | Stoichiometry = C23H42ClIrN2 | MND = 6
 OpenBabel04212202083D

 69 69  0  0  1  0  0  0  0  0999 V2000
   -0.9134    7.3138    3.6683 C   0  0  0  0  0  3  0  0  0  0  0  0
   -0.2612    6.5378    5.8838 C   0  0  0  0  0  0  0  0  0  0  0  0
   -0.6466    5.7306    6.5059 H   0  0  0  0  0  0  0  0  0  0  0  0
   -0.7294    7.4685    6.2233 H   0  0  0  0  0  0  0  0  0  0  0  0
    1.2479    6.6589    6.0877 C   0  0  0  0  0  0  0  0  0  0  0  0
    1.4630    6.5775    7.1546 H   0  0  0  0  0  0  0  0  0  0  0  0
    1.7673    5.8459    5.5764 H   0  0  0  0  0  0  0  0  0  0  0  0
    1.7416    7.9946    5.5566 C   0  0  0  0  0  0  0  0  0  0  0  0
    2.8291    8.0546    5.6336 H   0  0  0  0  0  0  0  0  0  0  0  0
    1.3157    8.8044    6.1499 H   0  0  0  0  0  0  0  0  0  0  0  0
    1.3489    8.1506    4.0880 C   0  0  0  0  0  0  0  0  0  0  0  0
    1.8951    8.9926    3.6582 H   0  0  0  0  0  0  0  0  0  0  0  0
    1.6687    7.2418    3.5603 H   0  0  0  0  0  0  0  0  0  0  0  0
   -1.4670    5.0652    4.3249 C   0  0  0  0  0  0  0  0  0  0  0  0
   -2.0704    5.2133    3.4220 H   0  0  0  0  0  0  0  0  0  0  0  0
   -2.1627    4.9344    5.1599 H   0  0  0  0  0  0  0  0  0  0  0  0
   -0.6393    3.7717    4.1479 C   0  0  0  0  0  0  0  0  0  0  0  0
    0.5445    4.0059    3.2105 C   0  0  0  0  0  0  0  0  0  0  0  0
    0.1994    4.3410    2.2364 H   0  0  0  0  0  0  0  0  0  0  0  0
    1.1061    3.0840    3.0767 H   0  0  0  0  0  0  0  0  0  0  0  0
    1.2154    4.7601    3.6128 H   0  0  0  0  0  0  0  0  0  0  0  0
   -0.1308    3.2273    5.4865 C   0  0  0  0  0  0  0  0  0  0  0  0
    0.3248    2.2500    5.3388 H   0  0  0  0  0  0  0  0  0  0  0  0
   -0.9517    3.1115    6.1911 H   0  0  0  0  0  0  0  0  0  0  0  0
    0.6176    3.8791    5.9264 H   0  0  0  0  0  0  0  0  0  0  0  0
   -1.5750    2.7282    3.5285 C   0  0  0  0  0  0  0  0  0  0  0  0
   -1.9154    3.0514    2.5480 H   0  0  0  0  0  0  0  0  0  0  0  0
   -2.4466    2.5753    4.1604 H   0  0  0  0  0  0  0  0  0  0  0  0
   -1.0623    1.7757    3.4151 H   0  0  0  0  0  0  0  0  0  0  0  0
   -0.4263    9.6323    3.2126 C   0  0  0  0  0  0  0  0  0  0  0  0
   -1.3780    9.4615    2.6949 H   0  0  0  0  0  0  0  0  0  0  0  0
    0.3241    9.9304    2.4710 H   0  0  0  0  0  0  0  0  0  0  0  0
   -0.6550   10.8065    4.1947 C   0  0  0  0  0  0  0  0  0  0  0  0
   -1.3713   10.3322    5.4572 C   0  0  0  0  0  0  0  0  0  0  0  0
   -1.7361   11.1857    6.0237 H   0  0  0  0  0  0  0  0  0  0  0  0
   -0.7002    9.7675    6.0992 H   0  0  0  0  0  0  0  0  0  0  0  0
   -2.2177    9.6990    5.2024 H   0  0  0  0  0  0  0  0  0  0  0  0
    0.6619   11.4972    4.5614 C   0  0  0  0  0  0  0  0  0  0  0  0
    1.1643   11.8667    3.6690 H   0  0  0  0  0  0  0  0  0  0  0  0
    1.3354   10.8237    5.0832 H   0  0  0  0  0  0  0  0  0  0  0  0
    0.4655   12.3455    5.2137 H   0  0  0  0  0  0  0  0  0  0  0  0
   -1.5509   11.8148    3.4666 C   0  0  0  0  0  0  0  0  0  0  0  0
   -2.5339   11.3848    3.2933 H   0  0  0  0  0  0  0  0  0  0  0  0
   -1.1181   12.0958    2.5082 H   0  0  0  0  0  0  0  0  0  0  0  0
   -1.6730   12.7153    4.0637 H   0  0  0  0  0  0  0  0  0  0  0  0
   -1.5291    7.6970    0.5928 C   0  0  0  0  0  3  0  0  0  0  0  0
   -0.5169    8.0756    0.7170 H   0  0  0  0  0  0  0  0  0  0  0  0
   -1.7063    6.3195    0.8366 C   0  0  2  0  0  0  0  0  0  0  0  0
   -0.8076    5.7604    1.0936 H   0  0  0  0  0  0  0  0  0  0  0  0
   -2.7384    5.4576    0.1420 C   0  0  0  0  0  0  0  0  0  0  0  0
   -2.4256    5.2747   -0.8925 H   0  0  0  0  0  0  0  0  0  0  0  0
   -2.7578    4.4869    0.6438 H   0  0  0  0  0  0  0  0  0  0  0  0
   -4.1564    6.0587    0.1648 C   0  0  0  0  0  0  0  0  0  0  0  0
   -4.8839    5.2445    0.1814 H   0  0  0  0  0  0  0  0  0  0  0  0
   -4.3366    6.6321   -0.7460 H   0  0  0  0  0  0  0  0  0  0  0  0
   -4.3875    6.9531    1.3610 C   0  0  0  0  0  3  0  0  0  0  0  0
   -5.0791    6.5637    2.1029 H   0  0  0  0  0  0  0  0  0  0  0  0
   -4.1632    8.3120    1.3420 C   0  0  0  0  0  3  0  0  0  0  0  0
   -4.7095    8.9255    2.0548 H   0  0  0  0  0  0  0  0  0  0  0  0
   -3.6183    9.0827    0.1633 C   0  0  0  0  0  0  0  0  0  0  0  0
   -3.3932   10.0977    0.4983 H   0  0  0  0  0  0  0  0  0  0  0  0
   -4.3929    9.1631   -0.6072 H   0  0  0  0  0  0  0  0  0  0  0  0
   -2.3423    8.4600   -0.4351 C   0  0  0  0  0  0  0  0  0  0  0  0
   -1.7280    9.2589   -0.8555 H   0  0  0  0  0  0  0  0  0  0  0  0
   -2.5984    7.7885   -1.2565 H   0  0  0  0  0  0  0  0  0  0  0  0
   -0.7081    6.2874    4.5202 N   0  0  0  0  0  0  0  0  0  0  0  0
   -0.0594    8.3611    3.8032 N   0  0  0  0  0  0  0  0  0  0  0  0
   -3.6933    7.7778    4.4705 Cl  0  0  0  0  0 15  0  0  0  0  0  0
   -2.5347    7.4051    2.4494 Ir  0  0  0  0  0  0  0  0  0  0  0  0
  1 67  1  0  0  0  0
  1 66  1  0  0  0  0
  2  5  1  0  0  0  0
  2  4  1  0  0  0  0
  2  3  1  0  0  0  0
  5  6  1  0  0  0  0
  7  5  1  0  0  0  0
  8  9  1  0  0  0  0
  8  5  1  0  0  0  0
  8 10  1  0  0  0  0
 11  8  1  0  0  0  0
 12 11  1  0  0  0  0
 13 11  1  0  0  0  0
 14 66  1  0  0  0  0
 14 16  1  0  0  0  0
 15 14  1  0  0  0  0
 17 14  1  0  0  0  0
 17 22  1  0  0  0  0
 18 21  1  0  0  0  0
 18 17  1  0  0  0  0
 19 18  1  0  0  0  0
 20 18  1  0  0  0  0
 22 25  1  0  0  0  0
 22 24  1  0  0  0  0
 23 22  1  0  0  0  0
 26 17  1  0  0  0  0
 26 28  1  0  0  0  0
 27 26  1  0  0  0  0
 29 26  1  0  0  0  0
 30 67  1  0  0  0  0
 30 33  1  0  0  0  0
 31 30  1  0  0  0  0
 32 30  1  0  0  0  0
 33 38  1  0  0  0  0
 33 34  1  0  0  0  0
 34 35  1  0  0  0  0
 34 36  1  0  0  0  0
 37 34  1  0  0  0  0
 38 40  1  0  0  0  0
 38 41  1  0  0  0  0
 39 38  1  0  0  0  0
 42 45  1  0  0  0  0
 42 33  1  0  0  0  0
 43 42  1  0  0  0  0
 44 42  1  0  0  0  0
 46 47  1  0  0  0  0
 46 48  1  0  0  0  0
 48 49  1  1  0  0  0
 48 69  1  0  0  0  0
 50 53  1  0  0  0  0
 50 52  1  0  0  0  0
 50 48  1  0  0  0  0
 51 50  1  0  0  0  0
 53 54  1  0  0  0  0
 53 56  1  0  0  0  0
 55 53  1  0  0  0  0
 56 57  1  0  0  0  0
 58 56  1  0  0  0  0
 58 59  1  0  0  0  0
 60 61  1  0  0  0  0
 60 58  1  0  0  0  0
 62 60  1  0  0  0  0
 63 60  1  0  0  0  0
 63 46  1  0  0  0  0
 64 63  1  0  0  0  0
 65 63  1  0  0  0  0
 66  2  1  0  0  0  0
 67 11  1  0  0  0  0
 69  1  1  0  0  0  0
M  END
$$$$
