CSD_code = PEXKIP | q = 0 | S = 0 | Stoichiometry = C20H25Br2N3Ni | MND = 5
 OpenBabel04212202083D

 51 53  0  0  0  0  0  0  0  0999 V2000
    3.2914   13.0196    3.2986 Ni  0  0  0  0  0  0  0  0  0  0  0  0
    2.5162   15.1197    2.3986 Br  0  0  0  0  0  0  0  0  0  0  0  0
    5.3682   12.0819    4.0575 Br  0  0  0  0  0  0  0  0  0  0  0  0
    2.9711   13.6335    4.9432 N   0  0  0  0  0  0  0  0  0  0  0  0
    1.5826   11.8057    3.8132 N   0  0  0  0  0  0  0  0  0  0  0  0
    3.5150   12.3759    1.6987 N   0  0  0  0  0  2  0  0  0  0  0  0
    1.9349   13.1460    5.6559 C   0  0  0  0  0  0  0  0  0  0  0  0
    1.6429   13.7057    6.9023 C   0  0  0  0  0  0  0  0  0  0  0  0
    0.8004   13.3642    7.4743 H   0  0  0  0  0  0  0  0  0  0  0  0
    2.4241   14.7250    7.4110 C   0  0  0  0  0  0  0  0  0  0  0  0
    2.1930   15.1549    8.3733 H   0  0  0  0  0  0  0  0  0  0  0  0
    3.4996   15.1843    6.6668 C   0  0  0  0  0  0  0  0  0  0  0  0
    4.1409   15.9733    7.0224 H   0  0  0  0  0  0  0  0  0  0  0  0
    3.7279   14.6098    5.4332 C   0  0  0  0  0  0  0  0  0  0  0  0
    4.5482   14.9511    4.8109 H   0  0  0  0  0  0  0  0  0  0  0  0
    1.1781   12.0530    5.0009 C   0  0  0  0  0  0  0  0  0  0  0  0
    0.0682   11.3368    5.7647 C   0  0  0  0  0  0  0  0  0  0  0  0
   -1.0251   12.3556    6.1713 C   0  0  0  0  0  0  0  0  0  0  0  0
   -1.9828   12.0591    5.7502 H   0  0  0  0  0  0  0  0  0  0  0  0
   -0.8081   13.3565    5.8051 H   0  0  0  0  0  0  0  0  0  0  0  0
   -1.1475   12.3976    7.2509 H   0  0  0  0  0  0  0  0  0  0  0  0
    0.7104   10.6532    6.9873 C   0  0  0  0  0  0  0  0  0  0  0  0
    1.4215    9.8982    6.6564 H   0  0  0  0  0  0  0  0  0  0  0  0
   -0.0615   10.1557    7.5706 H   0  0  0  0  0  0  0  0  0  0  0  0
    1.2430   11.3410    7.6354 H   0  0  0  0  0  0  0  0  0  0  0  0
   -0.6167   10.2186    4.9683 C   0  0  0  0  0  0  0  0  0  0  0  0
   -1.1188   10.5956    4.0825 H   0  0  0  0  0  0  0  0  0  0  0  0
   -1.3673    9.7562    5.6078 H   0  0  0  0  0  0  0  0  0  0  0  0
    0.0822    9.4436    4.6692 H   0  0  0  0  0  0  0  0  0  0  0  0
    1.0989   10.9235    2.8432 C   0  0  0  0  0  0  0  0  0  0  0  0
    0.1181   11.3776    1.9493 C   0  0  0  0  0  0  0  0  0  0  0  0
   -0.2362   10.5644    0.8847 C   0  0  0  0  0  0  0  0  0  0  0  0
   -0.9934   10.9072    0.1948 H   0  0  0  0  0  0  0  0  0  0  0  0
    0.3674    9.3343    0.6931 C   0  0  0  0  0  0  0  0  0  0  0  0
    0.0789    8.7134   -0.1421 H   0  0  0  0  0  0  0  0  0  0  0  0
    1.3437    8.9046    1.5737 C   0  0  0  0  0  0  0  0  0  0  0  0
    1.8224    7.9474    1.4251 H   0  0  0  0  0  0  0  0  0  0  0  0
    1.7302    9.6875    2.6504 C   0  0  0  0  0  0  0  0  0  0  0  0
   -0.5086   12.7246    2.1342 C   0  0  0  0  0  0  0  0  0  0  0  0
   -1.2639   12.9035    1.3740 H   0  0  0  0  0  0  0  0  0  0  0  0
    0.2467   13.5065    2.0566 H   0  0  0  0  0  0  0  0  0  0  0  0
   -0.9742   12.8167    3.1153 H   0  0  0  0  0  0  0  0  0  0  0  0
    2.8078    9.2344    3.5851 C   0  0  0  0  0  0  0  0  0  0  0  0
    3.2223    8.2829    3.2637 H   0  0  0  0  0  0  0  0  0  0  0  0
    2.4303    9.1193    4.6016 H   0  0  0  0  0  0  0  0  0  0  0  0
    3.6139    9.9668    3.6213 H   0  0  0  0  0  0  0  0  0  0  0  0
    3.5219   11.8780    0.6644 C   0  0  0  0  0  2  0  0  0  0  0  0
    3.5284   11.2601   -0.6195 C   0  0  0  0  0  0  0  0  0  0  0  0
    4.4867   10.7681   -0.7848 H   0  0  0  0  0  0  0  0  0  0  0  0
    3.3679   12.0156   -1.3885 H   0  0  0  0  0  0  0  0  0  0  0  0
    2.7257   10.5224   -0.6586 H   0  0  0  0  0  0  0  0  0  0  0  0
  1  5  1  0  0  0  0
  1  3  1  0  0  0  0
  1  4  1  0  0  0  0
  2  1  1  0  0  0  0
  4 14  1  0  0  0  0
  4  7  1  0  0  0  0
  5 16  1  0  0  0  0
  6  1  1  0  0  0  0
  7  8  1  0  0  0  0
  8 10  2  0  0  0  0
  8  9  1  0  0  0  0
 10 11  1  0  0  0  0
 12 13  1  0  0  0  0
 12 10  1  0  0  0  0
 14 12  2  0  0  0  0
 15 14  1  0  0  0  0
 16  7  2  0  0  0  0
 16 17  1  0  0  0  0
 17 18  1  0  0  0  0
 17 22  1  0  0  0  0
 18 21  1  0  0  0  0
 19 18  1  0  0  0  0
 20 18  1  0  0  0  0
 22 24  1  0  0  0  0
 22 25  1  0  0  0  0
 23 22  1  0  0  0  0
 26 28  1  0  0  0  0
 26 17  1  0  0  0  0
 27 26  1  0  0  0  0
 29 26  1  0  0  0  0
 30  5  1  0  0  0  0
 31 39  1  0  0  0  0
 31 30  2  0  0  0  0
 32 31  1  0  0  0  0
 33 32  1  0  0  0  0
 34 32  2  0  0  0  0
 34 36  1  0  0  0  0
 35 34  1  0  0  0  0
 36 38  2  0  0  0  0
 37 36  1  0  0  0  0
 38 30  1  0  0  0  0
 38 43  1  0  0  0  0
 39 42  1  0  0  0  0
 40 39  1  0  0  0  0
 41 39  1  0  0  0  0
 43 46  1  0  0  0  0
 43 45  1  0  0  0  0
 44 43  1  0  0  0  0
 47  6  1  0  0  0  0
 48 47  1  0  0  0  0
 49 48  1  0  0  0  0
 50 48  1  0  0  0  0
 51 48  1  0  0  0  0
M  END
$$$$
