CSD_code = PIBBAG | q = 0 | S = 0 | Stoichiometry = C20H28Cl2CuN5O | MND = 4
 OpenBabel04212202083D

 57 61  0  0  1  0  0  0  0  0999 V2000
   -1.1058    4.5924    4.2223 C   0  0  0  0  0  0  0  0  0  0  0  0
   -0.9528    4.5126    5.6747 C   0  0  1  0  0  3  0  0  0  0  0  0
   -1.6505    3.6448    6.5027 C   0  0  0  0  0  0  0  0  0  0  0  0
   -2.3770    2.9707    6.0785 H   0  0  0  0  0  0  0  0  0  0  0  0
   -1.3827    3.6730    7.8627 C   0  0  0  0  0  0  0  0  0  0  0  0
   -0.4202    4.5753    8.3444 C   0  0  0  0  0  0  0  0  0  0  0  0
    0.2325    5.4001    7.4434 C   0  0  0  0  0  0  0  0  0  0  0  0
    0.9982    6.1023    7.7445 H   0  0  0  0  0  0  0  0  0  0  0  0
   -0.1527    4.5503    9.8093 C   0  0  1  0  0  0  0  0  0  0  0  0
    0.6198    5.2518   10.1160 H   0  0  0  0  0  0  0  0  0  0  0  0
   -1.5117    4.5544   10.5680 C   0  0  0  0  0  0  0  0  0  0  0  0
   -1.5580    3.0372   10.2542 C   0  0  1  0  0  0  0  0  0  0  0  0
   -2.0362    2.3872   10.9868 H   0  0  0  0  0  0  0  0  0  0  0  0
   -2.0860    2.7808    8.8452 C   0  0  0  0  0  0  0  0  0  0  0  0
   -1.9148    1.7364    8.5692 H   0  0  0  0  0  0  0  0  0  0  0  0
   -3.1640    2.9532    8.7935 H   0  0  0  0  0  0  0  0  0  0  0  0
   -0.0224    3.0612   10.1924 C   0  0  0  0  0  0  0  0  0  0  0  0
    0.4556    2.9078   11.1544 H   0  0  0  0  0  0  0  0  0  0  0  0
    0.4462    2.4158    9.4517 H   0  0  0  0  0  0  0  0  0  0  0  0
   -2.6257    5.4499   10.0424 C   0  0  0  0  0  0  0  0  0  0  0  0
   -2.3993    6.4882   10.2762 H   0  0  0  0  0  0  0  0  0  0  0  0
   -2.7604    5.3734    8.9677 H   0  0  0  0  0  0  0  0  0  0  0  0
   -3.5651    5.1891   10.5264 H   0  0  0  0  0  0  0  0  0  0  0  0
   -1.3379    4.8320   12.0573 C   0  0  0  0  0  0  0  0  0  0  0  0
   -1.0631    5.8731   12.2124 H   0  0  0  0  0  0  0  0  0  0  0  0
   -2.2745    4.6452   12.5791 H   0  0  0  0  0  0  0  0  0  0  0  0
   -0.5709    4.2085   12.5053 H   0  0  0  0  0  0  0  0  0  0  0  0
   -1.1283    4.8479    1.5408 C   0  0  0  0  0  0  0  0  0  0  0  0
   -1.6800    2.4482    1.4469 C   0  0  0  0  0  0  0  0  0  0  0  0
   -1.6273    2.7386    0.3935 H   0  0  0  0  0  0  0  0  0  0  0  0
   -0.8930    7.2571    1.7691 C   0  0  0  0  0  0  0  0  0  0  0  0
   -0.2368    7.1527    0.8972 H   0  0  0  0  0  0  0  0  0  0  0  0
   -0.5852    1.4351    1.7681 C   0  0  0  0  0  0  0  0  0  0  0  0
   -0.7209    0.5404    1.1675 H   0  0  0  0  0  0  0  0  0  0  0  0
    0.3928    1.8577    1.5509 H   0  0  0  0  0  0  0  0  0  0  0  0
   -0.6253    1.1678    2.8215 H   0  0  0  0  0  0  0  0  0  0  0  0
   -0.3369    8.3042    2.7185 C   0  0  0  0  0  0  0  0  0  0  0  0
   -0.2854    9.2578    2.2006 H   0  0  0  0  0  0  0  0  0  0  0  0
   -0.9733    8.4130    3.5940 H   0  0  0  0  0  0  0  0  0  0  0  0
    0.6692    8.0423    3.0459 H   0  0  0  0  0  0  0  0  0  0  0  0
   -3.0680    1.9149    1.7841 C   0  0  0  0  0  0  0  0  0  0  0  0
   -3.2565    1.0046    1.2229 H   0  0  0  0  0  0  0  0  0  0  0  0
   -3.1307    1.6958    2.8469 H   0  0  0  0  0  0  0  0  0  0  0  0
   -3.8314    2.6459    1.5281 H   0  0  0  0  0  0  0  0  0  0  0  0
   -2.2992    7.6359    1.2989 C   0  0  0  0  0  0  0  0  0  0  0  0
   -2.2700    8.6070    0.8139 H   0  0  0  0  0  0  0  0  0  0  0  0
   -2.6702    6.9063    0.5843 H   0  0  0  0  0  0  0  0  0  0  0  0
   -2.9798    7.6878    2.1465 H   0  0  0  0  0  0  0  0  0  0  0  0
    2.0061    5.4064    2.8039 Cl  0  0  0  0  0  0  0  0  0  0  0  0
    2.4528    7.1099    5.7251 Cl  0  0  0  0  0  0  0  0  0  0  0  0
    0.9631    6.1472    4.5654 Cu  0  0  0  0  0  0  0  0  0  0  0  0
   -0.0362    5.3580    6.1482 N   0  0  0  0  0  0  0  0  0  0  0  0
   -0.7245    5.7956    3.7057 N   0  0  0  0  0  0  0  0  0  0  0  0
   -0.9531    5.9326    2.3860 N   0  0  0  0  0  0  0  0  0  0  0  0
   -1.4286    3.6696    2.1995 N   0  0  0  0  0  0  0  0  0  0  0  0
   -1.4961    3.5719    3.5328 N   0  0  0  0  0  0  0  0  0  0  0  0
   -1.1315    4.9439    0.3386 O   0  0  0  0  0  0  0  0  0  0  0  0
  2  1  1  6  0  0  0
  2 52  1  0  0  0  0
  2  3  1  0  0  0  0
  3  5  2  0  0  0  0
  4  3  1  0  0  0  0
  5  6  1  0  0  0  0
  5 14  1  0  0  0  0
  6  9  1  0  0  0  0
  7  8  1  0  0  0  0
  7  6  2  0  0  0  0
  9 10  1  1  0  0  0
  9 17  1  0  0  0  0
  9 11  1  0  0  0  0
 11 24  1  0  0  0  0
 12 11  1  0  0  0  0
 12 13  1  1  0  0  0
 14 12  1  0  0  0  0
 15 14  1  0  0  0  0
 16 14  1  0  0  0  0
 17 12  1  0  0  0  0
 17 18  1  0  0  0  0
 19 17  1  0  0  0  0
 20 21  1  0  0  0  0
 20 23  1  0  0  0  0
 20 11  1  0  0  0  0
 22 20  1  0  0  0  0
 24 25  1  0  0  0  0
 24 27  1  0  0  0  0
 24 26  1  0  0  0  0
 28 55  1  0  0  0  0
 28 54  1  0  0  0  0
 29 33  1  0  0  0  0
 29 41  1  0  0  0  0
 29 55  1  0  0  0  0
 30 29  1  0  0  0  0
 31 54  1  0  0  0  0
 31 37  1  0  0  0  0
 32 31  1  0  0  0  0
 33 36  1  0  0  0  0
 34 33  1  0  0  0  0
 35 33  1  0  0  0  0
 37 40  1  0  0  0  0
 37 39  1  0  0  0  0
 38 37  1  0  0  0  0
 41 43  1  0  0  0  0
 42 41  1  0  0  0  0
 44 41  1  0  0  0  0
 45 31  1  0  0  0  0
 45 48  1  0  0  0  0
 46 45  1  0  0  0  0
 47 45  1  0  0  0  0
 49 51  1  0  0  0  0
 51 50  1  0  0  0  0
 51 52  1  0  0  0  0
 52  7  1  0  0  0  0
 53  1  1  0  0  0  0
 53 51  1  0  0  0  0
 54 53  1  0  0  0  0
 55 56  1  0  0  0  0
 56  1  2  0  0  0  0
 57 28  2  0  0  0  0
M  END
$$$$
