CSD_code = PIBDIO | q = 0 | S = 0 | Stoichiometry = C27H36Cl2SiZr | MND = 12
 OpenBabel04212202083D

 67 70  0  0  1  0  0  0  0  0999 V2000
   -0.2712    3.6788   10.6597 Zr  0  0  0  0  0  0  0  0  0  0  0  0
    2.1556    2.5805   12.6573 Si  0  0  0  0  0  0  0  0  0  0  0  0
   -2.4030    4.6278   10.8257 Cl  0  0  0  0  0  0  0  0  0  0  0  0
   -0.1211    3.7522    8.3227 Cl  0  0  0  0  0  0  0  0  0  0  0  0
    0.6125    1.7799   11.9131 C   0  0  2  0  0  3  0  0  0  0  0  0
    1.6908    4.2856   11.9665 C   0  0  2  0  0  3  0  0  0  0  0  0
   -0.8830    1.2530   10.2184 C   0  0  1  0  0  3  0  0  0  0  0  0
    1.0804    5.7964   10.3213 C   0  0  0  0  0  0  0  0  0  0  0  0
   -1.6201    1.6159   11.3708 C   0  0  0  0  0  0  0  0  0  0  0  0
    0.5970    5.0782   12.4489 C   0  0  1  0  0  0  0  0  0  0  0  0
    0.4928    1.3890   10.5504 C   0  0  1  0  0  0  0  0  0  0  0  0
    1.9505    4.7198   10.6263 C   0  0  1  0  0  3  0  0  0  0  0  0
   -0.7111    1.9728   12.3909 C   0  0  0  0  0  0  0  0  0  0  0  0
   -2.7869    0.7201    8.4808 C   0  0  0  0  0  0  0  0  0  0  0  0
   -0.8114   -0.8226    8.9287 C   0  0  0  0  0  0  0  0  0  0  0  0
    0.2541    6.0263   11.4542 C   0  0  0  0  0  0  0  0  0  0  0  0
    2.2580    2.4664   14.5630 C   0  0  0  0  0  0  0  0  0  0  0  0
   -0.9786   -1.6166   10.0576 C   0  0  0  0  0  0  0  0  0  0  0  0
    3.7411    1.7657   11.9775 C   0  0  0  0  0  0  0  0  0  0  0  0
   -1.2931    0.6154    8.9059 C   0  0  2  0  0  0  0  0  0  0  0  0
    3.0243    4.1888    9.7162 C   0  0  0  0  0  0  0  0  0  0  0  0
   -0.0516    5.0354   13.8060 C   0  0  0  0  0  0  0  0  0  0  0  0
   -0.6993    7.1747   11.6123 C   0  0  0  0  0  0  0  0  0  0  0  0
   -0.1742   -1.3691    7.8214 C   0  0  0  0  0  0  0  0  0  0  0  0
   -3.2569    2.1752    8.5744 C   0  0  0  0  0  0  0  0  0  0  0  0
    1.0639    6.6383    9.0772 C   0  0  0  0  0  0  0  0  0  0  0  0
   -0.5463   -2.9302   10.0678 C   0  0  0  0  0  0  0  0  0  0  0  0
    0.2581   -2.6839    7.8292 C   0  0  0  0  0  0  0  0  0  0  0  0
    0.0680   -3.4712    8.9512 C   0  0  0  0  0  0  0  0  0  0  0  0
   -2.8903    0.2867    7.0125 C   0  0  0  0  0  0  0  0  0  0  0  0
   -3.7068   -0.1837    9.3048 C   0  0  0  0  0  0  0  0  0  0  0  0
   -0.7275    1.1310    8.1160 H   0  0  0  0  0  0  0  0  0  0  0  0
   -0.6876   -3.5344   10.9524 H   0  0  0  0  0  0  0  0  0  0  0  0
   -0.9887    2.1947   13.4148 H   0  0  0  0  0  0  0  0  0  0  0  0
   -1.4426   -1.2000   10.9388 H   0  0  0  0  0  0  0  0  0  0  0  0
   -3.6367    0.0253   10.3671 H   0  0  0  0  0  0  0  0  0  0  0  0
   -0.0096   -0.7590    6.9446 H   0  0  0  0  0  0  0  0  0  0  0  0
    1.3103    1.0707    9.9110 H   0  0  0  0  0  0  0  0  0  0  0  0
   -2.5528   -0.7389    6.8836 H   0  0  0  0  0  0  0  0  0  0  0  0
    0.0377    6.8042    8.7410 H   0  0  0  0  0  0  0  0  0  0  0  0
   -3.3917    2.4971    9.6040 H   0  0  0  0  0  0  0  0  0  0  0  0
   -4.2143    2.2847    8.0680 H   0  0  0  0  0  0  0  0  0  0  0  0
    3.3393    4.9595    9.0142 H   0  0  0  0  0  0  0  0  0  0  0  0
   -3.4592   -1.2307    9.1461 H   0  0  0  0  0  0  0  0  0  0  0  0
    3.8945    3.8838   10.2924 H   0  0  0  0  0  0  0  0  0  0  0  0
    1.5167    7.6133    9.2713 H   0  0  0  0  0  0  0  0  0  0  0  0
    3.8804    0.8011   12.4544 H   0  0  0  0  0  0  0  0  0  0  0  0
    0.0959    5.9843   14.3257 H   0  0  0  0  0  0  0  0  0  0  0  0
    2.6679    3.3323    9.1320 H   0  0  0  0  0  0  0  0  0  0  0  0
    0.4039   -4.4978    8.9583 H   0  0  0  0  0  0  0  0  0  0  0  0
    3.7080    1.5967   10.9077 H   0  0  0  0  0  0  0  0  0  0  0  0
   -1.4508    6.9600   12.3701 H   0  0  0  0  0  0  0  0  0  0  0  0
    4.6173    2.3654   12.1990 H   0  0  0  0  0  0  0  0  0  0  0  0
   -2.5442    2.8434    8.0911 H   0  0  0  0  0  0  0  0  0  0  0  0
   -2.2902    0.9356    6.3783 H   0  0  0  0  0  0  0  0  0  0  0  0
   -3.9237    0.3473    6.6782 H   0  0  0  0  0  0  0  0  0  0  0  0
   -4.7389   -0.0277    8.9972 H   0  0  0  0  0  0  0  0  0  0  0  0
    1.2998    2.2450   15.0206 H   0  0  0  0  0  0  0  0  0  0  0  0
   -2.6904    1.5545   11.5127 H   0  0  0  0  0  0  0  0  0  0  0  0
   -1.1314    4.8752   13.7094 H   0  0  0  0  0  0  0  0  0  0  0  0
   -1.2122    7.3882   10.6743 H   0  0  0  0  0  0  0  0  0  0  0  0
    2.6369    3.3845   14.9992 H   0  0  0  0  0  0  0  0  0  0  0  0
    0.7479   -3.0932    6.9573 H   0  0  0  0  0  0  0  0  0  0  0  0
    0.3702    4.2472   14.4219 H   0  0  0  0  0  0  0  0  0  0  0  0
    2.9378    1.6697   14.8440 H   0  0  0  0  0  0  0  0  0  0  0  0
   -0.1553    8.0739   11.9116 H   0  0  0  0  0  0  0  0  0  0  0  0
    1.6081    6.1572    8.2669 H   0  0  0  0  0  0  0  0  0  0  0  0
  1  3  1  0  0  0  0
  1 10  1  0  0  0  0
  2 17  1  0  0  0  0
  4  1  1  0  0  0  0
  5 13  1  6  0  0  0
  5  2  1  0  0  0  0
  6 10  1  0  0  0  0
  6  2  1  6  0  0  0
  7 20  1  1  0  0  0
  7 11  1  0  0  0  0
  7  9  1  0  0  0  0
  8 12  1  0  0  0  0
  8 16  2  0  0  0  0
  9 59  1  0  0  0  0
  9 13  2  0  0  0  0
 10 22  1  1  0  0  0
 11 38  1  6  0  0  0
 11  1  1  0  0  0  0
 11  5  1  0  0  0  0
 12 21  1  1  0  0  0
 12  6  1  0  0  0  0
 13 34  1  0  0  0  0
 14 25  1  0  0  0  0
 14 20  1  0  0  0  0
 14 31  1  0  0  0  0
 15 18  1  0  0  0  0
 16 23  1  0  0  0  0
 16 10  1  0  0  0  0
 17 65  1  0  0  0  0
 17 62  1  0  0  0  0
 17 58  1  0  0  0  0
 18 27  2  0  0  0  0
 18 35  1  0  0  0  0
 19 53  1  0  0  0  0
 19 47  1  0  0  0  0
 19  2  1  0  0  0  0
 20 32  1  6  0  0  0
 20 15  1  0  0  0  0
 21 45  1  0  0  0  0
 22 48  1  0  0  0  0
 22 64  1  0  0  0  0
 23 66  1  0  0  0  0
 23 52  1  0  0  0  0
 24 28  1  0  0  0  0
 24 15  2  0  0  0  0
 25 41  1  0  0  0  0
 26 46  1  0  0  0  0
 26  8  1  0  0  0  0
 27 33  1  0  0  0  0
 28 29  2  0  0  0  0
 29 50  1  0  0  0  0
 29 27  1  0  0  0  0
 30 14  1  0  0  0  0
 31 36  1  0  0  0  0
 37 24  1  0  0  0  0
 39 30  1  0  0  0  0
 40 26  1  0  0  0  0
 42 25  1  0  0  0  0
 43 21  1  0  0  0  0
 44 31  1  0  0  0  0
 49 21  1  0  0  0  0
 51 19  1  0  0  0  0
 54 25  1  0  0  0  0
 55 30  1  0  0  0  0
 56 30  1  0  0  0  0
 57 31  1  0  0  0  0
 60 22  1  0  0  0  0
 61 23  1  0  0  0  0
 63 28  1  0  0  0  0
 67 26  1  0  0  0  0
M  END
$$$$
