CSD_code = PIBRIE | q = 0 | S = 0 | Stoichiometry = C8H13Cl2NOPtS | MND = 4
 OpenBabel04212202083D

 27 27  0  0  0  0  0  0  0  0999 V2000
    5.7658    5.8057    1.6375 Pt  0  0  0  0  0  0  0  0  0  0  0  0
    5.2355    3.7461    2.4831 Cl  0  0  0  0  0  0  0  0  0  0  0  0
    6.3138    7.8841    0.8447 Cl  0  0  0  0  0  0  0  0  0  0  0  0
    6.4331    4.9208   -0.2894 S   0  0  0  0  0  0  0  0  0  0  0  0
    7.8656    4.8639   -0.4583 O   0  0  0  0  0  1  0  0  0  0  0  0
    5.1917    6.6968    3.4386 N   0  0  0  0  0  4  0  0  0  0  0  0
    5.6727    7.6023    3.4590 H   0  0  0  0  0  0  0  0  0  0  0  0
    5.4904    6.0957    4.2121 H   0  0  0  0  0  0  0  0  0  0  0  0
    3.7673    6.8588    3.4242 C   0  0  0  0  0  0  0  0  0  0  0  0
    3.2071    7.9477    2.7637 C   0  0  0  0  0  0  0  0  0  0  0  0
    3.8512    8.6608    2.2704 H   0  0  0  0  0  0  0  0  0  0  0  0
    1.8321    8.0924    2.7292 C   0  0  0  0  0  0  0  0  0  0  0  0
    1.3974    8.9353    2.2141 H   0  0  0  0  0  0  0  0  0  0  0  0
    1.0158    7.1623    3.3523 C   0  0  0  0  0  0  0  0  0  0  0  0
   -0.0567    7.2793    3.3231 H   0  0  0  0  0  0  0  0  0  0  0  0
    1.5770    6.0803    4.0098 C   0  0  0  0  0  0  0  0  0  0  0  0
    0.9442    5.3523    4.4936 H   0  0  0  0  0  0  0  0  0  0  0  0
    2.9513    5.9260    4.0530 C   0  0  0  0  0  0  0  0  0  0  0  0
    3.3916    5.0749    4.5501 H   0  0  0  0  0  0  0  0  0  0  0  0
    5.7732    3.2707   -0.6650 C   0  0  0  0  0  0  0  0  0  0  0  0
    6.1424    2.5818    0.0870 H   0  0  0  0  0  0  0  0  0  0  0  0
    6.1286    2.9806   -1.6470 H   0  0  0  0  0  0  0  0  0  0  0  0
    4.6910    3.3173   -0.6246 H   0  0  0  0  0  0  0  0  0  0  0  0
    5.7309    5.8204   -1.7039 C   0  0  0  0  0  0  0  0  0  0  0  0
    6.0435    5.3323   -2.6197 H   0  0  0  0  0  0  0  0  0  0  0  0
    6.1082    6.8373   -1.6731 H   0  0  0  0  0  0  0  0  0  0  0  0
    4.6513    5.8188   -1.5970 H   0  0  0  0  0  0  0  0  0  0  0  0
  1  2  1  0  0  0  0
  1  6  1  0  0  0  0
  3  1  1  0  0  0  0
  4  1  1  0  0  0  0
  5  4  1  0  0  0  0
  6  7  1  0  0  0  0
  6  8  1  0  0  0  0
  9  6  1  0  0  0  0
  9 18  1  0  0  0  0
 10  9  2  0  0  0  0
 11 10  1  0  0  0  0
 12 10  1  0  0  0  0
 12 14  2  0  0  0  0
 13 12  1  0  0  0  0
 14 16  1  0  0  0  0
 15 14  1  0  0  0  0
 16 18  2  0  0  0  0
 16 17  1  0  0  0  0
 18 19  1  0  0  0  0
 20 23  1  0  0  0  0
 20  4  1  0  0  0  0
 20 21  1  0  0  0  0
 22 20  1  0  0  0  0
 24 26  1  0  0  0  0
 24 27  1  0  0  0  0
 24  4  1  0  0  0  0
 25 24  1  0  0  0  0
M  END
$$$$
