CSD_code = PICNIY | q = 0 | S = 0 | Stoichiometry = C12H10AuCl3S | MND = 4
 OpenBabel04212202083D

 27 28  0  0  0  0  0  0  0  0999 V2000
   11.4327    6.7258    8.6912 Au  0  0  0  0  0  0  0  0  0  0  0  0
   13.5378    6.7317    9.9295 S   0  0  0  0  0  3  0  0  0  0  0  0
   12.7710    6.5961    6.8466 Cl  0  0  0  0  0  0  0  0  0  0  0  0
    9.5592    6.6636    7.4217 Cl  0  0  0  0  0  0  0  0  0  0  0  0
   10.1742    6.7314   10.6046 Cl  0  0  0  0  0  0  0  0  0  0  0  0
   13.6916    4.9451    9.9856 C   0  0  0  0  0  0  0  0  0  0  0  0
   12.7182    4.1630   10.5897 C   0  0  0  0  0  0  0  0  0  0  0  0
   11.8655    4.6209   11.0692 H   0  0  0  0  0  0  0  0  0  0  0  0
   12.8576    2.7869   10.5588 C   0  0  0  0  0  0  0  0  0  0  0  0
   12.1048    2.1688   11.0233 H   0  0  0  0  0  0  0  0  0  0  0  0
   13.9458    2.2070    9.9246 C   0  0  0  0  0  0  0  0  0  0  0  0
   14.0416    1.1322    9.8983 H   0  0  0  0  0  0  0  0  0  0  0  0
   14.9044    3.0014    9.3177 C   0  0  0  0  0  0  0  0  0  0  0  0
   15.7475    2.5510    8.8173 H   0  0  0  0  0  0  0  0  0  0  0  0
   14.7828    4.3805    9.3455 C   0  0  0  0  0  0  0  0  0  0  0  0
   15.5133    5.0150    8.8695 H   0  0  0  0  0  0  0  0  0  0  0  0
   13.1443    7.1904   11.6179 C   0  0  0  0  0  0  0  0  0  0  0  0
   13.4972    6.3864   12.6884 C   0  0  0  0  0  0  0  0  0  0  0  0
   13.9954    5.4428   12.5288 H   0  0  0  0  0  0  0  0  0  0  0  0
   13.2004    6.8115   13.9721 C   0  0  0  0  0  0  0  0  0  0  0  0
   13.4639    6.1842   14.8100 H   0  0  0  0  0  0  0  0  0  0  0  0
   12.5720    8.0272   14.1805 C   0  0  0  0  0  0  0  0  0  0  0  0
   12.3354    8.3468   15.1837 H   0  0  0  0  0  0  0  0  0  0  0  0
   12.2489    8.8351   13.1019 C   0  0  0  0  0  0  0  0  0  0  0  0
   11.7635    9.7856   13.2592 H   0  0  0  0  0  0  0  0  0  0  0  0
   12.5380    8.4224   11.8151 C   0  0  0  0  0  0  0  0  0  0  0  0
   12.2831    9.0407   10.9681 H   0  0  0  0  0  0  0  0  0  0  0  0
  1  2  1  0  0  0  0
  1  5  1  0  0  0  0
  2  6  1  0  0  0  0
  2 17  1  0  0  0  0
  3  1  1  0  0  0  0
  4  1  1  0  0  0  0
  6  7  1  0  0  0  0
  7  8  1  0  0  0  0
  9  7  2  0  0  0  0
  9 10  1  0  0  0  0
 11  9  1  0  0  0  0
 12 11  1  0  0  0  0
 13 15  1  0  0  0  0
 13 11  2  0  0  0  0
 14 13  1  0  0  0  0
 15  6  2  0  0  0  0
 16 15  1  0  0  0  0
 17 26  2  0  0  0  0
 17 18  1  0  0  0  0
 18 20  2  0  0  0  0
 19 18  1  0  0  0  0
 20 22  1  0  0  0  0
 20 21  1  0  0  0  0
 22 23  1  0  0  0  0
 24 25  1  0  0  0  0
 24 22  2  0  0  0  0
 26 24  1  0  0  0  0
 27 26  1  0  0  0  0
M  END
$$$$
