CSD_code = PICNEU | q = 0 | S = 0 | Stoichiometry = C31H22Cl2Hf | MND = 12
 OpenBabel04212202083D

 56 62  0  0  1  0  0  0  0  0999 V2000
    1.7972   11.4081   11.6417 Hf  0  0  0  0  0  0  0  0  0  0  0  0
    2.1390    9.7510   13.1899 Cl  0  0  0  0  0  0  0  0  0  0  0  0
    2.5000   11.4083    9.3953 C   0  0  0  0  0  0  0  0  0  0  0  0
    3.1196   10.2504    9.9861 C   0  0  0  0  0  0  0  0  0  0  0  0
    2.8959    8.8606    9.8547 C   0  0  0  0  0  0  0  0  0  0  0  0
    3.7003    7.9811   10.5390 C   0  0  0  0  0  0  0  0  0  0  0  0
    4.7409    8.4191   11.3682 C   0  0  0  0  0  0  0  0  0  0  0  0
    4.9804    9.7622   11.5430 C   0  0  0  0  0  0  0  0  0  0  0  0
    4.1697   10.6895   10.8810 C   0  0  0  0  0  0  0  0  0  0  0  0
    1.1545   11.4083    8.6737 C   0  0  0  0  0  0  0  0  0  0  0  0
    0.9553   12.5935    7.7411 C   0  0  0  0  0  0  0  0  0  0  0  0
    2.0139   13.0721    6.9775 C   0  0  0  0  0  0  0  0  0  0  0  0
    1.8186   14.0993    6.0728 C   0  0  0  0  0  0  0  0  0  0  0  0
    0.5602   14.6536    5.9090 C   0  0  0  0  0  0  0  0  0  0  0  0
   -0.5030   14.1656    6.6483 C   0  0  0  0  0  0  0  0  0  0  0  0
   -0.3092   13.1363    7.5527 C   0  0  0  0  0  0  0  0  0  0  0  0
    0.2172   11.4083    9.8748 C   0  0  1  0  0  0  0  0  0  0  0  0
   -0.0791   10.2621   10.6639 C   0  0  0  0  0  3  0  0  0  0  0  0
   -0.6383   12.1114   11.8883 C   0  0  0  0  0  0  0  0  0  0  0  0
    2.1268    8.4839    9.1965 H   0  0  0  0  0  0  0  0  0  0  0  0
    3.5281    6.9205   10.4341 H   0  0  0  0  0  0  0  0  0  0  0  0
    5.3520    7.6910   11.8778 H   0  0  0  0  0  0  0  0  0  0  0  0
    5.7793   10.1037   12.1854 H   0  0  0  0  0  0  0  0  0  0  0  0
    2.9992   12.6490    7.1019 H   0  0  0  0  0  0  0  0  0  0  0  0
    2.6523   14.4670    5.4934 H   0  0  0  0  0  0  0  0  0  0  0  0
    0.4083   15.4572    5.2040 H   0  0  0  0  0  0  0  0  0  0  0  0
   -1.4902   14.5841    6.5190 H   0  0  0  0  0  0  0  0  0  0  0  0
   -1.1472   12.7531    8.1151 H   0  0  0  0  0  0  0  0  0  0  0  0
   -0.0450    9.2333   10.3320 H   0  0  0  0  0  0  0  0  0  0  0  0
   -1.0837   12.7463   12.6407 H   0  0  0  0  0  0  0  0  0  0  0  0
    2.1396   13.0654   13.1903 Cl  0  0  0  0  0  0  0  0  0  0  0  0
    3.1195   12.5662    9.9861 C   0  0  0  0  0  0  0  0  0  0  0  0
    4.1696   12.1271   10.8810 C   0  0  0  0  0  0  0  0  0  0  0  0
   -0.0790   12.5544   10.6640 C   0  0  0  0  0  3  0  0  0  0  0  0
   -0.6383   10.7051   11.8882 C   0  0  0  0  0  0  0  0  0  0  0  0
    0.9552   10.2230    7.7411 C   0  0  0  0  0  0  0  0  0  0  0  0
    2.8958   13.9559    9.8547 C   0  0  0  0  0  0  0  0  0  0  0  0
    4.9803   13.0544   11.5431 C   0  0  0  0  0  0  0  0  0  0  0  0
   -0.0447   13.5833   10.3321 H   0  0  0  0  0  0  0  0  0  0  0  0
   -1.0838   10.0702   12.6406 H   0  0  0  0  0  0  0  0  0  0  0  0
    2.0139    9.7444    6.9775 C   0  0  0  0  0  0  0  0  0  0  0  0
   -0.3092    9.6803    7.5527 C   0  0  0  0  0  0  0  0  0  0  0  0
    3.7001   14.8354   10.5390 C   0  0  0  0  0  0  0  0  0  0  0  0
    2.1267   14.3326    9.1965 H   0  0  0  0  0  0  0  0  0  0  0  0
    4.7407   14.3975   11.3683 C   0  0  0  0  0  0  0  0  0  0  0  0
    5.7792   12.7129   12.1854 H   0  0  0  0  0  0  0  0  0  0  0  0
    1.8185    8.7171    6.0729 C   0  0  0  0  0  0  0  0  0  0  0  0
    2.9992   10.1675    7.1020 H   0  0  0  0  0  0  0  0  0  0  0  0
   -0.5031    8.6509    6.6484 C   0  0  0  0  0  0  0  0  0  0  0  0
   -1.1472   10.0635    8.1151 H   0  0  0  0  0  0  0  0  0  0  0  0
    3.5280   15.8960   10.4342 H   0  0  0  0  0  0  0  0  0  0  0  0
    5.3518   15.1256   11.8779 H   0  0  0  0  0  0  0  0  0  0  0  0
    0.5602    8.1628    5.9090 C   0  0  0  0  0  0  0  0  0  0  0  0
    2.6523    8.3494    5.4935 H   0  0  0  0  0  0  0  0  0  0  0  0
   -1.4902    8.2324    6.5191 H   0  0  0  0  0  0  0  0  0  0  0  0
    0.4082    7.3592    5.2042 H   0  0  0  0  0  0  0  0  0  0  0  0
  1  2  1  0  0  0  0
  1 31  1  0  0  0  0
  3  4  1  0  0  0  0
  3 32  1  0  0  0  0
  3  1  1  0  0  0  0
  4  9  1  0  0  0  0
  5  4  2  0  0  0  0
  5  6  1  0  0  0  0
  6  7  2  0  0  0  0
  7  8  1  0  0  0  0
  7 22  1  0  0  0  0
  8 23  1  0  0  0  0
  9 33  1  0  0  0  0
  9  8  2  0  0  0  0
 10  3  1  0  0  0  0
 10 17  1  0  0  0  0
 11 10  1  0  0  0  0
 12 24  1  0  0  0  0
 12 11  2  0  0  0  0
 13 12  1  0  0  0  0
 14 13  2  0  0  0  0
 14 15  1  0  0  0  0
 15 16  2  0  0  0  0
 16 11  1  0  0  0  0
 16 28  1  0  0  0  0
 17 18  1  1  0  0  0
 17 34  1  0  0  0  0
 17  1  1  0  0  0  0
 18 35  1  0  0  0  0
 19 30  1  0  0  0  0
 20  5  1  0  0  0  0
 21  6  1  0  0  0  0
 25 13  1  0  0  0  0
 26 14  1  0  0  0  0
 27 15  1  0  0  0  0
 29 18  1  0  0  0  0
 32 33  1  0  0  0  0
 33 38  2  0  0  0  0
 34 19  1  0  0  0  0
 35 19  2  0  0  0  0
 35 40  1  0  0  0  0
 36 10  1  0  0  0  0
 37 32  2  0  0  0  0
 37 43  1  0  0  0  0
 38 46  1  0  0  0  0
 39 34  1  0  0  0  0
 41 48  1  0  0  0  0
 41 36  2  0  0  0  0
 42 36  1  0  0  0  0
 42 50  1  0  0  0  0
 43 45  2  0  0  0  0
 44 37  1  0  0  0  0
 45 38  1  0  0  0  0
 45 52  1  0  0  0  0
 47 41  1  0  0  0  0
 49 42  2  0  0  0  0
 51 43  1  0  0  0  0
 53 47  2  0  0  0  0
 53 49  1  0  0  0  0
 54 47  1  0  0  0  0
 55 49  1  0  0  0  0
 56 53  1  0  0  0  0
M  END
$$$$
