CSD_code = PIDMUK | q = 0 | S = 0 | Stoichiometry = C2H8Cl3N3ORu | MND = 6
 OpenBabel04212202083D

 18 18  0  0  0  0  0  0  0  0999 V2000
   -0.6939    2.8645    0.7914 Ru  0  0  0  0  0  0  0  0  0  0  0  0
   -1.8295    1.0893    1.8428 Cl  0  0  0  0  0  0  0  0  0  0  0  0
    1.3510    1.7997    1.0296 Cl  0  0  0  0  0  0  0  0  0  0  0  0
    0.2227    4.4025   -0.7459 Cl  0  0  0  0  0  0  0  0  0  0  0  0
   -0.3442    4.4925    3.0622 O   0  0  0  0  0  1  0  0  0  0  0  0
   -0.9086    1.6529   -0.9484 N   0  0  0  0  0  4  0  0  0  0  0  0
   -2.6919    3.4788    0.1266 N   0  0  0  0  0  4  0  0  0  0  0  0
   -0.5035    3.8286    2.1402 N   0  0  0  0  0  2  0  0  0  0  0  0
   -2.2995    1.6562   -1.4169 C   0  0  0  0  0  0  0  0  0  0  0  0
   -2.8315    3.0822   -1.2784 C   0  0  0  0  0  0  0  0  0  0  0  0
   -2.2201    3.7628   -1.8808 H   0  0  0  0  0  0  0  0  0  0  0  0
   -3.8749    3.1371   -1.6103 H   0  0  0  0  0  0  0  0  0  0  0  0
   -2.3823    1.3167   -2.4559 H   0  0  0  0  0  0  0  0  0  0  0  0
   -2.8783    0.9866   -0.7707 H   0  0  0  0  0  0  0  0  0  0  0  0
   -0.2901    2.0536   -1.6654 H   0  0  0  0  0  0  0  0  0  0  0  0
   -2.8913    4.4724    0.2378 H   0  0  0  0  0  0  0  0  0  0  0  0
   -3.3339    2.9359    0.7138 H   0  0  0  0  0  0  0  0  0  0  0  0
   -0.5884    0.6956   -0.7669 H   0  0  0  0  0  0  0  0  0  0  0  0
  1  3  1  0  0  0  0
  1  2  1  0  0  0  0
  1  8  1  0  0  0  0
  4  1  1  0  0  0  0
  6 18  1  0  0  0  0
  6  1  1  0  0  0  0
  7 16  1  0  0  0  0
  7 17  1  0  0  0  0
  7  1  1  0  0  0  0
  8  5  1  0  0  0  0
  9 10  1  0  0  0  0
  9  6  1  0  0  0  0
  9 14  1  0  0  0  0
 10  7  1  0  0  0  0
 11 10  1  0  0  0  0
 12 10  1  0  0  0  0
 13  9  1  0  0  0  0
 15  6  1  0  0  0  0
M  END
$$$$
