CSD_code = PIFBEL | q = 0 | S = 0 | Stoichiometry = C3H9Cl2NOPtS | MND = 4
 OpenBabel04212202083D

 18 18  0  0  0  0  0  0  0  0999 V2000
    0.4022    1.3864    1.1331 Pt  0  0  0  0  0  0  0  0  0  0  0  0
    0.9298    0.1570    2.9774 S   0  0  1  0  0  0  0  0  0  0  0  0
   -1.4424    2.2262    2.0600 Cl  0  0  0  0  0  0  0  0  0  0  0  0
    0.1734    2.6059   -0.7283 Cl  0  0  0  0  0  0  0  0  0  0  0  0
    2.2511    0.6223    0.3476 N   0  0  0  0  0  4  0  0  0  0  0  0
    0.2502   -1.0125    3.4874 O   0  0  0  0  0  1  0  0  0  0  0  0
    2.6485   -0.4150    2.5264 C   0  0  0  0  0  0  0  0  0  0  0  0
    3.2148    0.4879    1.4436 C   0  0  0  0  0  0  0  0  0  0  0  0
    1.3361    1.2196    4.3964 C   0  0  0  0  0  0  0  0  0  0  0  0
    2.5540    1.2984   -0.3558 H   0  0  0  0  0  0  0  0  0  0  0  0
    2.1008   -0.2696   -0.1230 H   0  0  0  0  0  0  0  0  0  0  0  0
    2.5093   -1.4338    2.1658 H   0  0  0  0  0  0  0  0  0  0  0  0
    3.2728   -0.4338    3.4150 H   0  0  0  0  0  0  0  0  0  0  0  0
    3.4036    1.4869    1.8497 H   0  0  0  0  0  0  0  0  0  0  0  0
    4.1717    0.0825    1.0856 H   0  0  0  0  0  0  0  0  0  0  0  0
    2.0113    1.9990    4.0610 H   0  0  0  0  0  0  0  0  0  0  0  0
    1.7719    0.6153    5.1834 H   0  0  0  0  0  0  0  0  0  0  0  0
    0.4025    1.6591    4.7331 H   0  0  0  0  0  0  0  0  0  0  0  0
  1  3  1  0  0  0  0
  1  2  1  0  0  0  0
  2  6  1  1  0  0  0
  2  9  1  0  0  0  0
  4  1  1  0  0  0  0
  5  1  1  0  0  0  0
  5  8  1  0  0  0  0
  7  2  1  0  0  0  0
  7 13  1  0  0  0  0
  8 14  1  0  0  0  0
  8  7  1  0  0  0  0
  9 18  1  0  0  0  0
  9 17  1  0  0  0  0
 10  5  1  0  0  0  0
 11  5  1  0  0  0  0
 12  7  1  0  0  0  0
 15  8  1  0  0  0  0
 16  9  1  0  0  0  0
M  END
$$$$
