CSD_code = PIFCEN | q = 0 | S = 0 | Stoichiometry = C17H20ClN3O3PdS | MND = 4
 OpenBabel04212202083D

 46 48  0  0  0  0  0  0  0  0999 V2000
    5.9808   -0.3361    2.0931 Cl  0  0  0  0  0  0  0  0  0  0  0  0
    4.2072    3.5049   -0.4849 C   0  0  0  0  0  0  0  0  0  0  0  0
    4.3519    3.1432    4.4699 N   0  0  0  0  0  0  0  0  0  0  0  0
    3.7480    4.3967    4.0794 C   0  0  0  0  0  0  0  0  0  0  0  0
    3.8163    4.4913    2.9969 H   0  0  0  0  0  0  0  0  0  0  0  0
    4.2692    5.2311    4.5521 H   0  0  0  0  0  0  0  0  0  0  0  0
    2.6993    4.4185    4.3810 H   0  0  0  0  0  0  0  0  0  0  0  0
    4.3390    2.8320    5.8754 C   0  0  0  0  0  0  0  0  0  0  0  0
    3.3110    2.7942    6.2431 H   0  0  0  0  0  0  0  0  0  0  0  0
    4.8796    3.5977    6.4368 H   0  0  0  0  0  0  0  0  0  0  0  0
    4.8114    1.8675    6.0474 H   0  0  0  0  0  0  0  0  0  0  0  0
    4.9194    2.5899    2.3620 O   0  0  0  0  0  0  0  0  0  0  0  0
    5.5527    1.2155    0.5898 Pd  0  0  2  0  0  0  0  0  0  0  0  0
    7.2019    2.3432   -4.5535 S   0  0  0  0  0  0  0  0  0  0  0  0
    4.3165    4.8069   -0.9748 C   0  0  0  0  0  0  0  0  0  0  0  0
    5.1640    5.0688   -1.5887 H   0  0  0  0  0  0  0  0  0  0  0  0
    5.1497    2.5177   -0.7381 N   0  0  0  0  0  0  0  0  0  0  0  0
    6.5730    0.4795   -0.9534 C   0  0  0  0  0  0  0  0  0  0  0  0
    3.1012    3.1497    0.2943 C   0  0  0  0  0  0  0  0  0  0  0  0
    2.9997    2.1134    0.6274 H   0  0  0  0  0  0  0  0  0  0  0  0
    5.7563    2.5274   -1.8641 N   0  0  0  0  0  0  0  0  0  0  0  0
    6.5520    1.4271   -2.0163 C   0  0  0  0  0  0  0  0  0  0  0  0
    7.2766    1.1852   -3.1829 C   0  0  0  0  0  0  0  0  0  0  0  0
    3.3540    5.7403   -0.6517 C   0  0  0  0  0  0  0  0  0  0  0  0
    3.4466    6.7514   -1.0205 H   0  0  0  0  0  0  0  0  0  0  0  0
    2.2590    5.4027    0.1401 C   0  0  0  0  0  0  0  0  0  0  0  0
    8.0290    0.0397   -3.3094 C   0  0  0  0  0  0  0  0  0  0  0  0
    8.5770   -0.1123   -4.2260 H   0  0  0  0  0  0  0  0  0  0  0  0
    8.1875    1.9452   -5.5253 O   0  0  0  0  0  0  0  0  0  0  0  0
    4.8916    2.3361    3.5630 C   0  0  0  0  0  3  0  0  0  0  0  0
    5.3119    1.4070    3.9733 H   0  0  0  0  0  0  0  0  0  0  0  0
    8.0663   -0.8834   -2.2714 C   0  0  0  0  0  0  0  0  0  0  0  0
    8.6588   -1.7803   -2.3740 H   0  0  0  0  0  0  0  0  0  0  0  0
    2.1410    4.0930    0.5968 C   0  0  0  0  0  0  0  0  0  0  0  0
    1.2835    3.8122    1.1915 H   0  0  0  0  0  0  0  0  0  0  0  0
    7.3434   -0.6643   -1.1041 C   0  0  0  0  0  0  0  0  0  0  0  0
    7.3781   -1.3986   -0.3089 H   0  0  0  0  0  0  0  0  0  0  0  0
    1.2265    6.4337    0.4734 C   0  0  0  0  0  0  0  0  0  0  0  0
    0.4984    6.0460    1.1810 H   0  0  0  0  0  0  0  0  0  0  0  0
    0.6998    6.7403   -0.4297 H   0  0  0  0  0  0  0  0  0  0  0  0
    1.6940    7.3202    0.8992 H   0  0  0  0  0  0  0  0  0  0  0  0
    7.7243    3.9248   -3.8293 C   0  0  0  0  0  0  0  0  0  0  0  0
    8.7400    3.8070   -3.4754 H   0  0  0  0  0  0  0  0  0  0  0  0
    7.0382    4.1417   -3.0222 H   0  0  0  0  0  0  0  0  0  0  0  0
    7.6707    4.6796   -4.6036 H   0  0  0  0  0  0  0  0  0  0  0  0
    5.8443    2.4709   -5.0063 O   0  0  0  0  0  0  0  0  0  0  0  0
  2 19  1  0  0  0  0
  3  8  1  0  0  0  0
  4  7  1  0  0  0  0
  4  3  1  0  0  0  0
  4  6  1  0  0  0  0
  5  4  1  0  0  0  0
  8 11  1  0  0  0  0
  8  9  1  0  0  0  0
  8 10  1  0  0  0  0
 12 30  1  0  0  0  0
 13  1  1  6  0  0  0
 13 12  1  0  0  0  0
 14 42  1  0  0  0  0
 14 23  1  0  0  0  0
 15 24  1  0  0  0  0
 15  2  2  0  0  0  0
 16 15  1  0  0  0  0
 17  2  1  0  0  0  0
 17 13  1  0  0  0  0
 18 13  2  0  0  0  0
 19 34  2  0  0  0  0
 19 20  1  0  0  0  0
 21 17  1  0  0  0  0
 22 21  2  0  0  0  0
 22 18  1  0  0  0  0
 23 22  1  0  0  0  0
 24 26  2  0  0  0  0
 25 24  1  0  0  0  0
 26 38  1  0  0  0  0
 26 34  1  0  0  0  0
 27 23  2  0  0  0  0
 27 32  1  0  0  0  0
 28 27  1  0  0  0  0
 29 14  2  0  0  0  0
 30 31  1  0  0  0  0
 30  3  1  0  0  0  0
 32 36  2  0  0  0  0
 33 32  1  0  0  0  0
 34 35  1  0  0  0  0
 36 18  1  0  0  0  0
 36 37  1  0  0  0  0
 38 41  1  0  0  0  0
 38 39  1  0  0  0  0
 40 38  1  0  0  0  0
 42 43  1  0  0  0  0
 42 44  1  0  0  0  0
 45 42  1  0  0  0  0
 46 14  2  0  0  0  0
M  END
$$$$
