CSD_code = PIFDAK | q = 1 | S = 0 | Stoichiometry = C30H30ClN4Ru(1+) | MND = 9
 OpenBabel04212202083D

 66 70  0  0  1  0  0  0  0  0999 V2000
    8.4306    9.9201    2.4627 C   0  0  0  0  0  3  0  0  0  0  0  0
    9.0620    9.4137    1.7420 H   0  0  0  0  0  0  0  0  0  0  0  0
    8.5856   11.2647    2.7414 C   0  0  0  0  0  0  0  0  0  0  0  0
    9.3287   11.8420    2.2165 H   0  0  0  0  0  0  0  0  0  0  0  0
    7.7847   11.8411    3.7202 C   0  0  0  0  0  0  0  0  0  0  0  0
    7.8964   12.8826    3.9757 H   0  0  0  0  0  0  0  0  0  0  0  0
    6.8612   11.0560    4.3847 C   0  0  0  0  0  0  0  0  0  0  0  0
    6.2572   11.4637    5.1763 H   0  0  0  0  0  0  0  0  0  0  0  0
    6.7349    9.7133    4.0339 C   0  0  0  0  0  0  0  0  0  0  0  0
    5.9425    8.7035    4.7186 C   0  0  0  0  0  0  0  0  0  0  0  0
    4.8556    8.8821    5.6217 C   0  0  0  0  0  0  0  0  0  0  0  0
    4.0715   10.1253    5.6535 C   0  0  0  0  0  0  0  0  0  0  0  0
    3.4070   10.5163    6.8128 C   0  0  0  0  0  0  0  0  0  0  0  0
    3.5139    9.9306    7.7107 H   0  0  0  0  0  0  0  0  0  0  0  0
    2.6255   11.6591    6.7684 C   0  0  0  0  0  0  0  0  0  0  0  0
    2.1007   11.9975    7.6489 H   0  0  0  0  0  0  0  0  0  0  0  0
    2.5258   12.3552    5.5737 C   0  0  0  0  0  0  0  0  0  0  0  0
    1.9248   13.2466    5.4944 H   0  0  0  0  0  0  0  0  0  0  0  0
    3.2171   11.8717    4.4705 C   0  0  0  0  0  0  0  0  0  0  0  0
    3.1643   12.3714    3.5123 H   0  0  0  0  0  0  0  0  0  0  0  0
    5.0131    6.6933    6.2614 C   0  0  0  0  0  0  0  0  0  0  0  0
    5.9952    6.4478    5.2537 C   0  0  2  0  0  3  0  0  0  0  0  0
    6.5789    5.1760    5.1571 C   0  0  0  0  0  0  0  0  0  0  0  0
    7.3796    5.0350    4.4411 H   0  0  0  0  0  0  0  0  0  0  0  0
    6.2187    4.1636    6.0136 C   0  0  0  0  0  0  0  0  0  0  0  0
    5.2147    4.3930    6.9954 C   0  0  0  0  0  0  0  0  0  0  0  0
    4.6387    5.6360    7.1045 C   0  0  0  0  0  0  0  0  0  0  0  0
    3.8898    5.8378    7.8538 H   0  0  0  0  0  0  0  0  0  0  0  0
    6.8889    2.8330    5.9248 C   0  0  0  0  0  0  0  0  0  0  0  0
    7.6633    2.8397    5.1631 H   0  0  0  0  0  0  0  0  0  0  0  0
    6.1665    2.0527    5.6880 H   0  0  0  0  0  0  0  0  0  0  0  0
    7.3457    2.5741    6.8783 H   0  0  0  0  0  0  0  0  0  0  0  0
    4.8093    3.2917    7.9160 C   0  0  0  0  0  0  0  0  0  0  0  0
    4.0136    3.6156    8.5799 H   0  0  0  0  0  0  0  0  0  0  0  0
    5.6572    2.9724    8.5207 H   0  0  0  0  0  0  0  0  0  0  0  0
    4.4656    2.4252    7.3533 H   0  0  0  0  0  0  0  0  0  0  0  0
    5.2302    6.6472    1.7377 C   0  0  2  0  0  3  0  0  0  0  0  0
    5.8180    7.6643    0.9527 C   0  0  1  0  0  0  0  0  0  0  0  0
    7.1224    7.4486    0.4200 C   0  0  0  0  0  0  0  0  0  0  0  0
    7.5337    8.1929   -0.2551 H   0  0  0  0  0  0  0  0  0  0  0  0
    7.8581    6.2845    0.6775 C   0  0  0  0  0  0  0  0  0  0  0  0
    7.2538    5.2468    1.4693 C   0  0  0  0  0  0  0  0  0  0  0  0
    5.9573    5.4418    1.9586 C   0  0  0  0  0  0  0  0  0  0  0  0
    5.4637    4.6307    2.4843 H   0  0  0  0  0  0  0  0  0  0  0  0
    3.8254    6.7802    2.2444 C   0  0  0  0  0  0  0  0  0  0  0  0
    3.6788    7.7239    2.7707 H   0  0  0  0  0  0  0  0  0  0  0  0
    3.5736    5.9644    2.9186 H   0  0  0  0  0  0  0  0  0  0  0  0
    3.1276    6.7614    1.4063 H   0  0  0  0  0  0  0  0  0  0  0  0
    5.0549    8.9067    0.6032 C   0  0  0  0  0  0  0  0  0  0  0  0
    4.1838    8.6488    0.0000 H   0  0  0  0  0  0  0  0  0  0  0  0
    5.6733    9.5976    0.0353 H   0  0  0  0  0  0  0  0  0  0  0  0
    4.6961    9.4174    1.4976 H   0  0  0  0  0  0  0  0  0  0  0  0
    9.2209    6.0885    0.0907 C   0  0  0  0  0  0  0  0  0  0  0  0
    9.2450    5.1917   -0.5273 H   0  0  0  0  0  0  0  0  0  0  0  0
    9.9565    5.9665    0.8873 H   0  0  0  0  0  0  0  0  0  0  0  0
    9.5098    6.9402   -0.5202 H   0  0  0  0  0  0  0  0  0  0  0  0
    7.9799    3.9593    1.7032 C   0  0  0  0  0  0  0  0  0  0  0  0
    7.3838    3.2799    2.3078 H   0  0  0  0  0  0  0  0  0  0  0  0
    8.9272    4.1476    2.2100 H   0  0  0  0  0  0  0  0  0  0  0  0
    8.2033    3.4737    0.7537 H   0  0  0  0  0  0  0  0  0  0  0  0
    9.3389    6.8719    3.6291 Cl  0  0  0  0  0 15  0  0  0  0  0  0
    7.5260    9.1694    3.0810 N   0  0  0  0  0  0  0  0  0  0  0  0
    6.3812    7.4632    4.4517 N   0  0  0  0  0  0  0  0  0  0  0  0
    4.4169    7.8912    6.3575 N   0  0  0  0  0  0  0  0  0  0  0  0
    3.9726   10.7901    4.5013 N   0  0  0  0  0  0  0  0  0  0  0  0
    7.2335    7.2630    2.7059 Ru  0  0  0  0  0  0  0  0  0  0  0  0
  1  3  1  0  0  0  0
  1 62  1  0  0  0  0
  2  1  1  0  0  0  0
  3  5  2  0  0  0  0
  4  3  1  0  0  0  0
  5  6  1  0  0  0  0
  5  7  1  0  0  0  0
  7  8  1  0  0  0  0
  9  7  2  0  0  0  0
  9 10  1  0  0  0  0
 10 11  2  0  0  0  0
 11 12  1  0  0  0  0
 11 64  1  0  0  0  0
 12 13  1  0  0  0  0
 13 14  1  0  0  0  0
 15 13  2  0  0  0  0
 15 16  1  0  0  0  0
 17 15  1  0  0  0  0
 18 17  1  0  0  0  0
 19 65  1  0  0  0  0
 19 17  2  0  0  0  0
 20 19  1  0  0  0  0
 21 64  2  0  0  0  0
 21 27  1  0  0  0  0
 22 23  1  1  0  0  0
 22 21  1  0  0  0  0
 23 25  2  0  0  0  0
 24 23  1  0  0  0  0
 25 26  1  0  0  0  0
 26 27  2  0  0  0  0
 26 33  1  0  0  0  0
 27 28  1  0  0  0  0
 29 25  1  0  0  0  0
 29 32  1  0  0  0  0
 30 29  1  0  0  0  0
 31 29  1  0  0  0  0
 33 35  1  0  0  0  0
 33 34  1  0  0  0  0
 36 33  1  0  0  0  0
 37 43  1  0  0  0  0
 37 45  1  6  0  0  0
 38 49  1  6  0  0  0
 38 37  1  0  0  0  0
 38 66  1  0  0  0  0
 39 41  2  0  0  0  0
 39 38  1  0  0  0  0
 40 39  1  0  0  0  0
 41 42  1  0  0  0  0
 42 57  1  0  0  0  0
 42 43  2  0  0  0  0
 43 44  1  0  0  0  0
 45 46  1  0  0  0  0
 45 47  1  0  0  0  0
 48 45  1  0  0  0  0
 49 52  1  0  0  0  0
 50 49  1  0  0  0  0
 51 49  1  0  0  0  0
 53 41  1  0  0  0  0
 53 55  1  0  0  0  0
 54 53  1  0  0  0  0
 56 53  1  0  0  0  0
 57 59  1  0  0  0  0
 57 58  1  0  0  0  0
 60 57  1  0  0  0  0
 62  9  1  0  0  0  0
 63 10  1  0  0  0  0
 63 22  1  0  0  0  0
 65 12  2  0  0  0  0
 66 62  1  0  0  0  0
 66 63  1  0  0  0  0
M  END
$$$$
