CSD_code = PIFDUD | q = 0 | S = 0 | Stoichiometry = C26H24Cl2NiP2 | MND = 4
 OpenBabel04212202083D

 55 59  0  0  0  0  0  0  0  0999 V2000
    0.8500    3.2499    3.1829 Ni  0  0  0  0  0  0  0  0  0  0  0  0
   -0.8448    3.4831    4.4219 Cl  0  0  0  0  0  0  0  0  0  0  0  0
    2.4095    3.8880    4.4373 Cl  0  0  0  0  0  0  0  0  0  0  0  0
   -0.6355    2.6582    1.7995 P   0  0  0  0  0  4  0  0  0  0  0  0
    2.3241    2.8423    1.7183 P   0  0  0  0  0  4  0  0  0  0  0  0
    0.1844    1.8940    0.2997 C   0  0  0  0  0  0  0  0  0  0  0  0
    1.4863    2.6476    0.0641 C   0  0  0  0  0  0  0  0  0  0  0  0
   -2.2217    4.2489    0.1047 C   0  0  0  0  0  0  0  0  0  0  0  0
   -2.5969    5.4596   -0.4477 C   0  0  0  0  0  0  0  0  0  0  0  0
   -1.9849    6.6339   -0.0359 C   0  0  0  0  0  0  0  0  0  0  0  0
   -0.9950    6.6032    0.9329 C   0  0  0  0  0  0  0  0  0  0  0  0
   -0.6190    5.3952    1.4911 C   0  0  0  0  0  0  0  0  0  0  0  0
   -1.2312    4.2152    1.0811 C   0  0  0  0  0  0  0  0  0  0  0  0
   -3.2884    2.2789    2.4883 C   0  0  0  0  0  0  0  0  0  0  0  0
   -4.4131    1.5224    2.7567 C   0  0  0  0  0  0  0  0  0  0  0  0
   -4.3731    0.1437    2.6219 C   0  0  0  0  0  0  0  0  0  0  0  0
   -3.2006   -0.4806    2.2294 C   0  0  0  0  0  0  0  0  0  0  0  0
   -2.0706    0.2703    1.9603 C   0  0  0  0  0  0  0  0  0  0  0  0
   -2.1158    1.6564    2.0685 C   0  0  0  0  0  0  0  0  0  0  0  0
    4.9399    3.4579    2.2788 C   0  0  0  0  0  0  0  0  0  0  0  0
    6.1560    4.0829    2.0817 C   0  0  0  0  0  0  0  0  0  0  0  0
    6.3423    4.9104    0.9854 C   0  0  0  0  0  0  0  0  0  0  0  0
    5.3061    5.1204    0.0909 C   0  0  0  0  0  0  0  0  0  0  0  0
    4.0834    4.5020    0.2838 C   0  0  0  0  0  0  0  0  0  0  0  0
    3.9012    3.6547    1.3712 C   0  0  0  0  0  0  0  0  0  0  0  0
    2.1581    0.4642    3.1087 C   0  0  0  0  0  0  0  0  0  0  0  0
    2.4526   -0.8594    3.3810 C   0  0  0  0  0  0  0  0  0  0  0  0
    3.3934   -1.5258    2.6127 C   0  0  0  0  0  0  0  0  0  0  0  0
    4.0421   -0.8700    1.5770 C   0  0  0  0  0  0  0  0  0  0  0  0
    3.7494    0.4525    1.2998 C   0  0  0  0  0  0  0  0  0  0  0  0
    2.8013    1.1229    2.0656 C   0  0  0  0  0  0  0  0  0  0  0  0
   -0.4781    1.9353   -0.5689 H   0  0  0  0  0  0  0  0  0  0  0  0
    0.4020    0.8459    0.5245 H   0  0  0  0  0  0  0  0  0  0  0  0
    2.1400    2.1311   -0.6438 H   0  0  0  0  0  0  0  0  0  0  0  0
    1.2671    3.6489   -0.3205 H   0  0  0  0  0  0  0  0  0  0  0  0
   -2.7009    3.3307   -0.2086 H   0  0  0  0  0  0  0  0  0  0  0  0
   -3.3707    5.4898   -1.2010 H   0  0  0  0  0  0  0  0  0  0  0  0
   -2.2851    7.5763   -0.4698 H   0  0  0  0  0  0  0  0  0  0  0  0
   -0.5215    7.5183    1.2556 H   0  0  0  0  0  0  0  0  0  0  0  0
    0.1481    5.3598    2.2712 H   0  0  0  0  0  0  0  0  0  0  0  0
   -3.3042    3.3517    2.6159 H   0  0  0  0  0  0  0  0  0  0  0  0
   -5.3215    2.0081    3.0806 H   0  0  0  0  0  0  0  0  0  0  0  0
   -5.2522   -0.4462    2.8351 H   0  0  0  0  0  0  0  0  0  0  0  0
   -3.1635   -1.5566    2.1413 H   0  0  0  0  0  0  0  0  0  0  0  0
   -1.1521   -0.2252    1.6775 H   0  0  0  0  0  0  0  0  0  0  0  0
    4.7757    2.8278    3.1412 H   0  0  0  0  0  0  0  0  0  0  0  0
    6.9592    3.9298    2.7868 H   0  0  0  0  0  0  0  0  0  0  0  0
    7.2930    5.3994    0.8321 H   0  0  0  0  0  0  0  0  0  0  0  0
    5.4478    5.7736   -0.7579 H   0  0  0  0  0  0  0  0  0  0  0  0
    3.2760    4.6833   -0.4112 H   0  0  0  0  0  0  0  0  0  0  0  0
    1.4333    1.0090    3.7230 H   0  0  0  0  0  0  0  0  0  0  0  0
    1.9544   -1.3682    4.1927 H   0  0  0  0  0  0  0  0  0  0  0  0
    3.6286   -2.5583    2.8247 H   0  0  0  0  0  0  0  0  0  0  0  0
    4.7802   -1.3926    0.9861 H   0  0  0  0  0  0  0  0  0  0  0  0
    4.2594    0.9718    0.4995 H   0  0  0  0  0  0  0  0  0  0  0  0
  1  2  1  0  0  0  0
  1  3  1  0  0  0  0
  4 19  1  0  0  0  0
  4  1  1  0  0  0  0
  5 31  1  0  0  0  0
  5  1  1  0  0  0  0
  6 33  1  0  0  0  0
  6  4  1  0  0  0  0
  7  6  1  0  0  0  0
  7  5  1  0  0  0  0
  8 13  1  0  0  0  0
  9 10  1  0  0  0  0
  9  8  2  0  0  0  0
 10 11  2  0  0  0  0
 11 39  1  0  0  0  0
 11 12  1  0  0  0  0
 12 40  1  0  0  0  0
 13 12  2  0  0  0  0
 13  4  1  0  0  0  0
 14 41  1  0  0  0  0
 14 15  1  0  0  0  0
 15 42  1  0  0  0  0
 16 15  2  0  0  0  0
 16 43  1  0  0  0  0
 17 16  1  0  0  0  0
 18 19  1  0  0  0  0
 18 17  2  0  0  0  0
 19 14  2  0  0  0  0
 20 46  1  0  0  0  0
 21 20  1  0  0  0  0
 21 47  1  0  0  0  0
 22 21  2  0  0  0  0
 23 24  2  0  0  0  0
 23 22  1  0  0  0  0
 24 25  1  0  0  0  0
 25  5  1  0  0  0  0
 25 20  2  0  0  0  0
 26 27  1  0  0  0  0
 26 51  1  0  0  0  0
 27 52  1  0  0  0  0
 28 53  1  0  0  0  0
 28 27  2  0  0  0  0
 29 28  1  0  0  0  0
 30 29  2  0  0  0  0
 30 31  1  0  0  0  0
 31 26  2  0  0  0  0
 32  6  1  0  0  0  0
 34  7  1  0  0  0  0
 35  7  1  0  0  0  0
 36  8  1  0  0  0  0
 37  9  1  0  0  0  0
 38 10  1  0  0  0  0
 44 17  1  0  0  0  0
 45 18  1  0  0  0  0
 48 22  1  0  0  0  0
 49 23  1  0  0  0  0
 50 24  1  0  0  0  0
 54 29  1  0  0  0  0
 55 30  1  0  0  0  0
M  END
$$$$
