CSD_code = PIFGIU | q = 0 | S = 0 | Stoichiometry = C9H22Cl2N2Pt | MND = 4
 OpenBabel04212202083D

 36 36  0  0  1  0  0  0  0  0999 V2000
    5.4922   12.8436    3.5580 Pt  0  0  0  0  0  0  0  0  0  0  0  0
    6.0877   14.4921    5.0079 Cl  0  0  0  0  0  0  0  0  0  0  0  0
    5.4993   14.1941    1.7290 Cl  0  0  0  0  0  0  0  0  0  0  0  0
    5.0813   11.2727    2.2072 N   0  0  0  0  0  4  0  0  0  0  0  0
    5.6365   11.5264    5.2074 N   0  0  0  0  0  4  0  0  0  0  0  0
    6.0313    9.1756    1.2419 C   0  0  0  0  0  0  0  0  0  0  0  0
    6.1294   10.2475    2.3334 C   0  0  2  0  0  0  0  0  0  0  0  0
    6.1409    9.5778    3.7171 C   0  0  0  0  0  0  0  0  0  0  0  0
    6.5853   10.4462    4.9102 C   0  0  1  0  0  0  0  0  0  0  0  0
    7.9651   11.0665    4.6948 C   0  0  0  0  0  0  0  0  0  0  0  0
    3.6973   10.7958    2.1269 C   0  0  0  0  0  0  0  0  0  0  0  0
    2.7489   11.9829    2.0363 C   0  0  0  0  0  0  0  0  0  0  0  0
    4.4022   11.1025    5.8702 C   0  0  0  0  0  0  0  0  0  0  0  0
    3.5779   12.3204    6.2584 C   0  0  0  0  0  0  0  0  0  0  0  0
    5.2560   11.8126    1.3507 H   0  0  0  0  0  0  0  0  0  0  0  0
    6.0977   12.1933    5.8387 H   0  0  0  0  0  0  0  0  0  0  0  0
    6.9448    8.5875    1.2199 H   0  0  0  0  0  0  0  0  0  0  0  0
    5.9063    9.6392    0.2659 H   0  0  0  0  0  0  0  0  0  0  0  0
    5.1990    8.4993    1.4211 H   0  0  0  0  0  0  0  0  0  0  0  0
    7.0801   10.7743    2.1937 H   0  0  0  0  0  0  0  0  0  0  0  0
    6.8363    8.7379    3.6631 H   0  0  0  0  0  0  0  0  0  0  0  0
    5.1563    9.1569    3.9257 H   0  0  0  0  0  0  0  0  0  0  0  0
    6.6370    9.7687    5.7800 H   0  0  0  0  0  0  0  0  0  0  0  0
    8.6578   10.3403    4.2788 H   0  0  0  0  0  0  0  0  0  0  0  0
    8.3673   11.4259    5.6389 H   0  0  0  0  0  0  0  0  0  0  0  0
    7.8933   11.9218    4.0184 H   0  0  0  0  0  0  0  0  0  0  0  0
    3.4644   10.2067    3.0170 H   0  0  0  0  0  0  0  0  0  0  0  0
    3.5594   10.1545    1.2481 H   0  0  0  0  0  0  0  0  0  0  0  0
    1.7158   11.6492    2.0818 H   0  0  0  0  0  0  0  0  0  0  0  0
    2.9049   12.5249    1.1071 H   0  0  0  0  0  0  0  0  0  0  0  0
    2.9357   12.6735    2.8615 H   0  0  0  0  0  0  0  0  0  0  0  0
    3.8239   10.4694    5.1928 H   0  0  0  0  0  0  0  0  0  0  0  0
    4.6408   10.5086    6.7648 H   0  0  0  0  0  0  0  0  0  0  0  0
    2.6054   12.0189    6.6375 H   0  0  0  0  0  0  0  0  0  0  0  0
    3.4367   12.9622    5.3870 H   0  0  0  0  0  0  0  0  0  0  0  0
    4.0896   12.9024    7.0206 H   0  0  0  0  0  0  0  0  0  0  0  0
  1  2  1  0  0  0  0
  1  5  1  0  0  0  0
  3  1  1  0  0  0  0
  4  7  1  0  0  0  0
  4  1  1  0  0  0  0
  5 16  1  0  0  0  0
  5 13  1  0  0  0  0
  6 19  1  0  0  0  0
  6  7  1  0  0  0  0
  7 20  1  6  0  0  0
  7  8  1  0  0  0  0
  8 22  1  0  0  0  0
  8  9  1  0  0  0  0
  9  5  1  0  0  0  0
  9 23  1  1  0  0  0
 10  9  1  0  0  0  0
 10 25  1  0  0  0  0
 11  4  1  0  0  0  0
 11 27  1  0  0  0  0
 12 29  1  0  0  0  0
 12 11  1  0  0  0  0
 12 31  1  0  0  0  0
 13 14  1  0  0  0  0
 13 33  1  0  0  0  0
 14 34  1  0  0  0  0
 14 36  1  0  0  0  0
 15  4  1  0  0  0  0
 17  6  1  0  0  0  0
 18  6  1  0  0  0  0
 21  8  1  0  0  0  0
 24 10  1  0  0  0  0
 26 10  1  0  0  0  0
 28 11  1  0  0  0  0
 30 12  1  0  0  0  0
 32 13  1  0  0  0  0
 35 14  1  0  0  0  0
M  END
$$$$
