CSD_code = PIFRED | q = 0 | S = 0 | Stoichiometry = C19H14ClNPdS | MND = 4
 OpenBabel04212202083D

 37 41  0  0  1  0  0  0  0  0999 V2000
    8.6682   12.0996    1.9031 Pd  0  0  1  0  0  0  0  0  0  0  0  0
    8.8334   10.9944   -0.9634 S   0  0  0  0  0  0  0  0  0  0  0  0
    9.4060   10.1403    1.8599 N   0  0  0  0  0  0  0  0  0  0  0  0
    8.0860   14.2294    2.1302 Cl  0  0  0  0  0  0  0  0  0  0  0  0
   10.0915   12.2898    3.2911 C   0  0  0  0  0  0  0  0  0  0  0  0
   10.4740   13.3919    4.0443 C   0  0  0  0  0  0  0  0  0  0  0  0
    9.9758   14.3425    3.9141 H   0  0  0  0  0  0  0  0  0  0  0  0
   11.4987   13.2889    4.9756 C   0  0  0  0  0  0  0  0  0  0  0  0
   11.7774   14.1589    5.5527 H   0  0  0  0  0  0  0  0  0  0  0  0
   12.1706   12.0893    5.1766 C   0  0  0  0  0  0  0  0  0  0  0  0
   12.9659   12.0292    5.9048 H   0  0  0  0  0  0  0  0  0  0  0  0
   11.8178   10.9799    4.4413 C   0  0  0  0  0  0  0  0  0  0  0  0
   12.3298   10.0377    4.5792 H   0  0  0  0  0  0  0  0  0  0  0  0
   10.7823   11.0711    3.5027 C   0  0  0  0  0  0  0  0  0  0  0  0
   10.3769    9.9659    2.6949 C   0  0  0  0  0  0  0  0  0  0  0  0
   10.9023    9.0112    2.7535 H   0  0  0  0  0  0  0  0  0  0  0  0
    8.9607    9.0986    1.0539 C   0  0  0  0  0  0  0  0  0  0  0  0
    8.7971    7.8016    1.5449 C   0  0  0  0  0  0  0  0  0  0  0  0
    9.0173    7.6017    2.5836 H   0  0  0  0  0  0  0  0  0  0  0  0
    8.3306    6.7941    0.7223 C   0  0  0  0  0  0  0  0  0  0  0  0
    8.2080    5.7978    1.1194 H   0  0  0  0  0  0  0  0  0  0  0  0
    8.0203    7.0569   -0.6024 C   0  0  0  0  0  0  0  0  0  0  0  0
    7.6609    6.2674   -1.2437 H   0  0  0  0  0  0  0  0  0  0  0  0
    8.1632    8.3406   -1.1012 C   0  0  0  0  0  0  0  0  0  0  0  0
    7.9248    8.5664   -2.1288 H   0  0  0  0  0  0  0  0  0  0  0  0
    8.6191    9.3562   -0.2800 C   0  0  0  0  0  0  0  0  0  0  0  0
    7.4964   11.8916   -0.1719 C   0  0  1  0  0  0  0  0  0  0  0  0
    6.6654   11.3455    0.8267 C   0  0  0  0  0  3  0  0  0  0  0  0
    6.7371   10.2965    1.1165 H   0  0  0  0  0  0  0  0  0  0  0  0
    5.5635   12.0898    1.2641 C   0  0  0  0  0  0  0  0  0  0  0  0
    4.9089   11.6622    2.0114 H   0  0  0  0  0  0  0  0  0  0  0  0
    5.2922   13.3353    0.7306 C   0  0  0  0  0  0  0  0  0  0  0  0
    4.4444   13.9006    1.0840 H   0  0  0  0  0  0  0  0  0  0  0  0
    6.1120   13.8593   -0.2618 C   0  0  0  0  0  0  0  0  0  0  0  0
    5.8993   14.8298   -0.6820 H   0  0  0  0  0  0  0  0  0  0  0  0
    7.2019   13.1460   -0.7177 C   0  0  0  0  0  0  0  0  0  0  0  0
    7.8369   13.5413   -1.4982 H   0  0  0  0  0  0  0  0  0  0  0  0
  1  4  1  1  0  0  0
  1  5  2  0  0  0  0
  2 26  1  0  0  0  0
  3  1  1  0  0  0  0
  3 15  1  0  0  0  0
  5 14  1  0  0  0  0
  5  6  1  0  0  0  0
  6  8  2  0  0  0  0
  7  6  1  0  0  0  0
  8 10  1  0  0  0  0
  8  9  1  0  0  0  0
 10 11  1  0  0  0  0
 12 13  1  0  0  0  0
 12 10  2  0  0  0  0
 14 12  1  0  0  0  0
 15 16  1  0  0  0  0
 15 14  2  0  0  0  0
 17 18  1  0  0  0  0
 17  3  1  0  0  0  0
 18 19  1  0  0  0  0
 20 21  1  0  0  0  0
 20 18  2  0  0  0  0
 22 20  1  0  0  0  0
 23 22  1  0  0  0  0
 24 22  2  0  0  0  0
 24 26  1  0  0  0  0
 25 24  1  0  0  0  0
 26 17  2  0  0  0  0
 27  2  1  6  0  0  0
 27 28  1  0  0  0  0
 27  1  1  0  0  0  0
 28 29  1  0  0  0  0
 28 30  1  0  0  0  0
 30 31  1  0  0  0  0
 32 33  1  0  0  0  0
 32 30  2  0  0  0  0
 34 32  1  0  0  0  0
 35 34  1  0  0  0  0
 36 34  2  0  0  0  0
 36 27  1  0  0  0  0
 37 36  1  0  0  0  0
M  END
$$$$
