CSD_code = PIFVAB | q = 0 | S = 0 | Stoichiometry = C30H25Cl2NP2PtS | MND = 4
 OpenBabel04212202083D

 62 67  0  0  0  0  0  0  0  0999 V2000
    0.5901    4.6744   10.4293 Pt  0  0  0  0  0  0  0  0  0  0  0  0
    2.3935    5.6878    9.4942 Cl  0  0  0  0  0  0  0  0  0  0  0  0
    1.5753    2.6088   10.4366 Cl  0  0  0  0  0  0  0  0  0  0  0  0
   -0.7719    6.6898   10.2595 S   0  0  0  0  0  0  0  0  0  0  0  0
   -1.5482    6.2135   12.0161 P   0  0  0  0  0  4  0  0  0  0  0  0
   -1.0627    3.4774   11.3688 P   0  0  0  0  0  4  0  0  0  0  0  0
   -2.2149    4.6455   11.9830 N   0  0  0  0  0  0  0  0  0  0  0  0
   -0.3876    6.3960   13.4204 C   0  0  0  0  0  0  0  0  0  0  0  0
    0.9776    6.2323   13.2191 C   0  0  0  0  0  0  0  0  0  0  0  0
    1.8516    6.3451   14.2863 C   0  0  0  0  0  0  0  0  0  0  0  0
    1.3684    6.6351   15.5515 C   0  0  0  0  0  0  0  0  0  0  0  0
    0.0094    6.8263   15.7487 C   0  0  0  0  0  0  0  0  0  0  0  0
   -0.8703    6.7119   14.6883 C   0  0  0  0  0  0  0  0  0  0  0  0
   -2.9277    7.3409   12.3231 C   0  0  0  0  0  0  0  0  0  0  0  0
   -2.6338    8.6056   12.8236 C   0  0  0  0  0  0  0  0  0  0  0  0
   -3.6370    9.5483   12.9448 C   0  0  0  0  0  0  0  0  0  0  0  0
   -4.9303    9.2381   12.5544 C   0  0  0  0  0  0  0  0  0  0  0  0
   -5.2158    7.9907   12.0244 C   0  0  0  0  0  0  0  0  0  0  0  0
   -4.2152    7.0441   11.8956 C   0  0  0  0  0  0  0  0  0  0  0  0
   -3.2344    4.1944   12.8654 C   0  0  0  0  0  0  0  0  0  0  0  0
   -4.4075    3.6690   12.3324 C   0  0  0  0  0  0  0  0  0  0  0  0
   -5.3975    3.1946   13.1731 C   0  0  0  0  0  0  0  0  0  0  0  0
   -5.2286    3.2383   14.5469 C   0  0  0  0  0  0  0  0  0  0  0  0
   -4.0546    3.7430   15.0778 C   0  0  0  0  0  0  0  0  0  0  0  0
   -3.0559    4.2098   14.2423 C   0  0  0  0  0  0  0  0  0  0  0  0
   -2.0474    2.4850   10.2299 C   0  0  0  0  0  0  0  0  0  0  0  0
   -2.8718    3.1451    9.3205 C   0  0  0  0  0  0  0  0  0  0  0  0
   -3.5335    2.4285    8.3423 C   0  0  0  0  0  0  0  0  0  0  0  0
   -3.3526    1.0568    8.2489 C   0  0  0  0  0  0  0  0  0  0  0  0
   -2.4965    0.4057    9.1223 C   0  0  0  0  0  0  0  0  0  0  0  0
   -1.8351    1.1155   10.1086 C   0  0  0  0  0  0  0  0  0  0  0  0
   -0.7935    2.4618   12.8460 C   0  0  0  0  0  0  0  0  0  0  0  0
   -1.7510    1.5626   13.3048 C   0  0  0  0  0  0  0  0  0  0  0  0
   -1.5454    0.8937   14.4977 C   0  0  0  0  0  0  0  0  0  0  0  0
   -0.3957    1.1229   15.2365 C   0  0  0  0  0  0  0  0  0  0  0  0
    0.5582    2.0188   14.7807 C   0  0  0  0  0  0  0  0  0  0  0  0
    0.3602    2.6889   13.5878 C   0  0  0  0  0  0  0  0  0  0  0  0
    1.3702    6.0287   12.2194 H   0  0  0  0  0  0  0  0  0  0  0  0
    2.9098    6.2126   14.1224 H   0  0  0  0  0  0  0  0  0  0  0  0
    2.0500    6.7246   16.3838 H   0  0  0  0  0  0  0  0  0  0  0  0
   -0.3679    7.0692   16.7311 H   0  0  0  0  0  0  0  0  0  0  0  0
   -1.9294    6.8730   14.8397 H   0  0  0  0  0  0  0  0  0  0  0  0
   -1.6185    8.8439   13.1101 H   0  0  0  0  0  0  0  0  0  0  0  0
   -3.4093   10.5280   13.3372 H   0  0  0  0  0  0  0  0  0  0  0  0
   -5.7133    9.9750   12.6503 H   0  0  0  0  0  0  0  0  0  0  0  0
   -6.2187    7.7562   11.7007 H   0  0  0  0  0  0  0  0  0  0  0  0
   -4.4324    6.0791   11.4651 H   0  0  0  0  0  0  0  0  0  0  0  0
   -4.5349    3.6259   11.2611 H   0  0  0  0  0  0  0  0  0  0  0  0
   -6.3043    2.7891   12.7502 H   0  0  0  0  0  0  0  0  0  0  0  0
   -6.0052    2.8708   15.2001 H   0  0  0  0  0  0  0  0  0  0  0  0
   -3.9054    3.7626   16.1468 H   0  0  0  0  0  0  0  0  0  0  0  0
   -2.1217    4.5620   14.6526 H   0  0  0  0  0  0  0  0  0  0  0  0
   -2.9744    4.2220    9.3805 H   0  0  0  0  0  0  0  0  0  0  0  0
   -4.1780    2.9388    7.6415 H   0  0  0  0  0  0  0  0  0  0  0  0
   -3.8649    0.4983    7.4797 H   0  0  0  0  0  0  0  0  0  0  0  0
   -2.3350   -0.6578    9.0280 H   0  0  0  0  0  0  0  0  0  0  0  0
   -1.1416    0.6215   10.7741 H   0  0  0  0  0  0  0  0  0  0  0  0
   -2.6497    1.3846   12.7306 H   0  0  0  0  0  0  0  0  0  0  0  0
   -2.2864    0.1923   14.8518 H   0  0  0  0  0  0  0  0  0  0  0  0
   -0.2412    0.5968   16.1670 H   0  0  0  0  0  0  0  0  0  0  0  0
    1.4574    2.1917   15.3527 H   0  0  0  0  0  0  0  0  0  0  0  0
    1.1062    3.3740   13.2054 H   0  0  0  0  0  0  0  0  0  0  0  0
  1  3  1  0  0  0  0
  1  6  1  0  0  0  0
  2  1  1  0  0  0  0
  4  1  1  0  0  0  0
  4  5  1  0  0  0  0
  5 14  1  0  0  0  0
  5  8  1  0  0  0  0
  6  7  1  0  0  0  0
  6 32  1  0  0  0  0
  7  5  1  0  0  0  0
  7 20  1  0  0  0  0
  8 13  1  0  0  0  0
  9  8  2  0  0  0  0
  9 10  1  0  0  0  0
 10 11  2  0  0  0  0
 11 12  1  0  0  0  0
 11 40  1  0  0  0  0
 12 41  1  0  0  0  0
 13 42  1  0  0  0  0
 13 12  2  0  0  0  0
 14 15  1  0  0  0  0
 15 16  2  0  0  0  0
 15 43  1  0  0  0  0
 16 44  1  0  0  0  0
 17 45  1  0  0  0  0
 17 16  1  0  0  0  0
 18 17  2  0  0  0  0
 19 18  1  0  0  0  0
 19 14  2  0  0  0  0
 20 25  1  0  0  0  0
 21 20  2  0  0  0  0
 21 22  1  0  0  0  0
 22 23  2  0  0  0  0
 23 24  1  0  0  0  0
 23 50  1  0  0  0  0
 24 51  1  0  0  0  0
 25 52  1  0  0  0  0
 25 24  2  0  0  0  0
 26  6  1  0  0  0  0
 27 53  1  0  0  0  0
 27 26  2  0  0  0  0
 28 27  1  0  0  0  0
 29 28  2  0  0  0  0
 29 30  1  0  0  0  0
 30 31  2  0  0  0  0
 31 26  1  0  0  0  0
 31 57  1  0  0  0  0
 32 33  2  0  0  0  0
 32 37  1  0  0  0  0
 33 34  1  0  0  0  0
 34 59  1  0  0  0  0
 34 35  2  0  0  0  0
 35 60  1  0  0  0  0
 36 35  1  0  0  0  0
 36 61  1  0  0  0  0
 37 36  2  0  0  0  0
 38  9  1  0  0  0  0
 39 10  1  0  0  0  0
 46 18  1  0  0  0  0
 47 19  1  0  0  0  0
 48 21  1  0  0  0  0
 49 22  1  0  0  0  0
 54 28  1  0  0  0  0
 55 29  1  0  0  0  0
 56 30  1  0  0  0  0
 58 33  1  0  0  0  0
 62 37  1  0  0  0  0
M  END
$$$$
