CSD_code = PIFZAH | q = 0 | S = 0 | Stoichiometry = C14H23Cl2O2STa | MND = 10
 OpenBabel04212202083D

 43 45  0  0  1  0  0  0  0  0999 V2000
    2.2913    4.6821   -0.8000 C   0  0  0  0  0  0  0  0  0  0  0  0
    1.7726    3.7099   -0.7346 H   0  0  0  0  0  0  0  0  0  0  0  0
    3.1122    4.6006   -1.5291 H   0  0  0  0  0  0  0  0  0  0  0  0
    1.2991    5.7596   -1.2766 C   0  0  0  0  0  0  0  0  0  0  0  0
    0.6635    5.3729   -2.0700 H   0  0  0  0  0  0  0  0  0  0  0  0
    1.8196    6.6522   -1.6180 H   0  0  0  0  0  0  0  0  0  0  0  0
    0.8834    7.9037    0.5385 C   0  0  0  0  0  0  0  0  0  0  0  0
    0.8562    8.5444   -0.3416 H   0  0  0  0  0  0  0  0  0  0  0  0
    0.1943    8.2800    1.2942 H   0  0  0  0  0  0  0  0  0  0  0  0
    2.3007    7.8183    1.1230 C   0  0  0  0  0  0  0  0  0  0  0  0
    3.0032    7.4901    0.3342 H   0  0  0  0  0  0  0  0  0  0  0  0
    2.5967    8.8226    1.4642 H   0  0  0  0  0  0  0  0  0  0  0  0
    4.6325    3.2999    2.8934 C   0  0  0  0  0  0  0  0  0  0  0  0
    4.4715    4.7750    2.8868 C   0  0  1  0  0  0  0  0  0  0  0  0
    4.4714    5.1493    4.3218 C   0  0  0  0  0  0  0  0  0  0  0  0
    4.5437    4.0217    5.0679 C   0  0  0  0  0  0  0  0  0  0  0  0
    4.6399    2.8688    4.1781 C   0  0  0  0  0  0  0  0  0  0  0  0
    4.8075    2.4979    1.6421 C   0  0  0  0  0  0  0  0  0  0  0  0
    5.8679    2.3759    1.4120 H   0  0  0  0  0  0  0  0  0  0  0  0
    4.3252    2.9922    0.8001 H   0  0  0  0  0  0  0  0  0  0  0  0
    4.3692    1.5084    1.7509 H   0  0  0  0  0  0  0  0  0  0  0  0
    5.3802    5.5747    1.9765 C   0  0  0  0  0  0  0  0  0  0  0  0
    5.1429    6.6355    2.0344 H   0  0  0  0  0  0  0  0  0  0  0  0
    5.2823    5.2466    0.9433 H   0  0  0  0  0  0  0  0  0  0  0  0
    6.4169    5.4342    2.2868 H   0  0  0  0  0  0  0  0  0  0  0  0
    4.4028    6.5730    4.7726 C   0  0  0  0  0  0  0  0  0  0  0  0
    4.0251    6.6394    5.7893 H   0  0  0  0  0  0  0  0  0  0  0  0
    3.7355    7.1385    4.1223 H   0  0  0  0  0  0  0  0  0  0  0  0
    5.3915    7.0352    4.7427 H   0  0  0  0  0  0  0  0  0  0  0  0
    4.5122    3.8896    6.5521 C   0  0  0  0  0  0  0  0  0  0  0  0
    3.5739    3.4290    6.8623 H   0  0  0  0  0  0  0  0  0  0  0  0
    4.5949    4.8596    7.0336 H   0  0  0  0  0  0  0  0  0  0  0  0
    5.3282    3.2565    6.8975 H   0  0  0  0  0  0  0  0  0  0  0  0
    4.7306    1.4685    4.6803 C   0  0  0  0  0  0  0  0  0  0  0  0
    5.6668    1.3152    5.2179 H   0  0  0  0  0  0  0  0  0  0  0  0
    4.6833    0.7570    3.8609 H   0  0  0  0  0  0  0  0  0  0  0  0
    3.9121    1.2644    5.3694 H   0  0  0  0  0  0  0  0  0  0  0  0
    2.2092    5.0732    2.1798 Ta  0  0  0  0  0  0  0  0  0  0  0  0
    1.4145    2.9541    1.9178 Cl  0  0  0  0  0  0  0  0  0  0  0  0
    1.2872    5.1476    4.2224 Cl  0  0  0  0  0  0  0  0  0  0  0  0
    0.2018    6.2694    0.0963 S   0  0  2  0  0  3  0  0  0  0  0  0
    2.7585    4.9918    0.4483 O   0  0  0  0  0  0  0  0  0  0  0  0
    2.3479    6.9127    2.1482 O   0  0  0  0  0  0  0  0  0  0  0  0
  1  2  1  0  0  0  0
  1 42  1  0  0  0  0
  3  1  1  0  0  0  0
  4  1  1  0  0  0  0
  5  4  1  0  0  0  0
  6  4  1  0  0  0  0
  7 10  1  0  0  0  0
  7  9  1  0  0  0  0
  8  7  1  0  0  0  0
 10 12  1  0  0  0  0
 10 43  1  0  0  0  0
 11 10  1  0  0  0  0
 13 17  2  0  0  0  0
 14 22  1  6  0  0  0
 14 13  1  0  0  0  0
 14 15  1  0  0  0  0
 15 26  1  0  0  0  0
 15 16  2  0  0  0  0
 16 30  1  0  0  0  0
 17 34  1  0  0  0  0
 17 16  1  0  0  0  0
 18 21  1  0  0  0  0
 18 13  1  0  0  0  0
 19 18  1  0  0  0  0
 20 18  1  0  0  0  0
 22 23  1  0  0  0  0
 22 25  1  0  0  0  0
 24 22  1  0  0  0  0
 26 27  1  0  0  0  0
 28 26  1  0  0  0  0
 29 26  1  0  0  0  0
 30 31  1  0  0  0  0
 30 33  1  0  0  0  0
 30 32  1  0  0  0  0
 34 35  1  0  0  0  0
 34 37  1  0  0  0  0
 36 34  1  0  0  0  0
 38 14  1  0  0  0  0
 38 40  1  0  0  0  0
 39 38  1  0  0  0  0
 41  4  1  6  0  0  0
 41  7  1  0  0  0  0
 41 38  1  0  0  0  0
 42 38  1  0  0  0  0
 43 38  1  0  0  0  0
M  END
$$$$
