CSD_code = PIGLIC | q = 0 | S = 0 | Stoichiometry = C14H17AuClP | MND = 2
 OpenBabel04212202083D

 34 35  0  0  0  0  0  0  0  0999 V2000
    2.9695    4.0033    4.7527 C   0  0  0  0  0  0  0  0  0  0  0  0
    3.1243    5.3476    4.7949 C   0  0  0  0  0  0  0  0  0  0  0  0
    2.5484    5.9850    5.9809 C   0  0  0  0  0  0  0  0  0  0  0  0
    1.9551    5.1268    6.8433 C   0  0  0  0  0  0  0  0  0  0  0  0
    3.4379    3.0404    3.7107 C   0  0  0  0  0  0  0  0  0  0  0  0
    2.9772    3.2556    2.7461 H   0  0  0  0  0  0  0  0  0  0  0  0
    3.1697    2.0249    4.0014 H   0  0  0  0  0  0  0  0  0  0  0  0
    4.5201    3.0879    3.5884 H   0  0  0  0  0  0  0  0  0  0  0  0
    3.7982    6.1603    3.7418 C   0  0  0  0  0  0  0  0  0  0  0  0
    4.1612    5.5288    2.9366 H   0  0  0  0  0  0  0  0  0  0  0  0
    4.6417    6.7019    4.1681 H   0  0  0  0  0  0  0  0  0  0  0  0
    3.1077    6.8941    3.3272 H   0  0  0  0  0  0  0  0  0  0  0  0
    2.6226    7.4627    6.1669 C   0  0  0  0  0  0  0  0  0  0  0  0
    2.1397    7.7623    7.0921 H   0  0  0  0  0  0  0  0  0  0  0  0
    2.1386    7.9763    5.3367 H   0  0  0  0  0  0  0  0  0  0  0  0
    3.6628    7.7852    6.1962 H   0  0  0  0  0  0  0  0  0  0  0  0
    1.2841    5.4218    8.1450 C   0  0  0  0  0  0  0  0  0  0  0  0
    1.9773    5.8824    8.8493 H   0  0  0  0  0  0  0  0  0  0  0  0
    0.9129    4.4964    8.5852 H   0  0  0  0  0  0  0  0  0  0  0  0
    0.4416    6.0993    8.0046 H   0  0  0  0  0  0  0  0  0  0  0  0
    0.5698    2.8055    5.8368 C   0  0  0  0  0  0  0  0  0  0  0  0
   -0.2437    3.5160    4.9581 C   0  0  0  0  0  0  0  0  0  0  0  0
    0.1126    4.4459    4.5368 H   0  0  0  0  0  0  0  0  0  0  0  0
   -1.4929    3.0224    4.6367 C   0  0  0  0  0  0  0  0  0  0  0  0
   -2.1278    3.5678    3.9541 H   0  0  0  0  0  0  0  0  0  0  0  0
   -1.9328    1.8279    5.1890 C   0  0  0  0  0  0  0  0  0  0  0  0
   -2.9104    1.4467    4.9345 H   0  0  0  0  0  0  0  0  0  0  0  0
   -1.1234    1.1231    6.0640 C   0  0  0  0  0  0  0  0  0  0  0  0
   -1.4674    0.1939    6.4929 H   0  0  0  0  0  0  0  0  0  0  0  0
    0.1312    1.6088    6.3900 C   0  0  0  0  0  0  0  0  0  0  0  0
    0.7770    1.0673    7.0700 H   0  0  0  0  0  0  0  0  0  0  0  0
    2.2079    3.4362    6.2806 P   0  0  1  0  0  4  0  0  0  0  0  0
    4.6119    0.7062    8.9387 Cl  0  0  0  0  0  0  0  0  0  0  0  0
    3.4338    2.1023    7.6016 Au  0  0  0  0  0  0  0  0  0  0  0  0
  1  2  2  0  0  0  0
  1 32  1  0  0  0  0
  2  3  1  0  0  0  0
  3 13  1  0  0  0  0
  3  4  2  0  0  0  0
  4 17  1  0  0  0  0
  5  7  1  0  0  0  0
  5  1  1  0  0  0  0
  6  5  1  0  0  0  0
  8  5  1  0  0  0  0
  9 11  1  0  0  0  0
  9  2  1  0  0  0  0
 10  9  1  0  0  0  0
 12  9  1  0  0  0  0
 13 16  1  0  0  0  0
 13 14  1  0  0  0  0
 15 13  1  0  0  0  0
 17 19  1  0  0  0  0
 17 18  1  0  0  0  0
 20 17  1  0  0  0  0
 21 32  1  0  0  0  0
 21 30  1  0  0  0  0
 22 21  2  0  0  0  0
 23 22  1  0  0  0  0
 24 22  1  0  0  0  0
 24 26  2  0  0  0  0
 25 24  1  0  0  0  0
 26 28  1  0  0  0  0
 27 26  1  0  0  0  0
 28 30  2  0  0  0  0
 28 29  1  0  0  0  0
 30 31  1  0  0  0  0
 32  4  1  0  0  0  0
 32 34  1  1  0  0  0
 34 33  1  0  0  0  0
M  END
$$$$
