CSD_code = PIHYIP | q = 0 | S = 0 | Stoichiometry = C32H26Cl2N2OPRe | MND = 6
 OpenBabel04212202083D

 65 71  0  0  0  0  0  0  0  0999 V2000
    3.5560   -5.3189    8.6786 Re  0  0  0  0  0  0  0  0  0  0  0  0
    4.8526   -6.5783    7.2708 Cl  0  0  0  0  0  0  0  0  0  0  0  0
    5.4323   -4.4540    9.6454 Cl  0  0  0  0  0  0  0  0  0  0  0  0
    2.1472   -3.5443    9.5801 P   0  0  0  0  0  4  0  0  0  0  0  0
    3.1238   -4.1613    7.0241 O   0  0  0  0  0  0  0  0  0  0  0  0
    1.7798   -6.4665    7.8944 N   0  0  0  0  0  0  0  0  0  0  0  0
    3.0988   -6.4523    9.9990 N   0  0  0  0  0  2  0  0  0  0  0  0
    2.7044   -4.5060    5.8543 C   0  0  0  0  0  0  0  0  0  0  0  0
    3.0566   -3.7054    4.7479 C   0  0  0  0  0  0  0  0  0  0  0  0
    3.7020   -2.8598    4.9354 H   0  0  0  0  0  0  0  0  0  0  0  0
    2.6036   -3.9892    3.4841 C   0  0  0  0  0  0  0  0  0  0  0  0
    2.8978   -3.3575    2.6585 H   0  0  0  0  0  0  0  0  0  0  0  0
    1.7701   -5.0845    3.2562 C   0  0  0  0  0  0  0  0  0  0  0  0
    1.4232   -5.3035    2.2584 H   0  0  0  0  0  0  0  0  0  0  0  0
    1.4017   -5.8790    4.3122 C   0  0  0  0  0  0  0  0  0  0  0  0
    0.7589   -6.7329    4.1474 H   0  0  0  0  0  0  0  0  0  0  0  0
    1.8454   -5.6264    5.6221 C   0  0  0  0  0  0  0  0  0  0  0  0
    1.4062   -6.5015    6.6577 C   0  0  0  0  0  3  0  0  0  0  0  0
    0.6904   -7.2642    6.3437 H   0  0  0  0  0  0  0  0  0  0  0  0
    1.2683   -7.2964    8.8787 C   0  0  0  0  0  0  0  0  0  0  0  0
    2.0395   -7.2626   10.0861 C   0  0  0  0  0  0  0  0  0  0  0  0
    1.6517   -8.0175   11.2030 C   0  0  0  0  0  0  0  0  0  0  0  0
    0.4998   -8.7833   11.1057 C   0  0  0  0  0  0  0  0  0  0  0  0
    0.1826   -9.3676   11.9569 H   0  0  0  0  0  0  0  0  0  0  0  0
   -0.2528   -8.8091    9.9415 C   0  0  0  0  0  0  0  0  0  0  0  0
   -1.1466   -9.4129    9.8978 H   0  0  0  0  0  0  0  0  0  0  0  0
    0.1215   -8.0714    8.8290 C   0  0  0  0  0  0  0  0  0  0  0  0
   -0.4885   -8.0962    7.9384 H   0  0  0  0  0  0  0  0  0  0  0  0
    2.4610   -7.9385   12.4565 C   0  0  0  0  0  0  0  0  0  0  0  0
    2.3654   -8.8507   13.0396 H   0  0  0  0  0  0  0  0  0  0  0  0
    2.1191   -7.1016   13.0665 H   0  0  0  0  0  0  0  0  0  0  0  0
    3.5062   -7.7665   12.2109 H   0  0  0  0  0  0  0  0  0  0  0  0
    0.4207   -4.0504    9.3581 C   0  0  0  0  0  0  0  0  0  0  0  0
   -0.1545   -3.9998    8.0897 C   0  0  0  0  0  0  0  0  0  0  0  0
    0.3809   -3.5272    7.2774 H   0  0  0  0  0  0  0  0  0  0  0  0
   -1.3968   -4.5636    7.8689 C   0  0  0  0  0  0  0  0  0  0  0  0
   -1.8381   -4.5202    6.8836 H   0  0  0  0  0  0  0  0  0  0  0  0
   -2.0686   -5.1928    8.9053 C   0  0  0  0  0  0  0  0  0  0  0  0
   -3.0359   -5.6390    8.7286 H   0  0  0  0  0  0  0  0  0  0  0  0
   -1.4963   -5.2557   10.1652 C   0  0  0  0  0  0  0  0  0  0  0  0
   -2.0150   -5.7543   10.9703 H   0  0  0  0  0  0  0  0  0  0  0  0
   -0.2537   -4.6934   10.3922 C   0  0  0  0  0  0  0  0  0  0  0  0
    0.2032   -4.7534   11.3698 H   0  0  0  0  0  0  0  0  0  0  0  0
    2.2702   -3.1614   11.3542 C   0  0  0  0  0  0  0  0  0  0  0  0
    1.6151   -2.0489   11.8745 C   0  0  0  0  0  0  0  0  0  0  0  0
    1.0426   -1.4053   11.2210 H   0  0  0  0  0  0  0  0  0  0  0  0
    1.7029   -1.7690   13.2253 C   0  0  0  0  0  0  0  0  0  0  0  0
    1.1965   -0.9045   13.6290 H   0  0  0  0  0  0  0  0  0  0  0  0
    2.4428   -2.5926   14.0597 C   0  0  0  0  0  0  0  0  0  0  0  0
    2.5124   -2.3669   15.1135 H   0  0  0  0  0  0  0  0  0  0  0  0
    3.0974   -3.6981   13.5422 C   0  0  0  0  0  0  0  0  0  0  0  0
    3.6802   -4.3347   14.1910 H   0  0  0  0  0  0  0  0  0  0  0  0
    3.0150   -3.9843   12.1906 C   0  0  0  0  0  0  0  0  0  0  0  0
    3.5332   -4.8356   11.7698 H   0  0  0  0  0  0  0  0  0  0  0  0
    2.3318   -1.9231    8.7930 C   0  0  0  0  0  0  0  0  0  0  0  0
    3.6304   -1.4943    8.5306 C   0  0  0  0  0  0  0  0  0  0  0  0
    4.4641   -2.1354    8.7880 H   0  0  0  0  0  0  0  0  0  0  0  0
    3.8423   -0.2636    7.9381 C   0  0  0  0  0  0  0  0  0  0  0  0
    4.8489    0.0661    7.7276 H   0  0  0  0  0  0  0  0  0  0  0  0
    2.7642    0.5436    7.6102 C   0  0  0  0  0  0  0  0  0  0  0  0
    2.9294    1.5024    7.1411 H   0  0  0  0  0  0  0  0  0  0  0  0
    1.4728    0.1228    7.8826 C   0  0  0  0  0  0  0  0  0  0  0  0
    0.6332    0.7545    7.6306 H   0  0  0  0  0  0  0  0  0  0  0  0
    1.2507   -1.1084    8.4745 C   0  0  0  0  0  0  0  0  0  0  0  0
    0.2409   -1.4352    8.6830 H   0  0  0  0  0  0  0  0  0  0  0  0
  1  4  1  0  0  0  0
  1  3  1  0  0  0  0
  1  7  1  0  0  0  0
  2  1  1  0  0  0  0
  4 44  1  0  0  0  0
  5  1  1  0  0  0  0
  6  1  1  0  0  0  0
  6 20  1  0  0  0  0
  7 21  1  0  0  0  0
  8  5  1  0  0  0  0
  9 10  1  0  0  0  0
  9  8  2  0  0  0  0
 11  9  1  0  0  0  0
 12 11  1  0  0  0  0
 13 11  2  0  0  0  0
 13 15  1  0  0  0  0
 14 13  1  0  0  0  0
 15 17  2  0  0  0  0
 16 15  1  0  0  0  0
 17  8  1  0  0  0  0
 17 18  1  0  0  0  0
 18  6  1  0  0  0  0
 19 18  1  0  0  0  0
 20 21  1  0  0  0  0
 21 22  2  0  0  0  0
 22 29  1  0  0  0  0
 23 22  1  0  0  0  0
 23 24  1  0  0  0  0
 25 23  2  0  0  0  0
 26 25  1  0  0  0  0
 27 20  2  0  0  0  0
 27 25  1  0  0  0  0
 28 27  1  0  0  0  0
 29 30  1  0  0  0  0
 29 31  1  0  0  0  0
 32 29  1  0  0  0  0
 33  4  1  0  0  0  0
 33 42  1  0  0  0  0
 34 33  2  0  0  0  0
 35 34  1  0  0  0  0
 36 34  1  0  0  0  0
 36 38  2  0  0  0  0
 37 36  1  0  0  0  0
 38 40  1  0  0  0  0
 39 38  1  0  0  0  0
 40 42  2  0  0  0  0
 40 41  1  0  0  0  0
 42 43  1  0  0  0  0
 44 45  2  0  0  0  0
 44 53  1  0  0  0  0
 45 47  1  0  0  0  0
 46 45  1  0  0  0  0
 47 48  1  0  0  0  0
 47 49  2  0  0  0  0
 49 50  1  0  0  0  0
 51 49  1  0  0  0  0
 51 52  1  0  0  0  0
 53 51  2  0  0  0  0
 54 53  1  0  0  0  0
 55  4  1  0  0  0  0
 56 57  1  0  0  0  0
 56 55  1  0  0  0  0
 58 56  2  0  0  0  0
 59 58  1  0  0  0  0
 60 62  2  0  0  0  0
 60 58  1  0  0  0  0
 61 60  1  0  0  0  0
 62 64  1  0  0  0  0
 63 62  1  0  0  0  0
 64 65  1  0  0  0  0
 64 55  2  0  0  0  0
M  END
$$$$
