CSD_code = PIJBEQ | q = 0 | S = 0 | Stoichiometry = C10H10ClN2O2S2Tc | MND = 5
 OpenBabel04212202083D

 28 30  0  0  1  0  0  0  0  0999 V2000
    1.1218    1.2585    2.6050 Tc  0  0  0  0  0  0  0  0  0  0  0  0
    1.0413    3.5021    2.4087 Cl  0  0  0  0  0  0  0  0  0  0  0  0
   -1.0558    1.0242    3.4301 S   0  0  0  0  0  0  0  0  0  0  0  0
   -2.0852   -1.4735    4.6393 S   0  0  0  0  0  0  0  0  0  0  0  0
    1.3464    1.2662    0.7446 O   0  0  0  0  0  0  0  0  0  0  0  0
    1.9244    1.0860    4.0149 O   0  0  0  0  0  1  0  0  0  0  0  0
    0.8408   -0.7883    2.2062 N   0  0  0  0  0  0  0  0  0  0  0  0
   -0.0467   -1.4309    3.0012 N   0  0  0  0  0  0  0  0  0  0  0  0
    2.0356    0.4812   -0.0359 C   0  0  0  0  0  0  0  0  0  0  0  0
    2.6177    1.0117   -1.2004 C   0  0  0  0  0  0  0  0  0  0  0  0
    2.4389    2.0542   -1.4155 H   0  0  0  0  0  0  0  0  0  0  0  0
    3.4281    0.2408   -1.9970 C   0  0  0  0  0  0  0  0  0  0  0  0
    3.8907    0.6724   -2.8714 H   0  0  0  0  0  0  0  0  0  0  0  0
    3.6754   -1.0904   -1.6637 C   0  0  0  0  0  0  0  0  0  0  0  0
    4.3443   -1.6815   -2.2698 H   0  0  0  0  0  0  0  0  0  0  0  0
    3.0631   -1.6528   -0.5701 C   0  0  0  0  0  0  0  0  0  0  0  0
    3.2740   -2.6807   -0.3191 H   0  0  0  0  0  0  0  0  0  0  0  0
    2.2085   -0.9046    0.2565 C   0  0  0  0  0  0  0  0  0  0  0  0
    1.4118   -1.5185    1.2817 C   0  0  2  0  0  3  0  0  0  0  0  0
    1.0948   -2.9813    1.2347 C   0  0  0  0  0  0  0  0  0  0  0  0
    1.5483   -3.4719    2.0953 H   0  0  0  0  0  0  0  0  0  0  0  0
    1.4396   -3.4462    0.3190 H   0  0  0  0  0  0  0  0  0  0  0  0
    0.0174   -3.1143    1.3220 H   0  0  0  0  0  0  0  0  0  0  0  0
   -0.9228   -0.7212    3.6124 C   0  0  0  0  0  0  0  0  0  0  0  0
   -1.5383   -3.2044    4.5452 C   0  0  0  0  0  0  0  0  0  0  0  0
   -1.6699   -3.5676    3.5320 H   0  0  0  0  0  0  0  0  0  0  0  0
   -2.1624   -3.7625    5.2346 H   0  0  0  0  0  0  0  0  0  0  0  0
   -0.4958   -3.2587    4.8377 H   0  0  0  0  0  0  0  0  0  0  0  0
  1  3  1  0  0  0  0
  1  6  1  0  0  0  0
  2  1  1  0  0  0  0
  3 24  1  0  0  0  0
  5  1  1  0  0  0  0
  7  1  1  0  0  0  0
  7  8  1  0  0  0  0
  8 24  2  0  0  0  0
  9 18  1  0  0  0  0
  9  5  1  0  0  0  0
 10  9  2  0  0  0  0
 11 10  1  0  0  0  0
 12 14  2  0  0  0  0
 12 10  1  0  0  0  0
 13 12  1  0  0  0  0
 14 16  1  0  0  0  0
 15 14  1  0  0  0  0
 16 17  1  0  0  0  0
 16 18  2  0  0  0  0
 18 19  1  0  0  0  0
 19 20  1  6  0  0  0
 19  7  1  0  0  0  0
 20 23  1  0  0  0  0
 20 21  1  0  0  0  0
 22 20  1  0  0  0  0
 24  4  1  0  0  0  0
 25  4  1  0  0  0  0
 25 28  1  0  0  0  0
 25 27  1  0  0  0  0
 26 25  1  0  0  0  0
M  END
$$$$
