CSD_code = PIJNOM | q = 0 | S = 0 | Stoichiometry = C25H25BrN2O5Pd | MND = 4
 OpenBabel04212202083D

 59 61  0  0  1  0  0  0  0  0999 V2000
   -0.3092    6.6672    4.2998 Pd  0  0  0  0  0  0  0  0  0  0  0  0
   -1.2694    8.8030    3.8068 Br  0  0  0  0  0 15  0  0  0  0  0  0
    1.8980    8.1159    3.2003 O   0  0  0  0  0  0  0  0  0  0  0  0
    0.2468    5.3030    1.8206 O   0  0  0  0  0  0  0  0  0  0  0  0
    2.8541    0.5977    2.5483 O   0  0  0  0  0  0  0  0  0  0  0  0
    2.3151    5.9250    3.6157 O   0  0  0  0  0  0  0  0  0  0  0  0
    1.1009   -0.3567    1.5213 O   0  0  0  0  0  0  0  0  0  0  0  0
    0.1801    4.6049    4.9903 N   0  0  0  0  0  0  0  0  0  0  0  0
   -0.9594    6.6466    6.3770 N   0  0  0  0  0  0  0  0  0  0  0  0
    0.3618    6.5634    2.3852 C   0  0  2  0  0  0  0  0  0  0  0  0
    0.0535    7.3727    1.7145 H   0  0  0  0  0  0  0  0  0  0  0  0
    1.5997    6.7893    3.1182 C   0  0  0  0  0  0  0  0  0  0  0  0
    2.8093    8.4671    4.2364 C   0  0  0  0  0  0  0  0  0  0  0  0
    3.1398    9.4788    3.9945 H   0  0  0  0  0  0  0  0  0  0  0  0
    3.6589    7.7747    4.2177 H   0  0  0  0  0  0  0  0  0  0  0  0
    2.1062    8.4253    5.5916 C   0  0  0  0  0  0  0  0  0  0  0  0
    2.7813    8.7580    6.3760 H   0  0  0  0  0  0  0  0  0  0  0  0
    1.7968    7.3933    5.8142 H   0  0  0  0  0  0  0  0  0  0  0  0
    1.2333    9.0827    5.5702 H   0  0  0  0  0  0  0  0  0  0  0  0
   -0.9975    4.9108    1.3827 C   0  0  0  0  0  0  0  0  0  0  0  0
   -2.1785    5.3367    1.9828 C   0  0  0  0  0  0  0  0  0  0  0  0
   -2.1515    6.0133    2.8466 H   0  0  0  0  0  0  0  0  0  0  0  0
   -3.3981    4.8883    1.5097 C   0  0  0  0  0  0  0  0  0  0  0  0
   -4.3079    5.2268    1.9816 H   0  0  0  0  0  0  0  0  0  0  0  0
   -3.4502    4.0133    0.4389 C   0  0  0  0  0  0  0  0  0  0  0  0
   -4.4016    3.6688    0.0639 H   0  0  0  0  0  0  0  0  0  0  0  0
   -2.2749    3.5744   -0.1454 C   0  0  0  0  0  0  0  0  0  0  0  0
   -2.3118    2.8857   -0.9769 H   0  0  0  0  0  0  0  0  0  0  0  0
   -1.0418    4.0121    0.3109 C   0  0  0  0  0  0  0  0  0  0  0  0
    0.2422    3.5017   -0.2977 C   0  0  0  0  0  0  0  0  0  0  0  0
    0.1048    3.3705   -1.3734 H   0  0  0  0  0  0  0  0  0  0  0  0
    1.0469    4.2136   -0.1140 H   0  0  0  0  0  0  0  0  0  0  0  0
    0.5611    2.1851    0.3249 C   0  0  0  0  0  0  0  0  0  0  0  0
   -0.1249    1.3737    0.1140 H   0  0  0  0  0  0  0  0  0  0  0  0
    1.5818    1.9514    1.1467 C   0  0  0  0  0  0  0  0  0  0  0  0
    2.3043    2.7076    1.4142 H   0  0  0  0  0  0  0  0  0  0  0  0
    1.7835    0.6171    1.7264 C   0  0  0  0  0  0  0  0  0  0  0  0
    3.1584   -0.6554    3.1395 C   0  0  0  0  0  0  0  0  0  0  0  0
    4.0415   -0.4980    3.7538 H   0  0  0  0  0  0  0  0  0  0  0  0
    3.3581   -1.4001    2.3667 H   0  0  0  0  0  0  0  0  0  0  0  0
    2.3205   -1.0024    3.7488 H   0  0  0  0  0  0  0  0  0  0  0  0
    0.8791    3.7128    4.3051 C   0  0  0  0  0  0  0  0  0  0  0  0
    0.8243    3.7736    3.2284 H   0  0  0  0  0  0  0  0  0  0  0  0
    1.6618    2.7417    4.9111 C   0  0  0  0  0  0  0  0  0  0  0  0
    2.2239    2.0525    4.3039 H   0  0  0  0  0  0  0  0  0  0  0  0
    1.7250    2.7082    6.2934 C   0  0  0  0  0  0  0  0  0  0  0  0
    2.3504    1.9916    6.8046 H   0  0  0  0  0  0  0  0  0  0  0  0
    0.9678    3.6140    7.0151 C   0  0  0  0  0  0  0  0  0  0  0  0
    1.0045    3.6215    8.0929 H   0  0  0  0  0  0  0  0  0  0  0  0
    0.1919    4.5478    6.3316 C   0  0  0  0  0  0  0  0  0  0  0  0
   -0.6550    5.5212    7.0402 C   0  0  0  0  0  0  0  0  0  0  0  0
   -1.1403    5.2839    8.3253 C   0  0  0  0  0  0  0  0  0  0  0  0
   -0.9215    4.3545    8.8260 H   0  0  0  0  0  0  0  0  0  0  0  0
   -1.9263    6.2417    8.9401 C   0  0  0  0  0  0  0  0  0  0  0  0
   -2.3120    6.0751    9.9344 H   0  0  0  0  0  0  0  0  0  0  0  0
   -2.2092    7.4118    8.2533 C   0  0  0  0  0  0  0  0  0  0  0  0
   -2.8106    8.1899    8.6940 H   0  0  0  0  0  0  0  0  0  0  0  0
   -1.7113    7.5655    6.9701 C   0  0  0  0  0  0  0  0  0  0  0  0
   -1.9254    8.4587    6.3958 H   0  0  0  0  0  0  0  0  0  0  0  0
  1  8  1  0  0  0  0
  1  9  1  0  0  0  0
  3 13  1  0  0  0  0
  4 10  1  0  0  0  0
  5 38  1  0  0  0  0
  7 37  2  0  0  0  0
  8 50  1  0  0  0  0
  9 58  1  0  0  0  0
  9 51  1  0  0  0  0
 10 11  1  6  0  0  0
 10 12  1  0  0  0  0
 10  1  1  0  0  0  0
 12  3  1  0  0  0  0
 12  6  2  0  0  0  0
 13 16  1  0  0  0  0
 14 13  1  0  0  0  0
 15 13  1  0  0  0  0
 16 18  1  0  0  0  0
 16 17  1  0  0  0  0
 19 16  1  0  0  0  0
 20  4  1  0  0  0  0
 20 21  1  0  0  0  0
 21 22  1  0  0  0  0
 23 24  1  0  0  0  0
 23 21  2  0  0  0  0
 25 23  1  0  0  0  0
 26 25  1  0  0  0  0
 27 29  1  0  0  0  0
 27 25  2  0  0  0  0
 28 27  1  0  0  0  0
 29 20  2  0  0  0  0
 30 32  1  0  0  0  0
 30 29  1  0  0  0  0
 30 33  1  0  0  0  0
 31 30  1  0  0  0  0
 33 35  2  0  0  0  0
 34 33  1  0  0  0  0
 35 36  1  0  0  0  0
 35 37  1  0  0  0  0
 37  5  1  0  0  0  0
 38 41  1  0  0  0  0
 38 39  1  0  0  0  0
 40 38  1  0  0  0  0
 42 44  2  0  0  0  0
 42  8  1  0  0  0  0
 43 42  1  0  0  0  0
 44 46  1  0  0  0  0
 45 44  1  0  0  0  0
 46 47  1  0  0  0  0
 46 48  2  0  0  0  0
 48 49  1  0  0  0  0
 50 48  1  0  0  0  0
 50 51  2  0  0  0  0
 51 52  1  0  0  0  0
 52 53  1  0  0  0  0
 52 54  2  0  0  0  0
 54 55  1  0  0  0  0
 56 57  1  0  0  0  0
 56 54  1  0  0  0  0
 58 56  2  0  0  0  0
 59 58  1  0  0  0  0
M  END
$$$$
