CSD_code = PIJNUS | q = 0 | S = 0 | Stoichiometry = C25H25BrN2O5Pd | MND = 6
 OpenBabel04212202083D

 59 63  0  0  1  0  0  0  0  0999 V2000
    7.1235    4.8991    5.5075 Pd  0  0  0  0  0  0  0  0  0  0  0  0
    9.4202    5.4611    4.6578 Br  0  0  0  0  0  0  0  0  0  0  0  0
    4.5716    5.5202    6.7384 O   0  0  0  0  0  0  0  0  0  0  0  0
    5.7960    2.1981    6.9038 O   0  0  0  0  0  0  0  0  0  0  0  0
    5.7513    3.7514    8.5381 O   0  0  0  0  0  0  0  0  0  0  0  0
    7.5341   10.3645    3.6743 O   0  0  0  0  0  0  0  0  0  0  0  0
    8.2490    9.0212    2.0200 O   0  0  0  0  0  0  0  0  0  0  0  0
    8.3232    3.8712    7.1198 N   0  0  0  0  0  0  0  0  0  0  0  0
    7.6331    2.8048    4.6995 N   0  0  0  0  0  0  0  0  0  0  0  0
    5.4176    6.5201    7.1098 C   0  0  0  0  0  0  0  0  0  0  0  0
    6.7110    6.5431    6.5805 C   0  0  0  0  0  0  0  0  0  0  0  0
    7.5741    7.5720    6.8919 C   0  0  0  0  0  0  0  0  0  0  0  0
    8.5734    7.6069    6.4762 H   0  0  0  0  0  0  0  0  0  0  0  0
    7.1431    8.5994    7.7247 C   0  0  0  0  0  0  0  0  0  0  0  0
    7.8144    9.4129    7.9534 H   0  0  0  0  0  0  0  0  0  0  0  0
    5.8618    8.5805    8.2460 C   0  0  0  0  0  0  0  0  0  0  0  0
    5.5319    9.3794    8.8931 H   0  0  0  0  0  0  0  0  0  0  0  0
    4.9937    7.5451    7.9468 C   0  0  0  0  0  0  0  0  0  0  0  0
    3.9936    7.5111    8.3488 H   0  0  0  0  0  0  0  0  0  0  0  0
    5.2511    4.3826    6.2704 C   0  0  2  0  0  0  0  0  0  0  0  0
    4.6152    3.8706    5.5371 H   0  0  0  0  0  0  0  0  0  0  0  0
    5.6174    3.4623    7.3696 C   0  0  0  0  0  0  0  0  0  0  0  0
    6.0817    1.2063    7.8858 C   0  0  0  0  0  0  0  0  0  0  0  0
    5.1959    1.0759    8.5184 H   0  0  0  0  0  0  0  0  0  0  0  0
    6.9016    1.5533    8.5263 H   0  0  0  0  0  0  0  0  0  0  0  0
    6.4389   -0.0878    7.1785 C   0  0  0  0  0  0  0  0  0  0  0  0
    6.6436   -0.8602    7.9141 H   0  0  0  0  0  0  0  0  0  0  0  0
    7.3173    0.0510    6.5527 H   0  0  0  0  0  0  0  0  0  0  0  0
    5.6132   -0.4064    6.5483 H   0  0  0  0  0  0  0  0  0  0  0  0
    6.0538    5.8131    3.9429 C   0  0  0  0  0  0  0  0  0  0  0  0
    5.8881    4.9851    3.2386 H   0  0  0  0  0  0  0  0  0  0  0  0
    5.0997    6.1969    4.3196 H   0  0  0  0  0  0  0  0  0  0  0  0
    6.8448    6.8801    3.3386 C   0  0  0  0  0  0  0  0  0  0  0  0
    7.5456    6.6174    2.5521 H   0  0  0  0  0  0  0  0  0  0  0  0
    6.7677    8.1752    3.6863 C   0  0  0  0  0  0  0  0  0  0  0  0
    6.1269    8.5265    4.4820 H   0  0  0  0  0  0  0  0  0  0  0  0
    7.5964    9.1836    3.0228 C   0  0  0  0  0  0  0  0  0  0  0  0
    8.3213   11.4078    3.1266 C   0  0  0  0  0  0  0  0  0  0  0  0
    8.1854   12.2682    3.7770 H   0  0  0  0  0  0  0  0  0  0  0  0
    7.9935   11.6394    2.1105 H   0  0  0  0  0  0  0  0  0  0  0  0
    9.3724   11.1123    3.0937 H   0  0  0  0  0  0  0  0  0  0  0  0
    8.5207    4.3578    8.3352 C   0  0  0  0  0  3  0  0  0  0  0  0
    8.0426    5.3044    8.5604 H   0  0  0  0  0  0  0  0  0  0  0  0
    9.2881    3.6999    9.2827 C   0  0  0  0  0  0  0  0  0  0  0  0
    9.4285    4.1309   10.2602 H   0  0  0  0  0  0  0  0  0  0  0  0
    9.8465    2.4782    8.9438 C   0  0  0  0  0  0  0  0  0  0  0  0
   10.4316    1.9206    9.6597 H   0  0  0  0  0  0  0  0  0  0  0  0
    9.6421    1.9754    7.6708 C   0  0  0  0  0  0  0  0  0  0  0  0
   10.0535    1.0167    7.4002 H   0  0  0  0  0  0  0  0  0  0  0  0
    8.8824    2.7098    6.7599 C   0  0  0  0  0  0  0  0  0  0  0  0
    8.6467    2.2447    5.3778 C   0  0  2  0  0  3  0  0  0  0  0  0
    9.4563    1.2730    4.7895 C   0  0  0  0  0  0  0  0  0  0  0  0
   10.3029    0.8700    5.3203 H   0  0  0  0  0  0  0  0  0  0  0  0
    9.1940    0.8592    3.4961 C   0  0  0  0  0  0  0  0  0  0  0  0
    9.8223    0.1207    3.0219 H   0  0  0  0  0  0  0  0  0  0  0  0
    8.1175    1.4133    2.8240 C   0  0  0  0  0  0  0  0  0  0  0  0
    7.8689    1.1149    1.8185 H   0  0  0  0  0  0  0  0  0  0  0  0
    7.3744    2.3882    3.4694 C   0  0  0  0  0  0  0  0  0  0  0  0
    6.5319    2.8537    2.9708 H   0  0  0  0  0  0  0  0  0  0  0  0
  1 20  1  0  0  0  0
  1 11  1  0  0  0  0
  1  8  1  0  0  0  0
  2  1  1  0  0  0  0
  3 10  1  0  0  0  0
  4 22  1  0  0  0  0
  4 23  1  0  0  0  0
  7 37  2  0  0  0  0
  8 42  1  0  0  0  0
  9 51  1  0  0  0  0
  9  1  1  0  0  0  0
 10 18  1  0  0  0  0
 11 12  1  0  0  0  0
 11 10  2  0  0  0  0
 12 14  2  0  0  0  0
 13 12  1  0  0  0  0
 14 15  1  0  0  0  0
 14 16  1  0  0  0  0
 16 17  1  0  0  0  0
 18 16  2  0  0  0  0
 18 19  1  0  0  0  0
 20 21  1  6  0  0  0
 20  3  1  0  0  0  0
 20 22  1  0  0  0  0
 22  5  2  0  0  0  0
 23 24  1  0  0  0  0
 23 25  1  0  0  0  0
 26 23  1  0  0  0  0
 26 27  1  0  0  0  0
 28 26  1  0  0  0  0
 29 26  1  0  0  0  0
 30 32  1  0  0  0  0
 30  1  1  0  0  0  0
 31 30  1  0  0  0  0
 33 35  2  0  0  0  0
 33 30  1  0  0  0  0
 34 33  1  0  0  0  0
 35 36  1  0  0  0  0
 37  6  1  0  0  0  0
 37 35  1  0  0  0  0
 38  6  1  0  0  0  0
 38 39  1  0  0  0  0
 40 38  1  0  0  0  0
 41 38  1  0  0  0  0
 42 43  1  0  0  0  0
 42 44  1  0  0  0  0
 44 45  1  0  0  0  0
 46 44  2  0  0  0  0
 46 47  1  0  0  0  0
 48 46  1  0  0  0  0
 49 48  1  0  0  0  0
 50  8  1  0  0  0  0
 50 48  2  0  0  0  0
 51 52  1  6  0  0  0
 51 50  1  0  0  0  0
 52 53  1  0  0  0  0
 54 52  2  0  0  0  0
 55 54  1  0  0  0  0
 56 58  2  0  0  0  0
 56 54  1  0  0  0  0
 57 56  1  0  0  0  0
 58  9  1  0  0  0  0
 59 58  1  0  0  0  0
M  END
$$$$
