CSD_code = PIKFAR | q = 0 | S = 0 | Stoichiometry = C28H21AsBr2NO3Re | MND = 6
 OpenBabel04212202083D

 57 61  0  0  0  0  0  0  0  0999 V2000
    2.1956    0.5351    2.6866 Re  0  0  0  0  0  0  0  0  0  0  0  0
    2.6307    1.2325    1.2518 O   0  0  0  0  0  1  0  0  0  0  0  0
    3.7025   -1.3869    2.6330 Br  0  0  0  0  0  0  0  0  0  0  0  0
    0.2719   -0.8244    1.9377 Br  0  0  0  0  0  0  0  0  0  0  0  0
    4.0984    1.6162    3.9490 As  0  0  0  0  0  0  0  0  0  0  0  0
    3.4519    3.2738    4.7287 C   0  0  0  0  0  0  0  0  0  0  0  0
    2.9581    4.2076    3.8182 C   0  0  0  0  0  0  0  0  0  0  0  0
    3.0505    4.0018    2.7528 H   0  0  0  0  0  0  0  0  0  0  0  0
    2.3498    5.3649    4.2634 C   0  0  0  0  0  0  0  0  0  0  0  0
    1.9645    6.0818    3.5525 H   0  0  0  0  0  0  0  0  0  0  0  0
    2.2244    5.5946    5.6259 C   0  0  0  0  0  0  0  0  0  0  0  0
    1.7351    6.4908    5.9773 H   0  0  0  0  0  0  0  0  0  0  0  0
    2.7261    4.6791    6.5347 C   0  0  0  0  0  0  0  0  0  0  0  0
    2.6324    4.8619    7.5948 H   0  0  0  0  0  0  0  0  0  0  0  0
    3.3402    3.5181    6.0911 C   0  0  0  0  0  0  0  0  0  0  0  0
    3.7315    2.8007    6.8036 H   0  0  0  0  0  0  0  0  0  0  0  0
    4.9625    0.5981    5.3539 C   0  0  0  0  0  0  0  0  0  0  0  0
    4.2691    0.2132    6.4995 C   0  0  0  0  0  0  0  0  0  0  0  0
    3.2364    0.5045    6.6536 H   0  0  0  0  0  0  0  0  0  0  0  0
    4.8930   -0.5780    7.4492 C   0  0  0  0  0  0  0  0  0  0  0  0
    4.3495   -0.8738    8.3342 H   0  0  0  0  0  0  0  0  0  0  0  0
    6.1976   -1.0009    7.2583 C   0  0  0  0  0  0  0  0  0  0  0  0
    6.6763   -1.6238    7.9990 H   0  0  0  0  0  0  0  0  0  0  0  0
    6.8818   -0.6413    6.1086 C   0  0  0  0  0  0  0  0  0  0  0  0
    7.8918   -0.9873    5.9474 H   0  0  0  0  0  0  0  0  0  0  0  0
    6.2672    0.1494    5.1545 C   0  0  0  0  0  0  0  0  0  0  0  0
    6.7904    0.4124    4.2403 H   0  0  0  0  0  0  0  0  0  0  0  0
    5.5735    2.2469    2.8536 C   0  0  0  0  0  0  0  0  0  0  0  0
    6.4802    3.1579    3.3895 C   0  0  0  0  0  0  0  0  0  0  0  0
    6.3454    3.5041    4.4119 H   0  0  0  0  0  0  0  0  0  0  0  0
    7.5372    3.6107    2.6214 C   0  0  0  0  0  0  0  0  0  0  0  0
    8.2401    4.3189    3.0353 H   0  0  0  0  0  0  0  0  0  0  0  0
    7.6931    3.1545    1.3210 C   0  0  0  0  0  0  0  0  0  0  0  0
    8.5206    3.5084    0.7245 H   0  0  0  0  0  0  0  0  0  0  0  0
    6.7919    2.2500    0.7856 C   0  0  0  0  0  0  0  0  0  0  0  0
    6.9146    1.8962   -0.2269 H   0  0  0  0  0  0  0  0  0  0  0  0
    5.7292    1.7954    1.5500 C   0  0  0  0  0  0  0  0  0  0  0  0
    5.0116    1.0940    1.1335 H   0  0  0  0  0  0  0  0  0  0  0  0
    0.7107    2.1677    3.2089 N   0  0  0  0  0  0  0  0  0  0  0  0
    0.3965    2.1598    4.4850 C   0  0  0  0  0  0  0  0  0  0  0  0
   -0.4408    3.1064    5.0889 C   0  0  0  0  0  0  0  0  0  0  0  0
   -0.6237    3.0177    6.1475 H   0  0  0  0  0  0  0  0  0  0  0  0
   -0.9763    4.0876    4.3043 C   0  0  0  0  0  0  0  0  0  0  0  0
   -1.6226    4.8461    4.7201 H   0  0  0  0  0  0  0  0  0  0  0  0
   -0.6954    4.1003    2.9224 C   0  0  0  0  0  0  0  0  0  0  0  0
    0.1643    3.0964    2.3877 C   0  0  0  0  0  0  0  0  0  0  0  0
   -1.2415    5.0628    2.0505 C   0  0  0  0  0  3  0  0  0  0  0  0
   -1.8875    5.8223    2.4657 H   0  0  0  0  0  0  0  0  0  0  0  0
   -0.9691    5.0272    0.7112 C   0  0  0  0  0  0  0  0  0  0  0  0
   -1.3963    5.7647    0.0490 H   0  0  0  0  0  0  0  0  0  0  0  0
   -0.1390    4.0253    0.1864 C   0  0  0  0  0  0  0  0  0  0  0  0
    0.0561    3.9977   -0.8743 H   0  0  0  0  0  0  0  0  0  0  0  0
    0.4194    3.0816    1.0046 C   0  0  0  0  0  0  0  0  0  0  0  0
    1.0563    2.3058    0.5992 H   0  0  0  0  0  0  0  0  0  0  0  0
    1.0261    1.0532    5.3095 C   0  0  0  0  0  0  0  0  0  0  0  0
    1.6656    0.2194    4.5783 O   0  0  0  0  0  0  0  0  0  0  0  0
    0.9338    1.0394    6.5189 O   0  0  0  0  0  0  0  0  0  0  0  0
  1 39  1  0  0  0  0
  1 56  1  0  0  0  0
  2  1  1  0  0  0  0
  3  1  1  0  0  0  0
  4  1  1  0  0  0  0
  5  6  1  0  0  0  0
  5 17  1  0  0  0  0
  6 15  1  0  0  0  0
  7  9  1  0  0  0  0
  7  6  2  0  0  0  0
  8  7  1  0  0  0  0
  9 11  2  0  0  0  0
 10  9  1  0  0  0  0
 11 12  1  0  0  0  0
 11 13  1  0  0  0  0
 13 14  1  0  0  0  0
 15 13  2  0  0  0  0
 15 16  1  0  0  0  0
 17 18  1  0  0  0  0
 18 19  1  0  0  0  0
 18 20  2  0  0  0  0
 20 21  1  0  0  0  0
 22 20  1  0  0  0  0
 22 23  1  0  0  0  0
 24 22  2  0  0  0  0
 25 24  1  0  0  0  0
 26 17  2  0  0  0  0
 26 24  1  0  0  0  0
 27 26  1  0  0  0  0
 28 29  1  0  0  0  0
 28  5  1  0  0  0  0
 29 30  1  0  0  0  0
 31 32  1  0  0  0  0
 31 29  2  0  0  0  0
 33 31  1  0  0  0  0
 34 33  1  0  0  0  0
 35 33  2  0  0  0  0
 35 37  1  0  0  0  0
 36 35  1  0  0  0  0
 37 28  2  0  0  0  0
 38 37  1  0  0  0  0
 39 40  1  0  0  0  0
 40 41  2  0  0  0  0
 40 55  1  0  0  0  0
 41 42  1  0  0  0  0
 43 44  1  0  0  0  0
 43 41  1  0  0  0  0
 45 43  2  0  0  0  0
 46 45  1  0  0  0  0
 46 39  1  0  0  0  0
 47 48  1  0  0  0  0
 47 45  1  0  0  0  0
 49 47  1  0  0  0  0
 50 49  1  0  0  0  0
 51 49  2  0  0  0  0
 51 53  1  0  0  0  0
 52 51  1  0  0  0  0
 53 46  2  0  0  0  0
 54 53  1  0  0  0  0
 55 57  2  0  0  0  0
 56 55  1  0  0  0  0
M  END
$$$$
