CSD_code = PIKJAW | q = 0 | S = 0 | Stoichiometry = C13H18Cl2N2OPd | MND = 4
 OpenBabel04212202083D

 37 39  0  0  1  0  0  0  0  0999 V2000
    5.9013   10.7126    9.4250 Pd  0  0  0  0  0  0  0  0  0  0  0  0
    7.6833    9.3823    9.4093 Cl  0  0  0  0  0  0  0  0  0  0  0  0
    7.0237   12.0733    8.0955 Cl  0  0  0  0  0  0  0  0  0  0  0  0
    2.8882    8.4887   10.8909 O   0  0  0  0  0  0  0  0  0  0  0  0
    4.8786    9.4374   10.5461 N   0  0  0  0  0  0  0  0  0  0  0  0
    3.9092   11.5135    9.2192 N   0  0  0  0  0  0  0  0  0  0  0  0
    5.1644    8.4348   11.5446 C   0  0  2  0  0  0  0  0  0  0  0  0
    5.9896    7.8042   11.1988 H   0  0  0  0  0  0  0  0  0  0  0  0
    3.8210    7.6653   11.6025 C   0  0  0  0  0  0  0  0  0  0  0  0
    3.8802    6.6982   11.0941 H   0  0  0  0  0  0  0  0  0  0  0  0
    3.4383    7.5160   12.6117 H   0  0  0  0  0  0  0  0  0  0  0  0
    3.6180    9.4498   10.3013 C   0  0  0  0  0  0  0  0  0  0  0  0
    3.0398   10.5195    9.5192 C   0  0  0  0  0  0  0  0  0  0  0  0
    1.6941   10.5593    9.1735 C   0  0  0  0  0  0  0  0  0  0  0  0
    1.0548    9.7352    9.4440 H   0  0  0  0  0  0  0  0  0  0  0  0
    1.2291   11.6660    8.4843 C   0  0  0  0  0  0  0  0  0  0  0  0
    0.1964   11.7285    8.1778 H   0  0  0  0  0  0  0  0  0  0  0  0
    2.1094   12.7005    8.2185 C   0  0  0  0  0  0  0  0  0  0  0  0
    1.7723   13.5901    7.7106 H   0  0  0  0  0  0  0  0  0  0  0  0
    3.4463   12.6095    8.6131 C   0  0  0  0  0  0  0  0  0  0  0  0
    5.5995    9.1203   12.8732 C   0  0  0  0  0  0  0  0  0  0  0  0
    6.8586    9.9546   12.6146 C   0  0  0  0  0  0  0  0  0  0  0  0
    6.6623   10.7653   11.8908 H   0  0  0  0  0  0  0  0  0  0  0  0
    7.6569    9.3336   12.2145 H   0  0  0  0  0  0  0  0  0  0  0  0
    7.1990   10.4063   13.5433 H   0  0  0  0  0  0  0  0  0  0  0  0
    4.4963   10.0429   13.3990 C   0  0  0  0  0  0  0  0  0  0  0  0
    4.2868   10.8357   12.6805 H   0  0  0  0  0  0  0  0  0  0  0  0
    4.8220   10.5077   14.3262 H   0  0  0  0  0  0  0  0  0  0  0  0
    3.5728    9.5051   13.6014 H   0  0  0  0  0  0  0  0  0  0  0  0
    5.9252    8.0356   13.9019 C   0  0  0  0  0  0  0  0  0  0  0  0
    6.2759    8.4951   14.8223 H   0  0  0  0  0  0  0  0  0  0  0  0
    6.7084    7.3816   13.5273 H   0  0  0  0  0  0  0  0  0  0  0  0
    5.0545    7.4290   14.1387 H   0  0  0  0  0  0  0  0  0  0  0  0
    4.3855   13.7386    8.3964 C   0  0  0  0  0  0  0  0  0  0  0  0
    5.0422   13.8466    9.2608 H   0  0  0  0  0  0  0  0  0  0  0  0
    3.8506   14.6652    8.2095 H   0  0  0  0  0  0  0  0  0  0  0  0
    5.0375   13.5177    7.5483 H   0  0  0  0  0  0  0  0  0  0  0  0
  1  5  1  0  0  0  0
  2  1  1  0  0  0  0
  3  1  1  0  0  0  0
  4  9  1  0  0  0  0
  5  7  1  0  0  0  0
  6  1  1  0  0  0  0
  6 13  1  0  0  0  0
  7  8  1  6  0  0  0
  7  9  1  0  0  0  0
  7 21  1  0  0  0  0
  9 11  1  0  0  0  0
 10  9  1  0  0  0  0
 12  5  1  0  0  0  0
 12  4  1  0  0  0  0
 13 12  2  0  0  0  0
 14 15  1  0  0  0  0
 14 13  1  0  0  0  0
 16 14  2  0  0  0  0
 17 16  1  0  0  0  0
 18 16  1  0  0  0  0
 18 20  2  0  0  0  0
 19 18  1  0  0  0  0
 20  6  1  0  0  0  0
 21 26  1  0  0  0  0
 21 30  1  0  0  0  0
 22 21  1  0  0  0  0
 22 25  1  0  0  0  0
 23 22  1  0  0  0  0
 24 22  1  0  0  0  0
 26 29  1  0  0  0  0
 26 28  1  0  0  0  0
 27 26  1  0  0  0  0
 30 33  1  0  0  0  0
 30 31  1  0  0  0  0
 32 30  1  0  0  0  0
 34 20  1  0  0  0  0
 34 35  1  0  0  0  0
 36 34  1  0  0  0  0
 37 34  1  0  0  0  0
M  END
$$$$
