CSD_code = PIKKUR | q = 0 | S = 0 | Stoichiometry = C29H34Cl2N4Ni | MND = 6
 OpenBabel04212202083D

 70 74  0  0  1  0  0  0  0  0999 V2000
    5.5321    3.3919    0.4167 Ni  0  0  0  0  0  0  0  0  0  0  0  0
    4.6299    3.5469   -1.5906 Cl  0  0  0  0  0  0  0  0  0  0  0  0
    6.3281    3.1212    2.4601 Cl  0  0  0  0  0  0  0  0  0  0  0  0
    7.1812    2.1482   -0.6560 N   0  0  0  0  0  0  0  0  0  0  0  0
    4.8309    1.7310    0.5440 N   0  0  0  0  0  0  0  0  0  0  0  0
    3.5184    3.8674    1.4910 N   0  0  0  0  0  0  0  0  0  0  0  0
    7.2774   -0.1097   -1.6296 C   0  0  0  0  0  0  0  0  0  0  0  0
    8.1733    0.2519   -2.1285 H   0  0  0  0  0  0  0  0  0  0  0  0
    6.5607   -0.4344   -2.3819 H   0  0  0  0  0  0  0  0  0  0  0  0
    7.5440   -0.9657   -1.0109 H   0  0  0  0  0  0  0  0  0  0  0  0
    6.6889    0.9779   -0.7790 C   0  0  0  0  0  0  0  0  0  0  0  0
    5.4598    0.6900   -0.0203 C   0  0  0  0  0  0  0  0  0  0  0  0
    4.9384   -0.5999    0.0784 C   0  0  0  0  0  0  0  0  0  0  0  0
    5.4577   -1.4322   -0.3657 H   0  0  0  0  0  0  0  0  0  0  0  0
    3.7493   -0.8026    0.7524 C   0  0  0  0  0  0  0  0  0  0  0  0
    3.3257   -1.7921    0.8320 H   0  0  0  0  0  0  0  0  0  0  0  0
    3.1115    0.2825    1.3244 C   0  0  0  0  0  0  0  0  0  0  0  0
    2.1796    0.1503    1.8478 H   0  0  0  0  0  0  0  0  0  0  0  0
    3.6827    1.5488    1.2136 C   0  0  0  0  0  0  0  0  0  0  0  0
    3.0781    2.7304    1.8564 C   0  0  1  0  0  3  0  0  0  0  0  0
    2.0056    2.5239    2.8847 C   0  0  0  0  0  0  0  0  0  0  0  0
    1.7095    3.4812    3.3076 H   0  0  0  0  0  0  0  0  0  0  0  0
    2.3674    1.8793    3.6837 H   0  0  0  0  0  0  0  0  0  0  0  0
    1.1319    2.0578    2.4306 H   0  0  0  0  0  0  0  0  0  0  0  0
    8.2273    2.6460   -1.4212 C   0  0  0  0  0  0  0  0  0  0  0  0
    8.0739    2.7559   -2.8045 C   0  0  0  0  0  0  0  0  0  0  0  0
    7.1517    2.4209   -3.2559 H   0  0  0  0  0  0  0  0  0  0  0  0
   10.2143    3.8124   -2.9609 C   0  0  0  0  0  0  0  0  0  0  0  0
   10.9962    4.2624   -3.5551 H   0  0  0  0  0  0  0  0  0  0  0  0
    9.0597    3.3489   -3.5673 C   0  0  0  0  0  0  0  0  0  0  0  0
    8.9270    3.4436   -4.6350 H   0  0  0  0  0  0  0  0  0  0  0  0
   10.3649    3.7080   -1.5879 C   0  0  0  0  0  0  0  0  0  0  0  0
   11.2684    4.0795   -1.1299 H   0  0  0  0  0  0  0  0  0  0  0  0
    9.3788    3.1446   -0.7936 C   0  0  0  0  0  0  0  0  0  0  0  0
    9.5162    2.9873    0.6984 C   0  0  0  0  0  0  0  0  0  0  0  0
    8.5082    3.0323    1.1251 H   0  0  0  0  0  0  0  0  0  0  0  0
   10.1009    1.6084    1.0201 C   0  0  0  0  0  0  0  0  0  0  0  0
   10.1607    1.4723    2.0971 H   0  0  0  0  0  0  0  0  0  0  0  0
   11.1002    1.5101    0.5980 H   0  0  0  0  0  0  0  0  0  0  0  0
    9.4734    0.8197    0.6103 H   0  0  0  0  0  0  0  0  0  0  0  0
   10.3531    4.0856    1.3491 C   0  0  0  0  0  0  0  0  0  0  0  0
   10.2368    4.0356    2.4292 H   0  0  0  0  0  0  0  0  0  0  0  0
   10.0211    5.0660    1.0140 H   0  0  0  0  0  0  0  0  0  0  0  0
   11.4105    3.9730    1.1174 H   0  0  0  0  0  0  0  0  0  0  0  0
    3.2168    5.0890    2.0715 C   0  0  0  0  0  0  0  0  0  0  0  0
    3.6264    5.3449    3.3814 C   0  0  0  0  0  0  0  0  0  0  0  0
    4.1089    4.5574    3.9408 H   0  0  0  0  0  0  0  0  0  0  0  0
    3.4780    6.6075    3.9204 C   0  0  0  0  0  0  0  0  0  0  0  0
    3.8097    6.8014    4.9295 H   0  0  0  0  0  0  0  0  0  0  0  0
    2.9011    7.6156    3.1670 C   0  0  0  0  0  0  0  0  0  0  0  0
    2.7717    8.6023    3.5881 H   0  0  0  0  0  0  0  0  0  0  0  0
    2.4892    7.3600    1.8684 C   0  0  0  0  0  0  0  0  0  0  0  0
    2.0395    8.1562    1.2950 H   0  0  0  0  0  0  0  0  0  0  0  0
    2.6491    6.1095    1.2923 C   0  0  0  0  0  0  0  0  0  0  0  0
    2.1908    5.7821   -0.1056 C   0  0  0  0  0  0  0  0  0  0  0  0
    2.8599    5.0081   -0.4974 H   0  0  0  0  0  0  0  0  0  0  0  0
    0.7734    5.2023   -0.0548 C   0  0  0  0  0  0  0  0  0  0  0  0
    0.4493    4.9228   -1.0541 H   0  0  0  0  0  0  0  0  0  0  0  0
    0.0761    5.9367    0.3464 H   0  0  0  0  0  0  0  0  0  0  0  0
    0.7421    4.3167    0.5762 H   0  0  0  0  0  0  0  0  0  0  0  0
    2.2415    6.9732   -1.0587 C   0  0  0  0  0  0  0  0  0  0  0  0
    2.0787    6.6259   -2.0759 H   0  0  0  0  0  0  0  0  0  0  0  0
    3.2161    7.4547   -1.0184 H   0  0  0  0  0  0  0  0  0  0  0  0
    1.4729    7.7075   -0.8250 H   0  0  0  0  0  0  0  0  0  0  0  0
    6.0918    5.0431    0.3714 N   0  0  0  0  0  2  0  0  0  0  0  0
    6.1304    6.1743    0.5598 C   0  0  0  0  0  2  0  0  0  0  0  0
    6.1883    7.5819    0.7944 C   0  0  0  0  0  0  0  0  0  0  0  0
    6.2592    8.1128   -0.1545 H   0  0  0  0  0  0  0  0  0  0  0  0
    7.0561    7.8156    1.4105 H   0  0  0  0  0  0  0  0  0  0  0  0
    5.2804    7.8856    1.3181 H   0  0  0  0  0  0  0  0  0  0  0  0
  1  5  1  0  0  0  0
  1  6  1  0  0  0  0
  1  3  1  0  0  0  0
  2  1  1  0  0  0  0
  4  1  1  0  0  0  0
  5 19  1  0  0  0  0
  6 20  1  0  0  0  0
  6 45  1  0  0  0  0
  7 10  1  0  0  0  0
  7 11  1  0  0  0  0
  8  7  1  0  0  0  0
  9  7  1  0  0  0  0
 11  4  1  0  0  0  0
 11 12  2  0  0  0  0
 12 13  1  0  0  0  0
 12  5  1  0  0  0  0
 13 15  2  0  0  0  0
 14 13  1  0  0  0  0
 15 16  1  0  0  0  0
 15 17  1  0  0  0  0
 17 18  1  0  0  0  0
 19 17  2  0  0  0  0
 19 20  1  0  0  0  0
 20 21  1  1  0  0  0
 21 22  1  0  0  0  0
 21 23  1  0  0  0  0
 24 21  1  0  0  0  0
 25 34  1  0  0  0  0
 25  4  1  0  0  0  0
 26 25  2  0  0  0  0
 27 26  1  0  0  0  0
 28 32  1  0  0  0  0
 29 28  1  0  0  0  0
 30 28  2  0  0  0  0
 30 26  1  0  0  0  0
 31 30  1  0  0  0  0
 32 33  1  0  0  0  0
 32 34  2  0  0  0  0
 34 35  1  0  0  0  0
 35 37  1  0  0  0  0
 35 36  1  0  0  0  0
 35 41  1  0  0  0  0
 37 38  1  0  0  0  0
 39 37  1  0  0  0  0
 40 37  1  0  0  0  0
 41 42  1  0  0  0  0
 43 41  1  0  0  0  0
 44 41  1  0  0  0  0
 45 46  1  0  0  0  0
 46 48  2  0  0  0  0
 46 47  1  0  0  0  0
 48 49  1  0  0  0  0
 50 51  1  0  0  0  0
 50 48  1  0  0  0  0
 52 50  2  0  0  0  0
 53 52  1  0  0  0  0
 54 52  1  0  0  0  0
 54 45  2  0  0  0  0
 55 57  1  0  0  0  0
 55 54  1  0  0  0  0
 56 55  1  0  0  0  0
 57 59  1  0  0  0  0
 57 60  1  0  0  0  0
 58 57  1  0  0  0  0
 61 63  1  0  0  0  0
 61 64  1  0  0  0  0
 61 55  1  0  0  0  0
 62 61  1  0  0  0  0
 65  1  1  0  0  0  0
 65 66  1  0  0  0  0
 66 67  1  0  0  0  0
 67 70  1  0  0  0  0
 67 69  1  0  0  0  0
 68 67  1  0  0  0  0
M  END
$$$$
