CSD_code = PIKPEG | q = 0 | S = 0 | Stoichiometry = C18H26AuClN2 | MND = 2
 OpenBabel04212202083D

 48 49  0  0  1  0  0  0  0  0999 V2000
    2.2302    3.4954    8.7130 Au  0  0  0  0  0  0  0  0  0  0  0  0
    1.1575    5.4243    8.3752 Cl  0  0  0  0  0  0  0  0  0  0  0  0
    3.6995   -0.4487    8.5628 C   0  0  0  0  0  0  0  0  0  0  0  0
    2.9745   -1.2435    8.8191 H   0  0  0  0  0  0  0  0  0  0  0  0
    4.3275   -0.8093    7.7367 H   0  0  0  0  0  0  0  0  0  0  0  0
    4.5051   -0.0151    9.6826 N   0  0  0  0  0  0  0  0  0  0  0  0
    4.0247    1.3155   10.0605 C   0  0  0  0  0  0  0  0  0  0  0  0
    4.8641    2.0061   10.1847 H   0  0  0  0  0  0  0  0  0  0  0  0
    3.4636    1.3142   11.0072 H   0  0  0  0  0  0  0  0  0  0  0  0
    3.1259    1.7624    8.9615 C   0  0  1  0  0  3  0  0  0  0  0  0
    2.9846    0.7533    8.1598 N   0  0  0  0  0  0  0  0  0  0  0  0
    4.5955   -0.9596   10.7794 C   0  0  0  0  0  0  0  0  0  0  0  0
    4.9383   -1.9118   10.3594 H   0  0  0  0  0  0  0  0  0  0  0  0
    3.6173   -1.1266   11.2656 H   0  0  0  0  0  0  0  0  0  0  0  0
    5.5986   -0.4811   11.7827 C   0  0  0  0  0  0  0  0  0  0  0  0
    6.5571   -0.2117   11.3624 H   0  0  0  0  0  0  0  0  0  0  0  0
    5.3671   -0.3773   13.0768 C   0  0  0  0  0  0  0  0  0  0  0  0
    4.4143   -0.6405   13.5076 H   0  0  0  0  0  0  0  0  0  0  0  0
    6.1217   -0.0374   13.7644 H   0  0  0  0  0  0  0  0  0  0  0  0
    2.2077    0.7532    6.9668 C   0  0  0  0  0  0  0  0  0  0  0  0
    0.8578    0.4041    7.0311 C   0  0  0  0  0  0  0  0  0  0  0  0
    0.1333    0.3870    5.8467 C   0  0  0  0  0  0  0  0  0  0  0  0
   -0.9123    0.1236    5.8655 H   0  0  0  0  0  0  0  0  0  0  0  0
    0.7311    0.7137    4.6452 C   0  0  0  0  0  0  0  0  0  0  0  0
    0.1517    0.6977    3.7345 H   0  0  0  0  0  0  0  0  0  0  0  0
    2.0633    1.0768    4.6071 C   0  0  0  0  0  0  0  0  0  0  0  0
    2.5130    1.3500    3.6656 H   0  0  0  0  0  0  0  0  0  0  0  0
    2.8276    1.1042    5.7657 C   0  0  0  0  0  0  0  0  0  0  0  0
    0.1782    0.0836    8.3413 C   0  0  0  0  0  0  0  0  0  0  0  0
    0.9072    0.1596    9.1546 H   0  0  0  0  0  0  0  0  0  0  0  0
    4.2709    1.5467    5.7171 C   0  0  0  0  0  0  0  0  0  0  0  0
    4.7107    1.4629    6.7156 H   0  0  0  0  0  0  0  0  0  0  0  0
   -0.3797   -1.3421    8.3338 C   0  0  0  0  0  0  0  0  0  0  0  0
   -0.8114   -1.5784    9.3037 H   0  0  0  0  0  0  0  0  0  0  0  0
    0.4067   -2.0639    8.1191 H   0  0  0  0  0  0  0  0  0  0  0  0
   -1.1551   -1.4511    7.5807 H   0  0  0  0  0  0  0  0  0  0  0  0
   -0.9273    1.1044    8.6217 C   0  0  0  0  0  0  0  0  0  0  0  0
   -1.3690    0.9177    9.5979 H   0  0  0  0  0  0  0  0  0  0  0  0
   -1.7118    1.0453    7.8725 H   0  0  0  0  0  0  0  0  0  0  0  0
   -0.5195    2.1137    8.6135 H   0  0  0  0  0  0  0  0  0  0  0  0
    5.0885    0.6684    4.7670 C   0  0  0  0  0  0  0  0  0  0  0  0
    6.1367    0.9549    4.8078 H   0  0  0  0  0  0  0  0  0  0  0  0
    4.7461    0.7768    3.7416 H   0  0  0  0  0  0  0  0  0  0  0  0
    5.0063   -0.3808    5.0453 H   0  0  0  0  0  0  0  0  0  0  0  0
    4.3441    3.0190    5.3038 C   0  0  0  0  0  0  0  0  0  0  0  0
    5.3755    3.3628    5.3284 H   0  0  0  0  0  0  0  0  0  0  0  0
    3.7578    3.6318    5.9864 H   0  0  0  0  0  0  0  0  0  0  0  0
    3.9569    3.1605    4.2983 H   0  0  0  0  0  0  0  0  0  0  0  0
  2  1  1  0  0  0  0
  3  4  1  0  0  0  0
  3  6  1  0  0  0  0
  5  3  1  0  0  0  0
  6  7  1  0  0  0  0
  6 12  1  0  0  0  0
  7  8  1  0  0  0  0
  7  9  1  0  0  0  0
 10  1  1  1  0  0  0
 10  7  1  0  0  0  0
 11  3  1  0  0  0  0
 11 10  1  0  0  0  0
 12 14  1  0  0  0  0
 12 15  1  0  0  0  0
 13 12  1  0  0  0  0
 15 17  2  0  0  0  0
 16 15  1  0  0  0  0
 17 18  1  0  0  0  0
 17 19  1  0  0  0  0
 20 21  1  0  0  0  0
 20 11  1  0  0  0  0
 21 29  1  0  0  0  0
 22 23  1  0  0  0  0
 22 21  2  0  0  0  0
 24 22  1  0  0  0  0
 25 24  1  0  0  0  0
 26 24  2  0  0  0  0
 26 28  1  0  0  0  0
 27 26  1  0  0  0  0
 28 20  2  0  0  0  0
 29 37  1  0  0  0  0
 29 30  1  0  0  0  0
 31 28  1  0  0  0  0
 31 32  1  0  0  0  0
 33 29  1  0  0  0  0
 33 34  1  0  0  0  0
 35 33  1  0  0  0  0
 36 33  1  0  0  0  0
 37 38  1  0  0  0  0
 39 37  1  0  0  0  0
 40 37  1  0  0  0  0
 41 42  1  0  0  0  0
 41 44  1  0  0  0  0
 41 31  1  0  0  0  0
 43 41  1  0  0  0  0
 45 46  1  0  0  0  0
 45 31  1  0  0  0  0
 45 47  1  0  0  0  0
 48 45  1  0  0  0  0
M  END
$$$$
