CSD_code = PIKVIR | q = 0 | S = 0 | Stoichiometry = C13H13Cl2N5OZn | MND = 5
 OpenBabel04212202083D

 35 38  0  0  1  0  0  0  0  0999 V2000
    0.4623    9.6904    7.5345 Zn  0  0  0  0  0  0  0  0  0  0  0  0
    1.5432   10.6890    9.1490 Cl  0  0  0  0  0  0  0  0  0  0  0  0
   -1.7440    9.9835    6.9907 Cl  0  0  0  0  0  0  0  0  0  0  0  0
    1.2533   10.4811    5.6860 O   0  0  0  0  0  0  0  0  0  0  0  0
    0.2903    7.7105    8.5338 N   0  0  0  0  0  0  0  0  0  0  0  0
    0.3040    8.0869    5.9626 N   0  0  2  0  0  0  0  0  0  0  0  0
    0.2398    8.6919    4.7563 N   0  0  0  0  0  0  0  0  0  0  0  0
   -0.4245    8.3846    4.0540 H   0  0  0  0  0  0  0  0  0  0  0  0
   -1.4654    6.5446    5.6380 N   0  0  0  0  0  0  0  0  0  0  0  0
   -1.8644    7.0921    4.8886 H   0  0  0  0  0  0  0  0  0  0  0  0
   -2.1709    6.0715    6.1809 H   0  0  0  0  0  0  0  0  0  0  0  0
    0.3884   12.8528   -0.1204 N   0  0  0  0  0  0  0  0  0  0  0  0
    0.0296   12.4098   -0.9478 H   0  0  0  0  0  0  0  0  0  0  0  0
    0.3138   13.8536   -0.0685 H   0  0  0  0  0  0  0  0  0  0  0  0
    0.5130    7.4720    9.8122 C   0  0  0  0  0  3  0  0  0  0  0  0
    0.9637    8.2860   10.3636 H   0  0  0  0  0  0  0  0  0  0  0  0
    0.1856    6.2619   10.4086 C   0  0  0  0  0  0  0  0  0  0  0  0
    0.3755    6.1030   11.4577 H   0  0  0  0  0  0  0  0  0  0  0  0
   -0.3880    5.2732    9.6256 C   0  0  0  0  0  0  0  0  0  0  0  0
   -0.6521    4.3163   10.0509 H   0  0  0  0  0  0  0  0  0  0  0  0
   -0.6198    5.5265    8.2827 C   0  0  0  0  0  0  0  0  0  0  0  0
   -1.0434    4.7670    7.6436 H   0  0  0  0  0  0  0  0  0  0  0  0
   -0.2638    6.7699    7.7692 C   0  0  0  0  0  0  0  0  0  0  0  0
   -0.4893    7.1708    6.3705 C   0  0  1  0  0  3  0  0  0  0  0  0
    0.7392    9.9650    4.6967 C   0  0  2  0  0  3  0  0  0  0  0  0
    0.6349   10.6612    3.4135 C   0  0  0  0  0  0  0  0  0  0  0  0
    0.3982   10.0204    2.1942 C   0  0  0  0  0  0  0  0  0  0  0  0
    0.3167    8.9443    2.1416 H   0  0  0  0  0  0  0  0  0  0  0  0
    0.3057   10.7465    1.0296 C   0  0  0  0  0  0  0  0  0  0  0  0
    0.1316   10.2431    0.0895 H   0  0  0  0  0  0  0  0  0  0  0  0
    0.4399   12.1411    1.0402 C   0  0  0  0  0  0  0  0  0  0  0  0
    0.6877   12.7808    2.2615 C   0  0  0  0  0  0  0  0  0  0  0  0
    0.7993   13.8547    2.2811 H   0  0  0  0  0  0  0  0  0  0  0  0
    0.7890   12.0524    3.4205 C   0  0  0  0  0  0  0  0  0  0  0  0
    0.9767   12.5385    4.3650 H   0  0  0  0  0  0  0  0  0  0  0  0
  1  5  1  0  0  0  0
  1  2  1  0  0  0  0
  3  1  1  0  0  0  0
  4  1  1  0  0  0  0
  5 15  1  0  0  0  0
  6  7  1  6  0  0  0
  6 24  1  0  0  0  0
  6  1  1  0  0  0  0
  8  7  1  0  0  0  0
  9 11  1  0  0  0  0
 10  9  1  0  0  0  0
 12 14  1  0  0  0  0
 12 31  1  0  0  0  0
 13 12  1  0  0  0  0
 15 16  1  0  0  0  0
 15 17  1  0  0  0  0
 17 18  1  0  0  0  0
 19 20  1  0  0  0  0
 19 17  2  0  0  0  0
 21 19  1  0  0  0  0
 22 21  1  0  0  0  0
 23 21  2  0  0  0  0
 23  5  1  0  0  0  0
 24  9  1  6  0  0  0
 24 23  1  0  0  0  0
 25 26  1  6  0  0  0
 25  7  1  0  0  0  0
 25  4  1  0  0  0  0
 26 34  1  0  0  0  0
 27 26  2  0  0  0  0
 28 27  1  0  0  0  0
 29 31  2  0  0  0  0
 29 27  1  0  0  0  0
 30 29  1  0  0  0  0
 31 32  1  0  0  0  0
 32 33  1  0  0  0  0
 32 34  2  0  0  0  0
 34 35  1  0  0  0  0
M  END
$$$$
