CSD_code = PILCOD | q = 0 | S = 0 | Stoichiometry = C27H31CdCl2N3 | MND = 5
 OpenBabel04212202083D

 64 68  0  0  1  0  0  0  0  0999 V2000
    8.9910    2.9161    4.2237 Cd  0  0  0  0  0  0  0  0  0  0  0  0
    7.1225    4.3454    3.8344 Cl  0  0  0  0  0  0  0  0  0  0  0  0
    9.0027    0.6893    3.5332 Cl  0  0  0  0  0  0  0  0  0  0  0  0
    8.7992    2.8927    6.6288 N   0  0  0  0  0  0  0  0  0  0  0  0
    9.9215    4.8362    5.2344 N   0  0  0  0  0  0  0  0  0  0  0  0
   10.5295    4.0766    2.7766 N   0  0  0  0  0  0  0  0  0  0  0  0
    8.8774    4.0217    7.2087 C   0  0  0  0  0  0  0  0  0  0  0  0
    9.3856    5.1533    6.4060 C   0  0  0  0  0  0  0  0  0  0  0  0
    9.2600    6.4854    6.8051 C   0  0  0  0  0  0  0  0  0  0  0  0
    8.8175    6.7460    7.7523 H   0  0  0  0  0  0  0  0  0  0  0  0
    9.6879    7.4767    5.9385 C   0  0  0  0  0  0  0  0  0  0  0  0
    9.5955    8.5164    6.2157 H   0  0  0  0  0  0  0  0  0  0  0  0
   10.2121    7.1297    4.7048 C   0  0  0  0  0  0  0  0  0  0  0  0
   10.5154    7.8944    4.0090 H   0  0  0  0  0  0  0  0  0  0  0  0
   10.3045    5.7753    4.3791 C   0  0  0  0  0  0  0  0  0  0  0  0
   10.7599    5.2949    3.0578 C   0  0  1  0  0  3  0  0  0  0  0  0
    8.4999    4.2758    8.6377 C   0  0  0  0  0  0  0  0  0  0  0  0
    8.3219    3.3312    9.1479 H   0  0  0  0  0  0  0  0  0  0  0  0
    7.5912    4.8744    8.6863 H   0  0  0  0  0  0  0  0  0  0  0  0
    9.2949    4.8169    9.1482 H   0  0  0  0  0  0  0  0  0  0  0  0
   11.4585    6.2633    2.1504 C   0  0  0  0  0  0  0  0  0  0  0  0
   11.8855    5.7339    1.3009 H   0  0  0  0  0  0  0  0  0  0  0  0
   12.2513    6.7795    2.6891 H   0  0  0  0  0  0  0  0  0  0  0  0
   10.7551    7.0073    1.7789 H   0  0  0  0  0  0  0  0  0  0  0  0
    8.2757    1.7349    7.2080 C   0  0  0  0  0  0  0  0  0  0  0  0
    9.1505    0.6566    7.4074 C   0  0  0  0  0  0  0  0  0  0  0  0
    8.6547   -0.5183    7.9400 C   0  0  0  0  0  0  0  0  0  0  0  0
    9.3295   -1.3461    8.1043 H   0  0  0  0  0  0  0  0  0  0  0  0
    7.3076   -0.6646    8.2490 C   0  0  0  0  0  0  0  0  0  0  0  0
    6.4538    0.3976    7.9998 C   0  0  0  0  0  0  0  0  0  0  0  0
    5.3979    0.2890    8.2040 H   0  0  0  0  0  0  0  0  0  0  0  0
    6.9092    1.6030    7.4835 C   0  0  0  0  0  0  0  0  0  0  0  0
   10.5931    0.7979    7.0310 C   0  0  0  0  0  0  0  0  0  0  0  0
   11.1546   -0.0851    7.3239 H   0  0  0  0  0  0  0  0  0  0  0  0
   11.0425    1.6753    7.4971 H   0  0  0  0  0  0  0  0  0  0  0  0
   10.6641    0.9142    5.9465 H   0  0  0  0  0  0  0  0  0  0  0  0
    6.7909   -1.9603    8.7956 C   0  0  0  0  0  0  0  0  0  0  0  0
    5.8183   -1.8267    9.2629 H   0  0  0  0  0  0  0  0  0  0  0  0
    7.4817   -2.3745    9.5274 H   0  0  0  0  0  0  0  0  0  0  0  0
    6.6846   -2.6853    7.9885 H   0  0  0  0  0  0  0  0  0  0  0  0
    5.9350    2.6997    7.1689 C   0  0  0  0  0  0  0  0  0  0  0  0
    5.8532    3.4050    7.9972 H   0  0  0  0  0  0  0  0  0  0  0  0
    4.9480    2.2783    6.9939 H   0  0  0  0  0  0  0  0  0  0  0  0
    6.2366    3.2504    6.2775 H   0  0  0  0  0  0  0  0  0  0  0  0
   10.8218    3.4771    1.5489 C   0  0  0  0  0  0  0  0  0  0  0  0
   10.1017    3.7932    0.3896 C   0  0  0  0  0  0  0  0  0  0  0  0
   10.4086    3.1167   -0.7814 C   0  0  0  0  0  0  0  0  0  0  0  0
    9.8503    3.3500   -1.6771 H   0  0  0  0  0  0  0  0  0  0  0  0
   11.4003    2.1483   -0.8333 C   0  0  0  0  0  0  0  0  0  0  0  0
   12.0772    1.8311    0.3362 C   0  0  0  0  0  0  0  0  0  0  0  0
   12.8343    1.0603    0.3212 H   0  0  0  0  0  0  0  0  0  0  0  0
   11.7929    2.4670    1.5316 C   0  0  0  0  0  0  0  0  0  0  0  0
    8.9783    4.7878    0.4113 C   0  0  0  0  0  0  0  0  0  0  0  0
    8.4518    4.7662    1.3658 H   0  0  0  0  0  0  0  0  0  0  0  0
    8.2666    4.5583   -0.3781 H   0  0  0  0  0  0  0  0  0  0  0  0
    9.3455    5.8014    0.2440 H   0  0  0  0  0  0  0  0  0  0  0  0
   11.6976    1.4367   -2.1179 C   0  0  0  0  0  0  0  0  0  0  0  0
   10.9244    0.6946   -2.3181 H   0  0  0  0  0  0  0  0  0  0  0  0
   12.6555    0.9248   -2.0674 H   0  0  0  0  0  0  0  0  0  0  0  0
   11.7131    2.1359   -2.9523 H   0  0  0  0  0  0  0  0  0  0  0  0
   12.4909    2.0918    2.8023 C   0  0  0  0  0  0  0  0  0  0  0  0
   13.2704    1.3594    2.6105 H   0  0  0  0  0  0  0  0  0  0  0  0
   11.7608    1.6544    3.4882 H   0  0  0  0  0  0  0  0  0  0  0  0
   12.9333    2.9630    3.2865 H   0  0  0  0  0  0  0  0  0  0  0  0
  1  5  1  0  0  0  0
  1  4  1  0  0  0  0
  2  1  1  0  0  0  0
  3  1  1  0  0  0  0
  4 25  1  0  0  0  0
  4  7  1  0  0  0  0
  5  8  1  0  0  0  0
  6 16  1  0  0  0  0
  6  1  1  0  0  0  0
  7 17  1  0  0  0  0
  8  9  1  0  0  0  0
  8  7  2  0  0  0  0
  9 10  1  0  0  0  0
 11 12  1  0  0  0  0
 11  9  2  0  0  0  0
 13 11  1  0  0  0  0
 14 13  1  0  0  0  0
 15 13  2  0  0  0  0
 15  5  1  0  0  0  0
 16 21  1  1  0  0  0
 16 15  1  0  0  0  0
 17 19  1  0  0  0  0
 17 18  1  0  0  0  0
 17 20  1  0  0  0  0
 21 23  1  0  0  0  0
 22 21  1  0  0  0  0
 24 21  1  0  0  0  0
 25 26  2  0  0  0  0
 25 32  1  0  0  0  0
 26 27  1  0  0  0  0
 27 28  1  0  0  0  0
 27 29  2  0  0  0  0
 29 37  1  0  0  0  0
 30 31  1  0  0  0  0
 30 29  1  0  0  0  0
 32 30  2  0  0  0  0
 33 34  1  0  0  0  0
 33 26  1  0  0  0  0
 33 35  1  0  0  0  0
 36 33  1  0  0  0  0
 37 38  1  0  0  0  0
 37 39  1  0  0  0  0
 40 37  1  0  0  0  0
 41 32  1  0  0  0  0
 41 42  1  0  0  0  0
 43 41  1  0  0  0  0
 44 41  1  0  0  0  0
 45  6  1  0  0  0  0
 46 53  1  0  0  0  0
 46 45  2  0  0  0  0
 47 46  1  0  0  0  0
 48 47  1  0  0  0  0
 49 47  2  0  0  0  0
 49 50  1  0  0  0  0
 50 52  2  0  0  0  0
 51 50  1  0  0  0  0
 52 45  1  0  0  0  0
 52 61  1  0  0  0  0
 53 54  1  0  0  0  0
 55 53  1  0  0  0  0
 56 53  1  0  0  0  0
 57 59  1  0  0  0  0
 57 49  1  0  0  0  0
 58 57  1  0  0  0  0
 60 57  1  0  0  0  0
 61 64  1  0  0  0  0
 61 63  1  0  0  0  0
 62 61  1  0  0  0  0
M  END
$$$$
