CSD_code = PILMUS | q = 0 | S = 0 | Stoichiometry = C11H17ClN4Pt | MND = 6
 OpenBabel04212202083D

 34 35  0  0  0  0  0  0  0  0999 V2000
    0.0908    2.7899    3.9226 Pt  0  0  0  0  0  0  0  0  0  0  0  0
    2.3668    2.3933    4.9328 Cl  0  0  0  0  0  0  0  0  0  0  0  0
   -0.4615    1.7300    5.7540 N   0  0  0  0  0  0  0  0  0  0  0  0
   -1.0440    2.5186    6.6142 N   0  0  0  0  0  2  0  0  0  0  0  0
   -0.0001    4.6577    5.1356 N   0  0  0  0  0  0  0  0  0  0  0  0
   -1.0365    5.4151    4.9256 N   0  0  0  0  0  2  0  0  0  0  0  0
    0.8322    3.8377    2.3217 C   0  0  0  0  0  0  0  0  0  0  0  0
   -1.8282    3.0826    3.2491 C   0  0  0  0  0  0  0  0  0  0  0  0
    0.1959    1.0613    2.8226 C   0  0  0  0  0  0  0  0  0  0  0  0
    0.2916    0.7171    6.1655 C   0  0  0  0  0  0  0  0  0  0  0  0
    0.5023    0.4594    7.5170 C   0  0  0  0  0  0  0  0  0  0  0  0
   -0.0941    1.3083    8.4294 C   0  0  0  0  0  0  0  0  0  0  0  0
   -0.8765    2.3359    7.9086 C   0  0  0  0  0  0  0  0  0  0  0  0
   -1.2624    6.4616    5.6895 C   0  0  0  0  0  0  0  0  0  0  0  0
   -0.4268    6.8199    6.7467 C   0  0  0  0  0  0  0  0  0  0  0  0
    0.6813    6.0231    6.9541 C   0  0  0  0  0  0  0  0  0  0  0  0
    0.8571    4.9331    6.1057 C   0  0  0  0  0  0  0  0  0  0  0  0
    0.7308    4.9070    2.5215 H   0  0  0  0  0  0  0  0  0  0  0  0
    0.3386    3.6147    1.3766 H   0  0  0  0  0  0  0  0  0  0  0  0
    1.8927    3.5944    2.2322 H   0  0  0  0  0  0  0  0  0  0  0  0
   -1.9354    4.0885    2.8517 H   0  0  0  0  0  0  0  0  0  0  0  0
   -2.4575    2.9869    4.1341 H   0  0  0  0  0  0  0  0  0  0  0  0
   -2.1554    2.3673    2.4982 H   0  0  0  0  0  0  0  0  0  0  0  0
   -0.5183    0.3322    3.2152 H   0  0  0  0  0  0  0  0  0  0  0  0
    1.2077    0.6658    2.9293 H   0  0  0  0  0  0  0  0  0  0  0  0
   -0.0029    1.1978    1.7598 H   0  0  0  0  0  0  0  0  0  0  0  0
    0.7278    0.0942    5.3996 H   0  0  0  0  0  0  0  0  0  0  0  0
    1.1230   -0.3665    7.8265 H   0  0  0  0  0  0  0  0  0  0  0  0
    0.0321    1.1870    9.4940 H   0  0  0  0  0  0  0  0  0  0  0  0
   -1.3871    3.0454    8.5452 H   0  0  0  0  0  0  0  0  0  0  0  0
   -2.1467    7.0320    5.4434 H   0  0  0  0  0  0  0  0  0  0  0  0
   -0.6381    7.6809    7.3622 H   0  0  0  0  0  0  0  0  0  0  0  0
    1.3938    6.2259    7.7391 H   0  0  0  0  0  0  0  0  0  0  0  0
    1.7074    4.2659    6.1922 H   0  0  0  0  0  0  0  0  0  0  0  0
  1  2  1  0  0  0  0
  1  5  1  0  0  0  0
  1  3  1  0  0  0  0
  3 10  1  0  0  0  0
  3  4  1  0  0  0  0
  4 13  1  0  0  0  0
  5 17  1  0  0  0  0
  6  5  1  0  0  0  0
  6 14  1  0  0  0  0
  7 18  1  0  0  0  0
  7  1  1  0  0  0  0
  8  1  1  0  0  0  0
  8 22  1  0  0  0  0
  9 25  1  0  0  0  0
  9 24  1  0  0  0  0
  9  1  1  0  0  0  0
 10 11  2  0  0  0  0
 11 28  1  0  0  0  0
 11 12  1  0  0  0  0
 12 29  1  0  0  0  0
 13 12  2  0  0  0  0
 13 30  1  0  0  0  0
 14 15  2  0  0  0  0
 15 16  1  0  0  0  0
 15 32  1  0  0  0  0
 16 33  1  0  0  0  0
 17 34  1  0  0  0  0
 17 16  2  0  0  0  0
 19  7  1  0  0  0  0
 20  7  1  0  0  0  0
 21  8  1  0  0  0  0
 23  8  1  0  0  0  0
 26  9  1  0  0  0  0
 27 10  1  0  0  0  0
 31 14  1  0  0  0  0
M  END
$$$$
