CSD_code = PILNOQ | q = 0 | S = 0 | Stoichiometry = C20H20AuCl2N5O4 | MND = 4
 OpenBabel04212202083D

 52 56  0  0  1  0  0  0  0  0999 V2000
    6.6688    3.0719    3.7603 C   0  0  0  0  0  0  0  0  0  0  0  0
    5.0814    6.0145    3.2855 C   0  0  2  0  0  3  0  0  0  0  0  0
    6.3727    7.0679    4.5948 C   0  0  0  0  0  0  0  0  0  0  0  0
    7.1201    7.9942    5.3275 C   0  0  0  0  0  0  0  0  0  0  0  0
    7.0544    9.0364    5.0657 H   0  0  0  0  0  0  0  0  0  0  0  0
    7.8938    7.5301    6.3595 C   0  0  0  0  0  0  0  0  0  0  0  0
    8.4797    8.2179    6.9482 H   0  0  0  0  0  0  0  0  0  0  0  0
    7.9237    6.1593    6.6739 C   0  0  0  0  0  0  0  0  0  0  0  0
    8.5197    5.8067    7.4992 H   0  0  0  0  0  0  0  0  0  0  0  0
    7.1924    5.2643    5.9464 C   0  0  0  0  0  0  0  0  0  0  0  0
    7.1602    4.2052    6.1431 H   0  0  0  0  0  0  0  0  0  0  0  0
    6.5636    1.5737    3.5789 C   0  0  2  0  0  0  0  0  0  0  0  0
    7.5482    1.1791    3.8572 H   0  0  0  0  0  0  0  0  0  0  0  0
    6.3618    1.2826    2.0724 C   0  0  1  0  0  0  0  0  0  0  0  0
    6.5713    0.2222    1.9076 H   0  0  0  0  0  0  0  0  0  0  0  0
    4.9447    1.6013    1.6086 C   0  0  0  0  0  0  0  0  0  0  0  0
    4.8360    1.2866    0.5695 H   0  0  0  0  0  0  0  0  0  0  0  0
    4.7728    2.6752    1.6603 H   0  0  0  0  0  0  0  0  0  0  0  0
    3.9053    0.8744    2.4582 C   0  0  2  0  0  0  0  0  0  0  0  0
    2.8954    1.1696    2.1382 H   0  0  0  0  0  0  0  0  0  0  0  0
    4.0782    1.2056    3.9387 C   0  0  1  0  0  0  0  0  0  0  0  0
    3.3733    0.6060    4.5164 H   0  0  0  0  0  0  0  0  0  0  0  0
    5.4851    0.8842    4.4031 C   0  0  0  0  0  0  0  0  0  0  0  0
    5.6239   -0.1968    4.2898 H   0  0  0  0  0  0  0  0  0  0  0  0
    5.6052    1.1258    5.4618 H   0  0  0  0  0  0  0  0  0  0  0  0
    7.3710    2.1073    1.2942 C   0  0  0  0  0  0  0  0  0  0  0  0
    2.9213   -1.2957    2.4791 C   0  0  0  0  0  0  0  0  0  0  0  0
    2.6303   -1.2878    3.5346 H   0  0  0  0  0  0  0  0  0  0  0  0
    3.1771   -2.3124    2.1853 H   0  0  0  0  0  0  0  0  0  0  0  0
    2.0720   -0.9446    1.8817 H   0  0  0  0  0  0  0  0  0  0  0  0
    4.0361    5.7671    2.3129 C   0  0  0  0  0  0  0  0  0  0  0  0
    3.5508    6.8466    1.5739 C   0  0  0  0  0  0  0  0  0  0  0  0
    3.9960    7.8172    1.7151 H   0  0  0  0  0  0  0  0  0  0  0  0
    2.4983    6.6298    0.7034 C   0  0  0  0  0  0  0  0  0  0  0  0
    2.0924    7.4436    0.1213 H   0  0  0  0  0  0  0  0  0  0  0  0
    1.9677    5.3526    0.6028 C   0  0  0  0  0  0  0  0  0  0  0  0
    1.1403    5.1390   -0.0546 H   0  0  0  0  0  0  0  0  0  0  0  0
    2.5199    4.3446    1.3782 C   0  0  0  0  0  0  0  0  0  0  0  0
    2.1356    3.3350    1.3430 H   0  0  0  0  0  0  0  0  0  0  0  0
    7.7309    3.6556    3.6096 O   0  0  0  0  0  0  0  0  0  0  0  0
    8.6070    1.6237    1.4250 O   0  0  0  0  0  0  0  0  0  0  0  0
    9.2480    2.2061    0.9874 H   0  0  0  0  0  0  0  0  0  0  0  0
    7.1135    3.0809    0.6396 O   0  0  0  0  0  0  0  0  0  0  0  0
    4.0681   -0.5198    2.2358 O   0  0  0  0  0  0  0  0  0  0  0  0
    6.4592    5.7367    4.9253 N   0  0  0  0  0  0  0  0  0  0  0  0
    5.6678    5.0811    4.0679 N   0  0  1  0  0  0  0  0  0  0  0  0
    5.5302    3.7389    4.0790 N   0  0  0  0  0  0  0  0  0  0  0  0
    5.5265    7.2239    3.5807 N   0  0  0  0  0  0  0  0  0  0  0  0
    3.5312    4.5376    2.2077 N   0  0  0  0  0  0  0  0  0  0  0  0
    3.5982    3.1519    4.3538 Au  0  0  0  0  0  0  0  0  0  0  0  0
    1.4860    2.4533    4.4811 Cl  0  0  0  0  0  0  0  0  0  0  0  0
    3.1414    5.2927    5.3180 Cl  0  0  0  0  0  0  0  0  0  0  0  0
  1 47  1  0  0  0  0
  2 31  1  1  0  0  0
  2 48  1  0  0  0  0
  2 46  1  0  0  0  0
  3 45  1  0  0  0  0
  3  4  1  0  0  0  0
  4  6  2  0  0  0  0
  5  4  1  0  0  0  0
  6  8  1  0  0  0  0
  6  7  1  0  0  0  0
  8  9  1  0  0  0  0
 10 11  1  0  0  0  0
 10  8  2  0  0  0  0
 12  1  1  0  0  0  0
 12 13  1  1  0  0  0
 12 23  1  0  0  0  0
 14 15  1  6  0  0  0
 14 12  1  0  0  0  0
 16 18  1  0  0  0  0
 16 14  1  0  0  0  0
 16 19  1  0  0  0  0
 17 16  1  0  0  0  0
 19 20  1  6  0  0  0
 19 21  1  0  0  0  0
 21 50  1  0  0  0  0
 21 23  1  0  0  0  0
 21 22  1  1  0  0  0
 23 25  1  0  0  0  0
 24 23  1  0  0  0  0
 26 41  1  0  0  0  0
 26 14  1  0  0  0  0
 27 28  1  0  0  0  0
 29 27  1  0  0  0  0
 30 27  1  0  0  0  0
 32 33  1  0  0  0  0
 32 31  2  0  0  0  0
 34 32  1  0  0  0  0
 35 34  1  0  0  0  0
 36 34  2  0  0  0  0
 36 38  1  0  0  0  0
 37 36  1  0  0  0  0
 38 49  2  0  0  0  0
 39 38  1  0  0  0  0
 40  1  2  0  0  0  0
 42 41  1  0  0  0  0
 43 26  2  0  0  0  0
 44 19  1  0  0  0  0
 44 27  1  0  0  0  0
 45 10  1  0  0  0  0
 46 47  1  1  0  0  0
 46 45  1  0  0  0  0
 47 50  1  0  0  0  0
 48  3  2  0  0  0  0
 49 31  1  0  0  0  0
 50 51  1  0  0  0  0
 50 52  1  0  0  0  0
M  END
$$$$
