CSD_code = PIMMOQ | q = 0 | S = 0 | Stoichiometry = C4H10Cl2FeN2O2 | MND = 6
 OpenBabel04212202083D

 21 18  0  0  0  0  0  0  0  0999 V2000
   -0.0002    3.9147   -0.0000 Fe  0  0  0  0  0  0  0  0  0  0  0  0
   -1.5163    5.4995    0.2506 Cl  0  0  0  0  0  0  0  0  0  0  0  0
    0.7645    4.4695   -2.0973 O   0  0  0  0  0  0  0  0  0  0  0  0
    0.1603    4.3035   -2.8282 H   0  0  0  0  0  0  0  0  0  0  0  0
    1.4129    3.7396   -2.0809 H   0  0  0  0  0  0  0  0  0  0  0  0
    1.2402    4.9951    0.6957 N   0  0  0  0  0  2  0  0  0  0  0  0
    2.0693    5.7328    1.0067 C   0  0  0  0  0  2  0  0  0  0  0  0
    3.0969    6.6531    1.3957 C   0  0  0  0  0  0  0  0  0  0  0  0
    3.0965    6.7735    2.4790 H   0  0  0  0  0  0  0  0  0  0  0  0
    2.9141    7.6205    0.9281 H   0  0  0  0  0  0  0  0  0  0  0  0
    4.0676    6.2741    1.0764 H   0  0  0  0  0  0  0  0  0  0  0  0
    1.5157    2.3299   -0.2505 Cl  0  0  0  0  0  0  0  0  0  0  0  0
   -0.7650    3.3599    2.0973 O   0  0  0  0  0  0  0  0  0  0  0  0
   -0.1608    3.5257    2.8281 H   0  0  0  0  0  0  0  0  0  0  0  0
   -1.4131    4.0899    2.0810 H   0  0  0  0  0  0  0  0  0  0  0  0
   -1.2404    2.8340   -0.6956 N   0  0  0  0  0  2  0  0  0  0  0  0
   -2.0694    2.0961   -1.0063 C   0  0  0  0  0  2  0  0  0  0  0  0
   -3.0964    1.1753   -1.3957 C   0  0  0  0  0  0  0  0  0  0  0  0
   -3.0954    1.0548   -2.4790 H   0  0  0  0  0  0  0  0  0  0  0  0
   -2.9133    0.2080   -0.9279 H   0  0  0  0  0  0  0  0  0  0  0  0
   -4.0675    1.5538   -1.0769 H   0  0  0  0  0  0  0  0  0  0  0  0
  1  2  1  0  0  0  0
  1  6  1  0  0  0  0
  3  5  1  0  0  0  0
  4  3  1  0  0  0  0
  6  7  1  0  0  0  0
  7  8  1  0  0  0  0
  8  9  1  0  0  0  0
 10  8  1  0  0  0  0
 11  8  1  0  0  0  0
 12  1  1  0  0  0  0
 13 14  1  0  0  0  0
 15 13  1  0  0  0  0
 16  1  1  0  0  0  0
 17 16  1  0  0  0  0
 18 21  1  0  0  0  0
 18 17  1  0  0  0  0
 18 20  1  0  0  0  0
 19 18  1  0  0  0  0
M  END
$$$$
