CSD_code = PIMPUZ | q = 0 | S = 0 | Stoichiometry = C25H18BrN4O3ReS2 | MND = 6
 OpenBabel04212202083D

 54 58  0  0  1  0  0  0  0  0999 V2000
    5.9206    4.3914    2.8700 C   0  0  0  0  0  0  0  0  0  0  0  0
    4.9478    4.8020    3.1499 H   0  0  0  0  0  0  0  0  0  0  0  0
    6.0755    3.4842    3.4457 H   0  0  0  0  0  0  0  0  0  0  0  0
    5.9052    4.1285    1.8096 H   0  0  0  0  0  0  0  0  0  0  0  0
    9.1125    7.6742    2.2426 Re  0  0  0  0  0  0  0  0  0  0  0  0
   12.0056    2.3054    6.6278 S   0  0  0  0  0  0  0  0  0  0  0  0
    7.3398    9.2018    1.1958 S   0  0  0  0  0  0  0  0  0  0  0  0
   11.3881    4.4870    7.8847 N   0  0  0  0  0  0  0  0  0  0  0  0
    7.1044    6.5323    2.6079 N   0  0  0  0  0  0  0  0  0  0  0  0
    6.0957    6.9276    1.7833 N   0  0  0  0  0  0  0  0  0  0  0  0
    5.3624    6.2527    1.5831 H   0  0  0  0  0  0  0  0  0  0  0  0
    5.0139    8.2934    0.3081 N   0  0  0  0  0  0  0  0  0  0  0  0
    4.2090    7.7018    0.4725 H   0  0  0  0  0  0  0  0  0  0  0  0
   13.8869    1.9942    8.7033 C   0  0  0  0  0  0  0  0  0  0  0  0
   14.2474    1.0652    8.2900 H   0  0  0  0  0  0  0  0  0  0  0  0
   14.4201    2.5177    9.8642 C   0  0  0  0  0  0  0  0  0  0  0  0
   15.2133    1.9872   10.3690 H   0  0  0  0  0  0  0  0  0  0  0  0
   13.9516    3.7197   10.3952 C   0  0  0  0  0  0  0  0  0  0  0  0
   14.3916    4.1010   11.3043 H   0  0  0  0  0  0  0  0  0  0  0  0
   12.9416    4.4249    9.7795 C   0  0  0  0  0  0  0  0  0  0  0  0
   12.5715    5.3558   10.1779 H   0  0  0  0  0  0  0  0  0  0  0  0
   12.3863    3.9174    8.6061 C   0  0  0  0  0  0  0  0  0  0  0  0
   12.8707    2.6967    8.0779 C   0  0  0  0  0  0  0  0  0  0  0  0
   11.0714    3.8021    6.8467 C   0  0  0  0  0  0  0  0  0  0  0  0
   10.0425    4.1793    5.9067 C   0  0  0  0  0  0  0  0  0  0  0  0
    9.3887    5.4040    6.0669 C   0  0  0  0  0  0  0  0  0  0  0  0
    9.6661    6.0352    6.8954 H   0  0  0  0  0  0  0  0  0  0  0  0
    8.4193    5.7958    5.1709 C   0  0  0  0  0  0  0  0  0  0  0  0
    7.9060    6.7360    5.3065 H   0  0  0  0  0  0  0  0  0  0  0  0
    8.0638    4.9632    4.1052 C   0  0  0  0  0  0  0  0  0  0  0  0
    8.6967    3.7280    3.9624 C   0  0  0  0  0  0  0  0  0  0  0  0
    8.4471    3.0877    3.1296 H   0  0  0  0  0  0  0  0  0  0  0  0
    9.6853    3.3490    4.8439 C   0  0  0  0  0  0  0  0  0  0  0  0
   10.1914    2.4044    4.7097 H   0  0  0  0  0  0  0  0  0  0  0  0
    7.0227    5.3710    3.1581 C   0  0  2  0  0  3  0  0  0  0  0  0
    6.1104    8.0842    1.0675 C   0  0  1  0  0  3  0  0  0  0  0  0
    4.7959    9.3318   -0.6206 C   0  0  0  0  0  0  0  0  0  0  0  0
    3.5083    9.8468   -0.7308 C   0  0  0  0  0  0  0  0  0  0  0  0
    2.7202    9.4636   -0.0974 H   0  0  0  0  0  0  0  0  0  0  0  0
    3.2416   10.8495   -1.6436 C   0  0  0  0  0  0  0  0  0  0  0  0
    2.2418   11.2494   -1.7198 H   0  0  0  0  0  0  0  0  0  0  0  0
    4.2529   11.3382   -2.4538 C   0  0  0  0  0  0  0  0  0  0  0  0
    4.0446   12.1249   -3.1623 H   0  0  0  0  0  0  0  0  0  0  0  0
    5.5279   10.8065   -2.3593 C   0  0  0  0  0  0  0  0  0  0  0  0
    6.3153   11.1693   -3.0017 H   0  0  0  0  0  0  0  0  0  0  0  0
    5.8054    9.8012   -1.4511 C   0  0  0  0  0  0  0  0  0  0  0  0
    6.7941    9.3760   -1.4024 H   0  0  0  0  0  0  0  0  0  0  0  0
   10.5752    8.7311    1.5201 C   0  0  0  0  0  2  0  0  0  0  0  0
   11.3755    9.3556    0.9938 O   0  0  0  0  0  1  0  0  0  0  0  0
   10.3818    6.4019    2.9879 C   0  0  0  0  0  2  0  0  0  0  0  0
   11.1672    5.6547    3.3687 O   0  0  0  0  0  1  0  0  0  0  0  0
    8.9975    8.7338    3.8582 C   0  0  0  0  0  2  0  0  0  0  0  0
    8.9116    9.3732    4.8061 O   0  0  0  0  0  1  0  0  0  0  0  0
    8.9404    6.2654    0.1381 Br  0  0  0  0  0  0  0  0  0  0  0  0
  1  2  1  0  0  0  0
  1  3  1  0  0  0  0
  4  1  1  0  0  0  0
  5  9  1  0  0  0  0
  5 50  1  0  0  0  0
  5 52  1  0  0  0  0
  6 24  1  0  0  0  0
  6 23  1  0  0  0  0
  7  5  1  0  0  0  0
  8 22  1  0  0  0  0
  9 35  1  0  0  0  0
 10  9  1  0  0  0  0
 11 10  1  0  0  0  0
 12 13  1  0  0  0  0
 14 16  1  0  0  0  0
 15 14  1  0  0  0  0
 16 17  1  0  0  0  0
 16 18  2  0  0  0  0
 18 19  1  0  0  0  0
 20 21  1  0  0  0  0
 20 18  1  0  0  0  0
 22 20  2  0  0  0  0
 23 22  1  0  0  0  0
 23 14  2  0  0  0  0
 24  8  2  0  0  0  0
 25 26  1  0  0  0  0
 25 24  1  0  0  0  0
 26 27  1  0  0  0  0
 28 29  1  0  0  0  0
 28 26  2  0  0  0  0
 30 28  1  0  0  0  0
 31 30  2  0  0  0  0
 31 33  1  0  0  0  0
 32 31  1  0  0  0  0
 33 25  2  0  0  0  0
 34 33  1  0  0  0  0
 35  1  1  6  0  0  0
 35 30  1  0  0  0  0
 36 12  1  1  0  0  0
 36  7  1  0  0  0  0
 36 10  1  0  0  0  0
 37 12  1  0  0  0  0
 38 37  1  0  0  0  0
 38 39  1  0  0  0  0
 40 38  2  0  0  0  0
 41 40  1  0  0  0  0
 42 44  2  0  0  0  0
 42 40  1  0  0  0  0
 43 42  1  0  0  0  0
 44 46  1  0  0  0  0
 45 44  1  0  0  0  0
 46 47  1  0  0  0  0
 46 37  2  0  0  0  0
 48  5  1  0  0  0  0
 49 48  1  0  0  0  0
 50 51  1  0  0  0  0
 52 53  1  0  0  0  0
 54  5  1  0  0  0  0
M  END
$$$$
