CSD_code = PIMZEQ | q = 0 | S = 0 | Stoichiometry = C14H30ClNiO6P3 | MND = 4
 OpenBabel04212202083D

 55 56  0  0  0  0  0  0  0  0999 V2000
    6.4729    5.5022    5.1441 Ni  0  0  0  0  0  0  0  0  0  0  0  0
    7.5922    4.6888    6.6827 Cl  0  0  0  0  0  0  0  0  0  0  0  0
    5.2464    6.2667    3.5933 P   0  0  0  0  0  0  0  0  0  0  0  0
    7.1437    3.7567    3.9850 P   0  0  0  0  0  4  0  0  0  0  0  0
    6.0642    7.1805    6.5211 P   0  0  0  0  0  4  0  0  0  0  0  0
    4.4504    4.6182    3.4018 O   0  0  0  0  0  0  0  0  0  0  0  0
    2.4506    3.6638    3.5968 O   0  0  0  0  0  0  0  0  0  0  0  0
    3.7955    6.9096    3.8576 O   0  0  0  0  0  0  0  0  0  0  0  0
    5.9661    7.9386    3.6807 O   0  0  0  0  0  0  0  0  0  0  0  0
    6.8842    9.4769    2.3615 O   0  0  0  0  0  0  0  0  0  0  0  0
    5.5006    6.2616    2.0047 O   0  0  0  0  0  0  0  0  0  0  0  0
    3.1723    4.6277    3.6171 C   0  0  0  0  0  0  0  0  0  0  0  0
    2.6773    6.0446    3.9557 C   0  0  0  0  0  0  0  0  0  0  0  0
    2.1445    6.0245    5.3866 C   0  0  0  0  0  0  0  0  0  0  0  0
    1.6110    6.4717    2.9521 C   0  0  0  0  0  0  0  0  0  0  0  0
    6.3514    8.4115    2.5342 C   0  0  0  0  0  0  0  0  0  0  0  0
    6.0633    7.4128    1.4022 C   0  0  0  0  0  0  0  0  0  0  0  0
    7.3746    7.0565    0.7080 C   0  0  0  0  0  0  0  0  0  0  0  0
    5.0551    8.0310    0.4365 C   0  0  0  0  0  0  0  0  0  0  0  0
    6.9866    3.5490    2.1717 C   0  0  0  0  0  0  0  0  0  0  0  0
    6.2911    2.2652    4.6095 C   0  0  0  0  0  0  0  0  0  0  0  0
    8.9137    3.2990    4.1679 C   0  0  0  0  0  0  0  0  0  0  0  0
    4.7919    8.4914    6.3696 C   0  0  0  0  0  0  0  0  0  0  0  0
    5.8229    6.7644    8.2944 C   0  0  0  0  0  0  0  0  0  0  0  0
    7.5984    8.1768    6.5593 C   0  0  0  0  0  0  0  0  0  0  0  0
    1.7384    6.9975    5.6536 H   0  0  0  0  0  0  0  0  0  0  0  0
    1.3651    5.2712    5.4650 H   0  0  0  0  0  0  0  0  0  0  0  0
    2.9537    5.7676    6.0706 H   0  0  0  0  0  0  0  0  0  0  0  0
    1.2343    7.4605    3.2032 H   0  0  0  0  0  0  0  0  0  0  0  0
    2.0372    6.4980    1.9514 H   0  0  0  0  0  0  0  0  0  0  0  0
    0.7967    5.7525    2.9703 H   0  0  0  0  0  0  0  0  0  0  0  0
    8.0663    6.6239    1.4289 H   0  0  0  0  0  0  0  0  0  0  0  0
    7.1934    6.3418   -0.0914 H   0  0  0  0  0  0  0  0  0  0  0  0
    7.8168    7.9606    0.2986 H   0  0  0  0  0  0  0  0  0  0  0  0
    5.4595    8.9586    0.0407 H   0  0  0  0  0  0  0  0  0  0  0  0
    4.8496    7.3419   -0.3795 H   0  0  0  0  0  0  0  0  0  0  0  0
    4.1270    8.2447    0.9629 H   0  0  0  0  0  0  0  0  0  0  0  0
    5.9644    3.7281    1.8580 H   0  0  0  0  0  0  0  0  0  0  0  0
    7.6415    4.2524    1.6632 H   0  0  0  0  0  0  0  0  0  0  0  0
    7.2802    2.5325    1.9114 H   0  0  0  0  0  0  0  0  0  0  0  0
    5.2306    2.3365    4.3773 H   0  0  0  0  0  0  0  0  0  0  0  0
    6.7154    1.3849    4.1284 H   0  0  0  0  0  0  0  0  0  0  0  0
    6.4226    2.1945    5.6879 H   0  0  0  0  0  0  0  0  0  0  0  0
    9.1121    2.4036    3.5810 H   0  0  0  0  0  0  0  0  0  0  0  0
    9.5412    4.1121    3.8068 H   0  0  0  0  0  0  0  0  0  0  0  0
    9.1474    3.1165    5.2132 H   0  0  0  0  0  0  0  0  0  0  0  0
    4.9678    9.2311    7.1504 H   0  0  0  0  0  0  0  0  0  0  0  0
    4.8523    8.9650    5.3963 H   0  0  0  0  0  0  0  0  0  0  0  0
    3.7998    8.0669    6.4948 H   0  0  0  0  0  0  0  0  0  0  0  0
    5.7660    7.6853    8.8723 H   0  0  0  0  0  0  0  0  0  0  0  0
    4.8957    6.2068    8.4158 H   0  0  0  0  0  0  0  0  0  0  0  0
    6.6463    6.1527    8.6523 H   0  0  0  0  0  0  0  0  0  0  0  0
    8.4472    7.5337    6.7866 H   0  0  0  0  0  0  0  0  0  0  0  0
    7.7427    8.6376    5.5839 H   0  0  0  0  0  0  0  0  0  0  0  0
    7.5081    8.9504    7.3204 H   0  0  0  0  0  0  0  0  0  0  0  0
  1  5  1  0  0  0  0
  1  2  1  0  0  0  0
  3  9  1  0  0  0  0
  3  8  1  0  0  0  0
  3  1  1  0  0  0  0
  4 22  1  0  0  0  0
  4 21  1  0  0  0  0
  4  1  1  0  0  0  0
  5 25  1  0  0  0  0
  5 24  1  0  0  0  0
  6  3  1  0  0  0  0
  6 12  1  0  0  0  0
  7 12  2  0  0  0  0
  8 13  1  0  0  0  0
 10 16  2  0  0  0  0
 11  3  1  0  0  0  0
 12 13  1  0  0  0  0
 13 14  1  0  0  0  0
 14 27  1  0  0  0  0
 14 26  1  0  0  0  0
 14 28  1  0  0  0  0
 15 31  1  0  0  0  0
 15 29  1  0  0  0  0
 15 13  1  0  0  0  0
 16  9  1  0  0  0  0
 17 11  1  0  0  0  0
 17 16  1  0  0  0  0
 18 17  1  0  0  0  0
 18 32  1  0  0  0  0
 19 37  1  0  0  0  0
 19 17  1  0  0  0  0
 20  4  1  0  0  0  0
 21 43  1  0  0  0  0
 22 46  1  0  0  0  0
 23 49  1  0  0  0  0
 23  5  1  0  0  0  0
 23 47  1  0  0  0  0
 24 51  1  0  0  0  0
 24 52  1  0  0  0  0
 24 50  1  0  0  0  0
 25 53  1  0  0  0  0
 25 55  1  0  0  0  0
 30 15  1  0  0  0  0
 33 18  1  0  0  0  0
 34 18  1  0  0  0  0
 35 19  1  0  0  0  0
 36 19  1  0  0  0  0
 38 20  1  0  0  0  0
 39 20  1  0  0  0  0
 40 20  1  0  0  0  0
 41 21  1  0  0  0  0
 42 21  1  0  0  0  0
 44 22  1  0  0  0  0
 45 22  1  0  0  0  0
 48 23  1  0  0  0  0
 54 25  1  0  0  0  0
M  END
$$$$
