CSD_code = PIPPIQ | q = 0 | S = 0 | Stoichiometry = C26H26Cl2S4SiZr | MND = 12
 OpenBabel04212202083D

 60 65  0  0  1  0  0  0  0  0999 V2000
    9.0969    8.6648    3.7792 Zr  0  0  0  0  0  0  0  0  0  0  0  0
   10.3008    6.7238    3.3263 Cl  0  0  0  0  0  0  0  0  0  0  0  0
   11.0243    9.8384    4.3578 Cl  0  0  0  0  0  0  0  0  0  0  0  0
    5.8772    9.4554    3.6536 Si  0  0  0  0  0  0  0  0  0  0  0  0
    7.3459    6.8469    1.1711 S   0  0  0  0  0  0  0  0  0  0  0  0
    8.5746   12.1511    2.9298 S   0  0  0  0  0  0  0  0  0  0  0  0
    6.9667    5.8267    4.5233 S   0  0  0  0  0  0  0  0  0  0  0  0
    8.1998   11.1296    6.2856 S   0  0  0  0  0  0  0  0  0  0  0  0
    5.2686   11.2034    4.1212 C   0  0  0  0  0  0  0  0  0  0  0  0
    4.8022   12.0259    2.9237 C   0  0  0  0  0  0  0  0  0  0  0  0
    4.5529    8.1838    3.1310 C   0  0  0  0  0  0  0  0  0  0  0  0
    3.9682    8.4470    1.7466 C   0  0  0  0  0  0  0  0  0  0  0  0
    8.4651    3.5918    5.2833 C   0  0  0  0  0  0  0  0  0  0  0  0
   10.3463   11.7006    7.9829 C   0  0  0  0  0  0  0  0  0  0  0  0
    9.1030    5.3161   -0.3725 C   0  0  0  0  0  0  0  0  0  0  0  0
   10.9827   13.4317    2.3198 C   0  0  0  0  0  0  0  0  0  0  0  0
    7.2873    9.5407    2.3949 C   0  0  0  0  0  0  0  0  0  0  0  0
    7.8562    8.4318    1.6883 C   0  0  0  0  0  0  0  0  0  0  0  0
    8.8670    6.6117    0.3152 C   0  0  0  0  0  0  0  0  0  0  0  0
    9.7016    7.6764    0.4086 C   0  0  0  0  0  0  0  0  0  0  0  0
    9.1640    8.7329    1.1961 C   0  0  0  0  0  0  0  0  0  0  0  0
    9.4708   10.0575    1.6350 C   0  0  0  0  0  0  0  0  0  0  0  0
   10.4836   11.0518    1.5277 C   0  0  0  0  0  0  0  0  0  0  0  0
   10.1621   12.2024    2.1691 C   0  0  0  0  0  0  0  0  0  0  0  0
    8.3386   10.5141    2.3782 C   0  0  1  0  0  3  0  0  0  0  0  0
    6.9919    8.7475    5.0080 C   0  0  0  0  0  0  0  0  0  0  0  0
    7.4694    7.3994    5.0852 C   0  0  0  0  0  0  0  0  0  0  0  0
    8.2907    5.0627    5.3990 C   0  0  0  0  0  0  0  0  0  0  0  0
    9.0563    5.9477    6.0832 C   0  0  0  0  0  0  0  0  0  0  0  0
    8.6259    7.2943    5.9189 C   0  0  0  0  0  0  0  0  0  0  0  0
    8.9337    8.6176    6.3584 C   0  0  0  0  0  0  0  0  0  0  0  0
    9.8402    9.3180    7.2030 C   0  0  0  0  0  0  0  0  0  0  0  0
    9.5898   10.6493    7.2555 C   0  0  0  0  0  0  0  0  0  0  0  0
    7.9533    9.4798    5.7763 C   0  0  0  0  0  0  0  0  0  0  0  0
    6.0720   11.7450    4.6236 H   0  0  0  0  0  0  0  0  0  0  0  0
    4.4528   11.1225    4.8386 H   0  0  0  0  0  0  0  0  0  0  0  0
    3.9478   11.5589    2.4425 H   0  0  0  0  0  0  0  0  0  0  0  0
    4.5098   13.0244    3.2408 H   0  0  0  0  0  0  0  0  0  0  0  0
    5.5991   12.1212    2.1919 H   0  0  0  0  0  0  0  0  0  0  0  0
    3.7472    8.1802    3.8649 H   0  0  0  0  0  0  0  0  0  0  0  0
    4.9866    7.1827    3.1402 H   0  0  0  0  0  0  0  0  0  0  0  0
    3.2471    7.6751    1.4870 H   0  0  0  0  0  0  0  0  0  0  0  0
    3.4632    9.4078    1.7165 H   0  0  0  0  0  0  0  0  0  0  0  0
    4.7514    8.4471    0.9937 H   0  0  0  0  0  0  0  0  0  0  0  0
    7.5200    3.0757    5.4449 H   0  0  0  0  0  0  0  0  0  0  0  0
    8.8236    3.3357    4.2857 H   0  0  0  0  0  0  0  0  0  0  0  0
    9.1930    3.2442    6.0122 H   0  0  0  0  0  0  0  0  0  0  0  0
   10.8631   12.3481    7.2740 H   0  0  0  0  0  0  0  0  0  0  0  0
    9.6755   12.3197    8.5773 H   0  0  0  0  0  0  0  0  0  0  0  0
   11.0848   11.2433    8.6367 H   0  0  0  0  0  0  0  0  0  0  0  0
    9.2196    4.5186    0.3620 H   0  0  0  0  0  0  0  0  0  0  0  0
    8.2629    5.0601   -1.0167 H   0  0  0  0  0  0  0  0  0  0  0  0
   10.0091    5.3711   -0.9708 H   0  0  0  0  0  0  0  0  0  0  0  0
   11.8630   13.3730    1.6846 H   0  0  0  0  0  0  0  0  0  0  0  0
   10.4070   14.3172    2.0539 H   0  0  0  0  0  0  0  0  0  0  0  0
   11.3080   13.5397    3.3551 H   0  0  0  0  0  0  0  0  0  0  0  0
   10.6739    7.7049   -0.0540 H   0  0  0  0  0  0  0  0  0  0  0  0
   11.4160   10.9080    1.0081 H   0  0  0  0  0  0  0  0  0  0  0  0
    9.9081    5.6559    6.6741 H   0  0  0  0  0  0  0  0  0  0  0  0
   10.6511    8.8496    7.7351 H   0  0  0  0  0  0  0  0  0  0  0  0
  1  3  1  0  0  0  0
  1 26  1  0  0  0  0
  2  1  1  0  0  0  0
  4  9  1  0  0  0  0
  4 26  1  0  0  0  0
  5 18  1  0  0  0  0
  7 27  1  0  0  0  0
  7 28  1  0  0  0  0
  8 33  1  0  0  0  0
  9 35  1  0  0  0  0
  9 36  1  0  0  0  0
 10 38  1  0  0  0  0
 10  9  1  0  0  0  0
 11 41  1  0  0  0  0
 11  4  1  0  0  0  0
 11 40  1  0  0  0  0
 12 11  1  0  0  0  0
 13 28  1  0  0  0  0
 13 45  1  0  0  0  0
 13 47  1  0  0  0  0
 14 49  1  0  0  0  0
 14 50  1  0  0  0  0
 15 19  1  0  0  0  0
 15 51  1  0  0  0  0
 16 56  1  0  0  0  0
 17  4  1  0  0  0  0
 18 17  2  0  0  0  0
 19 20  2  0  0  0  0
 19  5  1  0  0  0  0
 20 21  1  0  0  0  0
 21 22  2  0  0  0  0
 21 18  1  0  0  0  0
 23 22  1  0  0  0  0
 23 24  2  0  0  0  0
 24 16  1  0  0  0  0
 24  6  1  0  0  0  0
 25 22  1  6  0  0  0
 25 17  1  0  0  0  0
 25  6  1  0  0  0  0
 26 27  1  0  0  0  0
 26 34  1  0  0  0  0
 27 30  2  0  0  0  0
 28 29  2  0  0  0  0
 29 59  1  0  0  0  0
 30 29  1  0  0  0  0
 30 31  1  0  0  0  0
 31 32  1  0  0  0  0
 32 33  2  0  0  0  0
 32 60  1  0  0  0  0
 33 14  1  0  0  0  0
 34  8  1  0  0  0  0
 34 31  2  0  0  0  0
 37 10  1  0  0  0  0
 39 10  1  0  0  0  0
 42 12  1  0  0  0  0
 43 12  1  0  0  0  0
 44 12  1  0  0  0  0
 46 13  1  0  0  0  0
 48 14  1  0  0  0  0
 52 15  1  0  0  0  0
 53 15  1  0  0  0  0
 54 16  1  0  0  0  0
 55 16  1  0  0  0  0
 57 20  1  0  0  0  0
 58 23  1  0  0  0  0
M  END
$$$$
