CSD_code = PIQBIC | q = 0 | S = 0 | Stoichiometry = C12H6Cl2N2O2Pt | MND = 4
 OpenBabel04212202083D

 25 28  0  0  0  0  0  0  0  0999 V2000
    1.0365   12.1923    3.4364 Pt  0  0  0  0  0  0  0  0  0  0  0  0
    1.0981   14.3672    3.8964 Cl  0  0  0  0  0  0  0  0  0  0  0  0
    1.0632   12.6514    1.2604 Cl  0  0  0  0  0  0  0  0  0  0  0  0
    0.8435    7.6760    8.0175 O   0  0  0  0  0  0  0  0  0  0  0  0
    0.8476    6.1745    5.7103 O   0  0  0  0  0  0  0  0  0  0  0  0
    1.0073   11.6342    5.3727 N   0  0  0  0  0  0  0  0  0  0  0  0
    1.0230   12.4074    6.4566 C   0  0  0  0  0  0  0  0  0  0  0  0
    1.0582   13.4742    6.2739 H   0  0  0  0  0  0  0  0  0  0  0  0
    0.9954   11.8853    7.7407 C   0  0  0  0  0  0  0  0  0  0  0  0
    1.0096   12.5522    8.5872 H   0  0  0  0  0  0  0  0  0  0  0  0
    0.9492   10.5111    7.9179 C   0  0  0  0  0  0  0  0  0  0  0  0
    0.9254   10.0589    8.8978 H   0  0  0  0  0  0  0  0  0  0  0  0
    0.9326    9.6889    6.7933 C   0  0  0  0  0  0  0  0  0  0  0  0
    0.8807    8.2176    6.9356 C   0  0  0  0  0  0  0  0  0  0  0  0
    0.8743    7.3833    5.6532 C   0  0  0  0  0  0  0  0  0  0  0  0
    0.9024    8.1099    4.3651 C   0  0  0  0  0  0  0  0  0  0  0  0
    0.8862    7.4156    3.1574 C   0  0  0  0  0  0  0  0  0  0  0  0
    0.8502    6.3368    3.1737 H   0  0  0  0  0  0  0  0  0  0  0  0
    0.9164    8.1346    1.9725 C   0  0  0  0  0  0  0  0  0  0  0  0
    0.9050    7.6315    1.0194 H   0  0  0  0  0  0  0  0  0  0  0  0
    0.9622    9.5196    2.0155 C   0  0  0  0  0  0  0  0  0  0  0  0
    0.9879   10.1189    1.1138 H   0  0  0  0  0  0  0  0  0  0  0  0
    0.9768   10.1968    3.1619 N   0  0  0  0  0  0  0  0  0  0  0  0
    0.9473    9.5103    4.3240 C   0  0  0  0  0  0  0  0  0  0  0  0
    0.9635   10.2940    5.5293 C   0  0  0  0  0  0  0  0  0  0  0  0
  1  2  1  0  0  0  0
  1  6  1  0  0  0  0
  3  1  1  0  0  0  0
  6 25  1  0  0  0  0
  6  7  1  0  0  0  0
  7  9  2  0  0  0  0
  8  7  1  0  0  0  0
  9 11  1  0  0  0  0
  9 10  1  0  0  0  0
 11 12  1  0  0  0  0
 13 14  1  0  0  0  0
 13 11  2  0  0  0  0
 14  4  2  0  0  0  0
 15  5  2  0  0  0  0
 15 14  1  0  0  0  0
 16 15  1  0  0  0  0
 17 18  1  0  0  0  0
 17 16  2  0  0  0  0
 19 21  2  0  0  0  0
 19 17  1  0  0  0  0
 20 19  1  0  0  0  0
 21 23  1  0  0  0  0
 22 21  1  0  0  0  0
 23  1  1  0  0  0  0
 23 24  1  0  0  0  0
 24 16  1  0  0  0  0
 24 25  2  0  0  0  0
 25 13  1  0  0  0  0
M  END
$$$$
