CSD_code = PIQREP | q = 0 | S = 0 | Stoichiometry = C30H28Cl2Ti | MND = 12
 OpenBabel04212202083D

 61 67  0  0  1  0  0  0  0  0999 V2000
    1.6744    9.9667   18.3763 Ti  0  0  0  0  0  0  0  0  0  0  0  0
    3.7376   10.7954   18.2945 Cl  0  0  0  0  0  0  0  0  0  0  0  0
    0.7446   11.9625   18.0585 Cl  0  0  0  0  0  0  0  0  0  0  0  0
    2.1847    8.0922   17.0792 C   0  0  2  0  0  0  0  0  0  0  0  0
    2.8850    7.3004   17.3140 H   0  0  0  0  0  0  0  0  0  0  0  0
    2.4561    9.1979   16.2571 C   0  0  0  0  0  0  0  0  0  0  0  0
    3.4087    9.4135   15.7924 H   0  0  0  0  0  0  0  0  0  0  0  0
    1.1168    8.3004   19.9355 C   0  0  0  0  0  0  0  0  0  0  0  0
    2.3733    8.8252   20.3255 C   0  0  0  0  0  0  0  0  0  0  0  0
    3.0950   11.1717   21.2884 C   0  0  0  0  0  0  0  0  0  0  0  0
    0.1042   11.3500   14.3052 C   0  0  0  0  0  0  0  0  0  0  0  0
    0.7928   10.4761   20.5349 C   0  0  0  0  0  0  0  0  0  0  0  0
    0.2975   11.3870   20.8431 H   0  0  0  0  0  0  0  0  0  0  0  0
    0.7883    8.0645   17.3209 C   0  0  0  0  0  0  0  0  0  0  0  0
    1.1972   11.0706   15.1343 C   0  0  0  0  0  0  0  0  0  0  0  0
    2.3075   11.9194   15.0948 C   0  0  0  0  0  0  0  0  0  0  0  0
    3.1364   11.7452   15.7688 H   0  0  0  0  0  0  0  0  0  0  0  0
    2.1695   10.1858   20.7226 C   0  0  0  0  0  0  0  0  0  0  0  0
    1.2448    9.8950   16.0085 C   0  0  0  0  0  0  0  0  0  0  0  0
    0.1508    9.3333   20.0306 C   0  0  1  0  0  0  0  0  0  0  0  0
   -0.9202    9.2119   19.9267 H   0  0  0  0  0  0  0  0  0  0  0  0
    0.7959    6.9024   19.4898 C   0  0  0  0  0  0  0  0  0  0  0  0
    0.1385    6.4135   20.2158 H   0  0  0  0  0  0  0  0  0  0  0  0
    1.7087    6.3089   19.4127 H   0  0  0  0  0  0  0  0  0  0  0  0
    0.1046    6.9891   18.1160 C   0  0  0  0  0  0  0  0  0  0  0  0
    0.1729    6.0289   17.5947 H   0  0  0  0  0  0  0  0  0  0  0  0
   -0.9534    7.2255   18.2439 H   0  0  0  0  0  0  0  0  0  0  0  0
    0.2029    9.1917   16.6942 C   0  0  0  0  0  0  0  0  0  0  0  0
   -1.7270   10.6029   15.8054 C   0  0  0  0  0  0  0  0  0  0  0  0
   -1.4094   11.5375   16.2725 H   0  0  0  0  0  0  0  0  0  0  0  0
   -2.8182   10.6048   15.7609 H   0  0  0  0  0  0  0  0  0  0  0  0
    2.3423   13.0069   14.2452 C   0  0  0  0  0  0  0  0  0  0  0  0
    3.2043   13.6572   14.2406 H   0  0  0  0  0  0  0  0  0  0  0  0
    0.1594   12.4412   13.4511 C   0  0  0  0  0  0  0  0  0  0  0  0
   -0.6869   12.6509   12.8119 H   0  0  0  0  0  0  0  0  0  0  0  0
   -1.2851    9.4279   16.6706 C   0  0  0  0  0  0  0  0  0  0  0  0
   -1.6552    9.5918   17.6898 H   0  0  0  0  0  0  0  0  0  0  0  0
   -1.7618    8.5140   16.2923 H   0  0  0  0  0  0  0  0  0  0  0  0
    1.2697   13.2644   13.4083 C   0  0  0  0  0  0  0  0  0  0  0  0
    1.2912   14.1104   12.7374 H   0  0  0  0  0  0  0  0  0  0  0  0
    4.9558   11.8085   22.6744 C   0  0  0  0  0  0  0  0  0  0  0  0
    5.7786   11.5265   23.3164 H   0  0  0  0  0  0  0  0  0  0  0  0
    4.1635   10.8146   22.1195 C   0  0  0  0  0  0  0  0  0  0  0  0
    2.8730   12.5261   21.0210 C   0  0  0  0  0  0  0  0  0  0  0  0
    2.0841   12.8125   20.3374 H   0  0  0  0  0  0  0  0  0  0  0  0
   -1.1401   10.5177   14.3889 C   0  0  0  0  0  0  0  0  0  0  0  0
   -0.9145    9.4749   14.1495 H   0  0  0  0  0  0  0  0  0  0  0  0
   -1.8646   10.8810   13.6585 H   0  0  0  0  0  0  0  0  0  0  0  0
    4.8245    8.6903   21.0172 C   0  0  0  0  0  0  0  0  0  0  0  0
    5.1810    9.4409   20.3087 H   0  0  0  0  0  0  0  0  0  0  0  0
    5.6215    7.9569   21.1574 H   0  0  0  0  0  0  0  0  0  0  0  0
    4.7164   13.1458   22.4166 C   0  0  0  0  0  0  0  0  0  0  0  0
    5.3470   13.9037   22.8572 H   0  0  0  0  0  0  0  0  0  0  0  0
    3.6766   13.5023   21.5747 C   0  0  0  0  0  0  0  0  0  0  0  0
    3.4953   14.5416   21.3442 H   0  0  0  0  0  0  0  0  0  0  0  0
    4.4904    9.3701   22.3530 C   0  0  0  0  0  0  0  0  0  0  0  0
    3.6425    8.8610   22.8192 H   0  0  0  0  0  0  0  0  0  0  0  0
    5.3400    9.3001   23.0338 H   0  0  0  0  0  0  0  0  0  0  0  0
    3.6128    7.9748   20.4308 C   0  0  0  0  0  0  0  0  0  0  0  0
    3.8867    7.5869   19.4424 H   0  0  0  0  0  0  0  0  0  0  0  0
    3.3726    7.1118   21.0656 H   0  0  0  0  0  0  0  0  0  0  0  0
  1 20  1  0  0  0  0
  2  1  1  0  0  0  0
  3  1  1  0  0  0  0
  4  5  1  1  0  0  0
  4 14  1  0  0  0  0
  4  1  1  0  0  0  0
  6  4  1  0  0  0  0
  7  6  1  0  0  0  0
  8 20  1  0  0  0  0
  8  9  2  0  0  0  0
  9 59  1  0  0  0  0
  9 18  1  0  0  0  0
 10 43  1  0  0  0  0
 11 46  1  0  0  0  0
 11 15  1  0  0  0  0
 12 18  2  0  0  0  0
 12 13  1  0  0  0  0
 14 25  1  0  0  0  0
 15 19  1  0  0  0  0
 16 15  2  0  0  0  0
 16 17  1  0  0  0  0
 18 10  1  0  0  0  0
 19  6  2  0  0  0  0
 19 28  1  0  0  0  0
 20 21  1  6  0  0  0
 20 12  1  0  0  0  0
 22  8  1  0  0  0  0
 22 23  1  0  0  0  0
 24 22  1  0  0  0  0
 25 27  1  0  0  0  0
 25 22  1  0  0  0  0
 26 25  1  0  0  0  0
 28 14  2  0  0  0  0
 29 30  1  0  0  0  0
 29 36  1  0  0  0  0
 31 29  1  0  0  0  0
 32 16  1  0  0  0  0
 33 32  1  0  0  0  0
 34 11  2  0  0  0  0
 35 34  1  0  0  0  0
 36 28  1  0  0  0  0
 36 37  1  0  0  0  0
 38 36  1  0  0  0  0
 39 34  1  0  0  0  0
 39 32  2  0  0  0  0
 40 39  1  0  0  0  0
 41 42  1  0  0  0  0
 43 56  1  0  0  0  0
 43 41  2  0  0  0  0
 44 10  2  0  0  0  0
 44 54  1  0  0  0  0
 45 44  1  0  0  0  0
 46 29  1  0  0  0  0
 47 46  1  0  0  0  0
 48 46  1  0  0  0  0
 49 51  1  0  0  0  0
 49 56  1  0  0  0  0
 50 49  1  0  0  0  0
 52 41  1  0  0  0  0
 52 53  1  0  0  0  0
 54 52  2  0  0  0  0
 55 54  1  0  0  0  0
 56 57  1  0  0  0  0
 56 58  1  0  0  0  0
 59 49  1  0  0  0  0
 59 61  1  0  0  0  0
 60 59  1  0  0  0  0
M  END
$$$$
