CSD_code = PIQSOA | q = 0 | S = 0 | Stoichiometry = C12H17Br2FN2Pt | MND = 4
 OpenBabel04212202083D

 35 36  0  0  0  0  0  0  0  0999 V2000
   12.2874    6.5766    7.4264 Pt  0  0  0  0  0  0  0  0  0  0  0  0
   10.9962    5.1537    8.8752 Br  0  0  0  0  0  0  0  0  0  0  0  0
   14.0152    6.8133    9.0544 Br  0  0  0  0  0  0  0  0  0  0  0  0
    6.9667    9.7208    9.8683 F   0  0  0  0  0  0  0  0  0  0  0  0
   10.8802    6.3647    6.0435 N   0  0  0  0  0  0  0  0  0  0  0  0
   13.4783    7.6725    5.8850 N   0  0  0  0  0  4  0  0  0  0  0  0
    9.6822    8.2592    8.0057 C   0  0  0  0  0  0  0  0  0  0  0  0
   10.7722    8.2739    7.9963 H   0  0  0  0  0  0  0  0  0  0  0  0
    9.0122    9.0112    8.9459 C   0  0  0  0  0  0  0  0  0  0  0  0
    9.5448    9.6056    9.6707 H   0  0  0  0  0  0  0  0  0  0  0  0
    7.6266    8.9859    8.9582 C   0  0  0  0  0  0  0  0  0  0  0  0
    6.9011    8.2357    8.0469 C   0  0  0  0  0  0  0  0  0  0  0  0
    5.8236    8.2409    8.0865 H   0  0  0  0  0  0  0  0  0  0  0  0
    7.5829    7.4919    7.1075 C   0  0  0  0  0  0  0  0  0  0  0  0
    7.0299    6.8961    6.3966 H   0  0  0  0  0  0  0  0  0  0  0  0
    8.9829    7.4791    7.0762 C   0  0  0  0  0  0  0  0  0  0  0  0
    9.6366    6.6714    6.0732 C   0  0  0  0  0  3  0  0  0  0  0  0
    8.9866    6.2936    5.2801 H   0  0  0  0  0  0  0  0  0  0  0  0
   11.4095    5.6229    4.9274 C   0  0  0  0  0  0  0  0  0  0  0  0
   10.6053    5.1347    4.3616 H   0  0  0  0  0  0  0  0  0  0  0  0
   12.0637    4.8388    5.3268 H   0  0  0  0  0  0  0  0  0  0  0  0
   12.2065    6.5506    3.9842 C   0  0  0  0  0  0  0  0  0  0  0  0
   11.5607    6.8619    3.1605 H   0  0  0  0  0  0  0  0  0  0  0  0
   13.0376    5.9929    3.5522 H   0  0  0  0  0  0  0  0  0  0  0  0
   12.7100    7.8392    4.6435 C   0  0  0  0  0  0  0  0  0  0  0  0
   13.3327    8.3691    3.9054 H   0  0  0  0  0  0  0  0  0  0  0  0
   11.8493    8.4783    4.8679 H   0  0  0  0  0  0  0  0  0  0  0  0
   13.8339    9.0056    6.3784 C   0  0  0  0  0  0  0  0  0  0  0  0
   14.4397    9.5442    5.6400 H   0  0  0  0  0  0  0  0  0  0  0  0
   14.4046    8.9175    7.3016 H   0  0  0  0  0  0  0  0  0  0  0  0
   12.9317    9.5847    6.5785 H   0  0  0  0  0  0  0  0  0  0  0  0
   14.7071    6.9181    5.6288 C   0  0  0  0  0  0  0  0  0  0  0  0
   14.4755    5.8916    5.3489 H   0  0  0  0  0  0  0  0  0  0  0  0
   15.3145    6.8963    6.5324 H   0  0  0  0  0  0  0  0  0  0  0  0
   15.2883    7.3850    4.8246 H   0  0  0  0  0  0  0  0  0  0  0  0
  1  2  1  0  0  0  0
  1  3  1  0  0  0  0
  5 17  1  0  0  0  0
  5  1  1  0  0  0  0
  6 28  1  0  0  0  0
  6  1  1  0  0  0  0
  7  9  1  0  0  0  0
  8  7  1  0  0  0  0
  9 11  2  0  0  0  0
  9 10  1  0  0  0  0
 11  4  1  0  0  0  0
 12 13  1  0  0  0  0
 12 11  1  0  0  0  0
 14 12  2  0  0  0  0
 15 14  1  0  0  0  0
 16 14  1  0  0  0  0
 16  7  2  0  0  0  0
 17 16  1  0  0  0  0
 18 17  1  0  0  0  0
 19 21  1  0  0  0  0
 19  5  1  0  0  0  0
 20 19  1  0  0  0  0
 22 25  1  0  0  0  0
 22 19  1  0  0  0  0
 23 22  1  0  0  0  0
 24 22  1  0  0  0  0
 25 27  1  0  0  0  0
 25  6  1  0  0  0  0
 26 25  1  0  0  0  0
 28 31  1  0  0  0  0
 28 30  1  0  0  0  0
 29 28  1  0  0  0  0
 32  6  1  0  0  0  0
 32 34  1  0  0  0  0
 33 32  1  0  0  0  0
 35 32  1  0  0  0  0
M  END
$$$$
