CSD_code = PIQTER | q = 0 | S = 0 | Stoichiometry = C12H16BrFN2Pt | MND = 4
 OpenBabel04212202083D

 33 35  0  0  0  0  0  0  0  0999 V2000
   -2.6017    3.3074   13.1622 Pt  0  0  2  0  0  0  0  0  0  0  0  0
   -3.8117    1.3317   12.7880 Br  0  0  0  0  0  0  0  0  0  0  0  0
    0.2843   -0.5783   15.6553 F   0  0  0  0  0  0  0  0  0  0  0  0
   -1.4654    4.9340   13.5389 N   0  0  0  0  0  0  0  0  0  0  0  0
   -4.1267    4.4981   11.9064 N   0  0  0  0  0  4  0  0  0  0  0  0
   -1.1434    2.4121   14.2060 C   0  0  0  0  0  0  0  0  0  0  0  0
   -0.9846    1.0864   14.5847 C   0  0  0  0  0  0  0  0  0  0  0  0
   -1.7132    0.3261   14.3486 H   0  0  0  0  0  0  0  0  0  0  0  0
    0.1460    0.7130   15.2930 C   0  0  0  0  0  0  0  0  0  0  0  0
    1.1479    1.6043   15.6493 C   0  0  0  0  0  0  0  0  0  0  0  0
    2.0071    1.2547   16.1991 H   0  0  0  0  0  0  0  0  0  0  0  0
    1.0050    2.9248   15.2833 C   0  0  0  0  0  0  0  0  0  0  0  0
    1.7627    3.6495   15.5442 H   0  0  0  0  0  0  0  0  0  0  0  0
   -0.1272    3.3274   14.5726 C   0  0  0  0  0  0  0  0  0  0  0  0
   -0.3721    4.6771   14.1721 C   0  0  0  0  0  0  0  0  0  0  0  0
    0.3374    5.4692   14.4090 H   0  0  0  0  0  0  0  0  0  0  0  0
   -1.7532    6.2976   13.1773 C   0  0  0  0  0  0  0  0  0  0  0  0
   -0.8212    6.8789   13.1435 H   0  0  0  0  0  0  0  0  0  0  0  0
   -2.3907    6.7380   13.9563 H   0  0  0  0  0  0  0  0  0  0  0  0
   -2.4689    6.4006   11.8320 C   0  0  0  0  0  0  0  0  0  0  0  0
   -1.9214    5.8196   11.0880 H   0  0  0  0  0  0  0  0  0  0  0  0
   -2.4508    7.4455   11.5165 H   0  0  0  0  0  0  0  0  0  0  0  0
   -3.9262    5.9516   11.9128 C   0  0  0  0  0  0  0  0  0  0  0  0
   -4.3553    6.3512   12.8370 H   0  0  0  0  0  0  0  0  0  0  0  0
   -4.4848    6.3934   11.0717 H   0  0  0  0  0  0  0  0  0  0  0  0
   -5.5063    4.2422   12.3334 C   0  0  0  0  0  0  0  0  0  0  0  0
   -6.2167    4.8114   11.7202 H   0  0  0  0  0  0  0  0  0  0  0  0
   -5.6308    4.5302   13.3780 H   0  0  0  0  0  0  0  0  0  0  0  0
   -5.7390    3.1840   12.2389 H   0  0  0  0  0  0  0  0  0  0  0  0
   -3.9559    3.9861   10.5430 C   0  0  0  0  0  0  0  0  0  0  0  0
   -4.6107    4.5187    9.8403 H   0  0  0  0  0  0  0  0  0  0  0  0
   -4.2054    2.9268   10.5105 H   0  0  0  0  0  0  0  0  0  0  0  0
   -2.9227    4.1040   10.2144 H   0  0  0  0  0  0  0  0  0  0  0  0
  1  2  1  1  0  0  0
  1  4  1  0  0  0  0
  1  6  2  0  0  0  0
  4 15  1  0  0  0  0
  5 23  1  0  0  0  0
  5 26  1  0  0  0  0
  5  1  1  0  0  0  0
  6 14  1  0  0  0  0
  6  7  1  0  0  0  0
  7  9  2  0  0  0  0
  8  7  1  0  0  0  0
  9 10  1  0  0  0  0
  9  3  1  0  0  0  0
 10 11  1  0  0  0  0
 12 13  1  0  0  0  0
 12 10  2  0  0  0  0
 14 12  1  0  0  0  0
 15 16  1  0  0  0  0
 15 14  2  0  0  0  0
 17  4  1  0  0  0  0
 17 19  1  0  0  0  0
 18 17  1  0  0  0  0
 20 23  1  0  0  0  0
 20 17  1  0  0  0  0
 21 20  1  0  0  0  0
 22 20  1  0  0  0  0
 23 24  1  0  0  0  0
 25 23  1  0  0  0  0
 26 28  1  0  0  0  0
 27 26  1  0  0  0  0
 29 26  1  0  0  0  0
 30  5  1  0  0  0  0
 31 30  1  0  0  0  0
 32 30  1  0  0  0  0
 33 30  1  0  0  0  0
M  END
$$$$
