CSD_code = PIQTAN | q = 0 | S = 0 | Stoichiometry = C13H19Br2FN2Pt | MND = 6
 OpenBabel04212202083D

 38 40  0  0  1  0  0  0  0  0999 V2000
    4.7073    3.2992    8.4558 Pt  0  0  0  0  0  0  0  0  0  0  0  0
    2.6799    1.8564    8.6154 Br  0  0  0  0  0  0  0  0  0  0  0  0
    6.6250    4.8888    8.5221 Br  0  0  0  0  0  0  0  0  0  0  0  0
    1.2594    7.4734    8.7639 F   0  0  0  0  0  0  0  0  0  0  0  0
    5.0562    2.8905   10.6006 N   0  0  2  0  0  0  0  0  0  0  0  0
    6.0680    1.4498    7.8183 N   0  0  0  0  0  4  0  0  0  0  0  0
    3.5710    4.7639    9.2667 C   0  0  0  0  0  0  0  0  0  0  0  0
    2.7413    5.6613    8.6276 C   0  0  0  0  0  0  0  0  0  0  0  0
    2.5867    5.6584    7.5600 H   0  0  0  0  0  0  0  0  0  0  0  0
    2.0648    6.6010    9.3914 C   0  0  0  0  0  0  0  0  0  0  0  0
    2.1876    6.6757   10.7701 C   0  0  0  0  0  0  0  0  0  0  0  0
    1.6438    7.4287   11.3171 H   0  0  0  0  0  0  0  0  0  0  0  0
    3.0033    5.7650   11.4051 C   0  0  0  0  0  0  0  0  0  0  0  0
    3.1108    5.7864   12.4793 H   0  0  0  0  0  0  0  0  0  0  0  0
    3.6928    4.8002   10.6660 C   0  0  0  0  0  0  0  0  0  0  0  0
    4.5085    3.7985   11.3052 C   0  0  0  0  0  3  0  0  0  0  0  0
    4.6198    3.8245   12.3913 H   0  0  0  0  0  0  0  0  0  0  0  0
    5.8281    1.8417   11.1971 C   0  0  0  0  0  0  0  0  0  0  0  0
    5.1460    1.0167   11.4436 H   0  0  0  0  0  0  0  0  0  0  0  0
    6.2954    2.1839   12.1310 H   0  0  0  0  0  0  0  0  0  0  0  0
    6.8970    1.3409   10.2264 C   0  0  0  0  0  0  0  0  0  0  0  0
    7.5395    0.6446   10.7680 H   0  0  0  0  0  0  0  0  0  0  0  0
    7.5146    2.1867    9.9207 H   0  0  0  0  0  0  0  0  0  0  0  0
    6.3108    0.6154    9.0094 C   0  0  0  0  0  0  0  0  0  0  0  0
    6.9940   -0.1991    8.7222 H   0  0  0  0  0  0  0  0  0  0  0  0
    5.3577    0.1592    9.2947 H   0  0  0  0  0  0  0  0  0  0  0  0
    7.3510    1.8408    7.2265 C   0  0  0  0  0  0  0  0  0  0  0  0
    7.9322    0.9527    6.9487 H   0  0  0  0  0  0  0  0  0  0  0  0
    7.9420    2.4389    7.9147 H   0  0  0  0  0  0  0  0  0  0  0  0
    7.1821    2.4380    6.3318 H   0  0  0  0  0  0  0  0  0  0  0  0
    5.3782    0.6048    6.8351 C   0  0  0  0  0  0  0  0  0  0  0  0
    5.2091    1.1595    5.9146 H   0  0  0  0  0  0  0  0  0  0  0  0
    4.4157    0.2734    7.2190 H   0  0  0  0  0  0  0  0  0  0  0  0
    5.9821   -0.2801    6.5986 H   0  0  0  0  0  0  0  0  0  0  0  0
    4.3565    3.8240    6.4851 C   0  0  0  0  0  0  0  0  0  0  0  0
    5.1390    3.4083    5.8477 H   0  0  0  0  0  0  0  0  0  0  0  0
    4.3870    4.9080    6.3679 H   0  0  0  0  0  0  0  0  0  0  0  0
    3.3886    3.4531    6.1466 H   0  0  0  0  0  0  0  0  0  0  0  0
  1  3  1  0  0  0  0
  1  2  1  0  0  0  0
  1  7  1  0  0  0  0
  1  5  1  0  0  0  0
  4 10  1  0  0  0  0
  5 18  1  0  0  0  0
  5 16  1  6  0  0  0
  6  1  1  0  0  0  0
  6 24  1  0  0  0  0
  7 15  1  0  0  0  0
  8  7  2  0  0  0  0
  8 10  1  0  0  0  0
  9  8  1  0  0  0  0
 10 11  2  0  0  0  0
 11 12  1  0  0  0  0
 11 13  1  0  0  0  0
 13 14  1  0  0  0  0
 15 16  1  0  0  0  0
 15 13  2  0  0  0  0
 16 17  1  0  0  0  0
 18 19  1  0  0  0  0
 18 20  1  0  0  0  0
 21 22  1  0  0  0  0
 21 18  1  0  0  0  0
 23 21  1  0  0  0  0
 24 26  1  0  0  0  0
 24 21  1  0  0  0  0
 25 24  1  0  0  0  0
 27  6  1  0  0  0  0
 27 29  1  0  0  0  0
 28 27  1  0  0  0  0
 30 27  1  0  0  0  0
 31 33  1  0  0  0  0
 31  6  1  0  0  0  0
 32 31  1  0  0  0  0
 34 31  1  0  0  0  0
 35  1  1  0  0  0  0
 36 35  1  0  0  0  0
 37 35  1  0  0  0  0
 38 35  1  0  0  0  0
M  END
$$$$
