CSD_code = PITCAY | q = 0 | S = 0 | Stoichiometry = C30H24ClF9NPPt | MND = 4
 OpenBabel04212202083D

 67 71  0  0  0  0  0  0  0  0999 V2000
   11.5314    2.8680    3.3579 Pt  0  0  2  0  0  0  0  0  0  0  0  0
   13.0724    3.7878    2.0180 P   0  0  0  0  0  4  0  0  0  0  0  0
   10.8592    1.6152    1.4317 Cl  0  0  0  0  0  0  0  0  0  0  0  0
   11.8169    4.0227    4.9880 C   0  0  0  0  0  0  0  0  0  0  0  0
   12.5143    5.2215    5.0964 C   0  0  0  0  0  0  0  0  0  0  0  0
   13.1144    5.5780    4.2664 H   0  0  0  0  0  0  0  0  0  0  0  0
   12.4745    5.9772    6.2580 C   0  0  0  0  0  0  0  0  0  0  0  0
   13.0293    6.9024    6.3146 H   0  0  0  0  0  0  0  0  0  0  0  0
   11.7268    5.5520    7.3413 C   0  0  0  0  0  0  0  0  0  0  0  0
   11.6923    6.1412    8.2454 H   0  0  0  0  0  0  0  0  0  0  0  0
   11.0206    4.3642    7.2601 C   0  0  0  0  0  0  0  0  0  0  0  0
   10.4336    4.0222    8.1014 H   0  0  0  0  0  0  0  0  0  0  0  0
   11.0663    3.6110    6.0984 C   0  0  0  0  0  0  0  0  0  0  0  0
   10.3518    2.2925    5.9703 C   0  0  0  0  0  0  0  0  0  0  0  0
    9.4351    2.2587    6.5751 H   0  0  0  0  0  0  0  0  0  0  0  0
   11.0180    1.4980    6.3266 H   0  0  0  0  0  0  0  0  0  0  0  0
   10.0422    2.0353    4.5503 N   0  0  0  0  0  4  0  0  0  0  0  0
    8.8340    2.7702    4.1641 C   0  0  0  0  0  0  0  0  0  0  0  0
    7.9616    2.4000    4.7171 H   0  0  0  0  0  0  0  0  0  0  0  0
    8.6537    2.6343    3.0961 H   0  0  0  0  0  0  0  0  0  0  0  0
    8.9610    3.8336    4.3810 H   0  0  0  0  0  0  0  0  0  0  0  0
    9.8267    0.6045    4.3360 C   0  0  0  0  0  0  0  0  0  0  0  0
   10.7353    0.0525    4.5809 H   0  0  0  0  0  0  0  0  0  0  0  0
    9.5891    0.4243    3.2880 H   0  0  0  0  0  0  0  0  0  0  0  0
    9.0041    0.2381    4.9612 H   0  0  0  0  0  0  0  0  0  0  0  0
   13.2574    3.1074    0.3368 C   0  0  0  0  0  0  0  0  0  0  0  0
   12.7096    3.7114   -0.7875 C   0  0  0  0  0  0  0  0  0  0  0  0
   12.1766    4.6466   -0.6980 H   0  0  0  0  0  0  0  0  0  0  0  0
   12.8311    3.1058   -2.0253 C   0  0  0  0  0  0  0  0  0  0  0  0
   12.4014    3.5660   -2.9021 H   0  0  0  0  0  0  0  0  0  0  0  0
   13.4937    1.8914   -2.1335 C   0  0  0  0  0  0  0  0  0  0  0  0
   14.0400    1.2765   -1.0123 C   0  0  0  0  0  0  0  0  0  0  0  0
   14.5388    0.3242   -1.1082 H   0  0  0  0  0  0  0  0  0  0  0  0
   13.9179    1.8864    0.2187 C   0  0  0  0  0  0  0  0  0  0  0  0
   14.3139    1.4102    1.1056 H   0  0  0  0  0  0  0  0  0  0  0  0
   13.6588    1.2546   -3.4843 C   0  0  0  0  0  0  0  0  0  0  0  0
   14.7878    1.6794   -4.0945 F   0  0  0  0  0  0  0  0  0  0  0  0
   12.6558    1.5401   -4.3259 F   0  0  0  0  0  0  0  0  0  0  0  0
   13.7494   -0.0808   -3.4295 F   0  0  0  0  0  0  0  0  0  0  0  0
   14.8242    3.8408    2.5271 C   0  0  0  0  0  0  0  0  0  0  0  0
   15.1431    3.4914    3.8344 C   0  0  0  0  0  0  0  0  0  0  0  0
   14.3460    3.2031    4.5077 H   0  0  0  0  0  0  0  0  0  0  0  0
   16.4581    3.5104    4.2599 C   0  0  0  0  0  0  0  0  0  0  0  0
   16.7131    3.2407    5.2733 H   0  0  0  0  0  0  0  0  0  0  0  0
   17.4587    3.8722    3.3660 C   0  0  0  0  0  0  0  0  0  0  0  0
   17.1533    4.2042    2.0523 C   0  0  0  0  0  0  0  0  0  0  0  0
   17.9418    4.4692    1.3645 H   0  0  0  0  0  0  0  0  0  0  0  0
   15.8360    4.1808    1.6332 C   0  0  0  0  0  0  0  0  0  0  0  0
   15.5966    4.4118    0.6047 H   0  0  0  0  0  0  0  0  0  0  0  0
   18.8823    3.9194    3.8494 C   0  0  0  0  0  0  0  0  0  0  0  0
   19.7772    3.9206    2.8528 F   0  0  0  0  0  0  0  0  0  0  0  0
   19.1889    2.8797    4.6408 F   0  0  0  0  0  0  0  0  0  0  0  0
   19.1245    5.0276    4.5766 F   0  0  0  0  0  0  0  0  0  0  0  0
   12.5952    5.5183    1.6936 C   0  0  0  0  0  0  0  0  0  0  0  0
   13.4704    6.5680    1.4485 C   0  0  0  0  0  0  0  0  0  0  0  0
   14.5368    6.4012    1.4402 H   0  0  0  0  0  0  0  0  0  0  0  0
   12.9756    7.8429    1.2355 C   0  0  0  0  0  0  0  0  0  0  0  0
   13.6493    8.6649    1.0478 H   0  0  0  0  0  0  0  0  0  0  0  0
   11.6051    8.0624    1.2609 C   0  0  0  0  0  0  0  0  0  0  0  0
   10.7203    7.0197    1.5141 C   0  0  0  0  0  0  0  0  0  0  0  0
    9.6579    7.2082    1.5377 H   0  0  0  0  0  0  0  0  0  0  0  0
   11.2216    5.7524    1.7331 C   0  0  0  0  0  0  0  0  0  0  0  0
   10.5574    4.9170    1.9453 H   0  0  0  0  0  0  0  0  0  0  0  0
   11.0631    9.4512    1.0622 C   0  0  0  0  0  0  0  0  0  0  0  0
    9.9007    9.4588    0.3924 F   0  0  0  0  0  0  0  0  0  0  0  0
   10.8234   10.0668    2.2364 F   0  0  0  0  0  0  0  0  0  0  0  0
   11.9015   10.2476    0.3846 F   0  0  0  0  0  0  0  0  0  0  0  0
  1  3  1  6  0  0  0
  1 17  1  0  0  0  0
  1  4  1  0  0  0  0
  2 40  1  0  0  0  0
  2  1  1  0  0  0  0
  4  5  2  0  0  0  0
  4 13  1  0  0  0  0
  5  7  1  0  0  0  0
  6  5  1  0  0  0  0
  7  8  1  0  0  0  0
  7  9  2  0  0  0  0
  9 10  1  0  0  0  0
 11  9  1  0  0  0  0
 11 12  1  0  0  0  0
 13 11  2  0  0  0  0
 14 13  1  0  0  0  0
 14 16  1  0  0  0  0
 14 15  1  0  0  0  0
 17 14  1  0  0  0  0
 18 21  1  0  0  0  0
 18 17  1  0  0  0  0
 18 19  1  0  0  0  0
 20 18  1  0  0  0  0
 22 17  1  0  0  0  0
 22 23  1  0  0  0  0
 22 25  1  0  0  0  0
 24 22  1  0  0  0  0
 26  2  1  0  0  0  0
 27 28  1  0  0  0  0
 27 26  2  0  0  0  0
 29 27  1  0  0  0  0
 30 29  1  0  0  0  0
 31 29  2  0  0  0  0
 31 32  1  0  0  0  0
 32 34  2  0  0  0  0
 33 32  1  0  0  0  0
 34 26  1  0  0  0  0
 34 35  1  0  0  0  0
 36 39  1  0  0  0  0
 36 31  1  0  0  0  0
 37 36  1  0  0  0  0
 38 36  1  0  0  0  0
 40 41  1  0  0  0  0
 41 43  2  0  0  0  0
 41 42  1  0  0  0  0
 43 44  1  0  0  0  0
 45 50  1  0  0  0  0
 45 43  1  0  0  0  0
 46 45  2  0  0  0  0
 47 46  1  0  0  0  0
 48 46  1  0  0  0  0
 48 40  2  0  0  0  0
 49 48  1  0  0  0  0
 50 53  1  0  0  0  0
 50 52  1  0  0  0  0
 51 50  1  0  0  0  0
 54 62  1  0  0  0  0
 54  2  1  0  0  0  0
 55 54  2  0  0  0  0
 56 55  1  0  0  0  0
 57 59  2  0  0  0  0
 57 55  1  0  0  0  0
 58 57  1  0  0  0  0
 59 60  1  0  0  0  0
 60 61  1  0  0  0  0
 60 62  2  0  0  0  0
 62 63  1  0  0  0  0
 64 59  1  0  0  0  0
 64 66  1  0  0  0  0
 65 64  1  0  0  0  0
 67 64  1  0  0  0  0
M  END
$$$$
