CSD_code = PITSUG | q = -1 | S = 0 | Stoichiometry = C7H3BrNO2PdS2(1-) | MND = 4
 OpenBabel04212202083D

 17 19  0  0  1  0  0  0  0  0999 V2000
   -0.8091    3.8523    2.1777 Pd  0  0  2  0  0  0  0  0  0  0  0  0
   -2.9181    3.6668    3.1510 S   0  0  0  0  0  0  0  0  0  0  0  0
   -0.8091    6.1730    2.1778 Br  0  0  0  0  0  0  0  0  0  0  0  0
   -0.8091    1.8814    2.1778 N   0  0  0  0  0  0  0  0  0  0  0  0
   -4.0062    1.3564    3.6463 O   0  0  0  0  0  0  0  0  0  0  0  0
   -3.0348    1.9481    3.2014 C   0  0  0  0  0  0  0  0  0  0  0  0
    0.2416    1.2013    1.6949 C   0  0  1  0  0  3  0  0  0  0  0  0
    0.2702   -0.1908    1.6819 C   0  0  0  0  0  0  0  0  0  0  0  0
   -0.8091   -0.9006    2.1778 C   0  0  0  0  0  0  0  0  0  0  0  0
    1.1483   -0.6712    1.2785 H   0  0  0  0  0  0  0  0  0  0  0  0
   -0.8091   -1.9807    2.1778 H   0  0  0  0  0  0  0  0  0  0  0  0
    1.3000    3.6668    1.2046 S   0  0  0  0  0  0  0  0  0  0  0  0
   -1.8597    1.2013    2.6607 C   0  0  0  0  0  0  0  0  0  0  0  0
    1.4167    1.9481    1.1543 C   0  0  0  0  0  0  0  0  0  0  0  0
   -1.8884   -0.1908    2.6737 C   0  0  0  0  0  0  0  0  0  0  0  0
    2.3881    1.3564    0.7094 O   0  0  0  0  0  0  0  0  0  0  0  0
   -2.7665   -0.6712    3.0771 H   0  0  0  0  0  0  0  0  0  0  0  0
  1  4  1  0  0  0  0
  1  3  1  6  0  0  0
  1  2  1  0  0  0  0
  2  6  1  0  0  0  0
  4 13  1  0  0  0  0
  6  5  2  0  0  0  0
  7 14  1  6  0  0  0
  7  4  1  0  0  0  0
  8  7  1  0  0  0  0
  8  9  2  0  0  0  0
  9 15  1  0  0  0  0
 10  8  1  0  0  0  0
 11  9  1  0  0  0  0
 12  1  1  0  0  0  0
 13 15  2  0  0  0  0
 13  6  1  0  0  0  0
 14 12  1  0  0  0  0
 15 17  1  0  0  0  0
 16 14  2  0  0  0  0
M  END
$$$$
