CSD_code = PITWEU | q = 0 | S = 0 | Stoichiometry = C12H30Cl2N6P2Pt | MND = 4
 OpenBabel04212202083D

 53 55  0  0  0  0  0  0  0  0999 V2000
    2.1287    0.2708   10.6160 Pt  0  0  0  0  0  0  0  0  0  0  0  0
    3.8755   -0.9563   11.5030 Cl  0  0  0  0  0  0  0  0  0  0  0  0
    0.6893   -1.5144   10.6904 Cl  0  0  0  0  0  0  0  0  0  0  0  0
    3.6021    1.9825   10.9522 P   0  0  0  0  0  4  0  0  0  0  0  0
    0.3726    1.4003    9.6997 P   0  0  0  0  0  4  0  0  0  0  0  0
    3.7319    2.2910   12.6003 N   0  0  0  0  0  0  0  0  0  0  0  0
    5.2859    1.9636   10.6942 N   0  0  0  0  0  0  0  0  0  0  0  0
   -0.6528    2.2660   10.7155 N   0  0  0  0  0  0  0  0  0  0  0  0
   -0.9665    0.7220    8.9446 N   0  0  0  0  0  0  0  0  0  0  0  0
    3.1179    3.5015   10.3324 N   0  0  0  0  0  0  0  0  0  0  0  0
    0.9128    2.4884    8.5613 N   0  0  0  0  0  0  0  0  0  0  0  0
    5.1355    2.3690   13.0093 C   0  0  0  0  0  0  0  0  0  0  0  0
    5.9594    1.6486   11.9468 C   0  0  0  0  0  0  0  0  0  0  0  0
    2.8489    1.5805   13.5107 C   0  0  0  0  0  0  0  0  0  0  0  0
    5.7983    1.2324    9.5500 C   0  0  0  0  0  0  0  0  0  0  0  0
   -1.9063    1.5722   10.9637 C   0  0  0  0  0  0  0  0  0  0  0  0
   -2.0104    0.4525    9.9177 C   0  0  0  0  0  0  0  0  0  0  0  0
   -0.1238    3.0557   11.8019 C   0  0  0  0  0  0  0  0  0  0  0  0
   -0.7651   -0.2959    7.9364 C   0  0  0  0  0  0  0  0  0  0  0  0
    3.0666    3.6775    8.8896 C   0  0  0  0  0  0  0  0  0  0  0  0
    2.2988    2.5606    8.1815 C   0  0  0  0  0  0  0  0  0  0  0  0
    3.6758    4.6802   10.9747 C   0  0  0  0  0  0  0  0  0  0  0  0
    0.0123    3.4639    7.9909 C   0  0  0  0  0  0  0  0  0  0  0  0
    5.2696    1.9155   13.9921 H   0  0  0  0  0  0  0  0  0  0  0  0
    5.4369    3.4211   13.0654 H   0  0  0  0  0  0  0  0  0  0  0  0
    6.9881    2.0181   11.9087 H   0  0  0  0  0  0  0  0  0  0  0  0
    5.9697    0.5676   12.1314 H   0  0  0  0  0  0  0  0  0  0  0  0
    3.3233    0.6876   13.9278 H   0  0  0  0  0  0  0  0  0  0  0  0
    2.5515    2.2430   14.3281 H   0  0  0  0  0  0  0  0  0  0  0  0
    1.9518    1.2621   12.9650 H   0  0  0  0  0  0  0  0  0  0  0  0
    6.8415    1.5120    9.3895 H   0  0  0  0  0  0  0  0  0  0  0  0
    5.7400    0.1491    9.6979 H   0  0  0  0  0  0  0  0  0  0  0  0
    5.2215    1.4990    8.6648 H   0  0  0  0  0  0  0  0  0  0  0  0
   -2.7312    2.2886   10.8659 H   0  0  0  0  0  0  0  0  0  0  0  0
   -1.9384    1.1561   11.9781 H   0  0  0  0  0  0  0  0  0  0  0  0
   -1.8709   -0.5296   10.3853 H   0  0  0  0  0  0  0  0  0  0  0  0
   -2.9807    0.4617    9.4108 H   0  0  0  0  0  0  0  0  0  0  0  0
   -0.1418    2.5160   12.7554 H   0  0  0  0  0  0  0  0  0  0  0  0
    0.9061    3.3257   11.5610 H   0  0  0  0  0  0  0  0  0  0  0  0
   -0.7169    3.9677   11.9137 H   0  0  0  0  0  0  0  0  0  0  0  0
   -1.6394   -0.3321    7.2831 H   0  0  0  0  0  0  0  0  0  0  0  0
    0.1107   -0.0199    7.3476 H   0  0  0  0  0  0  0  0  0  0  0  0
   -0.6014   -1.2848    8.3736 H   0  0  0  0  0  0  0  0  0  0  0  0
    4.0778    3.7459    8.4612 H   0  0  0  0  0  0  0  0  0  0  0  0
    2.5625    4.6308    8.6924 H   0  0  0  0  0  0  0  0  0  0  0  0
    2.3699    2.7195    7.0985 H   0  0  0  0  0  0  0  0  0  0  0  0
    2.7642    1.5937    8.4191 H   0  0  0  0  0  0  0  0  0  0  0  0
    3.0707    5.5488   10.7067 H   0  0  0  0  0  0  0  0  0  0  0  0
    3.6323    4.5454   12.0515 H   0  0  0  0  0  0  0  0  0  0  0  0
    4.7116    4.8696   10.6728 H   0  0  0  0  0  0  0  0  0  0  0  0
    0.0442    3.4235    6.8986 H   0  0  0  0  0  0  0  0  0  0  0  0
   -0.9937    3.2215    8.3256 H   0  0  0  0  0  0  0  0  0  0  0  0
    0.2560    4.4797    8.3126 H   0  0  0  0  0  0  0  0  0  0  0  0
  1  3  1  0  0  0  0
  1  4  1  0  0  0  0
  1  2  1  0  0  0  0
  4  6  1  0  0  0  0
  5  1  1  0  0  0  0
  5  8  1  0  0  0  0
  6 12  1  0  0  0  0
  6 14  1  0  0  0  0
  7  4  1  0  0  0  0
  7 13  1  0  0  0  0
  8 16  1  0  0  0  0
  8 18  1  0  0  0  0
  9  5  1  0  0  0  0
  9 17  1  0  0  0  0
 10  4  1  0  0  0  0
 10 22  1  0  0  0  0
 11  5  1  0  0  0  0
 12 25  1  0  0  0  0
 12 24  1  0  0  0  0
 13 27  1  0  0  0  0
 13 12  1  0  0  0  0
 14 28  1  0  0  0  0
 14 29  1  0  0  0  0
 15 32  1  0  0  0  0
 15  7  1  0  0  0  0
 16 35  1  0  0  0  0
 17 36  1  0  0  0  0
 17 16  1  0  0  0  0
 18 40  1  0  0  0  0
 18 38  1  0  0  0  0
 19 43  1  0  0  0  0
 19  9  1  0  0  0  0
 20 10  1  0  0  0  0
 21 47  1  0  0  0  0
 21 11  1  0  0  0  0
 21 20  1  0  0  0  0
 22 49  1  0  0  0  0
 23 53  1  0  0  0  0
 23 52  1  0  0  0  0
 23 11  1  0  0  0  0
 26 13  1  0  0  0  0
 30 14  1  0  0  0  0
 31 15  1  0  0  0  0
 33 15  1  0  0  0  0
 34 16  1  0  0  0  0
 37 17  1  0  0  0  0
 39 18  1  0  0  0  0
 41 19  1  0  0  0  0
 42 19  1  0  0  0  0
 44 20  1  0  0  0  0
 45 20  1  0  0  0  0
 46 21  1  0  0  0  0
 48 22  1  0  0  0  0
 50 22  1  0  0  0  0
 51 23  1  0  0  0  0
M  END
$$$$
