CSD_code = PIVDEF | q = 1 | S = 0 | Stoichiometry = C18H39FeIN3(1+) | MND = 4
 OpenBabel04212202083D

 62 64  0  0  1  0  0  0  0  0999 V2000
    7.1274   13.6749   17.3163 I   0  0  0  0  0  0  0  0  0  0  0  0
    5.6022   11.9573   16.3852 Fe  0  0  1  0  0  0  0  0  0  0  0  0
    5.5069   10.4969   14.9147 N   0  0  2  0  0  4  0  0  0  0  0  0
    4.1285   10.8052   17.3524 N   0  0  1  0  0  4  0  0  0  0  0  0
    3.8619   12.9154   15.2581 N   0  0  2  0  0  4  0  0  0  0  0  0
    4.5060   10.8820   13.9024 C   0  0  0  0  0  0  0  0  0  0  0  0
    4.8593   10.6506   12.8955 H   0  0  0  0  0  0  0  0  0  0  0  0
    3.6097   10.2807   14.0528 H   0  0  0  0  0  0  0  0  0  0  0  0
    3.9097    9.5699   16.5727 C   0  0  0  0  0  0  0  0  0  0  0  0
    2.9758    9.6586   16.0181 H   0  0  0  0  0  0  0  0  0  0  0  0
    3.7969    8.7033   17.2239 H   0  0  0  0  0  0  0  0  0  0  0  0
    4.9083   15.0698   14.5753 C   0  0  0  0  0  0  0  0  0  0  0  0
    4.8828   15.0496   13.4892 H   0  0  0  0  0  0  0  0  0  0  0  0
    5.8232   14.5983   14.9187 H   0  0  0  0  0  0  0  0  0  0  0  0
    4.9449   16.1122   14.8760 H   0  0  0  0  0  0  0  0  0  0  0  0
    7.0030    9.1634   13.3723 C   0  0  0  0  0  0  0  0  0  0  0  0
    6.3118    9.2453   12.5377 H   0  0  0  0  0  0  0  0  0  0  0  0
    6.8334    8.2125   13.8698 H   0  0  0  0  0  0  0  0  0  0  0  0
    8.0087    9.1459   12.9620 H   0  0  0  0  0  0  0  0  0  0  0  0
    4.4888   10.5172   18.7874 C   0  0  0  0  0  0  0  0  0  0  0  0
    4.1401   12.3698   13.9193 C   0  0  0  0  0  0  0  0  0  0  0  0
    4.9640   12.9403   13.5022 H   0  0  0  0  0  0  0  0  0  0  0  0
    3.2728   12.4917   13.2574 H   0  0  0  0  0  0  0  0  0  0  0  0
    3.4926    9.5819   19.4890 C   0  0  0  0  0  0  0  0  0  0  0  0
    3.5966    8.5430   19.1864 H   0  0  0  0  0  0  0  0  0  0  0  0
    2.4648    9.8940   19.3250 H   0  0  0  0  0  0  0  0  0  0  0  0
    3.6811    9.6196   20.5583 H   0  0  0  0  0  0  0  0  0  0  0  0
    3.6706   14.4055   15.1915 C   0  0  0  0  0  0  0  0  0  0  0  0
    2.4602   14.8305   14.3450 C   0  0  0  0  0  0  0  0  0  0  0  0
    1.5165   14.4507   14.7271 H   0  0  0  0  0  0  0  0  0  0  0  0
    2.5628   14.5238   13.3078 H   0  0  0  0  0  0  0  0  0  0  0  0
    2.4019   15.9150   14.3601 H   0  0  0  0  0  0  0  0  0  0  0  0
    3.4852   14.9366   16.6158 C   0  0  0  0  0  0  0  0  0  0  0  0
    4.2978   14.6060   17.2552 H   0  0  0  0  0  0  0  0  0  0  0  0
    2.5396   14.6292   17.0521 H   0  0  0  0  0  0  0  0  0  0  0  0
    3.4934   16.0221   16.6005 H   0  0  0  0  0  0  0  0  0  0  0  0
    7.2796   11.6391   13.6295 C   0  0  0  0  0  0  0  0  0  0  0  0
    7.1328   12.4972   14.2853 H   0  0  0  0  0  0  0  0  0  0  0  0
    6.7221   11.7877   12.7105 H   0  0  0  0  0  0  0  0  0  0  0  0
    8.3315   11.6035   13.3624 H   0  0  0  0  0  0  0  0  0  0  0  0
    5.0690    9.2821   15.6141 C   0  0  0  0  0  0  0  0  0  0  0  0
    5.9105    8.9014   16.1866 H   0  0  0  0  0  0  0  0  0  0  0  0
    4.7584    8.5020   14.9087 H   0  0  0  0  0  0  0  0  0  0  0  0
    2.6919   12.2371   15.8540 C   0  0  0  0  0  0  0  0  0  0  0  0
    2.3527   11.4425   15.1899 H   0  0  0  0  0  0  0  0  0  0  0  0
    1.8506   12.9247   15.9495 H   0  0  0  0  0  0  0  0  0  0  0  0
    5.8822    9.8817   18.7992 C   0  0  0  0  0  0  0  0  0  0  0  0
    6.6033   10.5360   18.3060 H   0  0  0  0  0  0  0  0  0  0  0  0
    5.8922    8.9055   18.3245 H   0  0  0  0  0  0  0  0  0  0  0  0
    6.2097    9.7441   19.8254 H   0  0  0  0  0  0  0  0  0  0  0  0
    2.9607   11.6962   17.2587 C   0  0  0  0  0  0  0  0  0  0  0  0
    3.1470   12.5497   17.9033 H   0  0  0  0  0  0  0  0  0  0  0  0
    2.0525   11.1899   17.6084 H   0  0  0  0  0  0  0  0  0  0  0  0
    4.5516   11.8117   19.6080 C   0  0  0  0  0  0  0  0  0  0  0  0
    3.5650   12.1436   19.9181 H   0  0  0  0  0  0  0  0  0  0  0  0
    5.0460   12.6111   19.0646 H   0  0  0  0  0  0  0  0  0  0  0  0
    5.1264   11.6295   20.5114 H   0  0  0  0  0  0  0  0  0  0  0  0
    6.8908   10.3415   14.3452 C   0  0  0  0  0  0  0  0  0  0  0  0
    7.8936   10.1264   15.4891 C   0  0  0  0  0  0  0  0  0  0  0  0
    7.8823    9.1103   15.8726 H   0  0  0  0  0  0  0  0  0  0  0  0
    7.7121   10.8208   16.3124 H   0  0  0  0  0  0  0  0  0  0  0  0
    8.8987   10.3137   15.1233 H   0  0  0  0  0  0  0  0  0  0  0  0
  2  1  1  1  0  0  0
  2  4  1  0  0  0  0
  3 58  1  6  0  0  0
  3 41  1  0  0  0  0
  3  2  1  0  0  0  0
  4 20  1  1  0  0  0
  5 28  1  1  0  0  0
  5 44  1  0  0  0  0
  5  2  1  0  0  0  0
  6 21  1  0  0  0  0
  6  8  1  0  0  0  0
  6  3  1  0  0  0  0
  7  6  1  0  0  0  0
  9 11  1  0  0  0  0
  9  4  1  0  0  0  0
 10  9  1  0  0  0  0
 12 15  1  0  0  0  0
 12 14  1  0  0  0  0
 12 28  1  0  0  0  0
 13 12  1  0  0  0  0
 16 18  1  0  0  0  0
 16 58  1  0  0  0  0
 17 16  1  0  0  0  0
 19 16  1  0  0  0  0
 20 47  1  0  0  0  0
 20 24  1  0  0  0  0
 20 54  1  0  0  0  0
 21  5  1  0  0  0  0
 22 21  1  0  0  0  0
 23 21  1  0  0  0  0
 24 27  1  0  0  0  0
 25 24  1  0  0  0  0
 26 24  1  0  0  0  0
 28 33  1  0  0  0  0
 29 32  1  0  0  0  0
 29 30  1  0  0  0  0
 29 28  1  0  0  0  0
 31 29  1  0  0  0  0
 33 35  1  0  0  0  0
 33 34  1  0  0  0  0
 36 33  1  0  0  0  0
 37 38  1  0  0  0  0
 37 58  1  0  0  0  0
 39 37  1  0  0  0  0
 40 37  1  0  0  0  0
 41 42  1  0  0  0  0
 41  9  1  0  0  0  0
 43 41  1  0  0  0  0
 44 46  1  0  0  0  0
 44 51  1  0  0  0  0
 45 44  1  0  0  0  0
 47 50  1  0  0  0  0
 48 47  1  0  0  0  0
 49 47  1  0  0  0  0
 51  4  1  0  0  0  0
 51 53  1  0  0  0  0
 51 52  1  0  0  0  0
 54 55  1  0  0  0  0
 54 57  1  0  0  0  0
 56 54  1  0  0  0  0
 58 59  1  0  0  0  0
 59 60  1  0  0  0  0
 59 61  1  0  0  0  0
 62 59  1  0  0  0  0
M  END
$$$$
