CSD_code = PIVDAB | q = 1 | S = 0 | Stoichiometry = C18H39BrN3Ni(1+) | MND = 4
 OpenBabel04212202083D

 62 64  0  0  1  0  0  0  0  0999 V2000
    2.4766    6.4346    2.0021 Br  0  0  0  0  0  0  0  0  0  0  0  0
    2.0480    8.3203    3.0184 Ni  0  0  1  0  0  0  0  0  0  0  0  0
    1.0208    9.5688    4.1010 N   0  0  2  0  0  4  0  0  0  0  0  0
    3.8513    9.0592    4.2057 N   0  0  2  0  0  4  0  0  0  0  0  0
    2.5306   10.0891    1.7005 N   0  0  2  0  0  4  0  0  0  0  0  0
    5.7023    7.7427    3.2096 C   0  0  0  0  0  0  0  0  0  0  0  0
    5.0002    7.3859    2.4613 H   0  0  0  0  0  0  0  0  0  0  0  0
    6.4102    6.9433    3.4062 H   0  0  0  0  0  0  0  0  0  0  0  0
    6.2658    8.5777    2.8041 H   0  0  0  0  0  0  0  0  0  0  0  0
    5.9842    8.6722    5.5074 C   0  0  0  0  0  0  0  0  0  0  0  0
    6.4016    9.6213    5.1813 H   0  0  0  0  0  0  0  0  0  0  0  0
    6.8057    7.9682    5.6025 H   0  0  0  0  0  0  0  0  0  0  0  0
    5.5505    8.8041    6.4949 H   0  0  0  0  0  0  0  0  0  0  0  0
    3.1522    9.4532    5.4471 C   0  0  0  0  0  0  0  0  0  0  0  0
    3.7805   10.1192    6.0532 H   0  0  0  0  0  0  0  0  0  0  0  0
    2.9630    8.5519    6.0245 H   0  0  0  0  0  0  0  0  0  0  0  0
   -0.1205    8.7293    4.6093 C   0  0  0  0  0  0  0  0  0  0  0  0
    4.3900    6.8076    5.0982 C   0  0  0  0  0  0  0  0  0  0  0  0
    4.1761    6.8944    6.1602 H   0  0  0  0  0  0  0  0  0  0  0  0
    5.1043    5.9990    4.9794 H   0  0  0  0  0  0  0  0  0  0  0  0
    3.4819    6.5208    4.5709 H   0  0  0  0  0  0  0  0  0  0  0  0
    4.3174   10.2658    3.4961 C   0  0  0  0  0  0  0  0  0  0  0  0
    5.4049   10.3447    3.5434 H   0  0  0  0  0  0  0  0  0  0  0  0
    3.9280   11.1507    4.0002 H   0  0  0  0  0  0  0  0  0  0  0  0
    3.9540   10.3101    2.0012 C   0  0  0  0  0  0  0  0  0  0  0  0
    4.2837   11.2871    1.6244 H   0  0  0  0  0  0  0  0  0  0  0  0
    4.5223    9.5333    1.4957 H   0  0  0  0  0  0  0  0  0  0  0  0
    4.9699    8.0983    4.5065 C   0  0  0  0  0  0  0  0  0  0  0  0
   -1.1750    9.5426    5.3639 C   0  0  0  0  0  0  0  0  0  0  0  0
   -0.7710   10.0430    6.2403 H   0  0  0  0  0  0  0  0  0  0  0  0
   -1.9529    8.8648    5.7054 H   0  0  0  0  0  0  0  0  0  0  0  0
   -1.6425   10.2867    4.7245 H   0  0  0  0  0  0  0  0  0  0  0  0
   -0.7958    8.0230    3.4200 C   0  0  0  0  0  0  0  0  0  0  0  0
   -1.4887    8.6687    2.8866 H   0  0  0  0  0  0  0  0  0  0  0  0
   -1.3654    7.1704    3.7798 H   0  0  0  0  0  0  0  0  0  0  0  0
   -0.0480    7.6392    2.7106 H   0  0  0  0  0  0  0  0  0  0  0  0
    0.5633   10.6137    3.1692 C   0  0  0  0  0  0  0  0  0  0  0  0
    0.1035   11.4459    3.7177 H   0  0  0  0  0  0  0  0  0  0  0  0
   -0.1931   10.1854    2.5153 H   0  0  0  0  0  0  0  0  0  0  0  0
    1.6967   11.1624    2.2975 C   0  0  0  0  0  0  0  0  0  0  0  0
    1.2369   11.7775    1.5242 H   0  0  0  0  0  0  0  0  0  0  0  0
    2.3349   11.8288    2.8784 H   0  0  0  0  0  0  0  0  0  0  0  0
    0.4550    7.6355    5.5183 C   0  0  0  0  0  0  0  0  0  0  0  0
    1.2510    7.0900    4.9971 H   0  0  0  0  0  0  0  0  0  0  0  0
   -0.3237    6.9198    5.7674 H   0  0  0  0  0  0  0  0  0  0  0  0
    0.8397    8.0313    6.4537 H   0  0  0  0  0  0  0  0  0  0  0  0
    2.2884    9.9454    0.2202 C   0  0  0  0  0  0  0  0  0  0  0  0
    3.2764    8.9632   -0.4196 C   0  0  0  0  0  0  0  0  0  0  0  0
    4.2487    9.4175   -0.5887 H   0  0  0  0  0  0  0  0  0  0  0  0
    2.8905    8.6578   -1.3878 H   0  0  0  0  0  0  0  0  0  0  0  0
    3.3962    8.0645    0.1767 H   0  0  0  0  0  0  0  0  0  0  0  0
    2.4316   11.2737   -0.5432 C   0  0  0  0  0  0  0  0  0  0  0  0
    1.5960   11.9517   -0.3888 H   0  0  0  0  0  0  0  0  0  0  0  0
    2.4654   11.0522   -1.6060 H   0  0  0  0  0  0  0  0  0  0  0  0
    3.3537   11.7873   -0.2838 H   0  0  0  0  0  0  0  0  0  0  0  0
    1.8270   10.1761    5.1819 C   0  0  0  0  0  0  0  0  0  0  0  0
    1.2647   10.1968    6.1181 H   0  0  0  0  0  0  0  0  0  0  0  0
    2.0248   11.2162    4.9205 H   0  0  0  0  0  0  0  0  0  0  0  0
    0.8720    9.3971    0.0340 C   0  0  0  0  0  0  0  0  0  0  0  0
    0.7529    8.4826    0.6184 H   0  0  0  0  0  0  0  0  0  0  0  0
    0.7046    9.1495   -1.0097 H   0  0  0  0  0  0  0  0  0  0  0  0
    0.1110   10.1162    0.3248 H   0  0  0  0  0  0  0  0  0  0  0  0
  2  1  1  6  0  0  0
  2  3  1  0  0  0  0
  2  4  1  0  0  0  0
  3 17  1  1  0  0  0
  3 56  1  0  0  0  0
  4 28  1  1  0  0  0
  4 14  1  0  0  0  0
  5 47  1  6  0  0  0
  5 25  1  0  0  0  0
  5 40  1  0  0  0  0
  5  2  1  0  0  0  0
  6  8  1  0  0  0  0
  6 28  1  0  0  0  0
  7  6  1  0  0  0  0
  9  6  1  0  0  0  0
 10 12  1  0  0  0  0
 10 13  1  0  0  0  0
 11 10  1  0  0  0  0
 14 16  1  0  0  0  0
 14 15  1  0  0  0  0
 17 29  1  0  0  0  0
 17 43  1  0  0  0  0
 18 19  1  0  0  0  0
 20 18  1  0  0  0  0
 21 18  1  0  0  0  0
 22 23  1  0  0  0  0
 22 24  1  0  0  0  0
 22  4  1  0  0  0  0
 25 22  1  0  0  0  0
 26 25  1  0  0  0  0
 27 25  1  0  0  0  0
 28 18  1  0  0  0  0
 28 10  1  0  0  0  0
 29 31  1  0  0  0  0
 29 30  1  0  0  0  0
 32 29  1  0  0  0  0
 33 35  1  0  0  0  0
 33 17  1  0  0  0  0
 34 33  1  0  0  0  0
 36 33  1  0  0  0  0
 37 38  1  0  0  0  0
 37  3  1  0  0  0  0
 39 37  1  0  0  0  0
 40 42  1  0  0  0  0
 40 37  1  0  0  0  0
 41 40  1  0  0  0  0
 43 45  1  0  0  0  0
 43 46  1  0  0  0  0
 44 43  1  0  0  0  0
 48 51  1  0  0  0  0
 48 47  1  0  0  0  0
 49 48  1  0  0  0  0
 50 48  1  0  0  0  0
 52 53  1  0  0  0  0
 52 55  1  0  0  0  0
 52 47  1  0  0  0  0
 54 52  1  0  0  0  0
 56 14  1  0  0  0  0
 56 57  1  0  0  0  0
 58 56  1  0  0  0  0
 59 47  1  0  0  0  0
 59 62  1  0  0  0  0
 59 60  1  0  0  0  0
 61 59  1  0  0  0  0
M  END
$$$$
