CSD_code = PIVTIY | q = 0 | S = 0 | Stoichiometry = C34H22Cl2Zr | MND = 12
 OpenBabel04212202083D

 59 63  0  0  1  0  0  0  0  0999 V2000
   10.0168    4.6582   14.3463 Zr  0  0  0  0  0  0  0  0  0  0  0  0
   10.2617    6.3461   12.7491 Cl  0  0  0  0  0  0  0  0  0  0  0  0
    7.9160    5.4453   14.9481 Cl  0  0  0  0  0  0  0  0  0  0  0  0
    9.0967    3.4038   12.4447 C   0  0  0  0  0  0  0  0  0  0  0  0
    8.5339    3.8667   11.6413 H   0  0  0  0  0  0  0  0  0  0  0  0
   10.5038    3.1805   12.4444 C   0  0  0  0  0  0  0  0  0  0  0  0
   10.8619    2.4513   13.6116 C   0  0  0  0  0  0  0  0  0  0  0  0
   11.8427    2.0289   13.7951 H   0  0  0  0  0  0  0  0  0  0  0  0
    9.6613    2.1709   14.3302 C   0  0  0  0  0  0  0  0  0  0  0  0
    9.4006    1.4700   15.5264 C   0  0  0  0  0  0  0  0  0  0  0  0
   10.2106    1.0027   16.0728 H   0  0  0  0  0  0  0  0  0  0  0  0
    8.1031    1.3527   15.9582 C   0  0  0  0  0  0  0  0  0  0  0  0
    7.8885    0.8145   16.8696 H   0  0  0  0  0  0  0  0  0  0  0  0
    7.0325    1.8990   15.2273 C   0  0  0  0  0  0  0  0  0  0  0  0
    6.0286    1.7661   15.6001 H   0  0  0  0  0  0  0  0  0  0  0  0
    7.2393    2.5800   14.0552 C   0  0  0  0  0  0  0  0  0  0  0  0
    6.4106    2.9845   13.4906 H   0  0  0  0  0  0  0  0  0  0  0  0
    8.5583    2.7450   13.5867 C   0  0  2  0  0  3  0  0  0  0  0  0
   11.4126    3.6426   11.4683 C   0  0  0  0  0  0  0  0  0  0  0  0
   12.1920    4.0094   10.6202 C   0  0  0  0  0  0  0  0  0  0  0  0
   13.0882    4.5333    9.6632 C   0  0  0  0  0  0  0  0  0  0  0  0
   13.2129    5.9181    9.5376 C   0  0  0  0  0  0  0  0  0  0  0  0
   12.6204    6.5570   10.1756 H   0  0  0  0  0  0  0  0  0  0  0  0
   14.0859    6.4465    8.6077 C   0  0  0  0  0  0  0  0  0  0  0  0
   14.1822    7.5181    8.5104 H   0  0  0  0  0  0  0  0  0  0  0  0
   14.8368    5.6077    7.7988 C   0  0  0  0  0  0  0  0  0  0  0  0
   15.5169    6.0254    7.0711 H   0  0  0  0  0  0  0  0  0  0  0  0
   14.7138    4.2333    7.9216 C   0  0  0  0  0  0  0  0  0  0  0  0
   15.2979    3.5802    7.2895 H   0  0  0  0  0  0  0  0  0  0  0  0
   13.8451    3.6921    8.8494 C   0  0  0  0  0  0  0  0  0  0  0  0
   13.7437    2.6215    8.9503 H   0  0  0  0  0  0  0  0  0  0  0  0
   11.6131    3.9921   16.0275 C   0  0  1  0  0  0  0  0  0  0  0  0
   11.9924    2.9942   16.2124 H   0  0  0  0  0  0  0  0  0  0  0  0
   12.2518    4.9799   15.2087 C   0  0  0  0  0  0  0  0  0  0  0  0
   11.6425    6.2416   15.4441 C   0  0  0  0  0  0  0  0  0  0  0  0
   11.9649    7.1830   15.0168 H   0  0  0  0  0  0  0  0  0  0  0  0
   10.6325    6.0607   16.4238 C   0  0  0  0  0  0  0  0  0  0  0  0
    9.7471    6.9599   17.0501 C   0  0  0  0  0  0  0  0  0  0  0  0
    9.7746    8.0107   16.7953 H   0  0  0  0  0  0  0  0  0  0  0  0
    8.8576    6.4757   17.9740 C   0  0  0  0  0  0  0  0  0  0  0  0
    8.1683    7.1496   18.4594 H   0  0  0  0  0  0  0  0  0  0  0  0
    8.8131    5.1086   18.3073 C   0  0  0  0  0  0  0  0  0  0  0  0
    8.0892    4.7762   19.0359 H   0  0  0  0  0  0  0  0  0  0  0  0
    9.6661    4.2004   17.7344 C   0  0  0  0  0  0  0  0  0  0  0  0
    9.6398    3.1556   18.0163 H   0  0  0  0  0  0  0  0  0  0  0  0
   10.6025    4.6556   16.7817 C   0  0  0  0  0  0  0  0  0  0  0  0
   13.2403    4.7306   14.2345 C   0  0  0  0  0  0  0  0  0  0  0  0
   14.0802    4.5349   13.3852 C   0  0  0  0  0  0  0  0  0  0  0  0
   15.0399    4.3085   12.3781 C   0  0  0  0  0  0  0  0  0  0  0  0
   15.3790    3.0074   12.0031 C   0  0  0  0  0  0  0  0  0  0  0  0
   14.8999    2.1716   12.4916 H   0  0  0  0  0  0  0  0  0  0  0  0
   16.3170    2.7985   11.0119 C   0  0  0  0  0  0  0  0  0  0  0  0
   16.5769    1.7904   10.7234 H   0  0  0  0  0  0  0  0  0  0  0  0
   16.9249    3.8756   10.3868 C   0  0  0  0  0  0  0  0  0  0  0  0
   17.6586    3.7073    9.6128 H   0  0  0  0  0  0  0  0  0  0  0  0
   16.5896    5.1690   10.7540 C   0  0  0  0  0  0  0  0  0  0  0  0
   17.0606    6.0082   10.2641 H   0  0  0  0  0  0  0  0  0  0  0  0
   15.6519    5.3905   11.7423 C   0  0  0  0  0  0  0  0  0  0  0  0
   15.3819    6.3949   12.0319 H   0  0  0  0  0  0  0  0  0  0  0  0
  1  3  1  0  0  0  0
  1 32  1  0  0  0  0
  2  1  1  0  0  0  0
  5  4  1  0  0  0  0
  6  4  2  0  0  0  0
  6  7  1  0  0  0  0
  7  8  1  0  0  0  0
  7  9  2  0  0  0  0
  9 10  1  0  0  0  0
 10 12  2  0  0  0  0
 10 11  1  0  0  0  0
 12 13  1  0  0  0  0
 14 15  1  0  0  0  0
 14 12  1  0  0  0  0
 16 14  2  0  0  0  0
 17 16  1  0  0  0  0
 18  4  1  6  0  0  0
 18 16  1  0  0  0  0
 18  9  1  0  0  0  0
 19  6  1  0  0  0  0
 20 19  3  0  0  0  0
 21 20  1  0  0  0  0
 22 21  1  0  0  0  0
 22 23  1  0  0  0  0
 24 22  2  0  0  0  0
 25 24  1  0  0  0  0
 26 28  2  0  0  0  0
 26 24  1  0  0  0  0
 27 26  1  0  0  0  0
 28 30  1  0  0  0  0
 29 28  1  0  0  0  0
 30 31  1  0  0  0  0
 30 21  2  0  0  0  0
 32 33  1  1  0  0  0
 32 46  1  0  0  0  0
 34 35  2  0  0  0  0
 34 32  1  0  0  0  0
 35 37  1  0  0  0  0
 36 35  1  0  0  0  0
 37 46  2  0  0  0  0
 37 38  1  0  0  0  0
 38 40  2  0  0  0  0
 39 38  1  0  0  0  0
 40 42  1  0  0  0  0
 40 41  1  0  0  0  0
 42 43  1  0  0  0  0
 44 45  1  0  0  0  0
 44 42  2  0  0  0  0
 46 44  1  0  0  0  0
 47 34  1  0  0  0  0
 48 47  3  0  0  0  0
 49 48  1  0  0  0  0
 50 49  1  0  0  0  0
 50 51  1  0  0  0  0
 52 50  2  0  0  0  0
 53 52  1  0  0  0  0
 54 56  2  0  0  0  0
 54 52  1  0  0  0  0
 55 54  1  0  0  0  0
 56 58  1  0  0  0  0
 57 56  1  0  0  0  0
 58 59  1  0  0  0  0
 58 49  2  0  0  0  0
M  END
$$$$
