CSD_code = PIWYEB | q = 0 | S = 0 | Stoichiometry = C31H26Br2N2O2PRe | MND = 6
 OpenBabel04212202083D

 65 70  0  0  1  0  0  0  0  0999 V2000
    3.3718    2.1064    4.7587 Re  0  0  0  0  0  0  0  0  0  0  0  0
    4.5588    3.5830    3.7269 N   0  0  0  0  0  0  0  0  0  0  0  0
    3.2645    3.0423    6.2407 N   0  0  0  0  0  2  0  0  0  0  0  0
    3.4348    1.4590    2.8340 O   0  0  0  0  0  0  0  0  0  0  0  0
    4.0498    1.8265    0.7228 O   0  0  0  0  0  0  0  0  0  0  0  0
    1.2420    2.9289    3.8233 P   0  0  0  0  0  4  0  0  0  0  0  0
    5.5547    0.9964    5.2758 Br  0  0  0  0  0  0  0  0  0  0  0  0
    2.1407    0.1436    5.6099 Br  0  0  0  0  0  0  0  0  0  0  0  0
    0.2810    3.9223    5.0041 C   0  0  0  0  0  0  0  0  0  0  0  0
    0.1221    3.3977    6.2855 C   0  0  0  0  0  0  0  0  0  0  0  0
    0.5491    2.4331    6.5255 H   0  0  0  0  0  0  0  0  0  0  0  0
   -0.5770    4.1091    7.2420 C   0  0  0  0  0  0  0  0  0  0  0  0
   -0.6935    3.7001    8.2339 H   0  0  0  0  0  0  0  0  0  0  0  0
   -1.1210    5.3446    6.9277 C   0  0  0  0  0  0  0  0  0  0  0  0
   -1.6613    5.9044    7.6763 H   0  0  0  0  0  0  0  0  0  0  0  0
   -0.9788    5.8604    5.6500 C   0  0  0  0  0  0  0  0  0  0  0  0
   -1.4131    6.8174    5.4001 H   0  0  0  0  0  0  0  0  0  0  0  0
   -0.2823    5.1530    4.6856 C   0  0  0  0  0  0  0  0  0  0  0  0
   -0.1818    5.5553    3.6869 H   0  0  0  0  0  0  0  0  0  0  0  0
    0.0463    1.7209    3.1872 C   0  0  0  0  0  0  0  0  0  0  0  0
   -1.3191    1.9586    3.3244 C   0  0  0  0  0  0  0  0  0  0  0  0
   -1.6675    2.8490    3.8284 H   0  0  0  0  0  0  0  0  0  0  0  0
   -2.2280    1.0481    2.8189 C   0  0  0  0  0  0  0  0  0  0  0  0
   -3.2862    1.2346    2.9279 H   0  0  0  0  0  0  0  0  0  0  0  0
   -1.7863   -0.1002    2.1816 C   0  0  0  0  0  0  0  0  0  0  0  0
   -2.5012   -0.8108    1.7946 H   0  0  0  0  0  0  0  0  0  0  0  0
   -0.4291   -0.3399    2.0468 C   0  0  0  0  0  0  0  0  0  0  0  0
   -0.0807   -1.2362    1.5568 H   0  0  0  0  0  0  0  0  0  0  0  0
    0.4879    0.5656    2.5472 C   0  0  0  0  0  0  0  0  0  0  0  0
    1.5446    0.3668    2.4413 H   0  0  0  0  0  0  0  0  0  0  0  0
    1.6026    4.0270    2.4277 C   0  0  0  0  0  0  0  0  0  0  0  0
    1.4063    3.6248    1.1116 C   0  0  0  0  0  0  0  0  0  0  0  0
    0.9194    2.6831    0.9009 H   0  0  0  0  0  0  0  0  0  0  0  0
    1.8501    4.4258    0.0736 C   0  0  0  0  0  0  0  0  0  0  0  0
    1.7079    4.1029   -0.9461 H   0  0  0  0  0  0  0  0  0  0  0  0
    2.4894    5.6241    0.3416 C   0  0  0  0  0  0  0  0  0  0  0  0
    2.8436    6.2406   -0.4708 H   0  0  0  0  0  0  0  0  0  0  0  0
    2.6822    6.0330    1.6532 C   0  0  0  0  0  0  0  0  0  0  0  0
    3.1826    6.9673    1.8636 H   0  0  0  0  0  0  0  0  0  0  0  0
    2.2490    5.2350    2.6930 C   0  0  0  0  0  0  0  0  0  0  0  0
    2.4152    5.5327    3.7217 H   0  0  0  0  0  0  0  0  0  0  0  0
    4.0343    2.0926    1.9062 C   0  0  0  0  0  0  0  0  0  0  0  0
    4.7617    3.3228    2.4357 C   0  0  1  0  0  3  0  0  0  0  0  0
    5.5684    4.1062    1.6276 C   0  0  0  0  0  0  0  0  0  0  0  0
    5.6790    3.8272    0.5918 H   0  0  0  0  0  0  0  0  0  0  0  0
    6.2022    5.1985    2.1901 C   0  0  0  0  0  0  0  0  0  0  0  0
    6.8475    5.8285    1.5976 H   0  0  0  0  0  0  0  0  0  0  0  0
    5.9988    5.4590    3.5398 C   0  0  0  0  0  0  0  0  0  0  0  0
    6.4810    6.2919    4.0258 H   0  0  0  0  0  0  0  0  0  0  0  0
    5.1725    4.6292    4.2724 C   0  0  0  0  0  0  0  0  0  0  0  0
    4.9982    4.7891    5.3283 H   0  0  0  0  0  0  0  0  0  0  0  0
    3.1637    3.7159    7.3841 C   0  0  0  0  0  0  0  0  0  0  0  0
    3.4840    3.0657    8.5930 C   0  0  0  0  0  0  0  0  0  0  0  0
    3.8194    2.0410    8.5447 H   0  0  0  0  0  0  0  0  0  0  0  0
    3.3618    3.7373    9.7870 C   0  0  0  0  0  0  0  0  0  0  0  0
    3.6105    3.2283   10.7063 H   0  0  0  0  0  0  0  0  0  0  0  0
    2.9217    5.0585    9.8319 C   0  0  0  0  0  0  0  0  0  0  0  0
    2.6054    5.6998    8.6341 C   0  0  0  0  0  0  0  0  0  0  0  0
    2.2610    6.7236    8.6573 H   0  0  0  0  0  0  0  0  0  0  0  0
    2.7237    5.0534    7.4267 C   0  0  0  0  0  0  0  0  0  0  0  0
    2.4705    5.5496    6.5013 H   0  0  0  0  0  0  0  0  0  0  0  0
    2.7705    5.7781   11.1331 C   0  0  0  0  0  0  0  0  0  0  0  0
    1.7143    5.8633   11.3900 H   0  0  0  0  0  0  0  0  0  0  0  0
    3.1760    6.7857   11.0656 H   0  0  0  0  0  0  0  0  0  0  0  0
    3.2748    5.2458   11.9348 H   0  0  0  0  0  0  0  0  0  0  0  0
  1  7  1  0  0  0  0
  1  8  1  0  0  0  0
  1  3  1  0  0  0  0
  2 50  1  0  0  0  0
  2  1  1  0  0  0  0
  3 52  1  0  0  0  0
  4  1  1  0  0  0  0
  5 42  2  0  0  0  0
  6  1  1  0  0  0  0
  6  9  1  0  0  0  0
  9 10  1  0  0  0  0
 10 11  1  0  0  0  0
 10 12  2  0  0  0  0
 12 13  1  0  0  0  0
 14 12  1  0  0  0  0
 14 15  1  0  0  0  0
 16 14  2  0  0  0  0
 17 16  1  0  0  0  0
 18  9  2  0  0  0  0
 18 16  1  0  0  0  0
 19 18  1  0  0  0  0
 20 21  1  0  0  0  0
 20  6  1  0  0  0  0
 21 22  1  0  0  0  0
 23 24  1  0  0  0  0
 23 21  2  0  0  0  0
 25 23  1  0  0  0  0
 26 25  1  0  0  0  0
 27 25  2  0  0  0  0
 27 29  1  0  0  0  0
 28 27  1  0  0  0  0
 29 20  2  0  0  0  0
 30 29  1  0  0  0  0
 31 40  1  0  0  0  0
 31  6  1  0  0  0  0
 32 31  2  0  0  0  0
 33 32  1  0  0  0  0
 34 36  2  0  0  0  0
 34 32  1  0  0  0  0
 35 34  1  0  0  0  0
 36 38  1  0  0  0  0
 37 36  1  0  0  0  0
 38 39  1  0  0  0  0
 38 40  2  0  0  0  0
 40 41  1  0  0  0  0
 42 43  1  0  0  0  0
 42  4  1  0  0  0  0
 43 44  1  6  0  0  0
 43  2  1  0  0  0  0
 44 46  2  0  0  0  0
 45 44  1  0  0  0  0
 46 48  1  0  0  0  0
 47 46  1  0  0  0  0
 48 49  1  0  0  0  0
 48 50  2  0  0  0  0
 50 51  1  0  0  0  0
 52 60  2  0  0  0  0
 52 53  1  0  0  0  0
 53 55  2  0  0  0  0
 54 53  1  0  0  0  0
 55 57  1  0  0  0  0
 55 56  1  0  0  0  0
 57 62  1  0  0  0  0
 58 59  1  0  0  0  0
 58 57  2  0  0  0  0
 60 58  1  0  0  0  0
 61 60  1  0  0  0  0
 62 63  1  0  0  0  0
 62 65  1  0  0  0  0
 64 62  1  0  0  0  0
M  END
$$$$
