CSD_code = PIXFOS | q = 0 | S = 0 | Stoichiometry = C11H18AuBr4P | MND = 2
 OpenBabel04212202083D

 35 35  0  0  1  0  0  0  0  0999 V2000
    2.5792    9.7651    3.6502 Au  0  0  0  0  0  0  0  0  0  0  0  0
    3.4169   11.0943    1.8798 Br  0  0  0  0  0  0  0  0  0  0  0  0
   -0.2553    7.9114    2.4706 Br  0  0  0  0  0  0  0  0  0  0  0  0
    1.4860    3.8759    3.8570 Br  0  0  0  0  0  0  0  0  0  0  0  0
   -2.5688    5.9695    4.5030 Br  0  0  0  0  0  0  0  0  0  0  0  0
    1.8827    8.5125    5.3878 P   0  0  0  0  0  4  0  0  0  0  0  0
    0.8468    9.4114    6.6270 C   0  0  0  0  0  0  0  0  0  0  0  0
    0.5148    8.7177    7.4080 H   0  0  0  0  0  0  0  0  0  0  0  0
   -0.3629    9.9752    5.8839 C   0  0  0  0  0  0  0  0  0  0  0  0
   -0.9876   10.5518    6.5626 H   0  0  0  0  0  0  0  0  0  0  0  0
   -0.9720    9.1820    5.4519 H   0  0  0  0  0  0  0  0  0  0  0  0
   -0.0397   10.6338    5.0771 H   0  0  0  0  0  0  0  0  0  0  0  0
    1.6893   10.5284    7.2362 C   0  0  0  0  0  0  0  0  0  0  0  0
    2.1131   11.1542    6.4495 H   0  0  0  0  0  0  0  0  0  0  0  0
    2.5045   10.1318    7.8393 H   0  0  0  0  0  0  0  0  0  0  0  0
    1.0713   11.1592    7.8719 H   0  0  0  0  0  0  0  0  0  0  0  0
    3.2774    7.7101    6.3140 C   0  0  0  0  0  0  0  0  0  0  0  0
    3.9052    8.5555    6.6294 H   0  0  0  0  0  0  0  0  0  0  0  0
    2.8562    6.9016    7.5343 C   0  0  0  0  0  0  0  0  0  0  0  0
    2.2209    6.0666    7.2443 H   0  0  0  0  0  0  0  0  0  0  0  0
    2.3277    7.5144    8.2613 H   0  0  0  0  0  0  0  0  0  0  0  0
    3.7425    6.4953    8.0176 H   0  0  0  0  0  0  0  0  0  0  0  0
    4.0694    6.8584    5.3231 C   0  0  0  0  0  0  0  0  0  0  0  0
    5.0066    6.5353    5.7705 H   0  0  0  0  0  0  0  0  0  0  0  0
    4.3044    7.4277    4.4222 H   0  0  0  0  0  0  0  0  0  0  0  0
    3.5087    5.9683    5.0403 H   0  0  0  0  0  0  0  0  0  0  0  0
    0.8463    7.0914    4.9552 C   0  0  0  0  0  0  0  0  0  0  0  0
    0.8172    6.6170    3.5327 C   0  0  1  0  0  0  0  0  0  0  0  0
    1.7881    6.5854    3.0378 H   0  0  0  0  0  0  0  0  0  0  0  0
    0.1130    5.2707    3.6161 C   0  0  2  0  0  0  0  0  0  0  0  0
   -0.4522    4.9972    2.7266 H   0  0  0  0  0  0  0  0  0  0  0  0
   -0.7099    5.3487    4.8964 C   0  0  1  0  0  0  0  0  0  0  0  0
   -0.8422    4.3917    5.3995 H   0  0  0  0  0  0  0  0  0  0  0  0
   -0.0142    6.3898    5.6992 C   0  0  0  0  0  0  0  0  0  0  0  0
   -0.2566    6.5497    6.7344 H   0  0  0  0  0  0  0  0  0  0  0  0
  1  6  1  0  0  0  0
  2  1  1  0  0  0  0
  3 28  1  0  0  0  0
  5 32  1  0  0  0  0
  6 17  1  0  0  0  0
  6  7  1  0  0  0  0
  7 13  1  0  0  0  0
  7  8  1  0  0  0  0
  9 10  1  0  0  0  0
  9  7  1  0  0  0  0
 11  9  1  0  0  0  0
 12  9  1  0  0  0  0
 13 15  1  0  0  0  0
 13 16  1  0  0  0  0
 14 13  1  0  0  0  0
 17 18  1  0  0  0  0
 17 19  1  0  0  0  0
 19 22  1  0  0  0  0
 19 21  1  0  0  0  0
 20 19  1  0  0  0  0
 23 24  1  0  0  0  0
 23 17  1  0  0  0  0
 25 23  1  0  0  0  0
 26 23  1  0  0  0  0
 27  6  1  0  0  0  0
 27 34  2  0  0  0  0
 28 29  1  6  0  0  0
 28 30  1  0  0  0  0
 28 27  1  0  0  0  0
 30 31  1  6  0  0  0
 30  4  1  0  0  0  0
 30 32  1  0  0  0  0
 32 33  1  1  0  0  0
 32 34  1  0  0  0  0
 34 35  1  0  0  0  0
M  END
$$$$
