CSD_code = PIXKEP | q = 0 | S = 0 | Stoichiometry = C34H23ClN2OPdS2 | MND = 4
 OpenBabel04212202083D

 64 71  0  0  0  0  0  0  0  0999 V2000
   -1.3663   45.5865    1.9673 C   0  0  0  0  0  0  0  0  0  0  0  0
   -0.3845   45.7106    0.9947 C   0  0  0  0  0  0  0  0  0  0  0  0
    0.4808   45.0659    1.0257 H   0  0  0  0  0  0  0  0  0  0  0  0
   -0.5272   46.6579   -0.0027 C   0  0  0  0  0  0  0  0  0  0  0  0
    0.2371   46.7558   -0.7589 H   0  0  0  0  0  0  0  0  0  0  0  0
   -1.6413   47.4804   -0.0276 C   0  0  0  0  0  0  0  0  0  0  0  0
   -1.7485   48.2234   -0.8033 H   0  0  0  0  0  0  0  0  0  0  0  0
   -2.6217   47.3446    0.9419 C   0  0  0  0  0  0  0  0  0  0  0  0
   -3.4970   47.9766    0.9211 H   0  0  0  0  0  0  0  0  0  0  0  0
   -2.4950   46.3928    1.9367 C   0  0  0  0  0  0  0  0  0  0  0  0
   -3.2649   46.2807    2.6860 H   0  0  0  0  0  0  0  0  0  0  0  0
   -3.6486   38.4560    9.6464 Pd  0  0  1  0  0  0  0  0  0  0  0  0
   -2.2783   39.3002   11.6015 S   0  0  1  0  0  3  0  0  0  0  0  0
   -3.8743   36.3234   10.2155 Cl  0  0  0  0  0  0  0  0  0  0  0  0
   -1.1716   44.3159    3.1960 S   0  0  0  0  0  0  0  0  0  0  0  0
   -3.6112   40.3902    9.1753 N   0  0  0  0  0  0  0  0  0  0  0  0
   -3.7270   40.9548    3.7913 O   0  0  0  0  0  0  0  0  0  0  0  0
   -3.5704   41.3145   10.1925 C   0  0  0  0  0  0  0  0  0  0  0  0
   -3.9196   39.4597    7.0762 C   0  0  0  0  0  0  0  0  0  0  0  0
   -3.2493   41.8361    7.2396 C   0  0  0  0  0  0  0  0  0  0  0  0
   -2.8683   42.6493    7.8378 H   0  0  0  0  0  0  0  0  0  0  0  0
   -3.5974   40.6218    7.8764 C   0  0  0  0  0  0  0  0  0  0  0  0
   -1.1947   39.2973   10.1627 C   0  0  0  0  0  0  0  0  0  0  0  0
   -4.1743   42.5747   10.1199 C   0  0  0  0  0  0  0  0  0  0  0  0
   -4.6883   42.8545    9.2129 H   0  0  0  0  0  0  0  0  0  0  0  0
   -2.9622   43.0310    5.1401 N   0  0  0  0  0  0  0  0  0  0  0  0
   -2.9038   42.8135    4.1407 H   0  0  0  0  0  0  0  0  0  0  0  0
   -3.0023   40.9299   11.4245 C   0  0  0  0  0  0  0  0  0  0  0  0
   -4.0075   39.5439    5.6783 C   0  0  0  0  0  0  0  0  0  0  0  0
   -4.6232   37.2208    5.6129 C   0  0  0  0  0  0  0  0  0  0  0  0
   -4.9091   36.3459    5.0475 H   0  0  0  0  0  0  0  0  0  0  0  0
   -3.6987   40.8013    5.0057 C   0  0  0  0  0  0  0  0  0  0  0  0
   -4.4970   37.1291    6.9961 C   0  0  0  0  0  0  0  0  0  0  0  0
   -4.6721   36.1807    7.4863 H   0  0  0  0  0  0  0  0  0  0  0  0
   -4.3701   38.4093    4.9538 C   0  0  0  0  0  0  0  0  0  0  0  0
   -4.4415   38.4821    3.8789 H   0  0  0  0  0  0  0  0  0  0  0  0
   -2.6796   44.3340    5.4912 C   0  0  0  0  0  0  0  0  0  0  0  0
   -4.1902   43.4155   11.2160 C   0  0  0  0  0  0  0  0  0  0  0  0
   -4.6742   44.3774   11.1382 H   0  0  0  0  0  0  0  0  0  0  0  0
   -3.6065   43.0286   12.4117 C   0  0  0  0  0  0  0  0  0  0  0  0
   -3.6207   43.6887   13.2646 H   0  0  0  0  0  0  0  0  0  0  0  0
   -3.2999   41.9462    5.8759 C   0  0  0  0  0  0  0  0  0  0  0  0
   -3.0163   41.7792   12.5144 C   0  0  0  0  0  0  0  0  0  0  0  0
   -2.5738   41.4503   13.4422 H   0  0  0  0  0  0  0  0  0  0  0  0
   -3.2249   44.9582    6.6141 C   0  0  0  0  0  0  0  0  0  0  0  0
   -3.9152   44.4155    7.2386 H   0  0  0  0  0  0  0  0  0  0  0  0
   -0.6097   40.4706    9.7089 C   0  0  0  0  0  0  0  0  0  0  0  0
   -0.7544   41.3967   10.2476 H   0  0  0  0  0  0  0  0  0  0  0  0
   -4.1577   38.2465    7.7470 C   0  0  0  0  0  0  0  0  0  0  0  0
   -1.8661   45.0959    4.6355 C   0  0  0  0  0  0  0  0  0  0  0  0
   -0.9615   38.0861    9.4997 C   0  0  0  0  0  0  0  0  0  0  0  0
   -1.3159   37.1465    9.9224 H   0  0  0  0  0  0  0  0  0  0  0  0
   -2.9336   46.2777    6.8990 C   0  0  0  0  0  0  0  0  0  0  0  0
   -3.3679   46.7417    7.7714 H   0  0  0  0  0  0  0  0  0  0  0  0
    0.1415   40.4543    8.5435 C   0  0  0  0  0  0  0  0  0  0  0  0
    0.5763   41.3744    8.1827 H   0  0  0  0  0  0  0  0  0  0  0  0
   -0.2001   38.0884    8.3419 C   0  0  0  0  0  0  0  0  0  0  0  0
   -0.0248   37.1584    7.8230 H   0  0  0  0  0  0  0  0  0  0  0  0
   -1.5705   46.4159    4.9355 C   0  0  0  0  0  0  0  0  0  0  0  0
   -0.9283   46.9787    4.2745 H   0  0  0  0  0  0  0  0  0  0  0  0
    0.3305   39.2732    7.8497 C   0  0  0  0  0  0  0  0  0  0  0  0
    0.9024   39.2700    6.9348 H   0  0  0  0  0  0  0  0  0  0  0  0
   -2.0983   47.0077    6.0677 C   0  0  0  0  0  0  0  0  0  0  0  0
   -1.8618   48.0350    6.2960 H   0  0  0  0  0  0  0  0  0  0  0  0
  1 15  1  0  0  0  0
  2  3  1  0  0  0  0
  2  1  2  0  0  0  0
  4  2  1  0  0  0  0
  5  4  1  0  0  0  0
  6  4  2  0  0  0  0
  6  8  1  0  0  0  0
  7  6  1  0  0  0  0
  8 10  2  0  0  0  0
  9  8  1  0  0  0  0
 10  1  1  0  0  0  0
 10 11  1  0  0  0  0
 12 14  1  1  0  0  0
 12 13  1  0  0  0  0
 13 23  1  6  0  0  0
 15 50  1  0  0  0  0
 16 12  1  0  0  0  0
 16 18  1  0  0  0  0
 17 32  2  0  0  0  0
 18 28  1  0  0  0  0
 19 49  1  0  0  0  0
 19 22  2  0  0  0  0
 20 21  1  0  0  0  0
 20 22  1  0  0  0  0
 22 16  1  0  0  0  0
 24 18  2  0  0  0  0
 24 38  1  0  0  0  0
 25 24  1  0  0  0  0
 26 37  1  0  0  0  0
 26 42  1  0  0  0  0
 27 26  1  0  0  0  0
 28 13  1  0  0  0  0
 28 43  2  0  0  0  0
 29 19  1  0  0  0  0
 30 33  2  0  0  0  0
 31 30  1  0  0  0  0
 32 29  1  0  0  0  0
 32 42  1  0  0  0  0
 33 34  1  0  0  0  0
 33 49  1  0  0  0  0
 35 30  1  0  0  0  0
 35 29  2  0  0  0  0
 36 35  1  0  0  0  0
 37 45  1  0  0  0  0
 38 40  2  0  0  0  0
 39 38  1  0  0  0  0
 40 43  1  0  0  0  0
 40 41  1  0  0  0  0
 42 20  2  0  0  0  0
 43 44  1  0  0  0  0
 45 53  2  0  0  0  0
 45 46  1  0  0  0  0
 47 23  1  0  0  0  0
 47 48  1  0  0  0  0
 49 12  2  0  0  0  0
 50 59  1  0  0  0  0
 50 37  2  0  0  0  0
 51 52  1  0  0  0  0
 51 23  2  0  0  0  0
 53 54  1  0  0  0  0
 55 47  2  0  0  0  0
 56 55  1  0  0  0  0
 57 51  1  0  0  0  0
 58 57  1  0  0  0  0
 59 63  2  0  0  0  0
 60 59  1  0  0  0  0
 61 57  2  0  0  0  0
 61 55  1  0  0  0  0
 62 61  1  0  0  0  0
 63 64  1  0  0  0  0
 63 53  1  0  0  0  0
M  END
$$$$
