CSD_code = PIXROE | q = 0 | S = 0 | Stoichiometry = C29H22ClNP2PdS2 | MND = 4
 OpenBabel04212202083D

 58 64  0  0  0  0  0  0  0  0999 V2000
    0.0216    6.2527   17.3497 Pd  0  0  0  0  0  0  0  0  0  0  0  0
    0.3150    4.0454   17.8834 Cl  0  0  0  0  0  0  0  0  0  0  0  0
    1.1416    6.0502   15.2046 S   0  0  0  0  0  0  0  0  0  0  0  0
   -0.8493    6.8427   19.5413 S   0  0  0  0  0  0  0  0  0  0  0  0
   -0.6792    6.6564   14.7095 P   0  0  0  0  0  4  0  0  0  0  0  0
    0.3117    8.4013   19.1594 P   0  0  0  0  0  4  0  0  0  0  0  0
   -1.2327   10.5773   15.9628 N   0  0  0  0  0  0  0  0  0  0  0  0
   -0.9247    8.2732   15.5059 C   0  0  0  0  0  0  0  0  0  0  0  0
   -0.4250    8.0803   16.7938 C   0  0  0  0  0  0  0  0  0  0  0  0
   -0.3416    9.1775   17.6517 C   0  0  0  0  0  0  0  0  0  0  0  0
   -0.7517   10.4173   17.1879 C   0  0  0  0  0  0  0  0  0  0  0  0
   -1.3228    9.5499   15.1326 C   0  0  0  0  0  0  0  0  0  0  0  0
   -1.9094    5.4781   15.3778 C   0  0  0  0  0  0  0  0  0  0  0  0
   -2.6603    5.7509   16.5282 C   0  0  0  0  0  0  0  0  0  0  0  0
   -3.3391    4.7131   17.1465 C   0  0  0  0  0  0  0  0  0  0  0  0
   -3.2726    3.4266   16.6292 C   0  0  0  0  0  0  0  0  0  0  0  0
   -2.5526    3.1697   15.4751 C   0  0  0  0  0  0  0  0  0  0  0  0
   -1.8607    4.1928   14.8503 C   0  0  0  0  0  0  0  0  0  0  0  0
   -0.9366    6.7637   12.9256 C   0  0  0  0  0  0  0  0  0  0  0  0
   -2.2188    7.0246   12.4549 C   0  0  0  0  0  0  0  0  0  0  0  0
   -2.4305    7.1400   11.0943 C   0  0  0  0  0  0  0  0  0  0  0  0
   -1.3681    6.9954   10.2141 C   0  0  0  0  0  0  0  0  0  0  0  0
   -0.0921    6.7352   10.6884 C   0  0  0  0  0  0  0  0  0  0  0  0
    0.1293    6.6202   12.0493 C   0  0  0  0  0  0  0  0  0  0  0  0
    0.4372    9.5528   20.5491 C   0  0  0  0  0  0  0  0  0  0  0  0
   -0.3373    9.3445   21.6825 C   0  0  0  0  0  0  0  0  0  0  0  0
   -0.2618   10.2414   22.7327 C   0  0  0  0  0  0  0  0  0  0  0  0
    0.5812   11.3380   22.6477 C   0  0  0  0  0  0  0  0  0  0  0  0
    1.3541   11.5423   21.5146 C   0  0  0  0  0  0  0  0  0  0  0  0
    1.2856   10.6510   20.4605 C   0  0  0  0  0  0  0  0  0  0  0  0
    1.9827    7.8841   18.5941 C   0  0  0  0  0  0  0  0  0  0  0  0
    2.4021    6.5764   18.8774 C   0  0  0  0  0  0  0  0  0  0  0  0
    3.5460    6.0830   18.2710 C   0  0  0  0  0  0  0  0  0  0  0  0
    4.2716    6.8837   17.3997 C   0  0  0  0  0  0  0  0  0  0  0  0
    3.8727    8.1859   17.1476 C   0  0  0  0  0  0  0  0  0  0  0  0
    2.7242    8.6900   17.7346 C   0  0  0  0  0  0  0  0  0  0  0  0
   -0.6993   11.3130   17.7949 H   0  0  0  0  0  0  0  0  0  0  0  0
   -1.7241    9.7693   14.1507 H   0  0  0  0  0  0  0  0  0  0  0  0
   -2.7553    6.7705   16.9082 H   0  0  0  0  0  0  0  0  0  0  0  0
   -3.9060    4.9090   18.0448 H   0  0  0  0  0  0  0  0  0  0  0  0
   -3.7766    2.6195   17.1387 H   0  0  0  0  0  0  0  0  0  0  0  0
   -2.4997    2.1673   15.0781 H   0  0  0  0  0  0  0  0  0  0  0  0
   -1.2539    4.0028   13.9727 H   0  0  0  0  0  0  0  0  0  0  0  0
   -3.0344    7.1281   13.1591 H   0  0  0  0  0  0  0  0  0  0  0  0
   -3.4222    7.3412   10.7172 H   0  0  0  0  0  0  0  0  0  0  0  0
   -1.5377    7.0851    9.1515 H   0  0  0  0  0  0  0  0  0  0  0  0
    0.7297    6.6215    9.9975 H   0  0  0  0  0  0  0  0  0  0  0  0
    1.1138    6.4139   12.4477 H   0  0  0  0  0  0  0  0  0  0  0  0
   -0.9853    8.4797   21.7263 H   0  0  0  0  0  0  0  0  0  0  0  0
   -0.8601   10.0851   23.6176 H   0  0  0  0  0  0  0  0  0  0  0  0
    0.6384   12.0373   23.4684 H   0  0  0  0  0  0  0  0  0  0  0  0
    2.0108   12.3975   21.4544 H   0  0  0  0  0  0  0  0  0  0  0  0
    1.8871   10.7977   19.5747 H   0  0  0  0  0  0  0  0  0  0  0  0
    1.8430    5.9576   19.5789 H   0  0  0  0  0  0  0  0  0  0  0  0
    3.8537    5.0669   18.4668 H   0  0  0  0  0  0  0  0  0  0  0  0
    5.1473    6.4866   16.9091 H   0  0  0  0  0  0  0  0  0  0  0  0
    4.4395    8.8062   16.4690 H   0  0  0  0  0  0  0  0  0  0  0  0
    2.3878    9.6923   17.5006 H   0  0  0  0  0  0  0  0  0  0  0  0
  1  2  1  0  0  0  0
  1  4  1  0  0  0  0
  3  1  1  0  0  0  0
  5  3  1  0  0  0  0
  5 13  1  0  0  0  0
  5  8  1  0  0  0  0
  6  4  1  0  0  0  0
  6 25  1  0  0  0  0
  7 11  1  0  0  0  0
  8  9  2  0  0  0  0
  9  1  1  0  0  0  0
  9 10  1  0  0  0  0
 10  6  1  0  0  0  0
 11 10  2  0  0  0  0
 11 37  1  0  0  0  0
 12  8  1  0  0  0  0
 12  7  2  0  0  0  0
 13 14  1  0  0  0  0
 14 39  1  0  0  0  0
 14 15  2  0  0  0  0
 15 40  1  0  0  0  0
 16 41  1  0  0  0  0
 16 15  1  0  0  0  0
 17 16  2  0  0  0  0
 18 13  2  0  0  0  0
 18 17  1  0  0  0  0
 19  5  1  0  0  0  0
 20 19  1  0  0  0  0
 20 44  1  0  0  0  0
 21 20  2  0  0  0  0
 22 23  2  0  0  0  0
 22 21  1  0  0  0  0
 23 24  1  0  0  0  0
 24 48  1  0  0  0  0
 24 19  2  0  0  0  0
 25 26  1  0  0  0  0
 26 49  1  0  0  0  0
 26 27  2  0  0  0  0
 27 50  1  0  0  0  0
 28 27  1  0  0  0  0
 28 51  1  0  0  0  0
 29 28  2  0  0  0  0
 30 25  2  0  0  0  0
 30 29  1  0  0  0  0
 31 32  1  0  0  0  0
 31  6  1  0  0  0  0
 32 54  1  0  0  0  0
 33 55  1  0  0  0  0
 33 32  2  0  0  0  0
 34 33  1  0  0  0  0
 35 34  2  0  0  0  0
 35 36  1  0  0  0  0
 36 31  2  0  0  0  0
 38 12  1  0  0  0  0
 42 17  1  0  0  0  0
 43 18  1  0  0  0  0
 45 21  1  0  0  0  0
 46 22  1  0  0  0  0
 47 23  1  0  0  0  0
 52 29  1  0  0  0  0
 53 30  1  0  0  0  0
 56 34  1  0  0  0  0
 57 35  1  0  0  0  0
 58 36  1  0  0  0  0
M  END
$$$$
