CSD_code = PIYBAD | q = 0 | S = 0 | Stoichiometry = C16H8BrF5N2OPd | MND = 4
 OpenBabel04212202083D

 34 37  0  0  0  0  0  0  0  0999 V2000
    4.4085    1.4850   14.5464 Pd  0  0  1  0  0  0  0  0  0  0  0  0
    3.5033   -0.3779   13.4133 Br  0  0  0  0  0  0  0  0  0  0  0  0
    4.3668    0.7516   16.5581 N   0  0  0  0  0  0  0  0  0  0  0  0
    4.2796    1.7884   17.4223 C   0  0  0  0  0  0  0  0  0  0  0  0
    4.4811    2.3466   12.7791 C   0  0  0  0  0  0  0  0  0  0  0  0
    4.8333    3.2004   15.5662 N   0  0  0  0  0  0  0  0  0  0  0  0
    4.3777    3.1332   16.8334 C   0  0  0  0  0  0  0  0  0  0  0  0
    4.0781    4.2934   17.5476 C   0  0  0  0  0  0  0  0  0  0  0  0
    4.4141   -0.4965   17.0322 C   0  0  0  0  0  0  0  0  0  0  0  0
    4.2958    5.5297   16.9687 C   0  0  0  0  0  0  0  0  0  0  0  0
    5.0761    4.3930   15.0256 C   0  0  0  0  0  0  0  0  0  0  0  0
    4.5648   -1.5158   16.2153 O   0  0  0  0  0  0  0  0  0  0  0  0
    4.4945   -1.2558   15.2649 H   0  0  0  0  0  0  0  0  0  0  0  0
    6.5063    1.3656   12.1971 F   0  0  0  0  0  0  0  0  0  0  0  0
    4.1952    1.5851   18.7917 C   0  0  0  0  0  0  0  0  0  0  0  0
    2.4757    3.3137   13.4225 F   0  0  0  0  0  0  0  0  0  0  0  0
    4.2093    0.2853   19.2866 C   0  0  0  0  0  0  0  0  0  0  0  0
    2.2865    4.5957   10.9138 F   0  0  0  0  0  0  0  0  0  0  0  0
    4.3314   -0.7645   18.4107 C   0  0  0  0  0  0  0  0  0  0  0  0
    4.8349    5.5811   15.6914 C   0  0  0  0  0  0  0  0  0  0  0  0
    4.2724    4.1919    9.0916 F   0  0  0  0  0  0  0  0  0  0  0  0
    3.4132    3.1599   12.4429 C   0  0  0  0  0  0  0  0  0  0  0  0
    4.3338    3.5871   10.2843 C   0  0  0  0  0  0  0  0  0  0  0  0
    6.3950    2.6009    9.6860 F   0  0  0  0  0  0  0  0  0  0  0  0
    5.4744    2.1592   11.8349 C   0  0  0  0  0  0  0  0  0  0  0  0
    3.3148    3.7934   11.2144 C   0  0  0  0  0  0  0  0  0  0  0  0
    5.4223    2.7703   10.5884 C   0  0  0  0  0  0  0  0  0  0  0  0
    4.3688   -1.7919   18.7302 H   0  0  0  0  0  0  0  0  0  0  0  0
    4.1388    0.1090   20.3485 H   0  0  0  0  0  0  0  0  0  0  0  0
    4.1403    2.4176   19.4715 H   0  0  0  0  0  0  0  0  0  0  0  0
    5.4874    4.3977   14.0233 H   0  0  0  0  0  0  0  0  0  0  0  0
    5.0491    6.5217   15.2114 H   0  0  0  0  0  0  0  0  0  0  0  0
    4.0567    6.4346   17.5051 H   0  0  0  0  0  0  0  0  0  0  0  0
    3.6585    4.2288   18.5377 H   0  0  0  0  0  0  0  0  0  0  0  0
  1  2  1  1  0  0  0
  1  6  1  0  0  0  0
  1  3  1  0  0  0  0
  3  9  1  0  0  0  0
  3  4  1  0  0  0  0
  4 15  1  0  0  0  0
  5  1  1  0  0  0  0
  6  7  1  0  0  0  0
  7  4  2  0  0  0  0
  7  8  1  0  0  0  0
  8 34  1  0  0  0  0
  9 19  2  0  0  0  0
 10 33  1  0  0  0  0
 10  8  2  0  0  0  0
 11  6  1  0  0  0  0
 11 20  2  0  0  0  0
 12  9  1  0  0  0  0
 13 12  1  0  0  0  0
 15 17  2  0  0  0  0
 15 30  1  0  0  0  0
 17 29  1  0  0  0  0
 18 26  1  0  0  0  0
 19 28  1  0  0  0  0
 19 17  1  0  0  0  0
 20 10  1  0  0  0  0
 21 23  1  0  0  0  0
 22  5  1  0  0  0  0
 22 16  1  0  0  0  0
 23 27  2  0  0  0  0
 23 26  1  0  0  0  0
 24 27  1  0  0  0  0
 25 14  1  0  0  0  0
 25  5  2  0  0  0  0
 26 22  2  0  0  0  0
 27 25  1  0  0  0  0
 31 11  1  0  0  0  0
 32 20  1  0  0  0  0
M  END
$$$$
