CSD_code = PIYHOU | q = 0 | S = 0 | Stoichiometry = C24H12ClF15MoN4 | MND = 5
 OpenBabel04212202083D

 57 62  0  0  0  0  0  0  0  0999 V2000
    9.5896    7.9993   15.1042 Mo  0  0  0  0  0  0  0  0  0  0  0  0
    7.7376    6.6605   15.4385 Cl  0  0  0  0  0  0  0  0  0  0  0  0
    8.5589    6.8329   12.6197 F   0  0  0  0  0  0  0  0  0  0  0  0
    6.4315    5.9007   11.2204 F   0  0  0  0  0  0  0  0  0  0  0  0
    4.2018    7.4733   10.8901 F   0  0  0  0  0  0  0  0  0  0  0  0
    4.1566    9.9640   12.0196 F   0  0  0  0  0  0  0  0  0  0  0  0
    6.1973   10.8560   13.4916 F   0  0  0  0  0  0  0  0  0  0  0  0
   12.1162    7.3731   18.8554 F   0  0  0  0  0  0  0  0  0  0  0  0
   10.8524    6.6811   21.1542 F   0  0  0  0  0  0  0  0  0  0  0  0
    8.1667    7.0606   21.4254 F   0  0  0  0  0  0  0  0  0  0  0  0
    6.7571    8.2514   19.4076 F   0  0  0  0  0  0  0  0  0  0  0  0
    8.0646    9.0551   17.1236 F   0  0  0  0  0  0  0  0  0  0  0  0
   10.4738    5.6964   16.4381 F   0  0  0  0  0  0  0  0  0  0  0  0
   10.0528    3.0240   16.6359 F   0  0  0  0  0  0  0  0  0  0  0  0
   10.1897    1.4378   14.3965 F   0  0  0  0  0  0  0  0  0  0  0  0
   10.7451    2.5965   11.9834 F   0  0  0  0  0  0  0  0  0  0  0  0
   11.1091    5.2263   11.7607 F   0  0  0  0  0  0  0  0  0  0  0  0
    8.5086    9.1986   13.9257 N   0  0  0  0  0  0  0  0  0  0  0  0
   10.6218    8.4802   16.6911 N   0  0  0  0  0  0  0  0  0  0  0  0
   10.8907    6.9279   14.0977 N   0  0  0  0  0  0  0  0  0  0  0  0
   11.1316    9.5548   14.3809 N   0  0  0  0  0  4  0  0  0  0  0  0
    7.4561    8.8523   13.1429 C   0  0  0  0  0  0  0  0  0  0  0  0
    7.4365    7.5867   12.5199 C   0  0  0  0  0  0  0  0  0  0  0  0
    6.3697    7.1089   11.7844 C   0  0  0  0  0  0  0  0  0  0  0  0
    5.2418    7.9092   11.6083 C   0  0  0  0  0  0  0  0  0  0  0  0
    5.2243    9.1775   12.1821 C   0  0  0  0  0  0  0  0  0  0  0  0
    6.2984    9.6347   12.9288 C   0  0  0  0  0  0  0  0  0  0  0  0
   10.0888    8.1348   17.8970 C   0  0  0  0  0  0  0  0  0  0  0  0
   10.7941    7.5798   18.9771 C   0  0  0  0  0  0  0  0  0  0  0  0
   10.1536    7.2194   20.1537 C   0  0  0  0  0  0  0  0  0  0  0  0
    8.7807    7.4127   20.2941 C   0  0  0  0  0  0  0  0  0  0  0  0
    8.0579    8.0053   19.2583 C   0  0  0  0  0  0  0  0  0  0  0  0
    8.7150    8.3623   18.0948 C   0  0  0  0  0  0  0  0  0  0  0  0
   10.7778    5.5708   14.1027 C   0  0  0  0  0  0  0  0  0  0  0  0
   10.5071    4.9236   15.3223 C   0  0  0  0  0  0  0  0  0  0  0  0
   10.3004    3.5634   15.4411 C   0  0  0  0  0  0  0  0  0  0  0  0
   10.3755    2.7572   14.3061 C   0  0  0  0  0  0  0  0  0  0  0  0
   10.6601    3.3507   13.0810 C   0  0  0  0  0  0  0  0  0  0  0  0
   10.8592    4.7213   12.9823 C   0  0  0  0  0  0  0  0  0  0  0  0
    8.9497   10.5714   13.9802 C   0  0  0  0  0  0  0  0  0  0  0  0
   10.4150   10.5142   13.5349 C   0  0  0  0  0  0  0  0  0  0  0  0
   11.8837    9.1863   16.6561 C   0  0  0  0  0  0  0  0  0  0  0  0
   11.7059   10.2260   15.5524 C   0  0  0  0  0  0  0  0  0  0  0  0
   11.6303    7.5716   13.0304 C   0  0  0  0  0  0  0  0  0  0  0  0
   12.1888    8.8589   13.6286 C   0  0  0  0  0  0  0  0  0  0  0  0
    8.3959   11.2300   13.3074 H   0  0  0  0  0  0  0  0  0  0  0  0
    8.8611   10.9571   15.0037 H   0  0  0  0  0  0  0  0  0  0  0  0
   10.8868   11.5030   13.5625 H   0  0  0  0  0  0  0  0  0  0  0  0
   10.4261   10.1465   12.5057 H   0  0  0  0  0  0  0  0  0  0  0  0
   12.6488   10.7290   15.3044 H   0  0  0  0  0  0  0  0  0  0  0  0
   10.9875   10.9700   15.9044 H   0  0  0  0  0  0  0  0  0  0  0  0
   12.0988    9.6808   17.6100 H   0  0  0  0  0  0  0  0  0  0  0  0
   12.7118    8.4953   16.4370 H   0  0  0  0  0  0  0  0  0  0  0  0
   12.6142    9.5071   12.8544 H   0  0  0  0  0  0  0  0  0  0  0  0
   12.9849    8.5826   14.3241 H   0  0  0  0  0  0  0  0  0  0  0  0
   12.4577    6.9506   12.6744 H   0  0  0  0  0  0  0  0  0  0  0  0
   10.9657    7.7825   12.1826 H   0  0  0  0  0  0  0  0  0  0  0  0
  1  2  1  0  0  0  0
  1 19  1  0  0  0  0
  4 24  1  0  0  0  0
  5 25  1  0  0  0  0
  6 26  1  0  0  0  0
  8 29  1  0  0  0  0
 12 33  1  0  0  0  0
 16 38  1  0  0  0  0
 17 39  1  0  0  0  0
 18 40  1  0  0  0  0
 18  1  1  0  0  0  0
 19 28  1  0  0  0  0
 20 34  1  0  0  0  0
 20  1  1  0  0  0  0
 21  1  1  0  0  0  0
 21 43  1  0  0  0  0
 22 18  1  0  0  0  0
 23  3  1  0  0  0  0
 23 22  2  0  0  0  0
 24 23  1  0  0  0  0
 25 24  2  0  0  0  0
 25 26  1  0  0  0  0
 26 27  2  0  0  0  0
 27 22  1  0  0  0  0
 27  7  1  0  0  0  0
 28 33  2  0  0  0  0
 28 29  1  0  0  0  0
 29 30  2  0  0  0  0
 30 31  1  0  0  0  0
 30  9  1  0  0  0  0
 31 10  1  0  0  0  0
 32 11  1  0  0  0  0
 32 31  2  0  0  0  0
 33 32  1  0  0  0  0
 34 35  1  0  0  0  0
 35 36  2  0  0  0  0
 35 13  1  0  0  0  0
 36 14  1  0  0  0  0
 37 15  1  0  0  0  0
 37 36  1  0  0  0  0
 38 37  2  0  0  0  0
 39 38  1  0  0  0  0
 39 34  2  0  0  0  0
 40 47  1  0  0  0  0
 41 48  1  0  0  0  0
 41 40  1  0  0  0  0
 41 21  1  0  0  0  0
 42 19  1  0  0  0  0
 42 52  1  0  0  0  0
 43 51  1  0  0  0  0
 43 42  1  0  0  0  0
 44 45  1  0  0  0  0
 44 20  1  0  0  0  0
 45 55  1  0  0  0  0
 45 21  1  0  0  0  0
 46 40  1  0  0  0  0
 49 41  1  0  0  0  0
 50 43  1  0  0  0  0
 53 42  1  0  0  0  0
 54 45  1  0  0  0  0
 56 44  1  0  0  0  0
 57 44  1  0  0  0  0
M  END
$$$$
