CSD_code = PIYLEO | q = 0 | S = 0 | Stoichiometry = C14H18Cl2Si2Ti | MND = 12
 OpenBabel04212202083D

 37 40  0  0  1  0  0  0  0  0999 V2000
    4.5459    1.5430    3.3048 Ti  0  0  0  0  0  0  0  0  0  0  0  0
    7.4029    1.5895    2.0262 Si  0  0  0  0  0  0  0  0  0  0  0  0
    2.7648    1.4898    4.6213 Cl  0  0  0  0  0  0  0  0  0  0  0  0
    3.3171    1.6133    1.4627 Cl  0  0  0  0  0  0  0  0  0  0  0  0
    6.7993    1.4644    5.4766 Si  0  0  0  0  0  0  0  0  0  0  0  0
    6.1154    0.1849    4.2572 C   0  0  2  0  0  3  0  0  0  0  0  0
    6.3571    0.2378    2.8407 C   0  0  1  0  0  0  0  0  0  0  0  0
    5.3100   -0.4686    2.2098 C   0  0  0  0  0  3  0  0  0  0  0  0
    4.4274   -0.9502    3.1955 C   0  0  0  0  0  0  0  0  0  0  0  0
    4.9269   -0.5529    4.4506 C   0  0  0  0  0  0  0  0  0  0  0  0
    6.1086    2.8274    4.3586 C   0  0  1  0  0  0  0  0  0  0  0  0
    6.3621    2.8801    2.9442 C   0  0  2  0  0  3  0  0  0  0  0  0
    5.3176    3.6302    2.3605 C   0  0  0  0  0  3  0  0  0  0  0  0
    4.4263    4.0352    3.3726 C   0  0  0  0  0  0  0  0  0  0  0  0
    4.9173    3.5462    4.5985 C   0  0  0  0  0  0  0  0  0  0  0  0
    8.6732    1.4911    5.8189 C   0  0  0  0  0  0  0  0  0  0  0  0
    5.8018    1.3877    7.0992 C   0  0  0  0  0  0  0  0  0  0  0  0
    7.0157    1.6746    0.1616 C   0  0  0  0  0  0  0  0  0  0  0  0
    9.2815    1.5381    2.3396 C   0  0  0  0  0  0  0  0  0  0  0  0
    5.2342   -0.6693    1.1489 H   0  0  0  0  0  0  0  0  0  0  0  0
    3.5581   -1.5728    3.0239 H   0  0  0  0  0  0  0  0  0  0  0  0
    4.5043   -0.8297    5.4077 H   0  0  0  0  0  0  0  0  0  0  0  0
    5.2477    3.9100    1.3174 H   0  0  0  0  0  0  0  0  0  0  0  0
    3.5571    4.6676    3.2411 H   0  0  0  0  0  0  0  0  0  0  0  0
    4.4887    3.7499    5.5712 H   0  0  0  0  0  0  0  0  0  0  0  0
    8.8509    1.8237    6.8353 H   0  0  0  0  0  0  0  0  0  0  0  0
    9.1077    0.5028    5.7185 H   0  0  0  0  0  0  0  0  0  0  0  0
    9.2021    2.1633    5.1546 H   0  0  0  0  0  0  0  0  0  0  0  0
    6.0430    0.4931    7.6643 H   0  0  0  0  0  0  0  0  0  0  0  0
    6.0241    2.2406    7.7325 H   0  0  0  0  0  0  0  0  0  0  0  0
    4.7322    1.3846    6.9004 H   0  0  0  0  0  0  0  0  0  0  0  0
    7.4483    2.5630   -0.2874 H   0  0  0  0  0  0  0  0  0  0  0  0
    7.4260    0.8156   -0.3598 H   0  0  0  0  0  0  0  0  0  0  0  0
    5.9422    1.6947   -0.0138 H   0  0  0  0  0  0  0  0  0  0  0  0
    9.6670    2.5180    2.5975 H   0  0  0  0  0  0  0  0  0  0  0  0
    9.7902    1.2146    1.4385 H   0  0  0  0  0  0  0  0  0  0  0  0
    9.5461    0.8498    3.1327 H   0  0  0  0  0  0  0  0  0  0  0  0
  1 11  1  0  0  0  0
  1  3  1  0  0  0  0
  2 19  1  0  0  0  0
  2  7  1  0  0  0  0
  2 12  1  0  0  0  0
  4  1  1  0  0  0  0
  5 16  1  0  0  0  0
  5 17  1  0  0  0  0
  6 10  1  6  0  0  0
  6  5  1  0  0  0  0
  7  8  1  6  0  0  0
  7  1  1  0  0  0  0
  7  6  1  0  0  0  0
  8  9  1  0  0  0  0
  9 10  2  0  0  0  0
 10 22  1  0  0  0  0
 11 15  1  1  0  0  0
 11  5  1  0  0  0  0
 12 13  1  6  0  0  0
 12 11  1  0  0  0  0
 13 14  1  0  0  0  0
 14 15  2  0  0  0  0
 15 25  1  0  0  0  0
 16 26  1  0  0  0  0
 17 29  1  0  0  0  0
 17 30  1  0  0  0  0
 18  2  1  0  0  0  0
 19 35  1  0  0  0  0
 19 37  1  0  0  0  0
 20  8  1  0  0  0  0
 21  9  1  0  0  0  0
 23 13  1  0  0  0  0
 24 14  1  0  0  0  0
 27 16  1  0  0  0  0
 28 16  1  0  0  0  0
 31 17  1  0  0  0  0
 32 18  1  0  0  0  0
 33 18  1  0  0  0  0
 34 18  1  0  0  0  0
 36 19  1  0  0  0  0
M  END
$$$$
