CSD_code = PIYTUN | q = 0 | S = 0 | Stoichiometry = C14H28Cl4N2O4Pt | MND = 6
 OpenBabel04212202083D

 53 53  0  0  1  0  0  0  0  0999 V2000
  -10.0157   -2.3691   -7.1892 C   0  0  0  0  0  0  0  0  0  0  0  0
   -9.9422   -3.4419   -7.3972 H   0  0  0  0  0  0  0  0  0  0  0  0
  -11.0270   -2.0211   -7.4259 H   0  0  0  0  0  0  0  0  0  0  0  0
   -9.0298   -1.9855   -9.4434 C   0  0  2  0  0  0  0  0  0  0  0  0
   -8.4618   -2.8998   -9.6392 H   0  0  0  0  0  0  0  0  0  0  0  0
   -8.3645   -0.7820  -10.1322 C   0  0  0  0  0  0  0  0  0  0  0  0
  -10.4351   -2.1080  -10.0403 C   0  0  0  0  0  0  0  0  0  0  0  0
  -10.3438   -2.2107  -11.1183 H   0  0  0  0  0  0  0  0  0  0  0  0
  -11.0218   -1.2159   -9.8284 H   0  0  0  0  0  0  0  0  0  0  0  0
  -10.9520   -2.9846   -9.6602 H   0  0  0  0  0  0  0  0  0  0  0  0
   -7.1124   -0.1010  -12.0215 C   0  0  0  0  0  0  0  0  0  0  0  0
   -6.9932    0.7680  -11.3644 H   0  0  0  0  0  0  0  0  0  0  0  0
   -5.7538   -0.6819  -12.3824 C   0  0  0  0  0  0  0  0  0  0  0  0
   -5.1584    0.0649  -12.8989 H   0  0  0  0  0  0  0  0  0  0  0  0
   -5.8781   -1.5501  -13.0241 H   0  0  0  0  0  0  0  0  0  0  0  0
   -5.2369   -0.9873  -11.4764 H   0  0  0  0  0  0  0  0  0  0  0  0
   -7.9366    0.2736  -13.2466 C   0  0  0  0  0  0  0  0  0  0  0  0
   -7.4098    1.0267  -13.8249 H   0  0  0  0  0  0  0  0  0  0  0  0
   -8.9018    0.6751  -12.9462 H   0  0  0  0  0  0  0  0  0  0  0  0
   -8.0971   -0.6035  -13.8690 H   0  0  0  0  0  0  0  0  0  0  0  0
   -9.7268   -2.1104   -5.7113 C   0  0  0  0  0  0  0  0  0  0  0  0
   -9.6872   -1.0316   -5.5261 H   0  0  0  0  0  0  0  0  0  0  0  0
  -10.5231   -2.5548   -5.1044 H   0  0  0  0  0  0  0  0  0  0  0  0
   -7.9003   -2.3491   -4.0339 C   0  0  2  0  0  0  0  0  0  0  0  0
   -7.3927   -1.3802   -4.0564 H   0  0  0  0  0  0  0  0  0  0  0  0
   -6.9050   -3.4700   -3.6906 C   0  0  0  0  0  0  0  0  0  0  0  0
   -8.9622   -2.3541   -2.9301 C   0  0  0  0  0  0  0  0  0  0  0  0
   -8.4646   -2.2217   -1.9731 H   0  0  0  0  0  0  0  0  0  0  0  0
   -9.4943   -3.3036   -2.9128 H   0  0  0  0  0  0  0  0  0  0  0  0
   -9.6703   -1.5403   -3.0581 H   0  0  0  0  0  0  0  0  0  0  0  0
   -4.9551   -4.0014   -2.4627 C   0  0  0  0  0  0  0  0  0  0  0  0
   -4.9895   -4.8374   -3.1707 H   0  0  0  0  0  0  0  0  0  0  0  0
   -3.6314   -3.2622   -2.5802 C   0  0  0  0  0  0  0  0  0  0  0  0
   -2.8107   -3.9378   -2.3584 H   0  0  0  0  0  0  0  0  0  0  0  0
   -3.6074   -2.4267   -1.8856 H   0  0  0  0  0  0  0  0  0  0  0  0
   -3.5169   -2.8809   -3.5914 H   0  0  0  0  0  0  0  0  0  0  0  0
   -5.2308   -4.4983   -1.0492 C   0  0  0  0  0  0  0  0  0  0  0  0
   -4.4498   -5.1892   -0.7460 H   0  0  0  0  0  0  0  0  0  0  0  0
   -6.1880   -5.0132   -1.0090 H   0  0  0  0  0  0  0  0  0  0  0  0
   -5.2510   -3.6597   -0.3572 H   0  0  0  0  0  0  0  0  0  0  0  0
   -9.0130   -1.6877   -8.0072 N   0  0  0  0  0  4  0  0  0  0  0  0
   -9.1110   -0.6631   -7.9248 H   0  0  0  0  0  0  0  0  0  0  0  0
   -8.4201   -2.6696   -5.3676 N   0  0  0  0  0  4  0  0  0  0  0  0
   -8.4378   -3.7004   -5.4281 H   0  0  0  0  0  0  0  0  0  0  0  0
   -7.8247   -1.1148  -11.2779 O   0  0  0  0  0  0  0  0  0  0  0  0
   -8.4583    0.3250   -9.6629 O   0  0  0  0  0  0  0  0  0  0  0  0
   -5.9945   -3.0705   -2.8386 O   0  0  0  0  0  0  0  0  0  0  0  0
   -7.0663   -4.5872   -4.1157 O   0  0  0  0  0  0  0  0  0  0  0  0
   -5.2030   -2.5251   -5.8544 Cl  0  0  0  0  0  0  0  0  0  0  0  0
   -5.8624   -1.4904   -8.8171 Cl  0  0  0  0  0  0  0  0  0  0  0  0
   -7.2727   -4.3297   -7.7631 Cl  0  0  0  0  0  0  0  0  0  0  0  0
   -7.1982    0.1329   -6.2168 Cl  0  0  0  0  0  0  0  0  0  0  0  0
   -7.1349   -2.0934   -7.0099 Pt  0  0  0  0  0  0  0  0  0  0  0  0
  1 21  1  0  0  0  0
  2  1  1  0  0  0  0
  3  1  1  0  0  0  0
  4  5  1  6  0  0  0
  4 41  1  0  0  0  0
  6 46  2  0  0  0  0
  6  4  1  0  0  0  0
  7  9  1  0  0  0  0
  7 10  1  0  0  0  0
  7  4  1  0  0  0  0
  8  7  1  0  0  0  0
 11 12  1  0  0  0  0
 11 45  1  0  0  0  0
 13 11  1  0  0  0  0
 13 16  1  0  0  0  0
 14 13  1  0  0  0  0
 15 13  1  0  0  0  0
 17 19  1  0  0  0  0
 17 11  1  0  0  0  0
 18 17  1  0  0  0  0
 20 17  1  0  0  0  0
 21 22  1  0  0  0  0
 21 43  1  0  0  0  0
 21 23  1  0  0  0  0
 24 25  1  6  0  0  0
 24 26  1  0  0  0  0
 24 27  1  0  0  0  0
 26 47  1  0  0  0  0
 27 29  1  0  0  0  0
 27 28  1  0  0  0  0
 30 27  1  0  0  0  0
 31 37  1  0  0  0  0
 32 31  1  0  0  0  0
 33 31  1  0  0  0  0
 33 34  1  0  0  0  0
 33 35  1  0  0  0  0
 36 33  1  0  0  0  0
 37 39  1  0  0  0  0
 37 38  1  0  0  0  0
 37 40  1  0  0  0  0
 41 42  1  0  0  0  0
 41  1  1  0  0  0  0
 41 53  1  0  0  0  0
 43 24  1  0  0  0  0
 44 43  1  0  0  0  0
 45  6  1  0  0  0  0
 47 31  1  0  0  0  0
 48 26  2  0  0  0  0
 50 53  1  0  0  0  0
 51 53  1  0  0  0  0
 53 52  1  0  0  0  0
 53 49  1  0  0  0  0
 53 43  1  0  0  0  0
M  END
$$$$
