CSD_code = PIZGIQ | q = 0 | S = 0 | Stoichiometry = C21H28Cl2N4ORuS | MND = 6
 OpenBabel04212202083D

 58 62  0  0  1  0  0  0  0  0999 V2000
    2.3153    1.6679    2.8712 Ru  0  0  0  0  0  0  0  0  0  0  0  0
    0.3689    2.6355    1.8936 Cl  0  0  0  0  0  0  0  0  0  0  0  0
    3.1137    3.7976    2.8639 S   0  0  0  0  0  0  0  0  0  0  0  0
    1.4928    1.7177    4.7079 N   0  0  0  0  0  0  0  0  0  0  0  0
    2.5402    4.6145    3.9205 O   0  0  0  0  0  1  0  0  0  0  0  0
    1.8731    2.4223    5.7696 C   0  0  0  0  0  3  0  0  0  0  0  0
    2.5866    3.2140    5.5865 H   0  0  0  0  0  0  0  0  0  0  0  0
    4.3422    0.9236    3.8591 Cl  0  0  0  0  0  0  0  0  0  0  0  0
    1.4012   -0.2214    2.8126 N   0  0  1  0  0  4  0  0  0  0  0  0
    1.3706    2.1939    7.0398 C   0  0  0  0  0  0  0  0  0  0  0  0
    1.7107    2.7989    7.8645 H   0  0  0  0  0  0  0  0  0  0  0  0
    3.0307    1.0927    1.1046 N   0  0  0  0  0  0  0  0  0  0  0  0
    0.4369    1.1892    7.2252 C   0  0  0  0  0  0  0  0  0  0  0  0
    0.0226    0.9837    8.2001 H   0  0  0  0  0  0  0  0  0  0  0  0
    3.2038   -3.7834    1.9298 N   0  0  0  0  0  0  0  0  0  0  0  0
    0.0472    0.4450    6.1204 C   0  0  0  0  0  0  0  0  0  0  0  0
   -0.6757   -0.3509    6.2157 H   0  0  0  0  0  0  0  0  0  0  0  0
    0.5923    0.7326    4.8819 C   0  0  0  0  0  0  0  0  0  0  0  0
    0.1998   -0.0165    3.6329 C   0  0  0  0  0  0  0  0  0  0  0  0
   -0.3084   -0.9564    3.8735 H   0  0  0  0  0  0  0  0  0  0  0  0
   -0.4841    0.6319    3.0693 H   0  0  0  0  0  0  0  0  0  0  0  0
    1.1385   -0.3838    1.3743 C   0  0  0  0  0  0  0  0  0  0  0  0
    0.3360    0.3137    1.1005 H   0  0  0  0  0  0  0  0  0  0  0  0
    0.8421   -1.4043    1.1083 H   0  0  0  0  0  0  0  0  0  0  0  0
    2.3724    0.0242    0.6112 C   0  0  1  0  0  3  0  0  0  0  0  0
    2.7968   -0.6458   -0.5210 C   0  0  0  0  0  0  0  0  0  0  0  0
    2.2384   -1.4952   -0.8808 H   0  0  0  0  0  0  0  0  0  0  0  0
    3.9480   -0.2266   -1.1727 C   0  0  0  0  0  0  0  0  0  0  0  0
    4.2942   -0.7344   -2.0583 H   0  0  0  0  0  0  0  0  0  0  0  0
    4.1548    1.4677    0.4934 C   0  0  0  0  0  0  0  0  0  0  0  0
    4.6913    2.2889    0.9483 H   0  0  0  0  0  0  0  0  0  0  0  0
    2.2384   -1.3104    3.3315 C   0  0  0  0  0  0  0  0  0  0  0  0
    2.5949   -1.0201    4.3247 H   0  0  0  0  0  0  0  0  0  0  0  0
    3.1139   -1.3677    2.6766 H   0  0  0  0  0  0  0  0  0  0  0  0
    1.5765   -2.6928    3.4142 C   0  0  0  0  0  0  0  0  0  0  0  0
    1.0839   -2.8283    4.3782 H   0  0  0  0  0  0  0  0  0  0  0  0
    0.8274   -2.8164    2.6299 H   0  0  0  0  0  0  0  0  0  0  0  0
    2.6347   -3.7947    3.2480 C   0  0  0  0  0  0  0  0  0  0  0  0
    3.4351   -3.6447    3.9764 H   0  0  0  0  0  0  0  0  0  0  0  0
    2.1744   -4.7714    3.4307 H   0  0  0  0  0  0  0  0  0  0  0  0
    2.5909   -4.2528    0.8100 C   0  0  0  0  0  0  0  0  0  0  0  0
    1.6376   -4.7427    0.8633 H   0  0  0  0  0  0  0  0  0  0  0  0
    3.3978   -4.0073   -0.2668 C   0  0  0  0  0  0  0  0  0  0  0  0
    3.1962   -4.2727   -1.2863 H   0  0  0  0  0  0  0  0  0  0  0  0
    4.5461   -3.3532    0.2206 C   0  0  0  0  0  0  0  0  0  0  0  0
    5.3862   -3.0203   -0.3557 H   0  0  0  0  0  0  0  0  0  0  0  0
    4.3925   -3.2272    1.5737 C   0  0  0  0  0  0  0  0  0  0  0  0
    5.0471   -2.7948    2.3050 H   0  0  0  0  0  0  0  0  0  0  0  0
    2.8240    4.7330    1.3227 C   0  0  0  0  0  0  0  0  0  0  0  0
    3.2667    5.7155    1.4377 H   0  0  0  0  0  0  0  0  0  0  0  0
    1.7488    4.8177    1.2029 H   0  0  0  0  0  0  0  0  0  0  0  0
    3.2502    4.1919    0.4852 H   0  0  0  0  0  0  0  0  0  0  0  0
    4.9181    4.0935    2.9845 C   0  0  0  0  0  0  0  0  0  0  0  0
    5.0410    5.0435    3.4910 H   0  0  0  0  0  0  0  0  0  0  0  0
    5.3678    4.1181    1.9996 H   0  0  0  0  0  0  0  0  0  0  0  0
    5.3428    3.2878    3.5763 H   0  0  0  0  0  0  0  0  0  0  0  0
    4.6460    0.8437   -0.6386 C   0  0  0  0  0  0  0  0  0  0  0  0
    5.5613    1.1940   -1.0883 H   0  0  0  0  0  0  0  0  0  0  0  0
  1  8  1  0  0  0  0
  1  4  1  0  0  0  0
  2  1  1  0  0  0  0
  3  1  1  0  0  0  0
  3 53  1  0  0  0  0
  3  5  1  0  0  0  0
  4 18  1  0  0  0  0
  4  6  1  0  0  0  0
  6 10  1  0  0  0  0
  7  6  1  0  0  0  0
  9  1  1  0  0  0  0
  9 32  1  1  0  0  0
  9 19  1  0  0  0  0
 10 13  2  0  0  0  0
 10 11  1  0  0  0  0
 12  1  1  0  0  0  0
 13 14  1  0  0  0  0
 15 38  1  0  0  0  0
 16 17  1  0  0  0  0
 16 13  1  0  0  0  0
 18 16  2  0  0  0  0
 19 20  1  0  0  0  0
 19 18  1  0  0  0  0
 21 19  1  0  0  0  0
 22  9  1  0  0  0  0
 23 22  1  0  0  0  0
 24 22  1  0  0  0  0
 25 26  1  6  0  0  0
 25 12  1  0  0  0  0
 25 22  1  0  0  0  0
 27 26  1  0  0  0  0
 28 57  1  0  0  0  0
 28 26  2  0  0  0  0
 29 28  1  0  0  0  0
 30 31  1  0  0  0  0
 30 12  1  0  0  0  0
 32 35  1  0  0  0  0
 32 33  1  0  0  0  0
 34 32  1  0  0  0  0
 35 36  1  0  0  0  0
 37 35  1  0  0  0  0
 38 35  1  0  0  0  0
 38 40  1  0  0  0  0
 38 39  1  0  0  0  0
 41 42  1  0  0  0  0
 41 15  1  0  0  0  0
 43 45  1  0  0  0  0
 43 41  2  0  0  0  0
 44 43  1  0  0  0  0
 45 47  2  0  0  0  0
 46 45  1  0  0  0  0
 47 15  1  0  0  0  0
 47 48  1  0  0  0  0
 49 50  1  0  0  0  0
 49  3  1  0  0  0  0
 51 49  1  0  0  0  0
 52 49  1  0  0  0  0
 53 54  1  0  0  0  0
 53 56  1  0  0  0  0
 55 53  1  0  0  0  0
 57 30  2  0  0  0  0
 58 57  1  0  0  0  0
M  END
$$$$
