CSD_code = PIZVAX | q = 1 | S = 0 | Stoichiometry = C20H20FN5OTc(1+) | MND = 6
 OpenBabel04212202083D

 48 51  0  0  0  0  0  0  0  0999 V2000
    3.6636    3.6956   12.0326 C   0  0  0  0  0  3  0  0  0  0  0  0
    2.7792    3.0991   12.1967 H   0  0  0  0  0  0  0  0  0  0  0  0
    4.7856    3.4936   12.8162 C   0  0  0  0  0  0  0  0  0  0  0  0
    4.7714    2.7355   13.5825 H   0  0  0  0  0  0  0  0  0  0  0  0
    5.9098    4.2728   12.5989 C   0  0  0  0  0  0  0  0  0  0  0  0
    6.8018    4.1419   13.1906 H   0  0  0  0  0  0  0  0  0  0  0  0
    5.8510    5.2273   11.5946 C   0  0  0  0  0  0  0  0  0  0  0  0
    6.6951    5.8619   11.3788 H   0  0  0  0  0  0  0  0  0  0  0  0
    4.6881    5.3621   10.8601 C   0  0  0  0  0  0  0  0  0  0  0  0
    4.6336    6.0983   10.0717 H   0  0  0  0  0  0  0  0  0  0  0  0
    3.1067    2.9321    7.8807 C   0  0  0  0  0  3  0  0  0  0  0  0
    3.5824    3.8550    7.5836 H   0  0  0  0  0  0  0  0  0  0  0  0
    3.4094    1.7565    7.2200 C   0  0  0  0  0  0  0  0  0  0  0  0
    4.1209    1.7679    6.4104 H   0  0  0  0  0  0  0  0  0  0  0  0
    2.7890    0.5798    7.6120 C   0  0  0  0  0  0  0  0  0  0  0  0
    3.0021   -0.3538    7.1159 H   0  0  0  0  0  0  0  0  0  0  0  0
    1.8880    0.6433    8.6620 C   0  0  0  0  0  0  0  0  0  0  0  0
    1.3766   -0.2384    9.0131 H   0  0  0  0  0  0  0  0  0  0  0  0
    1.6444    1.8631    9.2667 C   0  0  0  0  0  0  0  0  0  0  0  0
    0.9505    1.9229   10.0913 H   0  0  0  0  0  0  0  0  0  0  0  0
    1.8016    7.7739   10.8933 C   0  0  0  0  0  3  0  0  0  0  0  0
    2.5331    7.8577   10.1031 H   0  0  0  0  0  0  0  0  0  0  0  0
    1.4700    8.8859   11.6439 C   0  0  0  0  0  0  0  0  0  0  0  0
    1.9484    9.8300   11.4395 H   0  0  0  0  0  0  0  0  0  0  0  0
    0.5229    8.7653   12.6498 C   0  0  0  0  0  0  0  0  0  0  0  0
    0.2413    9.6134   13.2535 H   0  0  0  0  0  0  0  0  0  0  0  0
   -0.0494    7.5205   12.8524 C   0  0  0  0  0  0  0  0  0  0  0  0
   -0.7911    7.3652   13.6192 H   0  0  0  0  0  0  0  0  0  0  0  0
    0.3415    6.4610   12.0536 C   0  0  0  0  0  0  0  0  0  0  0  0
   -0.0914    5.4844   12.2074 H   0  0  0  0  0  0  0  0  0  0  0  0
   -0.3092    5.7420    7.8404 C   0  0  0  0  0  3  0  0  0  0  0  0
    0.5333    6.3230    7.4961 H   0  0  0  0  0  0  0  0  0  0  0  0
   -1.5215    5.8315    7.1827 C   0  0  0  0  0  0  0  0  0  0  0  0
   -1.6179    6.4828    6.3293 H   0  0  0  0  0  0  0  0  0  0  0  0
   -2.5948    5.0786    7.6344 C   0  0  0  0  0  0  0  0  0  0  0  0
   -3.5534    5.1245    7.1423 H   0  0  0  0  0  0  0  0  0  0  0  0
   -2.3947    4.2670    8.7388 C   0  0  0  0  0  0  0  0  0  0  0  0
   -3.1916    3.6601    9.1374 H   0  0  0  0  0  0  0  0  0  0  0  0
   -1.1478    4.2392    9.3365 C   0  0  0  0  0  0  0  0  0  0  0  0
   -0.9835    3.6155   10.2020 H   0  0  0  0  0  0  0  0  0  0  0  0
    0.9442    3.8114   11.2361 F   0  0  0  0  0  0  0  0  0  0  0  0
    2.5744    5.7893    8.7279 N   0  0  0  0  0  2  0  0  0  0  0  0
    3.5993    4.6127   11.0652 N   0  0  0  0  0  0  0  0  0  0  0  0
    2.2348    3.0004    8.8930 N   0  0  0  0  0  0  0  0  0  0  0  0
    1.2527    6.5692   11.0845 N   0  0  0  0  0  0  0  0  0  0  0  0
   -0.1085    4.9579    8.9057 N   0  0  0  0  0  0  0  0  0  0  0  0
    3.1299    6.4534    7.9216 O   0  0  0  0  0  1  0  0  0  0  0  0
    1.7884    4.8387    9.9192 Tc  0  0  0  0  0  0  0  0  0  0  0  0
  1  2  1  0  0  0  0
  1  3  1  0  0  0  0
  3  4  1  0  0  0  0
  5  3  2  0  0  0  0
  5  6  1  0  0  0  0
  7  5  1  0  0  0  0
  8  7  1  0  0  0  0
  9 43  1  0  0  0  0
  9  7  2  0  0  0  0
 10  9  1  0  0  0  0
 11 44  1  0  0  0  0
 12 11  1  0  0  0  0
 13 15  2  0  0  0  0
 13 11  1  0  0  0  0
 14 13  1  0  0  0  0
 15 17  1  0  0  0  0
 16 15  1  0  0  0  0
 17 18  1  0  0  0  0
 17 19  2  0  0  0  0
 19 20  1  0  0  0  0
 21 45  1  0  0  0  0
 21 23  1  0  0  0  0
 22 21  1  0  0  0  0
 23 25  2  0  0  0  0
 24 23  1  0  0  0  0
 25 27  1  0  0  0  0
 25 26  1  0  0  0  0
 27 28  1  0  0  0  0
 29 30  1  0  0  0  0
 29 27  2  0  0  0  0
 31 46  1  0  0  0  0
 32 31  1  0  0  0  0
 33 35  2  0  0  0  0
 33 31  1  0  0  0  0
 34 33  1  0  0  0  0
 35 37  1  0  0  0  0
 36 35  1  0  0  0  0
 37 38  1  0  0  0  0
 37 39  2  0  0  0  0
 39 40  1  0  0  0  0
 42 48  1  0  0  0  0
 43  1  1  0  0  0  0
 44 19  1  0  0  0  0
 44 48  1  0  0  0  0
 45 29  1  0  0  0  0
 46 39  1  0  0  0  0
 46 48  1  0  0  0  0
 47 42  1  0  0  0  0
 48 43  1  0  0  0  0
 48 45  1  0  0  0  0
 48 41  1  0  0  0  0
M  END
$$$$
