CSD_code = POBMEB | q = 0 | S = 0 | Stoichiometry = C26H34AuI2N3 | MND = 2
 OpenBabel04212202083D

 66 68  0  0  0  0  0  0  0  0999 V2000
    5.0100    5.3426    5.2149 Au  0  0  0  0  0  0  0  0  0  0  0  0
    6.3080    7.9458    2.1873 I   0  0  0  0  0  0  0  0  0  0  0  0
    4.2222    9.2776    3.9080 N   0  0  0  0  0  0  0  0  0  0  0  0
    4.9188    8.1321    3.7197 C   0  0  0  0  0  0  0  0  0  0  0  0
    3.4130    9.1661    4.9206 N   0  0  0  0  0  2  0  0  0  0  0  0
    5.5080    2.9738    6.0192 I   0  0  0  0  0  0  0  0  0  0  0  0
    4.5163    7.2264    4.6912 C   0  0  0  0  0  0  0  0  0  0  0  0
    4.3268   10.4704    3.1482 C   0  0  0  0  0  0  0  0  0  0  0  0
    3.5977    7.9467    5.3736 N   0  0  0  0  0  0  0  0  0  0  0  0
    5.3659   12.5746    2.7677 C   0  0  0  0  0  0  0  0  0  0  0  0
    6.0834   13.3343    3.0302 H   0  0  0  0  0  0  0  0  0  0  0  0
    4.5385   12.7661    1.6773 C   0  0  0  0  0  0  0  0  0  0  0  0
    4.6191   13.6741    1.0992 H   0  0  0  0  0  0  0  0  0  0  0  0
    3.6084   11.8081    1.3187 C   0  0  0  0  0  0  0  0  0  0  0  0
    2.9739   11.9781    0.4648 H   0  0  0  0  0  0  0  0  0  0  0  0
    3.4855   10.6332    2.0467 C   0  0  0  0  0  0  0  0  0  0  0  0
    5.2811   11.4154    3.5263 C   0  0  0  0  0  0  0  0  0  0  0  0
    2.4537    9.5826    1.7122 C   0  0  0  0  0  0  0  0  0  0  0  0
    2.8272    8.6036    2.0366 H   0  0  0  0  0  0  0  0  0  0  0  0
    2.1685    9.4812    0.2150 C   0  0  0  0  0  0  0  0  0  0  0  0
    1.5684    8.5960    0.0178 H   0  0  0  0  0  0  0  0  0  0  0  0
    3.0958    9.3997   -0.3478 H   0  0  0  0  0  0  0  0  0  0  0  0
    1.6142   10.3456   -0.1407 H   0  0  0  0  0  0  0  0  0  0  0  0
    1.1685    9.8886    2.4899 C   0  0  0  0  0  0  0  0  0  0  0  0
    0.7777   10.8605    2.1974 H   0  0  0  0  0  0  0  0  0  0  0  0
    1.3591    9.9041    3.5615 H   0  0  0  0  0  0  0  0  0  0  0  0
    0.4148    9.1337    2.2797 H   0  0  0  0  0  0  0  0  0  0  0  0
    2.8793    7.4480    6.4919 C   0  0  0  0  0  0  0  0  0  0  0  0
    1.0403    6.2159    7.3705 C   0  0  0  0  0  0  0  0  0  0  0  0
    0.1271    5.6595    7.2318 H   0  0  0  0  0  0  0  0  0  0  0  0
    1.5556    6.3732    8.6426 C   0  0  0  0  0  0  0  0  0  0  0  0
    1.0416    5.9400    9.4870 H   0  0  0  0  0  0  0  0  0  0  0  0
    2.7306    7.0725    8.8390 C   0  0  0  0  0  0  0  0  0  0  0  0
    3.1258    7.1787    9.8367 H   0  0  0  0  0  0  0  0  0  0  0  0
    3.4174    7.6258    7.7669 C   0  0  0  0  0  0  0  0  0  0  0  0
    4.7203    8.3563    7.9870 C   0  0  0  0  0  0  0  0  0  0  0  0
    5.0667    8.7770    7.0371 H   0  0  0  0  0  0  0  0  0  0  0  0
    4.5398    9.5186    8.9652 C   0  0  0  0  0  0  0  0  0  0  0  0
    5.4716   10.0715    9.0597 H   0  0  0  0  0  0  0  0  0  0  0  0
    4.2581    9.1593    9.9508 H   0  0  0  0  0  0  0  0  0  0  0  0
    3.7670   10.1982    8.6117 H   0  0  0  0  0  0  0  0  0  0  0  0
    5.7877    7.3786    8.4849 C   0  0  0  0  0  0  0  0  0  0  0  0
    5.9104    6.5578    7.7799 H   0  0  0  0  0  0  0  0  0  0  0  0
    5.5096    6.9593    9.4478 H   0  0  0  0  0  0  0  0  0  0  0  0
    6.7432    7.8873    8.5917 H   0  0  0  0  0  0  0  0  0  0  0  0
    1.1377    6.5457    4.8777 C   0  0  0  0  0  0  0  0  0  0  0  0
    1.7502    7.0978    4.1568 H   0  0  0  0  0  0  0  0  0  0  0  0
   -0.2915    7.0815    4.7722 C   0  0  0  0  0  0  0  0  0  0  0  0
   -0.6482    6.9852    3.7492 H   0  0  0  0  0  0  0  0  0  0  0  0
   -0.3278    8.1313    5.0560 H   0  0  0  0  0  0  0  0  0  0  0  0
   -0.9649    6.5262    5.4188 H   0  0  0  0  0  0  0  0  0  0  0  0
    1.1967    5.0622    4.5059 C   0  0  0  0  0  0  0  0  0  0  0  0
    0.8478    4.9158    3.4862 H   0  0  0  0  0  0  0  0  0  0  0  0
    0.5753    4.4707    5.1726 H   0  0  0  0  0  0  0  0  0  0  0  0
    2.2185    4.6926    4.5774 H   0  0  0  0  0  0  0  0  0  0  0  0
    6.1398   11.1966    4.7489 C   0  0  0  0  0  0  0  0  0  0  0  0
    6.2334   10.1199    4.9331 H   0  0  0  0  0  0  0  0  0  0  0  0
    7.5555   11.7472    4.5849 C   0  0  0  0  0  0  0  0  0  0  0  0
    7.9971   11.3957    3.6552 H   0  0  0  0  0  0  0  0  0  0  0  0
    8.1765   11.4071    5.4103 H   0  0  0  0  0  0  0  0  0  0  0  0
    7.5608   12.8337    4.5888 H   0  0  0  0  0  0  0  0  0  0  0  0
    5.4427   11.8292    5.9582 C   0  0  0  0  0  0  0  0  0  0  0  0
    5.3246   12.8994    5.8054 H   0  0  0  0  0  0  0  0  0  0  0  0
    6.0332   11.6697    6.8571 H   0  0  0  0  0  0  0  0  0  0  0  0
    4.4565   11.3926    6.1057 H   0  0  0  0  0  0  0  0  0  0  0  0
    1.6913    6.7512    6.2674 C   0  0  0  0  0  0  0  0  0  0  0  0
  1  6  1  0  0  0  0
  2  4  1  0  0  0  0
  3  5  1  0  0  0  0
  4  3  1  0  0  0  0
  4  7  2  0  0  0  0
  5  9  1  0  0  0  0
  7  1  1  0  0  0  0
  7  9  1  0  0  0  0
  8 17  1  0  0  0  0
  8  3  1  0  0  0  0
  9 28  1  0  0  0  0
 10 11  1  0  0  0  0
 10 17  2  0  0  0  0
 12 10  1  0  0  0  0
 13 12  1  0  0  0  0
 14 12  2  0  0  0  0
 14 16  1  0  0  0  0
 15 14  1  0  0  0  0
 16  8  2  0  0  0  0
 17 56  1  0  0  0  0
 18 19  1  0  0  0  0
 18 16  1  0  0  0  0
 18 24  1  0  0  0  0
 20 18  1  0  0  0  0
 21 20  1  0  0  0  0
 22 20  1  0  0  0  0
 23 20  1  0  0  0  0
 24 26  1  0  0  0  0
 25 24  1  0  0  0  0
 27 24  1  0  0  0  0
 28 35  1  0  0  0  0
 29 31  2  0  0  0  0
 30 29  1  0  0  0  0
 31 33  1  0  0  0  0
 31 32  1  0  0  0  0
 33 34  1  0  0  0  0
 35 36  1  0  0  0  0
 35 33  2  0  0  0  0
 36 42  1  0  0  0  0
 36 38  1  0  0  0  0
 37 36  1  0  0  0  0
 38 39  1  0  0  0  0
 38 40  1  0  0  0  0
 41 38  1  0  0  0  0
 42 45  1  0  0  0  0
 42 44  1  0  0  0  0
 43 42  1  0  0  0  0
 46 66  1  0  0  0  0
 47 46  1  0  0  0  0
 48 46  1  0  0  0  0
 48 50  1  0  0  0  0
 48 51  1  0  0  0  0
 49 48  1  0  0  0  0
 52 55  1  0  0  0  0
 52 46  1  0  0  0  0
 52 54  1  0  0  0  0
 53 52  1  0  0  0  0
 56 57  1  0  0  0  0
 56 62  1  0  0  0  0
 58 61  1  0  0  0  0
 58 56  1  0  0  0  0
 58 60  1  0  0  0  0
 59 58  1  0  0  0  0
 62 65  1  0  0  0  0
 62 64  1  0  0  0  0
 63 62  1  0  0  0  0
 66 28  2  0  0  0  0
 66 29  1  0  0  0  0
M  END
$$$$
