CSD_code = POBVIO | q = 0 | S = 0 | Stoichiometry = C28H34ClIIrN3O2 | MND = 4
 OpenBabel04212202083D

 70 72  0  0  0  0  0  0  0  0999 V2000
    2.6393    7.7295    5.6557 Ir  0  0  0  0  0  0  0  0  0  0  0  0
    4.5295   11.1913    6.2782 I   0  0  0  0  0  0  0  0  0  0  0  0
    0.7548    6.6332    7.7349 O   0  0  0  0  0  1  0  0  0  0  0  0
    4.2804   10.7734    3.3060 N   0  0  0  0  0  0  0  0  0  0  0  0
    4.6033   12.1343    3.0700 C   0  0  0  0  0  0  0  0  0  0  0  0
    3.9949    9.9363    2.3489 N   0  0  0  0  0  2  0  0  0  0  0  0
    4.4459    5.3675    5.2278 O   0  0  0  0  0  1  0  0  0  0  0  0
    3.5617   13.0653    3.1393 C   0  0  0  0  0  0  0  0  0  0  0  0
    1.2783    9.5685    5.7828 Cl  0  0  0  0  0  0  0  0  0  0  0  0
    3.6244    8.8301    2.9578 N   0  0  0  0  0  0  0  0  0  0  0  0
    3.8854   14.3981    2.9305 C   0  0  0  0  0  0  0  0  0  0  0  0
    3.1119   15.1471    2.9672 H   0  0  0  0  0  0  0  0  0  0  0  0
    5.1910   14.7801    2.6811 C   0  0  0  0  0  0  0  0  0  0  0  0
    5.4220   15.8236    2.5285 H   0  0  0  0  0  0  0  0  0  0  0  0
    6.2006   13.8396    2.6276 C   0  0  0  0  0  0  0  0  0  0  0  0
    7.2139   14.1555    2.4376 H   0  0  0  0  0  0  0  0  0  0  0  0
    5.9259   12.4914    2.8188 C   0  0  0  0  0  0  0  0  0  0  0  0
    7.0315   11.4653    2.7691 C   0  0  0  0  0  0  0  0  0  0  0  0
    6.6059   10.4663    2.9066 H   0  0  0  0  0  0  0  0  0  0  0  0
    8.0353   11.7088    3.8985 C   0  0  0  0  0  0  0  0  0  0  0  0
    8.7949   10.9306    3.8953 H   0  0  0  0  0  0  0  0  0  0  0  0
    7.5355   11.6997    4.8648 H   0  0  0  0  0  0  0  0  0  0  0  0
    8.5277   12.6700    3.7781 H   0  0  0  0  0  0  0  0  0  0  0  0
    7.7244   11.4901    1.4051 C   0  0  0  0  0  0  0  0  0  0  0  0
    7.0033   11.3178    0.6091 H   0  0  0  0  0  0  0  0  0  0  0  0
    8.4833   10.7128    1.3589 H   0  0  0  0  0  0  0  0  0  0  0  0
    8.2072   12.4477    1.2309 H   0  0  0  0  0  0  0  0  0  0  0  0
    2.1388   12.6180    3.3758 C   0  0  0  0  0  0  0  0  0  0  0  0
    2.1331   11.7170    3.9977 H   0  0  0  0  0  0  0  0  0  0  0  0
    1.5045   12.2671    2.0246 C   0  0  0  0  0  0  0  0  0  0  0  0
    2.0825   11.5006    1.5106 H   0  0  0  0  0  0  0  0  0  0  0  0
    1.4633   13.1488    1.3879 H   0  0  0  0  0  0  0  0  0  0  0  0
    0.4932   11.8984    2.1756 H   0  0  0  0  0  0  0  0  0  0  0  0
    1.2976   13.6584    4.1131 C   0  0  0  0  0  0  0  0  0  0  0  0
    1.0529   14.5029    3.4734 H   0  0  0  0  0  0  0  0  0  0  0  0
    1.8231   14.0194    4.9944 H   0  0  0  0  0  0  0  0  0  0  0  0
    0.3668   13.1997    4.4373 H   0  0  0  0  0  0  0  0  0  0  0  0
    4.1007   10.2003    4.5128 C   0  0  0  0  0  0  0  0  0  0  0  0
    3.6443    8.8998    4.3099 C   0  0  0  0  0  0  0  0  0  0  0  0
    3.3357    7.6566    2.2076 C   0  0  0  0  0  0  0  0  0  0  0  0
    2.0209    7.3787    1.8396 C   0  0  0  0  0  0  0  0  0  0  0  0
    1.7877    6.2203    1.1081 C   0  0  0  0  0  0  0  0  0  0  0  0
    0.7811    5.9738    0.8097 H   0  0  0  0  0  0  0  0  0  0  0  0
    2.8257    5.3803    0.7596 C   0  0  0  0  0  0  0  0  0  0  0  0
    2.6255    4.4863    0.1882 H   0  0  0  0  0  0  0  0  0  0  0  0
    4.1218    5.6748    1.1403 C   0  0  0  0  0  0  0  0  0  0  0  0
    4.9205    5.0071    0.8624 H   0  0  0  0  0  0  0  0  0  0  0  0
    4.4025    6.8154    1.8773 C   0  0  0  0  0  0  0  0  0  0  0  0
    5.8186    7.1710    2.2642 C   0  0  0  0  0  0  0  0  0  0  0  0
    5.7910    7.8155    3.1504 H   0  0  0  0  0  0  0  0  0  0  0  0
    6.4607    7.9488    1.1101 C   0  0  0  0  0  0  0  0  0  0  0  0
    6.4950    7.3293    0.2168 H   0  0  0  0  0  0  0  0  0  0  0  0
    7.4762    8.2385    1.3694 H   0  0  0  0  0  0  0  0  0  0  0  0
    5.8847    8.8439    0.8831 H   0  0  0  0  0  0  0  0  0  0  0  0
    6.6615    5.9497    2.6287 C   0  0  0  0  0  0  0  0  0  0  0  0
    6.8959    5.3528    1.7515 H   0  0  0  0  0  0  0  0  0  0  0  0
    6.1371    5.3286    3.3499 H   0  0  0  0  0  0  0  0  0  0  0  0
    7.6001    6.2743    3.0725 H   0  0  0  0  0  0  0  0  0  0  0  0
    0.8715    8.2709    2.2358 C   0  0  0  0  0  0  0  0  0  0  0  0
    1.2499    9.1335    2.7906 H   0  0  0  0  0  0  0  0  0  0  0  0
    0.1306    8.7936    1.0041 C   0  0  0  0  0  0  0  0  0  0  0  0
    0.8113    9.3358    0.3507 H   0  0  0  0  0  0  0  0  0  0  0  0
   -0.6660    9.4674    1.3100 H   0  0  0  0  0  0  0  0  0  0  0  0
   -0.3120    7.9782    0.4379 H   0  0  0  0  0  0  0  0  0  0  0  0
   -0.0684    7.5040    3.1684 C   0  0  0  0  0  0  0  0  0  0  0  0
   -0.8413    8.1685    3.5456 H   0  0  0  0  0  0  0  0  0  0  0  0
    0.4973    7.1159    4.0212 H   0  0  0  0  0  0  0  0  0  0  0  0
   -0.5401    6.6690    2.6569 H   0  0  0  0  0  0  0  0  0  0  0  0
    1.5149    6.9613    6.9445 C   0  0  0  0  0  2  0  0  0  0  0  0
    3.7521    6.2702    5.4269 C   0  0  0  0  0  2  0  0  0  0  0  0
  1  9  1  0  0  0  0
  1 69  1  0  0  0  0
  4 38  1  0  0  0  0
  5  8  1  0  0  0  0
  5  4  1  0  0  0  0
  6 10  1  0  0  0  0
  6  4  1  0  0  0  0
  7 70  1  0  0  0  0
  8 28  1  0  0  0  0
 10 39  1  0  0  0  0
 11 12  1  0  0  0  0
 11  8  2  0  0  0  0
 13 11  1  0  0  0  0
 14 13  1  0  0  0  0
 15 13  2  0  0  0  0
 15 17  1  0  0  0  0
 16 15  1  0  0  0  0
 17  5  2  0  0  0  0
 18 17  1  0  0  0  0
 18 19  1  0  0  0  0
 18 20  1  0  0  0  0
 20 22  1  0  0  0  0
 21 20  1  0  0  0  0
 23 20  1  0  0  0  0
 24 18  1  0  0  0  0
 25 24  1  0  0  0  0
 26 24  1  0  0  0  0
 27 24  1  0  0  0  0
 28 29  1  0  0  0  0
 28 34  1  0  0  0  0
 30 33  1  0  0  0  0
 30 28  1  0  0  0  0
 31 30  1  0  0  0  0
 32 30  1  0  0  0  0
 34 37  1  0  0  0  0
 34 36  1  0  0  0  0
 35 34  1  0  0  0  0
 38  2  1  0  0  0  0
 39 38  2  0  0  0  0
 39  1  1  0  0  0  0
 40 10  1  0  0  0  0
 41 40  2  0  0  0  0
 41 59  1  0  0  0  0
 42 41  1  0  0  0  0
 43 42  1  0  0  0  0
 44 42  2  0  0  0  0
 44 46  1  0  0  0  0
 45 44  1  0  0  0  0
 46 48  2  0  0  0  0
 47 46  1  0  0  0  0
 48 40  1  0  0  0  0
 48 49  1  0  0  0  0
 49 55  1  0  0  0  0
 49 50  1  0  0  0  0
 51 53  1  0  0  0  0
 51 49  1  0  0  0  0
 52 51  1  0  0  0  0
 54 51  1  0  0  0  0
 55 58  1  0  0  0  0
 55 57  1  0  0  0  0
 56 55  1  0  0  0  0
 59 60  1  0  0  0  0
 59 65  1  0  0  0  0
 61 63  1  0  0  0  0
 61 59  1  0  0  0  0
 62 61  1  0  0  0  0
 64 61  1  0  0  0  0
 65 66  1  0  0  0  0
 65 67  1  0  0  0  0
 68 65  1  0  0  0  0
 69  3  1  0  0  0  0
 70  1  1  0  0  0  0
M  END
$$$$
