CSD_code = POBYUA | q = 0 | S = 0 | Stoichiometry = C28H30Cl2Zr | MND = 12
 OpenBabel04212202083D

 61 64  0  0  1  0  0  0  0  0999 V2000
    5.6873    5.6868    0.0001 Zr  0  0  0  0  0  0  0  0  0  0  0  0
    5.6266    3.3997    0.5384 Cl  0  0  0  0  0  0  0  0  0  0  0  0
    5.6969    6.0901   -2.4271 C   0  0  0  0  0  0  0  0  0  0  0  0
    6.5649    7.0431   -1.8183 C   0  0  2  0  0  0  0  0  0  0  0  0
    7.6834    6.3205   -1.3023 C   0  0  0  0  0  0  0  0  0  0  0  0
    7.4922    4.9472   -1.5743 C   0  0  0  0  0  0  0  0  0  0  0  0
    6.2575    4.8057   -2.2723 C   0  0  0  0  0  0  0  0  0  0  0  0
    6.3374    8.4848   -1.7832 C   0  0  0  0  0  0  0  0  0  0  0  0
    5.0314    8.9840   -1.7995 C   0  0  0  0  0  0  0  0  0  0  0  0
    4.7982   10.3459   -1.7757 C   0  0  0  0  0  0  0  0  0  0  0  0
    5.8498   11.2530   -1.7245 C   0  0  0  0  0  0  0  0  0  0  0  0
    7.1491   10.7560   -1.6974 C   0  0  0  0  0  0  0  0  0  0  0  0
    7.3937    9.3981   -1.7293 C   0  0  0  0  0  0  0  0  0  0  0  0
    8.4705    3.8383   -1.3170 C   0  0  0  0  0  0  0  0  0  0  0  0
    5.6959    3.5300   -2.8276 C   0  0  0  0  0  0  0  0  0  0  0  0
    5.6052   12.7307   -1.6953 C   0  0  0  0  0  0  0  0  0  0  0  0
    4.8193    6.3186   -3.0201 H   0  0  0  0  0  0  0  0  0  0  0  0
    8.5868    6.7535   -0.8909 H   0  0  0  0  0  0  0  0  0  0  0  0
    4.1953    8.2938   -1.8115 H   0  0  0  0  0  0  0  0  0  0  0  0
    3.7811   10.7113   -1.7896 H   0  0  0  0  0  0  0  0  0  0  0  0
    7.9788   11.4476   -1.6586 H   0  0  0  0  0  0  0  0  0  0  0  0
    8.4114    9.0356   -1.7255 H   0  0  0  0  0  0  0  0  0  0  0  0
    9.3625    4.2223   -0.8253 H   0  0  0  0  0  0  0  0  0  0  0  0
    8.7653    3.3760   -2.2607 H   0  0  0  0  0  0  0  0  0  0  0  0
    8.0259    3.0615   -0.6913 H   0  0  0  0  0  0  0  0  0  0  0  0
    6.2475    3.2251   -3.7196 H   0  0  0  0  0  0  0  0  0  0  0  0
    5.7669    2.7234   -2.0961 H   0  0  0  0  0  0  0  0  0  0  0  0
    4.6488    3.6652   -3.0989 H   0  0  0  0  0  0  0  0  0  0  0  0
    4.5420   12.9508   -1.7455 H   0  0  0  0  0  0  0  0  0  0  0  0
    6.1007   13.2137   -2.5367 H   0  0  0  0  0  0  0  0  0  0  0  0
    6.0074   13.1653   -0.7805 H   0  0  0  0  0  0  0  0  0  0  0  0
    3.3989    5.6264   -0.5391 Cl  0  0  0  0  0  0  0  0  0  0  0  0
    6.0902    5.6968    2.4273 C   0  0  0  0  0  0  0  0  0  0  0  0
    7.0432    6.5648    1.8185 C   0  0  2  0  0  0  0  0  0  0  0  0
    6.3206    7.6832    1.3024 C   0  0  0  0  0  0  0  0  0  0  0  0
    8.4849    6.3373    1.7833 C   0  0  0  0  0  0  0  0  0  0  0  0
    8.9841    5.0313    1.7996 C   0  0  0  0  0  0  0  0  0  0  0  0
   10.3460    4.7982    1.7757 C   0  0  0  0  0  0  0  0  0  0  0  0
   11.2531    5.8498    1.7245 C   0  0  0  0  0  0  0  0  0  0  0  0
   10.7561    7.1491    1.6974 C   0  0  0  0  0  0  0  0  0  0  0  0
    9.3982    7.3937    1.7294 C   0  0  0  0  0  0  0  0  0  0  0  0
    9.0356    8.4113    1.7257 H   0  0  0  0  0  0  0  0  0  0  0  0
   11.4476    7.9788    1.6586 H   0  0  0  0  0  0  0  0  0  0  0  0
   12.7308    5.6053    1.6951 C   0  0  0  0  0  0  0  0  0  0  0  0
   12.9510    4.5420    1.7454 H   0  0  0  0  0  0  0  0  0  0  0  0
   13.2139    6.1008    2.5364 H   0  0  0  0  0  0  0  0  0  0  0  0
   13.1653    6.0073    0.7802 H   0  0  0  0  0  0  0  0  0  0  0  0
   10.7115    3.7811    1.7896 H   0  0  0  0  0  0  0  0  0  0  0  0
    8.2940    4.1952    1.8116 H   0  0  0  0  0  0  0  0  0  0  0  0
    4.9473    7.4921    1.5744 C   0  0  0  0  0  0  0  0  0  0  0  0
    4.8057    6.2573    2.2723 C   0  0  0  0  0  0  0  0  0  0  0  0
    6.3186    4.8192    3.0202 H   0  0  0  0  0  0  0  0  0  0  0  0
    3.8384    8.4704    1.3170 C   0  0  0  0  0  0  0  0  0  0  0  0
    4.2224    9.3624    0.8253 H   0  0  0  0  0  0  0  0  0  0  0  0
    3.3761    8.7651    2.2607 H   0  0  0  0  0  0  0  0  0  0  0  0
    3.0616    8.0257    0.6913 H   0  0  0  0  0  0  0  0  0  0  0  0
    3.5300    5.6958    2.8276 C   0  0  0  0  0  0  0  0  0  0  0  0
    3.2250    6.2475    3.7195 H   0  0  0  0  0  0  0  0  0  0  0  0
    2.7234    5.7667    2.0961 H   0  0  0  0  0  0  0  0  0  0  0  0
    3.6652    4.6486    3.0989 H   0  0  0  0  0  0  0  0  0  0  0  0
    6.7536    8.5867    0.8910 H   0  0  0  0  0  0  0  0  0  0  0  0
  1  2  1  0  0  0  0
  3  7  2  0  0  0  0
  3  4  1  0  0  0  0
  4  8  1  0  0  0  0
  4  5  1  0  0  0  0
  4  1  1  1  0  0  0
  5 18  1  0  0  0  0
  6 14  1  0  0  0  0
  6  5  2  0  0  0  0
  7  6  1  0  0  0  0
  8 13  1  0  0  0  0
  9  8  2  0  0  0  0
  9 10  1  0  0  0  0
 10 11  2  0  0  0  0
 11 12  1  0  0  0  0
 11 16  1  0  0  0  0
 12 21  1  0  0  0  0
 13 22  1  0  0  0  0
 13 12  2  0  0  0  0
 14 23  1  0  0  0  0
 14 25  1  0  0  0  0
 15  7  1  0  0  0  0
 15 27  1  0  0  0  0
 16 31  1  0  0  0  0
 17  3  1  0  0  0  0
 19  9  1  0  0  0  0
 20 10  1  0  0  0  0
 24 14  1  0  0  0  0
 26 15  1  0  0  0  0
 28 15  1  0  0  0  0
 29 16  1  0  0  0  0
 30 16  1  0  0  0  0
 32  1  1  0  0  0  0
 33 52  1  0  0  0  0
 34  1  1  6  0  0  0
 34 33  1  0  0  0  0
 35 50  2  0  0  0  0
 35 34  1  0  0  0  0
 36 37  1  0  0  0  0
 36 34  1  0  0  0  0
 37 49  1  0  0  0  0
 38 48  1  0  0  0  0
 38 37  2  0  0  0  0
 39 38  1  0  0  0  0
 40 39  2  0  0  0  0
 40 41  1  0  0  0  0
 41 36  2  0  0  0  0
 42 41  1  0  0  0  0
 43 40  1  0  0  0  0
 44 39  1  0  0  0  0
 44 45  1  0  0  0  0
 44 46  1  0  0  0  0
 47 44  1  0  0  0  0
 50 51  1  0  0  0  0
 51 33  2  0  0  0  0
 51 57  1  0  0  0  0
 53 50  1  0  0  0  0
 53 55  1  0  0  0  0
 54 53  1  0  0  0  0
 56 53  1  0  0  0  0
 57 60  1  0  0  0  0
 57 58  1  0  0  0  0
 59 57  1  0  0  0  0
 61 35  1  0  0  0  0
M  END
$$$$
