CSD_code = POCDUG | q = 0 | S = 0 | Stoichiometry = C30H30Cl2N2O2Pd | MND = 4
 OpenBabel04212202083D

 67 72  0  0  1  0  0  0  0  0999 V2000
   -0.0001   -0.0001   -0.0001 Pd  0  0  0  0  0  0  0  0  0  0  0  0
    1.6302    1.3656    0.8432 Cl  0  0  0  0  0  0  0  0  0  0  0  0
   -1.9837   -1.6357    3.1549 O   0  0  0  0  0  0  0  0  0  0  0  0
   -0.4880   -0.6978    1.8004 N   0  0  0  0  0  0  0  0  0  0  0  0
   -2.7277    0.2402    1.8423 C   0  0  0  0  0  0  0  0  0  0  0  0
   -2.3724    1.5291    1.5001 C   0  0  0  0  0  0  0  0  0  0  0  0
   -3.3653    2.4738    1.1716 C   0  0  0  0  0  0  0  0  0  0  0  0
   -3.0462    3.8158    0.8683 C   0  0  0  0  0  0  0  0  0  0  0  0
   -4.0275    4.7091    0.5436 C   0  0  0  0  0  0  0  0  0  0  0  0
   -5.3717    4.3045    0.5063 C   0  0  0  0  0  0  0  0  0  0  0  0
   -5.7142    3.0156    0.8074 C   0  0  0  0  0  0  0  0  0  0  0  0
   -4.7280    2.0696    1.1541 C   0  0  0  0  0  0  0  0  0  0  0  0
   -5.0532    0.7391    1.4976 C   0  0  0  0  0  0  0  0  0  0  0  0
   -4.0831   -0.1522    1.8508 C   0  0  0  0  0  0  0  0  0  0  0  0
   -1.6937   -0.7081    2.2327 C   0  0  2  0  0  3  0  0  0  0  0  0
   -0.8208   -2.4452    3.3124 C   0  0  0  0  0  0  0  0  0  0  0  0
    0.2866   -1.7026    2.5247 C   0  0  0  0  0  0  0  0  0  0  0  0
    1.2691   -0.9878    3.4564 C   0  0  0  0  0  0  0  0  0  0  0  0
    1.0300   -2.5880    1.5299 C   0  0  0  0  0  0  0  0  0  0  0  0
   -1.3276    1.8419    1.5411 H   0  0  0  0  0  0  0  0  0  0  0  0
   -2.0110    4.1215    0.9028 H   0  0  0  0  0  0  0  0  0  0  0  0
   -3.7774    5.7346    0.3145 H   0  0  0  0  0  0  0  0  0  0  0  0
   -6.1337    5.0233    0.2430 H   0  0  0  0  0  0  0  0  0  0  0  0
   -6.7482    2.7027    0.7880 H   0  0  0  0  0  0  0  0  0  0  0  0
   -6.0910    0.4395    1.4831 H   0  0  0  0  0  0  0  0  0  0  0  0
   -4.3261   -1.1678    2.1203 H   0  0  0  0  0  0  0  0  0  0  0  0
   -0.6005   -2.5316    4.3777 H   0  0  0  0  0  0  0  0  0  0  0  0
   -1.0321   -3.4378    2.9003 H   0  0  0  0  0  0  0  0  0  0  0  0
    0.7311   -0.4116    4.2071 H   0  0  0  0  0  0  0  0  0  0  0  0
    1.8839   -0.3011    2.8770 H   0  0  0  0  0  0  0  0  0  0  0  0
    1.9095   -1.7131    3.9518 H   0  0  0  0  0  0  0  0  0  0  0  0
    0.3267   -3.0114    0.8098 H   0  0  0  0  0  0  0  0  0  0  0  0
    1.5447   -3.3949    2.0471 H   0  0  0  0  0  0  0  0  0  0  0  0
    1.7700   -1.9731    1.0058 H   0  0  0  0  0  0  0  0  0  0  0  0
   -1.6304   -1.3658   -0.8434 Cl  0  0  0  0  0  0  0  0  0  0  0  0
    0.4878    0.6975   -1.8005 N   0  0  0  0  0  0  0  0  0  0  0  0
    1.6936    0.7080   -2.2328 C   0  0  2  0  0  3  0  0  0  0  0  0
    1.9835    1.6357   -3.1549 O   0  0  0  0  0  0  0  0  0  0  0  0
    0.8205    2.4451   -3.3124 C   0  0  0  0  0  0  0  0  0  0  0  0
   -0.2869    1.7022   -2.5249 C   0  0  0  0  0  0  0  0  0  0  0  0
   -1.2692    0.9873   -3.4567 C   0  0  0  0  0  0  0  0  0  0  0  0
   -0.7310    0.4114   -4.2074 H   0  0  0  0  0  0  0  0  0  0  0  0
   -1.8838    0.3005   -2.8775 H   0  0  0  0  0  0  0  0  0  0  0  0
   -1.9097    1.7126   -3.9521 H   0  0  0  0  0  0  0  0  0  0  0  0
   -1.0305    2.5875   -1.5301 C   0  0  0  0  0  0  0  0  0  0  0  0
   -0.3273    3.0110   -0.8099 H   0  0  0  0  0  0  0  0  0  0  0  0
   -1.5453    3.3943   -2.0473 H   0  0  0  0  0  0  0  0  0  0  0  0
   -1.7704    1.9724   -1.0060 H   0  0  0  0  0  0  0  0  0  0  0  0
    0.6003    2.5315   -4.3777 H   0  0  0  0  0  0  0  0  0  0  0  0
    1.0316    3.4377   -2.9002 H   0  0  0  0  0  0  0  0  0  0  0  0
    2.7277   -0.2401   -1.8423 C   0  0  0  0  0  0  0  0  0  0  0  0
    2.3726   -1.5291   -1.5001 C   0  0  0  0  0  0  0  0  0  0  0  0
    3.3656   -2.4736   -1.1714 C   0  0  0  0  0  0  0  0  0  0  0  0
    3.0467   -3.8157   -0.8681 C   0  0  0  0  0  0  0  0  0  0  0  0
    4.0281   -4.7088   -0.5434 C   0  0  0  0  0  0  0  0  0  0  0  0
    5.3723   -4.3040   -0.5060 C   0  0  0  0  0  0  0  0  0  0  0  0
    5.7145   -3.0151   -0.8071 C   0  0  0  0  0  0  0  0  0  0  0  0
    4.7282   -2.0692   -1.1539 C   0  0  0  0  0  0  0  0  0  0  0  0
    5.0532   -0.7387   -1.4975 C   0  0  0  0  0  0  0  0  0  0  0  0
    4.0830    0.1524   -1.8508 C   0  0  0  0  0  0  0  0  0  0  0  0
    4.3258    1.1681   -2.1203 H   0  0  0  0  0  0  0  0  0  0  0  0
    6.0909   -0.4389   -1.4830 H   0  0  0  0  0  0  0  0  0  0  0  0
    6.7485   -2.7020   -0.7877 H   0  0  0  0  0  0  0  0  0  0  0  0
    6.1344   -5.0226   -0.2427 H   0  0  0  0  0  0  0  0  0  0  0  0
    3.7782   -5.7343   -0.3142 H   0  0  0  0  0  0  0  0  0  0  0  0
    2.0115   -4.1215   -0.9026 H   0  0  0  0  0  0  0  0  0  0  0  0
    1.3278   -1.8420   -1.5410 H   0  0  0  0  0  0  0  0  0  0  0  0
  1  2  1  0  0  0  0
  1  4  1  0  0  0  0
  3 16  1  0  0  0  0
  4 15  1  0  0  0  0
  4 17  1  0  0  0  0
  5 14  1  0  0  0  0
  6 20  1  0  0  0  0
  6  5  2  0  0  0  0
  7  6  1  0  0  0  0
  8 21  1  0  0  0  0
  8  7  2  0  0  0  0
  9  8  1  0  0  0  0
 10  9  2  0  0  0  0
 10 11  1  0  0  0  0
 11 12  2  0  0  0  0
 12  7  1  0  0  0  0
 12 13  1  0  0  0  0
 13 14  2  0  0  0  0
 14 26  1  0  0  0  0
 15  5  1  1  0  0  0
 15  3  1  0  0  0  0
 16 27  1  0  0  0  0
 17 16  1  0  0  0  0
 17 18  1  0  0  0  0
 18 31  1  0  0  0  0
 18 29  1  0  0  0  0
 19 33  1  0  0  0  0
 19 17  1  0  0  0  0
 22  9  1  0  0  0  0
 23 10  1  0  0  0  0
 24 11  1  0  0  0  0
 25 13  1  0  0  0  0
 28 16  1  0  0  0  0
 30 18  1  0  0  0  0
 32 19  1  0  0  0  0
 34 19  1  0  0  0  0
 35  1  1  0  0  0  0
 36  1  1  0  0  0  0
 37 51  1  6  0  0  0
 37 36  1  0  0  0  0
 38 37  1  0  0  0  0
 39 38  1  0  0  0  0
 39 50  1  0  0  0  0
 39 40  1  0  0  0  0
 40 36  1  0  0  0  0
 40 45  1  0  0  0  0
 41 43  1  0  0  0  0
 41 40  1  0  0  0  0
 42 41  1  0  0  0  0
 44 41  1  0  0  0  0
 45 48  1  0  0  0  0
 45 46  1  0  0  0  0
 47 45  1  0  0  0  0
 49 39  1  0  0  0  0
 51 52  1  0  0  0  0
 52 53  2  0  0  0  0
 53 58  1  0  0  0  0
 53 54  1  0  0  0  0
 54 55  2  0  0  0  0
 55 56  1  0  0  0  0
 55 65  1  0  0  0  0
 56 64  1  0  0  0  0
 57 63  1  0  0  0  0
 57 56  2  0  0  0  0
 58 57  1  0  0  0  0
 59 62  1  0  0  0  0
 59 58  2  0  0  0  0
 60 51  2  0  0  0  0
 60 59  1  0  0  0  0
 61 60  1  0  0  0  0
 66 54  1  0  0  0  0
 67 52  1  0  0  0  0
M  END
$$$$
