CSD_code = PODPEF | q = 0 | S = 0 | Stoichiometry = C30H29Cl2N3Pt | MND = 4
 OpenBabel04212202083D

 65 70  0  0  0  0  0  0  0  0999 V2000
    3.7998    7.4791    1.7723 Pt  0  0  0  0  0  0  0  0  0  0  0  0
    5.2008    5.7256    2.3403 Cl  0  0  0  0  0  0  0  0  0  0  0  0
    2.2053    6.0447    1.0369 Cl  0  0  0  0  0  0  0  0  0  0  0  0
    2.6015    8.9708    1.1448 C   0  0  0  0  0  0  0  0  0  0  0  0
    1.3999    9.2997    1.5789 N   0  0  0  0  0  0  0  0  0  0  0  0
    0.7821   10.3419    0.7671 C   0  0  0  0  0  0  0  0  0  0  0  0
    0.4350   11.1641    1.3961 H   0  0  0  0  0  0  0  0  0  0  0  0
   -0.0712    9.9323    0.2184 H   0  0  0  0  0  0  0  0  0  0  0  0
    1.9212   10.7610   -0.1708 C   0  0  0  0  0  0  0  0  0  0  0  0
    1.6403   10.7232   -1.2260 H   0  0  0  0  0  0  0  0  0  0  0  0
    2.2901   11.7664    0.0559 H   0  0  0  0  0  0  0  0  0  0  0  0
    2.9406    9.7582    0.1142 N   0  0  0  0  0  0  0  0  0  0  0  0
    5.3441    8.5124    2.1598 C   0  0  0  0  0  2  0  0  0  0  0  0
    6.4222    8.9597    2.0521 N   0  0  0  0  0  2  0  0  0  0  0  0
    0.7279    8.6621    2.6909 C   0  0  0  0  0  0  0  0  0  0  0  0
    1.4518    7.9365    3.0923 H   0  0  0  0  0  0  0  0  0  0  0  0
   -0.5187    7.8980    2.2446 C   0  0  0  0  0  0  0  0  0  0  0  0
   -0.2369    7.1891    1.4649 H   0  0  0  0  0  0  0  0  0  0  0  0
   -1.2616    8.5924    1.8441 H   0  0  0  0  0  0  0  0  0  0  0  0
   -1.1069    7.1524    3.4387 C   0  0  0  0  0  0  0  0  0  0  0  0
   -2.0043    6.6145    3.1289 H   0  0  0  0  0  0  0  0  0  0  0  0
   -0.3815    6.4171    3.7899 H   0  0  0  0  0  0  0  0  0  0  0  0
   -1.4430    8.1213    4.5686 C   0  0  0  0  0  0  0  0  0  0  0  0
   -1.8361    7.5701    5.4244 H   0  0  0  0  0  0  0  0  0  0  0  0
   -2.2186    8.8153    4.2344 H   0  0  0  0  0  0  0  0  0  0  0  0
   -0.2048    8.9088    4.9873 C   0  0  0  0  0  0  0  0  0  0  0  0
    0.5472    8.2218    5.3795 H   0  0  0  0  0  0  0  0  0  0  0  0
   -0.4605    9.6152    5.7796 H   0  0  0  0  0  0  0  0  0  0  0  0
    0.3762    9.6618    3.7931 C   0  0  0  0  0  0  0  0  0  0  0  0
   -0.3655   10.3766    3.4280 H   0  0  0  0  0  0  0  0  0  0  0  0
    1.2709   10.2123    4.0919 H   0  0  0  0  0  0  0  0  0  0  0  0
    4.2045    9.7153   -0.5012 C   0  0  0  0  0  0  0  0  0  0  0  0
    4.9530   10.8506   -0.6823 C   0  0  0  0  0  0  0  0  0  0  0  0
    4.5625   11.8206   -0.4112 H   0  0  0  0  0  0  0  0  0  0  0  0
    6.2694   10.7725   -1.1814 C   0  0  0  0  0  0  0  0  0  0  0  0
    7.0754   11.9189   -1.3393 C   0  0  0  0  0  0  0  0  0  0  0  0
    6.6554   12.8863   -1.1024 H   0  0  0  0  0  0  0  0  0  0  0  0
    8.3659   11.8105   -1.7762 C   0  0  0  0  0  0  0  0  0  0  0  0
    8.9790   12.6921   -1.8898 H   0  0  0  0  0  0  0  0  0  0  0  0
    8.9096   10.5530   -2.0778 C   0  0  0  0  0  0  0  0  0  0  0  0
    9.9337   10.4868   -2.4134 H   0  0  0  0  0  0  0  0  0  0  0  0
    8.1503    9.4241   -1.9452 C   0  0  0  0  0  0  0  0  0  0  0  0
    8.5622    8.4530   -2.1770 H   0  0  0  0  0  0  0  0  0  0  0  0
    6.8161    9.5014   -1.4978 C   0  0  0  0  0  0  0  0  0  0  0  0
    5.9992    8.3584   -1.3646 C   0  0  0  0  0  0  0  0  0  0  0  0
    6.3986    7.3973   -1.6509 H   0  0  0  0  0  0  0  0  0  0  0  0
    4.7231    8.4551   -0.8863 C   0  0  0  0  0  0  0  0  0  0  0  0
    4.0809    7.5817   -0.8494 H   0  0  0  0  0  0  0  0  0  0  0  0
    7.7106    9.2159    1.7202 C   0  0  0  0  0  0  0  0  0  0  0  0
    8.1710   10.5086    1.6420 C   0  0  0  0  0  0  0  0  0  0  0  0
    7.5201   11.3342    1.8889 H   0  0  0  0  0  0  0  0  0  0  0  0
    9.4865   10.7608    1.2136 C   0  0  0  0  0  0  0  0  0  0  0  0
    9.9921   12.0725    1.0947 C   0  0  0  0  0  0  0  0  0  0  0  0
    9.3498   12.9003    1.3580 H   0  0  0  0  0  0  0  0  0  0  0  0
   11.2657   12.2914    0.6506 C   0  0  0  0  0  0  0  0  0  0  0  0
   11.6461   13.2983    0.5594 H   0  0  0  0  0  0  0  0  0  0  0  0
   12.0934   11.2106    0.3090 C   0  0  0  0  0  0  0  0  0  0  0  0
   13.0969   11.4024   -0.0414 H   0  0  0  0  0  0  0  0  0  0  0  0
   11.6346    9.9273    0.4213 C   0  0  0  0  0  0  0  0  0  0  0  0
   12.2696    9.0922    0.1623 H   0  0  0  0  0  0  0  0  0  0  0  0
   10.3262    9.6664    0.8738 C   0  0  0  0  0  0  0  0  0  0  0  0
    9.8232    8.3511    0.9919 C   0  0  0  0  0  0  0  0  0  0  0  0
   10.4711    7.5240    0.7412 H   0  0  0  0  0  0  0  0  0  0  0  0
    8.5463    8.1198    1.4051 C   0  0  0  0  0  0  0  0  0  0  0  0
    8.1402    7.1238    1.4923 H   0  0  0  0  0  0  0  0  0  0  0  0
  1 13  1  0  0  0  0
  1  2  1  0  0  0  0
  3  1  1  0  0  0  0
  4  5  1  0  0  0  0
  4  1  2  0  0  0  0
  5 15  1  0  0  0  0
  6  7  1  0  0  0  0
  6  5  1  0  0  0  0
  8  6  1  0  0  0  0
  9 11  1  0  0  0  0
  9 12  1  0  0  0  0
  9  6  1  0  0  0  0
 10  9  1  0  0  0  0
 12  4  1  0  0  0  0
 14 13  1  0  0  0  0
 15 16  1  0  0  0  0
 15 29  1  0  0  0  0
 17 15  1  0  0  0  0
 17 20  1  0  0  0  0
 18 17  1  0  0  0  0
 19 17  1  0  0  0  0
 20 22  1  0  0  0  0
 20 23  1  0  0  0  0
 21 20  1  0  0  0  0
 23 26  1  0  0  0  0
 23 24  1  0  0  0  0
 25 23  1  0  0  0  0
 26 27  1  0  0  0  0
 26 28  1  0  0  0  0
 29 31  1  0  0  0  0
 29 26  1  0  0  0  0
 30 29  1  0  0  0  0
 32 12  1  0  0  0  0
 33 32  1  0  0  0  0
 33 34  1  0  0  0  0
 35 33  2  0  0  0  0
 36 35  1  0  0  0  0
 36 37  1  0  0  0  0
 38 36  2  0  0  0  0
 39 38  1  0  0  0  0
 40 42  2  0  0  0  0
 40 38  1  0  0  0  0
 41 40  1  0  0  0  0
 42 44  1  0  0  0  0
 43 42  1  0  0  0  0
 44 45  2  0  0  0  0
 44 35  1  0  0  0  0
 45 47  1  0  0  0  0
 46 45  1  0  0  0  0
 47 48  1  0  0  0  0
 47 32  2  0  0  0  0
 49 14  1  0  0  0  0
 50 49  1  0  0  0  0
 50 51  1  0  0  0  0
 52 50  2  0  0  0  0
 53 52  1  0  0  0  0
 53 54  1  0  0  0  0
 55 53  2  0  0  0  0
 56 55  1  0  0  0  0
 57 59  2  0  0  0  0
 57 55  1  0  0  0  0
 58 57  1  0  0  0  0
 59 61  1  0  0  0  0
 60 59  1  0  0  0  0
 61 62  2  0  0  0  0
 61 52  1  0  0  0  0
 62 64  1  0  0  0  0
 63 62  1  0  0  0  0
 64 65  1  0  0  0  0
 64 49  2  0  0  0  0
M  END
$$$$
