CSD_code = PODVIO | q = 0 | S = 0 | Stoichiometry = C12H18I2N2OZn | MND = 4
 OpenBabel04212202083D

 36 37  0  0  0  0  0  0  0  0999 V2000
   11.3607   15.4691    4.9291 Zn  0  0  0  0  0  0  0  0  0  0  0  0
   10.1199   16.9525    6.5686 I   0  0  0  0  0  0  0  0  0  0  0  0
   13.6706   16.3848    4.1367 I   0  0  0  0  0  0  0  0  0  0  0  0
   10.3011   15.4347    3.0790 N   0  0  0  0  0  0  0  0  0  0  0  0
   11.4625   19.5882    2.7663 N   0  0  0  0  0  4  0  0  0  0  0  0
   10.7520   20.2764    2.4945 H   0  0  0  0  0  0  0  0  0  0  0  0
   11.4614   13.6482    5.0622 O   0  0  0  0  0  0  0  0  0  0  0  0
   11.7529   12.9345    4.0411 C   0  0  0  0  0  0  0  0  0  0  0  0
   12.4536   11.7143    4.2312 C   0  0  0  0  0  0  0  0  0  0  0  0
   12.7265   11.4620    5.2456 H   0  0  0  0  0  0  0  0  0  0  0  0
   12.7895   10.9035    3.1853 C   0  0  0  0  0  0  0  0  0  0  0  0
   13.3376    9.9898    3.3669 H   0  0  0  0  0  0  0  0  0  0  0  0
   12.4285   11.2438    1.8755 C   0  0  0  0  0  0  0  0  0  0  0  0
   12.6959   10.5967    1.0541 H   0  0  0  0  0  0  0  0  0  0  0  0
   11.7315   12.3977    1.6534 C   0  0  0  0  0  0  0  0  0  0  0  0
   11.4420   12.6683    0.6457 H   0  0  0  0  0  0  0  0  0  0  0  0
   11.3832   13.2769    2.7013 C   0  0  0  0  0  0  0  0  0  0  0  0
   10.6125   14.4143    2.3511 C   0  0  0  0  0  3  0  0  0  0  0  0
   10.2262   14.3932    1.3218 H   0  0  0  0  0  0  0  0  0  0  0  0
    9.3511   16.3650    2.5097 C   0  0  0  0  0  0  0  0  0  0  0  0
    8.3610   16.1251    2.9163 H   0  0  0  0  0  0  0  0  0  0  0  0
    9.3021   16.2427    1.4158 H   0  0  0  0  0  0  0  0  0  0  0  0
    9.6440   17.8299    2.8555 C   0  0  0  0  0  0  0  0  0  0  0  0
    9.6194   17.9221    3.9386 H   0  0  0  0  0  0  0  0  0  0  0  0
    8.8431   18.4461    2.4402 H   0  0  0  0  0  0  0  0  0  0  0  0
   10.9960   18.2526    2.3001 C   0  0  0  0  0  0  0  0  0  0  0  0
   11.7555   17.5255    2.5958 H   0  0  0  0  0  0  0  0  0  0  0  0
   10.9539   18.2769    1.2083 H   0  0  0  0  0  0  0  0  0  0  0  0
   11.6358   19.6816    4.2288 C   0  0  0  0  0  0  0  0  0  0  0  0
   12.3649   18.9399    4.5532 H   0  0  0  0  0  0  0  0  0  0  0  0
   10.7020   19.5096    4.7571 H   0  0  0  0  0  0  0  0  0  0  0  0
   12.0050   20.6701    4.4909 H   0  0  0  0  0  0  0  0  0  0  0  0
   12.7361   19.9206    2.1046 C   0  0  0  0  0  0  0  0  0  0  0  0
   13.0693   20.9120    2.4027 H   0  0  0  0  0  0  0  0  0  0  0  0
   12.6258   19.8921    1.0227 H   0  0  0  0  0  0  0  0  0  0  0  0
   13.4886   19.1903    2.4050 H   0  0  0  0  0  0  0  0  0  0  0  0
  1  7  1  0  0  0  0
  1  2  1  0  0  0  0
  3  1  1  0  0  0  0
  4  1  1  0  0  0  0
  5 29  1  0  0  0  0
  6  5  1  0  0  0  0
  8  9  1  0  0  0  0
  8  7  1  0  0  0  0
  9 10  1  0  0  0  0
 11 12  1  0  0  0  0
 11  9  2  0  0  0  0
 13 11  1  0  0  0  0
 14 13  1  0  0  0  0
 15 13  2  0  0  0  0
 15 17  1  0  0  0  0
 16 15  1  0  0  0  0
 17  8  2  0  0  0  0
 18 17  1  0  0  0  0
 18  4  1  0  0  0  0
 19 18  1  0  0  0  0
 20 23  1  0  0  0  0
 20 21  1  0  0  0  0
 20  4  1  0  0  0  0
 22 20  1  0  0  0  0
 23 24  1  0  0  0  0
 25 23  1  0  0  0  0
 26 27  1  0  0  0  0
 26  5  1  0  0  0  0
 26 23  1  0  0  0  0
 28 26  1  0  0  0  0
 29 32  1  0  0  0  0
 29 30  1  0  0  0  0
 29 31  1  0  0  0  0
 33 34  1  0  0  0  0
 33 36  1  0  0  0  0
 33  5  1  0  0  0  0
 35 33  1  0  0  0  0
M  END
$$$$
