CSD_code = PODVOW | q = 0 | S = 0 | Stoichiometry = C25H20CdI2N2 | MND = 4
 OpenBabel04212202083D

 50 55  0  0  1  0  0  0  0  0999 V2000
    0.7811    9.2948   12.1234 I   0  0  0  0  0  0  0  0  0  0  0  0
    0.0528    6.5144    8.0573 I   0  0  0  0  0  0  0  0  0  0  0  0
    0.6449    7.0711   10.6118 Cd  0  0  0  0  0  0  0  0  0  0  0  0
    3.3223    5.8285   11.9404 C   0  0  2  0  0  3  0  0  0  0  0  0
   -1.3363    5.7123   12.6542 C   0  0  0  0  0  0  0  0  0  0  0  0
    1.0124    5.5722   12.4337 N   0  0  0  0  0  0  0  0  0  0  0  0
   -2.1724    3.5044   14.5739 C   0  0  0  0  0  0  0  0  0  0  0  0
   -2.1188    3.2321   13.5299 H   0  0  0  0  0  0  0  0  0  0  0  0
    0.0832    4.5263   14.3759 C   0  0  0  0  0  0  0  0  0  0  0  0
    2.9355    6.1818   10.7083 N   0  0  0  0  0  0  0  0  0  0  0  0
   -1.1034    4.1690   15.1687 C   0  0  0  0  0  0  0  0  0  0  0  0
   -3.2936    7.0860   12.8890 C   0  0  0  0  0  0  0  0  0  0  0  0
   -3.8923    7.7622   13.4800 H   0  0  0  0  0  0  0  0  0  0  0  0
    3.8244    6.6752    9.8610 C   0  0  0  0  0  0  0  0  0  0  0  0
    3.4537    6.9196    8.8704 H   0  0  0  0  0  0  0  0  0  0  0  0
   -1.1753    4.5013   16.5179 C   0  0  0  0  0  0  0  0  0  0  0  0
   -0.3587    5.0358   16.9803 H   0  0  0  0  0  0  0  0  0  0  0  0
   -3.6896    6.7489   11.6045 C   0  0  0  0  0  0  0  0  0  0  0  0
   -4.6000    7.1599   11.1946 H   0  0  0  0  0  0  0  0  0  0  0  0
    1.8027    3.3185   15.9007 C   0  0  0  0  0  0  0  0  0  0  0  0
    1.8883    3.9471   16.7910 H   0  0  0  0  0  0  0  0  0  0  0  0
    1.1016    2.5147   16.1222 H   0  0  0  0  0  0  0  0  0  0  0  0
   -2.3003    4.1827   17.2559 C   0  0  0  0  0  0  0  0  0  0  0  0
   -2.3508    4.4541   18.2998 H   0  0  0  0  0  0  0  0  0  0  0  0
   -1.7422    5.3664   11.3638 C   0  0  0  0  0  0  0  0  0  0  0  0
   -1.1667    4.6412   10.7957 H   0  0  0  0  0  0  0  0  0  0  0  0
   -3.2906    3.1785   15.3179 C   0  0  0  0  0  0  0  0  0  0  0  0
   -4.1127    2.6593   14.8486 H   0  0  0  0  0  0  0  0  0  0  0  0
    3.7222    3.9388   14.5544 C   0  0  0  0  0  0  0  0  0  0  0  0
    4.2353    4.6924   15.1591 H   0  0  0  0  0  0  0  0  0  0  0  0
    4.4140    3.5660   13.7994 H   0  0  0  0  0  0  0  0  0  0  0  0
    2.4729    4.5243   13.9612 C   0  0  0  0  0  0  0  0  0  0  0  0
   -0.0359    5.2358   13.1680 C   0  0  1  0  0  3  0  0  0  0  0  0
    2.2657    5.2825   12.8139 C   0  0  0  0  0  0  0  0  0  0  0  0
    1.3687    4.1541   14.7359 C   0  0  0  0  0  0  0  0  0  0  0  0
   -2.9203    5.8814   10.8452 C   0  0  0  0  0  0  0  0  0  0  0  0
   -3.2347    5.6030    9.8494 H   0  0  0  0  0  0  0  0  0  0  0  0
   -3.3590    3.5196   16.6587 C   0  0  0  0  0  0  0  0  0  0  0  0
   -4.2362    3.2702   17.2363 H   0  0  0  0  0  0  0  0  0  0  0  0
    5.5585    6.5549   11.4796 C   0  0  0  0  0  0  0  0  0  0  0  0
    6.5769    6.7251   11.7957 H   0  0  0  0  0  0  0  0  0  0  0  0
   -2.1243    6.5695   13.4174 C   0  0  0  0  0  0  0  0  0  0  0  0
   -1.8058    6.8475   14.4115 H   0  0  0  0  0  0  0  0  0  0  0  0
    5.1567    6.8678   10.1914 C   0  0  0  0  0  0  0  0  0  0  0  0
    5.8474    7.2714    9.4690 H   0  0  0  0  0  0  0  0  0  0  0  0
    3.1856    2.8216   15.4626 C   0  0  0  0  0  0  0  0  0  0  0  0
    3.0773    1.9019   14.8856 H   0  0  0  0  0  0  0  0  0  0  0  0
    3.8445    2.6214   16.3050 H   0  0  0  0  0  0  0  0  0  0  0  0
    4.6354    6.0253   12.3653 C   0  0  0  0  0  0  0  0  0  0  0  0
    4.9259    5.8073   13.3775 H   0  0  0  0  0  0  0  0  0  0  0  0
  2  3  1  0  0  0  0
  3 10  1  0  0  0  0
  3  1  1  0  0  0  0
  3  6  1  0  0  0  0
  4 49  1  1  0  0  0
  4 34  1  0  0  0  0
  5 42  1  0  0  0  0
  6 34  1  0  0  0  0
  6 33  1  0  0  0  0
  7 11  2  0  0  0  0
  7 27  1  0  0  0  0
  8  7  1  0  0  0  0
  9 35  2  0  0  0  0
  9 11  1  0  0  0  0
 10  4  1  0  0  0  0
 11 16  1  0  0  0  0
 12 42  2  0  0  0  0
 12 13  1  0  0  0  0
 14 44  2  0  0  0  0
 14 10  1  0  0  0  0
 15 14  1  0  0  0  0
 16 17  1  0  0  0  0
 16 23  2  0  0  0  0
 18 12  1  0  0  0  0
 19 18  1  0  0  0  0
 20 22  1  0  0  0  0
 20 21  1  0  0  0  0
 23 24  1  0  0  0  0
 25  5  2  0  0  0  0
 26 25  1  0  0  0  0
 27 38  2  0  0  0  0
 28 27  1  0  0  0  0
 29 30  1  0  0  0  0
 29 46  1  0  0  0  0
 31 29  1  0  0  0  0
 32 29  1  0  0  0  0
 32 35  1  0  0  0  0
 33  5  1  1  0  0  0
 33  9  1  0  0  0  0
 34 32  2  0  0  0  0
 35 20  1  0  0  0  0
 36 25  1  0  0  0  0
 36 18  2  0  0  0  0
 37 36  1  0  0  0  0
 38 39  1  0  0  0  0
 38 23  1  0  0  0  0
 40 41  1  0  0  0  0
 40 49  2  0  0  0  0
 42 43  1  0  0  0  0
 44 40  1  0  0  0  0
 45 44  1  0  0  0  0
 46 20  1  0  0  0  0
 46 48  1  0  0  0  0
 47 46  1  0  0  0  0
 49 50  1  0  0  0  0
M  END
$$$$
