CSD_code = POFGUN | q = 0 | S = 0 | Stoichiometry = C14H14I2N2Zn | MND = 4
 OpenBabel04212202083D

 33 35  0  0  0  0  0  0  0  0999 V2000
    9.4306    2.3809    0.2680 Zn  0  0  0  0  0  0  0  0  0  0  0  0
    7.7847    4.0894    1.1287 I   0  0  0  0  0  0  0  0  0  0  0  0
   10.5111    1.7044   -1.8857 I   0  0  0  0  0  0  0  0  0  0  0  0
   11.0905    2.4929    1.6557 N   0  0  0  0  0  0  0  0  0  0  0  0
    8.9641    0.7907    1.6968 N   0  0  0  0  0  0  0  0  0  0  0  0
   12.1832    3.2335    1.5955 C   0  0  0  0  0  3  0  0  0  0  0  0
   12.3318    3.7917    0.6806 H   0  0  0  0  0  0  0  0  0  0  0  0
   13.0994    3.3034    2.6341 C   0  0  0  0  0  0  0  0  0  0  0  0
   13.9775    3.9211    2.5401 H   0  0  0  0  0  0  0  0  0  0  0  0
   12.8549    2.5696    3.7855 C   0  0  0  0  0  0  0  0  0  0  0  0
   13.5418    2.6047    4.6173 H   0  0  0  0  0  0  0  0  0  0  0  0
   11.7136    1.7904    3.8502 C   0  0  0  0  0  0  0  0  0  0  0  0
   11.4866    1.2013    4.7253 H   0  0  0  0  0  0  0  0  0  0  0  0
   10.8501    1.7694    2.7551 C   0  0  0  0  0  0  0  0  0  0  0  0
    9.6462    0.9622    2.7604 C   0  0  0  0  0  3  0  0  0  0  0  0
    9.3600    0.5055    3.7092 H   0  0  0  0  0  0  0  0  0  0  0  0
    7.7402    0.1236    1.7402 C   0  0  0  0  0  0  0  0  0  0  0  0
    7.4128   -0.8116    0.7483 C   0  0  0  0  0  0  0  0  0  0  0  0
    8.3842   -1.2143   -0.3157 C   0  0  0  0  0  0  0  0  0  0  0  0
    9.4149   -1.0892    0.0082 H   0  0  0  0  0  0  0  0  0  0  0  0
    8.2302   -0.6096   -1.2106 H   0  0  0  0  0  0  0  0  0  0  0  0
    8.2312   -2.2542   -0.5956 H   0  0  0  0  0  0  0  0  0  0  0  0
    6.1506   -1.3842    0.7977 C   0  0  0  0  0  0  0  0  0  0  0  0
    5.8832   -2.1131    0.0467 H   0  0  0  0  0  0  0  0  0  0  0  0
    5.2320   -1.0395    1.7730 C   0  0  0  0  0  0  0  0  0  0  0  0
    4.2520   -1.4930    1.7666 H   0  0  0  0  0  0  0  0  0  0  0  0
    5.5531   -0.1100    2.7549 C   0  0  0  0  0  0  0  0  0  0  0  0
    4.5656    0.3044    3.8001 C   0  0  0  0  0  0  0  0  0  0  0  0
    4.2833    1.3460    3.6503 H   0  0  0  0  0  0  0  0  0  0  0  0
    4.9990    0.2178    4.7952 H   0  0  0  0  0  0  0  0  0  0  0  0
    3.6694   -0.3080    3.7527 H   0  0  0  0  0  0  0  0  0  0  0  0
    6.8190    0.4513    2.7356 C   0  0  0  0  0  0  0  0  0  0  0  0
    7.0750    1.2138    3.4586 H   0  0  0  0  0  0  0  0  0  0  0  0
  1  2  1  0  0  0  0
  1  4  1  0  0  0  0
  1  5  1  0  0  0  0
  3  1  1  0  0  0  0
  4 14  1  0  0  0  0
  5 17  1  0  0  0  0
  5 15  1  0  0  0  0
  6  4  1  0  0  0  0
  6  8  1  0  0  0  0
  7  6  1  0  0  0  0
  8 10  2  0  0  0  0
  9  8  1  0  0  0  0
 10 12  1  0  0  0  0
 10 11  1  0  0  0  0
 12 13  1  0  0  0  0
 14 15  1  0  0  0  0
 14 12  2  0  0  0  0
 15 16  1  0  0  0  0
 17 32  1  0  0  0  0
 18 23  1  0  0  0  0
 18 17  2  0  0  0  0
 19 20  1  0  0  0  0
 19 18  1  0  0  0  0
 21 19  1  0  0  0  0
 22 19  1  0  0  0  0
 23 25  2  0  0  0  0
 24 23  1  0  0  0  0
 25 27  1  0  0  0  0
 26 25  1  0  0  0  0
 27 28  1  0  0  0  0
 28 30  1  0  0  0  0
 29 28  1  0  0  0  0
 31 28  1  0  0  0  0
 32 27  2  0  0  0  0
 32 33  1  0  0  0  0
M  END
$$$$
