CSD_code = POFKUR | q = -1 | S = 0 | Stoichiometry = C13H6ClNO5Tc(1-) | MND = 6
 OpenBabel04212202083D

 27 29  0  0  1  0  0  0  0  0999 V2000
    4.9359    9.0336   10.4450 Tc  0  0  0  0  0  0  0  0  0  0  0  0
    5.9263    7.9521   12.3214 Cl  0  0  0  0  0  0  0  0  0  0  0  0
    4.1798    7.3950    9.7768 C   0  0  0  0  0  2  0  0  0  0  0  0
    3.7156    6.4071    9.4074 O   0  0  0  0  0  1  0  0  0  0  0  0
    6.4901    8.7337    9.3661 C   0  0  0  0  0  2  0  0  0  0  0  0
    7.4353    8.5889    8.7103 O   0  0  0  0  0  1  0  0  0  0  0  0
    4.1531   10.0392    9.0153 C   0  0  0  0  0  2  0  0  0  0  0  0
    3.7228   10.6479    8.1288 O   0  0  0  0  0  1  0  0  0  0  0  0
    3.3878    9.5200   11.7728 O   0  0  0  0  0  0  0  0  0  0  0  0
    2.7949   10.7194   13.5347 O   0  0  0  0  0  0  0  0  0  0  0  0
    5.0007   11.0089   12.6214 C   0  0  0  0  0  0  0  0  0  0  0  0
    5.6656   10.7358   11.5129 N   0  0  0  0  0  0  0  0  0  0  0  0
    6.8711   11.3015   11.3060 C   0  0  0  0  0  0  0  0  0  0  0  0
    7.3527   11.0465   10.3710 H   0  0  0  0  0  0  0  0  0  0  0  0
    7.4661   12.1389   12.2022 C   0  0  0  0  0  0  0  0  0  0  0  0
    8.4370   12.5657   11.9958 H   0  0  0  0  0  0  0  0  0  0  0  0
    6.8116   12.4319   13.4169 C   0  0  2  0  0  3  0  0  0  0  0  0
    7.3760   13.2599   14.4057 C   0  0  0  0  0  0  0  0  0  0  0  0
    8.3522   13.6906   14.2270 H   0  0  0  0  0  0  0  0  0  0  0  0
    6.7007   13.5058   15.5691 C   0  0  0  0  0  0  0  0  0  0  0  0
    7.1371   14.1405   16.3287 H   0  0  0  0  0  0  0  0  0  0  0  0
    5.4386   12.9336   15.7868 C   0  0  0  0  0  0  0  0  0  0  0  0
    4.9214   13.1345   16.7145 H   0  0  0  0  0  0  0  0  0  0  0  0
    4.8617   12.1275   14.8441 C   0  0  0  0  0  0  0  0  0  0  0  0
    3.8892   11.6860   14.9947 H   0  0  0  0  0  0  0  0  0  0  0  0
    5.5301   11.8563   13.6316 C   0  0  0  0  0  0  0  0  0  0  0  0
    3.6008   10.3569   12.6824 C   0  0  0  0  0  0  0  0  0  0  0  0
  1 12  1  0  0  0  0
  1  9  1  0  0  0  0
  1  2  1  0  0  0  0
  3  1  1  0  0  0  0
  4  3  1  0  0  0  0
  5  1  1  0  0  0  0
  6  5  1  0  0  0  0
  7  1  1  0  0  0  0
  8  7  1  0  0  0  0
  9 27  1  0  0  0  0
 11 27  1  0  0  0  0
 11 26  2  0  0  0  0
 12 11  1  0  0  0  0
 13 12  1  0  0  0  0
 13 15  2  0  0  0  0
 14 13  1  0  0  0  0
 16 15  1  0  0  0  0
 17 15  1  1  0  0  0
 17 26  1  0  0  0  0
 17 18  1  0  0  0  0
 18 20  2  0  0  0  0
 19 18  1  0  0  0  0
 20 22  1  0  0  0  0
 20 21  1  0  0  0  0
 22 23  1  0  0  0  0
 24 25  1  0  0  0  0
 24 22  2  0  0  0  0
 26 24  1  0  0  0  0
 27 10  2  0  0  0  0
M  END
$$$$
