CSD_code = POFKOL | q = 0 | S = 0 | Stoichiometry = C12H12Cl2N2Zn | MND = 4
 OpenBabel04212202083D

 29 31  0  0  1  0  0  0  0  0999 V2000
  -12.7112  -12.4360   -7.0192 Zn  0  0  0  0  0  0  0  0  0  0  0  0
  -13.6034  -11.2292   -5.4175 Cl  0  0  0  0  0  0  0  0  0  0  0  0
  -13.4748  -13.7939   -8.5643 Cl  0  0  0  0  0  0  0  0  0  0  0  0
  -10.9364  -13.3050   -6.2270 N   0  0  0  0  0  0  0  0  0  0  0  0
  -11.1854  -11.2511   -7.9134 N   0  0  0  0  0  0  0  0  0  0  0  0
  -10.8990  -14.3210   -5.3877 C   0  0  0  0  0  3  0  0  0  0  0  0
  -11.8568  -14.7369   -5.1043 H   0  0  0  0  0  0  0  0  0  0  0  0
   -9.7162  -14.8521   -4.8765 C   0  0  0  0  0  0  0  0  0  0  0  0
   -9.7458  -16.0027   -3.9280 C   0  0  0  0  0  0  0  0  0  0  0  0
  -10.3082  -15.7367   -3.0344 H   0  0  0  0  0  0  0  0  0  0  0  0
   -8.7408  -16.2958   -3.6370 H   0  0  0  0  0  0  0  0  0  0  0  0
  -10.2434  -16.8551   -4.3872 H   0  0  0  0  0  0  0  0  0  0  0  0
   -8.5329  -14.2553   -5.2942 C   0  0  0  0  0  0  0  0  0  0  0  0
   -7.5829  -14.6214   -4.9324 H   0  0  0  0  0  0  0  0  0  0  0  0
   -8.5722  -13.1894   -6.1751 C   0  0  0  0  0  0  0  0  0  0  0  0
   -7.6504  -12.7316   -6.4931 H   0  0  0  0  0  0  0  0  0  0  0  0
   -9.8037  -12.7245   -6.6350 C   0  0  0  0  0  0  0  0  0  0  0  0
   -9.9407  -11.5962   -7.5698 C   0  0  2  0  0  3  0  0  0  0  0  0
   -8.8509  -10.8988   -8.0895 C   0  0  0  0  0  0  0  0  0  0  0  0
   -7.8413  -11.1665   -7.8258 H   0  0  0  0  0  0  0  0  0  0  0  0
   -9.0689   -9.8455   -8.9595 C   0  0  0  0  0  0  0  0  0  0  0  0
   -8.2302   -9.2992   -9.3663 H   0  0  0  0  0  0  0  0  0  0  0  0
  -10.3670   -9.4926   -9.3077 C   0  0  0  0  0  0  0  0  0  0  0  0
  -10.6731   -8.3661  -10.2358 C   0  0  0  0  0  0  0  0  0  0  0  0
  -11.2481   -8.7264  -11.0871 H   0  0  0  0  0  0  0  0  0  0  0  0
   -9.7614   -7.8988  -10.5982 H   0  0  0  0  0  0  0  0  0  0  0  0
  -11.2756   -7.6152   -9.7271 H   0  0  0  0  0  0  0  0  0  0  0  0
  -11.3933  -10.2477   -8.7428 C   0  0  0  0  0  0  0  0  0  0  0  0
  -12.4279  -10.0295   -8.9723 H   0  0  0  0  0  0  0  0  0  0  0  0
  1  4  1  0  0  0  0
  1  2  1  0  0  0  0
  3  1  1  0  0  0  0
  4  6  1  0  0  0  0
  5 18  1  0  0  0  0
  5  1  1  0  0  0  0
  6  7  1  0  0  0  0
  6  8  1  0  0  0  0
  8  9  1  0  0  0  0
  9 11  1  0  0  0  0
  9 10  1  0  0  0  0
 12  9  1  0  0  0  0
 13 14  1  0  0  0  0
 13  8  2  0  0  0  0
 15 13  1  0  0  0  0
 16 15  1  0  0  0  0
 17  4  1  0  0  0  0
 17 15  2  0  0  0  0
 18 19  1  1  0  0  0
 18 17  1  0  0  0  0
 19 20  1  0  0  0  0
 21 19  2  0  0  0  0
 22 21  1  0  0  0  0
 23 21  1  0  0  0  0
 23 28  2  0  0  0  0
 24 27  1  0  0  0  0
 24 23  1  0  0  0  0
 25 24  1  0  0  0  0
 26 24  1  0  0  0  0
 28  5  1  0  0  0  0
 29 28  1  0  0  0  0
M  END
$$$$
