CSD_code = POFVOY | q = 0 | S = 0 | Stoichiometry = C14H18Br2N2Zn | MND = 4
 OpenBabel04212202083D

 37 38  0  0  0  0  0  0  0  0999 V2000
    5.3036    0.9474    0.9350 Br  0  0  0  0  0  0  0  0  0  0  0  0
    3.2445    1.5548   -0.0000 Zn  0  0  0  0  0  0  0  0  0  0  0  0
    4.0119    3.0047   -1.6133 N   0  0  0  0  0  4  0  0  0  0  0  0
    4.8342    3.5063   -1.2842 H   0  0  0  0  0  0  0  0  0  0  0  0
    3.3107    3.6750   -1.9200 H   0  0  0  0  0  0  0  0  0  0  0  0
    4.3711    2.1392   -2.7037 C   0  0  0  0  0  0  0  0  0  0  0  0
    3.4387    1.8302   -3.6837 C   0  0  0  0  0  0  0  0  0  0  0  0
    2.4516    2.2686   -3.6503 H   0  0  0  0  0  0  0  0  0  0  0  0
    3.7675    0.9410   -4.6901 C   0  0  0  0  0  0  0  0  0  0  0  0
    3.0301    0.7021   -5.4417 H   0  0  0  0  0  0  0  0  0  0  0  0
    5.0240    0.3521   -4.7434 C   0  0  0  0  0  0  0  0  0  0  0  0
    5.9506    0.6787   -3.7600 C   0  0  0  0  0  0  0  0  0  0  0  0
    6.9337    0.2323   -3.7820 H   0  0  0  0  0  0  0  0  0  0  0  0
    5.6350    1.5654   -2.7483 C   0  0  0  0  0  0  0  0  0  0  0  0
    6.3643    1.8003   -1.9862 H   0  0  0  0  0  0  0  0  0  0  0  0
    5.3720   -0.6296   -5.8196 C   0  0  0  0  0  0  0  0  0  0  0  0
    4.7013   -0.5299   -6.6693 H   0  0  0  0  0  0  0  0  0  0  0  0
    5.2860   -1.6467   -5.4360 H   0  0  0  0  0  0  0  0  0  0  0  0
    6.3964   -0.4861   -6.1571 H   0  0  0  0  0  0  0  0  0  0  0  0
    1.1855    0.9474   -0.9350 Br  0  0  0  0  0  0  0  0  0  0  0  0
    2.4771    3.0047    1.6133 N   0  0  0  0  0  4  0  0  0  0  0  0
    1.6548    3.5063    1.2842 H   0  0  0  0  0  0  0  0  0  0  0  0
    3.1783    3.6750    1.9200 H   0  0  0  0  0  0  0  0  0  0  0  0
    2.1179    2.1392    2.7037 C   0  0  0  0  0  0  0  0  0  0  0  0
    3.0504    1.8302    3.6837 C   0  0  0  0  0  0  0  0  0  0  0  0
    4.0375    2.2686    3.6503 H   0  0  0  0  0  0  0  0  0  0  0  0
    2.7215    0.9410    4.6901 C   0  0  0  0  0  0  0  0  0  0  0  0
    3.4590    0.7021    5.4417 H   0  0  0  0  0  0  0  0  0  0  0  0
    1.4650    0.3521    4.7434 C   0  0  0  0  0  0  0  0  0  0  0  0
    0.5385    0.6787    3.7600 C   0  0  0  0  0  0  0  0  0  0  0  0
   -0.4446    0.2323    3.7820 H   0  0  0  0  0  0  0  0  0  0  0  0
    0.8540    1.5654    2.7483 C   0  0  0  0  0  0  0  0  0  0  0  0
    0.1247    1.8003    1.9862 H   0  0  0  0  0  0  0  0  0  0  0  0
    1.1170   -0.6296    5.8196 C   0  0  0  0  0  0  0  0  0  0  0  0
    1.7878   -0.5299    6.6693 H   0  0  0  0  0  0  0  0  0  0  0  0
    1.2030   -1.6466    5.4360 H   0  0  0  0  0  0  0  0  0  0  0  0
    0.0926   -0.4861    6.1571 H   0  0  0  0  0  0  0  0  0  0  0  0
  2  1  1  0  0  0  0
  2 21  1  0  0  0  0
  3  4  1  0  0  0  0
  3  2  1  0  0  0  0
  5  3  1  0  0  0  0
  6  3  1  0  0  0  0
  7  8  1  0  0  0  0
  7  6  2  0  0  0  0
  9  7  1  0  0  0  0
 10  9  1  0  0  0  0
 11  9  2  0  0  0  0
 11 12  1  0  0  0  0
 12 14  2  0  0  0  0
 13 12  1  0  0  0  0
 14  6  1  0  0  0  0
 14 15  1  0  0  0  0
 16 18  1  0  0  0  0
 16 11  1  0  0  0  0
 17 16  1  0  0  0  0
 19 16  1  0  0  0  0
 20  2  1  0  0  0  0
 21 23  1  0  0  0  0
 21 24  1  0  0  0  0
 22 21  1  0  0  0  0
 24 32  2  0  0  0  0
 24 25  1  0  0  0  0
 25 27  2  0  0  0  0
 26 25  1  0  0  0  0
 27 29  1  0  0  0  0
 27 28  1  0  0  0  0
 29 34  1  0  0  0  0
 30 31  1  0  0  0  0
 30 29  2  0  0  0  0
 32 30  1  0  0  0  0
 33 32  1  0  0  0  0
 34 37  1  0  0  0  0
 34 35  1  0  0  0  0
 36 34  1  0  0  0  0
M  END
$$$$
