CSD_code = POFXEP | q = 0 | S = 0 | Stoichiometry = C29H32ClNOZr | MND = 13
 OpenBabel04212202083D

 65 68  0  0  1  0  0  0  0  0999 V2000
    0.6561    0.9633    3.9767 Zr  0  0  1  0  0  0  0  0  0  0  0  0
    0.3871    3.1734    4.8760 Cl  0  0  0  0  0  0  0  0  0  0  0  0
    1.5317    0.0891    2.3132 O   0  0  0  0  0  0  0  0  0  0  0  0
    1.2905    2.2491    2.2375 N   0  0  0  0  0  0  0  0  0  0  0  0
   -1.4115   -0.3544    4.7706 C   0  0  0  0  0  0  0  0  0  0  0  0
   -1.0835   -0.8057    3.4739 C   0  0  0  0  0  0  0  0  0  0  0  0
   -1.2903    0.2658    2.5756 C   0  0  0  0  0  0  0  0  0  0  0  0
   -1.7278    1.3827    3.3250 C   0  0  0  0  0  0  0  0  0  0  0  0
   -1.8012    0.9950    4.6802 C   0  0  0  0  0  3  0  0  0  0  0  0
    1.8599    1.1886    1.7282 C   0  0  1  0  0  3  0  0  0  0  0  0
    2.8442    1.1359    0.6212 C   0  0  0  0  0  0  0  0  0  0  0  0
    2.9743    2.1241   -0.3522 C   0  0  0  0  0  0  0  0  0  0  0  0
    2.3298    2.9874   -0.3434 H   0  0  0  0  0  0  0  0  0  0  0  0
    3.9345    1.9977   -1.3404 C   0  0  0  0  0  0  0  0  0  0  0  0
    4.0270    2.7673   -2.0920 H   0  0  0  0  0  0  0  0  0  0  0  0
    4.7746    0.8969   -1.3685 C   0  0  0  0  0  0  0  0  0  0  0  0
    5.5248    0.8083   -2.1401 H   0  0  0  0  0  0  0  0  0  0  0  0
    4.6480   -0.0918   -0.4057 C   0  0  0  0  0  0  0  0  0  0  0  0
    5.2987   -0.9532   -0.4245 H   0  0  0  0  0  0  0  0  0  0  0  0
    3.6872    0.0241    0.5795 C   0  0  0  0  0  0  0  0  0  0  0  0
    3.5716   -0.7381    1.3361 H   0  0  0  0  0  0  0  0  0  0  0  0
    1.5411    3.5857    1.8534 C   0  0  0  0  0  0  0  0  0  0  0  0
    2.6872    4.2514    2.3119 C   0  0  0  0  0  0  0  0  0  0  0  0
    2.9066    5.5612    1.9112 C   0  0  0  0  0  0  0  0  0  0  0  0
    3.7921    6.0779    2.2482 H   0  0  0  0  0  0  0  0  0  0  0  0
    2.0121    6.2162    1.0877 C   0  0  0  0  0  0  0  0  0  0  0  0
    2.2018    7.2336    0.7798 H   0  0  0  0  0  0  0  0  0  0  0  0
    0.8645    5.5681    0.6730 C   0  0  0  0  0  0  0  0  0  0  0  0
    0.1576    6.0891    0.0452 H   0  0  0  0  0  0  0  0  0  0  0  0
    0.6089    4.2579    1.0482 C   0  0  0  0  0  0  0  0  0  0  0  0
   -0.6590    3.5709    0.5970 C   0  0  0  0  0  0  0  0  0  0  0  0
   -0.6768    2.5720    1.0491 H   0  0  0  0  0  0  0  0  0  0  0  0
   -0.7031    3.4053   -0.9243 C   0  0  0  0  0  0  0  0  0  0  0  0
   -0.6382    4.3699   -1.4222 H   0  0  0  0  0  0  0  0  0  0  0  0
   -1.6365    2.9303   -1.2191 H   0  0  0  0  0  0  0  0  0  0  0  0
    0.1203    2.7832   -1.2698 H   0  0  0  0  0  0  0  0  0  0  0  0
   -1.8796    4.3523    1.0915 C   0  0  0  0  0  0  0  0  0  0  0  0
   -1.7913    4.5477    2.1585 H   0  0  0  0  0  0  0  0  0  0  0  0
   -2.7918    3.7881    0.9061 H   0  0  0  0  0  0  0  0  0  0  0  0
   -1.9621    5.3069    0.5778 H   0  0  0  0  0  0  0  0  0  0  0  0
    3.6601    3.5705    3.2447 C   0  0  0  0  0  0  0  0  0  0  0  0
    3.2455    2.5857    3.5071 H   0  0  0  0  0  0  0  0  0  0  0  0
    5.0190    3.3644    2.5698 C   0  0  0  0  0  0  0  0  0  0  0  0
    4.9129    2.7793    1.6579 H   0  0  0  0  0  0  0  0  0  0  0  0
    5.6959    2.8400    3.2414 H   0  0  0  0  0  0  0  0  0  0  0  0
    5.4675    4.3208    2.3118 H   0  0  0  0  0  0  0  0  0  0  0  0
    3.8088    4.3701    4.5420 C   0  0  0  0  0  0  0  0  0  0  0  0
    4.2357    5.3514    4.3518 H   0  0  0  0  0  0  0  0  0  0  0  0
    4.4648    3.8431    5.2324 H   0  0  0  0  0  0  0  0  0  0  0  0
    2.8334    4.4998    5.0061 H   0  0  0  0  0  0  0  0  0  0  0  0
    1.3516   -0.8982    5.6438 C   0  0  0  0  0  0  0  0  0  0  0  0
    2.3884   -0.9533    4.7002 C   0  0  0  0  0  0  0  0  0  0  0  0
    3.0698    0.2798    4.7200 C   0  0  0  0  0  0  0  0  0  0  0  0
    2.4586    1.1002    5.6932 C   0  0  0  0  0  0  0  0  0  0  0  0
    1.3793    0.3766    6.2579 C   0  0  1  0  0  0  0  0  0  0  0  0
    2.6644   -1.8187    4.1143 H   0  0  0  0  0  0  0  0  0  0  0  0
   -0.8322   -1.8216    3.1951 H   0  0  0  0  0  0  0  0  0  0  0  0
   -1.2416    0.1945    1.4942 H   0  0  0  0  0  0  0  0  0  0  0  0
    3.9886    0.4936    4.1860 H   0  0  0  0  0  0  0  0  0  0  0  0
    0.7519   -1.7430    5.9548 H   0  0  0  0  0  0  0  0  0  0  0  0
   -1.5051   -0.9711    5.6551 H   0  0  0  0  0  0  0  0  0  0  0  0
   -2.0751    2.3290    2.9335 H   0  0  0  0  0  0  0  0  0  0  0  0
    0.7905    0.6933    7.1129 H   0  0  0  0  0  0  0  0  0  0  0  0
   -2.1893    1.6032    5.4876 H   0  0  0  0  0  0  0  0  0  0  0  0
    2.8205    2.0580    6.0461 H   0  0  0  0  0  0  0  0  0  0  0  0
  1  2  1  6  0  0  0
  1 55  1  0  0  0  0
  3  1  1  0  0  0  0
  4  1  1  0  0  0  0
  5 61  1  0  0  0  0
  6  5  2  0  0  0  0
  7  8  2  0  0  0  0
  7  6  1  0  0  0  0
  8  9  1  0  0  0  0
  9  5  1  0  0  0  0
  9 64  1  0  0  0  0
 10 11  1  1  0  0  0
 10  4  1  0  0  0  0
 10  3  1  0  0  0  0
 12 13  1  0  0  0  0
 12 11  2  0  0  0  0
 14 12  1  0  0  0  0
 15 14  1  0  0  0  0
 16 14  2  0  0  0  0
 16 18  1  0  0  0  0
 17 16  1  0  0  0  0
 18 20  2  0  0  0  0
 19 18  1  0  0  0  0
 20 11  1  0  0  0  0
 20 21  1  0  0  0  0
 22  4  1  0  0  0  0
 22 23  1  0  0  0  0
 23 41  1  0  0  0  0
 24 25  1  0  0  0  0
 24 23  2  0  0  0  0
 26 24  1  0  0  0  0
 27 26  1  0  0  0  0
 28 30  1  0  0  0  0
 28 26  2  0  0  0  0
 29 28  1  0  0  0  0
 30 22  2  0  0  0  0
 31 30  1  0  0  0  0
 31 32  1  0  0  0  0
 31 37  1  0  0  0  0
 33 31  1  0  0  0  0
 34 33  1  0  0  0  0
 35 33  1  0  0  0  0
 36 33  1  0  0  0  0
 37 38  1  0  0  0  0
 39 37  1  0  0  0  0
 40 37  1  0  0  0  0
 41 42  1  0  0  0  0
 41 47  1  0  0  0  0
 43 45  1  0  0  0  0
 43 41  1  0  0  0  0
 44 43  1  0  0  0  0
 46 43  1  0  0  0  0
 47 50  1  0  0  0  0
 47 49  1  0  0  0  0
 48 47  1  0  0  0  0
 51 60  1  0  0  0  0
 51 55  1  0  0  0  0
 52 53  1  0  0  0  0
 52 51  2  0  0  0  0
 53 54  2  0  0  0  0
 54 65  1  0  0  0  0
 54 55  1  0  0  0  0
 55 63  1  1  0  0  0
 56 52  1  0  0  0  0
 57  6  1  0  0  0  0
 58  7  1  0  0  0  0
 59 53  1  0  0  0  0
 62  8  1  0  0  0  0
M  END
$$$$
