CSD_code = POGJOK | q = 0 | S = 0 | Stoichiometry = C26H20Cl2N2NiO2 | MND = 4
 OpenBabel04212202083D

 53 58  0  0  0  0  0  0  0  0999 V2000
   11.2965    4.1328    5.5374 Ni  0  0  0  0  0  0  0  0  0  0  0  0
   12.1892    3.5771    7.1251 N   0  0  0  0  0  0  0  0  0  0  0  0
   10.6357    2.2218    5.0957 Cl  0  0  0  0  0  0  0  0  0  0  0  0
   13.9046    0.2223    6.6026 O   0  0  0  0  0  0  0  0  0  0  0  0
   13.3087    2.8631    7.0772 C   0  0  0  0  0  0  0  0  0  0  0  0
   13.9844    2.4954    8.2525 C   0  0  0  0  0  0  0  0  0  0  0  0
   13.4710    2.8461    9.4718 C   0  0  0  0  0  0  0  0  0  0  0  0
   12.2528    3.5443    9.5339 C   0  0  0  0  0  0  0  0  0  0  0  0
   11.6331    3.9031   10.7631 C   0  0  0  0  0  0  0  0  0  0  0  0
   11.6366    3.8915    8.3123 C   0  0  0  0  0  0  0  0  0  0  0  0
   13.7817    2.4192    5.7570 C   0  0  0  0  0  0  0  0  0  0  0  0
   14.0274    1.0516    5.5312 C   0  0  0  0  0  0  0  0  0  0  0  0
   14.3528    0.6290    4.2475 C   0  0  0  0  0  0  0  0  0  0  0  0
   14.4499    1.5399    3.2097 C   0  0  0  0  0  0  0  0  0  0  0  0
   14.2322    2.8872    3.4318 C   0  0  0  0  0  0  0  0  0  0  0  0
   13.8877    3.3233    4.7003 C   0  0  0  0  0  0  0  0  0  0  0  0
   13.8885   -1.1680    6.3788 C   0  0  0  0  0  0  0  0  0  0  0  0
   14.9045    1.9414    8.1685 H   0  0  0  0  0  0  0  0  0  0  0  0
   13.9800    2.5819   10.3872 H   0  0  0  0  0  0  0  0  0  0  0  0
   12.1331    3.6286   11.6802 H   0  0  0  0  0  0  0  0  0  0  0  0
   14.5244   -0.4162    4.0452 H   0  0  0  0  0  0  0  0  0  0  0  0
   14.6997    1.1860    2.2205 H   0  0  0  0  0  0  0  0  0  0  0  0
   14.3201    3.5969    2.6240 H   0  0  0  0  0  0  0  0  0  0  0  0
   13.7740    4.3860    4.8942 H   0  0  0  0  0  0  0  0  0  0  0  0
   13.6573   -1.6158    7.3442 H   0  0  0  0  0  0  0  0  0  0  0  0
   13.1162   -1.4457    5.6564 H   0  0  0  0  0  0  0  0  0  0  0  0
   14.8624   -1.5335    6.0364 H   0  0  0  0  0  0  0  0  0  0  0  0
    9.8091    4.8973    7.1695 N   0  0  0  0  0  0  0  0  0  0  0  0
   11.9790    6.0949    5.4458 Cl  0  0  0  0  0  0  0  0  0  0  0  0
   10.4532    4.5704   10.7870 C   0  0  0  0  0  0  0  0  0  0  0  0
   10.3772    4.5861    8.3397 C   0  0  0  0  0  0  0  0  0  0  0  0
    8.6946    5.6113    7.1372 C   0  0  0  0  0  0  0  0  0  0  0  0
    9.7954    4.9267    9.5797 C   0  0  0  0  0  0  0  0  0  0  0  0
    9.9900    4.8443   11.7237 H   0  0  0  0  0  0  0  0  0  0  0  0
    8.0242    5.9596    8.3285 C   0  0  0  0  0  0  0  0  0  0  0  0
    8.2346    6.0186    5.8058 C   0  0  0  0  0  0  0  0  0  0  0  0
    8.5654    5.6081    9.5361 C   0  0  0  0  0  0  0  0  0  0  0  0
    7.0873    6.4870    8.2756 H   0  0  0  0  0  0  0  0  0  0  0  0
    7.5919    7.2503    5.5696 C   0  0  0  0  0  0  0  0  0  0  0  0
    8.5310    5.1973    4.7183 C   0  0  0  0  0  0  0  0  0  0  0  0
    8.0642    5.8551   10.4615 H   0  0  0  0  0  0  0  0  0  0  0  0
    7.3503    8.0511    6.6441 O   0  0  0  0  0  0  0  0  0  0  0  0
    7.2621    7.6023    4.2646 C   0  0  0  0  0  0  0  0  0  0  0  0
    8.1946    5.5544    3.4280 C   0  0  0  0  0  0  0  0  0  0  0  0
    9.0091    4.2373    4.9070 H   0  0  0  0  0  0  0  0  0  0  0  0
    6.9031    9.3680    6.4257 C   0  0  0  0  0  0  0  0  0  0  0  0
    7.5572    6.7620    3.2059 C   0  0  0  0  0  0  0  0  0  0  0  0
    6.7738    8.5424    4.0623 H   0  0  0  0  0  0  0  0  0  0  0  0
    8.4301    4.8984    2.6045 H   0  0  0  0  0  0  0  0  0  0  0  0
    6.8893    9.8373    7.4086 H   0  0  0  0  0  0  0  0  0  0  0  0
    7.5841    9.9200    5.7716 H   0  0  0  0  0  0  0  0  0  0  0  0
    5.8927    9.3874    6.0041 H   0  0  0  0  0  0  0  0  0  0  0  0
    7.2891    7.0613    2.2035 H   0  0  0  0  0  0  0  0  0  0  0  0
  1  2  1  0  0  0  0
  1 28  1  0  0  0  0
  2 10  1  0  0  0  0
  3  1  1  0  0  0  0
  5  2  1  0  0  0  0
  5  6  2  0  0  0  0
  6  7  1  0  0  0  0
  7  8  2  0  0  0  0
  7 19  1  0  0  0  0
  8  9  1  0  0  0  0
  9 30  2  0  0  0  0
  9 20  1  0  0  0  0
 10 31  2  0  0  0  0
 10  8  1  0  0  0  0
 11  5  1  0  0  0  0
 12 11  1  0  0  0  0
 12  4  1  0  0  0  0
 13 12  2  0  0  0  0
 14 15  2  0  0  0  0
 14 13  1  0  0  0  0
 15 16  1  0  0  0  0
 16 24  1  0  0  0  0
 16 11  2  0  0  0  0
 17  4  1  0  0  0  0
 17 25  1  0  0  0  0
 18  6  1  0  0  0  0
 21 13  1  0  0  0  0
 22 14  1  0  0  0  0
 23 15  1  0  0  0  0
 26 17  1  0  0  0  0
 27 17  1  0  0  0  0
 28 31  1  0  0  0  0
 29  1  1  0  0  0  0
 30 34  1  0  0  0  0
 31 33  1  0  0  0  0
 32 28  1  0  0  0  0
 32 35  2  0  0  0  0
 33 30  1  0  0  0  0
 35 37  1  0  0  0  0
 36 32  1  0  0  0  0
 37 33  2  0  0  0  0
 37 41  1  0  0  0  0
 38 35  1  0  0  0  0
 39 36  1  0  0  0  0
 39 42  1  0  0  0  0
 40 45  1  0  0  0  0
 40 36  2  0  0  0  0
 43 39  2  0  0  0  0
 44 40  1  0  0  0  0
 46 42  1  0  0  0  0
 46 50  1  0  0  0  0
 47 44  2  0  0  0  0
 47 43  1  0  0  0  0
 48 43  1  0  0  0  0
 49 44  1  0  0  0  0
 51 46  1  0  0  0  0
 52 46  1  0  0  0  0
 53 47  1  0  0  0  0
M  END
$$$$
