CSD_code = POGTOW | q = 0 | S = 0 | Stoichiometry = C22H24AuClN2 | MND = 2
 OpenBabel04212202083D

 50 54  0  0  1  0  0  0  0  0999 V2000
    5.4094    7.4027   12.8181 Au  0  0  0  0  0  0  0  0  0  0  0  0
    6.6925    6.7350   14.5410 Cl  0  0  0  0  0  0  0  0  0  0  0  0
    2.9082    8.0869   11.4248 N   0  0  0  0  0  0  0  0  0  0  0  0
    4.7064    8.0780   10.0223 N   0  0  0  0  0  0  0  0  0  0  0  0
    4.2191    7.9643   11.2604 C   0  0  2  0  0  3  0  0  0  0  0  0
    1.9338    8.5487   10.4375 C   0  0  2  0  0  0  0  0  0  0  0  0
    1.1806    7.7653   10.3071 H   0  0  0  0  0  0  0  0  0  0  0  0
    2.5896    8.9395    9.1012 C   0  0  2  0  0  0  0  0  0  0  0  0
    3.8472    8.1008    8.8573 C   0  0  2  0  0  0  0  0  0  0  0  0
    4.4141    8.5326    8.0261 H   0  0  0  0  0  0  0  0  0  0  0  0
    2.3535    7.8243   12.7127 C   0  0  0  0  0  0  0  0  0  0  0  0
    1.5072    6.7388   12.8824 C   0  0  0  0  0  0  0  0  0  0  0  0
    1.2863    6.0907   12.0468 H   0  0  0  0  0  0  0  0  0  0  0  0
    0.9697    6.4722   14.1298 C   0  0  0  0  0  0  0  0  0  0  0  0
    0.3216    5.6188   14.2603 H   0  0  0  0  0  0  0  0  0  0  0  0
    1.2701    7.2888   15.2056 C   0  0  0  0  0  0  0  0  0  0  0  0
    0.8547    7.0749   16.1784 H   0  0  0  0  0  0  0  0  0  0  0  0
    2.1083    8.3781   15.0343 C   0  0  0  0  0  0  0  0  0  0  0  0
    2.3462    9.0167   15.8709 H   0  0  0  0  0  0  0  0  0  0  0  0
    2.6490    8.6493   13.7912 C   0  0  0  0  0  0  0  0  0  0  0  0
    3.3017    9.4976   13.6522 H   0  0  0  0  0  0  0  0  0  0  0  0
    1.2967    9.8595   10.9156 C   0  0  0  0  0  0  0  0  0  0  0  0
    1.0402    9.8401   11.9731 H   0  0  0  0  0  0  0  0  0  0  0  0
    0.3887   10.0450   10.3403 H   0  0  0  0  0  0  0  0  0  0  0  0
    2.3594   10.8965   10.5707 C   0  0  0  0  0  0  0  0  0  0  0  0
    3.1730   10.8446   11.2959 H   0  0  0  0  0  0  0  0  0  0  0  0
    1.9691   11.9122   10.5694 H   0  0  0  0  0  0  0  0  0  0  0  0
    2.8487   10.4572    9.1878 C   0  0  0  0  0  0  0  0  0  0  0  0
    2.2840   10.9706    8.4090 H   0  0  0  0  0  0  0  0  0  0  0  0
    3.9041   10.6889    9.0436 H   0  0  0  0  0  0  0  0  0  0  0  0
    1.7041    8.5170    7.9246 C   0  0  0  0  0  0  0  0  0  0  0  0
    2.0238    9.0522    7.0293 H   0  0  0  0  0  0  0  0  0  0  0  0
    0.6540    8.7469    8.0990 H   0  0  0  0  0  0  0  0  0  0  0  0
    1.9531    7.0101    7.7559 C   0  0  0  0  0  0  0  0  0  0  0  0
    1.1513    6.4283    8.2094 H   0  0  0  0  0  0  0  0  0  0  0  0
    1.9914    6.7415    6.7015 H   0  0  0  0  0  0  0  0  0  0  0  0
    3.2944    6.7222    8.4542 C   0  0  0  0  0  0  0  0  0  0  0  0
    3.9803    6.1869    7.8003 H   0  0  0  0  0  0  0  0  0  0  0  0
    3.1508    6.1162    9.3500 H   0  0  0  0  0  0  0  0  0  0  0  0
    6.7222    7.3383    8.8682 C   0  0  0  0  0  0  0  0  0  0  0  0
    6.1422    6.6266    8.3017 H   0  0  0  0  0  0  0  0  0  0  0  0
    8.0893    7.4246    8.6745 C   0  0  0  0  0  0  0  0  0  0  0  0
    8.5647    6.7840    7.9469 H   0  0  0  0  0  0  0  0  0  0  0  0
    8.8460    8.3153    9.4159 C   0  0  0  0  0  0  0  0  0  0  0  0
    9.9134    8.3726    9.2676 H   0  0  0  0  0  0  0  0  0  0  0  0
    8.2286    9.1336   10.3464 C   0  0  0  0  0  0  0  0  0  0  0  0
    8.8103    9.8360   10.9230 H   0  0  0  0  0  0  0  0  0  0  0  0
    6.8618    9.0579   10.5405 C   0  0  0  0  0  0  0  0  0  0  0  0
    6.3752    9.7099   11.2493 H   0  0  0  0  0  0  0  0  0  0  0  0
    6.1033    8.1471    9.8123 C   0  0  0  0  0  0  0  0  0  0  0  0
  1  2  1  0  0  0  0
  3 11  1  0  0  0  0
  4  5  1  0  0  0  0
  5  3  1  0  0  0  0
  5  1  1  6  0  0  0
  6  7  1  6  0  0  0
  6 22  1  0  0  0  0
  6  3  1  0  0  0  0
  8 31  1  6  0  0  0
  8 28  1  0  0  0  0
  8  6  1  0  0  0  0
  9 10  1  6  0  0  0
  9  8  1  0  0  0  0
  9  4  1  0  0  0  0
 11 12  2  0  0  0  0
 11 20  1  0  0  0  0
 12 14  1  0  0  0  0
 13 12  1  0  0  0  0
 14 15  1  0  0  0  0
 14 16  2  0  0  0  0
 16 17  1  0  0  0  0
 18 16  1  0  0  0  0
 18 19  1  0  0  0  0
 20 18  2  0  0  0  0
 21 20  1  0  0  0  0
 22 23  1  0  0  0  0
 24 22  1  0  0  0  0
 25 22  1  0  0  0  0
 25 26  1  0  0  0  0
 27 25  1  0  0  0  0
 28 25  1  0  0  0  0
 29 28  1  0  0  0  0
 30 28  1  0  0  0  0
 31 33  1  0  0  0  0
 32 31  1  0  0  0  0
 34 31  1  0  0  0  0
 34 35  1  0  0  0  0
 34 37  1  0  0  0  0
 36 34  1  0  0  0  0
 37  9  1  0  0  0  0
 37 39  1  0  0  0  0
 38 37  1  0  0  0  0
 40 50  1  0  0  0  0
 41 40  1  0  0  0  0
 42 40  2  0  0  0  0
 42 44  1  0  0  0  0
 43 42  1  0  0  0  0
 44 46  2  0  0  0  0
 45 44  1  0  0  0  0
 46 48  1  0  0  0  0
 46 47  1  0  0  0  0
 48 49  1  0  0  0  0
 50  4  1  0  0  0  0
 50 48  2  0  0  0  0
M  END
$$$$
