CSD_code = POHKON | q = 0 | S = 0 | Stoichiometry = C14H16Cl2F2N2Pd | MND = 4
 OpenBabel04212202083D

 37 38  0  0  0  0  0  0  0  0999 V2000
    0.0015   -0.0016    0.0009 Pd  0  0  0  0  0  0  0  0  0  0  0  0
    0.8974   -0.5499   -2.0287 Cl  0  0  0  0  0  0  0  0  0  0  0  0
    1.7548    0.9015    0.5096 N   0  0  0  0  0  4  0  0  0  0  0  0
    1.9415    0.8375    1.5153 H   0  0  0  0  0  0  0  0  0  0  0  0
    2.5291    0.4706   -0.0069 H   0  0  0  0  0  0  0  0  0  0  0  0
    1.6262    2.3198    0.1147 C   0  0  0  0  0  0  0  0  0  0  0  0
    0.8004    2.7569    0.6912 H   0  0  0  0  0  0  0  0  0  0  0  0
    1.3798    2.3472   -0.9567 H   0  0  0  0  0  0  0  0  0  0  0  0
    2.9094    3.0684    0.3745 C   0  0  0  0  0  0  0  0  0  0  0  0
    3.9383    3.0250   -0.5600 C   0  0  0  0  0  0  0  0  0  0  0  0
    3.7953    2.4922   -1.4888 H   0  0  0  0  0  0  0  0  0  0  0  0
    5.1396    3.6645   -0.3164 C   0  0  0  0  0  0  0  0  0  0  0  0
    5.9447    3.6436   -1.0333 H   0  0  0  0  0  0  0  0  0  0  0  0
    5.2978    4.3456    0.8776 C   0  0  0  0  0  0  0  0  0  0  0  0
    4.2932    4.4020    1.8269 C   0  0  0  0  0  0  0  0  0  0  0  0
    4.4524    4.9437    2.7456 H   0  0  0  0  0  0  0  0  0  0  0  0
    6.4645    4.9724    1.1227 F   0  0  0  0  0  0  0  0  0  0  0  0
    3.0983    3.7555    1.5675 C   0  0  0  0  0  0  0  0  0  0  0  0
    2.3028    3.7910    2.2971 H   0  0  0  0  0  0  0  0  0  0  0  0
   -0.8945    0.5475    2.0303 Cl  0  0  0  0  0  0  0  0  0  0  0  0
   -1.7520   -0.9042   -0.5083 N   0  0  0  0  0  4  0  0  0  0  0  0
   -1.9382   -0.8396   -1.5141 H   0  0  0  0  0  0  0  0  0  0  0  0
   -2.5260   -0.4725    0.0080 H   0  0  0  0  0  0  0  0  0  0  0  0
   -1.6253   -2.3227   -0.1138 C   0  0  0  0  0  0  0  0  0  0  0  0
   -0.7999   -2.7608   -0.6901 H   0  0  0  0  0  0  0  0  0  0  0  0
   -1.3793   -2.3507    0.9577 H   0  0  0  0  0  0  0  0  0  0  0  0
   -2.9096   -3.0692   -0.3743 C   0  0  0  0  0  0  0  0  0  0  0  0
   -3.9389   -3.0242    0.5596 C   0  0  0  0  0  0  0  0  0  0  0  0
   -3.7955   -2.4919    1.4886 H   0  0  0  0  0  0  0  0  0  0  0  0
   -5.1413   -3.6614    0.3152 C   0  0  0  0  0  0  0  0  0  0  0  0
   -5.9466   -3.6392    1.0317 H   0  0  0  0  0  0  0  0  0  0  0  0
   -5.3000   -4.3419   -0.8791 C   0  0  0  0  0  0  0  0  0  0  0  0
   -4.2950   -4.3999   -1.8279 C   0  0  0  0  0  0  0  0  0  0  0  0
   -4.4548   -4.9409   -2.7468 H   0  0  0  0  0  0  0  0  0  0  0  0
   -6.4678   -4.9664   -1.1250 F   0  0  0  0  0  0  0  0  0  0  0  0
   -3.0990   -3.7556   -1.5677 C   0  0  0  0  0  0  0  0  0  0  0  0
   -2.3033   -3.7923   -2.2969 H   0  0  0  0  0  0  0  0  0  0  0  0
  1  3  1  0  0  0  0
  1 20  1  0  0  0  0
  2  1  1  0  0  0  0
  3  4  1  0  0  0  0
  5  3  1  0  0  0  0
  6  9  1  0  0  0  0
  6  3  1  0  0  0  0
  6  7  1  0  0  0  0
  8  6  1  0  0  0  0
  9 18  1  0  0  0  0
 10 12  1  0  0  0  0
 10  9  2  0  0  0  0
 11 10  1  0  0  0  0
 12 14  2  0  0  0  0
 13 12  1  0  0  0  0
 14 17  1  0  0  0  0
 14 15  1  0  0  0  0
 15 16  1  0  0  0  0
 18 15  2  0  0  0  0
 18 19  1  0  0  0  0
 21 24  1  0  0  0  0
 21  1  1  0  0  0  0
 21 23  1  0  0  0  0
 22 21  1  0  0  0  0
 24 26  1  0  0  0  0
 25 24  1  0  0  0  0
 27 24  1  0  0  0  0
 27 28  1  0  0  0  0
 28 29  1  0  0  0  0
 30 28  2  0  0  0  0
 30 31  1  0  0  0  0
 32 30  1  0  0  0  0
 33 36  1  0  0  0  0
 33 32  2  0  0  0  0
 34 33  1  0  0  0  0
 35 32  1  0  0  0  0
 36 27  2  0  0  0  0
 37 36  1  0  0  0  0
M  END
$$$$
