CSD_code = POHXIU | q = 0 | S = 0 | Stoichiometry = C8H16Cl2N2O8Pt | MND = 6
 OpenBabel04212202083D

 37 36  0  0  0  0  0  0  0  0999 V2000
   12.9303    2.8543    8.1440 Pt  0  0  0  0  0  0  0  0  0  0  0  0
   14.5703    4.0421    7.0954 Cl  0  0  0  0  0  0  0  0  0  0  0  0
   14.0088    0.8706    7.8170 Cl  0  0  0  0  0  0  0  0  0  0  0  0
   12.1015    2.5037    6.2886 O   0  0  0  0  0  0  0  0  0  0  0  0
   10.1072    3.0629    7.0593 O   0  0  0  0  0  0  0  0  0  0  0  0
    8.5795    3.3867    2.7303 O   0  0  0  0  0  0  0  0  0  0  0  0
    7.0071    1.9083    3.2865 O   0  0  0  0  0  0  0  0  0  0  0  0
    6.5712    2.2322    2.4823 H   0  0  0  0  0  0  0  0  0  0  0  0
   13.8759    3.0866    9.9848 O   0  0  0  0  0  0  0  0  0  0  0  0
   12.1515    4.0874   10.9613 O   0  0  0  0  0  0  0  0  0  0  0  0
   15.3539    0.4994   10.4946 O   0  0  0  0  0  0  0  0  0  0  0  0
   15.0178    0.0414    9.6953 H   0  0  0  0  0  0  0  0  0  0  0  0
   13.2136    0.6406   11.0984 O   0  0  0  0  0  0  0  0  0  0  0  0
   11.9142    4.7159    8.3523 N   0  0  0  0  0  4  0  0  0  0  0  0
   11.8258    4.8441    9.3741 H   0  0  0  0  0  0  0  0  0  0  0  0
   10.9879    4.6186    7.9312 H   0  0  0  0  0  0  0  0  0  0  0  0
   12.4298    5.4844    7.9291 H   0  0  0  0  0  0  0  0  0  0  0  0
   11.4302    1.7030    9.2098 N   0  0  0  0  0  4  0  0  0  0  0  0
   11.9278    1.1364    9.9132 H   0  0  0  0  0  0  0  0  0  0  0  0
   10.9070    1.0848    8.5948 H   0  0  0  0  0  0  0  0  0  0  0  0
   10.7765    2.3205    9.6870 H   0  0  0  0  0  0  0  0  0  0  0  0
   10.8473    2.6840    6.1564 C   0  0  0  0  0  0  0  0  0  0  0  0
   10.3330    2.4055    4.7504 C   0  0  0  0  0  0  0  0  0  0  0  0
   10.5009    3.3163    4.1673 H   0  0  0  0  0  0  0  0  0  0  0  0
   10.9334    1.6135    4.3053 H   0  0  0  0  0  0  0  0  0  0  0  0
    8.8440    2.0837    4.7469 C   0  0  0  0  0  0  0  0  0  0  0  0
    8.6481    1.0207    4.8854 H   0  0  0  0  0  0  0  0  0  0  0  0
    8.3701    2.6184    5.5777 H   0  0  0  0  0  0  0  0  0  0  0  0
    8.1683    2.5450    3.4806 C   0  0  0  0  0  0  0  0  0  0  0  0
   13.2213    3.4847   11.0032 C   0  0  0  0  0  0  0  0  0  0  0  0
   13.8376    3.1278   12.3568 C   0  0  0  0  0  0  0  0  0  0  0  0
   13.0021    2.8524   13.0022 H   0  0  0  0  0  0  0  0  0  0  0  0
   14.3024    4.0237   12.7699 H   0  0  0  0  0  0  0  0  0  0  0  0
   14.8520    1.9898   12.2457 C   0  0  0  0  0  0  0  0  0  0  0  0
   15.8221    2.3537   11.9107 H   0  0  0  0  0  0  0  0  0  0  0  0
   14.9728    1.5008   13.2136 H   0  0  0  0  0  0  0  0  0  0  0  0
   14.3735    0.9768   11.2260 C   0  0  0  0  0  0  0  0  0  0  0  0
  1 14  1  0  0  0  0
  1 18  1  0  0  0  0
  1  9  1  0  0  0  0
  2  1  1  0  0  0  0
  3  1  1  0  0  0  0
  4  1  1  0  0  0  0
  6 29  2  0  0  0  0
  7 29  1  0  0  0  0
  8  7  1  0  0  0  0
  9 30  1  0  0  0  0
 10 30  2  0  0  0  0
 11 37  1  0  0  0  0
 12 11  1  0  0  0  0
 13 37  2  0  0  0  0
 14 15  1  0  0  0  0
 16 14  1  0  0  0  0
 17 14  1  0  0  0  0
 18 21  1  0  0  0  0
 18 19  1  0  0  0  0
 20 18  1  0  0  0  0
 22  4  1  0  0  0  0
 22  5  2  0  0  0  0
 23 22  1  0  0  0  0
 24 23  1  0  0  0  0
 25 23  1  0  0  0  0
 26 23  1  0  0  0  0
 26 27  1  0  0  0  0
 26 28  1  0  0  0  0
 29 26  1  0  0  0  0
 30 31  1  0  0  0  0
 31 33  1  0  0  0  0
 31 32  1  0  0  0  0
 34 31  1  0  0  0  0
 34 36  1  0  0  0  0
 35 34  1  0  0  0  0
 37 34  1  0  0  0  0
M  END
$$$$
