CSD_code = POHXAM | q = 1 | S = 0 | Stoichiometry = C32H32ClN4Os(1+) | MND = 9
 OpenBabel04212202083D

 70 76  0  0  1  0  0  0  0  0999 V2000
    7.8519   12.4702    4.0132 Os  0  0  1  0  0  0  0  0  0  0  0  0
    8.0427   14.7198    3.7461 Cl  0  0  0  0  0  0  0  0  0  0  0  0
   12.7986   15.2078    1.3207 N   0  0  0  0  0  0  0  0  0  0  0  0
   13.6727   15.7045    1.2929 H   0  0  0  0  0  0  0  0  0  0  0  0
   12.0758   12.4488    4.4213 N   0  0  0  0  0  0  0  0  0  0  0  0
   12.1587   12.2978    5.4177 H   0  0  0  0  0  0  0  0  0  0  0  0
    9.7665   12.4924    4.6691 N   0  0  1  0  0  0  0  0  0  0  0  0
    7.4854   12.6675    5.9191 N   0  0  0  0  0  0  0  0  0  0  0  0
    9.0526   16.0275   -0.1141 C   0  0  0  0  0  0  0  0  0  0  0  0
    8.0534   16.2067   -0.4817 H   0  0  0  0  0  0  0  0  0  0  0  0
   10.0545   16.9590   -0.4074 C   0  0  0  0  0  0  0  0  0  0  0  0
    9.8047   17.8309   -0.9919 H   0  0  0  0  0  0  0  0  0  0  0  0
   11.3486   16.7838    0.0303 C   0  0  0  0  0  0  0  0  0  0  0  0
   12.1222   17.5000   -0.2004 H   0  0  0  0  0  0  0  0  0  0  0  0
   11.6242   15.6476    0.7808 C   0  0  0  0  0  0  0  0  0  0  0  0
   12.5761   14.0329    1.9911 C   0  0  0  0  0  0  0  0  0  0  0  0
   13.6105   13.2739    2.6557 C   0  0  0  0  0  0  0  0  0  0  0  0
   14.9280   13.3143    2.1875 C   0  0  0  0  0  0  0  0  0  0  0  0
   15.1515   13.9099    1.3156 H   0  0  0  0  0  0  0  0  0  0  0  0
   15.9328   12.5946    2.7970 C   0  0  0  0  0  0  0  0  0  0  0  0
   16.9387   12.6381    2.4110 H   0  0  0  0  0  0  0  0  0  0  0  0
   15.6462   11.8161    3.9093 C   0  0  0  0  0  0  0  0  0  0  0  0
   16.4255   11.2520    4.3961 H   0  0  0  0  0  0  0  0  0  0  0  0
   14.3567   11.7718    4.3975 C   0  0  0  0  0  0  0  0  0  0  0  0
   14.1340   11.1793    5.2740 H   0  0  0  0  0  0  0  0  0  0  0  0
   13.3286   12.4809    3.7791 C   0  0  0  0  0  0  0  0  0  0  0  0
   10.8283   12.4669    3.9169 C   0  0  2  0  0  3  0  0  0  0  0  0
    9.9072   12.6311    6.1141 C   0  0  0  0  0  0  0  0  0  0  0  0
   10.4966   13.5260    6.3560 H   0  0  0  0  0  0  0  0  0  0  0  0
   10.4093   11.7515    6.5455 H   0  0  0  0  0  0  0  0  0  0  0  0
    8.5465   12.7681    6.7476 C   0  0  1  0  0  3  0  0  0  0  0  0
    8.4028   12.9993    8.1039 C   0  0  0  0  0  0  0  0  0  0  0  0
    9.2811   13.0668    8.7262 H   0  0  0  0  0  0  0  0  0  0  0  0
    7.1363   13.1570    8.6456 C   0  0  0  0  0  0  0  0  0  0  0  0
    7.0049   13.3418    9.6986 H   0  0  0  0  0  0  0  0  0  0  0  0
    6.0484   13.0917    7.7868 C   0  0  0  0  0  0  0  0  0  0  0  0
    5.0437   13.2321    8.1499 H   0  0  0  0  0  0  0  0  0  0  0  0
    6.2642   12.8522    6.4457 C   0  0  0  0  0  0  0  0  0  0  0  0
    5.4303   12.8210    5.7588 H   0  0  0  0  0  0  0  0  0  0  0  0
   10.6656   12.4324    2.4263 C   0  0  0  0  0  0  0  0  0  0  0  0
    9.5996   12.3694    2.1741 H   0  0  0  0  0  0  0  0  0  0  0  0
   11.1878   11.5569    2.0257 H   0  0  0  0  0  0  0  0  0  0  0  0
   11.2475   13.6888    1.8638 C   0  0  0  0  0  0  0  0  0  0  0  0
   10.6165   14.7026    1.0950 C   0  0  0  0  0  0  0  0  0  0  0  0
    9.3170   14.9011    0.6274 C   0  0  0  0  0  0  0  0  0  0  0  0
    8.5416   14.1884    0.8556 H   0  0  0  0  0  0  0  0  0  0  0  0
    6.2077   12.6836    1.5756 C   0  0  0  0  0  0  0  0  0  0  0  0
    7.0610   11.7654    0.9719 C   0  0  0  0  0  0  0  0  0  0  0  0
    7.4216   11.9473   -0.0301 H   0  0  0  0  0  0  0  0  0  0  0  0
    7.4213   10.5803    1.6182 C   0  0  0  0  0  0  0  0  0  0  0  0
    8.0583    9.8749    1.1021 H   0  0  0  0  0  0  0  0  0  0  0  0
    6.9264   10.2565    2.8778 C   0  0  1  0  0  3  0  0  0  0  0  0
    6.0837   11.1981    3.5251 C   0  0  2  0  0  0  0  0  0  0  0  0
    5.5104   10.8779    4.3909 H   0  0  0  0  0  0  0  0  0  0  0  0
    5.7497   12.4102    2.8796 C   0  0  0  0  0  0  0  0  0  0  0  0
    4.9848   13.0557    3.2973 H   0  0  0  0  0  0  0  0  0  0  0  0
    5.7490   13.9187    0.8731 C   0  0  0  0  0  0  0  0  0  0  0  0
    6.1098   14.8014    1.4017 H   0  0  0  0  0  0  0  0  0  0  0  0
    4.6612   13.9632    0.8625 H   0  0  0  0  0  0  0  0  0  0  0  0
    6.1114   13.9481   -0.1508 H   0  0  0  0  0  0  0  0  0  0  0  0
    7.2392    8.9292    3.5267 C   0  0  0  0  0  0  0  0  0  0  0  0
    7.9766    8.4122    2.9029 H   0  0  0  0  0  0  0  0  0  0  0  0
    5.9841    8.0562    3.6023 C   0  0  0  0  0  0  0  0  0  0  0  0
    5.5620    7.9109    2.6109 H   0  0  0  0  0  0  0  0  0  0  0  0
    5.2267    8.5116    4.2357 H   0  0  0  0  0  0  0  0  0  0  0  0
    6.2334    7.0825    4.0156 H   0  0  0  0  0  0  0  0  0  0  0  0
    7.8469    9.1345    4.9185 C   0  0  0  0  0  0  0  0  0  0  0  0
    8.2035    8.1871    5.3152 H   0  0  0  0  0  0  0  0  0  0  0  0
    7.1103    9.5331    5.6143 H   0  0  0  0  0  0  0  0  0  0  0  0
    8.6937    9.8250    4.8662 H   0  0  0  0  0  0  0  0  0  0  0  0
  1  2  1  6  0  0  0
  1  7  1  0  0  0  0
  1  8  1  0  0  0  0
  3 16  1  0  0  0  0
  4  3  1  0  0  0  0
  5  6  1  0  0  0  0
  7 28  1  6  0  0  0
  8 38  1  0  0  0  0
  8 31  1  0  0  0  0
  9 45  1  0  0  0  0
 10  9  1  0  0  0  0
 11  9  2  0  0  0  0
 11 13  1  0  0  0  0
 12 11  1  0  0  0  0
 13 15  2  0  0  0  0
 14 13  1  0  0  0  0
 15 44  1  0  0  0  0
 15  3  1  0  0  0  0
 16 17  1  0  0  0  0
 17 26  1  0  0  0  0
 18 17  2  0  0  0  0
 18 20  1  0  0  0  0
 19 18  1  0  0  0  0
 20 22  2  0  0  0  0
 21 20  1  0  0  0  0
 22 23  1  0  0  0  0
 22 24  1  0  0  0  0
 24 25  1  0  0  0  0
 26 24  2  0  0  0  0
 26  5  1  0  0  0  0
 27 40  1  1  0  0  0
 27  5  1  0  0  0  0
 27  7  1  0  0  0  0
 28 29  1  0  0  0  0
 28 30  1  0  0  0  0
 28 31  1  0  0  0  0
 31 32  1  6  0  0  0
 32 34  2  0  0  0  0
 32 33  1  0  0  0  0
 34 35  1  0  0  0  0
 36 37  1  0  0  0  0
 36 34  1  0  0  0  0
 38 36  2  0  0  0  0
 39 38  1  0  0  0  0
 41 40  1  0  0  0  0
 42 40  1  0  0  0  0
 43 16  2  0  0  0  0
 43 40  1  0  0  0  0
 44 43  1  0  0  0  0
 45 46  1  0  0  0  0
 45 44  2  0  0  0  0
 47 55  2  0  0  0  0
 48 47  1  0  0  0  0
 48 50  2  0  0  0  0
 49 48  1  0  0  0  0
 50 52  1  0  0  0  0
 51 50  1  0  0  0  0
 52 53  1  0  0  0  0
 52 61  1  6  0  0  0
 53  1  1  0  0  0  0
 53 54  1  1  0  0  0
 55 56  1  0  0  0  0
 55 53  1  0  0  0  0
 57 58  1  0  0  0  0
 57 47  1  0  0  0  0
 59 57  1  0  0  0  0
 60 57  1  0  0  0  0
 61 63  1  0  0  0  0
 61 67  1  0  0  0  0
 62 61  1  0  0  0  0
 63 66  1  0  0  0  0
 63 65  1  0  0  0  0
 64 63  1  0  0  0  0
 67 68  1  0  0  0  0
 67 69  1  0  0  0  0
 70 67  1  0  0  0  0
M  END
$$$$
