CSD_code = POJKAC | q = 0 | S = 0 | Stoichiometry = C15H18Cl2N2Pd | MND = 4
 OpenBabel04212202083D

 38 40  0  0  0  0  0  0  0  0999 V2000
    6.4688    3.4670    3.8933 Pd  0  0  0  0  0  0  0  0  0  0  0  0
    6.4425    1.6107    5.1366 Cl  0  0  0  0  0  0  0  0  0  0  0  0
    6.5308    2.2762    2.0186 Cl  0  0  0  0  0  0  0  0  0  0  0  0
    6.5608    4.7390    5.4554 N   0  0  0  0  0  0  0  0  0  0  0  0
    6.4782    5.2730    2.7709 N   0  0  0  0  0  4  0  0  0  0  0  0
    7.4073    5.1644    2.3604 H   0  0  0  0  0  0  0  0  0  0  0  0
    6.6807    4.3796    6.7341 C   0  0  0  0  0  3  0  0  0  0  0  0
    6.6211    3.3132    6.9226 H   0  0  0  0  0  0  0  0  0  0  0  0
    6.8646    5.2996    7.7495 C   0  0  0  0  0  0  0  0  0  0  0  0
    6.9548    4.9636    8.7694 H   0  0  0  0  0  0  0  0  0  0  0  0
    6.9312    6.6476    7.4294 C   0  0  0  0  0  0  0  0  0  0  0  0
    7.0776    7.3947    8.1939 H   0  0  0  0  0  0  0  0  0  0  0  0
    6.8050    7.0174    6.1003 C   0  0  0  0  0  0  0  0  0  0  0  0
    6.8488    8.0554    5.8074 H   0  0  0  0  0  0  0  0  0  0  0  0
    6.6184    6.0387    5.1335 C   0  0  0  0  0  0  0  0  0  0  0  0
    6.4499    6.4259    3.6806 C   0  0  0  0  0  0  0  0  0  0  0  0
    7.2296    7.1541    3.4163 H   0  0  0  0  0  0  0  0  0  0  0  0
    5.4874    6.9385    3.5656 H   0  0  0  0  0  0  0  0  0  0  0  0
    5.5192    5.3196    1.7022 C   0  0  0  0  0  0  0  0  0  0  0  0
    4.1611    5.1047    1.9618 C   0  0  0  0  0  0  0  0  0  0  0  0
    3.6588    4.6997    3.3187 C   0  0  0  0  0  0  0  0  0  0  0  0
    3.8294    5.4633    4.0796 H   0  0  0  0  0  0  0  0  0  0  0  0
    4.1617    3.7593    3.6379 H   0  0  0  0  0  0  0  0  0  0  0  0
    2.5905    4.5040    3.2734 H   0  0  0  0  0  0  0  0  0  0  0  0
    3.2639    5.1895    0.9064 C   0  0  0  0  0  0  0  0  0  0  0  0
    2.2146    5.0200    1.1002 H   0  0  0  0  0  0  0  0  0  0  0  0
    3.6768    5.4557   -0.3895 C   0  0  0  0  0  0  0  0  0  0  0  0
    2.6857    5.5575   -1.5075 C   0  0  0  0  0  0  0  0  0  0  0  0
    3.1104    5.1807   -2.4347 H   0  0  0  0  0  0  0  0  0  0  0  0
    2.4058    6.5999   -1.6643 H   0  0  0  0  0  0  0  0  0  0  0  0
    1.7839    4.9956   -1.2784 H   0  0  0  0  0  0  0  0  0  0  0  0
    5.0327    5.6245   -0.6277 C   0  0  0  0  0  0  0  0  0  0  0  0
    5.3750    5.8023   -1.6368 H   0  0  0  0  0  0  0  0  0  0  0  0
    5.9615    5.5619    0.3981 C   0  0  0  0  0  0  0  0  0  0  0  0
    7.4257    5.7026    0.0939 C   0  0  0  0  0  0  0  0  0  0  0  0
    7.8868    6.5101    0.6649 H   0  0  0  0  0  0  0  0  0  0  0  0
    7.5678    5.9183   -0.9615 H   0  0  0  0  0  0  0  0  0  0  0  0
    7.9430    4.7669    0.3135 H   0  0  0  0  0  0  0  0  0  0  0  0
  1  2  1  0  0  0  0
  1  4  1  0  0  0  0
  3  1  1  0  0  0  0
  4  7  1  0  0  0  0
  5 16  1  0  0  0  0
  5  1  1  0  0  0  0
  6  5  1  0  0  0  0
  7  8  1  0  0  0  0
  7  9  1  0  0  0  0
  9 10  1  0  0  0  0
 11  9  2  0  0  0  0
 11 12  1  0  0  0  0
 13 11  1  0  0  0  0
 14 13  1  0  0  0  0
 15  4  1  0  0  0  0
 15 13  2  0  0  0  0
 16 15  1  0  0  0  0
 17 16  1  0  0  0  0
 18 16  1  0  0  0  0
 19 20  1  0  0  0  0
 19  5  1  0  0  0  0
 20 21  1  0  0  0  0
 21 23  1  0  0  0  0
 21 22  1  0  0  0  0
 24 21  1  0  0  0  0
 25 26  1  0  0  0  0
 25 20  2  0  0  0  0
 27 25  1  0  0  0  0
 28 31  1  0  0  0  0
 28 27  1  0  0  0  0
 29 28  1  0  0  0  0
 30 28  1  0  0  0  0
 32 27  2  0  0  0  0
 32 34  1  0  0  0  0
 33 32  1  0  0  0  0
 34 19  2  0  0  0  0
 35 38  1  0  0  0  0
 35 34  1  0  0  0  0
 35 36  1  0  0  0  0
 37 35  1  0  0  0  0
M  END
$$$$
