CSD_code = POKBAU | q = 0 | S = 0 | Stoichiometry = C22H19Cl2N3O2Zn | MND = 4
 OpenBabel04212202083D

 49 53  0  0  0  0  0  0  0  0999 V2000
   -0.1898    5.5152    0.0475 Zn  0  0  0  0  0  0  0  0  0  0  0  0
    0.5244    5.4374    2.1281 Cl  0  0  0  0  0  0  0  0  0  0  0  0
   -1.0954    7.1162   -1.1666 Cl  0  0  0  0  0  0  0  0  0  0  0  0
   -1.2144    3.7336   -0.4305 N   0  0  0  0  0  0  0  0  0  0  0  0
    1.2191    4.6060   -1.3023 N   0  0  0  0  0  0  0  0  0  0  0  0
   -2.2951    1.3754   -1.4636 N   0  0  0  0  0  0  0  0  0  0  0  0
    5.1540    4.1112   -3.8753 O   0  0  0  0  0  0  0  0  0  0  0  0
    4.7428    6.1201   -2.9847 O   0  0  0  0  0  0  0  0  0  0  0  0
   -2.3952    3.2857    0.0078 C   0  0  0  0  0  0  0  0  0  0  0  0
   -3.1096    3.9977    0.9931 C   0  0  0  0  0  0  0  0  0  0  0  0
   -2.6742    4.9100    1.3787 H   0  0  0  0  0  0  0  0  0  0  0  0
   -4.3126    3.5241    1.4290 C   0  0  0  0  0  0  0  0  0  0  0  0
   -4.8657    4.0643    2.1820 H   0  0  0  0  0  0  0  0  0  0  0  0
   -4.8539    2.3291    0.9063 C   0  0  0  0  0  0  0  0  0  0  0  0
   -5.8086    1.9847    1.2747 H   0  0  0  0  0  0  0  0  0  0  0  0
   -4.1913    1.6139   -0.0473 C   0  0  0  0  0  0  0  0  0  0  0  0
   -4.5870    0.6995   -0.4597 H   0  0  0  0  0  0  0  0  0  0  0  0
   -2.9410    2.0691   -0.5284 C   0  0  0  0  0  0  0  0  0  0  0  0
   -1.1286    1.8357   -1.8910 C   0  0  0  0  0  0  0  0  0  0  0  0
   -0.4253    1.1289   -2.9063 C   0  0  0  0  0  0  0  0  0  0  0  0
   -0.8983    0.2398   -3.2926 H   0  0  0  0  0  0  0  0  0  0  0  0
    0.7611    1.5739   -3.4001 C   0  0  0  0  0  0  0  0  0  0  0  0
    1.3563    2.7698   -2.8557 C   0  0  0  0  0  0  0  0  0  0  0  0
    0.6981    3.4990   -1.8445 C   0  0  0  0  0  0  0  0  0  0  0  0
   -0.5741    3.0417   -1.3583 C   0  0  0  0  0  0  0  0  0  0  0  0
    2.6037    3.2625   -3.2550 C   0  0  0  0  0  0  0  0  0  0  0  0
    3.1886    2.7432   -4.0005 H   0  0  0  0  0  0  0  0  0  0  0  0
    3.1165    4.4220   -2.7043 C   0  0  0  0  0  0  0  0  0  0  0  0
    2.3812    5.0924   -1.6971 C   0  0  0  0  0  0  0  0  0  0  0  0
    2.8503    6.3288   -1.0241 C   0  0  0  0  0  0  0  0  0  0  0  0
    2.7601    7.1728   -1.7071 H   0  0  0  0  0  0  0  0  0  0  0  0
    3.8944    6.2460   -0.7338 H   0  0  0  0  0  0  0  0  0  0  0  0
    2.2391    6.5250   -0.1435 H   0  0  0  0  0  0  0  0  0  0  0  0
    4.4440    4.8535   -3.2414 C   0  0  0  0  0  0  0  0  0  0  0  0
    5.9834    6.6024   -3.5111 C   0  0  0  0  0  0  0  0  0  0  0  0
    5.9915    6.4412   -4.5949 H   0  0  0  0  0  0  0  0  0  0  0  0
    6.8011    6.0169   -3.0760 H   0  0  0  0  0  0  0  0  0  0  0  0
    6.1045    8.0737   -3.1645 C   0  0  0  0  0  0  0  0  0  0  0  0
    5.2805    8.6316   -3.6013 H   0  0  0  0  0  0  0  0  0  0  0  0
    7.0409    8.4625   -3.5530 H   0  0  0  0  0  0  0  0  0  0  0  0
    6.0838    8.2101   -2.0866 H   0  0  0  0  0  0  0  0  0  0  0  0
    1.4416    0.8464   -4.4925 C   0  0  0  0  0  0  0  0  0  0  0  0
    1.7794   -0.5862   -4.2123 C   0  0  0  0  0  0  0  0  0  0  0  0
    2.2999   -1.0283   -5.0570 H   0  0  0  0  0  0  0  0  0  0  0  0
    0.8778   -1.1626   -4.0138 H   0  0  0  0  0  0  0  0  0  0  0  0
    2.4149   -0.6529   -3.3300 H   0  0  0  0  0  0  0  0  0  0  0  0
    1.7134    1.4411   -5.6469 C   0  0  0  0  0  0  0  0  0  0  0  0
    2.1902    0.9114   -6.4533 H   0  0  0  0  0  0  0  0  0  0  0  0
    1.4443    2.4660   -5.8386 H   0  0  0  0  0  0  0  0  0  0  0  0
  1  2  1  0  0  0  0
  3  1  1  0  0  0  0
  4  9  1  0  0  0  0
  4  1  1  0  0  0  0
  5  1  1  0  0  0  0
  6 18  1  0  0  0  0
  7 34  2  0  0  0  0
  9 10  1  0  0  0  0
 10 11  1  0  0  0  0
 10 12  2  0  0  0  0
 12 13  1  0  0  0  0
 14 15  1  0  0  0  0
 14 12  1  0  0  0  0
 16 14  2  0  0  0  0
 17 16  1  0  0  0  0
 18 16  1  0  0  0  0
 18  9  2  0  0  0  0
 19  6  2  0  0  0  0
 19 25  1  0  0  0  0
 20 19  1  0  0  0  0
 21 20  1  0  0  0  0
 22 20  2  0  0  0  0
 22 23  1  0  0  0  0
 23 24  1  0  0  0  0
 24 25  2  0  0  0  0
 24  5  1  0  0  0  0
 25  4  1  0  0  0  0
 26 23  2  0  0  0  0
 26 28  1  0  0  0  0
 27 26  1  0  0  0  0
 28 29  2  0  0  0  0
 29  5  1  0  0  0  0
 29 30  1  0  0  0  0
 30 32  1  0  0  0  0
 30 33  1  0  0  0  0
 31 30  1  0  0  0  0
 34  8  1  0  0  0  0
 34 28  1  0  0  0  0
 35 38  1  0  0  0  0
 35 37  1  0  0  0  0
 35  8  1  0  0  0  0
 36 35  1  0  0  0  0
 38 41  1  0  0  0  0
 39 38  1  0  0  0  0
 40 38  1  0  0  0  0
 42 43  1  0  0  0  0
 42 22  1  0  0  0  0
 43 45  1  0  0  0  0
 43 46  1  0  0  0  0
 44 43  1  0  0  0  0
 47 42  2  0  0  0  0
 48 47  1  0  0  0  0
 49 47  1  0  0  0  0
M  END
$$$$
