CSD_code = POKFOM | q = 0 | S = 0 | Stoichiometry = C14H9BrN3O3Re | MND = 6
 OpenBabel04212202083D

 31 33  0  0  0  0  0  0  0  0999 V2000
    2.2091    9.5191    4.1343 Re  0  0  0  0  0  0  0  0  0  0  0  0
    1.8009   10.5593    1.7833 Br  0  0  0  0  0  0  0  0  0  0  0  0
    3.1424    7.0182    2.5648 O   0  0  0  0  0  1  0  0  0  0  0  0
    4.9487   10.9524    3.8588 O   0  0  0  0  0  1  0  0  0  0  0  0
    2.6385    8.3447    6.9613 O   0  0  0  0  0  1  0  0  0  0  0  0
    1.1994   11.2716    4.8482 N   0  0  0  0  0  0  0  0  0  0  0  0
   -0.6553    9.9687    4.3061 N   0  0  0  0  0  2  0  0  0  0  0  0
   -0.3590    7.8686    3.5933 C   0  0  0  0  0  0  0  0  0  0  0  0
    2.8318    7.9121    3.2040 C   0  0  0  0  0  2  0  0  0  0  0  0
    1.6936   12.4439    5.2342 C   0  0  0  0  0  3  0  0  0  0  0  0
    2.7700   12.5054    5.3303 H   0  0  0  0  0  0  0  0  0  0  0  0
    0.8991   13.5421    5.5004 C   0  0  0  0  0  0  0  0  0  0  0  0
    1.3559   14.4696    5.8046 H   0  0  0  0  0  0  0  0  0  0  0  0
   -0.4822   13.4325    5.3631 C   0  0  0  0  0  0  0  0  0  0  0  0
   -1.1222   14.2789    5.5583 H   0  0  0  0  0  0  0  0  0  0  0  0
   -1.0133   12.2257    4.9693 C   0  0  0  0  0  0  0  0  0  0  0  0
   -2.0704   12.0677    4.8354 H   0  0  0  0  0  0  0  0  0  0  0  0
   -0.1438   11.1598    4.7140 C   0  0  0  0  0  0  0  0  0  0  0  0
    0.2090    9.0516    4.0777 N   0  0  0  0  0  0  0  0  0  0  0  0
   -1.4746    7.9223    2.7543 C   0  0  0  0  0  0  0  0  0  0  0  0
   -1.8778    8.8868    2.4850 H   0  0  0  0  0  0  0  0  0  0  0  0
   -2.0084    6.7555    2.2466 C   0  0  0  0  0  0  0  0  0  0  0  0
   -2.8558    6.8021    1.5797 H   0  0  0  0  0  0  0  0  0  0  0  0
   -1.4562    5.5302    2.5862 C   0  0  0  0  0  0  0  0  0  0  0  0
   -1.8751    4.6196    2.1858 H   0  0  0  0  0  0  0  0  0  0  0  0
   -0.3633    5.4727    3.4390 C   0  0  0  0  0  0  0  0  0  0  0  0
    0.0596    4.5185    3.7136 H   0  0  0  0  0  0  0  0  0  0  0  0
    0.1927    6.6326    3.9386 C   0  0  0  0  0  0  0  0  0  0  0  0
    1.0317    6.5922    4.6208 H   0  0  0  0  0  0  0  0  0  0  0  0
    3.9880   10.3580    4.0134 C   0  0  0  0  0  2  0  0  0  0  0  0
    2.5062    8.7844    5.9111 C   0  0  0  0  0  2  0  0  0  0  0  0
  1  6  1  0  0  0  0
  1 31  1  0  0  0  0
  2  1  1  0  0  0  0
  3  9  1  0  0  0  0
  4 30  1  0  0  0  0
  6 10  1  0  0  0  0
  7 18  1  0  0  0  0
  8 28  1  0  0  0  0
  8 19  1  0  0  0  0
  9  1  1  0  0  0  0
 10 11  1  0  0  0  0
 10 12  1  0  0  0  0
 12 13  1  0  0  0  0
 14 12  2  0  0  0  0
 14 15  1  0  0  0  0
 16 14  1  0  0  0  0
 17 16  1  0  0  0  0
 18  6  1  0  0  0  0
 18 16  2  0  0  0  0
 19  1  1  0  0  0  0
 19  7  1  0  0  0  0
 20  8  2  0  0  0  0
 21 20  1  0  0  0  0
 22 24  2  0  0  0  0
 22 20  1  0  0  0  0
 23 22  1  0  0  0  0
 24 26  1  0  0  0  0
 25 24  1  0  0  0  0
 26 27  1  0  0  0  0
 26 28  2  0  0  0  0
 28 29  1  0  0  0  0
 30  1  1  0  0  0  0
 31  5  1  0  0  0  0
M  END
$$$$
