CSD_code = POKGAZ | q = 0 | S = 0 | Stoichiometry = C13H8BrMnN2O3 | MND = 6
 OpenBabel04212202083D

 28 30  0  0  0  0  0  0  0  0999 V2000
    9.9421    7.4509    5.8604 Mn  0  0  0  0  0  0  0  0  0  0  0  0
    9.9960    9.7252    6.8484 Br  0  0  0  0  0  0  0  0  0  0  0  0
   11.4842    8.0764    4.7165 N   0  0  0  0  0  0  0  0  0  0  0  0
    8.9325    8.3025    4.3338 N   0  0  0  0  0  0  0  0  0  0  0  0
   11.5232    6.5241    8.1528 O   0  0  0  0  0  1  0  0  0  0  0  0
   11.1385    8.8444    3.6636 C   0  0  0  0  0  0  0  0  0  0  0  0
    9.6967    8.9708    3.4463 C   0  0  0  0  0  0  0  0  0  0  0  0
    7.6293    6.8721    7.5721 O   0  0  0  0  0  1  0  0  0  0  0  0
    8.5103    7.0976    6.8712 C   0  0  0  0  0  2  0  0  0  0  0  0
   10.9341    6.8784    7.2333 C   0  0  0  0  0  2  0  0  0  0  0  0
   12.0971    9.4657    2.8637 C   0  0  0  0  0  0  0  0  0  0  0  0
   11.7971   10.0835    2.0338 H   0  0  0  0  0  0  0  0  0  0  0  0
    9.8884    4.7915    4.6427 O   0  0  0  0  0  1  0  0  0  0  0  0
    7.7611    9.7907    2.2915 C   0  0  0  0  0  0  0  0  0  0  0  0
    7.3085   10.3738    1.5047 H   0  0  0  0  0  0  0  0  0  0  0  0
    9.9102    5.8420    5.1111 C   0  0  0  0  0  2  0  0  0  0  0  0
    9.1346    9.7228    2.4151 C   0  0  0  0  0  0  0  0  0  0  0  0
    9.7649   10.2555    1.7227 H   0  0  0  0  0  0  0  0  0  0  0  0
    7.6080    8.3696    4.1998 C   0  0  0  0  0  0  0  0  0  0  0  0
    7.0163    7.8241    4.9243 H   0  0  0  0  0  0  0  0  0  0  0  0
    6.9816    9.0949    3.2041 C   0  0  0  0  0  0  0  0  0  0  0  0
    5.9053    9.1163    3.1525 H   0  0  0  0  0  0  0  0  0  0  0  0
   13.7853    8.4952    4.2275 C   0  0  0  0  0  0  0  0  0  0  0  0
   14.8169    8.3300    4.4925 H   0  0  0  0  0  0  0  0  0  0  0  0
   12.7810    7.9115    4.9764 C   0  0  0  0  0  0  0  0  0  0  0  0
   13.0332    7.2895    5.8261 H   0  0  0  0  0  0  0  0  0  0  0  0
   13.4372    9.2944    3.1483 C   0  0  0  0  0  0  0  0  0  0  0  0
   14.1924    9.7739    2.5454 H   0  0  0  0  0  0  0  0  0  0  0  0
  1  2  1  0  0  0  0
  1  9  1  0  0  0  0
  1 10  1  0  0  0  0
  3 25  1  0  0  0  0
  3  1  1  0  0  0  0
  4  1  1  0  0  0  0
  6  3  1  0  0  0  0
  7  6  2  0  0  0  0
  7  4  1  0  0  0  0
  9  8  1  0  0  0  0
 10  5  1  0  0  0  0
 11 27  2  0  0  0  0
 11  6  1  0  0  0  0
 12 11  1  0  0  0  0
 13 16  1  0  0  0  0
 14 17  2  0  0  0  0
 14 21  1  0  0  0  0
 15 14  1  0  0  0  0
 16  1  1  0  0  0  0
 17  7  1  0  0  0  0
 18 17  1  0  0  0  0
 19  4  1  0  0  0  0
 19 20  1  0  0  0  0
 21 19  2  0  0  0  0
 22 21  1  0  0  0  0
 23 24  1  0  0  0  0
 23 25  2  0  0  0  0
 25 26  1  0  0  0  0
 27 23  1  0  0  0  0
 28 27  1  0  0  0  0
M  END
$$$$
