CSD_code = POKNEI | q = 0 | S = 0 | Stoichiometry = C22H26Cl2N4O2Ru | MND = 6
 OpenBabel04212202083D

 57 63  0  0  1  0  0  0  0  0999 V2000
    3.3099    3.0368    2.3641 Ru  0  0  0  0  0  0  0  0  0  0  0  0
    1.2491    1.9422    2.0826 Cl  0  0  0  0  0  0  0  0  0  0  0  0
    5.3135    4.2231    2.6759 Cl  0  0  0  0  0  0  0  0  0  0  0  0
    3.4181    2.8103    6.4915 O   0  0  0  0  0  0  0  0  0  0  0  0
    2.7671    4.6727   -1.3966 O   0  0  0  0  0  0  0  0  0  0  0  0
    2.8852    3.5185    4.4326 N   0  0  0  0  0  0  0  0  0  0  0  0
    4.0634    1.5738    3.2275 N   0  0  0  0  0  0  0  0  0  0  0  0
    3.9485    2.1815    0.8428 N   0  0  0  0  0  0  0  0  0  0  0  0
    2.7050    4.4264    0.8284 N   0  0  2  0  0  0  0  0  0  0  0  0
    2.3131    4.5264    5.3064 C   0  0  2  0  0  0  0  0  0  0  0  0
    2.8174    4.0886    6.7031 C   0  0  0  0  0  0  0  0  0  0  0  0
    3.4395    2.6148    5.1698 C   0  0  0  0  0  0  0  0  0  0  0  0
    4.0864    1.4674    4.5661 C   0  0  0  0  0  0  0  0  0  0  0  0
    4.6922    0.3912    5.1997 C   0  0  0  0  0  0  0  0  0  0  0  0
    5.2840   -0.5848    4.4077 C   0  0  0  0  0  0  0  0  0  0  0  0
    5.2773   -0.4563    3.0245 C   0  0  0  0  0  0  0  0  0  0  0  0
    4.6611    0.6468    2.4417 C   0  0  0  0  0  0  0  0  0  0  0  0
    4.5794    0.9981    1.0314 C   0  0  2  0  0  3  0  0  0  0  0  0
    5.0623    0.2924   -0.0662 C   0  0  0  0  0  0  0  0  0  0  0  0
    4.8903    0.8115   -1.3433 C   0  0  0  0  0  0  0  0  0  0  0  0
    4.2400    2.0265   -1.5186 C   0  0  0  0  0  0  0  0  0  0  0  0
    3.7784    2.6890   -0.3895 C   0  0  0  0  0  0  0  0  0  0  0  0
    3.0727    3.9518   -0.3150 C   0  0  1  0  0  3  0  0  0  0  0  0
    2.0392    5.8143   -0.9369 C   0  0  0  0  0  0  0  0  0  0  0  0
    2.0611    5.7074    0.6066 C   0  0  2  0  0  0  0  0  0  0  0  0
    0.7740    4.5681    5.1979 C   0  0  0  0  0  0  0  0  0  0  0  0
    0.1612    3.1799    5.3665 C   0  0  0  0  0  0  0  0  0  0  0  0
    0.3732    5.1519    3.8479 C   0  0  0  0  0  0  0  0  0  0  0  0
    2.8181    6.8256    1.3507 C   0  0  0  0  0  0  0  0  0  0  0  0
    4.2324    7.0373    0.8189 C   0  0  0  0  0  0  0  0  0  0  0  0
    2.0103    8.1195    1.3174 C   0  0  0  0  0  0  0  0  0  0  0  0
    2.7158    5.5054    5.0233 H   0  0  0  0  0  0  0  0  0  0  0  0
    1.0429    5.6591    1.0093 H   0  0  0  0  0  0  0  0  0  0  0  0
    0.4190    5.2270    6.0007 H   0  0  0  0  0  0  0  0  0  0  0  0
    2.9063    6.4772    2.3868 H   0  0  0  0  0  0  0  0  0  0  0  0
    2.0131    3.9788    7.4332 H   0  0  0  0  0  0  0  0  0  0  0  0
    3.5809    4.7619    7.1035 H   0  0  0  0  0  0  0  0  0  0  0  0
    2.5322    6.7103   -1.3173 H   0  0  0  0  0  0  0  0  0  0  0  0
    1.0259    5.7590   -1.3439 H   0  0  0  0  0  0  0  0  0  0  0  0
    4.6954    0.3333    6.2757 H   0  0  0  0  0  0  0  0  0  0  0  0
    5.7590   -1.4374    4.8664 H   0  0  0  0  0  0  0  0  0  0  0  0
    5.7503   -1.1999    2.4033 H   0  0  0  0  0  0  0  0  0  0  0  0
    5.5638   -0.6511    0.0781 H   0  0  0  0  0  0  0  0  0  0  0  0
    5.2609    0.2694   -2.1987 H   0  0  0  0  0  0  0  0  0  0  0  0
    4.0867    2.4571   -2.4944 H   0  0  0  0  0  0  0  0  0  0  0  0
   -0.9224    3.2582    5.4029 H   0  0  0  0  0  0  0  0  0  0  0  0
    0.4275    2.5521    4.5181 H   0  0  0  0  0  0  0  0  0  0  0  0
    0.4967    2.6957    6.2813 H   0  0  0  0  0  0  0  0  0  0  0  0
    0.7384    6.1714    3.7428 H   0  0  0  0  0  0  0  0  0  0  0  0
    0.7980    4.5334    3.0565 H   0  0  0  0  0  0  0  0  0  0  0  0
   -0.7087    5.1543    3.7445 H   0  0  0  0  0  0  0  0  0  0  0  0
    4.8010    6.1128    0.8859 H   0  0  0  0  0  0  0  0  0  0  0  0
    4.2348    7.3880   -0.2110 H   0  0  0  0  0  0  0  0  0  0  0  0
    4.7398    7.7808    1.4281 H   0  0  0  0  0  0  0  0  0  0  0  0
    2.5157    8.8884    1.8960 H   0  0  0  0  0  0  0  0  0  0  0  0
    1.8993    8.4796    0.2966 H   0  0  0  0  0  0  0  0  0  0  0  0
    1.0177    7.9696    1.7367 H   0  0  0  0  0  0  0  0  0  0  0  0
  1  3  1  0  0  0  0
  1  7  1  0  0  0  0
  1  6  1  0  0  0  0
  2  1  1  0  0  0  0
  4 11  1  0  0  0  0
  5 24  1  0  0  0  0
  5 23  1  0  0  0  0
  6 12  1  0  0  0  0
  6 10  1  0  0  0  0
  7 13  1  0  0  0  0
  8 18  1  0  0  0  0
  8  1  1  0  0  0  0
  9  1  1  0  0  0  0
 10 11  1  0  0  0  0
 11 37  1  0  0  0  0
 11 36  1  0  0  0  0
 12  4  1  0  0  0  0
 13 12  2  0  0  0  0
 13 14  1  0  0  0  0
 14 40  1  0  0  0  0
 15 41  1  0  0  0  0
 15 14  2  0  0  0  0
 16 15  1  0  0  0  0
 17 16  2  0  0  0  0
 17  7  1  0  0  0  0
 18 17  1  0  0  0  0
 19 43  1  0  0  0  0
 19 18  1  0  0  0  0
 20 19  2  0  0  0  0
 21 20  1  0  0  0  0
 21 22  2  0  0  0  0
 22 23  1  0  0  0  0
 22  8  1  0  0  0  0
 23  9  1  0  0  0  0
 24 25  1  0  0  0  0
 25  9  1  0  0  0  0
 25 33  1  0  0  0  0
 25 29  1  0  0  0  0
 26 10  1  0  0  0  0
 26 27  1  0  0  0  0
 26 34  1  0  0  0  0
 27 46  1  0  0  0  0
 27 48  1  0  0  0  0
 28 26  1  0  0  0  0
 29 35  1  0  0  0  0
 30 52  1  0  0  0  0
 30 29  1  0  0  0  0
 30 54  1  0  0  0  0
 31 29  1  0  0  0  0
 31 57  1  0  0  0  0
 31 55  1  0  0  0  0
 32 10  1  0  0  0  0
 38 24  1  0  0  0  0
 39 24  1  0  0  0  0
 42 16  1  0  0  0  0
 44 20  1  0  0  0  0
 45 21  1  0  0  0  0
 47 27  1  0  0  0  0
 49 28  1  0  0  0  0
 50 28  1  0  0  0  0
 51 28  1  0  0  0  0
 53 30  1  0  0  0  0
 56 31  1  0  0  0  0
M  END
$$$$
