CSD_code = POKSUG | q = 0 | S = 0 | Stoichiometry = C18H24Br2N2Pt | MND = 4
 OpenBabel04212202083D

 47 49  0  0  0  0  0  0  0  0999 V2000
    1.2994    8.1361    4.9296 Pt  0  0  0  0  0  0  0  0  0  0  0  0
    1.1812    5.7680    4.7983 Br  0  0  0  0  0  0  0  0  0  0  0  0
    1.7097    8.2023    2.5909 Br  0  0  0  0  0  0  0  0  0  0  0  0
    0.9596    8.2307    6.9215 N   0  0  0  0  0  0  0  0  0  0  0  0
    0.7541    7.2108    7.7549 C   0  0  0  0  0  0  0  0  0  0  0  0
    0.7636    6.2197    7.3230 H   0  0  0  0  0  0  0  0  0  0  0  0
    0.5384    7.3756    9.1046 C   0  0  0  0  0  0  0  0  0  0  0  0
    0.3814    6.4971    9.7076 H   0  0  0  0  0  0  0  0  0  0  0  0
    0.5268    8.6551    9.6663 C   0  0  0  0  0  0  0  0  0  0  0  0
    0.7380    9.7073    8.7892 C   0  0  0  0  0  0  0  0  0  0  0  0
    0.7409   10.7196    9.1510 H   0  0  0  0  0  0  0  0  0  0  0  0
    0.9514    9.4815    7.4303 C   0  0  0  0  0  0  0  0  0  0  0  0
    1.1790   10.5489    6.4624 C   0  0  0  0  0  0  0  0  0  0  0  0
    1.1982   11.9016    6.7985 C   0  0  0  0  0  0  0  0  0  0  0  0
    1.0414   12.1810    7.8247 H   0  0  0  0  0  0  0  0  0  0  0  0
    1.4125   12.8762    5.8363 C   0  0  0  0  0  0  0  0  0  0  0  0
    1.6085   12.4180    4.5307 C   0  0  0  0  0  0  0  0  0  0  0  0
    1.7820   13.1022    3.7173 H   0  0  0  0  0  0  0  0  0  0  0  0
    1.5822   11.0693    4.2561 C   0  0  0  0  0  0  0  0  0  0  0  0
    1.7356   10.7172    3.2454 H   0  0  0  0  0  0  0  0  0  0  0  0
    1.3717   10.1412    5.1896 N   0  0  0  0  0  0  0  0  0  0  0  0
    0.2989    8.8384   11.1527 C   0  0  0  0  0  0  0  0  0  0  0  0
    1.4130    8.1028   11.9112 C   0  0  0  0  0  0  0  0  0  0  0  0
    1.4111    7.0397   11.6878 H   0  0  0  0  0  0  0  0  0  0  0  0
    1.2740    8.2254   12.9825 H   0  0  0  0  0  0  0  0  0  0  0  0
    2.3864    8.5074   11.6416 H   0  0  0  0  0  0  0  0  0  0  0  0
   -1.0665    8.2404   11.5205 C   0  0  0  0  0  0  0  0  0  0  0  0
   -1.8600    8.7379   10.9669 H   0  0  0  0  0  0  0  0  0  0  0  0
   -1.2531    8.3736   12.5832 H   0  0  0  0  0  0  0  0  0  0  0  0
   -1.1092    7.1780   11.2993 H   0  0  0  0  0  0  0  0  0  0  0  0
    0.3134   10.3102   11.5732 C   0  0  0  0  0  0  0  0  0  0  0  0
    1.2758   10.7711   11.3613 H   0  0  0  0  0  0  0  0  0  0  0  0
    0.1405   10.3794   12.6445 H   0  0  0  0  0  0  0  0  0  0  0  0
   -0.4735   10.8702   11.0723 H   0  0  0  0  0  0  0  0  0  0  0  0
    1.4325   14.3602    6.1392 C   0  0  0  0  0  0  0  0  0  0  0  0
    1.2168   14.6606    7.6246 C   0  0  0  0  0  0  0  0  0  0  0  0
    0.2484   14.2989    7.9635 H   0  0  0  0  0  0  0  0  0  0  0  0
    1.2427   15.7363    7.7811 H   0  0  0  0  0  0  0  0  0  0  0  0
    2.0015   14.2166    8.2335 H   0  0  0  0  0  0  0  0  0  0  0  0
    2.7938   14.9330    5.7198 C   0  0  0  0  0  0  0  0  0  0  0  0
    3.5975   14.4345    6.2577 H   0  0  0  0  0  0  0  0  0  0  0  0
    2.8336   15.9949    5.9494 H   0  0  0  0  0  0  0  0  0  0  0  0
    2.9671   14.8097    4.6549 H   0  0  0  0  0  0  0  0  0  0  0  0
    0.3114   15.0352    5.3359 C   0  0  0  0  0  0  0  0  0  0  0  0
    0.4521   14.9005    4.2673 H   0  0  0  0  0  0  0  0  0  0  0  0
    0.2967   16.1019    5.5456 H   0  0  0  0  0  0  0  0  0  0  0  0
   -0.6554   14.6171    5.6091 H   0  0  0  0  0  0  0  0  0  0  0  0
  1 21  1  0  0  0  0
  1  4  1  0  0  0  0
  2  1  1  0  0  0  0
  3  1  1  0  0  0  0
  4 12  1  0  0  0  0
  4  5  1  0  0  0  0
  5  7  2  0  0  0  0
  6  5  1  0  0  0  0
  7  9  1  0  0  0  0
  7  8  1  0  0  0  0
  9 22  1  0  0  0  0
 10 11  1  0  0  0  0
 10  9  2  0  0  0  0
 12 10  1  0  0  0  0
 13 14  1  0  0  0  0
 13 12  2  0  0  0  0
 14 15  1  0  0  0  0
 16 35  1  0  0  0  0
 16 14  2  0  0  0  0
 17 16  1  0  0  0  0
 18 17  1  0  0  0  0
 19 17  2  0  0  0  0
 19 21  1  0  0  0  0
 20 19  1  0  0  0  0
 21 13  1  0  0  0  0
 22 27  1  0  0  0  0
 22 31  1  0  0  0  0
 22 23  1  0  0  0  0
 23 25  1  0  0  0  0
 24 23  1  0  0  0  0
 26 23  1  0  0  0  0
 27 29  1  0  0  0  0
 28 27  1  0  0  0  0
 30 27  1  0  0  0  0
 31 33  1  0  0  0  0
 32 31  1  0  0  0  0
 34 31  1  0  0  0  0
 35 36  1  0  0  0  0
 36 38  1  0  0  0  0
 36 37  1  0  0  0  0
 36 39  1  0  0  0  0
 40 42  1  0  0  0  0
 40 35  1  0  0  0  0
 40 41  1  0  0  0  0
 43 40  1  0  0  0  0
 44 46  1  0  0  0  0
 44 47  1  0  0  0  0
 44 35  1  0  0  0  0
 45 44  1  0  0  0  0
M  END
$$$$
