CSD_code = POLHOP | q = 0 | S = 0 | Stoichiometry = C20H20ClCuN6O8S2 | MND = 3
 OpenBabel04212202083D

 58 59  0  0  1  0  0  0  0  0999 V2000
   12.6586    8.4216    4.3417 C   0  0  2  0  0  3  0  0  0  0  0  0
   10.8149    6.9119    4.9501 C   0  0  0  0  0  0  0  0  0  0  0  0
   10.1685    6.3701    6.0813 C   0  0  0  0  0  0  0  0  0  0  0  0
    9.3685    5.2320    5.9562 C   0  0  0  0  0  0  0  0  0  0  0  0
    8.8922    4.8502    6.8465 H   0  0  0  0  0  0  0  0  0  0  0  0
    9.1965    4.6210    4.7361 C   0  0  0  0  0  0  0  0  0  0  0  0
    8.5771    3.7426    4.6515 H   0  0  0  0  0  0  0  0  0  0  0  0
    9.8230    5.1538    3.6151 C   0  0  0  0  0  0  0  0  0  0  0  0
    9.6844    4.6937    2.6491 H   0  0  0  0  0  0  0  0  0  0  0  0
   10.6133    6.2777    3.7207 C   0  0  0  0  0  0  0  0  0  0  0  0
   11.0773    6.6915    2.8421 H   0  0  0  0  0  0  0  0  0  0  0  0
   12.5414   10.6833    5.2739 C   0  0  0  0  0  0  0  0  0  0  0  0
   12.9807   12.8899    5.8745 C   0  0  0  0  0  3  0  0  0  0  0  0
   12.0834   12.8722    6.4736 H   0  0  0  0  0  0  0  0  0  0  0  0
   13.8680   14.0558    5.7547 C   0  0  0  0  0  0  0  0  0  0  0  0
   14.2602   14.3470    6.7318 H   0  0  0  0  0  0  0  0  0  0  0  0
   13.3241   14.9177    5.3621 H   0  0  0  0  0  0  0  0  0  0  0  0
   14.6941   13.8166    5.0905 H   0  0  0  0  0  0  0  0  0  0  0  0
   15.4297   10.6908    2.7152 Cl  0  0  0  0  0  0  0  0  0  0  0  0
   15.4305    8.4275    2.7139 Cu  0  0  0  0  0  0  0  0  0  0  0  0
   13.1166    9.6917    4.5119 N   0  0  0  0  0  0  0  0  0  0  0  0
   13.9511    9.9796    3.9643 H   0  0  0  0  0  0  0  0  0  0  0  0
   11.5695    8.0662    5.0462 N   0  0  0  0  0  0  0  0  0  0  0  0
   11.3148    8.6990    5.8222 H   0  0  0  0  0  0  0  0  0  0  0  0
   10.3103    6.9167    7.3952 N   0  0  0  0  0  0  0  0  0  0  0  0
   11.5109   10.6051    5.9082 O   0  0  0  0  0  0  0  0  0  0  0  0
   13.3135   11.7844    5.2040 O   0  0  0  0  0  0  0  0  0  0  0  0
   10.9129    7.9716    7.5327 O   0  0  0  0  0  0  0  0  0  0  0  0
    9.8291    6.2973    8.3224 O   0  0  0  0  0  0  0  0  0  0  0  0
   13.5025    7.3522    3.3547 S   0  0  0  0  0  0  0  0  0  0  0  0
   18.2030    8.4219    1.0907 C   0  0  2  0  0  3  0  0  0  0  0  0
   20.0467    6.9127    0.4826 C   0  0  0  0  0  0  0  0  0  0  0  0
   20.6924    6.3699   -0.6484 C   0  0  0  0  0  0  0  0  0  0  0  0
   21.4911    5.2310   -0.5231 C   0  0  0  0  0  0  0  0  0  0  0  0
   21.9669    4.8484   -1.4134 H   0  0  0  0  0  0  0  0  0  0  0  0
   21.6627    4.6202    0.6971 C   0  0  0  0  0  0  0  0  0  0  0  0
   22.2811    3.7411    0.7820 H   0  0  0  0  0  0  0  0  0  0  0  0
   21.0372    5.1543    1.8182 C   0  0  0  0  0  0  0  0  0  0  0  0
   21.1756    4.6945    2.7844 H   0  0  0  0  0  0  0  0  0  0  0  0
   20.2480    6.2789    1.7123 C   0  0  0  0  0  0  0  0  0  0  0  0
   19.7846    6.6937    2.5907 H   0  0  0  0  0  0  0  0  0  0  0  0
   18.3191   10.6836    0.1585 C   0  0  0  0  0  0  0  0  0  0  0  0
   17.8806   12.8907   -0.4405 C   0  0  0  0  0  3  0  0  0  0  0  0
   18.7786   12.8737   -1.0387 H   0  0  0  0  0  0  0  0  0  0  0  0
   16.9923   14.0559   -0.3217 C   0  0  0  0  0  0  0  0  0  0  0  0
   16.6002   14.3466   -1.2990 H   0  0  0  0  0  0  0  0  0  0  0  0
   17.5348   14.9184    0.0713 H   0  0  0  0  0  0  0  0  0  0  0  0
   16.1660   13.8158    0.3420 H   0  0  0  0  0  0  0  0  0  0  0  0
   17.7442    9.6918    0.9206 N   0  0  0  0  0  0  0  0  0  0  0  0
   16.9092    9.9790    1.4678 H   0  0  0  0  0  0  0  0  0  0  0  0
   19.2923    8.0673    0.3864 N   0  0  0  0  0  0  0  0  0  0  0  0
   19.5481    8.7022   -0.3874 H   0  0  0  0  0  0  0  0  0  0  0  0
   20.5510    6.9163   -1.9626 N   0  0  0  0  0  0  0  0  0  0  0  0
   19.3494   10.6051   -0.4760 O   0  0  0  0  0  0  0  0  0  0  0  0
   17.5473   11.7847    0.2289 O   0  0  0  0  0  0  0  0  0  0  0  0
   19.9506    7.9724   -2.1000 O   0  0  0  0  0  0  0  0  0  0  0  0
   21.0302    6.2953   -2.8897 O   0  0  0  0  0  0  0  0  0  0  0  0
   17.3596    7.3522    2.0779 S   0  0  0  0  0  0  0  0  0  0  0  0
  1 30  1  1  0  0  0
  1 21  1  0  0  0  0
  1 23  1  0  0  0  0
  2 23  1  0  0  0  0
  2  3  1  0  0  0  0
  3 25  1  0  0  0  0
  4  3  2  0  0  0  0
  4  5  1  0  0  0  0
  6  4  1  0  0  0  0
  7  6  1  0  0  0  0
  8 10  1  0  0  0  0
  8  6  2  0  0  0  0
  9  8  1  0  0  0  0
 10  2  2  0  0  0  0
 11 10  1  0  0  0  0
 12 26  2  0  0  0  0
 13 14  1  0  0  0  0
 15 13  1  0  0  0  0
 15 16  1  0  0  0  0
 17 15  1  0  0  0  0
 18 15  1  0  0  0  0
 20 19  1  0  0  0  0
 20 30  1  0  0  0  0
 21 12  1  0  0  0  0
 22 21  1  0  0  0  0
 23 24  1  0  0  0  0
 25 28  2  0  0  0  0
 25 29  2  0  0  0  0
 27 12  1  0  0  0  0
 27 13  1  0  0  0  0
 31 58  1  6  0  0  0
 32 40  1  0  0  0  0
 33 34  1  0  0  0  0
 33 32  2  0  0  0  0
 34 36  2  0  0  0  0
 35 34  1  0  0  0  0
 36 37  1  0  0  0  0
 36 38  1  0  0  0  0
 38 39  1  0  0  0  0
 40 38  2  0  0  0  0
 40 41  1  0  0  0  0
 42 55  1  0  0  0  0
 42 49  1  0  0  0  0
 43 45  1  0  0  0  0
 43 55  1  0  0  0  0
 44 43  1  0  0  0  0
 45 47  1  0  0  0  0
 45 48  1  0  0  0  0
 46 45  1  0  0  0  0
 49 31  1  0  0  0  0
 49 50  1  0  0  0  0
 51 32  1  0  0  0  0
 51 31  1  0  0  0  0
 52 51  1  0  0  0  0
 53 33  1  0  0  0  0
 54 42  2  0  0  0  0
 56 53  2  0  0  0  0
 57 53  2  0  0  0  0
 58 20  1  0  0  0  0
M  END
$$$$
