CSD_code = POLKUW | q = 0 | S = 0 | Stoichiometry = C20H24HgI2O6 | MND = 8
 OpenBabel04212202083D

 53 54  0  0  0  0  0  0  0  0999 V2000
   10.6170    3.9626    9.4779 Hg  0  0  0  0  0  0  0  0  0  0  0  0
    8.0247    3.6853    9.4839 I   0  0  0  0  0  0  0  0  0  0  0  0
   13.2235    4.2407    9.4748 I   0  0  0  0  0  0  0  0  0  0  0  0
   10.4686    5.4685    7.1171 O   0  0  0  0  0  0  0  0  0  0  0  0
   10.4183    6.7215    9.6928 O   0  0  0  0  0  0  0  0  0  0  0  0
   10.5059    5.0837   12.0444 O   0  0  0  0  0  0  0  0  0  0  0  0
   10.7985    2.4595   11.8414 O   0  0  0  0  0  0  0  0  0  0  0  0
   11.0049    1.2231    9.2653 O   0  0  0  0  0  0  0  0  0  0  0  0
   10.7366    2.8417    6.9139 O   0  0  0  0  0  0  0  0  0  0  0  0
   10.2388    6.8483    7.3160 C   0  0  0  0  0  0  0  0  0  0  0  0
   11.0002    7.3143    8.5514 C   0  0  0  0  0  0  0  0  0  0  0  0
   11.0107    7.1317   10.9067 C   0  0  0  0  0  0  0  0  0  0  0  0
   10.2642    6.4757   12.0622 C   0  0  0  0  0  0  0  0  0  0  0  0
    9.8620    4.3150   12.9839 C   0  0  0  0  0  0  0  0  0  0  0  0
   10.0195    2.9170   12.8768 C   0  0  0  0  0  0  0  0  0  0  0  0
   10.8646    1.0622   11.6427 C   0  0  0  0  0  0  0  0  0  0  0  0
   11.7029    0.7671   10.4045 C   0  0  0  0  0  0  0  0  0  0  0  0
   11.6664    0.9470    8.0492 C   0  0  0  0  0  0  0  0  0  0  0  0
   10.7942    1.4301    6.8965 C   0  0  0  0  0  0  0  0  0  0  0  0
    9.9415    3.4567    5.9770 C   0  0  0  0  0  0  0  0  0  0  0  0
    9.8003    4.8564    6.0842 C   0  0  0  0  0  0  0  0  0  0  0  0
    9.0115    5.5292    5.1659 C   0  0  0  0  0  0  0  0  0  0  0  0
    8.3646    4.8426    4.1493 C   0  0  0  0  0  0  0  0  0  0  0  0
    8.5007    3.4762    4.0460 C   0  0  0  0  0  0  0  0  0  0  0  0
    9.2859    2.7866    4.9576 C   0  0  0  0  0  0  0  0  0  0  0  0
    9.3940    2.0931   13.7977 C   0  0  0  0  0  0  0  0  0  0  0  0
    8.6200    2.6279   14.8167 C   0  0  0  0  0  0  0  0  0  0  0  0
    8.4644    3.9922   14.9198 C   0  0  0  0  0  0  0  0  0  0  0  0
    9.0830    4.8319   14.0057 C   0  0  0  0  0  0  0  0  0  0  0  0
    9.1673    7.0326    7.4696 H   0  0  0  0  0  0  0  0  0  0  0  0
   10.5954    7.4197    6.4491 H   0  0  0  0  0  0  0  0  0  0  0  0
   10.9256    8.4092    8.6235 H   0  0  0  0  0  0  0  0  0  0  0  0
   12.0594    7.0376    8.4655 H   0  0  0  0  0  0  0  0  0  0  0  0
   10.9327    8.2242   11.0066 H   0  0  0  0  0  0  0  0  0  0  0  0
   12.0715    6.8492   10.9377 H   0  0  0  0  0  0  0  0  0  0  0  0
    9.1900    6.6724   11.9479 H   0  0  0  0  0  0  0  0  0  0  0  0
   10.6252    6.9099   13.0035 H   0  0  0  0  0  0  0  0  0  0  0  0
    9.8557    0.6557   11.4929 H   0  0  0  0  0  0  0  0  0  0  0  0
   11.3370    0.5794   12.5082 H   0  0  0  0  0  0  0  0  0  0  0  0
   11.8610   -0.3189   10.3323 H   0  0  0  0  0  0  0  0  0  0  0  0
   12.6800    1.2613   10.4867 H   0  0  0  0  0  0  0  0  0  0  0  0
   12.6435    1.4472    8.0147 H   0  0  0  0  0  0  0  0  0  0  0  0
   11.8206   -0.1374    7.9492 H   0  0  0  0  0  0  0  0  0  0  0  0
    9.7862    1.0110    7.0145 H   0  0  0  0  0  0  0  0  0  0  0  0
   11.2355    1.0814    5.9538 H   0  0  0  0  0  0  0  0  0  0  0  0
    8.8848    6.5971    5.2319 H   0  0  0  0  0  0  0  0  0  0  0  0
    7.7533    5.3884    3.4480 H   0  0  0  0  0  0  0  0  0  0  0  0
    7.9974    2.9317    3.2627 H   0  0  0  0  0  0  0  0  0  0  0  0
    9.3723    1.7168    4.8620 H   0  0  0  0  0  0  0  0  0  0  0  0
    9.4957    1.0225   13.7319 H   0  0  0  0  0  0  0  0  0  0  0  0
    8.1403    1.9655   15.5200 H   0  0  0  0  0  0  0  0  0  0  0  0
    7.8600    4.4184   15.7049 H   0  0  0  0  0  0  0  0  0  0  0  0
    8.9416    5.8957   14.1012 H   0  0  0  0  0  0  0  0  0  0  0  0
  1  2  1  0  0  0  0
  3  1  1  0  0  0  0
  4 10  1  0  0  0  0
  5 12  1  0  0  0  0
  6 13  1  0  0  0  0
  6 14  1  0  0  0  0
  7 15  1  0  0  0  0
  8 17  1  0  0  0  0
 10 30  1  0  0  0  0
 10 11  1  0  0  0  0
 11 32  1  0  0  0  0
 11  5  1  0  0  0  0
 12 35  1  0  0  0  0
 12 34  1  0  0  0  0
 12 13  1  0  0  0  0
 13 37  1  0  0  0  0
 14 29  1  0  0  0  0
 15 14  2  0  0  0  0
 15 26  1  0  0  0  0
 16  7  1  0  0  0  0
 16 39  1  0  0  0  0
 17 41  1  0  0  0  0
 17 16  1  0  0  0  0
 18  8  1  0  0  0  0
 19  9  1  0  0  0  0
 19 44  1  0  0  0  0
 19 18  1  0  0  0  0
 20 21  1  0  0  0  0
 20  9  1  0  0  0  0
 21  4  1  0  0  0  0
 22 46  1  0  0  0  0
 22 21  2  0  0  0  0
 23 22  1  0  0  0  0
 24 23  2  0  0  0  0
 24 25  1  0  0  0  0
 25 20  2  0  0  0  0
 26 27  2  0  0  0  0
 27 28  1  0  0  0  0
 27 51  1  0  0  0  0
 28 52  1  0  0  0  0
 29 53  1  0  0  0  0
 29 28  2  0  0  0  0
 31 10  1  0  0  0  0
 33 11  1  0  0  0  0
 36 13  1  0  0  0  0
 38 16  1  0  0  0  0
 40 17  1  0  0  0  0
 42 18  1  0  0  0  0
 43 18  1  0  0  0  0
 45 19  1  0  0  0  0
 47 23  1  0  0  0  0
 48 24  1  0  0  0  0
 49 25  1  0  0  0  0
 50 26  1  0  0  0  0
M  END
$$$$
