CSD_code = POPYUO | q = 0 | S = 0 | Stoichiometry = C19H33Cl3N2Si2Zr | MND = 5
 OpenBabel04212202083D

 60 61  0  0  1  0  0  0  0  0999 V2000
    0.1105    3.9941    4.3092 Zr  0  0  0  0  0  0  0  0  0  0  0  0
   -1.0822    3.4856    6.2598 Cl  0  0  0  0  0  0  0  0  0  0  0  0
    1.4657    5.4399    5.5860 Cl  0  0  0  0  0  0  0  0  0  0  0  0
    1.7530    2.3587    4.5424 Cl  0  0  0  0  0  0  0  0  0  0  0  0
    0.7219    6.4450    2.4367 Si  0  0  0  0  0  0  0  0  0  0  0  0
   -1.0813    1.3827    2.6863 Si  0  0  0  0  0  0  0  0  0  0  0  0
   -0.5928    5.6849    3.2680 N   0  0  0  0  0  0  0  0  0  0  0  0
   -1.3645    3.0591    3.1325 N   0  0  0  0  0  0  0  0  0  0  0  0
   -1.7909    5.9458    3.7717 C   0  0  1  0  0  3  0  0  0  0  0  0
   -2.7298    4.9099    3.8562 C   0  0  0  0  0  0  0  0  0  0  0  0
   -2.5310    3.5715    3.4790 C   0  0  0  0  0  0  0  0  0  0  0  0
   -2.1419    7.3250    4.3345 C   0  0  0  0  0  0  0  0  0  0  0  0
   -3.5577    7.4103    4.9141 C   0  0  0  0  0  0  0  0  0  0  0  0
   -1.1455    7.5491    5.4836 C   0  0  0  0  0  0  0  0  0  0  0  0
   -2.0034    8.4117    3.2663 C   0  0  0  0  0  0  0  0  0  0  0  0
   -3.7517    2.7271    3.5321 C   0  0  0  0  0  0  0  0  0  0  0  0
   -4.7549    2.8529    2.5795 C   0  0  0  0  0  0  0  0  0  0  0  0
   -5.8842    2.0567    2.6547 C   0  0  0  0  0  0  0  0  0  0  0  0
   -6.0264    1.1484    3.6906 C   0  0  0  0  0  0  0  0  0  0  0  0
   -5.0399    1.0423    4.6575 C   0  0  0  0  0  0  0  0  0  0  0  0
   -3.9030    1.8269    4.5812 C   0  0  0  0  0  0  0  0  0  0  0  0
    0.1280    6.8523    0.6603 C   0  0  0  0  0  0  0  0  0  0  0  0
    1.7568    7.8996    3.1322 C   0  0  0  0  0  0  0  0  0  0  0  0
    1.8799    4.9063    2.3143 C   0  0  0  0  0  0  0  0  0  0  0  0
   -2.4716    0.5815    1.6455 C   0  0  0  0  0  0  0  0  0  0  0  0
    0.4388    1.4956    1.5234 C   0  0  0  0  0  0  0  0  0  0  0  0
   -0.7790    0.3594    4.2757 C   0  0  0  0  0  0  0  0  0  0  0  0
   -3.7268    5.1372    4.1966 H   0  0  0  0  0  0  0  0  0  0  0  0
   -3.7103    8.4089    5.3191 H   0  0  0  0  0  0  0  0  0  0  0  0
   -4.3142    7.2427    4.1507 H   0  0  0  0  0  0  0  0  0  0  0  0
   -3.6956    6.6981    5.7236 H   0  0  0  0  0  0  0  0  0  0  0  0
   -1.3868    8.4678    6.0140 H   0  0  0  0  0  0  0  0  0  0  0  0
   -1.1984    6.7157    6.1896 H   0  0  0  0  0  0  0  0  0  0  0  0
   -0.1264    7.6157    5.1139 H   0  0  0  0  0  0  0  0  0  0  0  0
   -2.1996    9.3868    3.7061 H   0  0  0  0  0  0  0  0  0  0  0  0
   -1.0062    8.4212    2.8428 H   0  0  0  0  0  0  0  0  0  0  0  0
   -2.7196    8.2422    2.4649 H   0  0  0  0  0  0  0  0  0  0  0  0
   -4.6401    3.5658    1.7761 H   0  0  0  0  0  0  0  0  0  0  0  0
   -6.6568    2.1477    1.9057 H   0  0  0  0  0  0  0  0  0  0  0  0
   -6.9098    0.5301    3.7486 H   0  0  0  0  0  0  0  0  0  0  0  0
   -5.1578    0.3478    5.4758 H   0  0  0  0  0  0  0  0  0  0  0  0
   -3.1389    1.7730    5.3426 H   0  0  0  0  0  0  0  0  0  0  0  0
    0.9783    6.9897    0.0021 H   0  0  0  0  0  0  0  0  0  0  0  0
   -0.4802    6.0492    0.2561 H   0  0  0  0  0  0  0  0  0  0  0  0
   -0.4613    7.7608    0.6197 H   0  0  0  0  0  0  0  0  0  0  0  0
    2.6174    8.0682    2.4913 H   0  0  0  0  0  0  0  0  0  0  0  0
    1.2113    8.8367    3.1883 H   0  0  0  0  0  0  0  0  0  0  0  0
    2.1294    7.6657    4.1257 H   0  0  0  0  0  0  0  0  0  0  0  0
    2.4989    4.9294    1.4199 H   0  0  0  0  0  0  0  0  0  0  0  0
    2.5610    4.8502    3.1688 H   0  0  0  0  0  0  0  0  0  0  0  0
    1.2722    3.9888    2.2735 H   0  0  0  0  0  0  0  0  0  0  0  0
   -2.0889   -0.3007    1.1441 H   0  0  0  0  0  0  0  0  0  0  0  0
   -3.3196    0.2748    2.2467 H   0  0  0  0  0  0  0  0  0  0  0  0
   -2.8384    1.2588    0.8815 H   0  0  0  0  0  0  0  0  0  0  0  0
    0.5390    0.5725    0.9618 H   0  0  0  0  0  0  0  0  0  0  0  0
    0.3394    2.3019    0.7988 H   0  0  0  0  0  0  0  0  0  0  0  0
    1.3644    1.6329    2.0767 H   0  0  0  0  0  0  0  0  0  0  0  0
    0.1360   -0.2190    4.1943 H   0  0  0  0  0  0  0  0  0  0  0  0
   -0.6751    1.0066    5.1483 H   0  0  0  0  0  0  0  0  0  0  0  0
   -1.5924   -0.3353    4.4665 H   0  0  0  0  0  0  0  0  0  0  0  0
  1  4  1  0  0  0  0
  1  3  1  0  0  0  0
  1  2  1  0  0  0  0
  5 23  1  0  0  0  0
  5  7  1  0  0  0  0
  6  8  1  0  0  0  0
  6 27  1  0  0  0  0
  7  9  1  0  0  0  0
  7  1  1  0  0  0  0
  8 11  1  0  0  0  0
  8  1  1  0  0  0  0
  9 10  1  0  0  0  0
  9 12  1  1  0  0  0
 10 28  1  0  0  0  0
 11 16  1  0  0  0  0
 11 10  2  0  0  0  0
 12 13  1  0  0  0  0
 12 14  1  0  0  0  0
 13 29  1  0  0  0  0
 13 31  1  0  0  0  0
 14 32  1  0  0  0  0
 14 33  1  0  0  0  0
 15 35  1  0  0  0  0
 15 12  1  0  0  0  0
 16 21  1  0  0  0  0
 17 18  1  0  0  0  0
 17 16  2  0  0  0  0
 18 19  2  0  0  0  0
 19 40  1  0  0  0  0
 19 20  1  0  0  0  0
 20 41  1  0  0  0  0
 21 20  2  0  0  0  0
 21 42  1  0  0  0  0
 22  5  1  0  0  0  0
 23 47  1  0  0  0  0
 23 48  1  0  0  0  0
 24  5  1  0  0  0  0
 24 50  1  0  0  0  0
 25 53  1  0  0  0  0
 25  6  1  0  0  0  0
 26 57  1  0  0  0  0
 26  6  1  0  0  0  0
 27 60  1  0  0  0  0
 27 59  1  0  0  0  0
 30 13  1  0  0  0  0
 34 14  1  0  0  0  0
 36 15  1  0  0  0  0
 37 15  1  0  0  0  0
 38 17  1  0  0  0  0
 39 18  1  0  0  0  0
 43 22  1  0  0  0  0
 44 22  1  0  0  0  0
 45 22  1  0  0  0  0
 46 23  1  0  0  0  0
 49 24  1  0  0  0  0
 51 24  1  0  0  0  0
 52 25  1  0  0  0  0
 54 25  1  0  0  0  0
 55 26  1  0  0  0  0
 56 26  1  0  0  0  0
 58 27  1  0  0  0  0
M  END
$$$$
