CSD_code = POQJEM | q = -1 | S = 0 | Stoichiometry = C18H15Cl3NiP(1-) | MND = 4
 OpenBabel04212202083D

 38 40  0  0  0  0  0  0  0  0999 V2000
    1.5426   12.0353    8.7102 Ni  0  0  0  0  0  0  0  0  0  0  0  0
    0.1066    9.1036    9.0954 C   0  0  0  0  0  0  0  0  0  0  0  0
   -0.3510   10.9885   11.1631 C   0  0  0  0  0  0  0  0  0  0  0  0
    2.2008    9.7095   10.9516 C   0  0  0  0  0  0  0  0  0  0  0  0
    2.0883    9.6341   12.3345 C   0  0  0  0  0  0  0  0  0  0  0  0
    1.2233   10.0508   12.8297 H   0  0  0  0  0  0  0  0  0  0  0  0
   -0.8931    9.3747    8.1664 C   0  0  0  0  0  0  0  0  0  0  0  0
   -1.1558   10.4038    7.9608 H   0  0  0  0  0  0  0  0  0  0  0  0
    0.4611    7.7853    9.3561 C   0  0  0  0  0  0  0  0  0  0  0  0
    1.2389    7.5652   10.0735 H   0  0  0  0  0  0  0  0  0  0  0  0
   -1.3207   10.0792   11.5717 C   0  0  0  0  0  0  0  0  0  0  0  0
   -1.3300    9.0791   11.1608 H   0  0  0  0  0  0  0  0  0  0  0  0
   -0.3493   12.2738   11.6921 C   0  0  0  0  0  0  0  0  0  0  0  0
    0.4042   12.9775   11.3660 H   0  0  0  0  0  0  0  0  0  0  0  0
   -1.5272    8.3392    7.5068 C   0  0  0  0  0  0  0  0  0  0  0  0
   -2.2983    8.5572    6.7818 H   0  0  0  0  0  0  0  0  0  0  0  0
    4.3271    8.5952   11.0743 C   0  0  0  0  0  0  0  0  0  0  0  0
    5.2044    8.1999   10.5820 H   0  0  0  0  0  0  0  0  0  0  0  0
   -2.2693   11.7363   13.0259 C   0  0  0  0  0  0  0  0  0  0  0  0
   -3.0216   12.0279   13.7463 H   0  0  0  0  0  0  0  0  0  0  0  0
   -2.2749   10.4551   12.5005 C   0  0  0  0  0  0  0  0  0  0  0  0
   -3.0295    9.7448   12.8106 H   0  0  0  0  0  0  0  0  0  0  0  0
   -0.1780    6.7526    8.6921 C   0  0  0  0  0  0  0  0  0  0  0  0
    0.1073    5.7292    8.8954 H   0  0  0  0  0  0  0  0  0  0  0  0
    3.0898    9.0354   13.0786 C   0  0  0  0  0  0  0  0  0  0  0  0
    2.9969    8.9825   14.1549 H   0  0  0  0  0  0  0  0  0  0  0  0
   -1.1706    7.0256    7.7668 C   0  0  0  0  0  0  0  0  0  0  0  0
   -1.6609    6.2152    7.2446 H   0  0  0  0  0  0  0  0  0  0  0  0
    3.3309    9.1916   10.3246 C   0  0  0  0  0  0  0  0  0  0  0  0
    3.4207    9.2749    9.2498 H   0  0  0  0  0  0  0  0  0  0  0  0
    4.2084    8.5133   12.4525 C   0  0  0  0  0  0  0  0  0  0  0  0
    4.9915    8.0522   13.0392 H   0  0  0  0  0  0  0  0  0  0  0  0
   -1.3041   12.6437   12.6210 C   0  0  0  0  0  0  0  0  0  0  0  0
   -1.2996   13.6456   13.0256 H   0  0  0  0  0  0  0  0  0  0  0  0
    0.9151   10.5098    9.9358 P   0  0  0  0  0  4  0  0  0  0  0  0
    2.7807   12.7315   10.4439 Cl  0  0  0  0  0  0  0  0  0  0  0  0
    2.3700   10.4404    7.3539 Cl  0  0  0  0  0  0  0  0  0  0  0  0
   -0.5448   12.7636    8.4068 Cl  0  0  0  0  0  0  0  0  0  0  0  0
  1 35  1  0  0  0  0
  1 36  1  0  0  0  0
  2  9  1  0  0  0  0
  2 35  1  0  0  0  0
  3 11  2  0  0  0  0
  3 13  1  0  0  0  0
  4  5  1  0  0  0  0
  5  6  1  0  0  0  0
  5 25  2  0  0  0  0
  7  2  2  0  0  0  0
  8  7  1  0  0  0  0
  9 10  1  0  0  0  0
 11 21  1  0  0  0  0
 12 11  1  0  0  0  0
 13 33  2  0  0  0  0
 14 13  1  0  0  0  0
 15 27  2  0  0  0  0
 15  7  1  0  0  0  0
 16 15  1  0  0  0  0
 17 31  2  0  0  0  0
 18 17  1  0  0  0  0
 19 20  1  0  0  0  0
 21 22  1  0  0  0  0
 21 19  2  0  0  0  0
 23 24  1  0  0  0  0
 23  9  2  0  0  0  0
 25 26  1  0  0  0  0
 27 23  1  0  0  0  0
 28 27  1  0  0  0  0
 29  4  2  0  0  0  0
 29 17  1  0  0  0  0
 30 29  1  0  0  0  0
 31 32  1  0  0  0  0
 31 25  1  0  0  0  0
 33 34  1  0  0  0  0
 33 19  1  0  0  0  0
 35  4  1  0  0  0  0
 35  3  1  0  0  0  0
 37  1  1  0  0  0  0
 38  1  1  0  0  0  0
M  END
$$$$
