CSD_code = POQKOY | q = 0 | S = 0 | Stoichiometry = C26H29ClIrO2PSi2 | MND = 6
 OpenBabel04212202083D

 62 66  0  0  0  0  0  0  0  0999 V2000
    7.6666    9.2436    1.8769 C   0  0  0  0  0  2  0  0  0  0  0  0
    7.2842    6.6656    0.9566 C   0  0  0  0  0  2  0  0  0  0  0  0
    9.3407    4.7443    4.6288 C   0  0  0  0  0  0  0  0  0  0  0  0
    9.5345    3.6787    4.5604 H   0  0  0  0  0  0  0  0  0  0  0  0
    9.1669    4.9872    5.6699 H   0  0  0  0  0  0  0  0  0  0  0  0
   10.2359    5.2633    4.3075 H   0  0  0  0  0  0  0  0  0  0  0  0
    7.8665    3.8525    2.1359 C   0  0  0  0  0  0  0  0  0  0  0  0
    7.9517    2.8642    2.5790 H   0  0  0  0  0  0  0  0  0  0  0  0
    8.7130    3.9856    1.4696 H   0  0  0  0  0  0  0  0  0  0  0  0
    6.9615    3.8641    1.5335 H   0  0  0  0  0  0  0  0  0  0  0  0
    8.6721    7.7262    6.3752 C   0  0  0  0  0  0  0  0  0  0  0  0
    8.7028    8.4507    7.1836 H   0  0  0  0  0  0  0  0  0  0  0  0
    9.6463    7.2559    6.3155 H   0  0  0  0  0  0  0  0  0  0  0  0
    7.9438    6.9672    6.6414 H   0  0  0  0  0  0  0  0  0  0  0  0
    9.6039    9.9561    4.5400 C   0  0  0  0  0  0  0  0  0  0  0  0
    9.3030   10.7660    3.8825 H   0  0  0  0  0  0  0  0  0  0  0  0
   10.4997    9.5127    4.1207 H   0  0  0  0  0  0  0  0  0  0  0  0
    9.8647   10.3859    5.5021 H   0  0  0  0  0  0  0  0  0  0  0  0
    6.2674    4.7191    4.5562 C   0  0  0  0  0  0  0  0  0  0  0  0
    6.4306    3.7391    4.9965 H   0  0  0  0  0  0  0  0  0  0  0  0
    6.1599    5.4418    5.3624 H   0  0  0  0  0  0  0  0  0  0  0  0
    5.0722    4.7040    3.6961 C   0  0  0  0  0  0  0  0  0  0  0  0
    4.4841    3.4993    3.3194 C   0  0  0  0  0  0  0  0  0  0  0  0
    4.9072    2.5776    3.6917 H   0  0  0  0  0  0  0  0  0  0  0  0
    3.3804    3.4607    2.4903 C   0  0  0  0  0  0  0  0  0  0  0  0
    2.9440    2.5113    2.2171 H   0  0  0  0  0  0  0  0  0  0  0  0
    2.8294    4.6397    2.0128 C   0  0  0  0  0  0  0  0  0  0  0  0
    1.9598    4.6173    1.3733 H   0  0  0  0  0  0  0  0  0  0  0  0
    3.4030    5.8490    2.3552 C   0  0  0  0  0  0  0  0  0  0  0  0
    2.9756    6.7674    1.9781 H   0  0  0  0  0  0  0  0  0  0  0  0
    4.5192    5.8934    3.1872 C   0  0  0  0  0  0  0  0  0  0  0  0
    4.3427    8.7194    2.6928 C   0  0  0  0  0  0  0  0  0  0  0  0
    3.4893    9.5701    3.3864 C   0  0  0  0  0  0  0  0  0  0  0  0
    3.4005    9.4861    4.4602 H   0  0  0  0  0  0  0  0  0  0  0  0
    2.7573   10.5253    2.7019 C   0  0  0  0  0  0  0  0  0  0  0  0
    2.1012   11.1874    3.2472 H   0  0  0  0  0  0  0  0  0  0  0  0
    2.8643   10.6337    1.3258 C   0  0  0  0  0  0  0  0  0  0  0  0
    2.2935   11.3812    0.7958 H   0  0  0  0  0  0  0  0  0  0  0  0
    3.7057    9.7809    0.6276 C   0  0  0  0  0  0  0  0  0  0  0  0
    3.7876    9.8595   -0.4464 H   0  0  0  0  0  0  0  0  0  0  0  0
    4.4449    8.8327    1.3078 C   0  0  0  0  0  0  0  0  0  0  0  0
    5.1026    8.1645    0.7666 H   0  0  0  0  0  0  0  0  0  0  0  0
    6.6487    9.6780    5.2474 C   0  0  0  0  0  0  0  0  0  0  0  0
    6.9519   10.5100    5.8787 H   0  0  0  0  0  0  0  0  0  0  0  0
    6.1931   10.0862    4.3443 H   0  0  0  0  0  0  0  0  0  0  0  0
    5.6914    8.8172    5.9626 C   0  0  0  0  0  0  0  0  0  0  0  0
    5.4598    8.9797    7.3262 C   0  0  0  0  0  0  0  0  0  0  0  0
    5.9866    9.7624    7.8529 H   0  0  0  0  0  0  0  0  0  0  0  0
    4.5711    8.1726    8.0085 C   0  0  0  0  0  0  0  0  0  0  0  0
    4.4068    8.3243    9.0651 H   0  0  0  0  0  0  0  0  0  0  0  0
    3.8831    7.1733    7.3368 C   0  0  0  0  0  0  0  0  0  0  0  0
    3.1758    6.5488    7.8613 H   0  0  0  0  0  0  0  0  0  0  0  0
    4.1131    6.9747    5.9898 C   0  0  0  0  0  0  0  0  0  0  0  0
    3.5880    6.1892    5.4642 H   0  0  0  0  0  0  0  0  0  0  0  0
    5.0166    7.7807    5.2996 C   0  0  0  0  0  0  0  0  0  0  0  0
    7.8518    5.2156    3.5072 Si  0  0  0  0  0  0  0  0  0  0  0  0
    8.2309    8.6199    4.7267 Si  0  0  0  0  0  0  0  0  0  0  0  0
    5.3538    7.4628    3.5441 P   0  0  0  0  0  4  0  0  0  0  0  0
    9.8916    7.3569    1.9915 Cl  0  0  0  0  0  0  0  0  0  0  0  0
    7.5710    7.4769    2.7022 Ir  0  0  0  0  0  0  0  0  0  0  0  0
    7.9933   10.1229    1.2291 O   0  0  0  0  0  1  0  0  0  0  0  0
    7.4275    6.3254   -0.1222 O   0  0  0  0  0  1  0  0  0  0  0  0
  1 60  1  0  0  0  0
  2 60  1  0  0  0  0
  3  5  1  0  0  0  0
  4  3  1  0  0  0  0
  6  3  1  0  0  0  0
  7  8  1  0  0  0  0
  7 56  1  0  0  0  0
  9  7  1  0  0  0  0
 10  7  1  0  0  0  0
 11 14  1  0  0  0  0
 11 12  1  0  0  0  0
 13 11  1  0  0  0  0
 15 57  1  0  0  0  0
 15 18  1  0  0  0  0
 16 15  1  0  0  0  0
 17 15  1  0  0  0  0
 19 20  1  0  0  0  0
 19 21  1  0  0  0  0
 22 19  1  0  0  0  0
 23 24  1  0  0  0  0
 23 22  1  0  0  0  0
 25 23  2  0  0  0  0
 26 25  1  0  0  0  0
 27 29  2  0  0  0  0
 27 25  1  0  0  0  0
 28 27  1  0  0  0  0
 29 31  1  0  0  0  0
 30 29  1  0  0  0  0
 31 58  1  0  0  0  0
 31 22  2  0  0  0  0
 32 33  1  0  0  0  0
 32 58  1  0  0  0  0
 33 34  1  0  0  0  0
 35 36  1  0  0  0  0
 35 33  2  0  0  0  0
 37 35  1  0  0  0  0
 38 37  1  0  0  0  0
 39 41  1  0  0  0  0
 39 37  2  0  0  0  0
 40 39  1  0  0  0  0
 41 32  2  0  0  0  0
 42 41  1  0  0  0  0
 43 44  1  0  0  0  0
 43 46  1  0  0  0  0
 45 43  1  0  0  0  0
 46 47  1  0  0  0  0
 47 48  1  0  0  0  0
 47 49  2  0  0  0  0
 49 50  1  0  0  0  0
 51 52  1  0  0  0  0
 51 49  1  0  0  0  0
 53 51  2  0  0  0  0
 54 53  1  0  0  0  0
 55 46  2  0  0  0  0
 55 53  1  0  0  0  0
 56 19  1  0  0  0  0
 56  3  1  0  0  0  0
 57 43  1  0  0  0  0
 57 11  1  0  0  0  0
 58 55  1  0  0  0  0
 59 60  1  0  0  0  0
 60 56  1  0  0  0  0
 60 58  1  0  0  0  0
 60 57  1  0  0  0  0
 61  1  1  0  0  0  0
 62  2  1  0  0  0  0
M  END
$$$$
