CSD_code = POQREV | q = 0 | S = 0 | Stoichiometry = C13H15Cl2IN2Pt | MND = 6
 OpenBabel04212202083D

 34 36  0  0  1  0  0  0  0  0999 V2000
    9.2036    0.6106   12.0769 Pt  0  0  0  0  0  0  0  0  0  0  0  0
   11.5572   -0.7164   12.5004 I   0  0  0  0  0  0  0  0  0  0  0  0
   14.3948    4.6207   12.3936 Cl  0  0  0  0  0  0  0  0  0  0  0  0
    9.7361    3.1679   18.2525 Cl  0  0  0  0  0  0  0  0  0  0  0  0
   10.5035    2.4294   12.0155 N   0  0  0  0  0  0  0  0  0  0  0  0
    9.3225    1.3113   14.1952 N   0  0  0  0  0  0  0  0  0  0  0  0
    8.1404   -1.1272   12.3656 C   0  0  0  0  0  0  0  0  0  0  0  0
    8.3671   -1.4543   13.3855 H   0  0  0  0  0  0  0  0  0  0  0  0
    7.0618   -1.0096   12.2555 H   0  0  0  0  0  0  0  0  0  0  0  0
    8.4782   -1.9104   11.6847 H   0  0  0  0  0  0  0  0  0  0  0  0
    9.1276    0.2448   10.0507 C   0  0  0  0  0  0  0  0  0  0  0  0
   10.0967   -0.1448    9.7302 H   0  0  0  0  0  0  0  0  0  0  0  0
    8.3585   -0.4677    9.7516 H   0  0  0  0  0  0  0  0  0  0  0  0
    8.9310    1.1858    9.5285 H   0  0  0  0  0  0  0  0  0  0  0  0
    7.4394    1.6668   11.8700 C   0  0  0  0  0  0  0  0  0  0  0  0
    6.8854    1.6392   12.8108 H   0  0  0  0  0  0  0  0  0  0  0  0
    7.6911    2.7070   11.6524 H   0  0  0  0  0  0  0  0  0  0  0  0
    6.7837    1.3033   11.0815 H   0  0  0  0  0  0  0  0  0  0  0  0
   11.1749    2.8098   10.9388 C   0  0  0  0  0  3  0  0  0  0  0  0
   10.7433    2.5401    9.9844 H   0  0  0  0  0  0  0  0  0  0  0  0
   12.3712    3.5013   10.9917 C   0  0  0  0  0  0  0  0  0  0  0  0
   12.8898    3.7782   10.0894 H   0  0  0  0  0  0  0  0  0  0  0  0
   12.8934    3.7997   12.2439 C   0  0  0  0  0  0  0  0  0  0  0  0
   12.1890    3.4259   13.3777 C   0  0  0  0  0  0  0  0  0  0  0  0
   12.5979    3.6247   14.3536 H   0  0  0  0  0  0  0  0  0  0  0  0
   10.9836    2.7448   13.2262 C   0  0  0  0  0  0  0  0  0  0  0  0
   10.1946    2.3078   14.3895 C   0  0  1  0  0  3  0  0  0  0  0  0
   10.3377    2.9137   15.6367 C   0  0  0  0  0  0  0  0  0  0  0  0
   11.0110    3.7419   15.7789 H   0  0  0  0  0  0  0  0  0  0  0  0
    9.5805    2.4474   16.6989 C   0  0  0  0  0  0  0  0  0  0  0  0
    8.6920    1.3993   16.4913 C   0  0  0  0  0  0  0  0  0  0  0  0
    8.0914    1.0082   17.2952 H   0  0  0  0  0  0  0  0  0  0  0  0
    8.5976    0.8773   15.2146 C   0  0  0  0  0  0  0  0  0  0  0  0
    7.9076    0.0708   15.0049 H   0  0  0  0  0  0  0  0  0  0  0  0
  1  7  1  0  0  0  0
  1  2  1  0  0  0  0
  1  6  1  0  0  0  0
  5  1  1  0  0  0  0
  5 26  1  0  0  0  0
  6 27  1  0  0  0  0
  6 33  1  0  0  0  0
  7  8  1  0  0  0  0
  9  7  1  0  0  0  0
 10  7  1  0  0  0  0
 11  1  1  0  0  0  0
 12 11  1  0  0  0  0
 13 11  1  0  0  0  0
 14 11  1  0  0  0  0
 15  1  1  0  0  0  0
 15 16  1  0  0  0  0
 17 15  1  0  0  0  0
 18 15  1  0  0  0  0
 19 21  1  0  0  0  0
 19  5  1  0  0  0  0
 20 19  1  0  0  0  0
 21 23  2  0  0  0  0
 22 21  1  0  0  0  0
 23  3  1  0  0  0  0
 23 24  1  0  0  0  0
 24 25  1  0  0  0  0
 26 24  2  0  0  0  0
 27 26  1  6  0  0  0
 27 28  1  0  0  0  0
 28 29  1  0  0  0  0
 28 30  2  0  0  0  0
 30  4  1  0  0  0  0
 31 30  1  0  0  0  0
 31 32  1  0  0  0  0
 33 31  2  0  0  0  0
 34 33  1  0  0  0  0
M  END
$$$$
