CSD_code = PORJOW | q = 0 | S = 0 | Stoichiometry = C21H14ClN2O7ReS2 | MND = 6
 OpenBabel04212202083D

 48 51  0  0  0  0  0  0  0  0999 V2000
   -0.5096    0.2356    3.0564 Re  0  0  0  0  0  0  0  0  0  0  0  0
   -0.9786   -2.0513    3.3779 Cl  0  0  0  0  0  0  0  0  0  0  0  0
    3.2889    3.0024    5.2553 S   0  0  0  0  0  0  0  0  0  0  0  0
    4.0627    2.4996    2.4406 S   0  0  0  0  0  0  0  0  0  0  0  0
    0.1336    2.0568    2.8759 C   0  0  0  0  0  2  0  0  0  0  0  0
   -1.3839    0.2384    1.3181 C   0  0  0  0  0  2  0  0  0  0  0  0
   -2.1772    0.7704    3.9059 C   0  0  0  0  0  2  0  0  0  0  0  0
   -0.0942   -0.5122    6.0418 C   0  0  0  0  0  3  0  0  0  0  0  0
   -1.1395   -0.7564    5.9053 H   0  0  0  0  0  0  0  0  0  0  0  0
    0.5187   -0.7152    7.2645 C   0  0  0  0  0  0  0  0  0  0  0  0
   -0.0492   -1.1107    8.0908 H   0  0  0  0  0  0  0  0  0  0  0  0
    1.8622   -0.4014    7.3985 C   0  0  0  0  0  0  0  0  0  0  0  0
    2.3765   -0.5450    8.3364 H   0  0  0  0  0  0  0  0  0  0  0  0
    2.5356    0.0897    6.2958 C   0  0  0  0  0  0  0  0  0  0  0  0
    3.5866    0.3269    6.3427 H   0  0  0  0  0  0  0  0  0  0  0  0
    1.8452    0.2622    5.0994 C   0  0  0  0  0  0  0  0  0  0  0  0
    1.3677   -1.4732    1.2656 C   0  0  0  0  0  3  0  0  0  0  0  0
    0.3948   -1.7850    0.9090 H   0  0  0  0  0  0  0  0  0  0  0  0
    2.5195   -2.0057    0.7165 C   0  0  0  0  0  0  0  0  0  0  0  0
    2.4504   -2.7309   -0.0779 H   0  0  0  0  0  0  0  0  0  0  0  0
    3.7475   -1.5884    1.2061 C   0  0  0  0  0  0  0  0  0  0  0  0
    4.6694   -1.9780    0.8022 H   0  0  0  0  0  0  0  0  0  0  0  0
    3.7657   -0.6702    2.2391 C   0  0  0  0  0  0  0  0  0  0  0  0
    4.6951   -0.3359    2.6726 H   0  0  0  0  0  0  0  0  0  0  0  0
    2.5598   -0.1879    2.7419 C   0  0  0  0  0  0  0  0  0  0  0  0
    2.5643    0.7315    3.8968 C   0  0  0  0  0  0  0  0  0  0  0  0
    3.2478    1.8942    3.8885 C   0  0  0  0  0  0  0  0  0  0  0  0
    4.1110    4.2809    4.3896 C   0  0  0  0  0  0  0  0  0  0  0  0
    4.4516    4.0499    3.1085 C   0  0  0  0  0  0  0  0  0  0  0  0
    5.1727    5.0228    2.2226 C   0  0  0  0  0  0  0  0  0  0  0  0
    4.9235    7.0063    1.0209 C   0  0  0  0  0  0  0  0  0  0  0  0
    5.7160    7.5260    1.5616 H   0  0  0  0  0  0  0  0  0  0  0  0
    4.1122    7.6868    0.7779 H   0  0  0  0  0  0  0  0  0  0  0  0
    5.3423    6.5651    0.1147 H   0  0  0  0  0  0  0  0  0  0  0  0
    4.3923    5.4884    5.1867 C   0  0  0  0  0  0  0  0  0  0  0  0
    5.4804    7.5636    5.2130 C   0  0  0  0  0  0  0  0  0  0  0  0
    4.6521    8.2710    5.1413 H   0  0  0  0  0  0  0  0  0  0  0  0
    6.3662    7.9645    4.7264 H   0  0  0  0  0  0  0  0  0  0  0  0
    5.6789    7.3504    6.2647 H   0  0  0  0  0  0  0  0  0  0  0  0
    0.5455   -0.0274    4.9802 N   0  0  0  0  0  0  0  0  0  0  0  0
    1.3791   -0.5764    2.2488 N   0  0  0  0  0  0  0  0  0  0  0  0
    0.5395    3.1303    2.7686 O   0  0  0  0  0  1  0  0  0  0  0  0
   -1.8908    0.1629    0.2931 O   0  0  0  0  0  1  0  0  0  0  0  0
   -3.1633    1.0157    4.4349 O   0  0  0  0  0  1  0  0  0  0  0  0
    6.3178    4.8986    1.8920 O   0  0  0  0  0  0  0  0  0  0  0  0
    4.3557    5.9942    1.8456 O   0  0  0  0  0  0  0  0  0  0  0  0
    3.9976    5.6346    6.3143 O   0  0  0  0  0  0  0  0  0  0  0  0
    5.1517    6.3630    4.5219 O   0  0  0  0  0  0  0  0  0  0  0  0
  1  2  1  0  0  0  0
  1  7  1  0  0  0  0
  1 40  1  0  0  0  0
  4 29  1  0  0  0  0
  4 27  1  0  0  0  0
  5  1  1  0  0  0  0
  6  1  1  0  0  0  0
  7 44  1  0  0  0  0
  8 10  1  0  0  0  0
  9  8  1  0  0  0  0
 10 12  2  0  0  0  0
 10 11  1  0  0  0  0
 12 13  1  0  0  0  0
 14 15  1  0  0  0  0
 14 12  1  0  0  0  0
 16 14  2  0  0  0  0
 17 41  1  0  0  0  0
 18 17  1  0  0  0  0
 19 21  2  0  0  0  0
 19 17  1  0  0  0  0
 20 19  1  0  0  0  0
 21 23  1  0  0  0  0
 22 21  1  0  0  0  0
 23 24  1  0  0  0  0
 23 25  2  0  0  0  0
 25 26  1  0  0  0  0
 26 16  1  0  0  0  0
 27 26  2  0  0  0  0
 27  3  1  0  0  0  0
 28 35  1  0  0  0  0
 28  3  1  0  0  0  0
 29 28  2  0  0  0  0
 30 29  1  0  0  0  0
 31 32  1  0  0  0  0
 31 46  1  0  0  0  0
 33 31  1  0  0  0  0
 34 31  1  0  0  0  0
 35 47  2  0  0  0  0
 36 39  1  0  0  0  0
 37 36  1  0  0  0  0
 38 36  1  0  0  0  0
 40 16  1  0  0  0  0
 40  8  1  0  0  0  0
 41 25  1  0  0  0  0
 41  1  1  0  0  0  0
 42  5  1  0  0  0  0
 43  6  1  0  0  0  0
 45 30  2  0  0  0  0
 46 30  1  0  0  0  0
 48 35  1  0  0  0  0
 48 36  1  0  0  0  0
M  END
$$$$
