CSD_code = PORLUE | q = 0 | S = 0 | Stoichiometry = C33H28Br2HgOP2 | MND = 4
 OpenBabel04212202083D

 67 71  0  0  0  0  0  0  0  0999 V2000
    0.3474    6.5158    6.7807 Hg  0  0  0  0  0  0  0  0  0  0  0  0
   -0.8001    8.5158    7.7084 Br  0  0  0  0  0  0  0  0  0  0  0  0
    1.3099    5.7988    4.6203 Br  0  0  0  0  0  0  0  0  0  0  0  0
   -1.2066    4.2628    7.3157 P   0  0  0  0  0  4  0  0  0  0  0  0
    1.0552    4.2031    9.3004 P   0  0  0  0  0  4  0  0  0  0  0  0
    2.7419    3.7145    7.9065 O   0  0  0  0  0  0  0  0  0  0  0  0
    2.0056    3.1254   10.3999 C   0  0  0  0  0  0  0  0  0  0  0  0
    1.8691    5.6375    8.6442 C   0  0  0  0  0  3  0  0  0  0  0  0
    2.0124    6.5187    9.2615 H   0  0  0  0  0  0  0  0  0  0  0  0
    2.9074    4.9644    7.9263 C   0  0  0  0  0  0  0  0  0  0  0  0
    3.9939    5.6206    7.1993 C   0  0  0  0  0  0  0  0  0  0  0  0
   -0.2403    4.7911   10.4441 C   0  0  0  0  0  0  0  0  0  0  0  0
   -0.5809    6.1273   10.6045 C   0  0  0  0  0  0  0  0  0  0  0  0
   -0.0739    6.8991   10.0464 H   0  0  0  0  0  0  0  0  0  0  0  0
   -2.6480    4.1668    8.4194 C   0  0  0  0  0  0  0  0  0  0  0  0
   -3.2572    5.3523    8.8141 C   0  0  0  0  0  0  0  0  0  0  0  0
   -2.8628    6.2999    8.4717 H   0  0  0  0  0  0  0  0  0  0  0  0
   -0.9083    3.8246   11.1939 C   0  0  0  0  0  0  0  0  0  0  0  0
   -0.6258    2.7832   11.0937 H   0  0  0  0  0  0  0  0  0  0  0  0
   -1.5882    6.4888   11.4833 C   0  0  0  0  0  0  0  0  0  0  0  0
   -1.8489    7.5308   11.5884 H   0  0  0  0  0  0  0  0  0  0  0  0
   -2.2558    5.5216   12.2125 C   0  0  0  0  0  0  0  0  0  0  0  0
   -3.0420    5.8049   12.8961 H   0  0  0  0  0  0  0  0  0  0  0  0
    4.0777    7.0103    7.0954 C   0  0  0  0  0  0  0  0  0  0  0  0
    3.3454    7.6437    7.5816 H   0  0  0  0  0  0  0  0  0  0  0  0
    6.0326    6.7912    5.7220 C   0  0  0  0  0  0  0  0  0  0  0  0
    6.8187    7.2491    5.1401 H   0  0  0  0  0  0  0  0  0  0  0  0
   -3.1623    2.9442    8.8438 C   0  0  0  0  0  0  0  0  0  0  0  0
   -2.7118    2.0185    8.5099 H   0  0  0  0  0  0  0  0  0  0  0  0
   -4.2653    2.9168    9.6742 C   0  0  0  0  0  0  0  0  0  0  0  0
   -4.6652    1.9688   10.0036 H   0  0  0  0  0  0  0  0  0  0  0  0
   -4.8632    4.1011   10.0786 C   0  0  0  0  0  0  0  0  0  0  0  0
   -5.7255    4.0719   10.7279 H   0  0  0  0  0  0  0  0  0  0  0  0
   -4.3630    5.3163    9.6452 C   0  0  0  0  0  0  0  0  0  0  0  0
   -4.8324    6.2388    9.9510 H   0  0  0  0  0  0  0  0  0  0  0  0
   -1.9109    4.1863   12.0707 C   0  0  0  0  0  0  0  0  0  0  0  0
   -2.4241    3.4288   12.6446 H   0  0  0  0  0  0  0  0  0  0  0  0
    5.0929    7.5876    6.3587 C   0  0  0  0  0  0  0  0  0  0  0  0
    5.1479    8.6626    6.2721 H   0  0  0  0  0  0  0  0  0  0  0  0
    0.0346    3.1841    8.1603 C   0  0  0  0  0  0  0  0  0  0  0  0
   -0.4741    2.4181    8.7558 H   0  0  0  0  0  0  0  0  0  0  0  0
    0.6767    2.7180    7.4095 H   0  0  0  0  0  0  0  0  0  0  0  0
    2.4553    3.6925   11.5864 C   0  0  0  0  0  0  0  0  0  0  0  0
    2.2114    4.7247   11.8066 H   0  0  0  0  0  0  0  0  0  0  0  0
    3.2021    2.9346   12.4688 C   0  0  0  0  0  0  0  0  0  0  0  0
    3.5576    3.3722   13.3898 H   0  0  0  0  0  0  0  0  0  0  0  0
    2.3044    1.8062   10.0905 C   0  0  0  0  0  0  0  0  0  0  0  0
    1.9747    1.3867    9.1517 H   0  0  0  0  0  0  0  0  0  0  0  0
    3.0444    1.0515   10.9826 C   0  0  0  0  0  0  0  0  0  0  0  0
    3.2792    0.0232   10.7502 H   0  0  0  0  0  0  0  0  0  0  0  0
    3.4926    1.6132   12.1677 C   0  0  0  0  0  0  0  0  0  0  0  0
    4.0749    1.0204   12.8573 H   0  0  0  0  0  0  0  0  0  0  0  0
   -1.6760    3.2192    5.9030 C   0  0  0  0  0  0  0  0  0  0  0  0
   -0.6810    2.7400    5.0521 C   0  0  0  0  0  0  0  0  0  0  0  0
    0.3612    2.9461    5.2526 H   0  0  0  0  0  0  0  0  0  0  0  0
   -3.0157    3.0146    5.5826 C   0  0  0  0  0  0  0  0  0  0  0  0
   -3.7918    3.4209    6.2164 H   0  0  0  0  0  0  0  0  0  0  0  0
   -3.3507    2.2917    4.4524 C   0  0  0  0  0  0  0  0  0  0  0  0
   -4.3912    2.1287    4.2126 H   0  0  0  0  0  0  0  0  0  0  0  0
   -2.3593    1.7907    3.6250 C   0  0  0  0  0  0  0  0  0  0  0  0
   -2.6261    1.2330    2.7399 H   0  0  0  0  0  0  0  0  0  0  0  0
   -1.0262    2.0226    3.9227 C   0  0  0  0  0  0  0  0  0  0  0  0
   -0.2508    1.6572    3.2667 H   0  0  0  0  0  0  0  0  0  0  0  0
    5.9581    5.4114    5.8234 C   0  0  0  0  0  0  0  0  0  0  0  0
    6.6864    4.7918    5.3217 H   0  0  0  0  0  0  0  0  0  0  0  0
    4.9446    4.8275    6.5565 C   0  0  0  0  0  0  0  0  0  0  0  0
    4.8585    3.7545    6.6391 H   0  0  0  0  0  0  0  0  0  0  0  0
  1  4  1  0  0  0  0
  1  2  1  0  0  0  0
  3  1  1  0  0  0  0
  4 40  1  0  0  0  0
  4 15  1  0  0  0  0
  5  7  1  0  0  0  0
  5 12  1  0  0  0  0
  6 10  2  0  0  0  0
  7 43  1  0  0  0  0
  8  9  1  0  0  0  0
  8  5  1  0  0  0  0
 10  8  1  0  0  0  0
 11 10  1  0  0  0  0
 12 13  2  0  0  0  0
 12 18  1  0  0  0  0
 13 20  1  0  0  0  0
 14 13  1  0  0  0  0
 15 16  2  0  0  0  0
 15 28  1  0  0  0  0
 16 34  1  0  0  0  0
 17 16  1  0  0  0  0
 18 36  2  0  0  0  0
 19 18  1  0  0  0  0
 20 21  1  0  0  0  0
 20 22  2  0  0  0  0
 22 23  1  0  0  0  0
 24 11  1  0  0  0  0
 24 25  1  0  0  0  0
 26 64  2  0  0  0  0
 26 38  1  0  0  0  0
 27 26  1  0  0  0  0
 28 30  2  0  0  0  0
 29 28  1  0  0  0  0
 30 31  1  0  0  0  0
 30 32  1  0  0  0  0
 32 33  1  0  0  0  0
 34 35  1  0  0  0  0
 34 32  2  0  0  0  0
 36 22  1  0  0  0  0
 36 37  1  0  0  0  0
 38 24  2  0  0  0  0
 39 38  1  0  0  0  0
 40 41  1  0  0  0  0
 40  5  1  0  0  0  0
 42 40  1  0  0  0  0
 43 44  1  0  0  0  0
 43 45  2  0  0  0  0
 45 46  1  0  0  0  0
 47  7  2  0  0  0  0
 47 49  1  0  0  0  0
 48 47  1  0  0  0  0
 49 51  2  0  0  0  0
 50 49  1  0  0  0  0
 51 45  1  0  0  0  0
 51 52  1  0  0  0  0
 53  4  1  0  0  0  0
 54 55  1  0  0  0  0
 54 53  2  0  0  0  0
 56 53  1  0  0  0  0
 56 57  1  0  0  0  0
 58 56  2  0  0  0  0
 59 58  1  0  0  0  0
 60 62  2  0  0  0  0
 60 58  1  0  0  0  0
 61 60  1  0  0  0  0
 62 54  1  0  0  0  0
 63 62  1  0  0  0  0
 64 66  1  0  0  0  0
 65 64  1  0  0  0  0
 66 67  1  0  0  0  0
 66 11  2  0  0  0  0
M  END
$$$$
