CSD_code = PORLOY | q = 0 | S = 0 | Stoichiometry = C33H28Cl2HgOP2 | MND = 4
 OpenBabel04212202083D

 67 72  0  0  1  0  0  0  0  0999 V2000
    4.8421    1.9279   10.8328 Hg  0  0  0  0  0  0  0  0  0  0  0  0
    5.6929    2.3918   12.9146 Cl  0  0  0  0  0  0  0  0  0  0  0  0
    3.8283    0.0477    9.9431 Cl  0  0  0  0  0  0  0  0  0  0  0  0
    5.5963    4.3096    8.5131 P   0  0  0  0  0  4  0  0  0  0  0  0
    3.2961    4.1659   10.4439 P   0  0  0  0  0  4  0  0  0  0  0  0
    7.2414    4.7673    9.9554 O   0  0  0  0  0  0  0  0  0  0  0  0
    6.4150    2.8607    9.1300 C   0  0  1  0  0  0  0  0  0  0  0  0
    6.5785    1.9996    8.4894 H   0  0  0  0  0  0  0  0  0  0  0  0
    7.4193    3.5199    9.9077 C   0  0  0  0  0  0  0  0  0  0  0  0
    8.4903    2.8519   10.6446 C   0  0  0  0  0  0  0  0  0  0  0  0
    8.5293    1.4637   10.7851 C   0  0  0  0  0  0  0  0  0  0  0  0
    7.7652    0.8434   10.3297 H   0  0  0  0  0  0  0  0  0  0  0  0
    9.5322    0.8740   11.5294 C   0  0  0  0  0  0  0  0  0  0  0  0
    9.5519   -0.1992   11.6471 H   0  0  0  0  0  0  0  0  0  0  0  0
   10.5039    1.6556   12.1354 C   0  0  0  0  0  0  0  0  0  0  0  0
   11.2811    1.1883   12.7222 H   0  0  0  0  0  0  0  0  0  0  0  0
   10.4734    3.0341   11.9977 C   0  0  0  0  0  0  0  0  0  0  0  0
   11.2272    3.6425   12.4755 H   0  0  0  0  0  0  0  0  0  0  0  0
    9.4713    3.6309   11.2590 C   0  0  0  0  0  0  0  0  0  0  0  0
    9.4205    4.7037   11.1471 H   0  0  0  0  0  0  0  0  0  0  0  0
    6.5618    5.4205    7.4603 C   0  0  0  0  0  0  0  0  0  0  0  0
    7.0393    4.8831    6.2705 C   0  0  0  0  0  0  0  0  0  0  0  0
    6.8039    3.8554    6.0224 H   0  0  0  0  0  0  0  0  0  0  0  0
    7.8004    5.6648    5.4216 C   0  0  0  0  0  0  0  0  0  0  0  0
    8.1771    5.2509    4.4982 H   0  0  0  0  0  0  0  0  0  0  0  0
    8.0783    6.9800    5.7596 C   0  0  0  0  0  0  0  0  0  0  0  0
    8.6720    7.5913    5.0965 H   0  0  0  0  0  0  0  0  0  0  0  0
    7.6033    7.5117    6.9482 C   0  0  0  0  0  0  0  0  0  0  0  0
    7.8287    8.5352    7.2091 H   0  0  0  0  0  0  0  0  0  0  0  0
    6.8482    6.7332    7.8069 C   0  0  0  0  0  0  0  0  0  0  0  0
    6.4962    7.1281    8.7482 H   0  0  0  0  0  0  0  0  0  0  0  0
    4.3195    3.7450    7.3370 C   0  0  0  0  0  0  0  0  0  0  0  0
    3.9347    2.4184    7.1922 C   0  0  0  0  0  0  0  0  0  0  0  0
    4.3907    1.6390    7.7849 H   0  0  0  0  0  0  0  0  0  0  0  0
    2.9368    2.0813    6.2927 C   0  0  0  0  0  0  0  0  0  0  0  0
    2.6414    1.0479    6.1949 H   0  0  0  0  0  0  0  0  0  0  0  0
    2.3193    3.0594    5.5341 C   0  0  0  0  0  0  0  0  0  0  0  0
    1.5395    2.7930    4.8362 H   0  0  0  0  0  0  0  0  0  0  0  0
    2.7029    4.3847    5.6687 C   0  0  0  0  0  0  0  0  0  0  0  0
    2.2262    5.1511    5.0753 H   0  0  0  0  0  0  0  0  0  0  0  0
    3.6986    4.7236    6.5627 C   0  0  0  0  0  0  0  0  0  0  0  0
    4.0124    5.7565    6.6589 H   0  0  0  0  0  0  0  0  0  0  0  0
    4.5412    5.2866    9.6591 C   0  0  0  0  0  0  0  0  0  0  0  0
    4.0391    6.0631    9.0709 H   0  0  0  0  0  0  0  0  0  0  0  0
    5.1563    5.7356   10.4427 H   0  0  0  0  0  0  0  0  0  0  0  0
    2.8313    5.1588   11.8927 C   0  0  0  0  0  0  0  0  0  0  0  0
    1.5181    5.5395   12.1488 C   0  0  0  0  0  0  0  0  0  0  0  0
    0.7323    5.2859   11.4514 H   0  0  0  0  0  0  0  0  0  0  0  0
    1.2221    6.2421   13.3035 C   0  0  0  0  0  0  0  0  0  0  0  0
    0.2032    6.5433   13.4981 H   0  0  0  0  0  0  0  0  0  0  0  0
    2.2221    6.5473   14.2115 C   0  0  0  0  0  0  0  0  0  0  0  0
    1.9829    7.0899   15.1141 H   0  0  0  0  0  0  0  0  0  0  0  0
    3.5249    6.1373   13.9741 C   0  0  0  0  0  0  0  0  0  0  0  0
    4.3007    6.3500   14.6940 H   0  0  0  0  0  0  0  0  0  0  0  0
    3.8322    5.4383   12.8231 C   0  0  0  0  0  0  0  0  0  0  0  0
    4.8399    5.0799   12.6579 H   0  0  0  0  0  0  0  0  0  0  0  0
    1.8630    4.2623    9.3321 C   0  0  0  0  0  0  0  0  0  0  0  0
    1.2559    3.0642    8.9703 C   0  0  0  0  0  0  0  0  0  0  0  0
    1.6627    2.1304    9.3385 H   0  0  0  0  0  0  0  0  0  0  0  0
    0.1494    3.0752    8.1398 C   0  0  0  0  0  0  0  0  0  0  0  0
   -0.3202    2.1447    7.8589 H   0  0  0  0  0  0  0  0  0  0  0  0
   -0.3521    4.2775    7.6718 C   0  0  0  0  0  0  0  0  0  0  0  0
   -1.2149    4.2872    7.0224 H   0  0  0  0  0  0  0  0  0  0  0  0
    0.2462    5.4732    8.0393 C   0  0  0  0  0  0  0  0  0  0  0  0
   -0.1536    6.4105    7.6805 H   0  0  0  0  0  0  0  0  0  0  0  0
    1.3499    5.4715    8.8703 C   0  0  0  0  0  0  0  0  0  0  0  0
    1.8018    6.4073    9.1719 H   0  0  0  0  0  0  0  0  0  0  0  0
  1  2  1  0  0  0  0
  3  1  1  0  0  0  0
  4  7  1  0  0  0  0
  4 43  1  0  0  0  0
  5  1  1  0  0  0  0
  5 46  1  0  0  0  0
  7  8  1  6  0  0  0
  7  9  1  0  0  0  0
  7  1  1  0  0  0  0
  9  6  2  0  0  0  0
  9 10  1  0  0  0  0
 10 11  2  0  0  0  0
 10 19  1  0  0  0  0
 11 13  1  0  0  0  0
 12 11  1  0  0  0  0
 13 14  1  0  0  0  0
 13 15  2  0  0  0  0
 15 16  1  0  0  0  0
 17 15  1  0  0  0  0
 17 18  1  0  0  0  0
 19 17  2  0  0  0  0
 20 19  1  0  0  0  0
 21 30  1  0  0  0  0
 21  4  1  0  0  0  0
 22 21  2  0  0  0  0
 23 22  1  0  0  0  0
 24 26  2  0  0  0  0
 24 22  1  0  0  0  0
 25 24  1  0  0  0  0
 26 28  1  0  0  0  0
 27 26  1  0  0  0  0
 28 29  1  0  0  0  0
 28 30  2  0  0  0  0
 30 31  1  0  0  0  0
 32  4  1  0  0  0  0
 33 32  1  0  0  0  0
 33 34  1  0  0  0  0
 35 33  2  0  0  0  0
 36 35  1  0  0  0  0
 37 39  2  0  0  0  0
 37 35  1  0  0  0  0
 38 37  1  0  0  0  0
 39 41  1  0  0  0  0
 40 39  1  0  0  0  0
 41 42  1  0  0  0  0
 41 32  2  0  0  0  0
 43 45  1  0  0  0  0
 43  5  1  0  0  0  0
 44 43  1  0  0  0  0
 46 47  2  0  0  0  0
 46 55  1  0  0  0  0
 47 49  1  0  0  0  0
 48 47  1  0  0  0  0
 49 50  1  0  0  0  0
 49 51  2  0  0  0  0
 51 52  1  0  0  0  0
 53 51  1  0  0  0  0
 53 54  1  0  0  0  0
 55 53  2  0  0  0  0
 56 55  1  0  0  0  0
 57  5  1  0  0  0  0
 58 57  1  0  0  0  0
 58 59  1  0  0  0  0
 60 58  2  0  0  0  0
 61 60  1  0  0  0  0
 62 64  2  0  0  0  0
 62 60  1  0  0  0  0
 63 62  1  0  0  0  0
 64 66  1  0  0  0  0
 65 64  1  0  0  0  0
 66 67  1  0  0  0  0
 66 57  2  0  0  0  0
M  END
$$$$
