CSD_code = PORPAO | q = 0 | S = 0 | Stoichiometry = C31H25ClNOPPd | MND = 4
 OpenBabel04212202083D

 61 66  0  0  0  0  0  0  0  0999 V2000
    2.9743    9.4827    3.2161 Pd  0  0  1  0  0  0  0  0  0  0  0  0
    1.2942   11.0451    2.7303 Cl  0  0  0  0  0  0  0  0  0  0  0  0
    1.8694    7.8395    2.2090 P   0  0  0  0  0  4  0  0  0  0  0  0
    3.6048   12.2333    4.0866 O   0  0  0  0  0  0  0  0  0  0  0  0
    2.6984   12.1773    3.6555 H   0  0  0  0  0  0  0  0  0  0  0  0
    4.0478   10.9366    4.0590 N   0  0  0  0  0  0  0  0  0  0  0  0
    5.2383   10.6516    4.4595 C   0  0  0  0  0  0  0  0  0  0  0  0
    5.5730    9.2327    4.3550 C   0  0  0  0  0  0  0  0  0  0  0  0
    6.7647    8.6996    4.8413 C   0  0  0  0  0  0  0  0  0  0  0  0
    7.4880    9.3435    5.3211 H   0  0  0  0  0  0  0  0  0  0  0  0
    7.0139    7.3458    4.7167 C   0  0  0  0  0  0  0  0  0  0  0  0
    7.9393    6.9311    5.0888 H   0  0  0  0  0  0  0  0  0  0  0  0
    6.0716    6.5249    4.1209 C   0  0  0  0  0  0  0  0  0  0  0  0
    6.2626    5.4654    4.0249 H   0  0  0  0  0  0  0  0  0  0  0  0
    4.8747    7.0519    3.6540 C   0  0  0  0  0  0  0  0  0  0  0  0
    4.1516    6.3765    3.2082 H   0  0  0  0  0  0  0  0  0  0  0  0
    4.5932    8.4073    3.7572 C   0  0  0  0  0  0  0  0  0  0  0  0
    6.1806   11.6624    4.9685 C   0  0  0  0  0  0  0  0  0  0  0  0
    5.8175   12.5053    6.0144 C   0  0  0  0  0  0  0  0  0  0  0  0
    4.8411   12.4090    6.4646 H   0  0  0  0  0  0  0  0  0  0  0  0
    6.7077   13.4554    6.4796 C   0  0  0  0  0  0  0  0  0  0  0  0
    6.4216   14.1035    7.2947 H   0  0  0  0  0  0  0  0  0  0  0  0
    7.9595   13.5805    5.9007 C   0  0  0  0  0  0  0  0  0  0  0  0
    8.6513   14.3266    6.2630 H   0  0  0  0  0  0  0  0  0  0  0  0
    8.3215   12.7513    4.8517 C   0  0  0  0  0  0  0  0  0  0  0  0
    9.2941   12.8519    4.3924 H   0  0  0  0  0  0  0  0  0  0  0  0
    7.4397   11.7933    4.3875 C   0  0  0  0  0  0  0  0  0  0  0  0
    7.7132   11.1556    3.5591 H   0  0  0  0  0  0  0  0  0  0  0  0
    0.3598    8.2187    1.2677 C   0  0  0  0  0  0  0  0  0  0  0  0
   -0.7838    8.5328    1.9990 C   0  0  0  0  0  0  0  0  0  0  0  0
   -0.7443    8.5058    3.0814 H   0  0  0  0  0  0  0  0  0  0  0  0
   -1.9459    8.8935    1.3466 C   0  0  0  0  0  0  0  0  0  0  0  0
   -2.8289    9.1424    1.9163 H   0  0  0  0  0  0  0  0  0  0  0  0
   -1.9732    8.9481   -0.0387 C   0  0  0  0  0  0  0  0  0  0  0  0
   -2.8807    9.2355   -0.5489 H   0  0  0  0  0  0  0  0  0  0  0  0
   -0.8356    8.6470   -0.7679 C   0  0  0  0  0  0  0  0  0  0  0  0
   -0.8545    8.6999   -1.8468 H   0  0  0  0  0  0  0  0  0  0  0  0
    0.3336    8.2874   -0.1199 C   0  0  0  0  0  0  0  0  0  0  0  0
    1.2254    8.0649   -0.6899 H   0  0  0  0  0  0  0  0  0  0  0  0
    2.9535    7.0941    0.9495 C   0  0  0  0  0  0  0  0  0  0  0  0
    3.8987    7.9703    0.4174 C   0  0  0  0  0  0  0  0  0  0  0  0
    3.9374    8.9997    0.7941 H   0  0  0  0  0  0  0  0  0  0  0  0
    4.7746    7.5390   -0.5602 C   0  0  0  0  0  0  0  0  0  0  0  0
    5.5046    8.2190   -0.9736 H   0  0  0  0  0  0  0  0  0  0  0  0
    4.7185    6.2260   -1.0028 C   0  0  0  0  0  0  0  0  0  0  0  0
    5.4056    5.8834   -1.7621 H   0  0  0  0  0  0  0  0  0  0  0  0
    3.7892    5.3498   -0.4672 C   0  0  0  0  0  0  0  0  0  0  0  0
    3.7548    4.3254   -0.8085 H   0  0  0  0  0  0  0  0  0  0  0  0
    2.9029    5.7796    0.5061 C   0  0  0  0  0  0  0  0  0  0  0  0
    2.1865    5.0903    0.9283 H   0  0  0  0  0  0  0  0  0  0  0  0
    1.2669    6.5403    3.3282 C   0  0  0  0  0  0  0  0  0  0  0  0
    0.4282    5.5092    2.9168 C   0  0  0  0  0  0  0  0  0  0  0  0
    0.1068    5.4536    1.8854 H   0  0  0  0  0  0  0  0  0  0  0  0
   -0.0144    4.5760    3.8367 C   0  0  0  0  0  0  0  0  0  0  0  0
   -0.6618    3.7721    3.5181 H   0  0  0  0  0  0  0  0  0  0  0  0
    0.3618    4.6763    5.1671 C   0  0  0  0  0  0  0  0  0  0  0  0
    0.0112    3.9455    5.8808 H   0  0  0  0  0  0  0  0  0  0  0  0
    1.1697    5.7212    5.5866 C   0  0  0  0  0  0  0  0  0  0  0  0
    1.4433    5.8095    6.6275 H   0  0  0  0  0  0  0  0  0  0  0  0
    1.6190    6.6546    4.6702 C   0  0  0  0  0  0  0  0  0  0  0  0
    2.2440    7.4956    4.9808 H   0  0  0  0  0  0  0  0  0  0  0  0
  1  2  1  1  0  0  0
  1 17  2  0  0  0  0
  1  6  1  0  0  0  0
  3  1  1  0  0  0  0
  3 51  1  0  0  0  0
  5  4  1  0  0  0  0
  6  4  1  0  0  0  0
  6  7  1  0  0  0  0
  7 18  1  0  0  0  0
  8  7  2  0  0  0  0
  8  9  1  0  0  0  0
  9 10  1  0  0  0  0
 11  9  2  0  0  0  0
 11 12  1  0  0  0  0
 13 11  1  0  0  0  0
 14 13  1  0  0  0  0
 15 17  1  0  0  0  0
 15 13  2  0  0  0  0
 16 15  1  0  0  0  0
 17  8  1  0  0  0  0
 18 19  1  0  0  0  0
 19 20  1  0  0  0  0
 19 21  2  0  0  0  0
 21 22  1  0  0  0  0
 23 24  1  0  0  0  0
 23 21  1  0  0  0  0
 25 23  2  0  0  0  0
 26 25  1  0  0  0  0
 27 25  1  0  0  0  0
 27 18  2  0  0  0  0
 28 27  1  0  0  0  0
 29 30  1  0  0  0  0
 29  3  1  0  0  0  0
 30 31  1  0  0  0  0
 32 33  1  0  0  0  0
 32 30  2  0  0  0  0
 34 32  1  0  0  0  0
 35 34  1  0  0  0  0
 36 38  1  0  0  0  0
 36 34  2  0  0  0  0
 37 36  1  0  0  0  0
 38 29  2  0  0  0  0
 39 38  1  0  0  0  0
 40  3  1  0  0  0  0
 41 42  1  0  0  0  0
 41 40  2  0  0  0  0
 43 41  1  0  0  0  0
 44 43  1  0  0  0  0
 45 43  2  0  0  0  0
 45 47  1  0  0  0  0
 46 45  1  0  0  0  0
 47 49  2  0  0  0  0
 48 47  1  0  0  0  0
 49 50  1  0  0  0  0
 49 40  1  0  0  0  0
 51 60  1  0  0  0  0
 52 51  2  0  0  0  0
 52 54  1  0  0  0  0
 53 52  1  0  0  0  0
 54 56  2  0  0  0  0
 55 54  1  0  0  0  0
 56 58  1  0  0  0  0
 56 57  1  0  0  0  0
 58 59  1  0  0  0  0
 60 61  1  0  0  0  0
 60 58  2  0  0  0  0
M  END
$$$$
