CSD_code = POSBUX | q = 0 | S = 0 | Stoichiometry = C14H15ClN4Pt | MND = 4
 OpenBabel04212202083D

 35 38  0  0  1  0  0  0  0  0999 V2000
    2.8695    8.6350    3.2821 Pt  0  0  2  0  0  0  0  0  0  0  0  0
    1.5706   10.2227    2.2041 Cl  0  0  0  0  0  0  0  0  0  0  0  0
    3.7597    7.0713    3.9895 N   0  0  0  0  0  0  0  0  0  0  0  0
    4.7844    6.9943    4.7486 N   0  0  0  0  0  0  0  0  0  0  0  0
    1.4996    7.2410    2.5359 N   0  0  0  0  0  4  0  0  0  0  0  0
    1.3171    7.4110    1.5427 H   0  0  0  0  0  0  0  0  0  0  0  0
    4.2129    9.8601    4.0997 N   0  0  0  0  0  0  0  0  0  0  0  0
    3.2308    5.8678    3.5322 C   0  0  0  0  0  0  0  0  0  0  0  0
    3.8001    4.6216    3.8075 C   0  0  0  0  0  0  0  0  0  0  0  0
    4.6818    4.5824    4.4263 H   0  0  0  0  0  0  0  0  0  0  0  0
    3.2388    3.4793    3.2752 C   0  0  0  0  0  0  0  0  0  0  0  0
    3.6837    2.5187    3.4852 H   0  0  0  0  0  0  0  0  0  0  0  0
    2.1160    3.5540    2.4632 C   0  0  0  0  0  0  0  0  0  0  0  0
    1.6926    2.6571    2.0389 H   0  0  0  0  0  0  0  0  0  0  0  0
    1.5350    4.7832    2.1949 C   0  0  0  0  0  0  0  0  0  0  0  0
    0.6621    4.8445    1.5607 H   0  0  0  0  0  0  0  0  0  0  0  0
    2.0813    5.9351    2.7317 C   0  0  0  0  0  0  0  0  0  0  0  0
    0.2185    7.3691    3.2511 C   0  0  0  0  0  0  0  0  0  0  0  0
   -0.1834    8.3673    3.0793 H   0  0  0  0  0  0  0  0  0  0  0  0
   -0.5069    6.6241    2.9113 H   0  0  0  0  0  0  0  0  0  0  0  0
    0.3877    7.2302    4.3207 H   0  0  0  0  0  0  0  0  0  0  0  0
    5.4207    8.0514    5.2343 C   0  0  0  0  0  0  0  0  0  0  0  0
    6.4860    7.6991    6.1059 C   0  0  0  0  0  0  0  0  0  0  0  0
    6.6366    6.6433    6.2692 H   0  0  0  0  0  0  0  0  0  0  0  0
    7.2680    8.6305    6.7108 C   0  0  0  0  0  0  0  0  0  0  0  0
    8.0699    8.3438    7.3727 H   0  0  0  0  0  0  0  0  0  0  0  0
    7.0066    9.9907    6.4649 C   0  0  0  0  0  0  0  0  0  0  0  0
    7.6081   10.7425    6.9550 H   0  0  0  0  0  0  0  0  0  0  0  0
    6.0079   10.3773    5.6242 C   0  0  0  0  0  0  0  0  0  0  0  0
    5.8441   11.4322    5.4846 H   0  0  0  0  0  0  0  0  0  0  0  0
    5.1552    9.4516    4.9454 C   0  0  1  0  0  3  0  0  0  0  0  0
    4.1497   11.2808    3.7930 C   0  0  0  0  0  0  0  0  0  0  0  0
    3.4239   11.4484    3.0016 H   0  0  0  0  0  0  0  0  0  0  0  0
    3.8372   11.8572    4.6691 H   0  0  0  0  0  0  0  0  0  0  0  0
    5.1224   11.6452    3.4507 H   0  0  0  0  0  0  0  0  0  0  0  0
  1  2  1  6  0  0  0
  1  3  1  0  0  0  0
  1  7  1  0  0  0  0
  3  4  1  0  0  0  0
  4 22  2  0  0  0  0
  5 17  1  0  0  0  0
  5 18  1  0  0  0  0
  5  1  1  0  0  0  0
  6  5  1  0  0  0  0
  7 31  1  0  0  0  0
  8  9  1  0  0  0  0
  8  3  1  0  0  0  0
  9 10  1  0  0  0  0
 11 12  1  0  0  0  0
 11  9  2  0  0  0  0
 13 11  1  0  0  0  0
 14 13  1  0  0  0  0
 15 13  2  0  0  0  0
 15 17  1  0  0  0  0
 16 15  1  0  0  0  0
 17  8  2  0  0  0  0
 18 21  1  0  0  0  0
 19 18  1  0  0  0  0
 20 18  1  0  0  0  0
 22 23  1  0  0  0  0
 23 24  1  0  0  0  0
 23 25  2  0  0  0  0
 25 26  1  0  0  0  0
 27 25  1  0  0  0  0
 27 28  1  0  0  0  0
 29 27  2  0  0  0  0
 30 29  1  0  0  0  0
 31 22  1  6  0  0  0
 31 29  1  0  0  0  0
 32  7  1  0  0  0  0
 32 34  1  0  0  0  0
 33 32  1  0  0  0  0
 35 32  1  0  0  0  0
M  END
$$$$
