CSD_code = POSCOQ | q = 0 | S = 0 | Stoichiometry = C28H25AuClN2O3P | MND = 2
 OpenBabel04212202083D

 61 64  0  0  0  0  0  0  0  0999 V2000
   10.9245    1.9691   12.4532 Au  0  0  0  0  0  0  0  0  0  0  0  0
   10.7991    0.4047   14.0848 Cl  0  0  0  0  0  0  0  0  0  0  0  0
   10.9210    3.5428   10.8483 P   0  0  0  0  0  4  0  0  0  0  0  0
    9.8616    4.9569   11.2404 C   0  0  0  0  0  0  0  0  0  0  0  0
   10.3451    6.2453   11.4360 C   0  0  0  0  0  0  0  0  0  0  0  0
   11.4060    6.4367   11.3564 H   0  0  0  0  0  0  0  0  0  0  0  0
    9.4661    7.2778   11.7106 C   0  0  0  0  0  0  0  0  0  0  0  0
    9.8442    8.2789   11.8513 H   0  0  0  0  0  0  0  0  0  0  0  0
    8.1052    7.0299   11.7917 C   0  0  0  0  0  0  0  0  0  0  0  0
    7.4208    7.8404   11.9900 H   0  0  0  0  0  0  0  0  0  0  0  0
    7.6133    5.7455   11.6331 C   0  0  0  0  0  0  0  0  0  0  0  0
    6.5564    5.5449   11.7021 H   0  0  0  0  0  0  0  0  0  0  0  0
    8.4887    4.7009   11.3775 C   0  0  0  0  0  0  0  0  0  0  0  0
    8.0377    3.3795   11.2286 N   0  0  0  0  0  0  0  0  0  0  0  0
    8.6151    2.6591   11.6583 H   0  0  0  0  0  0  0  0  0  0  0  0
    6.9971    3.0004   10.4413 C   0  0  0  0  0  0  0  0  0  0  0  0
    6.3047    3.7690    9.8160 O   0  0  0  0  0  0  0  0  0  0  0  0
    6.7831    1.4880   10.4003 C   0  0  0  0  0  0  0  0  0  0  0  0
    7.7334    0.9472   10.4028 H   0  0  0  0  0  0  0  0  0  0  0  0
    6.2000    1.1905   11.2804 H   0  0  0  0  0  0  0  0  0  0  0  0
    6.0800    1.1260    9.1965 N   0  0  0  0  0  0  0  0  0  0  0  0
    5.3298    1.7447    8.9192 H   0  0  0  0  0  0  0  0  0  0  0  0
    6.7206    0.4496    8.2103 C   0  0  0  0  0  0  0  0  0  0  0  0
    7.7628   -0.1436    8.3516 O   0  0  0  0  0  0  0  0  0  0  0  0
    6.0124    0.5095    7.0672 O   0  0  0  0  0  0  0  0  0  0  0  0
    6.4729   -0.3021    5.9808 C   0  0  0  0  0  0  0  0  0  0  0  0
    7.5435   -0.4895    6.1195 H   0  0  0  0  0  0  0  0  0  0  0  0
    6.3051    0.2902    5.0781 H   0  0  0  0  0  0  0  0  0  0  0  0
    5.7145   -1.6019    5.9252 C   0  0  0  0  0  0  0  0  0  0  0  0
    5.9976   -2.6052    6.8444 C   0  0  0  0  0  0  0  0  0  0  0  0
    6.7767   -2.4494    7.5762 H   0  0  0  0  0  0  0  0  0  0  0  0
    5.2860   -3.7912    6.8225 C   0  0  0  0  0  0  0  0  0  0  0  0
    5.5120   -4.5661    7.5401 H   0  0  0  0  0  0  0  0  0  0  0  0
    4.2896   -3.9867    5.8808 C   0  0  0  0  0  0  0  0  0  0  0  0
    3.7371   -4.9147    5.8617 H   0  0  0  0  0  0  0  0  0  0  0  0
    4.0029   -2.9903    4.9637 C   0  0  0  0  0  0  0  0  0  0  0  0
    3.2259   -3.1384    4.2284 H   0  0  0  0  0  0  0  0  0  0  0  0
    4.7096   -1.8003    4.9887 C   0  0  0  0  0  0  0  0  0  0  0  0
    4.4813   -1.0215    4.2757 H   0  0  0  0  0  0  0  0  0  0  0  0
   12.5310    4.2883   10.4830 C   0  0  0  0  0  0  0  0  0  0  0  0
   13.5404    4.1722   11.4333 C   0  0  0  0  0  0  0  0  0  0  0  0
   13.3436    3.6355   12.3532 H   0  0  0  0  0  0  0  0  0  0  0  0
   14.7797    4.7379   11.1937 C   0  0  0  0  0  0  0  0  0  0  0  0
   15.5632    4.6497   11.9311 H   0  0  0  0  0  0  0  0  0  0  0  0
   15.0142    5.4106   10.0053 C   0  0  0  0  0  0  0  0  0  0  0  0
   15.9835    5.8472    9.8163 H   0  0  0  0  0  0  0  0  0  0  0  0
   14.0113    5.5195    9.0539 C   0  0  0  0  0  0  0  0  0  0  0  0
   14.1999    6.0404    8.1268 H   0  0  0  0  0  0  0  0  0  0  0  0
   12.7688    4.9601    9.2865 C   0  0  0  0  0  0  0  0  0  0  0  0
   11.9832    5.0384    8.5477 H   0  0  0  0  0  0  0  0  0  0  0  0
   10.3159    2.9886    9.2300 C   0  0  0  0  0  0  0  0  0  0  0  0
    9.5259    3.7783    8.4001 C   0  0  0  0  0  0  0  0  0  0  0  0
    9.2257    4.7699    8.7106 H   0  0  0  0  0  0  0  0  0  0  0  0
    9.1118    3.2782    7.1791 C   0  0  0  0  0  0  0  0  0  0  0  0
    8.4881    3.8854    6.5399 H   0  0  0  0  0  0  0  0  0  0  0  0
    9.4903    2.0068    6.7796 C   0  0  0  0  0  0  0  0  0  0  0  0
    9.1652    1.6270    5.8226 H   0  0  0  0  0  0  0  0  0  0  0  0
   10.2738    1.2178    7.6064 C   0  0  0  0  0  0  0  0  0  0  0  0
   10.5515    0.2205    7.3044 H   0  0  0  0  0  0  0  0  0  0  0  0
   10.6810    1.7046    8.8336 C   0  0  0  0  0  0  0  0  0  0  0  0
   11.2777    1.0940    9.5002 H   0  0  0  0  0  0  0  0  0  0  0  0
  1  2  1  0  0  0  0
  3  4  1  0  0  0  0
  3  1  1  0  0  0  0
  4 13  2  0  0  0  0
  4  5  1  0  0  0  0
  5  7  2  0  0  0  0
  6  5  1  0  0  0  0
  7  9  1  0  0  0  0
  7  8  1  0  0  0  0
  9 10  1  0  0  0  0
 11 12  1  0  0  0  0
 11  9  2  0  0  0  0
 13 11  1  0  0  0  0
 14 13  1  0  0  0  0
 14 15  1  0  0  0  0
 16 14  1  0  0  0  0
 17 16  2  0  0  0  0
 18 19  1  0  0  0  0
 18 16  1  0  0  0  0
 18 20  1  0  0  0  0
 21 18  1  0  0  0  0
 22 21  1  0  0  0  0
 23 24  2  0  0  0  0
 23 21  1  0  0  0  0
 25 23  1  0  0  0  0
 26 27  1  0  0  0  0
 26 25  1  0  0  0  0
 28 26  1  0  0  0  0
 29 26  1  0  0  0  0
 29 30  1  0  0  0  0
 30 31  1  0  0  0  0
 32 30  2  0  0  0  0
 32 33  1  0  0  0  0
 34 32  1  0  0  0  0
 35 34  1  0  0  0  0
 36 38  1  0  0  0  0
 36 34  2  0  0  0  0
 37 36  1  0  0  0  0
 38 29  2  0  0  0  0
 39 38  1  0  0  0  0
 40  3  1  0  0  0  0
 40 41  1  0  0  0  0
 41 42  1  0  0  0  0
 43 41  2  0  0  0  0
 43 44  1  0  0  0  0
 45 43  1  0  0  0  0
 46 45  1  0  0  0  0
 47 49  1  0  0  0  0
 47 45  2  0  0  0  0
 48 47  1  0  0  0  0
 49 40  2  0  0  0  0
 50 49  1  0  0  0  0
 51  3  1  0  0  0  0
 52 53  1  0  0  0  0
 52 51  2  0  0  0  0
 54 52  1  0  0  0  0
 55 54  1  0  0  0  0
 56 54  2  0  0  0  0
 56 58  1  0  0  0  0
 57 56  1  0  0  0  0
 58 60  2  0  0  0  0
 59 58  1  0  0  0  0
 60 51  1  0  0  0  0
 60 61  1  0  0  0  0
M  END
$$$$
