CSD_code = POTMUJ | q = 0 | S = 0 | Stoichiometry = C13H20HgI2N4O2Se2 | MND = 4
 OpenBabel04212202083D

 44 45  0  0  1  0  0  0  0  0999 V2000
   10.7318    3.2969    8.5800 Hg  0  0  0  0  0  0  0  0  0  0  0  0
   11.6309    4.8006    6.6273 I   0  0  0  0  0  0  0  0  0  0  0  0
   11.0707    0.9809    9.8355 I   0  0  0  0  0  0  0  0  0  0  0  0
    9.1861    4.9573   10.4435 Se  0  0  0  0  0  0  0  0  0  0  0  0
    7.8490    2.4003    7.1728 Se  0  0  0  0  0  1  0  0  0  0  0  0
    6.4714    4.1988   10.0419 N   0  0  0  0  0  0  0  0  0  0  0  0
    7.1817    5.5538    8.4948 N   0  0  0  0  0  0  0  0  0  0  0  0
    7.1997    0.3182    8.9879 N   0  0  0  0  0  0  0  0  0  0  0  0
    8.6379   -0.3281    7.4869 N   0  0  0  0  0  0  0  0  0  0  0  0
    6.6422    8.3359    8.2903 O   0  0  0  0  0  0  0  0  0  0  0  0
    6.6089    9.2397    8.6182 H   0  0  0  0  0  0  0  0  0  0  0  0
    7.1286    1.9624   10.8090 C   0  0  0  0  0  0  0  0  0  0  0  0
    8.1248    2.1768   10.4154 H   0  0  0  0  0  0  0  0  0  0  0  0
    7.2580    1.3693   11.7136 H   0  0  0  0  0  0  0  0  0  0  0  0
    7.9092    0.7185    7.9139 C   0  0  1  0  0  3  0  0  0  0  0  0
    6.3380    1.1778    9.7557 C   0  0  0  0  0  0  0  0  0  0  0  0
    5.5605    0.5674   10.2196 H   0  0  0  0  0  0  0  0  0  0  0  0
    5.8740    1.8728    9.0477 H   0  0  0  0  0  0  0  0  0  0  0  0
    7.5450    4.8825    9.5993 C   0  0  1  0  0  3  0  0  0  0  0  0
    6.4687    3.2953   11.1653 C   0  0  0  0  0  0  0  0  0  0  0  0
    5.4349    3.1491   11.4848 H   0  0  0  0  0  0  0  0  0  0  0  0
    7.0371    3.7614   11.9762 H   0  0  0  0  0  0  0  0  0  0  0  0
    5.8688    5.2942    8.2359 C   0  0  0  0  0  0  0  0  0  0  0  0
    5.3640    5.7328    7.4009 H   0  0  0  0  0  0  0  0  0  0  0  0
    5.4254    4.4459    9.1940 C   0  0  0  0  0  0  0  0  0  0  0  0
    4.4578    4.0131    9.3445 H   0  0  0  0  0  0  0  0  0  0  0  0
    8.0117    6.4659    7.7548 C   0  0  0  0  0  0  0  0  0  0  0  0
    7.6469    6.5048    6.7276 H   0  0  0  0  0  0  0  0  0  0  0  0
    9.0423    6.1040    7.7618 H   0  0  0  0  0  0  0  0  0  0  0  0
    7.5065   -0.9881    9.2503 C   0  0  0  0  0  0  0  0  0  0  0  0
    7.0761   -1.5174   10.0743 H   0  0  0  0  0  0  0  0  0  0  0  0
    8.3945   -1.3912    8.3128 C   0  0  0  0  0  0  0  0  0  0  0  0
    8.8823   -2.3335    8.1768 H   0  0  0  0  0  0  0  0  0  0  0  0
    7.9667    7.8583    8.3812 C   0  0  0  0  0  0  0  0  0  0  0  0
    8.2874    7.7937    9.4312 H   0  0  0  0  0  0  0  0  0  0  0  0
    8.6642    8.5067    7.8375 H   0  0  0  0  0  0  0  0  0  0  0  0
    9.5301   -0.3542    6.3555 C   0  0  0  0  0  0  0  0  0  0  0  0
   10.3679   -1.0072    6.6052 H   0  0  0  0  0  0  0  0  0  0  0  0
    9.9076    0.6580    6.1770 H   0  0  0  0  0  0  0  0  0  0  0  0
    8.1841    0.1624    4.3640 O   0  0  0  0  0  0  0  0  0  0  0  0
    7.7074    0.7551    4.9602 H   0  0  0  0  0  0  0  0  0  0  0  0
    8.8179   -0.8507    5.0849 C   0  0  0  0  0  0  0  0  0  0  0  0
    9.5550   -1.2813    4.4027 H   0  0  0  0  0  0  0  0  0  0  0  0
    8.1018   -1.6411    5.3682 H   0  0  0  0  0  0  0  0  0  0  0  0
  1  3  1  0  0  0  0
  1  4  1  0  0  0  0
  2  1  1  0  0  0  0
  6 20  1  0  0  0  0
  7 19  1  0  0  0  0
  8 30  1  0  0  0  0
  8 16  1  0  0  0  0
  9 15  1  0  0  0  0
  9 32  1  0  0  0  0
 10 34  1  0  0  0  0
 10 11  1  0  0  0  0
 12 20  1  0  0  0  0
 12 14  1  0  0  0  0
 13 12  1  0  0  0  0
 15  5  1  6  0  0  0
 15  8  1  0  0  0  0
 16 17  1  0  0  0  0
 16 12  1  0  0  0  0
 18 16  1  0  0  0  0
 19  6  1  0  0  0  0
 19  4  1  1  0  0  0
 20 21  1  0  0  0  0
 20 22  1  0  0  0  0
 23  7  1  0  0  0  0
 23 25  2  0  0  0  0
 24 23  1  0  0  0  0
 25 26  1  0  0  0  0
 25  6  1  0  0  0  0
 27 29  1  0  0  0  0
 27 34  1  0  0  0  0
 27  7  1  0  0  0  0
 28 27  1  0  0  0  0
 30 31  1  0  0  0  0
 32 30  2  0  0  0  0
 33 32  1  0  0  0  0
 34 35  1  0  0  0  0
 36 34  1  0  0  0  0
 37 38  1  0  0  0  0
 37  9  1  0  0  0  0
 39 37  1  0  0  0  0
 40 41  1  0  0  0  0
 40 42  1  0  0  0  0
 42 44  1  0  0  0  0
 42 37  1  0  0  0  0
 43 42  1  0  0  0  0
M  END
$$$$
