CSD_code = POTTAT | q = 0 | S = 0 | Stoichiometry = C20H20Cl2FeN4 | MND = 6
 OpenBabel04212202083D

 47 50  0  0  0  0  0  0  0  0999 V2000
    0.0003   -0.0005   -0.0003 Fe  0  0  0  0  0  0  0  0  0  0  0  0
   -1.8642    0.3972    1.1187 Cl  0  0  0  0  0  0  0  0  0  0  0  0
    0.7035   -1.0595    1.6115 N   0  0  0  0  0  0  0  0  0  0  0  0
    0.7559    1.8218    0.6659 N   0  0  0  0  0  0  0  0  0  0  0  0
   -0.1386   -1.7696    2.3686 C   0  0  0  0  0  3  0  0  0  0  0  0
   -1.1887   -1.6779    2.1356 H   0  0  0  0  0  0  0  0  0  0  0  0
    0.2698   -2.5662    3.4216 C   0  0  0  0  0  0  0  0  0  0  0  0
   -0.4662   -3.1088    3.9940 H   0  0  0  0  0  0  0  0  0  0  0  0
    1.6196   -2.6516    3.7232 C   0  0  0  0  0  0  0  0  0  0  0  0
    1.9726   -3.2635    4.5395 H   0  0  0  0  0  0  0  0  0  0  0  0
    2.5003   -1.9281    2.9354 C   0  0  0  0  0  0  0  0  0  0  0  0
    3.5640   -1.9600    3.1123 H   0  0  0  0  0  0  0  0  0  0  0  0
    2.0026   -1.1554    1.9027 C   0  0  0  0  0  0  0  0  0  0  0  0
    2.6781   -0.6206    1.2552 H   0  0  0  0  0  0  0  0  0  0  0  0
    2.0638    2.0687    0.7643 C   0  0  0  0  0  3  0  0  0  0  0  0
    2.7247    1.2585    0.4997 H   0  0  0  0  0  0  0  0  0  0  0  0
    2.5857    3.2971    1.1258 C   0  0  0  0  0  0  0  0  0  0  0  0
    3.6552    3.4254    1.1846 H   0  0  0  0  0  0  0  0  0  0  0  0
    1.7207    4.3433    1.4025 C   0  0  0  0  0  0  0  0  0  0  0  0
    2.0926    5.3148    1.6917 H   0  0  0  0  0  0  0  0  0  0  0  0
    0.3616    4.1005    1.2866 C   0  0  0  0  0  0  0  0  0  0  0  0
   -0.3634    4.8756    1.4797 H   0  0  0  0  0  0  0  0  0  0  0  0
   -0.0710    2.8404    0.9171 C   0  0  0  0  0  0  0  0  0  0  0  0
   -1.1274    2.6323    0.8400 H   0  0  0  0  0  0  0  0  0  0  0  0
    1.8646   -0.3984   -1.1189 Cl  0  0  0  0  0  0  0  0  0  0  0  0
   -0.7034    1.0599   -1.6118 N   0  0  0  0  0  0  0  0  0  0  0  0
    0.1388    1.7706   -2.3683 C   0  0  0  0  0  3  0  0  0  0  0  0
    1.1888    1.6788   -2.1352 H   0  0  0  0  0  0  0  0  0  0  0  0
   -0.2695    2.5676   -3.4210 C   0  0  0  0  0  0  0  0  0  0  0  0
    0.4664    3.1109   -3.9927 H   0  0  0  0  0  0  0  0  0  0  0  0
   -1.6193    2.6528   -3.7229 C   0  0  0  0  0  0  0  0  0  0  0  0
   -1.9723    3.2652   -4.5389 H   0  0  0  0  0  0  0  0  0  0  0  0
   -2.5000    1.9285   -2.9359 C   0  0  0  0  0  0  0  0  0  0  0  0
   -3.5637    1.9603   -3.1130 H   0  0  0  0  0  0  0  0  0  0  0  0
   -2.0024    1.1555   -1.9035 C   0  0  0  0  0  0  0  0  0  0  0  0
   -2.6780    0.6199   -1.2567 H   0  0  0  0  0  0  0  0  0  0  0  0
   -0.7556   -1.8226   -0.6663 N   0  0  0  0  0  0  0  0  0  0  0  0
   -2.0636   -2.0688   -0.7654 C   0  0  0  0  0  3  0  0  0  0  0  0
   -2.7241   -1.2582   -0.5014 H   0  0  0  0  0  0  0  0  0  0  0  0
   -2.5860   -3.2970   -1.1266 C   0  0  0  0  0  0  0  0  0  0  0  0
   -3.6556   -3.4245   -1.1863 H   0  0  0  0  0  0  0  0  0  0  0  0
   -1.7214   -4.3439   -1.4020 C   0  0  0  0  0  0  0  0  0  0  0  0
   -2.0937   -5.3153   -1.6908 H   0  0  0  0  0  0  0  0  0  0  0  0
   -0.3622   -4.1019   -1.2853 C   0  0  0  0  0  0  0  0  0  0  0  0
    0.3623   -4.8775   -1.4775 H   0  0  0  0  0  0  0  0  0  0  0  0
    0.0709   -2.8417   -0.9165 C   0  0  0  0  0  0  0  0  0  0  0  0
    1.1274   -2.6340   -0.8389 H   0  0  0  0  0  0  0  0  0  0  0  0
  1  4  1  0  0  0  0
  1  2  1  0  0  0  0
  1  3  1  0  0  0  0
  3 13  1  0  0  0  0
  3  5  1  0  0  0  0
  4 15  1  0  0  0  0
  4 23  1  0  0  0  0
  5  7  1  0  0  0  0
  6  5  1  0  0  0  0
  7  9  2  0  0  0  0
  7  8  1  0  0  0  0
  9 10  1  0  0  0  0
 11 12  1  0  0  0  0
 11  9  1  0  0  0  0
 13 11  2  0  0  0  0
 14 13  1  0  0  0  0
 15 17  1  0  0  0  0
 16 15  1  0  0  0  0
 17 18  1  0  0  0  0
 17 19  2  0  0  0  0
 19 20  1  0  0  0  0
 21 19  1  0  0  0  0
 21 22  1  0  0  0  0
 23 21  2  0  0  0  0
 24 23  1  0  0  0  0
 25  1  1  0  0  0  0
 26  1  1  0  0  0  0
 27 28  1  0  0  0  0
 27 26  1  0  0  0  0
 29 27  1  0  0  0  0
 30 29  1  0  0  0  0
 31 29  2  0  0  0  0
 31 33  1  0  0  0  0
 32 31  1  0  0  0  0
 33 35  2  0  0  0  0
 34 33  1  0  0  0  0
 35 26  1  0  0  0  0
 35 36  1  0  0  0  0
 37  1  1  0  0  0  0
 38 37  1  0  0  0  0
 38 39  1  0  0  0  0
 40 38  1  0  0  0  0
 41 40  1  0  0  0  0
 42 44  1  0  0  0  0
 42 40  2  0  0  0  0
 43 42  1  0  0  0  0
 44 46  2  0  0  0  0
 45 44  1  0  0  0  0
 46 47  1  0  0  0  0
 46 37  1  0  0  0  0
M  END
$$$$
