CSD_code = POVQUP | q = 0 | S = 0 | Stoichiometry = C23H36ClN2O2Rh | MND = 6
 OpenBabel04212202083D

 65 67  0  0  1  0  0  0  0  0999 V2000
    3.1304    9.8938   11.6218 C   0  0  2  0  0  3  0  0  0  0  0  0
    5.2353    9.5988   10.8250 C   0  0  0  0  0  0  0  0  0  0  0  0
    4.4533    9.9288    9.7772 C   0  0  0  0  0  0  0  0  0  0  0  0
    3.2090   10.5624    8.0325 C   0  0  0  0  0  0  0  0  0  0  0  0
    2.8591    9.8488    7.2796 H   0  0  0  0  0  0  0  0  0  0  0  0
    3.2902   11.5477    7.5665 H   0  0  0  0  0  0  0  0  0  0  0  0
    2.2806   10.5801    9.2744 C   0  0  2  0  0  0  0  0  0  0  0  0
    1.4529    9.8749    9.1411 H   0  0  0  0  0  0  0  0  0  0  0  0
    5.1684    9.4070   13.1343 C   0  0  2  0  0  0  0  0  0  0  0  0
    5.2216   10.3820   13.6383 H   0  0  0  0  0  0  0  0  0  0  0  0
    6.5439    9.0207   12.5401 C   0  0  0  0  0  0  0  0  0  0  0  0
    7.3614    9.5895   12.9865 H   0  0  0  0  0  0  0  0  0  0  0  0
    6.7474    7.9515   12.6571 H   0  0  0  0  0  0  0  0  0  0  0  0
    4.5116    8.4095   14.0986 C   0  0  2  0  0  0  0  0  0  0  0  0
    3.4937    8.8098   14.2619 H   0  0  0  0  0  0  0  0  0  0  0  0
    5.2555    8.4087   15.4361 C   0  0  0  0  0  0  0  0  0  0  0  0
    6.2598    8.0020   15.2935 H   0  0  0  0  0  0  0  0  0  0  0  0
    5.3597    9.4414   15.7746 H   0  0  0  0  0  0  0  0  0  0  0  0
    4.5327    7.6109   16.5149 C   0  0  0  0  0  0  0  0  0  0  0  0
    4.4828    6.5561   16.2585 H   0  0  0  0  0  0  0  0  0  0  0  0
    3.5201    7.9851   16.6455 H   0  0  0  0  0  0  0  0  0  0  0  0
    5.0556    7.7045   17.4635 H   0  0  0  0  0  0  0  0  0  0  0  0
    4.3921    7.0111   13.4968 C   0  0  0  0  0  0  0  0  0  0  0  0
    4.0644    7.0694   12.4608 H   0  0  0  0  0  0  0  0  0  0  0  0
    3.6607    6.4266   14.0473 H   0  0  0  0  0  0  0  0  0  0  0  0
    5.3419    6.4811   13.5332 H   0  0  0  0  0  0  0  0  0  0  0  0
    1.7040   11.9541    9.6701 C   0  0  1  0  0  0  0  0  0  0  0  0
    1.1535   11.7843   10.6115 H   0  0  0  0  0  0  0  0  0  0  0  0
    2.8059   12.9703    9.9631 C   0  0  0  0  0  0  0  0  0  0  0  0
    3.3893   12.6611   10.8269 H   0  0  0  0  0  0  0  0  0  0  0  0
    2.3609   13.9330   10.2003 H   0  0  0  0  0  0  0  0  0  0  0  0
    3.4730   13.1046    9.1145 H   0  0  0  0  0  0  0  0  0  0  0  0
    0.7336   12.4910    8.6137 C   0  0  0  0  0  0  0  0  0  0  0  0
    0.3869   13.4695    8.9514 H   0  0  0  0  0  0  0  0  0  0  0  0
    1.2642   12.6422    7.6706 H   0  0  0  0  0  0  0  0  0  0  0  0
   -0.4826   11.6042    8.3709 C   0  0  0  0  0  0  0  0  0  0  0  0
   -1.1951   12.1180    7.7301 H   0  0  0  0  0  0  0  0  0  0  0  0
   -0.9772   11.3724    9.3112 H   0  0  0  0  0  0  0  0  0  0  0  0
   -0.2088   10.6715    7.8835 H   0  0  0  0  0  0  0  0  0  0  0  0
    0.2099    9.1286   12.0547 C   0  0  1  0  0  0  0  0  0  0  0  0
    0.4657    8.8884   11.0228 H   0  0  0  0  0  0  0  0  0  0  0  0
    0.8192    8.3613   13.0522 C   0  0  0  0  0  3  0  0  0  0  0  0
    1.5303    7.6057   12.7222 H   0  0  0  0  0  0  0  0  0  0  0  0
   -1.1532    9.7698   12.1886 C   0  0  0  0  0  0  0  0  0  0  0  0
   -1.9264    8.9950   12.1250 H   0  0  0  0  0  0  0  0  0  0  0  0
   -1.2995   10.4367   11.3352 H   0  0  0  0  0  0  0  0  0  0  0  0
   -1.3203   10.5792   13.4880 C   0  0  0  0  0  0  0  0  0  0  0  0
   -2.0053   11.4092   13.3026 H   0  0  0  0  0  0  0  0  0  0  0  0
   -1.7686    9.9591   14.2659 H   0  0  0  0  0  0  0  0  0  0  0  0
   -0.0038   11.1267   13.9938 C   0  0  0  0  0  3  0  0  0  0  0  0
    0.1090   12.2087   13.9168 H   0  0  0  0  0  0  0  0  0  0  0  0
    0.7850   10.4604   14.9108 C   0  0  0  0  0  3  0  0  0  0  0  0
    1.4553   11.0499   15.5367 H   0  0  0  0  0  0  0  0  0  0  0  0
    0.4711    9.0899   15.4668 C   0  0  0  0  0  0  0  0  0  0  0  0
   -0.3682    9.1700   16.1667 H   0  0  0  0  0  0  0  0  0  0  0  0
    1.3351    8.7495   16.0427 H   0  0  0  0  0  0  0  0  0  0  0  0
    0.1512    8.0483   14.3760 C   0  0  0  0  0  0  0  0  0  0  0  0
    0.4846    7.0667   14.7200 H   0  0  0  0  0  0  0  0  0  0  0  0
   -0.9272    7.9829   14.2203 H   0  0  0  0  0  0  0  0  0  0  0  0
    4.4041    9.5789   11.9235 N   0  0  0  0  0  0  0  0  0  0  0  0
    3.1799   10.0896   10.2874 N   0  0  0  0  0  0  0  0  0  0  0  0
    6.5203    9.3144   11.1375 O   0  0  0  0  0  0  0  0  0  0  0  0
    4.5168   10.1600    8.4454 O   0  0  0  0  0  0  0  0  0  0  0  0
    3.0587   12.0596   13.4722 Cl  0  0  0  0  0 15  0  0  0  0  0  0
    1.7116   10.2852   12.9831 Rh  0  0  0  0  0  0  0  0  0  0  0  0
  1 60  1  0  0  0  0
  1 65  1  1  0  0  0
  2 62  1  0  0  0  0
  2 60  1  0  0  0  0
  3 61  1  0  0  0  0
  3  2  2  0  0  0  0
  4 63  1  0  0  0  0
  4  7  1  0  0  0  0
  5  4  1  0  0  0  0
  6  4  1  0  0  0  0
  7  8  1  6  0  0  0
  7 27  1  0  0  0  0
  7 61  1  0  0  0  0
  9 10  1  1  0  0  0
  9 14  1  0  0  0  0
 11 13  1  0  0  0  0
 11 12  1  0  0  0  0
 11  9  1  0  0  0  0
 14 15  1  1  0  0  0
 14 16  1  0  0  0  0
 16 18  1  0  0  0  0
 16 19  1  0  0  0  0
 17 16  1  0  0  0  0
 19 21  1  0  0  0  0
 19 22  1  0  0  0  0
 20 19  1  0  0  0  0
 23 26  1  0  0  0  0
 23 25  1  0  0  0  0
 23 14  1  0  0  0  0
 24 23  1  0  0  0  0
 27 29  1  0  0  0  0
 27 28  1  1  0  0  0
 29 31  1  0  0  0  0
 29 30  1  0  0  0  0
 32 29  1  0  0  0  0
 33 34  1  0  0  0  0
 33 27  1  0  0  0  0
 35 33  1  0  0  0  0
 36 33  1  0  0  0  0
 36 38  1  0  0  0  0
 37 36  1  0  0  0  0
 39 36  1  0  0  0  0
 40 41  1  6  0  0  0
 40 44  1  0  0  0  0
 40 65  1  0  0  0  0
 40 42  1  0  0  0  0
 42 57  1  0  0  0  0
 43 42  1  0  0  0  0
 44 47  1  0  0  0  0
 45 44  1  0  0  0  0
 46 44  1  0  0  0  0
 47 50  1  0  0  0  0
 47 49  1  0  0  0  0
 48 47  1  0  0  0  0
 50 52  1  0  0  0  0
 51 50  1  0  0  0  0
 52 54  1  0  0  0  0
 52 53  1  0  0  0  0
 54 56  1  0  0  0  0
 54 55  1  0  0  0  0
 57 58  1  0  0  0  0
 57 54  1  0  0  0  0
 59 57  1  0  0  0  0
 60  9  1  0  0  0  0
 61  1  1  0  0  0  0
 62 11  1  0  0  0  0
 63  3  1  0  0  0  0
M  END
$$$$
