CSD_code = POVRAW | q = 0 | S = 0 | Stoichiometry = C23H36ClN2O2Rh | MND = 6
 OpenBabel04212202083D

 65 67  0  0  1  0  0  0  0  0999 V2000
    2.3774    5.7078   18.4013 C   0  0  1  0  0  3  0  0  0  0  0  0
    2.5122    7.8470   19.1498 C   0  0  0  0  0  0  0  0  0  0  0  0
    3.5865    7.6300   18.3645 C   0  0  0  0  0  0  0  0  0  0  0  0
    4.5093    6.0157   16.9654 C   0  0  2  0  0  0  0  0  0  0  0  0
    5.2277    5.3112   17.4026 H   0  0  0  0  0  0  0  0  0  0  0  0
    5.1436    7.4198   16.7895 C   0  0  0  0  0  0  0  0  0  0  0  0
    6.2336    7.4041   16.8327 H   0  0  0  0  0  0  0  0  0  0  0  0
    4.8268    7.8651   15.8385 H   0  0  0  0  0  0  0  0  0  0  0  0
    0.5362    6.8384   19.8186 C   0  0  2  0  0  0  0  0  0  0  0  0
   -0.2302    6.9370   19.0398 H   0  0  0  0  0  0  0  0  0  0  0  0
    0.7952    8.1846   20.5322 C   0  0  0  0  0  0  0  0  0  0  0  0
   -0.0499    8.8708   20.4678 H   0  0  0  0  0  0  0  0  0  0  0  0
    1.0474    8.0211   21.5881 H   0  0  0  0  0  0  0  0  0  0  0  0
    3.8924    5.4337   15.6948 C   0  0  0  0  0  0  0  0  0  0  0  0
    3.1750    6.1577   15.3011 H   0  0  0  0  0  0  0  0  0  0  0  0
    3.3175    4.5399   15.9841 H   0  0  0  0  0  0  0  0  0  0  0  0
    4.9003    5.0711   14.6017 C   0  0  0  0  0  0  0  0  0  0  0  0
    5.5030    5.9571   14.3696 H   0  0  0  0  0  0  0  0  0  0  0  0
    5.8392    3.9475   15.0340 C   0  0  0  0  0  0  0  0  0  0  0  0
    6.4553    4.2429   15.8798 H   0  0  0  0  0  0  0  0  0  0  0  0
    6.5025    3.6783   14.2153 H   0  0  0  0  0  0  0  0  0  0  0  0
    5.2671    3.0653   15.3119 H   0  0  0  0  0  0  0  0  0  0  0  0
    4.1386    4.6560   13.3441 C   0  0  0  0  0  0  0  0  0  0  0  0
    3.5172    3.7880   13.5521 H   0  0  0  0  0  0  0  0  0  0  0  0
    4.8287    4.4036   12.5424 H   0  0  0  0  0  0  0  0  0  0  0  0
    3.4932    5.4610   13.0015 H   0  0  0  0  0  0  0  0  0  0  0  0
    0.1978    5.6576   20.7191 C   0  0  0  0  0  0  0  0  0  0  0  0
    0.9449    5.5876   21.5142 H   0  0  0  0  0  0  0  0  0  0  0  0
    0.2771    4.7575   20.0894 H   0  0  0  0  0  0  0  0  0  0  0  0
   -1.2050    5.7114   21.3292 C   0  0  0  0  0  0  0  0  0  0  0  0
   -1.3215    6.6569   21.8719 H   0  0  0  0  0  0  0  0  0  0  0  0
   -1.3604    4.5600   22.3219 C   0  0  0  0  0  0  0  0  0  0  0  0
   -1.2446    3.6062   21.8123 H   0  0  0  0  0  0  0  0  0  0  0  0
   -2.3439    4.5837   22.7846 H   0  0  0  0  0  0  0  0  0  0  0  0
   -0.6117    4.6216   23.1087 H   0  0  0  0  0  0  0  0  0  0  0  0
   -2.2820    5.6223   20.2508 C   0  0  0  0  0  0  0  0  0  0  0  0
   -2.3087    6.5200   19.6397 H   0  0  0  0  0  0  0  0  0  0  0  0
   -3.2621    5.4970   20.7051 H   0  0  0  0  0  0  0  0  0  0  0  0
   -2.0918    4.7744   19.5968 H   0  0  0  0  0  0  0  0  0  0  0  0
    2.2456    2.7973   19.4970 C   0  0  0  0  0  3  0  0  0  0  0  0
    2.5137    3.4322   20.3407 H   0  0  0  0  0  0  0  0  0  0  0  0
    3.1473    2.7569   18.4296 C   0  0  1  0  0  0  0  0  0  0  0  0
    4.0625    3.3405   18.5323 H   0  0  0  0  0  0  0  0  0  0  0  0
    3.2999    1.5780   17.4946 C   0  0  0  0  0  0  0  0  0  0  0  0
    3.7997    0.7591   18.0250 H   0  0  0  0  0  0  0  0  0  0  0  0
    3.9599    1.8760   16.6765 H   0  0  0  0  0  0  0  0  0  0  0  0
    1.9626    1.0885   16.9072 C   0  0  0  0  0  0  0  0  0  0  0  0
    2.1402    0.6896   15.9061 H   0  0  0  0  0  0  0  0  0  0  0  0
    1.5600    0.2735   17.5111 H   0  0  0  0  0  0  0  0  0  0  0  0
    0.9311    2.1926   16.8248 C   0  0  0  0  0  3  0  0  0  0  0  0
    0.6759    2.5155   15.8148 H   0  0  0  0  0  0  0  0  0  0  0  0
    0.0158    2.4434   17.8288 C   0  0  0  0  0  3  0  0  0  0  0  0
   -0.9257    2.9197   17.5541 H   0  0  0  0  0  0  0  0  0  0  0  0
   -0.0280    1.7033   19.1467 C   0  0  0  0  0  0  0  0  0  0  0  0
   -0.4117    0.6910   18.9767 H   0  0  0  0  0  0  0  0  0  0  0  0
   -0.7443    2.2094   19.7987 H   0  0  0  0  0  0  0  0  0  0  0  0
    1.3402    1.6356   19.8553 C   0  0  0  0  0  0  0  0  0  0  0  0
    1.8485    0.7026   19.6052 H   0  0  0  0  0  0  0  0  0  0  0  0
    1.1766    1.6318   20.9351 H   0  0  0  0  0  0  0  0  0  0  0  0
    3.4805    6.3210   17.9297 N   0  0  0  0  0  0  0  0  0  0  0  0
    1.8095    6.6606   19.1625 N   0  0  0  0  0  0  0  0  0  0  0  0
    4.6796    8.2500   17.8571 O   0  0  0  0  0  0  0  0  0  0  0  0
    1.9148    8.8090   19.8919 O   0  0  0  0  0  0  0  0  0  0  0  0
    0.1813    5.3572   16.6556 Cl  0  0  0  0  0 15  0  0  0  0  0  0
    1.5105    3.9782   17.8923 Rh  0  0  0  0  0  0  0  0  0  0  0  0
  1 65  1  6  0  0  0
  1 61  1  0  0  0  0
  2 61  1  0  0  0  0
  2 63  1  0  0  0  0
  3  2  2  0  0  0  0
  4  5  1  1  0  0  0
  4 60  1  0  0  0  0
  6  7  1  0  0  0  0
  6  4  1  0  0  0  0
  6 62  1  0  0  0  0
  8  6  1  0  0  0  0
  9 10  1  6  0  0  0
  9 11  1  0  0  0  0
  9 27  1  0  0  0  0
 11 13  1  0  0  0  0
 12 11  1  0  0  0  0
 14 16  1  0  0  0  0
 14  4  1  0  0  0  0
 15 14  1  0  0  0  0
 17 19  1  0  0  0  0
 17 14  1  0  0  0  0
 18 17  1  0  0  0  0
 19 22  1  0  0  0  0
 19 20  1  0  0  0  0
 21 19  1  0  0  0  0
 23 24  1  0  0  0  0
 23 17  1  0  0  0  0
 25 23  1  0  0  0  0
 26 23  1  0  0  0  0
 27 30  1  0  0  0  0
 27 28  1  0  0  0  0
 29 27  1  0  0  0  0
 30 31  1  0  0  0  0
 30 32  1  0  0  0  0
 32 34  1  0  0  0  0
 32 35  1  0  0  0  0
 33 32  1  0  0  0  0
 36 38  1  0  0  0  0
 36 30  1  0  0  0  0
 37 36  1  0  0  0  0
 39 36  1  0  0  0  0
 40 57  1  0  0  0  0
 40 41  1  0  0  0  0
 42 43  1  1  0  0  0
 42 40  1  0  0  0  0
 44 45  1  0  0  0  0
 44 42  1  0  0  0  0
 46 44  1  0  0  0  0
 47 44  1  0  0  0  0
 47 49  1  0  0  0  0
 48 47  1  0  0  0  0
 50 47  1  0  0  0  0
 50 52  1  0  0  0  0
 51 50  1  0  0  0  0
 52 54  1  0  0  0  0
 53 52  1  0  0  0  0
 54 56  1  0  0  0  0
 54 57  1  0  0  0  0
 55 54  1  0  0  0  0
 57 59  1  0  0  0  0
 58 57  1  0  0  0  0
 60  3  1  0  0  0  0
 60  1  1  0  0  0  0
 61  9  1  0  0  0  0
 62  3  1  0  0  0  0
 63 11  1  0  0  0  0
 65 42  1  0  0  0  0
M  END
$$$$
