CSD_code = POWCAF | q = 1 | S = 0 | Stoichiometry = C23H25ClN4PRu(1+) | MND = 6
 OpenBabel04212202083D

 55 60  0  0  0  0  0  0  0  0999 V2000
    3.7466    7.7212    3.8997 Ru  0  0  0  0  0  0  0  0  0  0  0  0
    2.4943    9.3482    2.7250 Cl  0  0  0  0  0  0  0  0  0  0  0  0
    1.6448    6.9864    4.6361 P   0  0  0  0  0  4  0  0  0  0  0  0
    4.7805    6.4390    5.0058 N   0  0  0  0  0  0  0  0  0  0  0  0
    3.9205    8.7877    5.5759 N   0  0  0  0  0  0  0  0  0  0  0  0
    3.7432    6.7448    2.1577 N   0  0  0  0  0  0  0  0  0  0  0  0
    5.3395    8.5776    3.0220 N   0  0  0  0  0  0  0  0  0  0  0  0
    0.8559    8.1058    5.8488 C   0  0  0  0  0  0  0  0  0  0  0  0
    1.5327    5.3831    5.5242 C   0  0  0  0  0  0  0  0  0  0  0  0
    0.2928    6.8648    3.4147 C   0  0  0  0  0  0  0  0  0  0  0  0
    5.0037    6.8176    6.2888 C   0  0  0  0  0  0  0  0  0  0  0  0
    5.6592    5.9785    7.1895 C   0  0  0  0  0  0  0  0  0  0  0  0
    6.1063    4.7405    6.7715 C   0  0  0  0  0  0  0  0  0  0  0  0
    5.8942    4.3729    5.4467 C   0  0  0  0  0  0  0  0  0  0  0  0
    5.2323    5.2467    4.6093 C   0  0  0  0  0  0  0  0  0  0  0  0
    4.5319    8.1606    6.6071 C   0  0  0  0  0  0  0  0  0  0  0  0
    4.7080    8.7966    7.8363 C   0  0  0  0  0  0  0  0  0  0  0  0
    4.2686   10.0972    7.9984 C   0  0  0  0  0  0  0  0  0  0  0  0
    3.6690   10.7379    6.9206 C   0  0  0  0  0  0  0  0  0  0  0  0
    3.5150   10.0465    5.7341 C   0  0  0  0  0  0  0  0  0  0  0  0
    4.4117    7.4089    1.1868 C   0  0  0  0  0  0  0  0  0  0  0  0
    4.3024    7.0360   -0.1526 C   0  0  0  0  0  0  0  0  0  0  0  0
    3.5192    5.9518   -0.4987 C   0  0  0  0  0  0  0  0  0  0  0  0
    2.8926    5.2359    0.5142 C   0  0  0  0  0  0  0  0  0  0  0  0
    3.0335    5.6701    1.8171 C   0  0  0  0  0  0  0  0  0  0  0  0
    5.2931    8.4675    1.6759 C   0  0  0  0  0  0  0  0  0  0  0  0
    6.0860    9.2709    0.8568 C   0  0  0  0  0  0  0  0  0  0  0  0
    6.9484   10.1857    1.4291 C   0  0  0  0  0  0  0  0  0  0  0  0
    7.0186   10.2575    2.8145 C   0  0  0  0  0  0  0  0  0  0  0  0
    6.1948    9.4405    3.5646 C   0  0  0  0  0  0  0  0  0  0  0  0
   -0.1365    7.7301    6.0972 H   0  0  0  0  0  0  0  0  0  0  0  0
    1.4531    8.1737    6.7578 H   0  0  0  0  0  0  0  0  0  0  0  0
    0.7664    9.0945    5.3993 H   0  0  0  0  0  0  0  0  0  0  0  0
    0.4989    5.1892    5.8060 H   0  0  0  0  0  0  0  0  0  0  0  0
    1.8909    4.5688    4.8969 H   0  0  0  0  0  0  0  0  0  0  0  0
    2.1480    5.4245    6.4225 H   0  0  0  0  0  0  0  0  0  0  0  0
   -0.6420    6.6600    3.9366 H   0  0  0  0  0  0  0  0  0  0  0  0
    0.2230    7.8206    2.8961 H   0  0  0  0  0  0  0  0  0  0  0  0
    0.4786    6.0820    2.6833 H   0  0  0  0  0  0  0  0  0  0  0  0
    5.8154    6.2948    8.2074 H   0  0  0  0  0  0  0  0  0  0  0  0
    6.6119    4.0781    7.4551 H   0  0  0  0  0  0  0  0  0  0  0  0
    6.2363    3.4221    5.0725 H   0  0  0  0  0  0  0  0  0  0  0  0
    5.0507    4.9857    3.5741 H   0  0  0  0  0  0  0  0  0  0  0  0
    5.1864    8.2810    8.6523 H   0  0  0  0  0  0  0  0  0  0  0  0
    4.3954   10.6036    8.9417 H   0  0  0  0  0  0  0  0  0  0  0  0
    3.3232   11.7553    6.9993 H   0  0  0  0  0  0  0  0  0  0  0  0
    3.0449   10.5029    4.8710 H   0  0  0  0  0  0  0  0  0  0  0  0
    4.8191    7.5940   -0.9151 H   0  0  0  0  0  0  0  0  0  0  0  0
    3.4086    5.6610   -1.5308 H   0  0  0  0  0  0  0  0  0  0  0  0
    2.2965    4.3652    0.2947 H   0  0  0  0  0  0  0  0  0  0  0  0
    2.5614    5.1370    2.6342 H   0  0  0  0  0  0  0  0  0  0  0  0
    6.0143    9.1922   -0.2150 H   0  0  0  0  0  0  0  0  0  0  0  0
    7.5567   10.8269    0.8117 H   0  0  0  0  0  0  0  0  0  0  0  0
    7.6892   10.9438    3.3051 H   0  0  0  0  0  0  0  0  0  0  0  0
    6.2255    9.4826    4.6473 H   0  0  0  0  0  0  0  0  0  0  0  0
  1  3  1  0  0  0  0
  1  4  1  0  0  0  0
  1  5  1  0  0  0  0
  2  1  1  0  0  0  0
  3  9  1  0  0  0  0
  3  8  1  0  0  0  0
  4 11  1  0  0  0  0
  5 20  1  0  0  0  0
  5 16  1  0  0  0  0
  6  1  1  0  0  0  0
  7 30  1  0  0  0  0
  7  1  1  0  0  0  0
  8 31  1  0  0  0  0
  8 32  1  0  0  0  0
  9 34  1  0  0  0  0
  9 36  1  0  0  0  0
 10 37  1  0  0  0  0
 10  3  1  0  0  0  0
 11 16  2  0  0  0  0
 11 12  1  0  0  0  0
 12 40  1  0  0  0  0
 13 12  2  0  0  0  0
 13 41  1  0  0  0  0
 14 13  1  0  0  0  0
 15  4  1  0  0  0  0
 15 14  2  0  0  0  0
 16 17  1  0  0  0  0
 17 18  2  0  0  0  0
 17 44  1  0  0  0  0
 18 45  1  0  0  0  0
 19 46  1  0  0  0  0
 19 18  1  0  0  0  0
 20 19  2  0  0  0  0
 21 26  2  0  0  0  0
 21  6  1  0  0  0  0
 22 21  1  0  0  0  0
 23 22  2  0  0  0  0
 23 24  1  0  0  0  0
 24 25  2  0  0  0  0
 25  6  1  0  0  0  0
 25 51  1  0  0  0  0
 26  7  1  0  0  0  0
 27 28  2  0  0  0  0
 27 26  1  0  0  0  0
 28 29  1  0  0  0  0
 29 54  1  0  0  0  0
 29 30  2  0  0  0  0
 30 55  1  0  0  0  0
 33  8  1  0  0  0  0
 35  9  1  0  0  0  0
 38 10  1  0  0  0  0
 39 10  1  0  0  0  0
 42 14  1  0  0  0  0
 43 15  1  0  0  0  0
 47 20  1  0  0  0  0
 48 22  1  0  0  0  0
 49 23  1  0  0  0  0
 50 24  1  0  0  0  0
 52 27  1  0  0  0  0
 53 28  1  0  0  0  0
M  END
$$$$
