CSD_code = POWGOX | q = 0 | S = 0 | Stoichiometry = C32H29Cl2NiP3 | MND = 4
 OpenBabel04212202083D

 67 72  0  0  0  0  0  0  0  0999 V2000
    4.5878    4.7899    1.9112 Ni  0  0  0  0  0  0  0  0  0  0  0  0
    4.2422    6.6885    2.7429 Cl  0  0  0  0  0  0  0  0  0  0  0  0
    6.1219    4.1490    3.2014 Cl  0  0  0  0  0  0  0  0  0  0  0  0
    5.0318    2.8837    1.0854 P   0  0  0  0  0  4  0  0  0  0  0  0
    2.2062    2.6552   -0.0692 P   0  0  0  0  0  0  0  0  0  0  0  0
    2.8943    5.4322    0.7948 P   0  0  0  0  0  4  0  0  0  0  0  0
    4.0050    2.2528   -0.3409 C   0  0  0  0  0  0  0  0  0  0  0  0
    2.2748    4.4154   -0.6441 C   0  0  0  0  0  0  0  0  0  0  0  0
    5.0950    1.4008    2.1226 C   0  0  0  0  0  0  0  0  0  0  0  0
    6.2935    0.9711    2.6822 C   0  0  0  0  0  0  0  0  0  0  0  0
    6.3104   -0.1495    3.4920 C   0  0  0  0  0  0  0  0  0  0  0  0
    5.1366   -0.8350    3.7605 C   0  0  0  0  0  0  0  0  0  0  0  0
    3.9383   -0.3951    3.2221 C   0  0  0  0  0  0  0  0  0  0  0  0
    3.9149    0.7215    2.4071 C   0  0  0  0  0  0  0  0  0  0  0  0
    6.6252    3.0087    0.2266 C   0  0  0  0  0  0  0  0  0  0  0  0
    7.2903    1.9041   -0.2929 C   0  0  0  0  0  0  0  0  0  0  0  0
    8.4686    2.0844   -0.9944 C   0  0  0  0  0  0  0  0  0  0  0  0
    8.9760    3.3593   -1.1915 C   0  0  0  0  0  0  0  0  0  0  0  0
    8.3057    4.4634   -0.6894 C   0  0  0  0  0  0  0  0  0  0  0  0
    7.1313    4.2872    0.0175 C   0  0  0  0  0  0  0  0  0  0  0  0
    1.5754    1.7912   -1.5582 C   0  0  0  0  0  0  0  0  0  0  0  0
    1.1107    2.4104   -2.7110 C   0  0  0  0  0  0  0  0  0  0  0  0
    0.6368    1.6496   -3.7664 C   0  0  0  0  0  0  0  0  0  0  0  0
    0.6143    0.2687   -3.6806 C   0  0  0  0  0  0  0  0  0  0  0  0
    1.0591   -0.3566   -2.5267 C   0  0  0  0  0  0  0  0  0  0  0  0
    1.5282    0.4010   -1.4719 C   0  0  0  0  0  0  0  0  0  0  0  0
    1.4951    5.1523    1.9152 C   0  0  0  0  0  0  0  0  0  0  0  0
    1.7430    4.4108    3.0661 C   0  0  0  0  0  0  0  0  0  0  0  0
    0.7096    4.0956    3.9278 C   0  0  0  0  0  0  0  0  0  0  0  0
   -0.5769    4.5238    3.6427 C   0  0  0  0  0  0  0  0  0  0  0  0
   -0.8288    5.2605    2.4961 C   0  0  0  0  0  0  0  0  0  0  0  0
    0.2010    5.5708    1.6268 C   0  0  0  0  0  0  0  0  0  0  0  0
    2.7153    7.0985    0.1017 C   0  0  0  0  0  0  0  0  0  0  0  0
    2.0590    8.1054    0.8010 C   0  0  0  0  0  0  0  0  0  0  0  0
    1.9707    9.3745    0.2601 C   0  0  0  0  0  0  0  0  0  0  0  0
    2.5498    9.6525   -0.9677 C   0  0  0  0  0  0  0  0  0  0  0  0
    3.2304    8.6599   -1.6528 C   0  0  0  0  0  0  0  0  0  0  0  0
    3.3163    7.3871   -1.1193 C   0  0  0  0  0  0  0  0  0  0  0  0
    4.3526    2.7126   -1.2729 H   0  0  0  0  0  0  0  0  0  0  0  0
    4.1187    1.1673   -0.4158 H   0  0  0  0  0  0  0  0  0  0  0  0
    2.9136    4.5261   -1.5253 H   0  0  0  0  0  0  0  0  0  0  0  0
    1.2597    4.7561   -0.8727 H   0  0  0  0  0  0  0  0  0  0  0  0
    7.2010    1.5250    2.4921 H   0  0  0  0  0  0  0  0  0  0  0  0
    7.2426   -0.4845    3.9222 H   0  0  0  0  0  0  0  0  0  0  0  0
    5.1536   -1.7064    4.3984 H   0  0  0  0  0  0  0  0  0  0  0  0
    3.0196   -0.9187    3.4436 H   0  0  0  0  0  0  0  0  0  0  0  0
    2.9765    1.0774    1.9983 H   0  0  0  0  0  0  0  0  0  0  0  0
    6.8908    0.9110   -0.1375 H   0  0  0  0  0  0  0  0  0  0  0  0
    8.9948    1.2274   -1.3891 H   0  0  0  0  0  0  0  0  0  0  0  0
    9.8986    3.4917   -1.7371 H   0  0  0  0  0  0  0  0  0  0  0  0
    8.7015    5.4561   -0.8443 H   0  0  0  0  0  0  0  0  0  0  0  0
    6.5979    5.1445    0.4366 H   0  0  0  0  0  0  0  0  0  0  0  0
    1.1128    3.4868   -2.7969 H   0  0  0  0  0  0  0  0  0  0  0  0
    0.2832    2.1406   -4.6616 H   0  0  0  0  0  0  0  0  0  0  0  0
    0.2445   -0.3192   -4.5074 H   0  0  0  0  0  0  0  0  0  0  0  0
    1.0333   -1.4337   -2.4493 H   0  0  0  0  0  0  0  0  0  0  0  0
    1.8638   -0.0824   -0.5630 H   0  0  0  0  0  0  0  0  0  0  0  0
    2.7668    4.0935    3.2893 H   0  0  0  0  0  0  0  0  0  0  0  0
    0.9061    3.5208    4.8204 H   0  0  0  0  0  0  0  0  0  0  0  0
   -1.3867    4.2847    4.3160 H   0  0  0  0  0  0  0  0  0  0  0  0
   -1.8332    5.5935    2.2781 H   0  0  0  0  0  0  0  0  0  0  0  0
    0.0029    6.1473    0.7329 H   0  0  0  0  0  0  0  0  0  0  0  0
    1.6390    7.8936    1.7733 H   0  0  0  0  0  0  0  0  0  0  0  0
    1.4575   10.1536    0.8041 H   0  0  0  0  0  0  0  0  0  0  0  0
    2.4834   10.6467   -1.3842 H   0  0  0  0  0  0  0  0  0  0  0  0
    3.7012    8.8799   -2.6000 H   0  0  0  0  0  0  0  0  0  0  0  0
    3.8701    6.6191   -1.6438 H   0  0  0  0  0  0  0  0  0  0  0  0
  1  2  1  0  0  0  0
  1  3  1  0  0  0  0
  4  1  1  0  0  0  0
  4  9  1  0  0  0  0
  6  1  1  0  0  0  0
  6 27  1  0  0  0  0
  7  5  1  0  0  0  0
  7  4  1  0  0  0  0
  8  5  1  0  0  0  0
  8  6  1  0  0  0  0
  9 14  2  0  0  0  0
  9 10  1  0  0  0  0
 10 11  2  0  0  0  0
 11 12  1  0  0  0  0
 11 44  1  0  0  0  0
 12 45  1  0  0  0  0
 13 46  1  0  0  0  0
 13 12  2  0  0  0  0
 14 13  1  0  0  0  0
 15  4  1  0  0  0  0
 16 48  1  0  0  0  0
 16 15  2  0  0  0  0
 17 16  1  0  0  0  0
 18 17  2  0  0  0  0
 18 19  1  0  0  0  0
 19 20  2  0  0  0  0
 20 15  1  0  0  0  0
 20 52  1  0  0  0  0
 21 26  1  0  0  0  0
 21  5  1  0  0  0  0
 22 21  2  0  0  0  0
 23 24  2  0  0  0  0
 23 22  1  0  0  0  0
 24 25  1  0  0  0  0
 25 56  1  0  0  0  0
 25 26  2  0  0  0  0
 26 57  1  0  0  0  0
 27 28  1  0  0  0  0
 28 58  1  0  0  0  0
 28 29  2  0  0  0  0
 29 59  1  0  0  0  0
 30 29  1  0  0  0  0
 30 60  1  0  0  0  0
 31 30  2  0  0  0  0
 32 27  2  0  0  0  0
 32 31  1  0  0  0  0
 33  6  1  0  0  0  0
 33 34  1  0  0  0  0
 34 63  1  0  0  0  0
 35 34  2  0  0  0  0
 35 64  1  0  0  0  0
 36 35  1  0  0  0  0
 37 38  1  0  0  0  0
 37 36  2  0  0  0  0
 38 33  2  0  0  0  0
 39  7  1  0  0  0  0
 40  7  1  0  0  0  0
 41  8  1  0  0  0  0
 42  8  1  0  0  0  0
 43 10  1  0  0  0  0
 47 14  1  0  0  0  0
 49 17  1  0  0  0  0
 50 18  1  0  0  0  0
 51 19  1  0  0  0  0
 53 22  1  0  0  0  0
 54 23  1  0  0  0  0
 55 24  1  0  0  0  0
 61 31  1  0  0  0  0
 62 32  1  0  0  0  0
 65 36  1  0  0  0  0
 66 37  1  0  0  0  0
 67 38  1  0  0  0  0
M  END
$$$$
