CSD_code = POWQUO | q = 0 | S = 0 | Stoichiometry = C26H20Cl2HgN2 | MND = 4
 OpenBabel04212202083D

 51 56  0  0  0  0  0  0  0  0999 V2000
   -2.9830   -5.8732    9.8487 Hg  0  0  0  0  0  0  0  0  0  0  0  0
   -4.5560   -5.9897   11.5006 Cl  0  0  0  0  0  0  0  0  0  0  0  0
   -1.2981   -7.0613    8.8657 Cl  0  0  0  0  0  0  0  0  0  0  0  0
   -2.3099   -3.5558    9.9085 N   0  0  0  0  0  0  0  0  0  0  0  0
   -3.9924   -4.6369    8.0370 N   0  0  0  0  0  0  0  0  0  0  0  0
   -0.9242   -4.0153   11.8200 C   0  0  0  0  0  0  0  0  0  0  0  0
   -0.4308   -4.8403   11.3003 H   0  0  0  0  0  0  0  0  0  0  0  0
   -1.7283   -4.4349   12.4295 H   0  0  0  0  0  0  0  0  0  0  0  0
   -0.2069   -3.5249   12.4724 H   0  0  0  0  0  0  0  0  0  0  0  0
   -1.4979   -3.0622   10.8264 C   0  0  0  0  0  0  0  0  0  0  0  0
   -1.2026   -1.6950   10.8806 C   0  0  0  0  0  0  0  0  0  0  0  0
   -0.5647   -1.3174   11.6654 H   0  0  0  0  0  0  0  0  0  0  0  0
   -1.7477   -0.8260    9.9594 C   0  0  0  0  0  0  0  0  0  0  0  0
   -1.4724    0.6150   10.0636 C   0  0  0  0  0  0  0  0  0  0  0  0
   -0.1597    1.0702   10.1505 C   0  0  0  0  0  0  0  0  0  0  0  0
    0.6527    0.3600   10.0997 H   0  0  0  0  0  0  0  0  0  0  0  0
    0.1039    2.4219   10.2736 C   0  0  0  0  0  0  0  0  0  0  0  0
    1.1258    2.7658   10.3308 H   0  0  0  0  0  0  0  0  0  0  0  0
   -0.9387    3.3321   10.3277 C   0  0  0  0  0  0  0  0  0  0  0  0
   -0.7317    4.3867   10.4290 H   0  0  0  0  0  0  0  0  0  0  0  0
   -2.2478    2.8855   10.2574 C   0  0  0  0  0  0  0  0  0  0  0  0
   -3.0637    3.5909   10.3094 H   0  0  0  0  0  0  0  0  0  0  0  0
   -2.5161    1.5358   10.1222 C   0  0  0  0  0  0  0  0  0  0  0  0
   -3.5376    1.1855   10.0878 H   0  0  0  0  0  0  0  0  0  0  0  0
   -2.5781   -1.3622    8.9438 C   0  0  0  0  0  0  0  0  0  0  0  0
   -3.0929   -0.5741    7.8784 C   0  0  0  0  0  0  0  0  0  0  0  0
   -2.8018    0.4634    7.8192 H   0  0  0  0  0  0  0  0  0  0  0  0
   -3.9066   -1.1128    6.9395 C   0  0  0  0  0  0  0  0  0  0  0  0
   -4.2713   -0.5105    6.1216 H   0  0  0  0  0  0  0  0  0  0  0  0
   -4.2802   -2.4835    6.9906 C   0  0  0  0  0  0  0  0  0  0  0  0
   -5.1552   -3.0728    6.0443 C   0  0  0  0  0  0  0  0  0  0  0  0
   -5.8382   -2.2790    5.0113 C   0  0  0  0  0  0  0  0  0  0  0  0
   -6.6166   -1.1773    5.3586 C   0  0  0  0  0  0  0  0  0  0  0  0
   -6.7177   -0.9034    6.3989 H   0  0  0  0  0  0  0  0  0  0  0  0
   -7.2821   -0.4589    4.3823 C   0  0  0  0  0  0  0  0  0  0  0  0
   -7.8891    0.3893    4.6619 H   0  0  0  0  0  0  0  0  0  0  0  0
   -7.1725   -0.8254    3.0511 C   0  0  0  0  0  0  0  0  0  0  0  0
   -7.6889   -0.2599    2.2902 H   0  0  0  0  0  0  0  0  0  0  0  0
   -6.4033   -1.9221    2.6990 C   0  0  0  0  0  0  0  0  0  0  0  0
   -6.3175   -2.2125    1.6626 H   0  0  0  0  0  0  0  0  0  0  0  0
   -5.7461   -2.6510    3.6730 C   0  0  0  0  0  0  0  0  0  0  0  0
   -5.1393   -3.5018    3.3994 H   0  0  0  0  0  0  0  0  0  0  0  0
   -5.3731   -4.4323    6.1172 C   0  0  0  0  0  0  0  0  0  0  0  0
   -6.0308   -4.9108    5.4075 H   0  0  0  0  0  0  0  0  0  0  0  0
   -4.7762   -5.1924    7.1298 C   0  0  0  0  0  0  0  0  0  0  0  0
   -5.0120   -6.6615    7.2330 C   0  0  0  0  0  0  0  0  0  0  0  0
   -5.4300   -6.9012    8.2142 H   0  0  0  0  0  0  0  0  0  0  0  0
   -4.0624   -7.1923    7.1343 H   0  0  0  0  0  0  0  0  0  0  0  0
   -5.6946   -7.0093    6.4625 H   0  0  0  0  0  0  0  0  0  0  0  0
   -3.7273   -3.3203    7.9859 C   0  0  0  0  0  0  0  0  0  0  0  0
   -2.8494   -2.7484    8.9792 C   0  0  0  0  0  0  0  0  0  0  0  0
  1  4  1  0  0  0  0
  1  2  1  0  0  0  0
  3  1  1  0  0  0  0
  4 10  1  0  0  0  0
  5  1  1  0  0  0  0
  6  8  1  0  0  0  0
  6  9  1  0  0  0  0
  7  6  1  0  0  0  0
 10 11  2  0  0  0  0
 10  6  1  0  0  0  0
 11 12  1  0  0  0  0
 13 14  1  0  0  0  0
 13 11  1  0  0  0  0
 14 23  2  0  0  0  0
 14 15  1  0  0  0  0
 15 17  2  0  0  0  0
 16 15  1  0  0  0  0
 17 19  1  0  0  0  0
 17 18  1  0  0  0  0
 19 20  1  0  0  0  0
 21 22  1  0  0  0  0
 21 19  2  0  0  0  0
 23 21  1  0  0  0  0
 24 23  1  0  0  0  0
 25 51  1  0  0  0  0
 25 13  2  0  0  0  0
 26 25  1  0  0  0  0
 27 26  1  0  0  0  0
 28 30  1  0  0  0  0
 28 26  2  0  0  0  0
 29 28  1  0  0  0  0
 30 50  1  0  0  0  0
 31 43  1  0  0  0  0
 31 30  2  0  0  0  0
 32 33  1  0  0  0  0
 32 31  1  0  0  0  0
 33 34  1  0  0  0  0
 35 36  1  0  0  0  0
 35 33  2  0  0  0  0
 37 35  1  0  0  0  0
 38 37  1  0  0  0  0
 39 37  2  0  0  0  0
 39 41  1  0  0  0  0
 40 39  1  0  0  0  0
 41 32  2  0  0  0  0
 42 41  1  0  0  0  0
 43 45  2  0  0  0  0
 44 43  1  0  0  0  0
 45 46  1  0  0  0  0
 45  5  1  0  0  0  0
 46 47  1  0  0  0  0
 48 46  1  0  0  0  0
 49 46  1  0  0  0  0
 50  5  1  0  0  0  0
 50 51  2  0  0  0  0
 51  4  1  0  0  0  0
M  END
$$$$
