CSD_code = POWXUU | q = -1 | S = 0 | Stoichiometry = C26H20Cl2N6O2Rh(1-) | MND = 6
 OpenBabel04212202083D

 57 62  0  0  0  0  0  0  0  0999 V2000
   -2.1066   16.0229   10.1933 Rh  0  0  0  0  0  0  0  0  0  0  0  0
   -0.4218   17.6244   10.3738 Cl  0  0  0  0  0  0  0  0  0  0  0  0
   -3.8559   14.4976    9.9739 Cl  0  0  0  0  0  0  0  0  0  0  0  0
   -1.0321   14.5386   12.3306 O   0  0  0  0  0  1  0  0  0  0  0  0
   -0.1906   13.9934    9.8190 O   0  0  0  0  0  1  0  0  0  0  0  0
   -3.3460   17.2627   11.2507 N   0  0  0  0  0  0  0  0  0  0  0  0
   -3.0945   17.2801   12.5075 N   0  0  0  0  0  0  0  0  0  0  0  0
   -1.7251   15.5152   12.0257 N   0  0  0  0  0  0  0  0  0  0  0  0
   -2.3862   16.5685    8.2394 N   0  0  0  0  0  0  0  0  0  0  0  0
   -1.9213   15.7159    7.4028 N   0  0  0  0  0  0  0  0  0  0  0  0
   -0.9776   14.7581    9.2509 N   0  0  0  0  0  0  0  0  0  0  0  0
   -4.3156   18.1629   10.8199 C   0  0  0  0  0  0  0  0  0  0  0  0
   -4.3991   19.4436   11.3682 C   0  0  0  0  0  0  0  0  0  0  0  0
   -5.3571   20.3256   10.9103 C   0  0  0  0  0  0  0  0  0  0  0  0
   -6.2495   19.9394    9.9227 C   0  0  0  0  0  0  0  0  0  0  0  0
   -6.1849   18.6589    9.3959 C   0  0  0  0  0  0  0  0  0  0  0  0
   -5.2225   17.7722    9.8332 C   0  0  0  0  0  0  0  0  0  0  0  0
   -2.2230   16.3730   12.9500 C   0  0  0  0  0  0  0  0  0  0  0  0
   -1.9405   16.3429   14.3840 C   0  0  0  0  0  0  0  0  0  0  0  0
   -0.8812   15.6176   14.9294 C   0  0  0  0  0  0  0  0  0  0  0  0
   -0.6469   15.6453   16.2921 C   0  0  0  0  0  0  0  0  0  0  0  0
   -1.4554   16.3906   17.1324 C   0  0  0  0  0  0  0  0  0  0  0  0
   -2.5069   17.1193   16.5979 C   0  0  0  0  0  0  0  0  0  0  0  0
   -2.7484   17.0981   15.2400 C   0  0  0  0  0  0  0  0  0  0  0  0
   -3.0903   17.6321    7.6832 C   0  0  0  0  0  0  0  0  0  0  0  0
   -3.9367   17.4377    6.5907 C   0  0  0  0  0  0  0  0  0  0  0  0
   -4.6392   18.5048    6.0680 C   0  0  0  0  0  0  0  0  0  0  0  0
   -4.4930   19.7721    6.6094 C   0  0  0  0  0  0  0  0  0  0  0  0
   -3.6327   19.9715    7.6779 C   0  0  0  0  0  0  0  0  0  0  0  0
   -2.9366   18.9112    8.2207 C   0  0  0  0  0  0  0  0  0  0  0  0
   -1.1808   14.7302    7.9109 C   0  0  0  0  0  0  0  0  0  0  0  0
   -0.6051   13.7614    6.9798 C   0  0  0  0  0  0  0  0  0  0  0  0
   -0.0442   12.5550    7.3987 C   0  0  0  0  0  0  0  0  0  0  0  0
    0.4646   11.6647    6.4708 C   0  0  0  0  0  0  0  0  0  0  0  0
    0.4248   11.9552    5.1182 C   0  0  0  0  0  0  0  0  0  0  0  0
   -0.1361   13.1497    4.6930 C   0  0  0  0  0  0  0  0  0  0  0  0
   -0.6466   14.0439    5.6110 C   0  0  0  0  0  0  0  0  0  0  0  0
   -3.6911   19.7280   12.1322 H   0  0  0  0  0  0  0  0  0  0  0  0
   -5.4095   21.3227   11.3254 H   0  0  0  0  0  0  0  0  0  0  0  0
   -6.9966   20.6347    9.5666 H   0  0  0  0  0  0  0  0  0  0  0  0
   -6.8879   18.3512    8.6355 H   0  0  0  0  0  0  0  0  0  0  0  0
   -5.1724   16.7661    9.4441 H   0  0  0  0  0  0  0  0  0  0  0  0
   -0.2434   15.0328   14.2863 H   0  0  0  0  0  0  0  0  0  0  0  0
    0.1781   15.0783   16.7008 H   0  0  0  0  0  0  0  0  0  0  0  0
   -1.2689   16.4056   18.1976 H   0  0  0  0  0  0  0  0  0  0  0  0
   -3.1425   17.7059   17.2476 H   0  0  0  0  0  0  0  0  0  0  0  0
   -3.5646   17.6620   14.8161 H   0  0  0  0  0  0  0  0  0  0  0  0
   -4.0418   16.4421    6.1866 H   0  0  0  0  0  0  0  0  0  0  0  0
   -5.3070   18.3487    5.2318 H   0  0  0  0  0  0  0  0  0  0  0  0
   -5.0465   20.6039    6.1970 H   0  0  0  0  0  0  0  0  0  0  0  0
   -3.5071   20.9609    8.0932 H   0  0  0  0  0  0  0  0  0  0  0  0
   -2.2502   19.0555    9.0417 H   0  0  0  0  0  0  0  0  0  0  0  0
   -0.0067   12.3164    8.4494 H   0  0  0  0  0  0  0  0  0  0  0  0
    0.8961   10.7329    6.8096 H   0  0  0  0  0  0  0  0  0  0  0  0
    0.8273   11.2562    4.3977 H   0  0  0  0  0  0  0  0  0  0  0  0
   -0.1727   13.3834    3.6374 H   0  0  0  0  0  0  0  0  0  0  0  0
   -1.0849   14.9756    5.2888 H   0  0  0  0  0  0  0  0  0  0  0  0
  1  2  1  0  0  0  0
  1  6  1  0  0  0  0
  1  8  1  0  0  0  0
  3  1  1  0  0  0  0
  6  7  1  0  0  0  0
  7 18  2  0  0  0  0
  8  4  1  0  0  0  0
  8 18  1  0  0  0  0
  9  1  1  0  0  0  0
 10 31  2  0  0  0  0
 10  9  1  0  0  0  0
 11  5  1  0  0  0  0
 11  1  1  0  0  0  0
 12  6  1  0  0  0  0
 12 13  1  0  0  0  0
 13 38  1  0  0  0  0
 14 39  1  0  0  0  0
 14 13  2  0  0  0  0
 15 14  1  0  0  0  0
 16 17  1  0  0  0  0
 16 15  2  0  0  0  0
 17 12  2  0  0  0  0
 18 19  1  0  0  0  0
 19 20  2  0  0  0  0
 19 24  1  0  0  0  0
 20 21  1  0  0  0  0
 21 44  1  0  0  0  0
 21 22  2  0  0  0  0
 22 45  1  0  0  0  0
 23 22  1  0  0  0  0
 23 46  1  0  0  0  0
 24 23  2  0  0  0  0
 25 30  1  0  0  0  0
 25  9  1  0  0  0  0
 26 25  2  0  0  0  0
 27 26  1  0  0  0  0
 27 28  2  0  0  0  0
 28 29  1  0  0  0  0
 29 51  1  0  0  0  0
 29 30  2  0  0  0  0
 30 52  1  0  0  0  0
 31 11  1  0  0  0  0
 32 33  1  0  0  0  0
 32 31  1  0  0  0  0
 33 53  1  0  0  0  0
 34 54  1  0  0  0  0
 34 33  2  0  0  0  0
 35 34  1  0  0  0  0
 36 35  2  0  0  0  0
 36 37  1  0  0  0  0
 37 32  2  0  0  0  0
 40 15  1  0  0  0  0
 41 16  1  0  0  0  0
 42 17  1  0  0  0  0
 43 20  1  0  0  0  0
 47 24  1  0  0  0  0
 48 26  1  0  0  0  0
 49 27  1  0  0  0  0
 50 28  1  0  0  0  0
 55 35  1  0  0  0  0
 56 36  1  0  0  0  0
 57 37  1  0  0  0  0
M  END
$$$$
