CSD_code = POXQAX | q = 0 | S = 0 | Stoichiometry = C20H28AuClN2 | MND = 2
 OpenBabel04212202083D

 52 54  0  0  1  0  0  0  0  0999 V2000
   -0.9573    2.7352   12.6097 C   0  0  0  0  0  0  0  0  0  0  0  0
   -1.9298    2.3076   12.7339 H   0  0  0  0  0  0  0  0  0  0  0  0
   -0.5812    4.0319   12.5039 C   0  0  0  0  0  0  0  0  0  0  0  0
   -1.1558    4.9352   12.5186 H   0  0  0  0  0  0  0  0  0  0  0  0
    1.2545    2.7754   12.3743 C   0  0  2  0  0  3  0  0  0  0  0  0
    0.2315    0.5324   12.5964 C   0  0  0  0  0  0  0  0  0  0  0  0
    1.2950    0.2763   12.5038 H   0  0  0  0  0  0  0  0  0  0  0  0
   -0.2505    0.0885   13.9846 C   0  0  0  0  0  0  0  0  0  0  0  0
   -1.3175    0.2844   14.0980 H   0  0  0  0  0  0  0  0  0  0  0  0
    0.2712    0.7229   14.7064 H   0  0  0  0  0  0  0  0  0  0  0  0
    0.0532   -1.3791   14.3086 C   0  0  0  0  0  0  0  0  0  0  0  0
    0.8752   -1.7238   13.6837 H   0  0  0  0  0  0  0  0  0  0  0  0
    0.4043   -1.4440   15.3407 H   0  0  0  0  0  0  0  0  0  0  0  0
   -1.1449   -2.3260   14.1836 C   0  0  0  0  0  0  0  0  0  0  0  0
   -0.7736   -3.3526   14.2089 H   0  0  0  0  0  0  0  0  0  0  0  0
   -1.7798   -2.1899   15.0638 H   0  0  0  0  0  0  0  0  0  0  0  0
   -2.0368   -2.1499   12.9564 C   0  0  0  0  0  0  0  0  0  0  0  0
   -2.4505   -1.1413   12.9453 H   0  0  0  0  0  0  0  0  0  0  0  0
   -2.8850   -2.8301   13.0745 H   0  0  0  0  0  0  0  0  0  0  0  0
   -1.3979   -2.4581   11.6039 C   0  0  0  0  0  0  0  0  0  0  0  0
   -1.0257   -3.4846   11.6123 H   0  0  0  0  0  0  0  0  0  0  0  0
   -2.1935   -2.4088   10.8550 H   0  0  0  0  0  0  0  0  0  0  0  0
   -0.2590   -1.5384   11.1508 C   0  0  0  0  0  0  0  0  0  0  0  0
   -0.1185   -1.7088   10.0813 H   0  0  0  0  0  0  0  0  0  0  0  0
    0.6744   -1.8261   11.6315 H   0  0  0  0  0  0  0  0  0  0  0  0
   -0.5083   -0.0429   11.3806 C   0  0  0  0  0  0  0  0  0  0  0  0
   -0.1436    0.5112   10.5113 H   0  0  0  0  0  0  0  0  0  0  0  0
   -1.5788    0.1516   11.4588 H   0  0  0  0  0  0  0  0  0  0  0  0
    1.5906    5.1889   12.2136 C   0  0  0  0  0  0  0  0  0  0  0  0
    1.8490    5.6781   10.9341 C   0  0  0  0  0  0  0  0  0  0  0  0
    2.6425    6.8069   10.8117 C   0  0  0  0  0  0  0  0  0  0  0  0
    2.8568    7.1950    9.8267 H   0  0  0  0  0  0  0  0  0  0  0  0
    3.1770    7.4416   11.9251 C   0  0  0  0  0  0  0  0  0  0  0  0
    2.9046    6.9272   13.1847 C   0  0  0  0  0  0  0  0  0  0  0  0
    3.3227    7.4080   14.0569 H   0  0  0  0  0  0  0  0  0  0  0  0
    2.1150    5.8000   13.3506 C   0  0  0  0  0  0  0  0  0  0  0  0
    1.2993    4.9745    9.7315 C   0  0  0  0  0  0  0  0  0  0  0  0
    0.2174    4.8630    9.8019 H   0  0  0  0  0  0  0  0  0  0  0  0
    1.7356    3.9780    9.6558 H   0  0  0  0  0  0  0  0  0  0  0  0
    1.5352    5.5246    8.8251 H   0  0  0  0  0  0  0  0  0  0  0  0
    4.0587    8.6402   11.7617 C   0  0  0  0  0  0  0  0  0  0  0  0
    3.7187    9.2631   10.9374 H   0  0  0  0  0  0  0  0  0  0  0  0
    5.0763    8.3177   11.5408 H   0  0  0  0  0  0  0  0  0  0  0  0
    4.0822    9.2352   12.6712 H   0  0  0  0  0  0  0  0  0  0  0  0
    1.8483    5.2265   14.7083 C   0  0  0  0  0  0  0  0  0  0  0  0
    0.7792    5.1028   14.8799 H   0  0  0  0  0  0  0  0  0  0  0  0
    2.2540    5.8712   15.4827 H   0  0  0  0  0  0  0  0  0  0  0  0
    2.3178    4.2458   14.7926 H   0  0  0  0  0  0  0  0  0  0  0  0
    3.1818    2.2919   12.1886 Au  0  0  0  0  0  0  0  0  0  0  0  0
    5.3523    1.7613   11.9758 Cl  0  0  0  0  0  0  0  0  0  0  0  0
    0.1818    1.9805   12.5281 N   0  0  0  0  0  0  0  0  0  0  0  0
    0.7789    4.0317   12.3605 N   0  0  0  0  0  0  0  0  0  0  0  0
  1  2  1  0  0  0  0
  3  4  1  0  0  0  0
  3  1  2  0  0  0  0
  5 49  1  6  0  0  0
  5 51  1  0  0  0  0
  6  8  1  0  0  0  0
  7  6  1  0  0  0  0
  8  9  1  0  0  0  0
  8 11  1  0  0  0  0
  8 10  1  0  0  0  0
 11 13  1  0  0  0  0
 12 11  1  0  0  0  0
 14 15  1  0  0  0  0
 14 11  1  0  0  0  0
 14 16  1  0  0  0  0
 17 19  1  0  0  0  0
 17 14  1  0  0  0  0
 18 17  1  0  0  0  0
 20 21  1  0  0  0  0
 20 17  1  0  0  0  0
 22 20  1  0  0  0  0
 23 26  1  0  0  0  0
 23 20  1  0  0  0  0
 23 25  1  0  0  0  0
 24 23  1  0  0  0  0
 26 28  1  0  0  0  0
 26  6  1  0  0  0  0
 27 26  1  0  0  0  0
 29 52  1  0  0  0  0
 29 36  1  0  0  0  0
 30 29  2  0  0  0  0
 31 30  1  0  0  0  0
 31 33  2  0  0  0  0
 32 31  1  0  0  0  0
 33 34  1  0  0  0  0
 34 36  2  0  0  0  0
 34 35  1  0  0  0  0
 36 45  1  0  0  0  0
 37 38  1  0  0  0  0
 37 30  1  0  0  0  0
 39 37  1  0  0  0  0
 40 37  1  0  0  0  0
 41 33  1  0  0  0  0
 41 44  1  0  0  0  0
 42 41  1  0  0  0  0
 43 41  1  0  0  0  0
 45 48  1  0  0  0  0
 45 46  1  0  0  0  0
 45 47  1  0  0  0  0
 50 49  1  0  0  0  0
 51  6  1  0  0  0  0
 51  1  1  0  0  0  0
 52  5  1  0  0  0  0
 52  3  1  0  0  0  0
M  END
$$$$
