CSD_code = POXSUR | q = 0 | S = 0 | Stoichiometry = C25H28Cl2NOPPdS | MND = 4
 OpenBabel04212202083D

 60 64  0  0  1  0  0  0  0  0999 V2000
    3.0625    2.1659    1.6761 Pd  0  0  0  0  0  0  0  0  0  0  0  0
    1.9357    2.6735   -0.2429 Cl  0  0  0  0  0  0  0  0  0  0  0  0
    1.7695    0.3542    1.9402 Cl  0  0  0  0  0  0  0  0  0  0  0  0
    4.1260    3.8858    1.4517 N   0  0  2  0  0  0  0  0  0  0  0  0
    3.5018    5.1555    1.1182 C   0  0  1  0  0  0  0  0  0  0  0  0
    2.8386    4.9926    0.2594 H   0  0  0  0  0  0  0  0  0  0  0  0
    2.6396    5.6875    2.2998 C   0  0  0  0  0  0  0  0  0  0  0  0
    2.2416    7.1430    2.0325 C   0  0  0  0  0  0  0  0  0  0  0  0
    1.8298    7.2472    1.0317 H   0  0  0  0  0  0  0  0  0  0  0  0
    3.0813    7.8254    2.1343 H   0  0  0  0  0  0  0  0  0  0  0  0
    1.4814    7.4469    2.7479 H   0  0  0  0  0  0  0  0  0  0  0  0
    1.3524    4.8604    2.3959 C   0  0  0  0  0  0  0  0  0  0  0  0
    0.7499    4.9928    1.4994 H   0  0  0  0  0  0  0  0  0  0  0  0
    0.7700    5.1765    3.2588 H   0  0  0  0  0  0  0  0  0  0  0  0
    1.5698    3.7808    2.4969 H   0  0  0  0  0  0  0  0  0  0  0  0
    3.4166    5.5814    3.6158 C   0  0  0  0  0  0  0  0  0  0  0  0
    2.8447    6.0306    4.4238 H   0  0  0  0  0  0  0  0  0  0  0  0
    4.3758    6.0928    3.5542 H   0  0  0  0  0  0  0  0  0  0  0  0
    3.6015    4.5348    3.8689 H   0  0  0  0  0  0  0  0  0  0  0  0
    4.7228    6.0281    0.7399 C   0  0  0  0  0  0  0  0  0  0  0  0
    4.7461    6.2685   -0.3263 H   0  0  0  0  0  0  0  0  0  0  0  0
    4.8022    6.9501    1.3168 H   0  0  0  0  0  0  0  0  0  0  0  0
    5.8611    5.2252    1.0463 O   0  0  0  0  0  0  0  0  0  0  0  0
    5.4002    4.0242    1.4326 C   0  0  1  0  0  3  0  0  0  0  0  0
    6.3713    3.0468    1.8260 C   0  0  0  0  0  0  0  0  0  0  0  0
    8.0361    3.2751    1.4053 S   0  0  0  0  0  0  0  0  0  0  0  0
    8.4610    1.8273    2.2245 C   0  0  0  0  0  0  0  0  0  0  0  0
    9.4851    1.5095    2.2328 H   0  0  0  0  0  0  0  0  0  0  0  0
    7.3927    1.2130    2.7985 C   0  0  0  0  0  0  0  0  0  0  0  0
    7.4514    0.2925    3.3533 H   0  0  0  0  0  0  0  0  0  0  0  0
    6.1788    1.9079    2.5801 C   0  0  0  0  0  0  0  0  0  0  0  0
    4.5453    1.4198    3.2132 P   0  0  0  0  0  4  0  0  0  0  0  0
    4.7398   -0.3849    3.2724 C   0  0  0  0  0  0  0  0  0  0  0  0
    4.6608   -1.0573    4.4882 C   0  0  0  0  0  0  0  0  0  0  0  0
    4.5325   -0.4940    5.4023 H   0  0  0  0  0  0  0  0  0  0  0  0
    4.7473   -2.4359    4.5351 C   0  0  0  0  0  0  0  0  0  0  0  0
    4.6847   -2.9483    5.4834 H   0  0  0  0  0  0  0  0  0  0  0  0
    4.9040   -3.1504    3.3605 C   0  0  0  0  0  0  0  0  0  0  0  0
    4.9632   -4.2283    3.3854 H   0  0  0  0  0  0  0  0  0  0  0  0
    4.9797   -2.4845    2.1498 C   0  0  0  0  0  0  0  0  0  0  0  0
    5.0956   -3.0530    1.2382 H   0  0  0  0  0  0  0  0  0  0  0  0
    4.8985   -1.1003    2.0749 C   0  0  0  0  0  0  0  0  0  0  0  0
    4.9986   -0.4227    0.7430 C   0  0  0  0  0  0  0  0  0  0  0  0
    4.1678    0.2931    0.5906 H   0  0  0  0  0  0  0  0  0  0  0  0
    4.9545   -1.1582   -0.0572 H   0  0  0  0  0  0  0  0  0  0  0  0
    5.9410    0.1223    0.6550 H   0  0  0  0  0  0  0  0  0  0  0  0
    4.6141    1.9879    4.9447 C   0  0  0  0  0  0  0  0  0  0  0  0
    5.8060    2.4121    5.5250 C   0  0  0  0  0  0  0  0  0  0  0  0
    6.7272    2.3666    4.9630 H   0  0  0  0  0  0  0  0  0  0  0  0
    5.8256    2.8867    6.8237 C   0  0  0  0  0  0  0  0  0  0  0  0
    6.7583    3.2050    7.2649 H   0  0  0  0  0  0  0  0  0  0  0  0
    4.6495    2.9520    7.5507 C   0  0  0  0  0  0  0  0  0  0  0  0
    4.6590    3.3231    8.5646 H   0  0  0  0  0  0  0  0  0  0  0  0
    3.4593    2.5431    6.9752 C   0  0  0  0  0  0  0  0  0  0  0  0
    2.5426    2.5991    7.5444 H   0  0  0  0  0  0  0  0  0  0  0  0
    3.4175    2.0604    5.6741 C   0  0  0  0  0  0  0  0  0  0  0  0
    2.1279    1.6322    5.0588 C   0  0  0  0  0  0  0  0  0  0  0  0
    1.3127    1.6876    5.7759 H   0  0  0  0  0  0  0  0  0  0  0  0
    2.1938    0.6111    4.6779 H   0  0  0  0  0  0  0  0  0  0  0  0
    1.8805    2.2736    4.2007 H   0  0  0  0  0  0  0  0  0  0  0  0
  1  3  1  0  0  0  0
  1 32  1  0  0  0  0
  2  1  1  0  0  0  0
  4  1  1  6  0  0  0
  5  6  1  6  0  0  0
  5  4  1  0  0  0  0
  5  7  1  0  0  0  0
  7 12  1  0  0  0  0
  7 16  1  0  0  0  0
  8 10  1  0  0  0  0
  8  7  1  0  0  0  0
  8 11  1  0  0  0  0
  9  8  1  0  0  0  0
 12 15  1  0  0  0  0
 12 14  1  0  0  0  0
 13 12  1  0  0  0  0
 16 19  1  0  0  0  0
 16 17  1  0  0  0  0
 18 16  1  0  0  0  0
 20 23  1  0  0  0  0
 20  5  1  0  0  0  0
 20 22  1  0  0  0  0
 21 20  1  0  0  0  0
 24 23  1  1  0  0  0
 24  4  1  0  0  0  0
 24 25  1  0  0  0  0
 25 31  2  0  0  0  0
 26 25  1  0  0  0  0
 26 27  1  0  0  0  0
 27 28  1  0  0  0  0
 27 29  2  0  0  0  0
 29 30  1  0  0  0  0
 31 29  1  0  0  0  0
 31 32  1  0  0  0  0
 32 33  1  0  0  0  0
 32 47  1  0  0  0  0
 33 34  1  0  0  0  0
 34 36  2  0  0  0  0
 34 35  1  0  0  0  0
 36 37  1  0  0  0  0
 38 39  1  0  0  0  0
 38 36  1  0  0  0  0
 40 38  2  0  0  0  0
 41 40  1  0  0  0  0
 42 40  1  0  0  0  0
 42 33  2  0  0  0  0
 43 42  1  0  0  0  0
 44 43  1  0  0  0  0
 45 43  1  0  0  0  0
 46 43  1  0  0  0  0
 47 48  2  0  0  0  0
 47 56  1  0  0  0  0
 48 50  1  0  0  0  0
 49 48  1  0  0  0  0
 50 51  1  0  0  0  0
 50 52  2  0  0  0  0
 52 53  1  0  0  0  0
 54 55  1  0  0  0  0
 54 52  1  0  0  0  0
 56 54  2  0  0  0  0
 57 56  1  0  0  0  0
 57 58  1  0  0  0  0
 59 57  1  0  0  0  0
 60 57  1  0  0  0  0
M  END
$$$$
