CSD_code = POYSAX | q = 0 | S = 0 | Stoichiometry = C22H24Cl2N8Ru | MND = 6
 OpenBabel04212202083D

 57 62  0  0  1  0  0  0  0  0999 V2000
   -0.0303    4.4839    4.7023 Ru  0  0  0  0  0  0  0  0  0  0  0  0
   -1.9010    5.8176    4.2875 Cl  0  0  0  0  0  0  0  0  0  0  0  0
    1.3240    6.3654    4.9813 Cl  0  0  0  0  0  0  0  0  0  0  0  0
    0.5992    4.5739    2.7844 N   0  0  0  0  0  0  0  0  0  0  0  0
    2.3804    4.2638    1.5073 N   0  0  0  0  0  0  0  0  0  0  0  0
    2.2742    3.2213    3.6882 N   0  0  0  0  0  2  0  0  0  0  0  0
    1.5283    3.3166    4.7530 N   0  0  0  0  0  0  0  0  0  0  0  0
   -0.6836    4.5342    6.6141 N   0  0  0  0  0  0  0  0  0  0  0  0
   -2.2987    3.7943    7.9348 N   0  0  0  0  0  0  0  0  0  0  0  0
   -1.8432    2.6578    5.8481 N   0  0  0  0  0  2  0  0  0  0  0  0
   -1.1485    2.8903    4.7698 N   0  0  0  0  0  0  0  0  0  0  0  0
    1.8124    4.0057    2.7082 C   0  0  2  0  0  3  0  0  0  0  0  0
    0.3982    5.2273    1.6167 C   0  0  0  0  0  0  0  0  0  0  0  0
    1.4938    5.0461    0.8184 C   0  0  0  0  0  0  0  0  0  0  0  0
    3.6882    3.8491    1.0876 C   0  0  0  0  0  0  0  0  0  0  0  0
    1.7739    2.3579    5.7300 C   0  0  0  0  0  0  0  0  0  0  0  0
    1.7131    2.7108    7.0783 C   0  0  0  0  0  0  0  0  0  0  0  0
    1.8959    1.7492    8.0496 C   0  0  0  0  0  0  0  0  0  0  0  0
    2.1432    0.4217    7.7101 C   0  0  0  0  0  0  0  0  0  0  0  0
    2.2296    0.0848    6.3635 C   0  0  0  0  0  0  0  0  0  0  0  0
    2.0592    1.0364    5.3791 C   0  0  0  0  0  0  0  0  0  0  0  0
    2.3486   -0.6088    8.7766 C   0  0  0  0  0  0  0  0  0  0  0  0
   -1.6618    3.6260    6.7528 C   0  0  2  0  0  3  0  0  0  0  0  0
   -0.7115    5.3122    7.7207 C   0  0  0  0  0  0  0  0  0  0  0  0
   -1.7080    4.8673    8.5450 C   0  0  0  0  0  0  0  0  0  0  0  0
   -3.4192    3.0305    8.4034 C   0  0  0  0  0  0  0  0  0  0  0  0
   -1.0717    1.8241    3.8800 C   0  0  0  0  0  0  0  0  0  0  0  0
   -0.9371    0.5137    4.3438 C   0  0  0  0  0  0  0  0  0  0  0  0
   -0.7929   -0.5229    3.4445 C   0  0  0  0  0  0  0  0  0  0  0  0
   -0.8000   -0.2896    2.0735 C   0  0  0  0  0  0  0  0  0  0  0  0
   -0.9721    1.0160    1.6211 C   0  0  0  0  0  0  0  0  0  0  0  0
   -1.1074    2.0645    2.5062 C   0  0  0  0  0  0  0  0  0  0  0  0
   -0.6645   -1.4187    1.0995 C   0  0  0  0  0  0  0  0  0  0  0  0
   -0.5006    5.7846    1.4365 H   0  0  0  0  0  0  0  0  0  0  0  0
    1.7090    5.4068   -0.1661 H   0  0  0  0  0  0  0  0  0  0  0  0
    4.0908    3.1830    1.8477 H   0  0  0  0  0  0  0  0  0  0  0  0
    3.6290    3.3257    0.1317 H   0  0  0  0  0  0  0  0  0  0  0  0
    4.3463    4.7138    0.9800 H   0  0  0  0  0  0  0  0  0  0  0  0
    1.5606    3.7467    7.3423 H   0  0  0  0  0  0  0  0  0  0  0  0
    1.8541    2.0311    9.0920 H   0  0  0  0  0  0  0  0  0  0  0  0
    2.4315   -0.9389    6.0828 H   0  0  0  0  0  0  0  0  0  0  0  0
    2.1162    0.7771    4.3326 H   0  0  0  0  0  0  0  0  0  0  0  0
    2.1487   -1.6081    8.3982 H   0  0  0  0  0  0  0  0  0  0  0  0
    3.3814   -0.5790    9.1253 H   0  0  0  0  0  0  0  0  0  0  0  0
    1.7035   -0.4164    9.6311 H   0  0  0  0  0  0  0  0  0  0  0  0
   -0.0320    6.1333    7.8429 H   0  0  0  0  0  0  0  0  0  0  0  0
   -2.0385    5.2239    9.4987 H   0  0  0  0  0  0  0  0  0  0  0  0
   -3.5846    2.2122    7.7058 H   0  0  0  0  0  0  0  0  0  0  0  0
   -3.2141    2.6317    9.3984 H   0  0  0  0  0  0  0  0  0  0  0  0
   -4.3145    3.6540    8.4473 H   0  0  0  0  0  0  0  0  0  0  0  0
   -0.9232    0.3375    5.4090 H   0  0  0  0  0  0  0  0  0  0  0  0
   -0.6706   -1.5314    3.8123 H   0  0  0  0  0  0  0  0  0  0  0  0
   -1.0079    1.2084    0.5584 H   0  0  0  0  0  0  0  0  0  0  0  0
   -1.2803    3.0710    2.1553 H   0  0  0  0  0  0  0  0  0  0  0  0
   -0.1582   -2.2673    1.5528 H   0  0  0  0  0  0  0  0  0  0  0  0
   -1.6525   -1.7478    0.7757 H   0  0  0  0  0  0  0  0  0  0  0  0
   -0.1123   -1.1052    0.2164 H   0  0  0  0  0  0  0  0  0  0  0  0
  1  7  1  0  0  0  0
  1 11  1  0  0  0  0
  1  3  1  0  0  0  0
  1  8  1  0  0  0  0
  2  1  1  0  0  0  0
  4  1  1  0  0  0  0
  5 12  1  0  0  0  0
  6  7  1  0  0  0  0
  7 16  1  0  0  0  0
  8 23  1  0  0  0  0
  8 24  1  0  0  0  0
  9 26  1  0  0  0  0
  9 25  1  0  0  0  0
 11 10  1  0  0  0  0
 12  4  1  0  0  0  0
 12  6  1  6  0  0  0
 13  4  1  0  0  0  0
 14  5  1  0  0  0  0
 14 13  2  0  0  0  0
 15  5  1  0  0  0  0
 15 36  1  0  0  0  0
 16 17  1  0  0  0  0
 17 39  1  0  0  0  0
 17 18  2  0  0  0  0
 18 40  1  0  0  0  0
 19 18  1  0  0  0  0
 19 22  1  0  0  0  0
 20 19  2  0  0  0  0
 21 16  2  0  0  0  0
 21 20  1  0  0  0  0
 22 44  1  0  0  0  0
 22 45  1  0  0  0  0
 23 10  1  1  0  0  0
 23  9  1  0  0  0  0
 24 46  1  0  0  0  0
 24 25  2  0  0  0  0
 25 47  1  0  0  0  0
 26 50  1  0  0  0  0
 26 49  1  0  0  0  0
 27 28  1  0  0  0  0
 27 11  1  0  0  0  0
 28 51  1  0  0  0  0
 29 52  1  0  0  0  0
 29 28  2  0  0  0  0
 30 29  1  0  0  0  0
 31 30  2  0  0  0  0
 31 32  1  0  0  0  0
 32 27  2  0  0  0  0
 33 55  1  0  0  0  0
 33 30  1  0  0  0  0
 34 13  1  0  0  0  0
 35 14  1  0  0  0  0
 37 15  1  0  0  0  0
 38 15  1  0  0  0  0
 41 20  1  0  0  0  0
 42 21  1  0  0  0  0
 43 22  1  0  0  0  0
 48 26  1  0  0  0  0
 53 31  1  0  0  0  0
 54 32  1  0  0  0  0
 56 33  1  0  0  0  0
 57 33  1  0  0  0  0
M  END
$$$$
