CSD_code = POZNOI | q = 1 | S = 0 | Stoichiometry = C14H24ClN2Pt(1+) | MND = 5
 OpenBabel04212202083D

 42 42  0  0  0  0  0  0  0  0999 V2000
    0.0881    7.7012    0.3873 Pt  0  0  0  0  0  0  0  0  0  0  0  0
    0.0415    7.6815   -1.8849 Cl  0  0  0  0  0 15  0  0  0  0  0  0
   -0.0186    7.4957    2.5710 N   0  0  0  0  0  4  0  0  0  0  0  0
   -0.7112    5.7667    0.3703 N   0  0  0  0  0  4  0  0  0  0  0  0
   -1.0223    6.4258    2.7295 C   0  0  0  0  0  0  0  0  0  0  0  0
   -1.0190    6.0493    3.7612 H   0  0  0  0  0  0  0  0  0  0  0  0
   -2.0093    6.8538    2.5343 H   0  0  0  0  0  0  0  0  0  0  0  0
   -0.7563    5.2781    1.7633 C   0  0  0  0  0  0  0  0  0  0  0  0
   -1.5372    4.5161    1.8737 H   0  0  0  0  0  0  0  0  0  0  0  0
    0.1988    4.8054    2.0036 H   0  0  0  0  0  0  0  0  0  0  0  0
    1.2781    7.0575    3.1033 C   0  0  0  0  0  0  0  0  0  0  0  0
    1.7287    6.3026    2.4592 H   0  0  0  0  0  0  0  0  0  0  0  0
    1.1646    6.6423    4.1102 H   0  0  0  0  0  0  0  0  0  0  0  0
    1.9614    7.9017    3.1664 H   0  0  0  0  0  0  0  0  0  0  0  0
   -0.4725    8.6669    3.3274 C   0  0  0  0  0  0  0  0  0  0  0  0
   -1.4175    9.0304    2.9249 H   0  0  0  0  0  0  0  0  0  0  0  0
    0.2638    9.4661    3.2723 H   0  0  0  0  0  0  0  0  0  0  0  0
   -0.6192    8.4117    4.3818 H   0  0  0  0  0  0  0  0  0  0  0  0
   -2.0743    5.8746   -0.1709 C   0  0  0  0  0  0  0  0  0  0  0  0
   -2.6648    6.5879    0.4054 H   0  0  0  0  0  0  0  0  0  0  0  0
   -2.5740    4.9013   -0.1462 H   0  0  0  0  0  0  0  0  0  0  0  0
   -2.0302    6.2200   -1.2030 H   0  0  0  0  0  0  0  0  0  0  0  0
    0.0547    4.8176   -0.4489 C   0  0  0  0  0  0  0  0  0  0  0  0
    0.0337    5.1290   -1.4912 H   0  0  0  0  0  0  0  0  0  0  0  0
   -0.3738    3.8141   -0.3713 H   0  0  0  0  0  0  0  0  0  0  0  0
    1.0947    4.7885   -0.1206 H   0  0  0  0  0  0  0  0  0  0  0  0
    0.2901    9.8476    0.2256 C   0  0  0  0  0  0  0  0  0  0  0  0
    0.0121   10.1352   -0.7827 H   0  0  0  0  0  0  0  0  0  0  0  0
   -0.2650   10.3439    1.0158 H   0  0  0  0  0  0  0  0  0  0  0  0
    1.5577    9.3430    0.4772 C   0  0  0  0  0  3  0  0  0  0  0  0
    1.9416    9.3702    1.4977 H   0  0  0  0  0  0  0  0  0  0  0  0
    2.5777    9.0480   -0.5326 C   0  0  0  0  0  0  0  0  0  0  0  0
    3.5681    8.1074   -0.2271 C   0  0  0  0  0  0  0  0  0  0  0  0
    3.5767    7.6374    0.7475 H   0  0  0  0  0  0  0  0  0  0  0  0
    4.5303    7.7723   -1.1601 C   0  0  0  0  0  0  0  0  0  0  0  0
    5.2823    7.0370   -0.9180 H   0  0  0  0  0  0  0  0  0  0  0  0
    4.5347    8.3876   -2.4017 C   0  0  0  0  0  0  0  0  0  0  0  0
    5.2892    8.1303   -3.1287 H   0  0  0  0  0  0  0  0  0  0  0  0
    3.5764    9.3429   -2.7048 C   0  0  0  0  0  0  0  0  0  0  0  0
    3.5889    9.8328   -3.6660 H   0  0  0  0  0  0  0  0  0  0  0  0
    2.6021    9.6711   -1.7828 C   0  0  0  0  0  0  0  0  0  0  0  0
    1.8696   10.4258   -2.0234 H   0  0  0  0  0  0  0  0  0  0  0  0
  1  3  1  0  0  0  0
  3  5  1  0  0  0  0
  3 11  1  0  0  0  0
  3 15  1  0  0  0  0
  4  1  1  0  0  0  0
  4  8  1  0  0  0  0
  5  6  1  0  0  0  0
  7  5  1  0  0  0  0
  8  9  1  0  0  0  0
  8 10  1  0  0  0  0
  8  5  1  0  0  0  0
 11 14  1  0  0  0  0
 11 13  1  0  0  0  0
 12 11  1  0  0  0  0
 15 18  1  0  0  0  0
 16 15  1  0  0  0  0
 17 15  1  0  0  0  0
 19 21  1  0  0  0  0
 19  4  1  0  0  0  0
 19 20  1  0  0  0  0
 22 19  1  0  0  0  0
 23 25  1  0  0  0  0
 23 26  1  0  0  0  0
 23  4  1  0  0  0  0
 24 23  1  0  0  0  0
 27  1  1  0  0  0  0
 27 30  1  0  0  0  0
 27 29  1  0  0  0  0
 28 27  1  0  0  0  0
 30 31  1  0  0  0  0
 32 33  1  0  0  0  0
 32 30  1  0  0  0  0
 33 34  1  0  0  0  0
 35 36  1  0  0  0  0
 35 33  2  0  0  0  0
 37 35  1  0  0  0  0
 38 37  1  0  0  0  0
 39 37  2  0  0  0  0
 39 41  1  0  0  0  0
 40 39  1  0  0  0  0
 41 32  2  0  0  0  0
 42 41  1  0  0  0  0
M  END
$$$$
