CSD_code = POZVUW | q = 0 | S = 0 | Stoichiometry = C20H22Br2N4Ni | MND = 4
 OpenBabel04212202083D

 49 53  0  0  1  0  0  0  0  0999 V2000
    4.1053    1.6676    9.6361 Br  0  0  0  0  0  0  0  0  0  0  0  0
    5.7639    2.9307   12.3270 Br  0  0  0  0  0  0  0  0  0  0  0  0
    4.4918    3.6937   10.6033 Ni  0  0  0  0  0  0  0  0  0  0  0  0
    4.3695    4.6554    7.9132 N   0  0  0  0  0  0  0  0  0  0  0  0
    2.3845    4.6275    8.8056 N   0  0  0  0  0  0  0  0  0  0  0  0
    5.3610    6.3107   11.6512 N   0  0  0  0  0  0  0  0  0  0  0  0
    3.4868    5.5737   12.4761 N   0  0  0  0  0  0  0  0  0  0  0  0
    3.6935    4.4056    9.0538 C   0  0  1  0  0  3  0  0  0  0  0  0
    2.2150    5.0362    7.5017 C   0  0  0  0  0  0  0  0  0  0  0  0
    1.0964    5.3965    6.7680 C   0  0  0  0  0  0  0  0  0  0  0  0
    0.1086    5.3949    7.2012 H   0  0  0  0  0  0  0  0  0  0  0  0
    1.2978    5.7618    5.4497 C   0  0  0  0  0  0  0  0  0  0  0  0
    0.4497    6.0482    4.8472 H   0  0  0  0  0  0  0  0  0  0  0  0
    2.5682    5.7691    4.8778 C   0  0  0  0  0  0  0  0  0  0  0  0
    2.6770    6.0600    3.8445 H   0  0  0  0  0  0  0  0  0  0  0  0
    3.6905    5.4126    5.6023 C   0  0  0  0  0  0  0  0  0  0  0  0
    4.6725    5.4178    5.1569 H   0  0  0  0  0  0  0  0  0  0  0  0
    3.4962    5.0477    6.9245 C   0  0  0  0  0  0  0  0  0  0  0  0
    5.7742    4.4130    7.7252 C   0  0  0  0  0  0  0  0  0  0  0  0
    6.3224    5.3495    7.5994 H   0  0  0  0  0  0  0  0  0  0  0  0
    5.9267    3.7834    6.8479 H   0  0  0  0  0  0  0  0  0  0  0  0
    6.1574    3.8794    8.6028 H   0  0  0  0  0  0  0  0  0  0  0  0
    4.4521    5.3194   11.5641 C   0  0  0  0  0  0  0  0  0  0  0  0
    3.7764    6.7327   13.1591 C   0  0  0  0  0  0  0  0  0  0  0  0
    3.1275    7.4086   14.1799 C   0  0  0  0  0  0  0  0  0  0  0  0
    2.2083    7.0416   14.6081 H   0  0  0  0  0  0  0  0  0  0  0  0
    3.7154    8.5737   14.6370 C   0  0  0  0  0  0  0  0  0  0  0  0
    3.2389    9.1276   15.4314 H   0  0  0  0  0  0  0  0  0  0  0  0
    4.9092    9.0504   14.1002 C   0  0  0  0  0  0  0  0  0  0  0  0
    5.3308    9.9648   14.4881 H   0  0  0  0  0  0  0  0  0  0  0  0
    5.5680    8.3782   13.0872 C   0  0  0  0  0  0  0  0  0  0  0  0
    6.4954    8.7480   12.6795 H   0  0  0  0  0  0  0  0  0  0  0  0
    4.9853    7.2099   12.6245 C   0  0  0  0  0  0  0  0  0  0  0  0
    6.5981    6.3572   10.9222 C   0  0  0  0  0  0  0  0  0  0  0  0
    6.7908    5.3679   10.5020 H   0  0  0  0  0  0  0  0  0  0  0  0
    7.4140    6.6103   11.5986 H   0  0  0  0  0  0  0  0  0  0  0  0
    6.5527    7.0953   10.1175 H   0  0  0  0  0  0  0  0  0  0  0  0
    1.3347    4.4035    9.7675 C   0  0  0  0  0  0  0  0  0  0  0  0
    1.6135    3.5197   10.3511 H   0  0  0  0  0  0  0  0  0  0  0  0
    0.4196    4.1634    9.2243 H   0  0  0  0  0  0  0  0  0  0  0  0
    1.1290    5.6205   10.6879 C   0  0  0  0  0  0  0  0  0  0  0  0
    1.9586    6.3172   10.5397 H   0  0  0  0  0  0  0  0  0  0  0  0
    0.2151    6.1464   10.4082 H   0  0  0  0  0  0  0  0  0  0  0  0
    1.0521    5.2549   12.1711 C   0  0  0  0  0  0  0  0  0  0  0  0
    0.7801    6.1531   12.7295 H   0  0  0  0  0  0  0  0  0  0  0  0
    0.2706    4.5105   12.3302 H   0  0  0  0  0  0  0  0  0  0  0  0
    2.3677    4.7010   12.7289 C   0  0  0  0  0  0  0  0  0  0  0  0
    2.2761    4.5472   13.8078 H   0  0  0  0  0  0  0  0  0  0  0  0
    2.6087    3.7281   12.2734 H   0  0  0  0  0  0  0  0  0  0  0  0
  1  3  1  0  0  0  0
  3 23  2  0  0  0  0
  3  2  1  0  0  0  0
  5  8  1  0  0  0  0
  5 38  1  0  0  0  0
  6 33  1  0  0  0  0
  7 47  1  0  0  0  0
  7 24  1  0  0  0  0
  8  4  1  6  0  0  0
  8  3  1  0  0  0  0
  9  5  1  0  0  0  0
 10 11  1  0  0  0  0
 10  9  2  0  0  0  0
 12 10  1  0  0  0  0
 13 12  1  0  0  0  0
 14 12  2  0  0  0  0
 14 16  1  0  0  0  0
 15 14  1  0  0  0  0
 16 18  2  0  0  0  0
 17 16  1  0  0  0  0
 18  9  1  0  0  0  0
 18  4  1  0  0  0  0
 19  4  1  0  0  0  0
 19 22  1  0  0  0  0
 20 19  1  0  0  0  0
 21 19  1  0  0  0  0
 23  6  1  0  0  0  0
 23  7  1  0  0  0  0
 24 25  1  0  0  0  0
 25 26  1  0  0  0  0
 25 27  2  0  0  0  0
 27 28  1  0  0  0  0
 29 30  1  0  0  0  0
 29 27  1  0  0  0  0
 31 29  2  0  0  0  0
 32 31  1  0  0  0  0
 33 31  1  0  0  0  0
 33 24  2  0  0  0  0
 34 36  1  0  0  0  0
 34  6  1  0  0  0  0
 35 34  1  0  0  0  0
 37 34  1  0  0  0  0
 38 39  1  0  0  0  0
 38 41  1  0  0  0  0
 40 38  1  0  0  0  0
 41 44  1  0  0  0  0
 42 41  1  0  0  0  0
 43 41  1  0  0  0  0
 44 46  1  0  0  0  0
 44 47  1  0  0  0  0
 44 45  1  0  0  0  0
 47 48  1  0  0  0  0
 49 47  1  0  0  0  0
M  END
$$$$
