CSD_code = POZYUA | q = 0 | S = 0 | Stoichiometry = C24H18ClHgP | MND = 3
 OpenBabel04212202083D

 45 50  0  0  0  0  0  0  0  0999 V2000
    5.6137    8.8140    8.4272 Hg  0  0  0  0  0  0  0  0  0  0  0  0
    7.5829    7.5503    8.1850 Cl  0  0  0  0  0  0  0  0  0  0  0  0
    4.0008    7.8138   10.4769 P   0  0  0  0  0  4  0  0  0  0  0  0
    0.8904   13.2593    8.9375 C   0  0  0  0  0  0  0  0  0  0  0  0
    0.2948   13.4043    8.0346 H   0  0  0  0  0  0  0  0  0  0  0  0
    1.1969   14.2462    9.2886 H   0  0  0  0  0  0  0  0  0  0  0  0
    0.0989   12.4905   10.0233 C   0  0  0  0  0  0  0  0  0  0  0  0
   -0.0066   13.0799   10.9359 H   0  0  0  0  0  0  0  0  0  0  0  0
   -0.9062   12.2355    9.6823 H   0  0  0  0  0  0  0  0  0  0  0  0
    4.0947   10.4096    8.5325 C   0  0  0  0  0  0  0  0  0  0  0  0
    4.1225   11.5405    7.7401 C   0  0  0  0  0  0  0  0  0  0  0  0
    4.9307   11.6812    7.0321 H   0  0  0  0  0  0  0  0  0  0  0  0
    3.1393   12.5510    7.7917 C   0  0  0  0  0  0  0  0  0  0  0  0
    3.2312   13.4124    7.1466 H   0  0  0  0  0  0  0  0  0  0  0  0
    2.0901   12.4017    8.6508 C   0  0  0  0  0  0  0  0  0  0  0  0
    2.0391   11.2536    9.4599 C   0  0  0  0  0  0  0  0  0  0  0  0
    0.9001   11.2477   10.2833 C   0  0  0  0  0  0  0  0  0  0  0  0
    0.7021   10.1956   11.1333 C   0  0  0  0  0  0  0  0  0  0  0  0
   -0.1581   10.1399   11.7841 H   0  0  0  0  0  0  0  0  0  0  0  0
    1.6574    9.1666   11.1553 C   0  0  0  0  0  0  0  0  0  0  0  0
    1.4946    8.3371   11.8306 H   0  0  0  0  0  0  0  0  0  0  0  0
    2.7859    9.1663   10.3579 C   0  0  0  0  0  0  0  0  0  0  0  0
    3.0159   10.2417    9.4454 C   0  0  0  0  0  0  0  0  0  0  0  0
    3.0211    6.4684   11.2139 C   0  0  0  0  0  0  0  0  0  0  0  0
    3.3228    5.8981   12.4447 C   0  0  0  0  0  0  0  0  0  0  0  0
    4.1375    6.2896   13.0375 H   0  0  0  0  0  0  0  0  0  0  0  0
    2.5704    4.8332   12.9096 C   0  0  0  0  0  0  0  0  0  0  0  0
    2.8012    4.3951   13.8697 H   0  0  0  0  0  0  0  0  0  0  0  0
    1.5285    4.3282   12.1503 C   0  0  0  0  0  0  0  0  0  0  0  0
    0.9458    3.4968   12.5183 H   0  0  0  0  0  0  0  0  0  0  0  0
    1.2377    4.8840   10.9133 C   0  0  0  0  0  0  0  0  0  0  0  0
    0.4308    4.4847   10.3165 H   0  0  0  0  0  0  0  0  0  0  0  0
    1.9864    5.9435   10.4408 C   0  0  0  0  0  0  0  0  0  0  0  0
    1.7746    6.3828    9.4741 H   0  0  0  0  0  0  0  0  0  0  0  0
    5.0565    8.3678   11.8607 C   0  0  0  0  0  0  0  0  0  0  0  0
    6.3579    7.8703   11.8961 C   0  0  0  0  0  0  0  0  0  0  0  0
    6.6894    7.1880   11.1219 H   0  0  0  0  0  0  0  0  0  0  0  0
    7.2140    8.2404   12.9172 C   0  0  0  0  0  0  0  0  0  0  0  0
    8.2218    7.8530   12.9411 H   0  0  0  0  0  0  0  0  0  0  0  0
    6.7791    9.1129   13.9015 C   0  0  0  0  0  0  0  0  0  0  0  0
    7.4485    9.4073   14.6963 H   0  0  0  0  0  0  0  0  0  0  0  0
    5.4873    9.6132   13.8653 C   0  0  0  0  0  0  0  0  0  0  0  0
    5.1511   10.2962   14.6320 H   0  0  0  0  0  0  0  0  0  0  0  0
    4.6238    9.2451   12.8492 C   0  0  0  0  0  0  0  0  0  0  0  0
    3.6186    9.6414   12.8197 H   0  0  0  0  0  0  0  0  0  0  0  0
  1 10  1  0  0  0  0
  1  3  1  0  0  0  0
  2  1  1  0  0  0  0
  3 24  1  0  0  0  0
  3 35  1  0  0  0  0
  4  6  1  0  0  0  0
  4  7  1  0  0  0  0
  5  4  1  0  0  0  0
  7 17  1  0  0  0  0
  7  8  1  0  0  0  0
  9  7  1  0  0  0  0
 10 23  1  0  0  0  0
 11 13  1  0  0  0  0
 11 10  2  0  0  0  0
 12 11  1  0  0  0  0
 13 15  2  0  0  0  0
 14 13  1  0  0  0  0
 15  4  1  0  0  0  0
 15 16  1  0  0  0  0
 16 17  1  0  0  0  0
 17 18  2  0  0  0  0
 18 20  1  0  0  0  0
 18 19  1  0  0  0  0
 20 21  1  0  0  0  0
 22  3  1  0  0  0  0
 22 20  2  0  0  0  0
 23 16  2  0  0  0  0
 23 22  1  0  0  0  0
 24 25  1  0  0  0  0
 25 27  2  0  0  0  0
 25 26  1  0  0  0  0
 27 28  1  0  0  0  0
 29 30  1  0  0  0  0
 29 27  1  0  0  0  0
 31 29  2  0  0  0  0
 32 31  1  0  0  0  0
 33 31  1  0  0  0  0
 33 24  2  0  0  0  0
 34 33  1  0  0  0  0
 35 36  2  0  0  0  0
 35 44  1  0  0  0  0
 36 38  1  0  0  0  0
 37 36  1  0  0  0  0
 38 39  1  0  0  0  0
 38 40  2  0  0  0  0
 40 41  1  0  0  0  0
 42 40  1  0  0  0  0
 42 43  1  0  0  0  0
 44 42  2  0  0  0  0
 45 44  1  0  0  0  0
M  END
$$$$
