CSD_code = POZZOT | q = 0 | S = 0 | Stoichiometry = C23H22Cl3N2O2Re | MND = 6
 OpenBabel04212202083D

 53 56  0  0  0  0  0  0  0  0999 V2000
   -0.1021    0.5082    4.6978 Re  0  0  0  0  0  0  0  0  0  0  0  0
    1.5819   -0.5136    3.3793 Cl  0  0  0  0  0  0  0  0  0  0  0  0
    1.4763    1.2333    6.2166 Cl  0  0  0  0  0  0  0  0  0  0  0  0
   -1.8010    0.8700    6.2921 Cl  0  0  0  0  0  0  0  0  0  0  0  0
   -0.1803    1.9479    3.9036 O   0  0  0  0  0  1  0  0  0  0  0  0
    0.0872   -1.1925    5.7150 O   0  0  0  0  0  0  0  0  0  0  0  0
   -1.4347   -0.6341    3.5511 N   0  0  0  0  0  0  0  0  0  0  0  0
    1.6783   -1.8652    7.7675 N   0  0  0  0  0  4  0  0  0  0  0  0
   -0.1607   -2.4248    5.5232 C   0  0  0  0  0  0  0  0  0  0  0  0
   -1.0046   -2.8602    4.4536 C   0  0  0  0  0  0  0  0  0  0  0  0
   -1.2658   -4.2169    4.2989 C   0  0  0  0  0  0  0  0  0  0  0  0
   -0.7282   -5.1820    5.1494 C   0  0  0  0  0  0  0  0  0  0  0  0
    0.0923   -4.7714    6.1795 C   0  0  0  0  0  0  0  0  0  0  0  0
    0.4010   -3.4157    6.3964 C   0  0  0  0  0  0  0  0  0  0  0  0
   -1.0249   -6.6369    4.9476 C   0  0  0  0  0  0  0  0  0  0  0  0
   -1.5930   -1.9151    3.5486 C   0  0  0  0  0  3  0  0  0  0  0  0
   -2.0758    0.1030    2.5354 C   0  0  0  0  0  0  0  0  0  0  0  0
   -2.8155    1.2392    2.8602 C   0  0  0  0  0  0  0  0  0  0  0  0
   -3.4310    1.9625    1.8606 C   0  0  0  0  0  0  0  0  0  0  0  0
   -3.3153    1.5906    0.5234 C   0  0  0  0  0  0  0  0  0  0  0  0
   -2.5689    0.4622    0.2123 C   0  0  0  0  0  0  0  0  0  0  0  0
   -1.9598   -0.2842    1.2036 C   0  0  0  0  0  0  0  0  0  0  0  0
   -3.9714    2.4085   -0.5447 C   0  0  0  0  0  0  0  0  0  0  0  0
    1.2630   -3.0645    7.4570 C   0  0  0  0  0  0  0  0  0  0  0  0
    2.5137   -1.5175    8.8287 C   0  0  0  0  0  0  0  0  0  0  0  0
    2.9723   -0.1982    8.8797 C   0  0  0  0  0  0  0  0  0  0  0  0
    3.8029    0.2019    9.9044 C   0  0  0  0  0  0  0  0  0  0  0  0
    4.1971   -0.6849   10.9040 C   0  0  0  0  0  0  0  0  0  0  0  0
    3.7255   -1.9921   10.8494 C   0  0  0  0  0  0  0  0  0  0  0  0
    2.8938   -2.4121    9.8302 C   0  0  0  0  0  0  0  0  0  0  0  0
    5.0974   -0.2291   12.0065 C   0  0  0  0  0  0  0  0  0  0  0  0
   -1.9067   -4.5296    3.4862 H   0  0  0  0  0  0  0  0  0  0  0  0
    0.5206   -5.5093    6.8431 H   0  0  0  0  0  0  0  0  0  0  0  0
   -1.7477   -6.7797    4.1496 H   0  0  0  0  0  0  0  0  0  0  0  0
   -0.1142   -7.1752    4.6888 H   0  0  0  0  0  0  0  0  0  0  0  0
   -1.4228   -7.0751    5.8610 H   0  0  0  0  0  0  0  0  0  0  0  0
   -2.2549   -2.3437    2.7951 H   0  0  0  0  0  0  0  0  0  0  0  0
   -2.9096    1.5368    3.8939 H   0  0  0  0  0  0  0  0  0  0  0  0
   -4.0057    2.8392    2.1192 H   0  0  0  0  0  0  0  0  0  0  0  0
   -2.4516    0.1643   -0.8195 H   0  0  0  0  0  0  0  0  0  0  0  0
   -1.3494   -1.1375    0.9459 H   0  0  0  0  0  0  0  0  0  0  0  0
   -3.8410    1.9536   -1.5229 H   0  0  0  0  0  0  0  0  0  0  0  0
   -5.0366    2.5119   -0.3441 H   0  0  0  0  0  0  0  0  0  0  0  0
   -3.5406    3.4085   -0.5668 H   0  0  0  0  0  0  0  0  0  0  0  0
    1.6187   -3.8858    8.0697 H   0  0  0  0  0  0  0  0  0  0  0  0
    2.6682    0.4953    8.1083 H   0  0  0  0  0  0  0  0  0  0  0  0
    4.1526    1.2225    9.9325 H   0  0  0  0  0  0  0  0  0  0  0  0
    4.0098   -2.6939   11.6198 H   0  0  0  0  0  0  0  0  0  0  0  0
    2.5391   -3.4312    9.8383 H   0  0  0  0  0  0  0  0  0  0  0  0
    5.3223   -1.0404   12.6937 H   0  0  0  0  0  0  0  0  0  0  0  0
    6.0312    0.1522   11.5961 H   0  0  0  0  0  0  0  0  0  0  0  0
    4.6286    0.5812   12.5632 H   0  0  0  0  0  0  0  0  0  0  0  0
    1.3925   -1.0719    7.1703 H   0  0  0  0  0  0  0  0  0  0  0  0
  1  6  1  0  0  0  0
  1  3  1  0  0  0  0
  1  4  1  0  0  0  0
  2  1  1  0  0  0  0
  5  1  1  0  0  0  0
  7  1  1  0  0  0  0
  8 25  1  0  0  0  0
  9  6  1  0  0  0  0
  9 14  1  0  0  0  0
 10  9  2  0  0  0  0
 11 10  1  0  0  0  0
 11 12  2  0  0  0  0
 12 13  1  0  0  0  0
 13 14  2  0  0  0  0
 13 33  1  0  0  0  0
 14 24  1  0  0  0  0
 15 12  1  0  0  0  0
 15 36  1  0  0  0  0
 16  7  1  0  0  0  0
 16 10  1  0  0  0  0
 17 18  1  0  0  0  0
 17  7  1  0  0  0  0
 18 38  1  0  0  0  0
 19 39  1  0  0  0  0
 19 18  2  0  0  0  0
 20 19  1  0  0  0  0
 21 20  2  0  0  0  0
 21 22  1  0  0  0  0
 22 17  2  0  0  0  0
 23 43  1  0  0  0  0
 23 20  1  0  0  0  0
 24  8  2  0  0  0  0
 24 45  1  0  0  0  0
 25 26  2  0  0  0  0
 25 30  1  0  0  0  0
 26 27  1  0  0  0  0
 27 47  1  0  0  0  0
 27 28  2  0  0  0  0
 28 31  1  0  0  0  0
 29 28  1  0  0  0  0
 29 48  1  0  0  0  0
 30 49  1  0  0  0  0
 30 29  2  0  0  0  0
 31 52  1  0  0  0  0
 31 50  1  0  0  0  0
 32 11  1  0  0  0  0
 34 15  1  0  0  0  0
 35 15  1  0  0  0  0
 37 16  1  0  0  0  0
 40 21  1  0  0  0  0
 41 22  1  0  0  0  0
 42 23  1  0  0  0  0
 44 23  1  0  0  0  0
 46 26  1  0  0  0  0
 51 31  1  0  0  0  0
 53  8  1  0  0  0  0
M  END
$$$$
