CSD_code = POZZAF | q = 0 | S = 0 | Stoichiometry = C18H24BrN2O3Re | MND = 6
 OpenBabel04212202083D

 49 51  0  0  0  0  0  0  0  0999 V2000
    2.8172    2.6204    1.3309 Re  0  0  0  0  0  0  0  0  0  0  0  0
    4.2472    1.0131    2.6718 Br  0  0  0  0  0  0  0  0  0  0  0  0
    2.4257    1.3715    0.2799 O   0  0  0  0  0  1  0  0  0  0  0  0
    1.7492    2.7206    2.6224 O   0  0  0  0  0  1  0  0  0  0  0  0
    2.6916    4.0687    0.4648 O   0  0  0  0  0  1  0  0  0  0  0  0
    4.3774    4.1238    2.5060 N   0  0  0  0  0  0  0  0  0  0  0  0
    3.9482    4.8230    3.5428 C   0  0  0  0  0  3  0  0  0  0  0  0
    2.9598    4.5737    3.9043 H   0  0  0  0  0  0  0  0  0  0  0  0
    4.7091    5.8112    4.1360 C   0  0  0  0  0  0  0  0  0  0  0  0
    4.3032    6.3447    4.9794 H   0  0  0  0  0  0  0  0  0  0  0  0
    5.9758    6.1049    3.6316 C   0  0  0  0  0  0  0  0  0  0  0  0
    6.4039    5.3530    2.5436 C   0  0  0  0  0  0  0  0  0  0  0  0
    7.3646    5.5438    2.1001 H   0  0  0  0  0  0  0  0  0  0  0  0
    5.5899    4.3603    2.0030 C   0  0  0  0  0  0  0  0  0  0  0  0
    6.8135    7.1990    4.2637 C   0  0  0  0  0  0  0  0  0  0  0  0
    8.1827    7.3529    3.5971 C   0  0  0  0  0  0  0  0  0  0  0  0
    8.7635    6.4367    3.6781 H   0  0  0  0  0  0  0  0  0  0  0  0
    8.7377    8.1438    4.0962 H   0  0  0  0  0  0  0  0  0  0  0  0
    8.0830    7.6282    2.5495 H   0  0  0  0  0  0  0  0  0  0  0  0
    6.0558    8.5284    4.1363 C   0  0  0  0  0  0  0  0  0  0  0  0
    5.0973    8.4906    4.6458 H   0  0  0  0  0  0  0  0  0  0  0  0
    5.8774    8.7645    3.0895 H   0  0  0  0  0  0  0  0  0  0  0  0
    6.6432    9.3312    4.5752 H   0  0  0  0  0  0  0  0  0  0  0  0
    7.0299    6.8582    5.7452 C   0  0  0  0  0  0  0  0  0  0  0  0
    6.0903    6.8224    6.2884 H   0  0  0  0  0  0  0  0  0  0  0  0
    7.6602    7.6133    6.2085 H   0  0  0  0  0  0  0  0  0  0  0  0
    7.5198    5.8920    5.8445 H   0  0  0  0  0  0  0  0  0  0  0  0
    5.0522    2.7887    0.2809 N   0  0  0  0  0  0  0  0  0  0  0  0
    5.3484    2.0332   -0.7599 C   0  0  0  0  0  3  0  0  0  0  0  0
    4.5305    1.4601   -1.1753 H   0  0  0  0  0  0  0  0  0  0  0  0
    6.6246    1.9606   -1.2917 C   0  0  0  0  0  0  0  0  0  0  0  0
    6.7933    1.3258   -2.1438 H   0  0  0  0  0  0  0  0  0  0  0  0
    7.6530    2.6904   -0.7042 C   0  0  0  0  0  0  0  0  0  0  0  0
    7.3120    3.4849    0.3889 C   0  0  0  0  0  0  0  0  0  0  0  0
    8.0744    4.0554    0.8913 H   0  0  0  0  0  0  0  0  0  0  0  0
    6.0039    3.5296    0.8560 C   0  0  0  0  0  0  0  0  0  0  0  0
    9.0899    2.6446   -1.1858 C   0  0  0  0  0  0  0  0  0  0  0  0
    9.5382    4.0651   -1.5594 C   0  0  0  0  0  0  0  0  0  0  0  0
    8.8926    4.4749   -2.3332 H   0  0  0  0  0  0  0  0  0  0  0  0
   10.5566    4.0412   -1.9391 H   0  0  0  0  0  0  0  0  0  0  0  0
    9.5137    4.7333   -0.7030 H   0  0  0  0  0  0  0  0  0  0  0  0
    9.9664    2.0970   -0.0501 C   0  0  0  0  0  0  0  0  0  0  0  0
    9.6268    1.1070    0.2453 H   0  0  0  0  0  0  0  0  0  0  0  0
    9.9385    2.7409    0.8246 H   0  0  0  0  0  0  0  0  0  0  0  0
   10.9982    2.0225   -0.3846 H   0  0  0  0  0  0  0  0  0  0  0  0
    9.2628    1.7445   -2.4112 C   0  0  0  0  0  0  0  0  0  0  0  0
    8.6642    2.0994   -3.2469 H   0  0  0  0  0  0  0  0  0  0  0  0
    8.9903    0.7169   -2.1841 H   0  0  0  0  0  0  0  0  0  0  0  0
   10.3056    1.7525   -2.7199 H   0  0  0  0  0  0  0  0  0  0  0  0
  1  6  1  0  0  0  0
  1  4  1  0  0  0  0
  1  2  1  0  0  0  0
  3  1  1  0  0  0  0
  5  1  1  0  0  0  0
  6  7  1  0  0  0  0
  7  8  1  0  0  0  0
  7  9  1  0  0  0  0
  9 10  1  0  0  0  0
 11  9  2  0  0  0  0
 11 15  1  0  0  0  0
 12 11  1  0  0  0  0
 13 12  1  0  0  0  0
 14  6  1  0  0  0  0
 14 12  2  0  0  0  0
 15 24  1  0  0  0  0
 16 17  1  0  0  0  0
 16 18  1  0  0  0  0
 16 15  1  0  0  0  0
 19 16  1  0  0  0  0
 20 15  1  0  0  0  0
 20 23  1  0  0  0  0
 20 21  1  0  0  0  0
 22 20  1  0  0  0  0
 24 27  1  0  0  0  0
 24 26  1  0  0  0  0
 24 25  1  0  0  0  0
 28 36  1  0  0  0  0
 28  1  1  0  0  0  0
 29 28  1  0  0  0  0
 30 29  1  0  0  0  0
 31 29  1  0  0  0  0
 31 33  2  0  0  0  0
 32 31  1  0  0  0  0
 33 34  1  0  0  0  0
 34 36  2  0  0  0  0
 34 35  1  0  0  0  0
 36 14  1  0  0  0  0
 37 33  1  0  0  0  0
 37 42  1  0  0  0  0
 38 37  1  0  0  0  0
 38 41  1  0  0  0  0
 39 38  1  0  0  0  0
 40 38  1  0  0  0  0
 42 43  1  0  0  0  0
 42 44  1  0  0  0  0
 45 42  1  0  0  0  0
 46 48  1  0  0  0  0
 46 37  1  0  0  0  0
 47 46  1  0  0  0  0
 49 46  1  0  0  0  0
M  END
$$$$
