CSD_code = PUBKUT | q = 0 | S = 0 | Stoichiometry = C26H36Br4P2Pt | MND = 4
 OpenBabel04212202083D

 69 71  0  0  0  0  0  0  0  0999 V2000
    7.1175    9.8493    2.2521 Pt  0  0  0  0  0  0  0  0  0  0  0  0
    8.1476   10.4723    0.0787 Br  0  0  0  0  0  0  0  0  0  0  0  0
    3.0897    6.1434    1.3192 Br  0  0  0  0  0  0  0  0  0  0  0  0
    4.3372    8.1508    8.1991 Br  0  0  0  0  0  0  0  0  0  0  0  0
    9.6976   12.6744    6.2694 Br  0  0  0  0  0  0  0  0  0  0  0  0
    8.8464    8.3559    2.4955 P   0  0  0  0  0  4  0  0  0  0  0  0
    5.4906   11.4021    1.7827 P   0  0  0  0  0  4  0  0  0  0  0  0
    6.2815    9.3421    4.0321 C   0  0  0  0  0  0  0  0  0  0  0  0
    5.2369    8.4108    4.1014 C   0  0  0  0  0  0  0  0  0  0  0  0
    4.7434    7.8213    2.9133 C   0  0  0  0  0  0  0  0  0  0  0  0
    5.1977    8.1239    1.9775 H   0  0  0  0  0  0  0  0  0  0  0  0
    3.7321    6.9137    2.9480 C   0  0  0  0  0  0  0  0  0  0  0  0
    3.1440    6.5290    4.1673 C   0  0  0  0  0  0  0  0  0  0  0  0
    2.3450    5.8042    4.1709 H   0  0  0  0  0  0  0  0  0  0  0  0
    3.5910    7.0811    5.3289 C   0  0  0  0  0  0  0  0  0  0  0  0
    3.1347    6.7860    6.2614 H   0  0  0  0  0  0  0  0  0  0  0  0
    4.6393    8.0351    5.3495 C   0  0  0  0  0  0  0  0  0  0  0  0
    5.1223    8.6322    6.5163 C   0  0  0  0  0  0  0  0  0  0  0  0
    6.1587    9.5684    6.4969 C   0  0  0  0  0  0  0  0  0  0  0  0
    6.6756   10.1953    7.6585 C   0  0  0  0  0  0  0  0  0  0  0  0
    6.2487    9.9494    8.6188 H   0  0  0  0  0  0  0  0  0  0  0  0
    7.6946   11.0962    7.5962 C   0  0  0  0  0  0  0  0  0  0  0  0
    8.0755   11.5632    8.4910 H   0  0  0  0  0  0  0  0  0  0  0  0
    8.2577   11.4176    6.3471 C   0  0  0  0  0  0  0  0  0  0  0  0
    7.7955   10.8481    5.2028 C   0  0  0  0  0  0  0  0  0  0  0  0
    8.2270   11.0894    4.2386 H   0  0  0  0  0  0  0  0  0  0  0  0
    6.7349    9.9117    5.2295 C   0  0  0  0  0  0  0  0  0  0  0  0
    8.8248    7.3107    4.0216 C   0  0  0  0  0  0  0  0  0  0  0  0
    8.6955    7.9872    4.8713 H   0  0  0  0  0  0  0  0  0  0  0  0
    7.9117    6.7098    3.9575 H   0  0  0  0  0  0  0  0  0  0  0  0
   10.0317    6.4128    4.2565 C   0  0  0  0  0  0  0  0  0  0  0  0
   10.2184    5.7600    3.4068 H   0  0  0  0  0  0  0  0  0  0  0  0
    9.8519    5.7836    5.1264 H   0  0  0  0  0  0  0  0  0  0  0  0
   10.9270    6.9990    4.4478 H   0  0  0  0  0  0  0  0  0  0  0  0
    8.8730    7.1351    1.1171 C   0  0  0  0  0  0  0  0  0  0  0  0
    9.3245    7.6331    0.2547 H   0  0  0  0  0  0  0  0  0  0  0  0
    9.5064    6.2887    1.3947 H   0  0  0  0  0  0  0  0  0  0  0  0
    7.4671    6.6715    0.7586 C   0  0  0  0  0  0  0  0  0  0  0  0
    6.9739    6.2066    1.6111 H   0  0  0  0  0  0  0  0  0  0  0  0
    7.4947    5.9519   -0.0568 H   0  0  0  0  0  0  0  0  0  0  0  0
    6.8748    7.5266    0.4290 H   0  0  0  0  0  0  0  0  0  0  0  0
   10.5648    9.0075    2.3934 C   0  0  0  0  0  0  0  0  0  0  0  0
   11.2439    8.1506    2.4303 H   0  0  0  0  0  0  0  0  0  0  0  0
   10.6669    9.4758    1.4102 H   0  0  0  0  0  0  0  0  0  0  0  0
   10.9001   10.0195    3.4816 C   0  0  0  0  0  0  0  0  0  0  0  0
   10.3319   10.9357    3.3362 H   0  0  0  0  0  0  0  0  0  0  0  0
   11.9563   10.2778    3.4429 H   0  0  0  0  0  0  0  0  0  0  0  0
   10.6795    9.6279    4.4733 H   0  0  0  0  0  0  0  0  0  0  0  0
    4.1795   11.6347    3.0665 C   0  0  0  0  0  0  0  0  0  0  0  0
    3.7917   10.6416    3.3107 H   0  0  0  0  0  0  0  0  0  0  0  0
    4.6990   11.9967    3.9599 H   0  0  0  0  0  0  0  0  0  0  0  0
    3.0275   12.5653    2.7134 C   0  0  0  0  0  0  0  0  0  0  0  0
    3.3821   13.5530    2.4274 H   0  0  0  0  0  0  0  0  0  0  0  0
    2.3776   12.6826    3.5787 H   0  0  0  0  0  0  0  0  0  0  0  0
    2.4305   12.1613    1.8997 H   0  0  0  0  0  0  0  0  0  0  0  0
    4.5741   11.2285    0.1959 C   0  0  0  0  0  0  0  0  0  0  0  0
    3.9214   12.1009    0.0958 H   0  0  0  0  0  0  0  0  0  0  0  0
    5.3188   11.2719   -0.6041 H   0  0  0  0  0  0  0  0  0  0  0  0
    3.7786    9.9340    0.0866 C   0  0  0  0  0  0  0  0  0  0  0  0
    4.4494    9.0794    0.0297 H   0  0  0  0  0  0  0  0  0  0  0  0
    3.1748    9.9388   -0.8185 H   0  0  0  0  0  0  0  0  0  0  0  0
    3.1158    9.7988    0.9397 H   0  0  0  0  0  0  0  0  0  0  0  0
    6.2094   13.0835    1.5657 C   0  0  0  0  0  0  0  0  0  0  0  0
    6.6427   13.1213    0.5625 H   0  0  0  0  0  0  0  0  0  0  0  0
    5.4116   13.8283    1.6228 H   0  0  0  0  0  0  0  0  0  0  0  0
    7.2931   13.3620    2.5991 C   0  0  0  0  0  0  0  0  0  0  0  0
    6.9024   13.2856    3.6129 H   0  0  0  0  0  0  0  0  0  0  0  0
    7.7070   14.3590    2.4646 H   0  0  0  0  0  0  0  0  0  0  0  0
    8.1057   12.6442    2.4769 H   0  0  0  0  0  0  0  0  0  0  0  0
  1  6  1  0  0  0  0
  1  8  1  0  0  0  0
  2  1  1  0  0  0  0
  3 12  1  0  0  0  0
  5 24  1  0  0  0  0
  6 28  1  0  0  0  0
  7  1  1  0  0  0  0
  7 49  1  0  0  0  0
  8  9  2  0  0  0  0
  8 27  1  0  0  0  0
  9 17  1  0  0  0  0
 10 12  2  0  0  0  0
 10  9  1  0  0  0  0
 11 10  1  0  0  0  0
 12 13  1  0  0  0  0
 13 14  1  0  0  0  0
 13 15  2  0  0  0  0
 15 17  1  0  0  0  0
 15 16  1  0  0  0  0
 17 18  2  0  0  0  0
 18  4  1  0  0  0  0
 19 18  1  0  0  0  0
 19 20  1  0  0  0  0
 20 21  1  0  0  0  0
 22 20  2  0  0  0  0
 22 23  1  0  0  0  0
 24 22  1  0  0  0  0
 25 27  1  0  0  0  0
 25 24  2  0  0  0  0
 26 25  1  0  0  0  0
 27 19  2  0  0  0  0
 28 31  1  0  0  0  0
 28 29  1  0  0  0  0
 30 28  1  0  0  0  0
 31 34  1  0  0  0  0
 31 33  1  0  0  0  0
 32 31  1  0  0  0  0
 35 37  1  0  0  0  0
 35  6  1  0  0  0  0
 36 35  1  0  0  0  0
 38 35  1  0  0  0  0
 38 39  1  0  0  0  0
 40 38  1  0  0  0  0
 41 38  1  0  0  0  0
 42 43  1  0  0  0  0
 42  6  1  0  0  0  0
 42 45  1  0  0  0  0
 44 42  1  0  0  0  0
 45 48  1  0  0  0  0
 46 45  1  0  0  0  0
 47 45  1  0  0  0  0
 49 50  1  0  0  0  0
 49 51  1  0  0  0  0
 52 49  1  0  0  0  0
 52 54  1  0  0  0  0
 53 52  1  0  0  0  0
 55 52  1  0  0  0  0
 56  7  1  0  0  0  0
 57 56  1  0  0  0  0
 58 56  1  0  0  0  0
 59 56  1  0  0  0  0
 59 62  1  0  0  0  0
 60 59  1  0  0  0  0
 61 59  1  0  0  0  0
 63 65  1  0  0  0  0
 63  7  1  0  0  0  0
 63 66  1  0  0  0  0
 64 63  1  0  0  0  0
 66 67  1  0  0  0  0
 68 66  1  0  0  0  0
 69 66  1  0  0  0  0
M  END
$$$$
