CSD_code = PUBVIS | q = 0 | S = 0 | Stoichiometry = C12H20Cl2N4O2RuS2 | MND = 6
 OpenBabel04212202083D

 43 44  0  0  0  0  0  0  0  0999 V2000
    5.7914    2.1131    2.5329 Ru  0  0  0  0  0  0  0  0  0  0  0  0
    4.7448    0.1245    1.8383 Cl  0  0  0  0  0  0  0  0  0  0  0  0
    6.8380    3.9737    3.5229 Cl  0  0  0  0  0  0  0  0  0  0  0  0
    4.5000    1.9121    4.4094 S   0  0  0  0  0  0  0  0  0  0  0  0
    7.4468    0.8487    3.5705 S   0  0  0  0  0  0  0  0  0  0  0  0
    5.0499    0.8932    5.2924 O   0  0  0  0  0  1  0  0  0  0  0  0
    8.6212    0.8368    2.7026 O   0  0  0  0  0  1  0  0  0  0  0  0
    6.9648    2.2232    0.9120 N   0  0  0  0  0  0  0  0  0  0  0  0
    4.4405    3.2173    1.5927 N   0  0  0  0  0  0  0  0  0  0  0  0
    8.8093    2.3456   -1.1642 N   0  0  0  0  0  0  0  0  0  0  0  0
    2.5281    4.7568    0.2629 N   0  0  0  0  0  0  0  0  0  0  0  0
    4.1921    3.3541    5.4844 C   0  0  0  0  0  0  0  0  0  0  0  0
    3.9316    2.9696    6.4637 H   0  0  0  0  0  0  0  0  0  0  0  0
    3.3918    3.9554    5.0707 H   0  0  0  0  0  0  0  0  0  0  0  0
    5.1137    3.9273    5.5330 H   0  0  0  0  0  0  0  0  0  0  0  0
    2.7578    1.4621    4.1247 C   0  0  0  0  0  0  0  0  0  0  0  0
    2.7553    0.5348    3.5594 H   0  0  0  0  0  0  0  0  0  0  0  0
    2.2873    2.2525    3.5488 H   0  0  0  0  0  0  0  0  0  0  0  0
    2.2735    1.3235    5.0842 H   0  0  0  0  0  0  0  0  0  0  0  0
    8.0505    1.3624    5.2047 C   0  0  0  0  0  0  0  0  0  0  0  0
    8.9214    0.7596    5.4337 H   0  0  0  0  0  0  0  0  0  0  0  0
    7.2518    1.2152    5.9211 H   0  0  0  0  0  0  0  0  0  0  0  0
    8.3254    2.4105    5.1385 H   0  0  0  0  0  0  0  0  0  0  0  0
    7.1055   -0.8910    3.9635 C   0  0  0  0  0  0  0  0  0  0  0  0
    6.7301   -1.3676    3.0636 H   0  0  0  0  0  0  0  0  0  0  0  0
    6.3528   -0.9127    4.7417 H   0  0  0  0  0  0  0  0  0  0  0  0
    8.0359   -1.3491    4.2773 H   0  0  0  0  0  0  0  0  0  0  0  0
    7.4256    1.1178    0.3238 C   0  0  0  0  0  3  0  0  0  0  0  0
    7.0378    0.1684    0.6669 H   0  0  0  0  0  0  0  0  0  0  0  0
    8.3453    1.1934   -0.7126 C   0  0  0  0  0  0  0  0  0  0  0  0
    8.7223    0.2992   -1.1870 H   0  0  0  0  0  0  0  0  0  0  0  0
    8.3404    3.4383   -0.5851 C   0  0  0  0  0  0  0  0  0  0  0  0
    8.7177    4.3819   -0.9522 H   0  0  0  0  0  0  0  0  0  0  0  0
    7.4158    3.3920    0.4470 C   0  0  0  0  0  0  0  0  0  0  0  0
    7.0591    4.2955    0.9271 H   0  0  0  0  0  0  0  0  0  0  0  0
    3.9364    2.8467    0.4050 C   0  0  0  0  0  3  0  0  0  0  0  0
    4.2738    1.9032   -0.0057 H   0  0  0  0  0  0  0  0  0  0  0  0
    2.9826    3.6185   -0.2384 C   0  0  0  0  0  0  0  0  0  0  0  0
    2.5687    3.3102   -1.1875 H   0  0  0  0  0  0  0  0  0  0  0  0
    3.0472    5.1329    1.4228 C   0  0  0  0  0  0  0  0  0  0  0  0
    2.6915    6.0690    1.8290 H   0  0  0  0  0  0  0  0  0  0  0  0
    3.9933    4.3788    2.0951 C   0  0  0  0  0  0  0  0  0  0  0  0
    4.4436    4.7186    3.0189 H   0  0  0  0  0  0  0  0  0  0  0  0
  1  3  1  0  0  0  0
  1  5  1  0  0  0  0
  1  4  1  0  0  0  0
  2  1  1  0  0  0  0
  4  6  1  0  0  0  0
  4 12  1  0  0  0  0
  5 24  1  0  0  0  0
  5 20  1  0  0  0  0
  7  5  1  0  0  0  0
  8  1  1  0  0  0  0
  9 42  1  0  0  0  0
  9  1  1  0  0  0  0
 10 30  2  0  0  0  0
 10 32  1  0  0  0  0
 11 40  1  0  0  0  0
 12 15  1  0  0  0  0
 12 13  1  0  0  0  0
 14 12  1  0  0  0  0
 16  4  1  0  0  0  0
 16 19  1  0  0  0  0
 17 16  1  0  0  0  0
 18 16  1  0  0  0  0
 20 21  1  0  0  0  0
 20 22  1  0  0  0  0
 23 20  1  0  0  0  0
 24 27  1  0  0  0  0
 24 26  1  0  0  0  0
 25 24  1  0  0  0  0
 28 29  1  0  0  0  0
 28  8  1  0  0  0  0
 30 28  1  0  0  0  0
 31 30  1  0  0  0  0
 32 34  2  0  0  0  0
 33 32  1  0  0  0  0
 34  8  1  0  0  0  0
 34 35  1  0  0  0  0
 36  9  1  0  0  0  0
 37 36  1  0  0  0  0
 38 11  2  0  0  0  0
 38 36  1  0  0  0  0
 39 38  1  0  0  0  0
 40 41  1  0  0  0  0
 40 42  2  0  0  0  0
 42 43  1  0  0  0  0
M  END
$$$$
