CSD_code = PUCMOP | q = 0 | S = 0 | Stoichiometry = C15H22BClZr | MND = 13
 OpenBabel04212202083D

 40 39  0  0  0  0  0  0  0  0999 V2000
    3.3969    0.5150    2.6664 Zr  0  0  0  0  0  0  0  0  0  0  0  0
    5.5213    1.3180    1.9655 Cl  0  0  0  0  0  0  0  0  0  0  0  0
    2.0638    2.2909    1.6969 B   0  0  0  0  0  0  0  0  0  0  0  0
    2.4935    3.6652    2.4620 C   0  0  0  0  0  0  0  0  0  0  0  0
    1.2919    4.2943    3.1769 C   0  0  0  0  0  0  0  0  0  0  0  0
    0.1424    4.5305    2.1982 C   0  0  0  0  0  0  0  0  0  0  0  0
   -0.3553    3.2253    1.5796 C   0  0  0  0  0  0  0  0  0  0  0  0
    0.7507    2.5390    0.7713 C   0  0  0  0  0  0  0  0  0  0  0  0
    2.5270    0.0374    5.0573 C   0  0  0  0  0  0  0  0  0  0  0  0
    3.6888   -0.7471    4.9006 C   0  0  0  0  0  0  0  0  0  0  0  0
    4.7857    0.1215    4.7277 C   0  0  0  0  0  0  0  0  0  0  0  0
    4.3056    1.4500    4.8126 C   0  0  0  0  0  0  0  0  0  0  0  0
    2.9131    1.3959    5.0231 C   0  0  0  0  0  3  0  0  0  0  0  0
    2.5326   -1.8161    2.3864 C   0  0  0  0  0  0  0  0  0  0  0  0
    1.8353   -1.1257    1.3758 C   0  0  0  0  0  0  0  0  0  0  0  0
    2.7696   -0.7050    0.4071 C   0  0  0  0  0  0  0  0  0  0  0  0
    4.0464   -1.1212    0.8180 C   0  0  0  0  0  0  0  0  0  0  0  0
    3.9139   -1.7999    2.0530 C   0  0  0  0  0  3  0  0  0  0  0  0
    1.7068    1.3713    2.6149 H   0  0  0  0  0  0  0  0  0  0  0  0
    3.0193    1.8390    1.0429 H   0  0  0  0  0  0  0  0  0  0  0  0
    1.5404   -0.3311    5.3115 H   0  0  0  0  0  0  0  0  0  0  0  0
    3.7523   -1.8196    5.0367 H   0  0  0  0  0  0  0  0  0  0  0  0
    5.8289   -0.1690    4.6728 H   0  0  0  0  0  0  0  0  0  0  0  0
    4.9248    2.3391    4.8364 H   0  0  0  0  0  0  0  0  0  0  0  0
    2.2742    2.2383    5.2544 H   0  0  0  0  0  0  0  0  0  0  0  0
    2.0726   -2.3966    3.1774 H   0  0  0  0  0  0  0  0  0  0  0  0
    0.7590   -1.0443    1.2937 H   0  0  0  0  0  0  0  0  0  0  0  0
    2.5320   -0.2248   -0.5328 H   0  0  0  0  0  0  0  0  0  0  0  0
    4.9603   -1.0275    0.2449 H   0  0  0  0  0  0  0  0  0  0  0  0
    4.7013   -2.3643    2.5442 H   0  0  0  0  0  0  0  0  0  0  0  0
    2.8587    4.3941    1.7315 H   0  0  0  0  0  0  0  0  0  0  0  0
    3.3182    3.5153    3.1795 H   0  0  0  0  0  0  0  0  0  0  0  0
    1.5709    5.2444    3.6424 H   0  0  0  0  0  0  0  0  0  0  0  0
    0.9409    3.6261    3.9704 H   0  0  0  0  0  0  0  0  0  0  0  0
    0.4819    5.1962    1.4017 H   0  0  0  0  0  0  0  0  0  0  0  0
   -0.6826    5.0254    2.7177 H   0  0  0  0  0  0  0  0  0  0  0  0
   -1.2195    3.4359    0.9430 H   0  0  0  0  0  0  0  0  0  0  0  0
   -0.6883    2.5556    2.3787 H   0  0  0  0  0  0  0  0  0  0  0  0
    0.3551    1.6084    0.3496 H   0  0  0  0  0  0  0  0  0  0  0  0
    0.9948    3.1829   -0.0779 H   0  0  0  0  0  0  0  0  0  0  0  0
  2  1  1  0  0  0  0
  3  4  1  0  0  0  0
  3 19  1  0  0  0  0
  4  5  1  0  0  0  0
  4 32  1  0  0  0  0
  5 33  1  0  0  0  0
  5 34  1  0  0  0  0
  6 36  1  0  0  0  0
  6  5  1  0  0  0  0
  7  6  1  0  0  0  0
  7 38  1  0  0  0  0
  8  7  1  0  0  0  0
  8  3  1  0  0  0  0
  9 21  1  0  0  0  0
 10 22  1  0  0  0  0
 10  9  2  0  0  0  0
 11 12  2  0  0  0  0
 11 10  1  0  0  0  0
 12 24  1  0  0  0  0
 12 13  1  0  0  0  0
 13  9  1  0  0  0  0
 13 25  1  0  0  0  0
 14 26  1  0  0  0  0
 15 14  2  0  0  0  0
 16 17  2  0  0  0  0
 16 15  1  0  0  0  0
 17 18  1  0  0  0  0
 18 14  1  0  0  0  0
 18 30  1  0  0  0  0
 20  3  1  0  0  0  0
 23 11  1  0  0  0  0
 27 15  1  0  0  0  0
 28 16  1  0  0  0  0
 29 17  1  0  0  0  0
 31  4  1  0  0  0  0
 35  6  1  0  0  0  0
 37  7  1  0  0  0  0
 39  8  1  0  0  0  0
 40  8  1  0  0  0  0
M  END
$$$$
