CSD_code = PUCZAQ | q = 0 | S = 0 | Stoichiometry = C19H34ClN2OPRu | MND = 6
 OpenBabel04212202083D

 59 61  0  0  1  0  0  0  0  0999 V2000
    8.6213    3.1298    5.1037 Ru  0  0  0  0  0  0  0  0  0  0  0  0
    8.1218    3.5308    3.7199 H   0  0  0  0  0  0  0  0  0  0  0  0
    9.2011    2.0938    7.2182 Cl  0  0  0  0  0  0  0  0  0  0  0  0
    8.1620    5.1890    6.0093 P   0  0  0  0  0  4  0  0  0  0  0  0
    6.7792    2.7183    5.7533 N   0  0  0  0  0  0  0  0  0  0  0  0
    8.4398    1.0165    4.5655 N   0  0  0  0  0  4  0  0  0  0  0  0
    8.6291    0.6785    5.5225 H   0  0  0  0  0  0  0  0  0  0  0  0
   11.4134    3.7849    4.2395 O   0  0  0  0  0  1  0  0  0  0  0  0
    6.9096    4.6161    7.2496 C   0  0  0  0  0  0  0  0  0  0  0  0
    7.5052    4.2490    8.0950 H   0  0  0  0  0  0  0  0  0  0  0  0
    6.2382    5.4007    7.6064 H   0  0  0  0  0  0  0  0  0  0  0  0
    6.1640    3.4417    6.6983 C   0  0  2  0  0  3  0  0  0  0  0  0
    4.9182    3.0763    7.1886 C   0  0  0  0  0  0  0  0  0  0  0  0
    4.4427    3.6827    7.9444 H   0  0  0  0  0  0  0  0  0  0  0  0
    4.3049    1.9275    6.7156 C   0  0  0  0  0  0  0  0  0  0  0  0
    3.3374    1.6266    7.0858 H   0  0  0  0  0  0  0  0  0  0  0  0
    4.9742    1.1599    5.7753 C   0  0  0  0  0  0  0  0  0  0  0  0
    4.5484    0.2424    5.3998 H   0  0  0  0  0  0  0  0  0  0  0  0
    6.2093    1.5885    5.3190 C   0  0  0  0  0  0  0  0  0  0  0  0
    7.0125    0.8245    4.3024 C   0  0  0  0  0  0  0  0  0  0  0  0
    6.7369   -0.2419    4.3236 H   0  0  0  0  0  0  0  0  0  0  0  0
    6.7877    1.2216    3.3030 H   0  0  0  0  0  0  0  0  0  0  0  0
    9.3901    6.1524    7.0852 C   0  0  0  0  0  0  0  0  0  0  0  0
   10.3177    5.1082    7.7082 C   0  0  0  0  0  0  0  0  0  0  0  0
   10.8182    4.5294    6.9323 H   0  0  0  0  0  0  0  0  0  0  0  0
    9.7781    4.4151    8.3497 H   0  0  0  0  0  0  0  0  0  0  0  0
   11.0783    5.6010    8.3131 H   0  0  0  0  0  0  0  0  0  0  0  0
   10.2374    7.0378    6.1706 C   0  0  0  0  0  0  0  0  0  0  0  0
   11.1319    7.3651    6.6993 H   0  0  0  0  0  0  0  0  0  0  0  0
    9.6973    7.9252    5.8510 H   0  0  0  0  0  0  0  0  0  0  0  0
   10.5485    6.4705    5.2925 H   0  0  0  0  0  0  0  0  0  0  0  0
    8.7613    6.9708    8.2130 C   0  0  0  0  0  0  0  0  0  0  0  0
    8.2477    6.3307    8.9264 H   0  0  0  0  0  0  0  0  0  0  0  0
    8.0648    7.7184    7.8505 H   0  0  0  0  0  0  0  0  0  0  0  0
    9.5564    7.4887    8.7491 H   0  0  0  0  0  0  0  0  0  0  0  0
    7.1545    6.3994    4.9395 C   0  0  0  0  0  0  0  0  0  0  0  0
    5.9055    5.6372    4.4865 C   0  0  0  0  0  0  0  0  0  0  0  0
    5.2204    5.4532    5.3122 H   0  0  0  0  0  0  0  0  0  0  0  0
    6.1894    4.6869    4.0359 H   0  0  0  0  0  0  0  0  0  0  0  0
    5.3734    6.2203    3.7357 H   0  0  0  0  0  0  0  0  0  0  0  0
    7.9872    6.7284    3.6990 C   0  0  0  0  0  0  0  0  0  0  0  0
    7.3521    7.1596    2.9266 H   0  0  0  0  0  0  0  0  0  0  0  0
    8.4383    5.8151    3.3097 H   0  0  0  0  0  0  0  0  0  0  0  0
    8.7770    7.4394    3.9183 H   0  0  0  0  0  0  0  0  0  0  0  0
    6.7058    7.6844    5.6312 C   0  0  0  0  0  0  0  0  0  0  0  0
    7.5437    8.3383    5.8538 H   0  0  0  0  0  0  0  0  0  0  0  0
    6.1588    7.4777    6.5491 H   0  0  0  0  0  0  0  0  0  0  0  0
    6.0364    8.2267    4.9632 H   0  0  0  0  0  0  0  0  0  0  0  0
    9.3049    0.2423    3.6648 C   0  0  0  0  0  0  0  0  0  0  0  0
    8.8717   -0.7664    3.5407 H   0  0  0  0  0  0  0  0  0  0  0  0
    9.4073    0.9094    2.2969 C   0  0  0  0  0  0  0  0  0  0  0  0
    8.4500    0.9123    1.7819 H   0  0  0  0  0  0  0  0  0  0  0  0
   10.1251    0.3785    1.6777 H   0  0  0  0  0  0  0  0  0  0  0  0
    9.7372    1.9402    2.4228 H   0  0  0  0  0  0  0  0  0  0  0  0
   10.6811    0.1060    4.3074 C   0  0  0  0  0  0  0  0  0  0  0  0
   11.1000    1.0939    4.4938 H   0  0  0  0  0  0  0  0  0  0  0  0
   11.3551   -0.4409    3.6536 H   0  0  0  0  0  0  0  0  0  0  0  0
   10.6160   -0.4221    5.2571 H   0  0  0  0  0  0  0  0  0  0  0  0
   10.3436    3.4942    4.5662 C   0  0  0  0  0  2  0  0  0  0  0  0
  1  5  1  0  0  0  0
  1  4  1  0  0  0  0
  1  3  1  0  0  0  0
  2  1  1  0  0  0  0
  4 23  1  0  0  0  0
  4  9  1  0  0  0  0
  5 12  1  0  0  0  0
  6  1  1  0  0  0  0
  6  7  1  0  0  0  0
  8 59  1  0  0  0  0
  9 11  1  0  0  0  0
  9 10  1  0  0  0  0
 12 13  1  1  0  0  0
 12  9  1  0  0  0  0
 13 14  1  0  0  0  0
 15 16  1  0  0  0  0
 15 13  2  0  0  0  0
 17 15  1  0  0  0  0
 18 17  1  0  0  0  0
 19  5  1  0  0  0  0
 19 17  2  0  0  0  0
 20 21  1  0  0  0  0
 20  6  1  0  0  0  0
 20 19  1  0  0  0  0
 22 20  1  0  0  0  0
 23 24  1  0  0  0  0
 23 32  1  0  0  0  0
 24 27  1  0  0  0  0
 24 26  1  0  0  0  0
 25 24  1  0  0  0  0
 28 29  1  0  0  0  0
 28 23  1  0  0  0  0
 30 28  1  0  0  0  0
 31 28  1  0  0  0  0
 32 35  1  0  0  0  0
 32 33  1  0  0  0  0
 34 32  1  0  0  0  0
 36 45  1  0  0  0  0
 36  4  1  0  0  0  0
 37 36  1  0  0  0  0
 37 38  1  0  0  0  0
 39 37  1  0  0  0  0
 40 37  1  0  0  0  0
 41 44  1  0  0  0  0
 41 36  1  0  0  0  0
 42 41  1  0  0  0  0
 43 41  1  0  0  0  0
 45 46  1  0  0  0  0
 45 47  1  0  0  0  0
 48 45  1  0  0  0  0
 49 55  1  0  0  0  0
 49  6  1  0  0  0  0
 50 49  1  0  0  0  0
 51 54  1  0  0  0  0
 51 49  1  0  0  0  0
 52 51  1  0  0  0  0
 53 51  1  0  0  0  0
 55 56  1  0  0  0  0
 55 58  1  0  0  0  0
 57 55  1  0  0  0  0
 59  1  1  0  0  0  0
M  END
$$$$
