CSD_code = PUFQEO | q = 0 | S = 0 | Stoichiometry = C29H34Cl2N2RuS | MND = 5
 OpenBabel04212202083D

 69 73  0  0  0  0  0  0  0  0999 V2000
   13.6503    8.9010    5.5389 C   0  0  0  0  0  3  0  0  0  0  0  0
   15.5883   10.1245    5.9454 C   0  0  0  0  0  0  0  0  0  0  0  0
   16.1307   10.6564    5.1580 H   0  0  0  0  0  0  0  0  0  0  0  0
   16.3025    9.8631    6.7319 H   0  0  0  0  0  0  0  0  0  0  0  0
   14.3871   10.9132    6.4750 C   0  0  0  0  0  0  0  0  0  0  0  0
   14.4361   11.0855    7.5550 H   0  0  0  0  0  0  0  0  0  0  0  0
   14.2619   11.8797    5.9771 H   0  0  0  0  0  0  0  0  0  0  0  0
   15.7887    7.9248    4.8023 C   0  0  0  0  0  0  0  0  0  0  0  0
   16.3196    6.9072    5.5951 C   0  0  0  0  0  0  0  0  0  0  0  0
   17.1563    5.9759    4.9981 C   0  0  0  0  0  0  0  0  0  0  0  0
   17.5727    5.1806    5.5997 H   0  0  0  0  0  0  0  0  0  0  0  0
   17.4558    6.0356    3.6442 C   0  0  0  0  0  0  0  0  0  0  0  0
   16.8824    7.0381    2.8734 C   0  0  0  0  0  0  0  0  0  0  0  0
   17.0853    7.0723    1.8127 H   0  0  0  0  0  0  0  0  0  0  0  0
   16.0421    7.9894    3.4316 C   0  0  0  0  0  0  0  0  0  0  0  0
   15.9290    6.7949    7.0358 C   0  0  0  0  0  0  0  0  0  0  0  0
   16.2899    7.6450    7.6134 H   0  0  0  0  0  0  0  0  0  0  0  0
   16.3339    5.8869    7.4733 H   0  0  0  0  0  0  0  0  0  0  0  0
   14.8409    6.7674    7.1159 H   0  0  0  0  0  0  0  0  0  0  0  0
   18.3823    5.0357    3.0213 C   0  0  0  0  0  0  0  0  0  0  0  0
   18.0869    4.8194    1.9972 H   0  0  0  0  0  0  0  0  0  0  0  0
   18.3949    4.1093    3.5903 H   0  0  0  0  0  0  0  0  0  0  0  0
   19.3974    5.4336    3.0005 H   0  0  0  0  0  0  0  0  0  0  0  0
   15.3646    9.0231    2.5886 C   0  0  0  0  0  0  0  0  0  0  0  0
   15.6076    8.8824    1.5395 H   0  0  0  0  0  0  0  0  0  0  0  0
   15.6615   10.0301    2.8790 H   0  0  0  0  0  0  0  0  0  0  0  0
   14.2827    8.9405    2.7116 H   0  0  0  0  0  0  0  0  0  0  0  0
   11.9167   10.3462    6.4278 C   0  0  0  0  0  0  0  0  0  0  0  0
   11.3579    9.9914    7.6623 C   0  0  0  0  0  0  0  0  0  0  0  0
   10.0051   10.2296    7.8676 C   0  0  0  0  0  0  0  0  0  0  0  0
    9.5622    9.9316    8.8075 H   0  0  0  0  0  0  0  0  0  0  0  0
    9.2199   10.8415    6.9021 C   0  0  0  0  0  0  0  0  0  0  0  0
    9.8273   11.2926    5.7379 C   0  0  0  0  0  0  0  0  0  0  0  0
    9.2413   11.8296    5.0058 H   0  0  0  0  0  0  0  0  0  0  0  0
   11.1743   11.0754    5.4877 C   0  0  0  0  0  0  0  0  0  0  0  0
   12.1983    9.4687    8.7889 C   0  0  0  0  0  0  0  0  0  0  0  0
   13.1142    9.0057    8.4327 H   0  0  0  0  0  0  0  0  0  0  0  0
   11.6485    8.7286    9.3642 H   0  0  0  0  0  0  0  0  0  0  0  0
   12.4544   10.2972    9.4532 H   0  0  0  0  0  0  0  0  0  0  0  0
    7.7502   11.0394    7.1138 C   0  0  0  0  0  0  0  0  0  0  0  0
    7.4901   10.9457    8.1651 H   0  0  0  0  0  0  0  0  0  0  0  0
    7.1927   10.2872    6.5556 H   0  0  0  0  0  0  0  0  0  0  0  0
    7.4370   12.0179    6.7564 H   0  0  0  0  0  0  0  0  0  0  0  0
   11.8205   11.7081    4.2921 C   0  0  0  0  0  0  0  0  0  0  0  0
   11.1346   11.7167    3.4498 H   0  0  0  0  0  0  0  0  0  0  0  0
   12.7181   11.1780    3.9869 H   0  0  0  0  0  0  0  0  0  0  0  0
   12.0795   12.7415    4.5340 H   0  0  0  0  0  0  0  0  0  0  0  0
   13.0889    6.2519    4.2575 C   0  0  0  0  0  3  0  0  0  0  0  0
   14.1771    6.1676    4.2193 H   0  0  0  0  0  0  0  0  0  0  0  0
   12.4014    5.2011    3.5955 C   0  0  0  0  0  0  0  0  0  0  0  0
   10.9934    5.1332    3.5928 C   0  0  0  0  0  0  0  0  0  0  0  0
   10.3127    4.1327    2.9307 C   0  0  0  0  0  0  0  0  0  0  0  0
    9.2325    4.1251    2.9320 H   0  0  0  0  0  0  0  0  0  0  0  0
   11.0212    3.1452    2.2644 C   0  0  0  0  0  0  0  0  0  0  0  0
   10.4920    2.3590    1.7480 H   0  0  0  0  0  0  0  0  0  0  0  0
   12.4106    3.1768    2.2584 C   0  0  0  0  0  0  0  0  0  0  0  0
   12.9598    2.4068    1.7365 H   0  0  0  0  0  0  0  0  0  0  0  0
   13.0911    4.1832    2.9068 C   0  0  0  0  0  0  0  0  0  0  0  0
   14.1713    4.2119    2.8953 H   0  0  0  0  0  0  0  0  0  0  0  0
    9.4408    5.3872    5.8329 C   0  0  0  0  0  0  0  0  0  0  0  0
   10.2669    4.9631    6.3964 H   0  0  0  0  0  0  0  0  0  0  0  0
    8.8044    4.6103    5.4197 H   0  0  0  0  0  0  0  0  0  0  0  0
    8.8634    6.0538    6.4666 H   0  0  0  0  0  0  0  0  0  0  0  0
   11.6151    8.8245    3.1576 Cl  0  0  0  0  0  0  0  0  0  0  0  0
   12.0044    6.8214    7.1913 Cl  0  0  0  0  0  0  0  0  0  0  0  0
   13.2776   10.0274    6.1529 N   0  0  0  0  0  0  0  0  0  0  0  0
   14.9702    8.9150    5.4032 N   0  0  0  0  0  0  0  0  0  0  0  0
   12.1320    7.6765    5.0663 Ru  0  0  0  0  0  0  0  0  0  0  0  0
   10.0890    6.3993    4.4632 S   0  0  1  0  0  3  0  0  0  0  0  0
  1 66  1  0  0  0  0
  2  5  1  0  0  0  0
  2  4  1  0  0  0  0
  3  2  1  0  0  0  0
  5  6  1  0  0  0  0
  7  5  1  0  0  0  0
  8 67  1  0  0  0  0
  8  9  1  0  0  0  0
  9 16  1  0  0  0  0
 10  9  2  0  0  0  0
 10 11  1  0  0  0  0
 12 10  1  0  0  0  0
 13 15  1  0  0  0  0
 13 12  2  0  0  0  0
 14 13  1  0  0  0  0
 15  8  2  0  0  0  0
 16 19  1  0  0  0  0
 16 18  1  0  0  0  0
 16 17  1  0  0  0  0
 20 22  1  0  0  0  0
 20 12  1  0  0  0  0
 21 20  1  0  0  0  0
 23 20  1  0  0  0  0
 24 27  1  0  0  0  0
 24 26  1  0  0  0  0
 24 15  1  0  0  0  0
 25 24  1  0  0  0  0
 28 29  1  0  0  0  0
 29 30  2  0  0  0  0
 29 36  1  0  0  0  0
 30 31  1  0  0  0  0
 32 40  1  0  0  0  0
 32 30  1  0  0  0  0
 33 32  2  0  0  0  0
 34 33  1  0  0  0  0
 35 33  1  0  0  0  0
 35 28  2  0  0  0  0
 36 38  1  0  0  0  0
 36 39  1  0  0  0  0
 37 36  1  0  0  0  0
 40 41  1  0  0  0  0
 42 40  1  0  0  0  0
 43 40  1  0  0  0  0
 44 47  1  0  0  0  0
 44 35  1  0  0  0  0
 45 44  1  0  0  0  0
 46 44  1  0  0  0  0
 48 68  1  0  0  0  0
 49 48  1  0  0  0  0
 50 48  1  0  0  0  0
 51 50  1  0  0  0  0
 51 69  1  0  0  0  0
 52 53  1  0  0  0  0
 52 51  2  0  0  0  0
 54 52  1  0  0  0  0
 55 54  1  0  0  0  0
 56 54  2  0  0  0  0
 56 58  1  0  0  0  0
 57 56  1  0  0  0  0
 58 50  2  0  0  0  0
 59 58  1  0  0  0  0
 60 61  1  0  0  0  0
 60 63  1  0  0  0  0
 62 60  1  0  0  0  0
 64 68  1  0  0  0  0
 66 28  1  0  0  0  0
 66  5  1  0  0  0  0
 67  1  1  0  0  0  0
 67  2  1  0  0  0  0
 68  1  1  0  0  0  0
 68 65  1  0  0  0  0
 69 68  1  0  0  0  0
 69 60  1  1  0  0  0
M  END
$$$$
