CSD_code = PUHBID | q = 0 | S = 0 | Stoichiometry = C14H25Cl2HfNOSi | MND = 9
 OpenBabel04212202083D

 45 46  0  0  1  0  0  0  0  0999 V2000
    2.0831    0.3467    7.8718 Hf  0  0  0  0  0  0  0  0  0  0  0  0
    0.2952   -1.1509    7.9328 Cl  0  0  0  0  0  0  0  0  0  0  0  0
    2.2620    0.7524    5.5850 Cl  0  0  0  0  0  0  0  0  0  0  0  0
    3.4169    1.8060   10.1740 Si  0  0  0  0  0  0  0  0  0  0  0  0
    0.0822    1.7386    7.4420 O   0  0  0  0  0  0  0  0  0  0  0  0
    2.2608    2.0738    8.9176 N   0  0  0  0  0  0  0  0  0  0  0  0
    3.9076    0.1504    9.3839 C   0  0  1  0  0  0  0  0  0  0  0  0
    3.1822   -1.0692    9.5501 C   0  0  0  0  0  0  0  0  0  0  0  0
    3.3320   -1.8567    8.3817 C   0  0  0  0  0  0  0  0  0  0  0  0
    4.1105   -1.1172    7.4482 C   0  0  0  0  0  0  0  0  0  0  0  0
    4.4474    0.1219    8.0547 C   0  0  0  0  0  0  0  0  0  0  0  0
    2.4755   -1.5236   10.7968 C   0  0  0  0  0  0  0  0  0  0  0  0
    1.3943   -1.3716   10.7207 H   0  0  0  0  0  0  0  0  0  0  0  0
    2.8441   -0.9786   11.6611 H   0  0  0  0  0  0  0  0  0  0  0  0
    2.6484   -2.5867   10.9621 H   0  0  0  0  0  0  0  0  0  0  0  0
    2.8751   -3.2801    8.2354 C   0  0  0  0  0  0  0  0  0  0  0  0
    1.8923   -3.4211    8.6823 H   0  0  0  0  0  0  0  0  0  0  0  0
    3.5767   -3.9553    8.7304 H   0  0  0  0  0  0  0  0  0  0  0  0
    2.8142   -3.5675    7.1879 H   0  0  0  0  0  0  0  0  0  0  0  0
    4.6405   -1.6265    6.1361 C   0  0  0  0  0  0  0  0  0  0  0  0
    4.6593   -0.8390    5.3835 H   0  0  0  0  0  0  0  0  0  0  0  0
    4.0239   -2.4388    5.7564 H   0  0  0  0  0  0  0  0  0  0  0  0
    5.6571   -2.0056    6.2599 H   0  0  0  0  0  0  0  0  0  0  0  0
    5.2929    1.2007    7.4352 C   0  0  0  0  0  0  0  0  0  0  0  0
    5.8261    0.8194    6.5663 H   0  0  0  0  0  0  0  0  0  0  0  0
    6.0248    1.5651    8.1538 H   0  0  0  0  0  0  0  0  0  0  0  0
    4.6763    2.0474    7.1152 H   0  0  0  0  0  0  0  0  0  0  0  0
    2.6419    1.7227   11.9220 C   0  0  0  0  0  0  0  0  0  0  0  0
    2.4215    2.7294   12.2626 H   0  0  0  0  0  0  0  0  0  0  0  0
    3.3185    1.2804   12.6448 H   0  0  0  0  0  0  0  0  0  0  0  0
    1.7131    1.1617   11.9370 H   0  0  0  0  0  0  0  0  0  0  0  0
    4.8071    3.1158   10.2822 C   0  0  0  0  0  0  0  0  0  0  0  0
    5.7240    2.6883   10.6726 H   0  0  0  0  0  0  0  0  0  0  0  0
    4.5112    3.9145   10.9541 H   0  0  0  0  0  0  0  0  0  0  0  0
    5.0294    3.5623    9.3196 H   0  0  0  0  0  0  0  0  0  0  0  0
    1.3159    3.1642    8.8623 C   0  0  0  0  0  0  0  0  0  0  0  0
    1.8177    4.1394    8.9303 H   0  0  0  0  0  0  0  0  0  0  0  0
    0.5843    3.1035    9.6858 H   0  0  0  0  0  0  0  0  0  0  0  0
    0.5593    3.0772    7.5340 C   0  0  0  0  0  0  0  0  0  0  0  0
   -0.2844    3.7792    7.5110 H   0  0  0  0  0  0  0  0  0  0  0  0
    1.2373    3.2858    6.6909 H   0  0  0  0  0  0  0  0  0  0  0  0
   -0.7853    1.5425    6.3323 C   0  0  0  0  0  0  0  0  0  0  0  0
   -1.6740    2.1746    6.4330 H   0  0  0  0  0  0  0  0  0  0  0  0
   -1.0786    0.4930    6.3480 H   0  0  0  0  0  0  0  0  0  0  0  0
   -0.2769    1.7689    5.3899 H   0  0  0  0  0  0  0  0  0  0  0  0
  1  2  1  0  0  0  0
  1  6  1  0  0  0  0
  1  7  1  0  0  0  0
  3  1  1  0  0  0  0
  4 32  1  0  0  0  0
  4 28  1  0  0  0  0
  5 39  1  0  0  0  0
  6  4  1  0  0  0  0
  7 11  1  6  0  0  0
  7  8  1  0  0  0  0
  7  4  1  0  0  0  0
  8 12  1  0  0  0  0
  9  8  2  0  0  0  0
 10 11  2  0  0  0  0
 10  9  1  0  0  0  0
 12 15  1  0  0  0  0
 12 14  1  0  0  0  0
 13 12  1  0  0  0  0
 16  9  1  0  0  0  0
 16 17  1  0  0  0  0
 16 18  1  0  0  0  0
 19 16  1  0  0  0  0
 20 23  1  0  0  0  0
 20 10  1  0  0  0  0
 21 20  1  0  0  0  0
 22 20  1  0  0  0  0
 24 11  1  0  0  0  0
 24 26  1  0  0  0  0
 25 24  1  0  0  0  0
 27 24  1  0  0  0  0
 28 31  1  0  0  0  0
 28 29  1  0  0  0  0
 28 30  1  0  0  0  0
 32 33  1  0  0  0  0
 32 34  1  0  0  0  0
 35 32  1  0  0  0  0
 36  6  1  0  0  0  0
 36 37  1  0  0  0  0
 36 38  1  0  0  0  0
 39 36  1  0  0  0  0
 40 39  1  0  0  0  0
 41 39  1  0  0  0  0
 42 44  1  0  0  0  0
 42 43  1  0  0  0  0
 42  5  1  0  0  0  0
 45 42  1  0  0  0  0
M  END
$$$$
