CSD_code = PUHFAB | q = 0 | S = 0 | Stoichiometry = C17H12ClN4O3Re | MND = 6
 OpenBabel04212202083D

 38 41  0  0  1  0  0  0  0  0999 V2000
   -2.9280    1.0664    8.2087 Re  0  0  0  0  0  0  0  0  0  0  0  0
   -3.2219    2.3781   10.1876 Cl  0  0  0  0  0  0  0  0  0  0  0  0
   -4.4825    0.0110    8.7285 C   0  0  0  0  0  2  0  0  0  0  0  0
   -0.3293    1.9873    9.0880 N   0  0  0  0  0  0  0  0  0  0  0  0
    0.3773    0.5918   10.9516 C   0  0  0  0  0  0  0  0  0  0  0  0
    1.1926    1.2565   11.1849 H   0  0  0  0  0  0  0  0  0  0  0  0
   -1.5242    0.0935    9.5716 N   0  0  0  0  0  0  0  0  0  0  0  0
   -5.3684   -0.5724    9.1542 O   0  0  0  0  0  1  0  0  0  0  0  0
   -0.9156    3.2748    7.4867 N   0  0  0  0  0  2  0  0  0  0  0  0
    3.5944    6.2339    9.8430 C   0  0  0  0  0  0  0  0  0  0  0  0
    4.6647    6.1318    9.9482 H   0  0  0  0  0  0  0  0  0  0  0  0
   -0.4842    0.8733    9.8979 C   0  0  2  0  0  3  0  0  0  0  0  0
   -1.2279    2.2185    8.1197 N   0  0  2  0  0  0  0  0  0  0  0  0
    0.6041    2.9729    9.0574 C   0  0  0  0  0  0  0  0  0  0  0  0
    1.4288    3.0381    9.7332 H   0  0  0  0  0  0  0  0  0  0  0  0
    0.2129    3.7919    8.0239 C   0  0  0  0  0  0  0  0  0  0  0  0
   -4.6467    3.1249    6.6771 O   0  0  0  0  0  1  0  0  0  0  0  0
    0.1428   -0.5464   11.7000 C   0  0  0  0  0  0  0  0  0  0  0  0
    0.7817   -0.7889   12.5346 H   0  0  0  0  0  0  0  0  0  0  0  0
    0.8548    6.4905    9.5634 C   0  0  0  0  0  0  0  0  0  0  0  0
   -0.2158    6.5885    9.4547 H   0  0  0  0  0  0  0  0  0  0  0  0
   -4.0334    2.3109    7.1866 C   0  0  0  0  0  2  0  0  0  0  0  0
    1.5025    7.1042   10.6202 C   0  0  0  0  0  0  0  0  0  0  0  0
    0.9360    7.6836   11.3340 H   0  0  0  0  0  0  0  0  0  0  0  0
    1.5706    5.7448    8.6350 C   0  0  0  0  0  0  0  0  0  0  0  0
    2.9448    5.6200    8.7857 C   0  0  0  0  0  0  0  0  0  0  0  0
    3.5113    5.0413    8.0691 H   0  0  0  0  0  0  0  0  0  0  0  0
    2.8743    6.9764   10.7627 C   0  0  0  0  0  0  0  0  0  0  0  0
    3.3805    7.4556   11.5874 H   0  0  0  0  0  0  0  0  0  0  0  0
    0.8473    5.0413    7.5183 C   0  0  0  0  0  0  0  0  0  0  0  0
    0.0622    5.6721    7.0975 H   0  0  0  0  0  0  0  0  0  0  0  0
    1.5426    4.7879    6.7128 H   0  0  0  0  0  0  0  0  0  0  0  0
   -0.9268   -1.3633   11.3594 C   0  0  0  0  0  0  0  0  0  0  0  0
   -1.1421   -2.2592   11.9178 H   0  0  0  0  0  0  0  0  0  0  0  0
   -1.7299   -1.0053   10.2925 C   0  0  0  0  0  0  0  0  0  0  0  0
   -2.5745   -1.6142   10.0000 H   0  0  0  0  0  0  0  0  0  0  0  0
   -2.5082   -0.0475    6.6720 C   0  0  0  0  0  2  0  0  0  0  0  0
   -2.2276   -0.7192    5.7843 O   0  0  0  0  0  1  0  0  0  0  0  0
  1  3  1  0  0  0  0
  1  7  1  0  0  0  0
  1  2  1  0  0  0  0
  3  8  1  0  0  0  0
  4 12  1  0  0  0  0
  5  6  1  0  0  0  0
  5 18  2  0  0  0  0
  7 12  1  0  0  0  0
  7 35  1  0  0  0  0
  9 16  1  0  0  0  0
 10 11  1  0  0  0  0
 10 28  1  0  0  0  0
 12  5  1  6  0  0  0
 13  9  1  1  0  0  0
 13  1  1  0  0  0  0
 13  4  1  0  0  0  0
 14  4  1  0  0  0  0
 14 15  1  0  0  0  0
 16 14  2  0  0  0  0
 17 22  1  0  0  0  0
 18 19  1  0  0  0  0
 20 23  1  0  0  0  0
 21 20  1  0  0  0  0
 22  1  1  0  0  0  0
 23 28  2  0  0  0  0
 23 24  1  0  0  0  0
 25 26  1  0  0  0  0
 25 20  2  0  0  0  0
 26 10  2  0  0  0  0
 27 26  1  0  0  0  0
 28 29  1  0  0  0  0
 30 16  1  0  0  0  0
 30 25  1  0  0  0  0
 31 30  1  0  0  0  0
 32 30  1  0  0  0  0
 33 18  1  0  0  0  0
 33 34  1  0  0  0  0
 35 33  2  0  0  0  0
 36 35  1  0  0  0  0
 37  1  1  0  0  0  0
 38 37  1  0  0  0  0
M  END
$$$$
