CSD_code = PUJCAY | q = 1 | S = 0 | Stoichiometry = C12H24Cl2LaO7(1+) | MND = 9
 OpenBabel04212202083D

 46 45  0  0  0  0  0  0  0  0999 V2000
    2.4543    6.3943    1.1169 La  0  0  0  0  0  0  0  0  0  0  0  0
    3.7807    5.2702    2.9441 Cl  0  0  0  0  0  0  0  0  0  0  0  0
    0.7744    6.3755   -0.9663 Cl  0  0  0  0  0  0  0  0  0  0  0  0
    1.4642    3.8939    1.2229 O   0  0  0  0  0  0  0  0  0  0  0  0
    3.4559    4.4755   -0.5020 O   0  0  0  0  0  0  0  0  0  0  0  0
    4.2786    7.1097   -0.7650 O   0  0  0  0  0  0  0  0  0  0  0  0
    4.1818    8.3343    1.6817 O   0  0  0  0  0  0  0  0  0  0  0  0
    1.8604    8.0107    3.0988 O   0  0  0  0  0  0  0  0  0  0  0  0
    0.0954    5.9659    2.3086 O   0  0  0  0  0  0  0  0  0  0  0  0
    1.3031    7.5771    0.0118 O   0  0  0  0  0  0  0  0  0  0  0  0
    1.8804    2.8999    0.2995 C   0  0  0  0  0  0  0  0  0  0  0  0
    1.2961    2.9793   -0.6292 H   0  0  0  0  0  0  0  0  0  0  0  0
    1.7512    1.8988    0.7300 H   0  0  0  0  0  0  0  0  0  0  0  0
    3.3561    3.1508    0.0138 C   0  0  0  0  0  0  0  0  0  0  0  0
    3.9357    3.0631    0.9430 H   0  0  0  0  0  0  0  0  0  0  0  0
    3.7231    2.4263   -0.7226 H   0  0  0  0  0  0  0  0  0  0  0  0
    4.6986    4.7452   -1.1386 C   0  0  0  0  0  0  0  0  0  0  0  0
    4.8948    4.0008   -1.9213 H   0  0  0  0  0  0  0  0  0  0  0  0
    5.5175    4.7194   -0.4052 H   0  0  0  0  0  0  0  0  0  0  0  0
    4.5528    6.1342   -1.7609 C   0  0  0  0  0  0  0  0  0  0  0  0
    5.4477    6.3996   -2.3330 H   0  0  0  0  0  0  0  0  0  0  0  0
    3.6808    6.1307   -2.4247 H   0  0  0  0  0  0  0  0  0  0  0  0
    5.4376    7.7503   -0.2380 C   0  0  0  0  0  0  0  0  0  0  0  0
    6.0590    8.1372   -1.0552 H   0  0  0  0  0  0  0  0  0  0  0  0
    6.0261    7.0547    0.3769 H   0  0  0  0  0  0  0  0  0  0  0  0
    4.9484    8.9016    0.6300 C   0  0  0  0  0  0  0  0  0  0  0  0
    5.8056    9.4525    1.0389 H   0  0  0  0  0  0  0  0  0  0  0  0
    4.3235    9.5793    0.0311 H   0  0  0  0  0  0  0  0  0  0  0  0
    3.7936    9.2955    2.6548 C   0  0  0  0  0  0  0  0  0  0  0  0
    3.1543   10.0597    2.1901 H   0  0  0  0  0  0  0  0  0  0  0  0
    4.6823    9.7708    3.0906 H   0  0  0  0  0  0  0  0  0  0  0  0
    3.0115    8.5592    3.7333 C   0  0  0  0  0  0  0  0  0  0  0  0
    3.6267    7.7540    4.1607 H   0  0  0  0  0  0  0  0  0  0  0  0
    2.7117    9.2602    4.5223 H   0  0  0  0  0  0  0  0  0  0  0  0
    0.9057    7.4982    4.0197 C   0  0  0  0  0  0  0  0  0  0  0  0
    0.5846    8.2896    4.7102 H   0  0  0  0  0  0  0  0  0  0  0  0
    1.3420    6.6695    4.5965 H   0  0  0  0  0  0  0  0  0  0  0  0
   -0.2784    7.0257    3.1769 C   0  0  0  0  0  0  0  0  0  0  0  0
   -1.1172    6.7280    3.8154 H   0  0  0  0  0  0  0  0  0  0  0  0
   -0.5847    7.8468    2.5192 H   0  0  0  0  0  0  0  0  0  0  0  0
   -0.0226    4.6662    2.8855 C   0  0  0  0  0  0  0  0  0  0  0  0
   -1.0147    4.5413    3.3362 H   0  0  0  0  0  0  0  0  0  0  0  0
    0.7555    4.4998    3.6430 H   0  0  0  0  0  0  0  0  0  0  0  0
    0.1652    3.6685    1.7493 C   0  0  0  0  0  0  0  0  0  0  0  0
    0.0801    2.6442    2.1335 H   0  0  0  0  0  0  0  0  0  0  0  0
   -0.5933    3.8351    0.9708 H   0  0  0  0  0  0  0  0  0  0  0  0
  1  2  1  0  0  0  0
  3 10  1  0  0  0  0
  4 44  1  0  0  0  0
  5 14  1  0  0  0  0
  6 23  1  0  0  0  0
  7 29  1  0  0  0  0
  8 32  1  0  0  0  0
  8 35  1  0  0  0  0
  9 41  1  0  0  0  0
  9 38  1  0  0  0  0
 10  1  1  0  0  0  0
 11 13  1  0  0  0  0
 11  4  1  0  0  0  0
 12 11  1  0  0  0  0
 14 11  1  0  0  0  0
 14 15  1  0  0  0  0
 16 14  1  0  0  0  0
 17  5  1  0  0  0  0
 17 19  1  0  0  0  0
 18 17  1  0  0  0  0
 20 17  1  0  0  0  0
 20  6  1  0  0  0  0
 21 20  1  0  0  0  0
 22 20  1  0  0  0  0
 23 25  1  0  0  0  0
 23 26  1  0  0  0  0
 24 23  1  0  0  0  0
 26 27  1  0  0  0  0
 26  7  1  0  0  0  0
 28 26  1  0  0  0  0
 29 31  1  0  0  0  0
 29 32  1  0  0  0  0
 30 29  1  0  0  0  0
 32 33  1  0  0  0  0
 32 34  1  0  0  0  0
 35 37  1  0  0  0  0
 35 36  1  0  0  0  0
 38 39  1  0  0  0  0
 38 35  1  0  0  0  0
 40 38  1  0  0  0  0
 41 42  1  0  0  0  0
 41 43  1  0  0  0  0
 44 45  1  0  0  0  0
 44 41  1  0  0  0  0
 46 44  1  0  0  0  0
M  END
$$$$
