CSD_code = PUKROD | q = 0 | S = 0 | Stoichiometry = C23H31ClN2Ni | MND = 7
 OpenBabel04212202083D

 58 62  0  0  1  0  0  0  0  0999 V2000
    4.4362    6.8667    2.5070 Ni  0  0  1  0  0  0  0  0  0  0  0  0
    5.6583    5.2710    3.0889 Cl  0  0  0  0  0  0  0  0  0  0  0  0
    4.4359    8.1465    5.0802 N   0  0  0  0  0  0  0  0  0  0  0  0
    6.3099    8.3981    4.0171 N   0  0  1  0  0  0  0  0  0  0  0  0
    5.0759    7.9051    3.9373 C   0  0  1  0  0  3  0  0  0  0  0  0
    6.5980    8.9859    5.3189 C   0  0  0  0  0  0  0  0  0  0  0  0
    5.2637    8.8416    6.0584 C   0  0  0  0  0  0  0  0  0  0  0  0
    3.0605    7.8797    5.3288 C   0  0  0  0  0  0  0  0  0  0  0  0
    2.6754    6.6230    5.8036 C   0  0  0  0  0  0  0  0  0  0  0  0
    1.3275    6.3882    6.0255 C   0  0  0  0  0  0  0  0  0  0  0  0
    1.0153    5.4171    6.3820 H   0  0  0  0  0  0  0  0  0  0  0  0
    0.3688    7.3668    5.7991 C   0  0  0  0  0  0  0  0  0  0  0  0
    0.7806    8.6087    5.3413 C   0  0  0  0  0  0  0  0  0  0  0  0
    0.0459    9.3805    5.1587 H   0  0  0  0  0  0  0  0  0  0  0  0
    2.1195    8.8831    5.0983 C   0  0  0  0  0  0  0  0  0  0  0  0
    7.3048    8.2739    2.9725 C   0  0  0  0  0  0  0  0  0  0  0  0
    6.7787    7.7872    2.1305 H   0  0  0  0  0  0  0  0  0  0  0  0
    7.8190    9.6368    2.5080 C   0  0  0  0  0  0  0  0  0  0  0  0
    8.3619   10.1255    3.3205 H   0  0  0  0  0  0  0  0  0  0  0  0
    6.9768   10.2722    2.2246 H   0  0  0  0  0  0  0  0  0  0  0  0
    8.7596    9.4451    1.3213 C   0  0  0  0  0  0  0  0  0  0  0  0
    8.2074    8.9952    0.4938 H   0  0  0  0  0  0  0  0  0  0  0  0
    9.1346   10.4146    0.9868 H   0  0  0  0  0  0  0  0  0  0  0  0
    9.9242    8.5366    1.7044 C   0  0  0  0  0  0  0  0  0  0  0  0
   10.5112    9.0141    2.4929 H   0  0  0  0  0  0  0  0  0  0  0  0
   10.5787    8.3916    0.8431 H   0  0  0  0  0  0  0  0  0  0  0  0
    9.4101    7.1881    2.2008 C   0  0  0  0  0  0  0  0  0  0  0  0
   10.2483    6.5538    2.4930 H   0  0  0  0  0  0  0  0  0  0  0  0
    8.8727    6.6817    1.3975 H   0  0  0  0  0  0  0  0  0  0  0  0
    8.4690    7.3734    3.3869 C   0  0  0  0  0  0  0  0  0  0  0  0
    8.0702    6.4090    3.7045 H   0  0  0  0  0  0  0  0  0  0  0  0
    9.0159    7.8265    4.2169 H   0  0  0  0  0  0  0  0  0  0  0  0
    3.6936    5.5597    6.0602 C   0  0  0  0  0  0  0  0  0  0  0  0
    3.2203    4.6551    6.4303 H   0  0  0  0  0  0  0  0  0  0  0  0
    4.4294    5.8928    6.7907 H   0  0  0  0  0  0  0  0  0  0  0  0
    4.2309    5.3218    5.1408 H   0  0  0  0  0  0  0  0  0  0  0  0
   -1.0815    7.0699    6.0304 C   0  0  0  0  0  0  0  0  0  0  0  0
   -1.2201    6.5475    6.9749 H   0  0  0  0  0  0  0  0  0  0  0  0
   -1.4612    6.4269    5.2362 H   0  0  0  0  0  0  0  0  0  0  0  0
   -1.6712    7.9831    6.0423 H   0  0  0  0  0  0  0  0  0  0  0  0
    2.5283   10.2364    4.5965 C   0  0  0  0  0  0  0  0  0  0  0  0
    1.7297   10.6758    4.0033 H   0  0  0  0  0  0  0  0  0  0  0  0
    3.4251   10.1715    3.9843 H   0  0  0  0  0  0  0  0  0  0  0  0
    2.7284   10.9072    5.4337 H   0  0  0  0  0  0  0  0  0  0  0  0
    4.0773    7.5365    0.5042 C   0  0  0  0  0  3  0  0  0  0  0  0
    4.7512    8.0124   -0.1906 H   0  0  0  0  0  0  0  0  0  0  0  0
    3.8068    6.1675    0.6100 C   0  0  2  0  0  0  0  0  0  0  0  0
    4.2185    5.3885   -0.0154 H   0  0  0  0  0  0  0  0  0  0  0  0
    2.6959    5.9832    1.5124 C   0  0  0  0  0  0  0  0  0  0  0  0
    2.1834    5.0481    1.6747 H   0  0  0  0  0  0  0  0  0  0  0  0
    2.3473    7.2213    2.0196 C   0  0  0  0  0  0  0  0  0  0  0  0
    1.5067    7.4518    2.6536 H   0  0  0  0  0  0  0  0  0  0  0  0
    3.2681    8.1861    1.4695 C   0  0  1  0  0  0  0  0  0  0  0  0
    3.1613    9.2570    1.5702 H   0  0  0  0  0  0  0  0  0  0  0  0
    7.4029    8.4345    5.8117 H   0  0  0  0  0  0  0  0  0  0  0  0
    6.9027   10.0302    5.2070 H   0  0  0  0  0  0  0  0  0  0  0  0
    4.8167    9.8058    6.3187 H   0  0  0  0  0  0  0  0  0  0  0  0
    5.3482    8.2453    6.9711 H   0  0  0  0  0  0  0  0  0  0  0  0
  1  2  1  1  0  0  0
  1  5  1  0  0  0  0
  3  8  1  0  0  0  0
  3  7  1  0  0  0  0
  4 16  1  1  0  0  0
  4  6  1  0  0  0  0
  5  4  1  0  0  0  0
  5  3  1  1  0  0  0
  6 55  1  0  0  0  0
  6  7  1  0  0  0  0
  7 57  1  0  0  0  0
  7 58  1  0  0  0  0
  8  9  1  0  0  0  0
  9 10  2  0  0  0  0
  9 33  1  0  0  0  0
 10 11  1  0  0  0  0
 12 10  1  0  0  0  0
 12 37  1  0  0  0  0
 13 12  2  0  0  0  0
 14 13  1  0  0  0  0
 15  8  2  0  0  0  0
 15 13  1  0  0  0  0
 16 30  1  0  0  0  0
 17 16  1  0  0  0  0
 18 16  1  0  0  0  0
 18 19  1  0  0  0  0
 20 18  1  0  0  0  0
 21 24  1  0  0  0  0
 21 18  1  0  0  0  0
 22 21  1  0  0  0  0
 23 21  1  0  0  0  0
 24 27  1  0  0  0  0
 24 25  1  0  0  0  0
 26 24  1  0  0  0  0
 27 28  1  0  0  0  0
 27 30  1  0  0  0  0
 29 27  1  0  0  0  0
 30 31  1  0  0  0  0
 30 32  1  0  0  0  0
 33 34  1  0  0  0  0
 33 35  1  0  0  0  0
 36 33  1  0  0  0  0
 37 40  1  0  0  0  0
 37 38  1  0  0  0  0
 39 37  1  0  0  0  0
 41 15  1  0  0  0  0
 41 44  1  0  0  0  0
 42 41  1  0  0  0  0
 43 41  1  0  0  0  0
 45 47  1  0  0  0  0
 45 53  1  0  0  0  0
 46 45  1  0  0  0  0
 47 48  1  6  0  0  0
 47 49  1  0  0  0  0
 47  1  1  0  0  0  0
 49 50  1  0  0  0  0
 49 51  2  0  0  0  0
 51 52  1  0  0  0  0
 53 54  1  1  0  0  0
 53 51  1  0  0  0  0
 53  1  1  0  0  0  0
 56  6  1  0  0  0  0
M  END
$$$$
