CSD_code = PULGEK | q = 0 | S = 0 | Stoichiometry = C30H30ClMnN2O3 | MND = 6
 OpenBabel04212202083D

 67 73  0  0  1  0  0  0  0  0999 V2000
    5.0795    1.8184    5.8281 Mn  0  0  0  0  0  0  0  0  0  0  0  0
    5.9426    2.0304    4.1588 N   0  0  1  0  0  0  0  0  0  0  0  0
    4.7059    1.8085    7.5778 O   0  0  0  0  0  0  0  0  0  0  0  0
    4.3705    0.2885    5.2954 O   0  0  0  0  0  0  0  0  0  0  0  0
    5.9522    3.5951    6.1663 N   0  0  1  0  0  0  0  0  0  0  0  0
    5.8465   -0.3011    3.5349 C   0  0  0  0  0  0  0  0  0  0  0  0
    6.2753   -3.6965    1.9917 C   0  0  0  0  0  0  0  0  0  0  0  0
    5.8677   -4.6882    2.1279 H   0  0  0  0  0  0  0  0  0  0  0  0
    6.2396    1.0453    3.3502 C   0  0  0  0  0  3  0  0  0  0  0  0
    6.7857    1.2757    2.4427 H   0  0  0  0  0  0  0  0  0  0  0  0
    6.3212   -1.3479    2.6686 C   0  0  0  0  0  0  0  0  0  0  0  0
    4.8041    4.0823    8.2368 C   0  0  0  0  0  0  0  0  0  0  0  0
    6.8410    4.0305    5.0964 C   0  0  2  0  0  0  0  0  0  0  0  0
    7.8246    3.5632    5.2765 H   0  0  0  0  0  0  0  0  0  0  0  0
    4.3970   -1.9508    4.6490 C   0  0  0  0  0  0  0  0  0  0  0  0
    3.6591   -2.1427    5.4139 H   0  0  0  0  0  0  0  0  0  0  0  0
    7.0420    5.5351    4.9087 C   0  0  0  0  0  0  0  0  0  0  0  0
    6.0702    6.0084    4.7581 H   0  0  0  0  0  0  0  0  0  0  0  0
    7.5168    5.9706    5.7905 H   0  0  0  0  0  0  0  0  0  0  0  0
    4.3819    2.7358    8.4093 C   0  0  0  0  0  0  0  0  0  0  0  0
    4.8482   -2.9293    3.8307 C   0  0  0  0  0  0  0  0  0  0  0  0
    4.4771   -3.9397    3.9293 H   0  0  0  0  0  0  0  0  0  0  0  0
    4.8794   -0.6100    4.5420 C   0  0  0  0  0  0  0  0  0  0  0  0
    4.4436    5.0664    9.2195 C   0  0  0  0  0  0  0  0  0  0  0  0
    5.6119    4.4135    7.1157 C   0  0  0  0  0  3  0  0  0  0  0  0
    6.0073    5.4225    7.0927 H   0  0  0  0  0  0  0  0  0  0  0  0
    5.8161   -2.6640    2.8243 C   0  0  0  0  0  0  0  0  0  0  0  0
    3.3179    3.3077   10.5071 C   0  0  0  0  0  0  0  0  0  0  0  0
    2.7458    3.0278   11.3805 H   0  0  0  0  0  0  0  0  0  0  0  0
    7.3046   -1.1485    1.6824 C   0  0  0  0  0  0  0  0  0  0  0  0
    7.7451   -0.1732    1.5428 H   0  0  0  0  0  0  0  0  0  0  0  0
    3.6997    4.6662   10.3602 C   0  0  0  0  0  0  0  0  0  0  0  0
    7.9396    5.7919    3.6998 C   0  0  0  0  0  0  0  0  0  0  0  0
    8.0587    6.8677    3.5615 H   0  0  0  0  0  0  0  0  0  0  0  0
    8.9299    5.3688    3.8867 H   0  0  0  0  0  0  0  0  0  0  0  0
    6.2506    3.4082    3.8093 C   0  0  1  0  0  0  0  0  0  0  0  0
    5.2786    3.8981    3.6329 H   0  0  0  0  0  0  0  0  0  0  0  0
    7.3518    5.1709    2.4391 C   0  0  0  0  0  0  0  0  0  0  0  0
    6.3849    5.6291    2.2254 H   0  0  0  0  0  0  0  0  0  0  0  0
    8.0107    5.3617    1.5900 H   0  0  0  0  0  0  0  0  0  0  0  0
    3.6472    2.3786    9.5780 C   0  0  0  0  0  0  0  0  0  0  0  0
    3.3467    1.3456    9.6736 H   0  0  0  0  0  0  0  0  0  0  0  0
    4.3912    7.3396   10.0683 C   0  0  0  0  0  0  0  0  0  0  0  0
    4.6492    8.3820    9.9487 H   0  0  0  0  0  0  0  0  0  0  0  0
    7.7392   -2.1747    0.8801 C   0  0  0  0  0  0  0  0  0  0  0  0
    8.4930   -1.9850    0.1294 H   0  0  0  0  0  0  0  0  0  0  0  0
    4.7636    6.4329    9.1081 C   0  0  0  0  0  0  0  0  0  0  0  0
    5.2977    6.7988    8.2456 H   0  0  0  0  0  0  0  0  0  0  0  0
    3.6753    6.9327   11.1958 C   0  0  0  0  0  0  0  0  0  0  0  0
    3.3890    7.6564   11.9442 H   0  0  0  0  0  0  0  0  0  0  0  0
    7.1648    3.6657    2.6131 C   0  0  0  0  0  0  0  0  0  0  0  0
    8.1370    3.1904    2.7721 H   0  0  0  0  0  0  0  0  0  0  0  0
    6.7170    3.2584    1.7051 H   0  0  0  0  0  0  0  0  0  0  0  0
    7.2197   -3.4611    1.0262 C   0  0  0  0  0  0  0  0  0  0  0  0
    7.5657   -4.2597    0.3873 H   0  0  0  0  0  0  0  0  0  0  0  0
    3.3338    5.6132   11.3314 C   0  0  0  0  0  0  0  0  0  0  0  0
    2.7689    5.2788   12.1900 H   0  0  0  0  0  0  0  0  0  0  0  0
    6.9354    0.5473    6.4273 O   0  0  0  0  0  0  0  0  0  0  0  0
    7.3899    0.3677    7.7599 C   0  0  0  0  0  0  0  0  0  0  0  0
    6.4867    0.2332    8.3585 H   0  0  0  0  0  0  0  0  0  0  0  0
    7.9942   -0.5478    7.8136 H   0  0  0  0  0  0  0  0  0  0  0  0
    8.1837    1.5658    8.2628 C   0  0  0  0  0  0  0  0  0  0  0  0
    7.5754    2.4661    8.1827 H   0  0  0  0  0  0  0  0  0  0  0  0
    8.4574    1.4209    9.3039 H   0  0  0  0  0  0  0  0  0  0  0  0
    9.0941    1.7000    7.6792 H   0  0  0  0  0  0  0  0  0  0  0  0
    3.2921    2.9553    5.1681 Cl  0  0  0  0  0  0  0  0  0  0  0  0
    7.7033    0.6175    5.8459 H   0  0  0  0  0  0  0  0  0  0  0  0
  1  5  1  0  0  0  0
  1  3  1  0  0  0  0
  2  9  1  6  0  0  0
  2  1  1  0  0  0  0
  3 20  1  0  0  0  0
  4  1  1  0  0  0  0
  5 25  1  6  0  0  0
  6 23  1  0  0  0  0
  7  8  1  0  0  0  0
  7 27  1  0  0  0  0
  9  6  1  0  0  0  0
 10  9  1  0  0  0  0
 11 27  1  0  0  0  0
 11  6  2  0  0  0  0
 12 20  2  0  0  0  0
 12 24  1  0  0  0  0
 13 14  1  1  0  0  0
 13  5  1  0  0  0  0
 15 16  1  0  0  0  0
 17 13  1  0  0  0  0
 17 19  1  0  0  0  0
 18 17  1  0  0  0  0
 20 41  1  0  0  0  0
 21 22  1  0  0  0  0
 21 15  1  0  0  0  0
 23 15  2  0  0  0  0
 23  4  1  0  0  0  0
 24 32  1  0  0  0  0
 25 12  1  0  0  0  0
 26 25  1  0  0  0  0
 27 21  2  0  0  0  0
 28 29  1  0  0  0  0
 30 11  1  0  0  0  0
 31 30  1  0  0  0  0
 32 28  1  0  0  0  0
 32 56  2  0  0  0  0
 33 35  1  0  0  0  0
 33 17  1  0  0  0  0
 34 33  1  0  0  0  0
 36 37  1  6  0  0  0
 36  2  1  0  0  0  0
 36 13  1  0  0  0  0
 38 51  1  0  0  0  0
 38 33  1  0  0  0  0
 39 38  1  0  0  0  0
 40 38  1  0  0  0  0
 41 42  1  0  0  0  0
 41 28  2  0  0  0  0
 43 49  2  0  0  0  0
 44 43  1  0  0  0  0
 45 54  1  0  0  0  0
 45 30  2  0  0  0  0
 46 45  1  0  0  0  0
 47 24  2  0  0  0  0
 47 43  1  0  0  0  0
 48 47  1  0  0  0  0
 49 56  1  0  0  0  0
 49 50  1  0  0  0  0
 51 52  1  0  0  0  0
 51 36  1  0  0  0  0
 53 51  1  0  0  0  0
 54  7  2  0  0  0  0
 55 54  1  0  0  0  0
 56 57  1  0  0  0  0
 58 59  1  0  0  0  0
 59 61  1  0  0  0  0
 59 62  1  0  0  0  0
 59 60  1  0  0  0  0
 62 64  1  0  0  0  0
 63 62  1  0  0  0  0
 65 62  1  0  0  0  0
 66  1  1  0  0  0  0
 67 58  1  0  0  0  0
M  END
$$$$
