CSD_code = PULPAN | q = 0 | S = 0 | Stoichiometry = C24H18Cl2N4Zn | MND = 5
 OpenBabel04212202083D

 49 54  0  0  1  0  0  0  0  0999 V2000
   -2.2651    3.1534    0.7005 Zn  0  0  0  0  0  0  0  0  0  0  0  0
   -4.0817    2.1539   -0.1581 Cl  0  0  0  0  0  0  0  0  0  0  0  0
   -2.0244    5.3577    0.6619 Cl  0  0  0  0  0  0  0  0  0  0  0  0
   -0.9707    2.8963   -1.2070 N   0  0  0  0  0  0  0  0  0  0  0  0
    0.6857    3.4269    0.9560 N   0  0  0  0  0  2  0  0  0  0  0  0
   -0.2099    2.6107    1.3196 N   0  0  2  0  0  0  0  0  0  0  0  0
   -2.3794    1.7605    2.4324 N   0  0  0  0  0  0  0  0  0  0  0  0
    2.9717    5.1137    0.4937 C   0  0  0  0  0  0  0  0  0  0  0  0
    3.8343    6.1932    0.5323 C   0  0  0  0  0  0  0  0  0  0  0  0
    3.4554    7.4057   -0.0205 C   0  0  0  0  0  0  0  0  0  0  0  0
    2.2059    7.5392   -0.6041 C   0  0  0  0  0  0  0  0  0  0  0  0
    1.3414    6.4614   -0.6551 C   0  0  0  0  0  0  0  0  0  0  0  0
    1.7248    5.2366   -0.1135 C   0  0  0  0  0  0  0  0  0  0  0  0
    0.7963    4.0999   -0.1251 C   0  0  1  0  0  3  0  0  0  0  0  0
    0.0679    3.7295   -1.3457 C   0  0  1  0  0  3  0  0  0  0  0  0
    0.4821    4.1819   -2.5999 C   0  0  0  0  0  0  0  0  0  0  0  0
   -0.2084    3.7668   -3.7233 C   0  0  0  0  0  0  0  0  0  0  0  0
   -1.2817    2.9032   -3.5678 C   0  0  0  0  0  0  0  0  0  0  0  0
   -1.6258    2.4986   -2.2882 C   0  0  0  0  0  0  0  0  0  0  0  0
   -3.5166    1.3932    2.9940 C   0  0  0  0  0  3  0  0  0  0  0  0
   -3.6964    0.1497    3.5794 C   0  0  0  0  0  0  0  0  0  0  0  0
   -2.6449   -0.7539    3.5406 C   0  0  0  0  0  0  0  0  0  0  0  0
   -1.4505   -0.3715    2.9587 C   0  0  0  0  0  0  0  0  0  0  0  0
   -1.3397    0.9148    2.4270 C   0  0  0  0  0  0  0  0  0  0  0  0
   -0.1243    1.4191    1.8032 C   0  0  1  0  0  3  0  0  0  0  0  0
    1.1124    0.6242    1.6857 C   0  0  0  0  0  0  0  0  0  0  0  0
    1.7340    0.5060    0.4449 C   0  0  0  0  0  0  0  0  0  0  0  0
    2.9186   -0.1959    0.3217 C   0  0  0  0  0  0  0  0  0  0  0  0
    3.5013   -0.7765    1.4361 C   0  0  0  0  0  0  0  0  0  0  0  0
    2.8975   -0.6483    2.6761 C   0  0  0  0  0  0  0  0  0  0  0  0
    1.7097    0.0481    2.8044 C   0  0  0  0  0  0  0  0  0  0  0  0
    3.2565    4.1651    0.9245 H   0  0  0  0  0  0  0  0  0  0  0  0
    4.8033    6.0903    0.9980 H   0  0  0  0  0  0  0  0  0  0  0  0
    4.1294    8.2488    0.0129 H   0  0  0  0  0  0  0  0  0  0  0  0
    1.9004    8.4896   -1.0154 H   0  0  0  0  0  0  0  0  0  0  0  0
    0.3515    6.5717   -1.0703 H   0  0  0  0  0  0  0  0  0  0  0  0
    1.3315    4.8414   -2.6791 H   0  0  0  0  0  0  0  0  0  0  0  0
    0.0900    4.1071   -4.7039 H   0  0  0  0  0  0  0  0  0  0  0  0
   -1.8436    2.5469   -4.4160 H   0  0  0  0  0  0  0  0  0  0  0  0
   -2.4600    1.8344   -2.1125 H   0  0  0  0  0  0  0  0  0  0  0  0
   -4.3180    2.1171    2.9589 H   0  0  0  0  0  0  0  0  0  0  0  0
   -4.6418   -0.1096    4.0269 H   0  0  0  0  0  0  0  0  0  0  0  0
   -2.7561   -1.7458    3.9528 H   0  0  0  0  0  0  0  0  0  0  0  0
   -0.6196   -1.0560    2.8974 H   0  0  0  0  0  0  0  0  0  0  0  0
    1.2716    0.9503   -0.4257 H   0  0  0  0  0  0  0  0  0  0  0  0
    3.3881   -0.2897   -0.6461 H   0  0  0  0  0  0  0  0  0  0  0  0
    4.4269   -1.3237    1.3394 H   0  0  0  0  0  0  0  0  0  0  0  0
    3.3561   -1.0888    3.5489 H   0  0  0  0  0  0  0  0  0  0  0  0
    1.2555    0.1718    3.7765 H   0  0  0  0  0  0  0  0  0  0  0  0
  1  6  1  0  0  0  0
  1  7  1  0  0  0  0
  2  1  1  0  0  0  0
  3  1  1  0  0  0  0
  4  1  1  0  0  0  0
  6  5  1  6  0  0  0
  6 25  1  0  0  0  0
  7 20  1  0  0  0  0
  8  9  1  0  0  0  0
  8 32  1  0  0  0  0
  9 33  1  0  0  0  0
 10 34  1  0  0  0  0
 10  9  2  0  0  0  0
 11 10  1  0  0  0  0
 12 11  2  0  0  0  0
 12 13  1  0  0  0  0
 13  8  2  0  0  0  0
 14 13  1  6  0  0  0
 14  5  1  0  0  0  0
 15 16  1  6  0  0  0
 15  4  1  0  0  0  0
 15 14  1  0  0  0  0
 17 18  1  0  0  0  0
 17 16  2  0  0  0  0
 18 19  2  0  0  0  0
 19 40  1  0  0  0  0
 19  4  1  0  0  0  0
 20 21  1  0  0  0  0
 21 42  1  0  0  0  0
 22 21  2  0  0  0  0
 22 43  1  0  0  0  0
 23 22  1  0  0  0  0
 24  7  1  0  0  0  0
 24 23  2  0  0  0  0
 25 26  1  6  0  0  0
 25 24  1  0  0  0  0
 26 31  1  0  0  0  0
 27 26  2  0  0  0  0
 28 27  1  0  0  0  0
 28 29  2  0  0  0  0
 29 30  1  0  0  0  0
 30 31  2  0  0  0  0
 30 48  1  0  0  0  0
 31 49  1  0  0  0  0
 35 11  1  0  0  0  0
 36 12  1  0  0  0  0
 37 16  1  0  0  0  0
 38 17  1  0  0  0  0
 39 18  1  0  0  0  0
 41 20  1  0  0  0  0
 44 23  1  0  0  0  0
 45 27  1  0  0  0  0
 46 28  1  0  0  0  0
 47 29  1  0  0  0  0
M  END
$$$$
