CSD_code = PULSOE | q = 0 | S = 0 | Stoichiometry = C22H26Br2N2Pt | MND = 6
 OpenBabel04212202083D

 53 57  0  0  1  0  0  0  0  0999 V2000
    2.2683    3.1332   -2.0443 Pt  0  0  0  0  0  0  0  0  0  0  0  0
    1.9883    2.6488   -4.5662 Br  0  0  0  0  0  0  0  0  0  0  0  0
    4.3431    2.8038   -2.4266 N   0  0  1  0  0  0  0  0  0  0  0  0
    3.1009    5.2037   -2.7241 N   0  0  0  0  0  0  0  0  0  0  0  0
    0.2469    3.4553   -1.7539 C   0  0  0  0  0  0  0  0  0  0  0  0
    2.4557    3.4308    0.0022 C   0  0  0  0  0  0  0  0  0  0  0  0
    2.3418    1.1645   -1.6441 C   0  0  0  0  0  0  0  0  0  0  0  0
    1.3366    0.2807   -1.2962 C   0  0  0  0  0  0  0  0  0  0  0  0
    1.6202   -1.0633   -1.0992 C   0  0  0  0  0  0  0  0  0  0  0  0
    2.9108   -1.5480   -1.2497 C   0  0  0  0  0  0  0  0  0  0  0  0
    3.9233   -0.6877   -1.6172 C   0  0  0  0  0  0  0  0  0  0  0  0
    3.6519    0.6678   -1.8180 C   0  0  0  0  0  0  0  0  0  0  0  0
    4.6618    1.5766   -2.3057 C   0  0  0  0  0  3  0  0  0  0  0  0
    5.0927    3.8132   -3.1206 C   0  0  2  0  0  0  0  0  0  0  0  0
    6.6145    3.7627   -2.9491 C   0  0  0  0  0  0  0  0  0  0  0  0
    7.0295    4.1115   -1.5238 C   0  0  0  0  0  0  0  0  0  0  0  0
    6.5253    5.5051   -1.1651 C   0  0  0  0  0  0  0  0  0  0  0  0
    5.0068    5.5532   -1.2776 C   0  0  0  0  0  0  0  0  0  0  0  0
    4.5483    5.1954   -2.6948 C   0  0  2  0  0  0  0  0  0  0  0  0
    2.5191    5.9931   -3.5201 C   0  0  0  0  0  3  0  0  0  0  0  0
    1.0622    6.1560   -3.5624 C   0  0  0  0  0  0  0  0  0  0  0  0
    0.3505    5.7826   -4.6992 C   0  0  0  0  0  0  0  0  0  0  0  0
   -1.0239    5.9269   -4.7442 C   0  0  0  0  0  0  0  0  0  0  0  0
   -1.7031    6.4743   -3.6681 C   0  0  0  0  0  0  0  0  0  0  0  0
   -1.0089    6.8797   -2.5418 C   0  0  0  0  0  0  0  0  0  0  0  0
    0.3633    6.7105   -2.4946 C   0  0  0  0  0  0  0  0  0  0  0  0
    1.3028    7.3066   -0.9465 Br  0  0  0  0  0  0  0  0  0  0  0  0
   -0.2467    2.7034   -1.1381 H   0  0  0  0  0  0  0  0  0  0  0  0
   -0.2597    3.4763   -2.7228 H   0  0  0  0  0  0  0  0  0  0  0  0
    0.0847    4.4188   -1.2646 H   0  0  0  0  0  0  0  0  0  0  0  0
    3.4291    3.0722    0.3420 H   0  0  0  0  0  0  0  0  0  0  0  0
    1.6928    2.9119    0.5802 H   0  0  0  0  0  0  0  0  0  0  0  0
    2.3742    4.4973    0.2124 H   0  0  0  0  0  0  0  0  0  0  0  0
    0.3176    0.6174   -1.1829 H   0  0  0  0  0  0  0  0  0  0  0  0
    0.8215   -1.7380   -0.8281 H   0  0  0  0  0  0  0  0  0  0  0  0
    3.1184   -2.5958   -1.0933 H   0  0  0  0  0  0  0  0  0  0  0  0
    4.9303   -1.0527   -1.7623 H   0  0  0  0  0  0  0  0  0  0  0  0
    5.6257    1.1740   -2.6191 H   0  0  0  0  0  0  0  0  0  0  0  0
    4.8604    3.6828   -4.1913 H   0  0  0  0  0  0  0  0  0  0  0  0
    7.0564    4.4819   -3.6425 H   0  0  0  0  0  0  0  0  0  0  0  0
    6.9846    2.7744   -3.2270 H   0  0  0  0  0  0  0  0  0  0  0  0
    6.6092    3.3812   -0.8277 H   0  0  0  0  0  0  0  0  0  0  0  0
    8.1168    4.0694   -1.4386 H   0  0  0  0  0  0  0  0  0  0  0  0
    6.8194    5.7610   -0.1461 H   0  0  0  0  0  0  0  0  0  0  0  0
    6.9730    6.2402   -1.8386 H   0  0  0  0  0  0  0  0  0  0  0  0
    4.6327    6.5471   -1.0230 H   0  0  0  0  0  0  0  0  0  0  0  0
    4.5719    4.8413   -0.5773 H   0  0  0  0  0  0  0  0  0  0  0  0
    4.9438    5.9447   -3.4024 H   0  0  0  0  0  0  0  0  0  0  0  0
    3.0871    6.6103   -4.2291 H   0  0  0  0  0  0  0  0  0  0  0  0
    0.8811    5.3395   -5.5275 H   0  0  0  0  0  0  0  0  0  0  0  0
   -1.5634    5.6097   -5.6228 H   0  0  0  0  0  0  0  0  0  0  0  0
   -2.7754    6.5919   -3.7019 H   0  0  0  0  0  0  0  0  0  0  0  0
   -1.5258    7.3174   -1.7014 H   0  0  0  0  0  0  0  0  0  0  0  0
  1  5  1  0  0  0  0
  1  7  1  0  0  0  0
  1  6  1  0  0  0  0
  2  1  1  0  0  0  0
  3 13  1  6  0  0  0
  3  1  1  0  0  0  0
  4 19  1  0  0  0  0
  4  1  1  0  0  0  0
  5 30  1  0  0  0  0
  5 28  1  0  0  0  0
  6 33  1  0  0  0  0
  6 31  1  0  0  0  0
  6 32  1  0  0  0  0
  7  8  1  0  0  0  0
  8 34  1  0  0  0  0
  8  9  2  0  0  0  0
  9 35  1  0  0  0  0
 10  9  1  0  0  0  0
 10 36  1  0  0  0  0
 11 10  2  0  0  0  0
 12  7  2  0  0  0  0
 12 11  1  0  0  0  0
 13 12  1  0  0  0  0
 14 39  1  6  0  0  0
 14 15  1  0  0  0  0
 14 19  1  0  0  0  0
 14  3  1  0  0  0  0
 15 16  1  0  0  0  0
 16 43  1  0  0  0  0
 16 17  1  0  0  0  0
 16 42  1  0  0  0  0
 17 44  1  0  0  0  0
 18 17  1  0  0  0  0
 18 46  1  0  0  0  0
 18 47  1  0  0  0  0
 19 48  1  6  0  0  0
 19 18  1  0  0  0  0
 20  4  1  0  0  0  0
 21 20  1  0  0  0  0
 21 26  1  0  0  0  0
 22 21  2  0  0  0  0
 23 22  1  0  0  0  0
 23 24  2  0  0  0  0
 24 25  1  0  0  0  0
 25 26  2  0  0  0  0
 25 53  1  0  0  0  0
 26 27  1  0  0  0  0
 29  5  1  0  0  0  0
 37 11  1  0  0  0  0
 38 13  1  0  0  0  0
 40 15  1  0  0  0  0
 41 15  1  0  0  0  0
 45 17  1  0  0  0  0
 49 20  1  0  0  0  0
 50 22  1  0  0  0  0
 51 23  1  0  0  0  0
 52 24  1  0  0  0  0
M  END
$$$$
