CSD_code = PULYEA | q = 0 | S = 0 | Stoichiometry = C24H24BClN8ORu | MND = 6
 OpenBabel04212202083D

 60 67  0  0  1  0  0  0  0  0999 V2000
    5.1598    5.3059   10.3573 Ru  0  0  0  0  0  0  0  0  0  0  0  0
    4.7364    6.7091    8.5126 Cl  0  0  0  0  0  0  0  0  0  0  0  0
    6.8045    3.3150   11.7566 N   0  0  0  0  0  0  0  0  0  0  0  0
    5.7769    4.1496   11.9031 N   0  0  1  0  0  0  0  0  0  0  0  0
    5.3548    4.0625   13.1588 C   0  0  0  0  0  3  0  0  0  0  0  0
    6.1378    3.1384   13.8498 C   0  0  0  0  0  0  0  0  0  0  0  0
    7.0483    2.6882   12.9171 C   0  0  0  0  0  0  0  0  0  0  0  0
    6.4915    2.8815    9.3376 N   0  0  0  0  0  0  0  0  0  0  0  0
    5.4407    3.6847    9.1381 N   0  0  2  0  0  0  0  0  0  0  0  0
    4.7857    3.2409    8.0750 C   0  0  0  0  0  3  0  0  0  0  0  0
    5.4265    2.1090    7.5699 C   0  0  0  0  0  0  0  0  0  0  0  0
    6.5071    1.9187    8.4028 C   0  0  0  0  0  0  0  0  0  0  0  0
    8.0624    4.6104   10.0748 N   0  0  0  0  0  0  0  0  0  0  0  0
    7.2098    5.6343    9.9832 N   0  0  1  0  0  0  0  0  0  0  0  0
    7.8937    6.6968    9.5875 C   0  0  0  0  0  3  0  0  0  0  0  0
    9.2367    6.3566    9.4226 C   0  0  0  0  0  0  0  0  0  0  0  0
    9.2965    5.0170    9.7428 C   0  0  0  0  0  0  0  0  0  0  0  0
    7.5395    3.2065   10.4110 B   0  0  1  0  0  0  0  0  0  0  0  0
    4.8379    6.9000   11.4787 N   0  0  0  0  0  0  0  0  0  0  0  0
    5.7359    7.7256   12.0192 C   0  0  0  0  0  3  0  0  0  0  0  0
    5.3912    8.8955   12.6640 C   0  0  0  0  0  0  0  0  0  0  0  0
    4.0462    9.2288   12.7754 C   0  0  0  0  0  0  0  0  0  0  0  0
    3.1017    8.3699   12.2448 C   0  0  0  0  0  0  0  0  0  0  0  0
    3.5317    7.2195   11.5884 C   0  0  0  0  0  0  0  0  0  0  0  0
    2.6726    6.2388   11.1146 N   0  0  0  0  0  0  0  0  0  0  0  0
    1.2514    6.4506   11.1320 C   0  0  0  0  0  0  0  0  0  0  0  0
    0.5291    5.7474   11.7823 O   0  0  0  0  0  0  0  0  0  0  0  0
    0.7955    7.5747   10.2484 C   0  0  0  0  0  0  0  0  0  0  0  0
    3.2762    5.1019   10.6516 C   0  0  1  0  0  3  0  0  0  0  0  0
    2.3526    3.9623   10.3620 C   0  0  0  0  0  0  0  0  0  0  0  0
    1.3143    4.2487    9.3016 C   0  0  0  0  0  0  0  0  0  0  0  0
    0.0724    3.6278    9.3583 C   0  0  0  0  0  0  0  0  0  0  0  0
   -0.8761    3.8622    8.3795 C   0  0  0  0  0  0  0  0  0  0  0  0
   -0.5939    4.7195    7.3287 C   0  0  0  0  0  0  0  0  0  0  0  0
    0.6415    5.3402    7.2651 C   0  0  0  0  0  0  0  0  0  0  0  0
    1.5926    5.1077    8.2450 C   0  0  0  0  0  0  0  0  0  0  0  0
    4.5214    4.6447   13.5096 H   0  0  0  0  0  0  0  0  0  0  0  0
    6.0494    2.8440   14.8749 H   0  0  0  0  0  0  0  0  0  0  0  0
    7.8400    1.9732   13.0078 H   0  0  0  0  0  0  0  0  0  0  0  0
    3.9063    3.7368    7.7107 H   0  0  0  0  0  0  0  0  0  0  0  0
    5.1418    1.5238    6.7203 H   0  0  0  0  0  0  0  0  0  0  0  0
    7.2742    1.1712    8.3890 H   0  0  0  0  0  0  0  0  0  0  0  0
    7.4102    7.6417    9.4211 H   0  0  0  0  0  0  0  0  0  0  0  0
   10.0381    6.9940    9.1107 H   0  0  0  0  0  0  0  0  0  0  0  0
   10.1259    4.3393    9.7545 H   0  0  0  0  0  0  0  0  0  0  0  0
    8.4062    2.4054   10.4462 H   0  0  0  0  0  0  0  0  0  0  0  0
    6.7727    7.4289   11.9264 H   0  0  0  0  0  0  0  0  0  0  0  0
    6.1576    9.5317   13.0755 H   0  0  0  0  0  0  0  0  0  0  0  0
    3.7395   10.1323   13.2778 H   0  0  0  0  0  0  0  0  0  0  0  0
    2.0496    8.5781   12.3460 H   0  0  0  0  0  0  0  0  0  0  0  0
    1.6317    8.1247    9.8281 H   0  0  0  0  0  0  0  0  0  0  0  0
    0.1257    8.2377   10.7927 H   0  0  0  0  0  0  0  0  0  0  0  0
    0.2204    7.1333    9.4341 H   0  0  0  0  0  0  0  0  0  0  0  0
    1.8379    3.6878   11.2899 H   0  0  0  0  0  0  0  0  0  0  0  0
    2.9500    3.1012   10.0466 H   0  0  0  0  0  0  0  0  0  0  0  0
   -0.1553    2.9623   10.1784 H   0  0  0  0  0  0  0  0  0  0  0  0
   -1.8389    3.3758    8.4378 H   0  0  0  0  0  0  0  0  0  0  0  0
   -1.3352    4.9029    6.5645 H   0  0  0  0  0  0  0  0  0  0  0  0
    0.8721    6.0119    6.4512 H   0  0  0  0  0  0  0  0  0  0  0  0
    2.5482    5.6109    8.1914 H   0  0  0  0  0  0  0  0  0  0  0  0
  1 29  1  0  0  0  0
  1 19  1  0  0  0  0
  1  4  1  0  0  0  0
  2  1  1  0  0  0  0
  3  4  1  0  0  0  0
  3  7  1  0  0  0  0
  4  5  1  1  0  0  0
  5 37  1  0  0  0  0
  5  6  1  0  0  0  0
  6 38  1  0  0  0  0
  7 39  1  0  0  0  0
  7  6  2  0  0  0  0
  8 18  1  0  0  0  0
  9 10  1  6  0  0  0
  9  8  1  0  0  0  0
  9  1  1  0  0  0  0
 11 10  1  0  0  0  0
 11 12  2  0  0  0  0
 12  8  1  0  0  0  0
 13 18  1  0  0  0  0
 14 15  1  6  0  0  0
 14 13  1  0  0  0  0
 14  1  1  0  0  0  0
 16 15  1  0  0  0  0
 16 17  2  0  0  0  0
 17 45  1  0  0  0  0
 17 13  1  0  0  0  0
 18 46  1  1  0  0  0
 18  3  1  0  0  0  0
 19 24  1  0  0  0  0
 19 20  1  0  0  0  0
 20 21  1  0  0  0  0
 21 22  2  0  0  0  0
 21 48  1  0  0  0  0
 22 49  1  0  0  0  0
 23 50  1  0  0  0  0
 23 22  1  0  0  0  0
 24 23  2  0  0  0  0
 25 26  1  0  0  0  0
 25 24  1  0  0  0  0
 26 27  2  0  0  0  0
 28 52  1  0  0  0  0
 28 26  1  0  0  0  0
 29 30  1  6  0  0  0
 29 25  1  0  0  0  0
 30 54  1  0  0  0  0
 31 32  1  0  0  0  0
 31 30  1  0  0  0  0
 32 56  1  0  0  0  0
 33 57  1  0  0  0  0
 33 32  2  0  0  0  0
 34 33  1  0  0  0  0
 35 34  2  0  0  0  0
 35 36  1  0  0  0  0
 36 31  2  0  0  0  0
 40 10  1  0  0  0  0
 41 11  1  0  0  0  0
 42 12  1  0  0  0  0
 43 15  1  0  0  0  0
 44 16  1  0  0  0  0
 47 20  1  0  0  0  0
 51 28  1  0  0  0  0
 53 28  1  0  0  0  0
 55 30  1  0  0  0  0
 58 34  1  0  0  0  0
 59 35  1  0  0  0  0
 60 36  1  0  0  0  0
M  END
$$$$
