CSD_code = PUMMUF | q = 0 | S = 0 | Stoichiometry = C15H26ClP2Rh | MND = 5
 OpenBabel04212202083D

 45 42  0  0  0  0  0  0  0  0999 V2000
    4.5184    3.3685    2.3567 Rh  0  0  0  0  0  0  0  0  0  0  0  0
    3.3535    3.3685    4.3048 Cl  0  0  0  0  0 15  0  0  0  0  0  0
    4.3853    1.1038    2.5259 P   0  0  0  0  0  0  0  0  0  0  0  0
    6.1973    3.3685    1.0648 C   0  0  0  0  0  3  0  0  0  0  0  0
    4.9942    3.3685    0.3902 C   0  0  0  0  0  0  0  0  0  0  0  0
    4.3161    3.3685   -0.7450 C   0  0  0  0  0  0  0  0  0  0  0  0
    2.8683    3.3685   -0.8727 C   0  0  0  0  0  0  0  0  0  0  0  0
    2.0349    3.3685    0.2493 C   0  0  0  0  0  0  0  0  0  0  0  0
    0.6621    3.3685    0.1103 C   0  0  0  0  0  0  0  0  0  0  0  0
    0.0869    3.3685   -1.1516 C   0  0  0  0  0  0  0  0  0  0  0  0
    0.8999    3.3685   -2.2731 C   0  0  0  0  0  0  0  0  0  0  0  0
    2.2748    3.3685   -2.1364 C   0  0  0  0  0  0  0  0  0  0  0  0
    5.0981   -0.0048    1.2422 C   0  0  0  0  0  0  0  0  0  0  0  0
    5.0894    0.3646    4.0477 C   0  0  0  0  0  0  0  0  0  0  0  0
    2.6697    0.4638    2.5851 C   0  0  0  0  0  0  0  0  0  0  0  0
    6.7885    4.2792    1.1132 H   0  0  0  0  0  0  0  0  0  0  0  0
    4.8728    3.3685   -1.6785 H   0  0  0  0  0  0  0  0  0  0  0  0
    2.4851    3.3685    1.2490 H   0  0  0  0  0  0  0  0  0  0  0  0
    0.0342    3.3685    0.9900 H   0  0  0  0  0  0  0  0  0  0  0  0
   -0.9879    3.3685   -1.2593 H   0  0  0  0  0  0  0  0  0  0  0  0
    0.4583    3.3685   -3.2596 H   0  0  0  0  0  0  0  0  0  0  0  0
    2.9023    3.3685   -3.0175 H   0  0  0  0  0  0  0  0  0  0  0  0
    6.1825    0.0816    1.2322 H   0  0  0  0  0  0  0  0  0  0  0  0
    4.7158    0.2882    0.2661 H   0  0  0  0  0  0  0  0  0  0  0  0
    4.8256   -1.0395    1.4440 H   0  0  0  0  0  0  0  0  0  0  0  0
    6.1595    0.5650    4.0868 H   0  0  0  0  0  0  0  0  0  0  0  0
    4.6143    0.8324    4.9080 H   0  0  0  0  0  0  0  0  0  0  0  0
    4.9163   -0.7112    4.0665 H   0  0  0  0  0  0  0  0  0  0  0  0
    2.6702   -0.6082    2.7809 H   0  0  0  0  0  0  0  0  0  0  0  0
    2.1315    0.9835    3.3757 H   0  0  0  0  0  0  0  0  0  0  0  0
    2.1794    0.6636    1.6330 H   0  0  0  0  0  0  0  0  0  0  0  0
    4.3853    5.6332    2.5259 P   0  0  0  0  0  0  0  0  0  0  0  0
    5.0981    6.7418    1.2422 C   0  0  0  0  0  0  0  0  0  0  0  0
    6.1826    6.6554    1.2322 H   0  0  0  0  0  0  0  0  0  0  0  0
    4.7158    6.4488    0.2661 H   0  0  0  0  0  0  0  0  0  0  0  0
    4.8256    7.7765    1.4440 H   0  0  0  0  0  0  0  0  0  0  0  0
    5.0894    6.3724    4.0476 C   0  0  0  0  0  0  0  0  0  0  0  0
    6.1595    6.1720    4.0868 H   0  0  0  0  0  0  0  0  0  0  0  0
    4.6143    5.9046    4.9080 H   0  0  0  0  0  0  0  0  0  0  0  0
    4.9163    7.4482    4.0665 H   0  0  0  0  0  0  0  0  0  0  0  0
    2.6697    6.2732    2.5851 C   0  0  0  0  0  0  0  0  0  0  0  0
    2.6702    7.3452    2.7809 H   0  0  0  0  0  0  0  0  0  0  0  0
    2.1315    5.7535    3.3757 H   0  0  0  0  0  0  0  0  0  0  0  0
    2.1794    6.0734    1.6330 H   0  0  0  0  0  0  0  0  0  0  0  0
    6.7885    2.4578    1.1132 H   0  0  0  0  0  0  0  0  0  0  0  0
  3 15  1  0  0  0  0
  3 14  1  0  0  0  0
  4 45  1  0  0  0  0
  4 16  1  0  0  0  0
  5  4  1  0  0  0  0
  5  1  1  0  0  0  0
  6  5  2  0  0  0  0
  7  6  1  0  0  0  0
  7  8  1  0  0  0  0
  8 18  1  0  0  0  0
  9  8  2  0  0  0  0
  9 19  1  0  0  0  0
 10  9  1  0  0  0  0
 11 12  1  0  0  0  0
 11 10  2  0  0  0  0
 12  7  2  0  0  0  0
 13 25  1  0  0  0  0
 13  3  1  0  0  0  0
 14 28  1  0  0  0  0
 14 26  1  0  0  0  0
 14 27  1  0  0  0  0
 15 29  1  0  0  0  0
 15 30  1  0  0  0  0
 17  6  1  0  0  0  0
 20 10  1  0  0  0  0
 21 11  1  0  0  0  0
 22 12  1  0  0  0  0
 23 13  1  0  0  0  0
 24 13  1  0  0  0  0
 31 15  1  0  0  0  0
 32 41  1  0  0  0  0
 32 37  1  0  0  0  0
 33 36  1  0  0  0  0
 33 32  1  0  0  0  0
 34 33  1  0  0  0  0
 35 33  1  0  0  0  0
 37 40  1  0  0  0  0
 37 38  1  0  0  0  0
 37 39  1  0  0  0  0
 41 42  1  0  0  0  0
 41 43  1  0  0  0  0
 44 41  1  0  0  0  0
M  END
$$$$
