CSD_code = PUMPIW | q = 0 | S = 0 | Stoichiometry = C20H24F2Zr | MND = 12
 OpenBabel04212202083D

 47 51  0  0  1  0  0  0  0  0999 V2000
   10.8130    4.3758   12.1049 C   0  0  1  0  0  3  0  0  0  0  0  0
    9.6677    3.5515   12.2449 C   0  0  0  0  0  0  0  0  0  0  0  0
    9.8496    2.3960   11.4442 C   0  0  0  0  0  0  0  0  0  0  0  0
   11.1216    2.4813   10.8377 C   0  0  2  0  0  3  0  0  0  0  0  0
   11.7290    3.6953   11.2570 C   0  0  1  0  0  0  0  0  0  0  0  0
   13.0495    4.1633   10.7050 C   0  0  0  0  0  0  0  0  0  0  0  0
   13.8140    2.9478   10.1733 C   0  0  0  0  0  0  0  0  0  0  0  0
   12.9455    2.1869    9.1701 C   0  0  0  0  0  0  0  0  0  0  0  0
   11.7615    1.5157    9.8738 C   0  0  0  0  0  0  0  0  0  0  0  0
   11.0026    5.7351   12.7238 C   0  0  0  0  0  0  0  0  0  0  0  0
   12.8347    1.0434   12.6927 F   0  0  0  0  0  0  0  0  0  0  0  0
   11.5620    2.3217   13.2623 Zr  0  0  0  0  0  0  0  0  0  0  0  0
    8.7413    3.8312   12.7344 H   0  0  0  0  0  0  0  0  0  0  0  0
    9.1141    1.6185   11.2742 H   0  0  0  0  0  0  0  0  0  0  0  0
   13.6428    4.6863   11.4612 H   0  0  0  0  0  0  0  0  0  0  0  0
   12.8761    4.8687    9.8817 H   0  0  0  0  0  0  0  0  0  0  0  0
   14.7399    3.2721    9.6930 H   0  0  0  0  0  0  0  0  0  0  0  0
   14.0714    2.2851   11.0071 H   0  0  0  0  0  0  0  0  0  0  0  0
   13.5413    1.4311    8.6554 H   0  0  0  0  0  0  0  0  0  0  0  0
   12.5728    2.8896    8.4203 H   0  0  0  0  0  0  0  0  0  0  0  0
   11.0272    1.1814    9.1343 H   0  0  0  0  0  0  0  0  0  0  0  0
   12.1131    0.6269   10.4132 H   0  0  0  0  0  0  0  0  0  0  0  0
   10.0580    6.0485   13.1756 H   0  0  0  0  0  0  0  0  0  0  0  0
   11.2514    6.4681   11.9505 H   0  0  0  0  0  0  0  0  0  0  0  0
   12.1214    5.7351   13.8007 C   0  0  0  0  0  0  0  0  0  0  0  0
   12.3110    4.3759   14.4196 C   0  0  0  0  0  0  0  0  0  0  0  0
   13.4563    3.5516   14.2797 C   0  0  0  0  0  0  0  0  0  0  0  0
   13.2745    2.3961   15.0804 C   0  0  0  0  0  0  0  0  0  0  0  0
   12.0025    2.4814   15.6869 C   0  0  0  0  0  0  0  0  0  0  0  0
   11.3951    3.6953   15.2676 C   0  0  2  0  0  0  0  0  0  0  0  0
   14.3826    3.8312   13.7900 H   0  0  0  0  0  0  0  0  0  0  0  0
   14.0100    1.6186   15.2503 H   0  0  0  0  0  0  0  0  0  0  0  0
   11.3625    1.5157   16.6507 C   0  0  0  0  0  0  0  0  0  0  0  0
   10.1784    2.1869   17.3544 C   0  0  0  0  0  0  0  0  0  0  0  0
    9.3100    2.9478   16.3512 C   0  0  0  0  0  0  0  0  0  0  0  0
   10.0745    4.1633   15.8196 C   0  0  0  0  0  0  0  0  0  0  0  0
   10.2890    1.0435   13.8312 F   0  0  0  0  0  0  0  0  0  0  0  0
    9.4812    4.6863   15.0633 H   0  0  0  0  0  0  0  0  0  0  0  0
   10.2479    4.8687   16.6429 H   0  0  0  0  0  0  0  0  0  0  0  0
    8.3841    3.2720   16.8315 H   0  0  0  0  0  0  0  0  0  0  0  0
    9.0526    2.2851   15.5174 H   0  0  0  0  0  0  0  0  0  0  0  0
    9.5826    1.4311   17.8690 H   0  0  0  0  0  0  0  0  0  0  0  0
   10.5511    2.8895   18.1042 H   0  0  0  0  0  0  0  0  0  0  0  0
   12.0969    1.1815   17.3903 H   0  0  0  0  0  0  0  0  0  0  0  0
   11.0110    0.6269   16.1113 H   0  0  0  0  0  0  0  0  0  0  0  0
   13.0660    6.0485   13.3488 H   0  0  0  0  0  0  0  0  0  0  0  0
   11.8726    6.4681   14.5739 H   0  0  0  0  0  0  0  0  0  0  0  0
  1  2  1  6  0  0  0
  1 10  1  0  0  0  0
  2 13  1  0  0  0  0
  3  2  2  0  0  0  0
  4  5  1  0  0  0  0
  4  3  1  6  0  0  0
  5  6  1  6  0  0  0
  5  1  1  0  0  0  0
  5 12  1  0  0  0  0
  6 15  1  0  0  0  0
  7  6  1  0  0  0  0
  7 18  1  0  0  0  0
  8  9  1  0  0  0  0
  8  7  1  0  0  0  0
  9 22  1  0  0  0  0
  9  4  1  0  0  0  0
 10 23  1  0  0  0  0
 10 25  1  0  0  0  0
 11 12  1  0  0  0  0
 12 37  1  0  0  0  0
 12 30  1  0  0  0  0
 14  3  1  0  0  0  0
 16  6  1  0  0  0  0
 17  7  1  0  0  0  0
 19  8  1  0  0  0  0
 20  8  1  0  0  0  0
 21  9  1  0  0  0  0
 24 10  1  0  0  0  0
 25 26  1  0  0  0  0
 25 47  1  0  0  0  0
 27 26  2  0  0  0  0
 27 28  1  0  0  0  0
 28 32  1  0  0  0  0
 28 29  2  0  0  0  0
 29 33  1  0  0  0  0
 30 26  1  6  0  0  0
 30 29  1  0  0  0  0
 30 36  1  0  0  0  0
 31 27  1  0  0  0  0
 33 34  1  0  0  0  0
 33 44  1  0  0  0  0
 34 42  1  0  0  0  0
 34 43  1  0  0  0  0
 35 40  1  0  0  0  0
 35 34  1  0  0  0  0
 36 35  1  0  0  0  0
 36 39  1  0  0  0  0
 38 36  1  0  0  0  0
 41 35  1  0  0  0  0
 45 33  1  0  0  0  0
 46 25  1  0  0  0  0
M  END
$$$$
