CSD_code = PUMYUT | q = 1 | S = 0 | Stoichiometry = C15H20F3IIrN4O4(1+) | MND = 6
 OpenBabel04212202083D

 48 50  0  0  1  0  0  0  0  0999 V2000
    3.2169    8.3192   10.0834 Ir  0  0  1  0  0  0  0  0  0  0  0  0
    4.3219    8.7825    7.7373 I   0  0  0  0  0  0  0  0  0  0  0  0
    0.6237    7.9854    8.6194 N   0  0  0  0  0  0  0  0  0  0  0  0
    1.3847    8.7215    9.4472 C   0  0  1  0  0  3  0  0  0  0  0  0
    0.6070    9.7002    9.9272 N   0  0  0  0  0  0  0  0  0  0  0  0
   -0.6515    9.5817    9.4009 C   0  0  0  0  0  0  0  0  0  0  0  0
   -1.4444   10.2576    9.6468 H   0  0  0  0  0  0  0  0  0  0  0  0
   -0.6438    8.5018    8.5844 C   0  0  0  0  0  0  0  0  0  0  0  0
   -1.4268    8.0769    7.9916 H   0  0  0  0  0  0  0  0  0  0  0  0
    1.0309   10.6903   10.8920 C   0  0  0  0  0  0  0  0  0  0  0  0
    1.1743   10.2114   11.8667 H   0  0  0  0  0  0  0  0  0  0  0  0
    0.2434   11.4398   10.9808 H   0  0  0  0  0  0  0  0  0  0  0  0
    2.3363   11.3741   10.4883 C   0  0  0  0  0  0  0  0  0  0  0  0
    2.2985   11.6798    9.4319 H   0  0  0  0  0  0  0  0  0  0  0  0
    2.4664   12.2706   11.1084 H   0  0  0  0  0  0  0  0  0  0  0  0
    3.4442   10.5116   10.7035 O   0  0  0  0  0  0  0  0  0  0  0  0
    4.6752   11.1793   10.4536 C   0  0  0  0  0  0  0  0  0  0  0  0
    4.8115   11.9904   11.1749 H   0  0  0  0  0  0  0  0  0  0  0  0
    4.7028   11.5908    9.4405 H   0  0  0  0  0  0  0  0  0  0  0  0
    5.4796   10.4556   10.5636 H   0  0  0  0  0  0  0  0  0  0  0  0
    1.9263    5.9882    8.7221 N   0  0  0  0  0  0  0  0  0  0  0  0
    2.8677    6.4270    9.5783 C   0  0  2  0  0  3  0  0  0  0  0  0
    3.4594    5.3405   10.0937 N   0  0  0  0  0  0  0  0  0  0  0  0
    2.8812    4.2137    9.5718 C   0  0  0  0  0  0  0  0  0  0  0  0
    3.1928    3.2278    9.8484 H   0  0  0  0  0  0  0  0  0  0  0  0
    1.9162    4.6196    8.7148 C   0  0  0  0  0  0  0  0  0  0  0  0
    1.2437    4.0480    8.1099 H   0  0  0  0  0  0  0  0  0  0  0  0
    4.5433    5.3446   11.0526 C   0  0  0  0  0  0  0  0  0  0  0  0
    5.0035    4.3552   11.0465 H   0  0  0  0  0  0  0  0  0  0  0  0
    4.1423    5.5312   12.0554 H   0  0  0  0  0  0  0  0  0  0  0  0
    5.6049    6.4009   10.7103 C   0  0  0  0  0  0  0  0  0  0  0  0
    6.5260    6.1719   11.2571 H   0  0  0  0  0  0  0  0  0  0  0  0
    5.8167    6.3785    9.6358 H   0  0  0  0  0  0  0  0  0  0  0  0
    5.2028    7.7273   11.0099 O   0  0  0  0  0  0  0  0  0  0  0  0
    5.4085    8.0857   12.3719 C   0  0  0  0  0  0  0  0  0  0  0  0
    6.4797    8.0806   12.5928 H   0  0  0  0  0  0  0  0  0  0  0  0
    4.8915    7.4117   13.0582 H   0  0  0  0  0  0  0  0  0  0  0  0
    5.0107    9.0880   12.5115 H   0  0  0  0  0  0  0  0  0  0  0  0
    1.0940    6.8307    7.8954 C   0  0  0  0  0  0  0  0  0  0  0  0
    0.2319    6.2498    7.5559 H   0  0  0  0  0  0  0  0  0  0  0  0
    1.6792    7.1647    7.0227 H   0  0  0  0  0  0  0  0  0  0  0  0
    2.4727    7.9569   12.0264 O   0  0  0  0  0  0  0  0  0  0  0  0
    0.7455    6.7532   11.3149 O   0  0  0  0  0  0  0  0  0  0  0  0
    1.4618    7.2242   12.1751 C   0  0  0  0  0  0  0  0  0  0  0  0
    1.2034    6.9111   13.6839 C   0  0  0  0  0  0  0  0  0  0  0  0
    1.0061    8.0362   14.3828 F   0  0  0  0  0  0  0  0  0  0  0  0
    2.2930    6.3072   14.1992 F   0  0  0  0  0  0  0  0  0  0  0  0
    0.1651    6.1099   13.8817 F   0  0  0  0  0  0  0  0  0  0  0  0
  1  2  1  6  0  0  0
  1 42  1  0  0  0  0
  4  3  1  1  0  0  0
  4  5  1  0  0  0  0
  4  1  1  0  0  0  0
  5 10  1  0  0  0  0
  6  7  1  0  0  0  0
  6  5  1  0  0  0  0
  8  3  1  0  0  0  0
  8  6  2  0  0  0  0
  9  8  1  0  0  0  0
 10 12  1  0  0  0  0
 10 11  1  0  0  0  0
 13 16  1  0  0  0  0
 13 10  1  0  0  0  0
 13 15  1  0  0  0  0
 14 13  1  0  0  0  0
 17 20  1  0  0  0  0
 17 16  1  0  0  0  0
 17 18  1  0  0  0  0
 19 17  1  0  0  0  0
 22 21  1  1  0  0  0
 22  1  1  0  0  0  0
 22 23  1  0  0  0  0
 23 28  1  0  0  0  0
 24 25  1  0  0  0  0
 24 23  1  0  0  0  0
 26 21  1  0  0  0  0
 26 24  2  0  0  0  0
 27 26  1  0  0  0  0
 28 30  1  0  0  0  0
 29 28  1  0  0  0  0
 31 34  1  0  0  0  0
 31 28  1  0  0  0  0
 31 32  1  0  0  0  0
 33 31  1  0  0  0  0
 34 35  1  0  0  0  0
 35 38  1  0  0  0  0
 35 36  1  0  0  0  0
 35 37  1  0  0  0  0
 39  3  1  0  0  0  0
 39 21  1  0  0  0  0
 40 39  1  0  0  0  0
 41 39  1  0  0  0  0
 42 44  1  0  0  0  0
 43 44  2  0  0  0  0
 44 45  1  0  0  0  0
 45 48  1  0  0  0  0
 45 47  1  0  0  0  0
 45 46  1  0  0  0  0
M  END
$$$$
