CSD_code = PUNCOS | q = 1 | S = 0 | Stoichiometry = C13H8ClN2O3Ru(1+) | MND = 6
 OpenBabel04212202083D

 28 30  0  0  0  0  0  0  0  0999 V2000
    0.5833    2.6946    2.1094 Ru  0  0  0  0  0  0  0  0  0  0  0  0
    2.4376    2.3263    3.5019 Cl  0  0  0  0  0  0  0  0  0  0  0  0
    1.7751    3.8692    1.2114 C   0  0  0  0  0  2  0  0  0  0  0  0
    2.6033    4.5232    0.8153 O   0  0  0  0  0  1  0  0  0  0  0  0
   -0.9748    2.9947    1.0766 C   0  0  0  0  0  2  0  0  0  0  0  0
   -1.9170    3.1721    0.4737 O   0  0  0  0  0  1  0  0  0  0  0  0
    1.3342    1.2554    1.1234 C   0  0  0  0  0  2  0  0  0  0  0  0
    1.9095    0.3939    0.6792 O   0  0  0  0  0  1  0  0  0  0  0  0
   -0.4058    1.4838    3.4514 N   0  0  0  0  0  0  0  0  0  0  0  0
   -0.5751    2.0540    4.6615 C   0  0  0  0  0  0  0  0  0  0  0  0
   -0.9963    1.3036    5.7579 C   0  0  0  0  0  0  0  0  0  0  0  0
   -1.1205    1.7646    6.7232 H   0  0  0  0  0  0  0  0  0  0  0  0
   -1.2450   -0.0495    5.6049 C   0  0  0  0  0  0  0  0  0  0  0  0
   -1.5584   -0.6458    6.4473 H   0  0  0  0  0  0  0  0  0  0  0  0
   -1.0870   -0.6177    4.3502 C   0  0  0  0  0  0  0  0  0  0  0  0
   -1.2782   -1.6648    4.1810 H   0  0  0  0  0  0  0  0  0  0  0  0
   -0.6643    0.1856    3.3044 C   0  0  0  0  0  0  0  0  0  0  0  0
   -0.5377   -0.2317    2.3123 H   0  0  0  0  0  0  0  0  0  0  0  0
    0.0409    4.0683    3.5465 N   0  0  0  0  0  0  0  0  0  0  0  0
   -0.3171    3.5016    4.7166 C   0  0  0  0  0  0  0  0  0  0  0  0
   -0.4525    4.2655    5.8745 C   0  0  0  0  0  0  0  0  0  0  0  0
   -0.7247    3.8030    6.8082 H   0  0  0  0  0  0  0  0  0  0  0  0
   -0.2188    5.6290    5.8248 C   0  0  0  0  0  0  0  0  0  0  0  0
   -0.3049    6.2307    6.7158 H   0  0  0  0  0  0  0  0  0  0  0  0
    0.1228    6.2019    4.6094 C   0  0  0  0  0  0  0  0  0  0  0  0
    0.3030    7.2607    4.5198 H   0  0  0  0  0  0  0  0  0  0  0  0
    0.2439    5.3837    3.4988 C   0  0  0  0  0  0  0  0  0  0  0  0
    0.5064    5.8060    2.5358 H   0  0  0  0  0  0  0  0  0  0  0  0
  1  9  1  0  0  0  0
  1  2  1  0  0  0  0
  1 19  1  0  0  0  0
  3  1  1  0  0  0  0
  4  3  1  0  0  0  0
  5  1  1  0  0  0  0
  6  5  1  0  0  0  0
  7  1  1  0  0  0  0
  8  7  1  0  0  0  0
  9 10  1  0  0  0  0
 10 20  2  0  0  0  0
 10 11  1  0  0  0  0
 11 12  1  0  0  0  0
 13 11  2  0  0  0  0
 13 14  1  0  0  0  0
 15 13  1  0  0  0  0
 16 15  1  0  0  0  0
 17  9  1  0  0  0  0
 17 15  2  0  0  0  0
 18 17  1  0  0  0  0
 19 20  1  0  0  0  0
 20 21  1  0  0  0  0
 21 22  1  0  0  0  0
 23 21  2  0  0  0  0
 23 24  1  0  0  0  0
 25 23  1  0  0  0  0
 26 25  1  0  0  0  0
 27 19  1  0  0  0  0
 27 25  2  0  0  0  0
 28 27  1  0  0  0  0
M  END
$$$$
