CSD_code = PUNCIM | q = 1 | S = 0 | Stoichiometry = C13H8ClN2O3Ru(1+) | MND = 6
 OpenBabel04212202083D

 28 30  0  0  1  0  0  0  0  0999 V2000
    4.1587   -3.2388   12.7240 Ru  0  0  0  0  0  0  0  0  0  0  0  0
    5.7325   -3.7593   11.8092 C   0  0  0  0  0  2  0  0  0  0  0  0
    6.6839   -4.0686   11.2782 O   0  0  0  0  0  1  0  0  0  0  0  0
    2.9662   -1.1777   10.8723 O   0  0  0  0  0  1  0  0  0  0  0  0
    3.4917   -1.9676   11.4810 C   0  0  0  0  0  2  0  0  0  0  0  0
    2.9462   -4.5104   12.0025 C   0  0  0  0  0  2  0  0  0  0  0  0
    2.1016   -5.1936   11.7019 O   0  0  0  0  0  1  0  0  0  0  0  0
    2.2809   -2.5871   13.9740 Cl  0  0  0  0  0  0  0  0  0  0  0  0
    5.1509   -1.8482   13.8761 N   0  0  0  0  0  0  0  0  0  0  0  0
    5.4549   -0.6005   13.5231 C   0  0  0  0  0  3  0  0  0  0  0  0
    5.3733   -0.3534   12.4710 H   0  0  0  0  0  0  0  0  0  0  0  0
    5.8697    0.3565   14.4339 C   0  0  0  0  0  0  0  0  0  0  0  0
    6.0993    1.3546   14.0984 H   0  0  0  0  0  0  0  0  0  0  0  0
    5.9689    0.0047   15.7712 C   0  0  0  0  0  0  0  0  0  0  0  0
    6.2732    0.7266   16.5126 H   0  0  0  0  0  0  0  0  0  0  0  0
    5.6734   -1.2965   16.1398 C   0  0  0  0  0  0  0  0  0  0  0  0
    5.7512   -1.5907   17.1728 H   0  0  0  0  0  0  0  0  0  0  0  0
    5.2645   -2.2104   15.1701 C   0  0  0  0  0  0  0  0  0  0  0  0
    4.9611   -3.6212   15.4575 C   0  0  2  0  0  3  0  0  0  0  0  0
    5.0454   -4.1847   16.7295 C   0  0  0  0  0  0  0  0  0  0  0  0
    5.3096   -3.5805   17.5809 H   0  0  0  0  0  0  0  0  0  0  0  0
    4.7723   -5.5311   16.8999 C   0  0  0  0  0  0  0  0  0  0  0  0
    4.8194   -5.9780   17.8804 H   0  0  0  0  0  0  0  0  0  0  0  0
    4.4429   -6.2896   15.7872 C   0  0  0  0  0  0  0  0  0  0  0  0
    4.2332   -7.3435   15.8693 H   0  0  0  0  0  0  0  0  0  0  0  0
    4.3735   -5.6650   14.5531 C   0  0  0  0  0  0  0  0  0  0  0  0
    4.1217   -6.2351   13.6664 H   0  0  0  0  0  0  0  0  0  0  0  0
    4.6150   -4.3658   14.3878 N   0  0  0  0  0  0  0  0  0  0  0  0
  1  9  1  0  0  0  0
  1  8  1  0  0  0  0
  1 28  1  0  0  0  0
  2  1  1  0  0  0  0
  3  2  1  0  0  0  0
  4  5  1  0  0  0  0
  5  1  1  0  0  0  0
  6  1  1  0  0  0  0
  7  6  1  0  0  0  0
  9 18  1  0  0  0  0
 10  9  1  0  0  0  0
 10 12  1  0  0  0  0
 11 10  1  0  0  0  0
 12 14  2  0  0  0  0
 13 12  1  0  0  0  0
 14 16  1  0  0  0  0
 14 15  1  0  0  0  0
 16 17  1  0  0  0  0
 18 16  2  0  0  0  0
 19 18  1  6  0  0  0
 19 20  1  0  0  0  0
 20 22  2  0  0  0  0
 20 21  1  0  0  0  0
 22 23  1  0  0  0  0
 24 25  1  0  0  0  0
 24 22  1  0  0  0  0
 26 24  2  0  0  0  0
 27 26  1  0  0  0  0
 28 26  1  0  0  0  0
 28 19  1  0  0  0  0
M  END
$$$$
