CSD_code = PUNGIP | q = 0 | S = 0 | Stoichiometry = C10H20Cl2N4Pt | MND = 4
 OpenBabel04212202083D

 37 38  0  0  1  0  0  0  0  0999 V2000
    0.0004    0.0011    0.0032 Pt  0  0  0  0  0  0  0  0  0  0  0  0
    0.2316    1.7607    1.4789 Cl  0  0  0  0  0  0  0  0  0  0  0  0
    1.1747    0.7868   -1.4479 N   0  0  0  0  0  0  0  0  0  0  0  0
    1.4001    0.0706   -2.1364 H   0  0  0  0  0  0  0  0  0  0  0  0
    1.4196    3.0145   -0.9824 N   0  0  0  0  0  0  0  0  0  0  0  0
    0.9254    2.8196   -0.0993 H   0  0  0  0  0  0  0  0  0  0  0  0
    1.6668    1.9521   -1.7435 C   0  0  2  0  0  3  0  0  0  0  0  0
    1.9924    4.3047   -1.1464 C   0  0  0  0  0  0  0  0  0  0  0  0
    1.8722    4.7181   -2.1423 H   0  0  0  0  0  0  0  0  0  0  0  0
    2.5097    2.1484   -2.9725 C   0  0  0  0  0  0  0  0  0  0  0  0
    2.7141    1.1989   -3.4597 H   0  0  0  0  0  0  0  0  0  0  0  0
    3.4516    2.6218   -2.7021 H   0  0  0  0  0  0  0  0  0  0  0  0
    1.9920    2.7978   -3.6769 H   0  0  0  0  0  0  0  0  0  0  0  0
    1.9306    5.2388    0.0180 C   0  0  0  0  0  0  0  0  0  0  0  0
    1.4747    4.8664    0.9222 H   0  0  0  0  0  0  0  0  0  0  0  0
    1.7476    6.2851   -0.1708 H   0  0  0  0  0  0  0  0  0  0  0  0
    3.2490    4.6521   -0.3890 C   0  0  0  0  0  0  0  0  0  0  0  0
    3.9789    5.2891   -0.8644 H   0  0  0  0  0  0  0  0  0  0  0  0
    3.6723    3.8885    0.2447 H   0  0  0  0  0  0  0  0  0  0  0  0
   -0.2256   -1.7591   -1.4734 Cl  0  0  0  0  0  0  0  0  0  0  0  0
   -1.1754   -0.7856    1.4538 N   0  0  0  0  0  0  0  0  0  0  0  0
   -1.4023   -0.0708    2.1433 H   0  0  0  0  0  0  0  0  0  0  0  0
   -1.4208   -3.0119    0.9816 N   0  0  0  0  0  0  0  0  0  0  0  0
   -0.9246   -2.8154    0.0999 H   0  0  0  0  0  0  0  0  0  0  0  0
   -1.6684   -1.9515    1.7454 C   0  0  1  0  0  3  0  0  0  0  0  0
   -1.9911   -4.3033    1.1440 C   0  0  0  0  0  0  0  0  0  0  0  0
   -1.8697   -4.7179    2.1393 H   0  0  0  0  0  0  0  0  0  0  0  0
   -2.5133   -2.1521    2.9724 C   0  0  0  0  0  0  0  0  0  0  0  0
   -2.7189   -1.2046    3.4628 H   0  0  0  0  0  0  0  0  0  0  0  0
   -3.4545   -2.6251    2.6987 H   0  0  0  0  0  0  0  0  0  0  0  0
   -1.9966   -2.8041    3.6751 H   0  0  0  0  0  0  0  0  0  0  0  0
   -1.9285   -5.2363   -0.0213 C   0  0  0  0  0  0  0  0  0  0  0  0
   -1.4739   -4.8628   -0.9257 H   0  0  0  0  0  0  0  0  0  0  0  0
   -1.7434   -6.2822    0.1671 H   0  0  0  0  0  0  0  0  0  0  0  0
   -3.2477   -4.6524    0.3871 C   0  0  0  0  0  0  0  0  0  0  0  0
   -3.9763   -5.2909    0.8626 H   0  0  0  0  0  0  0  0  0  0  0  0
   -3.6726   -3.8892   -0.2459 H   0  0  0  0  0  0  0  0  0  0  0  0
  1 21  1  0  0  0  0
  1  2  1  0  0  0  0
  3  1  1  0  0  0  0
  4  3  1  0  0  0  0
  5  6  1  0  0  0  0
  7 10  1  6  0  0  0
  7  3  1  0  0  0  0
  7  5  1  0  0  0  0
  8  5  1  0  0  0  0
  8 17  1  0  0  0  0
  8 14  1  0  0  0  0
  9  8  1  0  0  0  0
 10 12  1  0  0  0  0
 11 10  1  0  0  0  0
 13 10  1  0  0  0  0
 14 15  1  0  0  0  0
 16 14  1  0  0  0  0
 17 14  1  0  0  0  0
 17 19  1  0  0  0  0
 18 17  1  0  0  0  0
 20  1  1  0  0  0  0
 21 25  1  0  0  0  0
 21 22  1  0  0  0  0
 23 26  1  0  0  0  0
 24 23  1  0  0  0  0
 25 23  1  1  0  0  0
 25 28  1  0  0  0  0
 26 27  1  0  0  0  0
 28 29  1  0  0  0  0
 28 31  1  0  0  0  0
 30 28  1  0  0  0  0
 32 34  1  0  0  0  0
 32 35  1  0  0  0  0
 32 26  1  0  0  0  0
 33 32  1  0  0  0  0
 35 36  1  0  0  0  0
 35 26  1  0  0  0  0
 37 35  1  0  0  0  0
M  END
$$$$
