CSD_code = PUNKEP | q = 0 | S = 0 | Stoichiometry = C32H30Cl2N2O2Pd | MND = 4
 OpenBabel04212202083D

 69 72  0  0  1  0  0  0  0  0999 V2000
    0.0001    0.0003   -0.0003 Pd  0  0  0  0  0  0  0  0  0  0  0  0
   -0.6270   -2.1892    0.3715 Cl  0  0  0  0  0  0  0  0  0  0  0  0
    4.9092   -0.3852    1.3078 O   0  0  0  0  0  0  0  0  0  0  0  0
    1.6605   -0.4173    0.9364 N   0  0  0  0  0  0  0  0  0  0  0  0
    2.7534   -0.6179    0.3138 C   0  0  2  0  0  3  0  0  0  0  0  0
    1.5904   -0.5555    2.3744 C   0  0  0  0  0  0  0  0  0  0  0  0
    2.3532   -1.2565    2.7398 H   0  0  0  0  0  0  0  0  0  0  0  0
    0.5935   -0.9429    2.6247 H   0  0  0  0  0  0  0  0  0  0  0  0
    1.7990    0.8194    3.0109 C   0  0  0  0  0  0  0  0  0  0  0  0
    1.6000    0.7721    4.0781 H   0  0  0  0  0  0  0  0  0  0  0  0
    1.1306    1.5469    2.5490 H   0  0  0  0  0  0  0  0  0  0  0  0
    2.8245    1.1493    2.8564 H   0  0  0  0  0  0  0  0  0  0  0  0
    4.0221   -1.1300    0.9551 C   0  0  0  0  0  0  0  0  0  0  0  0
    4.1015   -2.6025    1.0341 C   0  0  0  0  0  0  0  0  0  0  0  0
    3.0154   -3.4263    0.7298 C   0  0  0  0  0  0  0  0  0  0  0  0
    2.0591   -3.0090    0.4481 H   0  0  0  0  0  0  0  0  0  0  0  0
    3.1523   -4.7988    0.8181 C   0  0  0  0  0  0  0  0  0  0  0  0
    2.3086   -5.4313    0.5879 H   0  0  0  0  0  0  0  0  0  0  0  0
    4.3611   -5.3599    1.2004 C   0  0  0  0  0  0  0  0  0  0  0  0
    4.4611   -6.4335    1.2608 H   0  0  0  0  0  0  0  0  0  0  0  0
    5.4422   -4.5464    1.5058 C   0  0  0  0  0  0  0  0  0  0  0  0
    6.3823   -4.9844    1.8061 H   0  0  0  0  0  0  0  0  0  0  0  0
    5.3137   -3.1748    1.4265 C   0  0  0  0  0  0  0  0  0  0  0  0
    6.1402   -2.5202    1.6609 H   0  0  0  0  0  0  0  0  0  0  0  0
    2.8549   -0.3384   -1.1303 C   0  0  0  0  0  0  0  0  0  0  0  0
    3.8699    0.4963   -1.5907 C   0  0  0  0  0  0  0  0  0  0  0  0
    4.5933    0.8902   -0.8927 H   0  0  0  0  0  0  0  0  0  0  0  0
    3.9195    0.8494   -2.9270 C   0  0  0  0  0  0  0  0  0  0  0  0
    4.6950    1.5148   -3.2749 H   0  0  0  0  0  0  0  0  0  0  0  0
    2.9750    0.3591   -3.8133 C   0  0  0  0  0  0  0  0  0  0  0  0
    3.0141    0.6422   -4.8547 H   0  0  0  0  0  0  0  0  0  0  0  0
    1.9869   -0.5047   -3.3677 C   0  0  0  0  0  0  0  0  0  0  0  0
    1.2700   -0.9110   -4.0665 H   0  0  0  0  0  0  0  0  0  0  0  0
    1.9146   -0.8562   -2.0290 C   0  0  0  0  0  0  0  0  0  0  0  0
    1.1886   -1.6011   -1.6984 H   0  0  0  0  0  0  0  0  0  0  0  0
    0.6276    2.1897   -0.3712 Cl  0  0  0  0  0  0  0  0  0  0  0  0
   -4.9092    0.3852   -1.3078 O   0  0  0  0  0  0  0  0  0  0  0  0
   -1.6606    0.4171   -0.9365 N   0  0  0  0  0  0  0  0  0  0  0  0
   -2.7534    0.6178   -0.3138 C   0  0  1  0  0  3  0  0  0  0  0  0
   -1.5905    0.5554   -2.3745 C   0  0  0  0  0  0  0  0  0  0  0  0
   -2.3533    1.2564   -2.7398 H   0  0  0  0  0  0  0  0  0  0  0  0
   -0.5936    0.9429   -2.6247 H   0  0  0  0  0  0  0  0  0  0  0  0
   -1.7989   -0.8195   -3.0110 C   0  0  0  0  0  0  0  0  0  0  0  0
   -1.5998   -0.7721   -4.0781 H   0  0  0  0  0  0  0  0  0  0  0  0
   -1.1304   -1.5470   -2.5491 H   0  0  0  0  0  0  0  0  0  0  0  0
   -2.8244   -1.1495   -2.8565 H   0  0  0  0  0  0  0  0  0  0  0  0
   -4.0221    1.1299   -0.9550 C   0  0  0  0  0  0  0  0  0  0  0  0
   -4.1015    2.6024   -1.0341 C   0  0  0  0  0  0  0  0  0  0  0  0
   -3.0153    3.4262   -0.7300 C   0  0  0  0  0  0  0  0  0  0  0  0
   -2.0591    3.0090   -0.4480 H   0  0  0  0  0  0  0  0  0  0  0  0
   -3.1522    4.7988   -0.8182 C   0  0  0  0  0  0  0  0  0  0  0  0
   -2.3087    5.4312   -0.5877 H   0  0  0  0  0  0  0  0  0  0  0  0
   -4.3611    5.3599   -1.2004 C   0  0  0  0  0  0  0  0  0  0  0  0
   -4.4611    6.4334   -1.2608 H   0  0  0  0  0  0  0  0  0  0  0  0
   -5.4423    4.5464   -1.5057 C   0  0  0  0  0  0  0  0  0  0  0  0
   -6.3822    4.9843   -1.8063 H   0  0  0  0  0  0  0  0  0  0  0  0
   -5.3137    3.1747   -1.4265 C   0  0  0  0  0  0  0  0  0  0  0  0
   -6.1401    2.5201   -1.6610 H   0  0  0  0  0  0  0  0  0  0  0  0
   -2.8549    0.3384    1.1303 C   0  0  0  0  0  0  0  0  0  0  0  0
   -3.8700   -0.4962    1.5908 C   0  0  0  0  0  0  0  0  0  0  0  0
   -4.5934   -0.8900    0.8928 H   0  0  0  0  0  0  0  0  0  0  0  0
   -3.9196   -0.8493    2.9271 C   0  0  0  0  0  0  0  0  0  0  0  0
   -4.6952   -1.5146    3.2749 H   0  0  0  0  0  0  0  0  0  0  0  0
   -2.9750   -0.3592    3.8133 C   0  0  0  0  0  0  0  0  0  0  0  0
   -3.0141   -0.6423    4.8547 H   0  0  0  0  0  0  0  0  0  0  0  0
   -1.9869    0.5047    3.3678 C   0  0  0  0  0  0  0  0  0  0  0  0
   -1.2701    0.9110    4.0666 H   0  0  0  0  0  0  0  0  0  0  0  0
   -1.9146    0.8563    2.0291 C   0  0  0  0  0  0  0  0  0  0  0  0
   -1.1886    1.6012    1.6985 H   0  0  0  0  0  0  0  0  0  0  0  0
  1  2  1  0  0  0  0
  1  4  1  0  0  0  0
  4  6  1  0  0  0  0
  5  4  1  0  0  0  0
  5 13  1  1  0  0  0
  6  8  1  0  0  0  0
  6  7  1  0  0  0  0
  6  9  1  0  0  0  0
  9 10  1  0  0  0  0
 11  9  1  0  0  0  0
 12  9  1  0  0  0  0
 13 14  1  0  0  0  0
 13  3  2  0  0  0  0
 14 23  1  0  0  0  0
 15 17  1  0  0  0  0
 15 14  2  0  0  0  0
 16 15  1  0  0  0  0
 17 19  2  0  0  0  0
 18 17  1  0  0  0  0
 19 20  1  0  0  0  0
 19 21  1  0  0  0  0
 21 22  1  0  0  0  0
 23 21  2  0  0  0  0
 23 24  1  0  0  0  0
 25  5  1  0  0  0  0
 26 25  1  0  0  0  0
 26 27  1  0  0  0  0
 28 26  2  0  0  0  0
 29 28  1  0  0  0  0
 30 32  2  0  0  0  0
 30 28  1  0  0  0  0
 31 30  1  0  0  0  0
 32 34  1  0  0  0  0
 33 32  1  0  0  0  0
 34 35  1  0  0  0  0
 34 25  2  0  0  0  0
 36  1  1  0  0  0  0
 37 47  2  0  0  0  0
 38 39  1  0  0  0  0
 38  1  1  0  0  0  0
 39 47  1  6  0  0  0
 39 59  1  0  0  0  0
 40 38  1  0  0  0  0
 41 40  1  0  0  0  0
 42 40  1  0  0  0  0
 43 46  1  0  0  0  0
 43 45  1  0  0  0  0
 43 40  1  0  0  0  0
 44 43  1  0  0  0  0
 48 47  1  0  0  0  0
 48 49  1  0  0  0  0
 49 50  1  0  0  0  0
 51 49  2  0  0  0  0
 51 52  1  0  0  0  0
 53 51  1  0  0  0  0
 54 53  1  0  0  0  0
 55 57  1  0  0  0  0
 55 53  2  0  0  0  0
 56 55  1  0  0  0  0
 57 48  2  0  0  0  0
 58 57  1  0  0  0  0
 59 60  2  0  0  0  0
 59 68  1  0  0  0  0
 60 62  1  0  0  0  0
 61 60  1  0  0  0  0
 62 63  1  0  0  0  0
 62 64  2  0  0  0  0
 64 65  1  0  0  0  0
 66 64  1  0  0  0  0
 66 67  1  0  0  0  0
 68 66  2  0  0  0  0
 69 68  1  0  0  0  0
M  END
$$$$
