CSD_code = PUNLEP | q = 0 | S = 0 | Stoichiometry = C9H28Cl2P3Rh | MND = 6
 OpenBabel04212202083D

 43 42  0  0  0  0  0  0  0  0999 V2000
    4.5249    2.0975    2.2565 Rh  0  0  0  0  0  0  0  0  0  0  0  0
    5.5657    1.4490    0.2876 Cl  0  0  0  0  0  0  0  0  0  0  0  0
    5.7410    4.1466    2.4782 Cl  0  0  0  0  0  0  0  0  0  0  0  0
    3.3280    2.4235    4.1615 P   0  0  0  0  0  4  0  0  0  0  0  0
    6.3920    1.2145    3.2602 P   0  0  0  0  0  4  0  0  0  0  0  0
    3.1872    3.3592    0.8801 P   0  0  0  0  0  4  0  0  0  0  0  0
    3.6299    3.9280    5.1563 C   0  0  0  0  0  0  0  0  0  0  0  0
    1.4982    2.4367    4.0016 C   0  0  0  0  0  0  0  0  0  0  0  0
    3.4254    1.0991    5.4307 C   0  0  0  0  0  0  0  0  0  0  0  0
    7.9253    1.3623    2.2820 C   0  0  0  0  0  0  0  0  0  0  0  0
    6.9893    2.0021    4.8080 C   0  0  0  0  0  0  0  0  0  0  0  0
    6.4229   -0.5715    3.6731 C   0  0  0  0  0  0  0  0  0  0  0  0
    4.0027    3.9436   -0.6440 C   0  0  0  0  0  0  0  0  0  0  0  0
    2.6038    4.9827    1.5094 C   0  0  0  0  0  0  0  0  0  0  0  0
    1.6598    2.6201    0.1843 C   0  0  0  0  0  0  0  0  0  0  0  0
    3.7682    0.7962    2.0992 H   0  0  0  0  0  0  0  0  0  0  0  0
    4.6728    3.9430    5.4671 H   0  0  0  0  0  0  0  0  0  0  0  0
    3.4599    4.8029    4.5314 H   0  0  0  0  0  0  0  0  0  0  0  0
    2.9747    3.9505    6.0268 H   0  0  0  0  0  0  0  0  0  0  0  0
    1.0428    2.5498    4.9853 H   0  0  0  0  0  0  0  0  0  0  0  0
    1.1631    3.2425    3.3545 H   0  0  0  0  0  0  0  0  0  0  0  0
    1.1915    1.4873    3.5647 H   0  0  0  0  0  0  0  0  0  0  0  0
    2.7962    1.3561    6.2827 H   0  0  0  0  0  0  0  0  0  0  0  0
    3.0685    0.1746    4.9789 H   0  0  0  0  0  0  0  0  0  0  0  0
    4.4470    0.9485    5.7684 H   0  0  0  0  0  0  0  0  0  0  0  0
    8.7733    1.0580    2.8968 H   0  0  0  0  0  0  0  0  0  0  0  0
    7.8568    0.7386    1.3931 H   0  0  0  0  0  0  0  0  0  0  0  0
    8.0407    2.4007    1.9722 H   0  0  0  0  0  0  0  0  0  0  0  0
    7.9069    1.5100    5.1290 H   0  0  0  0  0  0  0  0  0  0  0  0
    7.1934    3.0482    4.5827 H   0  0  0  0  0  0  0  0  0  0  0  0
    6.2548    1.9507    5.6075 H   0  0  0  0  0  0  0  0  0  0  0  0
    5.6421   -0.8124    4.3911 H   0  0  0  0  0  0  0  0  0  0  0  0
    6.2349   -1.1264    2.7549 H   0  0  0  0  0  0  0  0  0  0  0  0
    7.3960   -0.8494    4.0763 H   0  0  0  0  0  0  0  0  0  0  0  0
    4.2180    3.0975   -1.2935 H   0  0  0  0  0  0  0  0  0  0  0  0
    3.3502    4.6563   -1.1497 H   0  0  0  0  0  0  0  0  0  0  0  0
    4.9430    4.4231   -0.3727 H   0  0  0  0  0  0  0  0  0  0  0  0
    3.4862    5.5757    1.7470 H   0  0  0  0  0  0  0  0  0  0  0  0
    2.0239    5.4807    0.7329 H   0  0  0  0  0  0  0  0  0  0  0  0
    1.9965    4.8833    2.4053 H   0  0  0  0  0  0  0  0  0  0  0  0
    1.1824    3.3182   -0.5023 H   0  0  0  0  0  0  0  0  0  0  0  0
    1.9438    1.7158   -0.3521 H   0  0  0  0  0  0  0  0  0  0  0  0
    0.9672    2.3509    0.9786 H   0  0  0  0  0  0  0  0  0  0  0  0
  1  3  1  0  0  0  0
  1  5  1  0  0  0  0
  1  4  1  0  0  0  0
  2  1  1  0  0  0  0
  4  7  1  0  0  0  0
  4  9  1  0  0  0  0
  5 12  1  0  0  0  0
  5 11  1  0  0  0  0
  6 14  1  0  0  0  0
  6  1  1  0  0  0  0
  7 17  1  0  0  0  0
  7 19  1  0  0  0  0
  8  4  1  0  0  0  0
  8 20  1  0  0  0  0
  9 25  1  0  0  0  0
  9 23  1  0  0  0  0
 10 26  1  0  0  0  0
 10  5  1  0  0  0  0
 11 29  1  0  0  0  0
 11 31  1  0  0  0  0
 12 34  1  0  0  0  0
 12 32  1  0  0  0  0
 13 37  1  0  0  0  0
 13  6  1  0  0  0  0
 14 38  1  0  0  0  0
 14 40  1  0  0  0  0
 15  6  1  0  0  0  0
 15 43  1  0  0  0  0
 16  1  1  0  0  0  0
 18  7  1  0  0  0  0
 21  8  1  0  0  0  0
 22  8  1  0  0  0  0
 24  9  1  0  0  0  0
 27 10  1  0  0  0  0
 28 10  1  0  0  0  0
 30 11  1  0  0  0  0
 33 12  1  0  0  0  0
 35 13  1  0  0  0  0
 36 13  1  0  0  0  0
 39 14  1  0  0  0  0
 41 15  1  0  0  0  0
 42 15  1  0  0  0  0
M  END
$$$$
