CSD_code = PUNTOH | q = 0 | S = 0 | Stoichiometry = C9H16Cl2N4O2Pd | MND = 4
 OpenBabel04212202083D

 34 35  0  0  1  0  0  0  0  0999 V2000
    6.4105   11.8627    1.6097 Pd  0  0  0  0  0  0  0  0  0  0  0  0
    6.6062   10.3699    3.2441 Cl  0  0  0  0  0  0  0  0  0  0  0  0
    6.2996   13.6350    2.9736 Cl  0  0  0  0  0  0  0  0  0  0  0  0
    4.9102   14.9697   -0.8406 N   0  0  0  0  0  0  0  0  0  0  0  0
    5.0175   13.6689   -0.4293 C   0  0  2  0  0  3  0  0  0  0  0  0
    6.1457   13.1855   -0.0011 N   0  0  0  0  0  0  0  0  0  0  0  0
    7.3287   13.8997    0.0468 C   0  0  0  0  0  0  0  0  0  0  0  0
    8.3377   13.3263    0.4177 O   0  0  0  0  0  0  0  0  0  0  0  0
    7.2457   15.2921   -0.3877 C   0  0  0  0  0  0  0  0  0  0  0  0
    6.0465   15.7557   -0.7828 C   0  0  0  0  0  0  0  0  0  0  0  0
    8.4735   16.1294   -0.2946 C   0  0  0  0  0  0  0  0  0  0  0  0
    3.6831   15.5494   -1.3485 C   0  0  0  0  0  0  0  0  0  0  0  0
    3.4568   15.1873   -2.8288 C   0  0  0  0  0  0  0  0  0  0  0  0
    4.3895   15.8054   -3.6711 O   0  0  0  0  0  0  0  0  0  0  0  0
    3.9500   12.8349   -0.5832 N   0  0  0  0  0  0  0  0  0  0  0  0
    3.9112   11.4871   -0.0266 C   0  0  0  0  0  0  0  0  0  0  0  0
    4.9413   10.5275   -0.6740 C   0  0  0  0  0  0  0  0  0  0  0  0
    6.0582   10.2334    0.2257 N   0  0  0  0  0  4  0  0  0  0  0  0
    5.9054   16.7848   -1.0794 H   0  0  0  0  0  0  0  0  0  0  0  0
    8.3061   17.1280   -0.6887 H   0  0  0  0  0  0  0  0  0  0  0  0
    9.2881   15.6482   -0.8328 H   0  0  0  0  0  0  0  0  0  0  0  0
    8.7761   16.1951    0.7495 H   0  0  0  0  0  0  0  0  0  0  0  0
    3.7648   16.6356   -1.2688 H   0  0  0  0  0  0  0  0  0  0  0  0
    2.8292   15.2354   -0.7428 H   0  0  0  0  0  0  0  0  0  0  0  0
    3.4760   14.0955   -2.9551 H   0  0  0  0  0  0  0  0  0  0  0  0
    2.4806   15.5621   -3.1441 H   0  0  0  0  0  0  0  0  0  0  0  0
    5.2763   15.4845   -3.4687 H   0  0  0  0  0  0  0  0  0  0  0  0
    3.0464   13.2751   -0.6550 H   0  0  0  0  0  0  0  0  0  0  0  0
    2.9016   11.1161   -0.2058 H   0  0  0  0  0  0  0  0  0  0  0  0
    4.0975   11.5085    1.0739 H   0  0  0  0  0  0  0  0  0  0  0  0
    4.4260    9.6032   -0.9668 H   0  0  0  0  0  0  0  0  0  0  0  0
    5.3318   11.0008   -1.5791 H   0  0  0  0  0  0  0  0  0  0  0  0
    6.8951    9.9523   -0.2787 H   0  0  0  0  0  0  0  0  0  0  0  0
    5.8270    9.5033    0.9047 H   0  0  0  0  0  0  0  0  0  0  0  0
  1  3  1  0  0  0  0
  1  2  1  0  0  0  0
  4 10  1  0  0  0  0
  5  4  1  6  0  0  0
  5  6  1  0  0  0  0
  6  7  1  0  0  0  0
  6  1  1  0  0  0  0
  7  8  2  0  0  0  0
  9 11  1  0  0  0  0
  9  7  1  0  0  0  0
 10  9  2  0  0  0  0
 11 22  1  0  0  0  0
 12 23  1  0  0  0  0
 12  4  1  0  0  0  0
 12 24  1  0  0  0  0
 13 12  1  0  0  0  0
 14 27  1  0  0  0  0
 14 13  1  0  0  0  0
 15  5  1  0  0  0  0
 15 16  1  0  0  0  0
 16 30  1  0  0  0  0
 17 16  1  0  0  0  0
 17 18  1  0  0  0  0
 18 34  1  0  0  0  0
 18  1  1  0  0  0  0
 19 10  1  0  0  0  0
 20 11  1  0  0  0  0
 21 11  1  0  0  0  0
 25 13  1  0  0  0  0
 26 13  1  0  0  0  0
 28 15  1  0  0  0  0
 29 16  1  0  0  0  0
 31 17  1  0  0  0  0
 32 17  1  0  0  0  0
 33 18  1  0  0  0  0
M  END
$$$$
