CSD_code = PUNTIB | q = 0 | S = 0 | Stoichiometry = C9H17Cl3N4O2Zn | MND = 4
 OpenBabel04212202083D

 36 36  0  0  1  0  0  0  0  0999 V2000
    0.8275    8.9257    9.9954 Zn  0  0  0  0  0  0  0  0  0  0  0  0
    0.7643   11.1266    9.2198 Cl  0  0  0  0  0  0  0  0  0  0  0  0
    1.1421    6.9727    9.0567 Cl  0  0  0  0  0  0  0  0  0  0  0  0
   -0.8254    8.9735   11.6787 Cl  0  0  0  0  0  0  0  0  0  0  0  0
    0.8665    7.2723   17.3595 O   0  0  0  0  0  0  0  0  0  0  0  0
    2.5704    9.0687   11.3130 O   0  0  0  0  0  0  0  0  0  0  0  0
    0.4941    8.1587   14.5253 N   0  0  0  0  0  0  0  0  0  0  0  0
    0.0370   10.4455   14.7269 N   0  0  0  0  0  0  0  0  0  0  0  0
    1.6244    9.7281   13.2267 N   0  0  0  0  0  0  0  0  0  0  0  0
    1.0338   11.9649   11.9858 N   0  0  0  0  0  4  0  0  0  0  0  0
    0.7254    9.4368   14.1289 C   0  0  1  0  0  3  0  0  0  0  0  0
    2.1548    8.7522   12.4336 C   0  0  0  0  0  0  0  0  0  0  0  0
    2.1113    7.3898   12.9372 C   0  0  0  0  0  0  0  0  0  0  0  0
    1.2503    7.1615   13.9489 C   0  0  0  0  0  0  0  0  0  0  0  0
    2.8653    6.3223   12.2269 C   0  0  0  0  0  0  0  0  0  0  0  0
   -0.5614    7.7957   15.4503 C   0  0  0  0  0  0  0  0  0  0  0  0
   -0.1728    8.0982   16.9086 C   0  0  0  0  0  0  0  0  0  0  0  0
    0.1681   11.8244   14.2869 C   0  0  0  0  0  0  0  0  0  0  0  0
   -0.1787   12.0712   12.8097 C   0  0  0  0  0  0  0  0  0  0  0  0
    1.6656    7.4484   16.8494 H   0  0  0  0  0  0  0  0  0  0  0  0
   -0.8905   10.1963   15.0341 H   0  0  0  0  0  0  0  0  0  0  0  0
    1.4996   11.0670   12.3382 H   0  0  0  0  0  0  0  0  0  0  0  0
    1.6554   12.7641   12.0858 H   0  0  0  0  0  0  0  0  0  0  0  0
    0.8364   11.7947   10.9327 H   0  0  0  0  0  0  0  0  0  0  0  0
    1.0727    6.1661   14.3289 H   0  0  0  0  0  0  0  0  0  0  0  0
    3.9138    6.5994   12.1362 H   0  0  0  0  0  0  0  0  0  0  0  0
    2.4706    6.2256   11.2137 H   0  0  0  0  0  0  0  0  0  0  0  0
    2.7754    5.3687   12.7395 H   0  0  0  0  0  0  0  0  0  0  0  0
   -0.7363    6.7222   15.3549 H   0  0  0  0  0  0  0  0  0  0  0  0
   -1.4881    8.3073   15.1780 H   0  0  0  0  0  0  0  0  0  0  0  0
    0.0951    9.1581   17.0171 H   0  0  0  0  0  0  0  0  0  0  0  0
   -1.0243    7.8799   17.5565 H   0  0  0  0  0  0  0  0  0  0  0  0
    1.1999   12.1356   14.4744 H   0  0  0  0  0  0  0  0  0  0  0  0
   -0.4871   12.4112   14.9310 H   0  0  0  0  0  0  0  0  0  0  0  0
   -0.8694   11.2947   12.4661 H   0  0  0  0  0  0  0  0  0  0  0  0
   -0.6359   13.0516   12.6778 H   0  0  0  0  0  0  0  0  0  0  0  0
  1  6  1  0  0  0  0
  1  4  1  0  0  0  0
  2  1  1  0  0  0  0
  3  1  1  0  0  0  0
  6 12  1  0  0  0  0
  7 16  1  0  0  0  0
  8 21  1  0  0  0  0
  9 11  1  0  0  0  0
 10 23  1  0  0  0  0
 10 22  1  0  0  0  0
 10 19  1  0  0  0  0
 11  7  1  0  0  0  0
 11  8  1  1  0  0  0
 12 13  1  0  0  0  0
 12  9  2  0  0  0  0
 13 14  2  0  0  0  0
 14 25  1  0  0  0  0
 14  7  1  0  0  0  0
 15 28  1  0  0  0  0
 15 13  1  0  0  0  0
 16 17  1  0  0  0  0
 17 31  1  0  0  0  0
 17  5  1  0  0  0  0
 17 32  1  0  0  0  0
 18 33  1  0  0  0  0
 18  8  1  0  0  0  0
 18 34  1  0  0  0  0
 19 18  1  0  0  0  0
 20  5  1  0  0  0  0
 24 10  1  0  0  0  0
 26 15  1  0  0  0  0
 27 15  1  0  0  0  0
 29 16  1  0  0  0  0
 30 16  1  0  0  0  0
 35 19  1  0  0  0  0
 36 19  1  0  0  0  0
M  END
$$$$
