CSD_code = PUNVIF | q = 0 | S = 0 | Stoichiometry = C24H37ClP2PtSi | MND = 4
 OpenBabel04212202083D

 66 69  0  0  0  0  0  0  0  0999 V2000
   -2.3477   11.3618   11.6868 Pt  0  0  2  0  0  0  0  0  0  0  0  0
   -0.6699   12.9126   11.5997 P   0  0  0  0  0  4  0  0  0  0  0  0
   -3.7553   12.3237    9.9638 Cl  0  0  0  0  0  0  0  0  0  0  0  0
    0.6384   11.0859   13.2212 C   0  0  0  0  0  0  0  0  0  0  0  0
   -1.1458   10.4595   13.4258 Si  0  0  2  0  0  0  0  0  0  0  0  0
   -1.4568   10.8546   14.8433 H   0  0  0  0  0  0  0  0  0  0  0  0
    0.8044   12.2422   12.4522 C   0  0  0  0  0  0  0  0  0  0  0  0
   -3.6360    9.4887   11.8711 P   0  0  0  0  0  4  0  0  0  0  0  0
    2.0618   12.8249   12.3432 C   0  0  0  0  0  0  0  0  0  0  0  0
    2.2063   13.7206   11.7568 H   0  0  0  0  0  0  0  0  0  0  0  0
    3.1523   12.2643   12.9849 C   0  0  0  0  0  0  0  0  0  0  0  0
    4.1262   12.7229   12.8909 H   0  0  0  0  0  0  0  0  0  0  0  0
    2.9929   11.1176   13.7438 C   0  0  0  0  0  0  0  0  0  0  0  0
    3.8435   10.6762   14.2431 H   0  0  0  0  0  0  0  0  0  0  0  0
   -1.5695    8.6051   13.4844 C   0  0  0  0  0  0  0  0  0  0  0  0
    1.7393   10.5430   13.8620 C   0  0  0  0  0  0  0  0  0  0  0  0
    1.6149    9.6540   14.4620 H   0  0  0  0  0  0  0  0  0  0  0  0
   -3.3141    6.9755   13.1135 C   0  0  0  0  0  0  0  0  0  0  0  0
   -4.2844    6.7113   12.7189 H   0  0  0  0  0  0  0  0  0  0  0  0
   -2.7927    8.2474   12.9100 C   0  0  0  0  0  0  0  0  0  0  0  0
   -2.5997    6.0379   13.8390 C   0  0  0  0  0  0  0  0  0  0  0  0
   -3.0061    5.0480   13.9890 H   0  0  0  0  0  0  0  0  0  0  0  0
   -0.0156   13.4283    9.9407 C   0  0  0  0  0  0  0  0  0  0  0  0
    0.9654   13.9027   10.0634 H   0  0  0  0  0  0  0  0  0  0  0  0
   -0.8701    7.6540   14.2080 C   0  0  0  0  0  0  0  0  0  0  0  0
    0.0749    7.9204   14.6573 H   0  0  0  0  0  0  0  0  0  0  0  0
   -1.3653    6.3714   14.3703 C   0  0  0  0  0  0  0  0  0  0  0  0
   -0.8014    5.6378   14.9285 H   0  0  0  0  0  0  0  0  0  0  0  0
   -0.9691   14.3855    9.2348 C   0  0  0  0  0  0  0  0  0  0  0  0
   -0.6675   14.5081    8.1954 H   0  0  0  0  0  0  0  0  0  0  0  0
   -0.9728   15.3676    9.7039 H   0  0  0  0  0  0  0  0  0  0  0  0
   -1.9811   13.9825    9.2487 H   0  0  0  0  0  0  0  0  0  0  0  0
    0.1372   12.1312    9.1489 C   0  0  0  0  0  0  0  0  0  0  0  0
   -0.8489   11.6889    9.0008 H   0  0  0  0  0  0  0  0  0  0  0  0
    0.7669   11.4202    9.6867 H   0  0  0  0  0  0  0  0  0  0  0  0
    0.5786   12.3182    8.1714 H   0  0  0  0  0  0  0  0  0  0  0  0
   -1.8951   14.0618   13.7477 C   0  0  0  0  0  0  0  0  0  0  0  0
   -2.3228   14.9325   14.2418 H   0  0  0  0  0  0  0  0  0  0  0  0
   -1.2382   13.5487   14.4485 H   0  0  0  0  0  0  0  0  0  0  0  0
   -2.7083   13.3802   13.4732 H   0  0  0  0  0  0  0  0  0  0  0  0
    0.0375   15.3978   12.8141 C   0  0  0  0  0  0  0  0  0  0  0  0
    0.5697   15.6909   11.9111 H   0  0  0  0  0  0  0  0  0  0  0  0
    0.7371   14.9122   13.4920 H   0  0  0  0  0  0  0  0  0  0  0  0
   -0.3318   16.3021   13.2962 H   0  0  0  0  0  0  0  0  0  0  0  0
   -1.1282   14.4725   12.4934 C   0  0  0  0  0  0  0  0  0  0  0  0
   -1.8272   14.9794   11.8159 H   0  0  0  0  0  0  0  0  0  0  0  0
   -5.3543    9.5677   12.5523 C   0  0  0  0  0  0  0  0  0  0  0  0
   -5.7203    8.5540   12.7569 H   0  0  0  0  0  0  0  0  0  0  0  0
   -6.2784   10.2834   11.5737 C   0  0  0  0  0  0  0  0  0  0  0  0
   -5.8195   11.2129   11.2382 H   0  0  0  0  0  0  0  0  0  0  0  0
   -7.2265   10.5221   12.0536 H   0  0  0  0  0  0  0  0  0  0  0  0
   -6.4828    9.6700   10.6985 H   0  0  0  0  0  0  0  0  0  0  0  0
   -3.7046    8.7460   10.1742 C   0  0  0  0  0  0  0  0  0  0  0  0
   -4.2232    9.5126    9.5823 H   0  0  0  0  0  0  0  0  0  0  0  0
   -5.2234   10.3436   13.8617 C   0  0  0  0  0  0  0  0  0  0  0  0
   -4.7976   11.3287   13.6560 H   0  0  0  0  0  0  0  0  0  0  0  0
   -4.5604    9.8234   14.5536 H   0  0  0  0  0  0  0  0  0  0  0  0
   -6.1936   10.4767   14.3371 H   0  0  0  0  0  0  0  0  0  0  0  0
   -4.4182    7.4101   10.0173 C   0  0  0  0  0  0  0  0  0  0  0  0
   -4.5193    7.1762    8.9581 H   0  0  0  0  0  0  0  0  0  0  0  0
   -5.4154    7.4340   10.4530 H   0  0  0  0  0  0  0  0  0  0  0  0
   -3.8465    6.6100   10.4831 H   0  0  0  0  0  0  0  0  0  0  0  0
   -2.2519    8.6704    9.7048 C   0  0  0  0  0  0  0  0  0  0  0  0
   -2.1962    8.4340    8.6439 H   0  0  0  0  0  0  0  0  0  0  0  0
   -1.7069    7.9087   10.2626 H   0  0  0  0  0  0  0  0  0  0  0  0
   -1.7617    9.6384    9.8733 H   0  0  0  0  0  0  0  0  0  0  0  0
  1  3  1  1  0  0  0
  1  8  1  0  0  0  0
  1  5  1  0  0  0  0
  2  1  1  0  0  0  0
  2  7  1  0  0  0  0
  2 45  1  0  0  0  0
  4  5  1  0  0  0  0
  4 16  1  0  0  0  0
  5 15  1  0  0  0  0
  5  6  1  1  0  0  0
  7  4  2  0  0  0  0
  8 47  1  0  0  0  0
  8 20  1  0  0  0  0
  9  7  1  0  0  0  0
  9 11  2  0  0  0  0
 10  9  1  0  0  0  0
 11 13  1  0  0  0  0
 12 11  1  0  0  0  0
 13 16  2  0  0  0  0
 13 14  1  0  0  0  0
 15 25  1  0  0  0  0
 16 17  1  0  0  0  0
 18 21  2  0  0  0  0
 19 18  1  0  0  0  0
 20 18  1  0  0  0  0
 20 15  2  0  0  0  0
 21 22  1  0  0  0  0
 21 27  1  0  0  0  0
 23 24  1  0  0  0  0
 23  2  1  0  0  0  0
 25 27  2  0  0  0  0
 25 26  1  0  0  0  0
 27 28  1  0  0  0  0
 29 32  1  0  0  0  0
 29 31  1  0  0  0  0
 29 23  1  0  0  0  0
 30 29  1  0  0  0  0
 33 35  1  0  0  0  0
 33 23  1  0  0  0  0
 34 33  1  0  0  0  0
 36 33  1  0  0  0  0
 37 38  1  0  0  0  0
 37 39  1  0  0  0  0
 40 37  1  0  0  0  0
 41 44  1  0  0  0  0
 41 43  1  0  0  0  0
 42 41  1  0  0  0  0
 45 41  1  0  0  0  0
 45 37  1  0  0  0  0
 46 45  1  0  0  0  0
 47 48  1  0  0  0  0
 47 55  1  0  0  0  0
 49 51  1  0  0  0  0
 49 47  1  0  0  0  0
 50 49  1  0  0  0  0
 52 49  1  0  0  0  0
 53  8  1  0  0  0  0
 54 53  1  0  0  0  0
 55 58  1  0  0  0  0
 55 57  1  0  0  0  0
 56 55  1  0  0  0  0
 59 53  1  0  0  0  0
 59 61  1  0  0  0  0
 59 62  1  0  0  0  0
 60 59  1  0  0  0  0
 63 66  1  0  0  0  0
 63 53  1  0  0  0  0
 63 65  1  0  0  0  0
 64 63  1  0  0  0  0
M  END
$$$$
