CSD_code = PUPDAF | q = 0 | S = 0 | Stoichiometry = C23H20Cl2N5PS2W | MND = 6
 OpenBabel04212202083D

 54 58  0  0  0  0  0  0  0  0999 V2000
    2.6996   17.7597    2.3690 W   0  0  0  0  0  0  0  0  0  0  0  0
    1.3471   19.7446    1.9412 Cl  0  0  0  0  0  0  0  0  0  0  0  0
    3.8886   15.6832    2.6416 Cl  0  0  0  0  0  0  0  0  0  0  0  0
    2.8115   18.1133    4.2604 N   0  0  0  0  0  2  0  0  0  0  0  0
    2.0635   19.2260    5.0580 P   0  0  0  0  0  4  0  0  0  0  0  0
    2.5304   17.0956   -0.7270 S   0  0  0  0  0  0  0  0  0  0  0  0
    4.8288   18.6368    0.1467 S   0  0  0  0  0  0  0  0  0  0  0  0
    1.9806   17.1122    0.7196 N   0  0  0  0  0  2  0  0  0  0  0  0
    3.9040   17.8679   -0.9119 N   0  0  0  0  0  2  0  0  0  0  0  0
    4.1826   18.5344    1.5805 N   0  0  0  0  0  2  0  0  0  0  0  0
    2.4631   20.9400    4.5592 C   0  0  0  0  0  0  0  0  0  0  0  0
    3.5756   21.0961    3.7406 C   0  0  0  0  0  0  0  0  0  0  0  0
    4.0967   20.2061    3.3869 H   0  0  0  0  0  0  0  0  0  0  0  0
    3.9861   22.3619    3.3661 C   0  0  0  0  0  0  0  0  0  0  0  0
    4.8427   22.4829    2.7200 H   0  0  0  0  0  0  0  0  0  0  0  0
    3.2915   23.4728    3.8186 C   0  0  0  0  0  0  0  0  0  0  0  0
    3.6068   24.4626    3.5231 H   0  0  0  0  0  0  0  0  0  0  0  0
    2.1922   23.3180    4.6471 C   0  0  0  0  0  0  0  0  0  0  0  0
    1.6536   24.1863    4.9978 H   0  0  0  0  0  0  0  0  0  0  0  0
    1.7769   22.0534    5.0247 C   0  0  0  0  0  0  0  0  0  0  0  0
    0.9172   21.9317    5.6676 H   0  0  0  0  0  0  0  0  0  0  0  0
    0.2387   19.0405    5.1315 C   0  0  0  0  0  0  0  0  0  0  0  0
   -0.6711   19.8113    4.4194 C   0  0  0  0  0  0  0  0  0  0  0  0
   -0.3223   20.6266    3.8042 H   0  0  0  0  0  0  0  0  0  0  0  0
   -2.0223   19.5162    4.4953 C   0  0  0  0  0  0  0  0  0  0  0  0
   -2.7300   20.1174    3.9443 H   0  0  0  0  0  0  0  0  0  0  0  0
   -2.4684   18.4595    5.2715 C   0  0  0  0  0  0  0  0  0  0  0  0
   -3.5238   18.2368    5.3275 H   0  0  0  0  0  0  0  0  0  0  0  0
   -1.5612   17.6882    5.9815 C   0  0  0  0  0  0  0  0  0  0  0  0
   -1.9068   16.8663    6.5918 H   0  0  0  0  0  0  0  0  0  0  0  0
   -0.2121   17.9773    5.9092 C   0  0  0  0  0  0  0  0  0  0  0  0
    0.5115   17.3893    6.4615 H   0  0  0  0  0  0  0  0  0  0  0  0
    2.5501   19.2124    6.8174 C   0  0  0  0  0  0  0  0  0  0  0  0
    1.8445   19.8763    7.8121 C   0  0  0  0  0  0  0  0  0  0  0  0
    0.9359   20.4077    7.5664 H   0  0  0  0  0  0  0  0  0  0  0  0
    2.3015   19.8396    9.1167 C   0  0  0  0  0  0  0  0  0  0  0  0
    1.7535   20.3529    9.8934 H   0  0  0  0  0  0  0  0  0  0  0  0
    3.4599   19.1452    9.4298 C   0  0  0  0  0  0  0  0  0  0  0  0
    3.8123   19.1214   10.4505 H   0  0  0  0  0  0  0  0  0  0  0  0
    4.1631   18.4799    8.4388 C   0  0  0  0  0  0  0  0  0  0  0  0
    5.0631   17.9359    8.6846 H   0  0  0  0  0  0  0  0  0  0  0  0
    3.7078   18.5151    7.1332 C   0  0  0  0  0  0  0  0  0  0  0  0
    4.2288   17.9990    6.3369 H   0  0  0  0  0  0  0  0  0  0  0  0
    0.8277   16.6929    3.0617 N   0  0  0  0  0  0  0  0  0  0  0  0
   -0.3717   16.9456    2.5249 C   0  0  0  0  0  3  0  0  0  0  0  0
   -0.4163   17.7647    1.8135 H   0  0  0  0  0  0  0  0  0  0  0  0
   -1.5060   16.2224    2.8460 C   0  0  0  0  0  0  0  0  0  0  0  0
   -2.4485   16.4740    2.3869 H   0  0  0  0  0  0  0  0  0  0  0  0
   -1.4050   15.1780    3.7520 C   0  0  0  0  0  0  0  0  0  0  0  0
   -2.2688   14.5859    4.0132 H   0  0  0  0  0  0  0  0  0  0  0  0
   -0.1650   14.9146    4.3138 C   0  0  0  0  0  0  0  0  0  0  0  0
   -0.0328   14.1131    5.0230 H   0  0  0  0  0  0  0  0  0  0  0  0
    0.9174   15.6959    3.9513 C   0  0  0  0  0  0  0  0  0  0  0  0
    1.9022   15.5204    4.3778 H   0  0  0  0  0  0  0  0  0  0  0  0
  1  3  1  0  0  0  0
  1 44  1  0  0  0  0
  1  4  1  0  0  0  0
  2  1  1  0  0  0  0
  4  5  1  0  0  0  0
  5 22  1  0  0  0  0
  5 33  1  0  0  0  0
  6  8  1  0  0  0  0
  7 10  1  0  0  0  0
  8  1  1  0  0  0  0
  9  6  1  0  0  0  0
  9  7  1  0  0  0  0
 10  1  1  0  0  0  0
 11 20  1  0  0  0  0
 11  5  1  0  0  0  0
 12 11  2  0  0  0  0
 13 12  1  0  0  0  0
 14 12  1  0  0  0  0
 14 16  2  0  0  0  0
 15 14  1  0  0  0  0
 16 18  1  0  0  0  0
 17 16  1  0  0  0  0
 18 19  1  0  0  0  0
 18 20  2  0  0  0  0
 20 21  1  0  0  0  0
 22 31  1  0  0  0  0
 23 25  1  0  0  0  0
 23 22  2  0  0  0  0
 24 23  1  0  0  0  0
 25 27  2  0  0  0  0
 26 25  1  0  0  0  0
 27 28  1  0  0  0  0
 27 29  1  0  0  0  0
 29 30  1  0  0  0  0
 31 29  2  0  0  0  0
 31 32  1  0  0  0  0
 33 42  2  0  0  0  0
 33 34  1  0  0  0  0
 34 36  2  0  0  0  0
 35 34  1  0  0  0  0
 36 38  1  0  0  0  0
 36 37  1  0  0  0  0
 38 39  1  0  0  0  0
 40 41  1  0  0  0  0
 40 38  2  0  0  0  0
 42 40  1  0  0  0  0
 43 42  1  0  0  0  0
 44 53  1  0  0  0  0
 45 47  1  0  0  0  0
 45 44  1  0  0  0  0
 46 45  1  0  0  0  0
 47 49  2  0  0  0  0
 48 47  1  0  0  0  0
 49 50  1  0  0  0  0
 49 51  1  0  0  0  0
 51 52  1  0  0  0  0
 53 51  2  0  0  0  0
 53 54  1  0  0  0  0
M  END
$$$$
