CSD_code = PUPYAC | q = 0 | S = 0 | Stoichiometry = C19H28ClN2PPd | MND = 4
 OpenBabel04212202083D

 52 55  0  0  1  0  0  0  0  0999 V2000
    5.5511    1.7483    9.3890 C   0  0  0  0  0  0  0  0  0  0  0  0
    4.2613    2.2710    9.5598 C   0  0  1  0  0  3  0  0  0  0  0  0
    3.4316    1.7915   10.5651 C   0  0  0  0  0  0  0  0  0  0  0  0
    2.4362    2.1708   10.7134 H   0  0  0  0  0  0  0  0  0  0  0  0
    3.8966    0.7883   11.4003 C   0  0  0  0  0  0  0  0  0  0  0  0
    3.2507    0.4103   12.1787 H   0  0  0  0  0  0  0  0  0  0  0  0
    5.1726    0.2722   11.2539 C   0  0  0  0  0  0  0  0  0  0  0  0
    5.5198   -0.5035   11.9225 H   0  0  0  0  0  0  0  0  0  0  0  0
    6.0029    0.7520   10.2491 C   0  0  0  0  0  0  0  0  0  0  0  0
    2.8296    4.0745    8.4582 C   0  0  1  0  0  3  0  0  0  0  0  0
    3.1104    4.9060    7.3903 C   0  0  0  0  0  0  0  0  0  0  0  0
    2.4651    5.6520    6.9743 H   0  0  0  0  0  0  0  0  0  0  0  0
    4.3991    4.5740    6.9716 C   0  0  0  0  0  0  0  0  0  0  0  0
    4.9880    4.9839    6.1719 H   0  0  0  0  0  0  0  0  0  0  0  0
    7.4182    0.2668   10.0749 C   0  0  0  0  0  0  0  0  0  0  0  0
    7.4916   -0.8210   10.1494 H   0  0  0  0  0  0  0  0  0  0  0  0
    8.0336    0.6901   10.8741 H   0  0  0  0  0  0  0  0  0  0  0  0
    9.7598    1.5584    8.8078 C   0  0  0  0  0  0  0  0  0  0  0  0
    9.4528    2.8903    9.5066 C   0  0  0  0  0  0  0  0  0  0  0  0
   10.3728    3.4366    9.7079 H   0  0  0  0  0  0  0  0  0  0  0  0
    8.9325    2.7370   10.4534 H   0  0  0  0  0  0  0  0  0  0  0  0
    8.8177    3.5111    8.8543 H   0  0  0  0  0  0  0  0  0  0  0  0
   10.4769    1.8516    7.4919 C   0  0  0  0  0  0  0  0  0  0  0  0
   11.3318    2.5018    7.6726 H   0  0  0  0  0  0  0  0  0  0  0  0
    9.8018    2.3591    6.8017 H   0  0  0  0  0  0  0  0  0  0  0  0
   10.8438    0.9378    7.0310 H   0  0  0  0  0  0  0  0  0  0  0  0
   10.6149    0.6573    9.6949 C   0  0  0  0  0  0  0  0  0  0  0  0
   10.7857   -0.3085    9.2266 H   0  0  0  0  0  0  0  0  0  0  0  0
   10.1603    0.4913   10.6687 H   0  0  0  0  0  0  0  0  0  0  0  0
   11.5834    1.1292    9.8560 H   0  0  0  0  0  0  0  0  0  0  0  0
    7.9300   -0.5792    7.2890 C   0  0  0  0  0  0  0  0  0  0  0  0
    8.7536   -1.7884    7.7189 C   0  0  0  0  0  0  0  0  0  0  0  0
    8.5280   -2.6315    7.0669 H   0  0  0  0  0  0  0  0  0  0  0  0
    8.5349   -2.0882    8.7416 H   0  0  0  0  0  0  0  0  0  0  0  0
    9.8178   -1.5799    7.6378 H   0  0  0  0  0  0  0  0  0  0  0  0
    8.3170   -0.1350    5.8782 C   0  0  0  0  0  0  0  0  0  0  0  0
    9.3928   -0.0486    5.7616 H   0  0  0  0  0  0  0  0  0  0  0  0
    7.8654    0.8347    5.6527 H   0  0  0  0  0  0  0  0  0  0  0  0
    7.9574   -0.8596    5.1489 H   0  0  0  0  0  0  0  0  0  0  0  0
    6.4299   -0.9017    7.2830 C   0  0  0  0  0  0  0  0  0  0  0  0
    5.8638    0.0008    6.9978 H   0  0  0  0  0  0  0  0  0  0  0  0
    6.0793   -1.2383    8.2573 H   0  0  0  0  0  0  0  0  0  0  0  0
    6.2160   -1.6829    6.5550 H   0  0  0  0  0  0  0  0  0  0  0  0
    1.5767    4.0389    9.2547 C   0  0  0  0  0  0  0  0  0  0  0  0
    1.0894    3.0669    9.1802 H   0  0  0  0  0  0  0  0  0  0  0  0
    0.8965    4.7933    8.8668 H   0  0  0  0  0  0  0  0  0  0  0  0
    1.7706    4.2582   10.3045 H   0  0  0  0  0  0  0  0  0  0  0  0
    4.8702    3.6070    7.7333 N   0  0  0  0  0  0  0  0  0  0  0  0
    3.9234    3.2918    8.6413 N   0  0  1  0  0  0  0  0  0  0  0  0
    8.0377    0.9054    8.4393 P   0  0  0  0  0  4  0  0  0  0  0  0
    7.5581    3.4197    6.0186 Cl  0  0  0  0  0  0  0  0  0  0  0  0
    6.5695    2.4445    7.8538 Pd  0  0  2  0  0  0  0  0  0  0  0  0
  1  9  1  0  0  0  0
  2  1  1  1  0  0  0
  2  3  1  0  0  0  0
  3  4  1  0  0  0  0
  3  5  2  0  0  0  0
  5  6  1  0  0  0  0
  7  5  1  0  0  0  0
  7  8  1  0  0  0  0
  9  7  2  0  0  0  0
 10 49  1  0  0  0  0
 10 44  1  6  0  0  0
 11 10  1  0  0  0  0
 12 11  1  0  0  0  0
 13 11  2  0  0  0  0
 13 48  1  0  0  0  0
 14 13  1  0  0  0  0
 15 16  1  0  0  0  0
 15  9  1  0  0  0  0
 15 17  1  0  0  0  0
 18 19  1  0  0  0  0
 18 27  1  0  0  0  0
 19 20  1  0  0  0  0
 19 21  1  0  0  0  0
 22 19  1  0  0  0  0
 23 24  1  0  0  0  0
 23 18  1  0  0  0  0
 25 23  1  0  0  0  0
 26 23  1  0  0  0  0
 27 30  1  0  0  0  0
 27 29  1  0  0  0  0
 28 27  1  0  0  0  0
 31 32  1  0  0  0  0
 31 50  1  0  0  0  0
 32 34  1  0  0  0  0
 33 32  1  0  0  0  0
 35 32  1  0  0  0  0
 36 31  1  0  0  0  0
 37 36  1  0  0  0  0
 38 36  1  0  0  0  0
 39 36  1  0  0  0  0
 40 31  1  0  0  0  0
 40 42  1  0  0  0  0
 41 40  1  0  0  0  0
 43 40  1  0  0  0  0
 44 47  1  0  0  0  0
 45 44  1  0  0  0  0
 46 44  1  0  0  0  0
 48 52  1  0  0  0  0
 49 48  1  1  0  0  0
 49  2  1  0  0  0  0
 50 18  1  0  0  0  0
 50 15  1  0  0  0  0
 52 51  1  1  0  0  0
 52 50  1  0  0  0  0
 52  1  2  0  0  0  0
M  END
$$$$
