CSD_code = PUQKUH | q = 0 | S = 0 | Stoichiometry = C22H31ClHgO3 | MND = 2
 OpenBabel04212202083D

 58 61  0  0  1  0  0  0  0  0999 V2000
    0.9687   -4.2122   -8.1669 Hg  0  0  0  0  0  0  0  0  0  0  0  0
   -1.3951   -4.5929   -8.2316 Cl  0  0  0  0  0  0  0  0  0  0  0  0
    1.1110   -0.4367  -13.6469 O   0  0  0  0  0  0  0  0  0  0  0  0
   -0.4455   -0.5675  -10.3547 O   0  0  0  0  0  0  0  0  0  0  0  0
    1.2501    1.1673  -10.2523 C   0  0  0  0  0  0  0  0  0  0  0  0
    0.0149   -1.1182  -11.5762 C   0  0  1  0  0  0  0  0  0  0  0  0
    0.6305    0.0397  -12.3875 C   0  0  1  0  0  0  0  0  0  0  0  0
    1.4817    2.3531   -9.6943 C   0  0  0  0  0  0  0  0  0  0  0  0
    3.1010   -3.7738   -8.8250 C   0  0  0  0  0  0  0  0  0  0  0  0
    1.7301    0.7808  -11.6265 C   0  0  0  0  0  0  0  0  0  0  0  0
    0.9423   -2.2975  -11.2345 C   0  0  1  0  0  0  0  0  0  0  0  0
    0.7368    1.5665  -14.5888 O   0  0  0  0  0  0  0  0  0  0  0  0
    1.8885   -2.9137  -12.2622 C   0  0  0  0  0  0  0  0  0  0  0  0
    1.6817   -0.9590   -9.2700 C   0  0  0  0  0  0  0  0  0  0  0  0
   -1.2278   -1.6324  -12.3070 C   0  0  0  0  0  0  0  0  0  0  0  0
    2.1639    3.4801  -10.4218 C   0  0  0  0  0  0  0  0  0  0  0  0
    2.7760   -3.7932  -11.3779 C   0  0  0  0  0  0  0  0  0  0  0  0
    1.0778    2.6690   -8.2816 C   0  0  0  0  0  0  0  0  0  0  0  0
    1.8759   -1.9753  -10.0983 C   0  0  0  0  0  0  0  0  0  0  0  0
    3.0298   -2.9538  -10.1119 C   0  0  1  0  0  0  0  0  0  0  0  0
    1.0952    0.4221  -14.6718 C   0  0  0  0  0  0  0  0  0  0  0  0
   -0.5184   -0.7491   -7.3879 C   0  0  0  0  0  0  0  0  0  0  0  0
   -0.1748    0.4711   -8.2458 C   0  0  0  0  0  0  0  0  0  0  0  0
    0.5586    0.0166   -9.5310 C   0  0  2  0  0  0  0  0  0  0  0  0
    1.5667   -0.2479  -15.9362 C   0  0  0  0  0  0  0  0  0  0  0  0
    0.7351    1.4256   -7.4687 C   0  0  0  0  0  0  0  0  0  0  0  0
   -1.4783    1.1783   -8.6302 C   0  0  0  0  0  0  0  0  0  0  0  0
   -0.1793    0.7574  -12.5830 H   0  0  0  0  0  0  0  0  0  0  0  0
    3.5716   -3.1935   -8.0317 H   0  0  0  0  0  0  0  0  0  0  0  0
    3.6748   -4.6883   -8.9766 H   0  0  0  0  0  0  0  0  0  0  0  0
    2.0176    1.6573  -12.2062 H   0  0  0  0  0  0  0  0  0  0  0  0
    2.6051    0.1290  -11.5388 H   0  0  0  0  0  0  0  0  0  0  0  0
    0.2701   -3.1005  -10.8870 H   0  0  0  0  0  0  0  0  0  0  0  0
    1.3669   -3.4830  -13.0287 H   0  0  0  0  0  0  0  0  0  0  0  0
    2.4821   -2.1397  -12.7469 H   0  0  0  0  0  0  0  0  0  0  0  0
    2.3962   -0.6957   -8.5050 H   0  0  0  0  0  0  0  0  0  0  0  0
   -1.9154   -0.8116  -12.4929 H   0  0  0  0  0  0  0  0  0  0  0  0
   -0.9389   -2.0832  -13.2521 H   0  0  0  0  0  0  0  0  0  0  0  0
   -1.7344   -2.3691  -11.6899 H   0  0  0  0  0  0  0  0  0  0  0  0
    1.7120    3.6524  -11.3965 H   0  0  0  0  0  0  0  0  0  0  0  0
    2.0903    4.3987   -9.8454 H   0  0  0  0  0  0  0  0  0  0  0  0
    3.2194    3.2566  -10.5743 H   0  0  0  0  0  0  0  0  0  0  0  0
    2.2270   -4.7022  -11.1078 H   0  0  0  0  0  0  0  0  0  0  0  0
    3.7013   -4.0861  -11.8716 H   0  0  0  0  0  0  0  0  0  0  0  0
    1.8968    3.2060   -7.7948 H   0  0  0  0  0  0  0  0  0  0  0  0
    0.2224    3.3505   -8.3049 H   0  0  0  0  0  0  0  0  0  0  0  0
    0.3825   -1.2180   -6.9859 H   0  0  0  0  0  0  0  0  0  0  0  0
   -1.1488   -0.4551   -6.5522 H   0  0  0  0  0  0  0  0  0  0  0  0
   -1.0585   -1.4790   -7.9884 H   0  0  0  0  0  0  0  0  0  0  0  0
    2.2340   -1.0712  -15.7016 H   0  0  0  0  0  0  0  0  0  0  0  0
    0.6977   -0.6381  -16.4631 H   0  0  0  0  0  0  0  0  0  0  0  0
    2.0577    0.4803  -16.5749 H   0  0  0  0  0  0  0  0  0  0  0  0
    1.6578    0.9090   -7.1977 H   0  0  0  0  0  0  0  0  0  0  0  0
    0.2397    1.7175   -6.5405 H   0  0  0  0  0  0  0  0  0  0  0  0
   -2.1849    0.4550   -9.0240 H   0  0  0  0  0  0  0  0  0  0  0  0
   -1.9135    1.6569   -7.7556 H   0  0  0  0  0  0  0  0  0  0  0  0
   -1.3016    1.9268   -9.3966 H   0  0  0  0  0  0  0  0  0  0  0  0
    3.9718   -2.3998  -10.2174 H   0  0  0  0  0  0  0  0  0  0  0  0
  2  1  1  0  0  0  0
  3  7  1  0  0  0  0
  5  8  2  0  0  0  0
  5 24  1  0  0  0  0
  6 15  1  6  0  0  0
  6 11  1  0  0  0  0
  6  4  1  0  0  0  0
  7 28  1  6  0  0  0
  7 10  1  0  0  0  0
  7  6  1  0  0  0  0
  8 18  1  0  0  0  0
  9  1  1  0  0  0  0
  9 29  1  0  0  0  0
 10 32  1  0  0  0  0
 10  5  1  0  0  0  0
 11 33  1  1  0  0  0
 11 19  1  0  0  0  0
 13 17  1  0  0  0  0
 13 11  1  0  0  0  0
 14 36  1  0  0  0  0
 15 39  1  0  0  0  0
 16 41  1  0  0  0  0
 16  8  1  0  0  0  0
 17 43  1  0  0  0  0
 17 20  1  0  0  0  0
 18 45  1  0  0  0  0
 18 26  1  0  0  0  0
 19 14  2  0  0  0  0
 20 58  1  6  0  0  0
 20 19  1  0  0  0  0
 20  9  1  0  0  0  0
 21 12  2  0  0  0  0
 21  3  1  0  0  0  0
 22 47  1  0  0  0  0
 22 48  1  0  0  0  0
 23 26  1  0  0  0  0
 23 22  1  0  0  0  0
 24  4  1  6  0  0  0
 24 14  1  0  0  0  0
 24 23  1  0  0  0  0
 25 50  1  0  0  0  0
 25 21  1  0  0  0  0
 26 53  1  0  0  0  0
 26 54  1  0  0  0  0
 27 23  1  0  0  0  0
 27 56  1  0  0  0  0
 30  9  1  0  0  0  0
 31 10  1  0  0  0  0
 34 13  1  0  0  0  0
 35 13  1  0  0  0  0
 37 15  1  0  0  0  0
 38 15  1  0  0  0  0
 40 16  1  0  0  0  0
 42 16  1  0  0  0  0
 44 17  1  0  0  0  0
 46 18  1  0  0  0  0
 49 22  1  0  0  0  0
 51 25  1  0  0  0  0
 52 25  1  0  0  0  0
 55 27  1  0  0  0  0
 57 27  1  0  0  0  0
M  END
$$$$
