CSD_code = PUSKIZ | q = 1 | S = 0 | Stoichiometry = C18H16AuClN5S(1+) | MND = 2
 OpenBabel04212202083D

 42 44  0  0  1  0  0  0  0  0999 V2000
    7.1732    6.3603    0.5332 Au  0  0  0  0  0  0  0  0  0  0  0  0
    8.8338    7.2087    1.9644 S   0  0  0  0  0  0  0  0  0  0  0  0
    5.8825    5.1425   -0.8892 Cl  0  0  0  0  0  0  0  0  0  0  0  0
   10.0591    6.0545    1.8425 C   0  0  1  0  0  3  0  0  0  0  0  0
   10.7238    4.0594    0.7508 N   0  0  0  0  0  0  0  0  0  0  0  0
   11.1023    5.9259    2.6641 N   0  0  0  0  0  0  0  0  0  0  0  0
   11.7143    5.1518    2.4161 H   0  0  0  0  0  0  0  0  0  0  0  0
    9.9887    5.1544    0.8206 N   0  0  0  0  0  0  0  0  0  0  0  0
    9.3445    5.3437    0.0230 H   0  0  0  0  0  0  0  0  0  0  0  0
   11.5090    6.6143    3.8169 C   0  0  0  0  0  0  0  0  0  0  0  0
   11.4425    2.0980   -0.2542 C   0  0  1  0  0  3  0  0  0  0  0  0
   10.5652    3.2442   -0.2669 C   0  0  0  0  0  0  0  0  0  0  0  0
    9.5765    3.4275   -1.3407 C   0  0  0  0  0  0  0  0  0  0  0  0
   11.7950    1.3487   -1.3841 C   0  0  0  0  0  0  0  0  0  0  0  0
   11.3955    1.6259   -2.3460 H   0  0  0  0  0  0  0  0  0  0  0  0
   12.8707    0.7393    1.0721 C   0  0  0  0  0  0  0  0  0  0  0  0
   13.2621    0.5562    2.0613 H   0  0  0  0  0  0  0  0  0  0  0  0
   10.9679    7.8229    4.2414 C   0  0  0  0  0  0  0  0  0  0  0  0
   10.1887    8.3053    3.6799 H   0  0  0  0  0  0  0  0  0  0  0  0
   13.0115    6.6271    5.6998 C   0  0  0  0  0  0  0  0  0  0  0  0
   13.8069    6.1614    6.2606 H   0  0  0  0  0  0  0  0  0  0  0  0
   12.4626    7.8259    6.1293 C   0  0  0  0  0  0  0  0  0  0  0  0
   12.8282    8.2963    7.0281 H   0  0  0  0  0  0  0  0  0  0  0  0
   12.5419    6.0261    4.5496 C   0  0  0  0  0  0  0  0  0  0  0  0
   12.9743    5.0929    4.2143 H   0  0  0  0  0  0  0  0  0  0  0  0
   11.4487    8.4173    5.3954 C   0  0  0  0  0  0  0  0  0  0  0  0
   11.0253    9.3555    5.7173 H   0  0  0  0  0  0  0  0  0  0  0  0
   12.6730    0.2933   -1.2628 C   0  0  0  0  0  0  0  0  0  0  0  0
   12.9508   -0.2818   -2.1320 H   0  0  0  0  0  0  0  0  0  0  0  0
   13.2166   -0.0271   -0.0111 C   0  0  0  0  0  0  0  0  0  0  0  0
   13.9008   -0.8513    0.1000 H   0  0  0  0  0  0  0  0  0  0  0  0
    9.2529    4.6943   -1.6376 N   0  0  0  0  0  0  0  0  0  0  0  0
   12.0123    1.7588    0.9282 N   0  0  0  0  0  0  0  0  0  0  0  0
    7.9832    2.6037   -2.9221 C   0  0  0  0  0  0  0  0  0  0  0  0
    7.4642    1.7860   -3.3980 H   0  0  0  0  0  0  0  0  0  0  0  0
    8.9392    2.3475   -1.9503 C   0  0  0  0  0  0  0  0  0  0  0  0
    9.1481    1.3346   -1.6412 H   0  0  0  0  0  0  0  0  0  0  0  0
    8.3491    4.9278   -2.5698 C   0  0  0  0  0  0  0  0  0  0  0  0
    8.1435    5.9694   -2.7679 H   0  0  0  0  0  0  0  0  0  0  0  0
    7.6966    3.9147   -3.2611 C   0  0  0  0  0  0  0  0  0  0  0  0
    6.9619    4.1535   -4.0110 H   0  0  0  0  0  0  0  0  0  0  0  0
   11.7555    2.3475    1.7172 H   0  0  0  0  0  0  0  0  0  0  0  0
  1  2  1  0  0  0  0
  3  1  1  0  0  0  0
  4  2  1  1  0  0  0
  4  6  1  0  0  0  0
  5  8  1  0  0  0  0
  6 10  1  0  0  0  0
  7  6  1  0  0  0  0
  8  4  1  0  0  0  0
  9  8  1  0  0  0  0
 10 18  2  0  0  0  0
 10 24  1  0  0  0  0
 11 12  1  6  0  0  0
 11 33  1  0  0  0  0
 12  5  2  0  0  0  0
 13 12  1  0  0  0  0
 14 28  2  0  0  0  0
 14 11  1  0  0  0  0
 15 14  1  0  0  0  0
 16 17  1  0  0  0  0
 18 26  1  0  0  0  0
 19 18  1  0  0  0  0
 20 22  1  0  0  0  0
 20 21  1  0  0  0  0
 22 23  1  0  0  0  0
 24 20  2  0  0  0  0
 25 24  1  0  0  0  0
 26 27  1  0  0  0  0
 26 22  2  0  0  0  0
 28 30  1  0  0  0  0
 29 28  1  0  0  0  0
 30 31  1  0  0  0  0
 30 16  2  0  0  0  0
 32 13  1  0  0  0  0
 33 16  1  0  0  0  0
 33 42  1  0  0  0  0
 34 36  1  0  0  0  0
 35 34  1  0  0  0  0
 36 37  1  0  0  0  0
 36 13  2  0  0  0  0
 38 32  2  0  0  0  0
 39 38  1  0  0  0  0
 40 34  2  0  0  0  0
 40 38  1  0  0  0  0
 41 40  1  0  0  0  0
M  END
$$$$
