CSD_code = PUTCIR | q = 0 | S = 0 | Stoichiometry = C22H18Cl2F6N2O2Zr | MND = 6
 OpenBabel04212202083D

 53 56  0  0  1  0  0  0  0  0999 V2000
   -0.4002    0.6497    4.5636 Zr  0  0  0  0  0  0  0  0  0  0  0  0
    0.9644   -0.8935    5.6771 Cl  0  0  0  0  0  0  0  0  0  0  0  0
    0.9173    0.6952    3.1091 O   0  0  0  0  0  0  0  0  0  0  0  0
    4.1653   -0.0485    2.3668 F   0  0  0  0  0  0  0  0  0  0  0  0
    3.3022    1.5294    1.1970 F   0  0  0  0  0  0  0  0  0  0  0  0
    2.1567    2.1807    5.3600 C   0  0  1  0  0  3  0  0  0  0  0  0
    0.8588    2.2020    5.4315 N   0  0  0  0  0  0  0  0  0  0  0  0
    2.3321   -0.3903    1.2837 F   0  0  0  0  0  0  0  0  0  0  0  0
    2.8071    1.6584    4.2011 C   0  0  0  0  0  0  0  0  0  0  0  0
    3.8779    1.7685    4.1321 H   0  0  0  0  0  0  0  0  0  0  0  0
   -1.5698    3.8219    7.6897 C   0  0  0  0  0  0  0  0  0  0  0  0
   -2.3104    4.6063    7.6562 H   0  0  0  0  0  0  0  0  0  0  0  0
    0.1655    2.5507    6.6106 C   0  0  0  0  0  0  0  0  0  0  0  0
   -1.4117    3.0678    8.8413 C   0  0  0  0  0  0  0  0  0  0  0  0
   -2.0355    3.2593    9.6999 H   0  0  0  0  0  0  0  0  0  0  0  0
   -0.7928    3.5655    6.5732 C   0  0  0  0  0  0  0  0  0  0  0  0
   -0.9209    4.1455    5.6677 H   0  0  0  0  0  0  0  0  0  0  0  0
    3.0413    2.7328    6.4375 C   0  0  0  0  0  0  0  0  0  0  0  0
    3.8575    3.3022    5.9999 H   0  0  0  0  0  0  0  0  0  0  0  0
    3.4759    1.9031    6.9939 H   0  0  0  0  0  0  0  0  0  0  0  0
    2.4804    3.3605    7.1260 H   0  0  0  0  0  0  0  0  0  0  0  0
   -0.4681    2.0530    8.8783 C   0  0  0  0  0  0  0  0  0  0  0  0
   -0.3553    1.4518    9.7673 H   0  0  0  0  0  0  0  0  0  0  0  0
    2.1604    0.9749    3.2082 C   0  0  0  0  0  0  0  0  0  0  0  0
    2.9962    0.4997    2.0144 C   0  0  0  0  0  0  0  0  0  0  0  0
    0.3249    1.7919    7.7753 C   0  0  0  0  0  0  0  0  0  0  0  0
    1.0334    0.9726    7.7806 H   0  0  0  0  0  0  0  0  0  0  0  0
   -1.7642   -0.8936    3.4497 Cl  0  0  0  0  0  0  0  0  0  0  0  0
   -1.7178    0.6952    6.0182 O   0  0  0  0  0  0  0  0  0  0  0  0
   -4.9684   -0.0448    6.7587 F   0  0  0  0  0  0  0  0  0  0  0  0
   -4.0987    1.5275    7.9328 F   0  0  0  0  0  0  0  0  0  0  0  0
   -2.9571    2.1803    3.7667 C   0  0  1  0  0  3  0  0  0  0  0  0
   -1.6592    2.2017    3.6952 N   0  0  0  0  0  0  0  0  0  0  0  0
   -3.1348   -0.3960    7.8397 F   0  0  0  0  0  0  0  0  0  0  0  0
   -3.6076    1.6579    4.9255 C   0  0  0  0  0  0  0  0  0  0  0  0
   -4.6784    1.7680    4.9944 H   0  0  0  0  0  0  0  0  0  0  0  0
    0.7698    3.8211    1.4372 C   0  0  0  0  0  0  0  0  0  0  0  0
    1.5106    4.6054    1.4707 H   0  0  0  0  0  0  0  0  0  0  0  0
   -0.9659    2.5505    2.5161 C   0  0  0  0  0  0  0  0  0  0  0  0
    0.6120    3.0666    0.2857 C   0  0  0  0  0  0  0  0  0  0  0  0
    1.2364    3.2577   -0.5726 H   0  0  0  0  0  0  0  0  0  0  0  0
   -0.0076    3.5652    2.5535 C   0  0  0  0  0  0  0  0  0  0  0  0
    0.1204    4.1454    3.4588 H   0  0  0  0  0  0  0  0  0  0  0  0
   -3.8417    2.7328    2.6894 C   0  0  0  0  0  0  0  0  0  0  0  0
   -4.6580    3.3020    3.1271 H   0  0  0  0  0  0  0  0  0  0  0  0
   -4.2761    1.9032    2.1328 H   0  0  0  0  0  0  0  0  0  0  0  0
   -3.2808    3.3607    2.0010 H   0  0  0  0  0  0  0  0  0  0  0  0
   -0.3317    2.0521    0.2488 C   0  0  0  0  0  0  0  0  0  0  0  0
   -0.4442    1.4505   -0.6400 H   0  0  0  0  0  0  0  0  0  0  0  0
   -2.9610    0.9743    5.9185 C   0  0  0  0  0  0  0  0  0  0  0  0
   -3.7969    0.4987    7.1121 C   0  0  0  0  0  0  0  0  0  0  0  0
   -1.1251    1.7914    1.3516 C   0  0  0  0  0  0  0  0  0  0  0  0
   -1.8336    0.9721    1.3463 H   0  0  0  0  0  0  0  0  0  0  0  0
  1  7  1  0  0  0  0
  1  2  1  0  0  0  0
  1 29  1  0  0  0  0
  3 24  1  0  0  0  0
  3  1  1  0  0  0  0
  5 25  1  0  0  0  0
  6  7  1  0  0  0  0
  6 18  1  6  0  0  0
  7 13  1  0  0  0  0
  8 25  1  0  0  0  0
  9  6  1  0  0  0  0
 10  9  1  0  0  0  0
 11 14  1  0  0  0  0
 12 11  1  0  0  0  0
 13 26  2  0  0  0  0
 14 22  2  0  0  0  0
 14 15  1  0  0  0  0
 16 13  1  0  0  0  0
 16 11  2  0  0  0  0
 17 16  1  0  0  0  0
 18 20  1  0  0  0  0
 18 21  1  0  0  0  0
 19 18  1  0  0  0  0
 22 23  1  0  0  0  0
 24  9  2  0  0  0  0
 25  4  1  0  0  0  0
 25 24  1  0  0  0  0
 26 27  1  0  0  0  0
 26 22  1  0  0  0  0
 28  1  1  0  0  0  0
 30 51  1  0  0  0  0
 32 44  1  1  0  0  0
 32 35  1  0  0  0  0
 33 32  1  0  0  0  0
 33  1  1  0  0  0  0
 35 36  1  0  0  0  0
 35 50  2  0  0  0  0
 37 38  1  0  0  0  0
 37 42  1  0  0  0  0
 39 42  2  0  0  0  0
 39 33  1  0  0  0  0
 40 37  2  0  0  0  0
 41 40  1  0  0  0  0
 42 43  1  0  0  0  0
 44 45  1  0  0  0  0
 46 44  1  0  0  0  0
 47 44  1  0  0  0  0
 48 40  1  0  0  0  0
 48 52  2  0  0  0  0
 49 48  1  0  0  0  0
 50 29  1  0  0  0  0
 50 51  1  0  0  0  0
 51 34  1  0  0  0  0
 51 31  1  0  0  0  0
 52 39  1  0  0  0  0
 53 52  1  0  0  0  0
M  END
$$$$
