CSD_code = PUTTED | q = 0 | S = 0 | Stoichiometry = C19H14ClN3PdS | MND = 4
 OpenBabel04212202083D

 39 43  0  0  0  0  0  0  0  0999 V2000
    6.8997    2.1745    0.6192 Pd  0  0  2  0  0  0  0  0  0  0  0  0
    9.0127    2.7704    0.8011 Cl  0  0  0  0  0  0  0  0  0  0  0  0
    6.8330    0.6897    2.3681 S   0  0  0  0  0  0  0  0  0  0  0  0
    6.4512    3.3882   -1.0213 N   0  0  0  0  0  0  0  0  0  0  0  0
    5.0449    1.7308    0.4114 N   0  0  0  0  0  0  0  0  0  0  0  0
    4.4231    0.8949    1.2314 N   0  0  0  0  0  0  0  0  0  0  0  0
    2.0772    3.2590   -0.8344 C   0  0  0  0  0  0  0  0  0  0  0  0
    2.4873    4.2567   -0.7709 H   0  0  0  0  0  0  0  0  0  0  0  0
    0.7147    3.0795   -0.9827 C   0  0  0  0  0  0  0  0  0  0  0  0
    0.0669    3.9403   -1.0588 H   0  0  0  0  0  0  0  0  0  0  0  0
    0.1803    1.8023   -1.0257 C   0  0  0  0  0  0  0  0  0  0  0  0
   -0.8843    1.6654   -1.1421 H   0  0  0  0  0  0  0  0  0  0  0  0
    1.0150    0.7027   -0.9122 C   0  0  0  0  0  0  0  0  0  0  0  0
    0.6020   -0.2947   -0.9415 H   0  0  0  0  0  0  0  0  0  0  0  0
    2.3779    0.8745   -0.7604 C   0  0  0  0  0  0  0  0  0  0  0  0
    3.0272    0.0169   -0.6762 H   0  0  0  0  0  0  0  0  0  0  0  0
    2.9242    2.1562   -0.7272 C   0  0  0  0  0  0  0  0  0  0  0  0
    4.3705    2.3465   -0.5428 C   0  0  0  0  0  0  0  0  0  0  0  0
    5.1545    3.2236   -1.3867 C   0  0  0  0  0  0  0  0  0  0  0  0
    4.6668    3.8433   -2.5437 C   0  0  0  0  0  0  0  0  0  0  0  0
    3.6466    3.6736   -2.8484 H   0  0  0  0  0  0  0  0  0  0  0  0
    5.5077    4.6478   -3.2872 C   0  0  0  0  0  0  0  0  0  0  0  0
    5.1443    5.1328   -4.1805 H   0  0  0  0  0  0  0  0  0  0  0  0
    6.8248    4.8189   -2.8781 C   0  0  0  0  0  0  0  0  0  0  0  0
    7.5061    5.4421   -3.4333 H   0  0  0  0  0  0  0  0  0  0  0  0
    7.2563    4.1568   -1.7391 C   0  0  0  0  0  0  0  0  0  0  0  0
    8.2767    4.2381   -1.3812 H   0  0  0  0  0  0  0  0  0  0  0  0
    5.1461    0.3525    2.1760 C   0  0  0  0  0  0  0  0  0  0  0  0
    4.4905   -0.5718    3.0911 C   0  0  0  0  0  0  0  0  0  0  0  0
    5.2135   -1.2534    4.0706 C   0  0  0  0  0  0  0  0  0  0  0  0
    6.2776   -1.0913    4.1503 H   0  0  0  0  0  0  0  0  0  0  0  0
    4.5732   -2.1275    4.9265 C   0  0  0  0  0  0  0  0  0  0  0  0
    5.1408   -2.6510    5.6813 H   0  0  0  0  0  0  0  0  0  0  0  0
    3.2067   -2.3340    4.8189 C   0  0  0  0  0  0  0  0  0  0  0  0
    2.7088   -3.0182    5.4901 H   0  0  0  0  0  0  0  0  0  0  0  0
    2.4799   -1.6607    3.8486 C   0  0  0  0  0  0  0  0  0  0  0  0
    1.4149   -1.8199    3.7648 H   0  0  0  0  0  0  0  0  0  0  0  0
    3.1123   -0.7852    2.9891 C   0  0  0  0  0  0  0  0  0  0  0  0
    2.5583   -0.2518    2.2326 H   0  0  0  0  0  0  0  0  0  0  0  0
  1  2  1  1  0  0  0
  1  3  1  0  0  0  0
  4  1  1  0  0  0  0
  5  1  1  0  0  0  0
  5  6  1  0  0  0  0
  6 28  2  0  0  0  0
  7  8  1  0  0  0  0
  7 17  1  0  0  0  0
  9  7  2  0  0  0  0
 10  9  1  0  0  0  0
 11  9  1  0  0  0  0
 11 13  2  0  0  0  0
 12 11  1  0  0  0  0
 13 15  1  0  0  0  0
 14 13  1  0  0  0  0
 15 17  2  0  0  0  0
 15 16  1  0  0  0  0
 17 18  1  0  0  0  0
 18  5  1  0  0  0  0
 19  4  1  0  0  0  0
 19 18  2  0  0  0  0
 20 19  1  0  0  0  0
 21 20  1  0  0  0  0
 22 24  1  0  0  0  0
 22 20  2  0  0  0  0
 23 22  1  0  0  0  0
 24 26  2  0  0  0  0
 25 24  1  0  0  0  0
 26 27  1  0  0  0  0
 26  4  1  0  0  0  0
 28  3  1  0  0  0  0
 28 29  1  0  0  0  0
 29 30  1  0  0  0  0
 30 31  1  0  0  0  0
 30 32  2  0  0  0  0
 32 33  1  0  0  0  0
 34 32  1  0  0  0  0
 34 35  1  0  0  0  0
 36 34  2  0  0  0  0
 37 36  1  0  0  0  0
 38 29  2  0  0  0  0
 38 36  1  0  0  0  0
 39 38  1  0  0  0  0
M  END
$$$$
