CSD_code = PUVGUI | q = 0 | S = 0 | Stoichiometry = C13H18BCl2N6OV | MND = 6
 OpenBabel04212202083D

 42 46  0  0  1  0  0  0  0  0999 V2000
   -2.8085    4.1257   11.9363 V   0  0  0  0  0  0  0  0  0  0  0  0
   -1.1251    4.4284   10.6937 Cl  0  0  0  0  0  0  0  0  0  0  0  0
   -2.7880    5.7123   13.4182 Cl  0  0  0  0  0  0  0  0  0  0  0  0
   -5.6103    3.3637   10.6527 B   0  0  1  0  0  0  0  0  0  0  0  0
   -6.6549    3.1138   10.1623 H   0  0  0  0  0  0  0  0  0  0  0  0
   -4.5034    3.4815   12.8496 N   0  0  2  0  0  0  0  0  0  0  0  0
   -5.6331    3.2751   12.1813 N   0  0  0  0  0  0  0  0  0  0  0  0
   -3.9574    5.2198   10.7754 N   0  0  1  0  0  0  0  0  0  0  0  0
   -5.1213    4.7764   10.3035 N   0  0  0  0  0  0  0  0  0  0  0  0
   -3.2895    2.5351   10.7482 N   0  0  1  0  0  0  0  0  0  0  0  0
   -4.5016    2.4008   10.2194 N   0  0  0  0  0  0  0  0  0  0  0  0
   -1.6471    3.0031   13.2139 O   0  0  0  0  0  0  0  0  0  0  0  0
   -4.7639    3.3286   14.1393 C   0  0  0  0  0  3  0  0  0  0  0  0
   -4.0015    3.4795   14.8815 H   0  0  0  0  0  0  0  0  0  0  0  0
   -6.1090    3.0071   14.3130 C   0  0  0  0  0  0  0  0  0  0  0  0
   -6.6272    2.8259   15.2322 H   0  0  0  0  0  0  0  0  0  0  0  0
   -6.6248    2.9832   13.0326 C   0  0  0  0  0  0  0  0  0  0  0  0
   -7.6185    2.7814   12.6863 H   0  0  0  0  0  0  0  0  0  0  0  0
   -3.7743    6.4528   10.3267 C   0  0  0  0  0  3  0  0  0  0  0  0
   -2.8907    7.0088   10.5885 H   0  0  0  0  0  0  0  0  0  0  0  0
   -4.8561    6.8248    9.5344 C   0  0  0  0  0  0  0  0  0  0  0  0
   -5.0097    7.7549    9.0268 H   0  0  0  0  0  0  0  0  0  0  0  0
   -5.6910    5.7229    9.5503 C   0  0  0  0  0  0  0  0  0  0  0  0
   -6.6402    5.5670    9.0772 H   0  0  0  0  0  0  0  0  0  0  0  0
   -2.5147    1.5993   10.2224 C   0  0  0  0  0  3  0  0  0  0  0  0
   -1.4733    1.5312   10.4772 H   0  0  0  0  0  0  0  0  0  0  0  0
   -3.2513    0.8262    9.3256 C   0  0  0  0  0  0  0  0  0  0  0  0
   -2.9102   -0.0025    8.7398 H   0  0  0  0  0  0  0  0  0  0  0  0
   -4.5169    1.3746    9.3580 C   0  0  0  0  0  0  0  0  0  0  0  0
   -5.4078    1.1008    8.8297 H   0  0  0  0  0  0  0  0  0  0  0  0
   -0.4560    3.5608   13.7668 C   0  0  0  0  0  0  0  0  0  0  0  0
    0.2386    3.7835   12.9460 H   0  0  0  0  0  0  0  0  0  0  0  0
   -0.7423    4.5023   14.2514 H   0  0  0  0  0  0  0  0  0  0  0  0
    0.1037    2.5347   14.7581 C   0  0  0  0  0  0  0  0  0  0  0  0
    0.4559    3.0029   15.6743 H   0  0  0  0  0  0  0  0  0  0  0  0
    0.9299    1.9789   14.3128 H   0  0  0  0  0  0  0  0  0  0  0  0
   -1.0907    1.6091   14.9893 C   0  0  0  0  0  0  0  0  0  0  0  0
   -1.7587    2.0290   15.7427 H   0  0  0  0  0  0  0  0  0  0  0  0
   -0.8024    0.6042   15.2889 H   0  0  0  0  0  0  0  0  0  0  0  0
   -1.7562    1.6516   13.6181 C   0  0  0  0  0  0  0  0  0  0  0  0
   -1.2159    1.0025   12.9120 H   0  0  0  0  0  0  0  0  0  0  0  0
   -2.8139    1.3766   13.6260 H   0  0  0  0  0  0  0  0  0  0  0  0
  1  6  1  0  0  0  0
  1  3  1  0  0  0  0
  2  1  1  0  0  0  0
  4  5  1  6  0  0  0
  4  7  1  0  0  0  0
  6 13  1  1  0  0  0
  7  6  1  0  0  0  0
  7 17  1  0  0  0  0
  8 19  1  1  0  0  0
  8  1  1  0  0  0  0
  9  4  1  0  0  0  0
  9  8  1  0  0  0  0
 10 25  1  6  0  0  0
 10  1  1  0  0  0  0
 11  4  1  0  0  0  0
 11 10  1  0  0  0  0
 12 40  1  0  0  0  0
 12 31  1  0  0  0  0
 13 15  1  0  0  0  0
 13 14  1  0  0  0  0
 15 16  1  0  0  0  0
 17 15  2  0  0  0  0
 18 17  1  0  0  0  0
 19 20  1  0  0  0  0
 21 23  2  0  0  0  0
 21 19  1  0  0  0  0
 22 21  1  0  0  0  0
 23  9  1  0  0  0  0
 24 23  1  0  0  0  0
 25 26  1  0  0  0  0
 27 29  2  0  0  0  0
 27 25  1  0  0  0  0
 28 27  1  0  0  0  0
 29 11  1  0  0  0  0
 30 29  1  0  0  0  0
 31 33  1  0  0  0  0
 31 34  1  0  0  0  0
 32 31  1  0  0  0  0
 34 37  1  0  0  0  0
 34 35  1  0  0  0  0
 36 34  1  0  0  0  0
 37 39  1  0  0  0  0
 37 38  1  0  0  0  0
 40 42  1  0  0  0  0
 40 37  1  0  0  0  0
 41 40  1  0  0  0  0
M  END
$$$$
