CSD_code = PUVJIZ | q = 0 | S = 0 | Stoichiometry = C18H14Cl2N2Zn | MND = 4
 OpenBabel04212202083D

 37 40  0  0  1  0  0  0  0  0999 V2000
    6.5590    3.2466    7.5688 Zn  0  0  0  0  0  0  0  0  0  0  0  0
    5.9127    2.1464    9.3728 Cl  0  0  0  0  0  0  0  0  0  0  0  0
    5.2898    4.5439    6.2984 Cl  0  0  0  0  0  0  0  0  0  0  0  0
    7.4401    1.9018    6.1301 N   0  0  0  0  0  0  0  0  0  0  0  0
    8.1733    4.5799    8.1218 N   0  0  0  0  0  0  0  0  0  0  0  0
    9.3478    4.4536    7.5536 C   0  0  0  0  0  0  0  0  0  0  0  0
   10.3944    5.3681    7.7259 C   0  0  0  0  0  0  0  0  0  0  0  0
   10.1920    6.4601    8.5270 C   0  0  0  0  0  0  0  0  0  0  0  0
    8.9438    6.6293    9.1551 C   0  0  0  0  0  0  0  0  0  0  0  0
    8.6541    7.7248    9.9946 C   0  0  0  0  0  0  0  0  0  0  0  0
    7.4237    7.8438   10.5765 C   0  0  0  0  0  0  0  0  0  0  0  0
    6.4339    6.8736   10.3470 C   0  0  0  0  0  0  0  0  0  0  0  0
    6.6824    5.7971    9.5413 C   0  0  0  0  0  0  0  0  0  0  0  0
    7.9383    5.6469    8.9226 C   0  0  2  0  0  3  0  0  0  0  0  0
    6.9962    2.0028    4.8997 C   0  0  0  0  0  0  0  0  0  0  0  0
    7.3604    1.1164    3.8765 C   0  0  0  0  0  0  0  0  0  0  0  0
    8.2185    0.0891    4.1627 C   0  0  0  0  0  0  0  0  0  0  0  0
    8.7155   -0.0475    5.4741 C   0  0  0  0  0  0  0  0  0  0  0  0
    9.6044   -1.0745    5.8532 C   0  0  0  0  0  3  0  0  0  0  0  0
   10.0555   -1.1598    7.1405 C   0  0  0  0  0  0  0  0  0  0  0  0
    9.6382   -0.2243    8.1012 C   0  0  0  0  0  0  0  0  0  0  0  0
    8.7784    0.7859    7.7679 C   0  0  0  0  0  0  0  0  0  0  0  0
    8.2930    0.8979    6.4507 C   0  0  0  0  0  0  0  0  0  0  0  0
    6.3213    2.8253    4.7042 H   0  0  0  0  0  0  0  0  0  0  0  0
    6.9574    1.2572    2.8864 H   0  0  0  0  0  0  0  0  0  0  0  0
    8.5233   -0.6184    3.4047 H   0  0  0  0  0  0  0  0  0  0  0  0
    9.9154   -1.7902    5.1062 H   0  0  0  0  0  0  0  0  0  0  0  0
   10.7323   -1.9500    7.4285 H   0  0  0  0  0  0  0  0  0  0  0  0
    9.9990   -0.3103    9.1148 H   0  0  0  0  0  0  0  0  0  0  0  0
    8.4369    1.4954    8.5058 H   0  0  0  0  0  0  0  0  0  0  0  0
    9.4877    3.5857    6.9237 H   0  0  0  0  0  0  0  0  0  0  0  0
   11.3352    5.2005    7.2260 H   0  0  0  0  0  0  0  0  0  0  0  0
   10.9701    7.1932    8.6852 H   0  0  0  0  0  0  0  0  0  0  0  0
    9.4240    8.4634   10.1643 H   0  0  0  0  0  0  0  0  0  0  0  0
    7.2038    8.6843   11.2175 H   0  0  0  0  0  0  0  0  0  0  0  0
    5.4677    6.9837   10.8149 H   0  0  0  0  0  0  0  0  0  0  0  0
    5.9252    5.0466    9.3676 H   0  0  0  0  0  0  0  0  0  0  0  0
  1  5  1  0  0  0  0
  1  2  1  0  0  0  0
  3  1  1  0  0  0  0
  4 23  1  0  0  0  0
  4  1  1  0  0  0  0
  5 14  1  0  0  0  0
  6  7  2  0  0  0  0
  6  5  1  0  0  0  0
  7  8  1  0  0  0  0
  8 33  1  0  0  0  0
  8  9  2  0  0  0  0
  9 10  1  0  0  0  0
 10 34  1  0  0  0  0
 10 11  2  0  0  0  0
 11 35  1  0  0  0  0
 12 11  1  0  0  0  0
 12 36  1  0  0  0  0
 13 12  2  0  0  0  0
 14  9  1  1  0  0  0
 14 13  1  0  0  0  0
 15  4  1  0  0  0  0
 16 17  1  0  0  0  0
 16 15  2  0  0  0  0
 17 18  2  0  0  0  0
 18 19  1  0  0  0  0
 18 23  1  0  0  0  0
 19 20  1  0  0  0  0
 20 28  1  0  0  0  0
 20 21  2  0  0  0  0
 21 29  1  0  0  0  0
 22 21  1  0  0  0  0
 22 30  1  0  0  0  0
 23 22  2  0  0  0  0
 24 15  1  0  0  0  0
 25 16  1  0  0  0  0
 26 17  1  0  0  0  0
 27 19  1  0  0  0  0
 31  6  1  0  0  0  0
 32  7  1  0  0  0  0
 37 13  1  0  0  0  0
M  END
$$$$
