CSD_code = PUVLAV | q = 0 | S = 0 | Stoichiometry = C8H16Cl2CrO2 | MND = 4
 OpenBabel04212202083D

 29 28  0  0  0  0  0  0  0  0999 V2000
    5.6027    0.4168    9.1264 Cr  0  0  0  0  0  0  0  0  0  0  0  0
    7.0605   -0.8891   10.1928 Cl  0  0  0  0  0  0  0  0  0  0  0  0
    5.5323    1.6068   10.6776 O   0  0  0  0  0  0  0  0  0  0  0  0
    5.7247    3.0304   10.6324 C   0  0  0  0  0  0  0  0  0  0  0  0
    5.0882    3.4249    9.8336 H   0  0  0  0  0  0  0  0  0  0  0  0
    6.7771    3.2220   10.3898 H   0  0  0  0  0  0  0  0  0  0  0  0
    5.2787    1.2000   12.0299 C   0  0  0  0  0  0  0  0  0  0  0  0
    5.8389    0.2765   12.2039 H   0  0  0  0  0  0  0  0  0  0  0  0
    4.2035    1.0078   12.1399 H   0  0  0  0  0  0  0  0  0  0  0  0
    5.7232    2.3662   12.9044 C   0  0  0  0  0  0  0  0  0  0  0  0
    6.8002    2.3242   13.0699 H   0  0  0  0  0  0  0  0  0  0  0  0
    5.2154    2.3791   13.8654 H   0  0  0  0  0  0  0  0  0  0  0  0
    5.3665    3.5578   12.0188 C   0  0  0  0  0  0  0  0  0  0  0  0
    4.2987    3.7701   12.0817 H   0  0  0  0  0  0  0  0  0  0  0  0
    5.9212    4.4584   12.2702 H   0  0  0  0  0  0  0  0  0  0  0  0
    4.1423    1.7217    8.0601 Cl  0  0  0  0  0  0  0  0  0  0  0  0
    5.6705   -0.7729    7.5749 O   0  0  0  0  0  0  0  0  0  0  0  0
    5.4783   -2.1965    7.6201 C   0  0  0  0  0  0  0  0  0  0  0  0
    6.1149   -2.5909    8.4190 H   0  0  0  0  0  0  0  0  0  0  0  0
    4.4259   -2.3882    7.8628 H   0  0  0  0  0  0  0  0  0  0  0  0
    5.9243   -0.3662    6.2226 C   0  0  0  0  0  0  0  0  0  0  0  0
    5.3641    0.5573    6.0485 H   0  0  0  0  0  0  0  0  0  0  0  0
    6.9994   -0.1739    6.1127 H   0  0  0  0  0  0  0  0  0  0  0  0
    5.4799   -1.5325    5.3481 C   0  0  0  0  0  0  0  0  0  0  0  0
    4.4029   -1.4905    5.1824 H   0  0  0  0  0  0  0  0  0  0  0  0
    5.9878   -1.5454    4.3872 H   0  0  0  0  0  0  0  0  0  0  0  0
    5.8366   -2.7240    6.2338 C   0  0  0  0  0  0  0  0  0  0  0  0
    6.9043   -2.9363    6.1710 H   0  0  0  0  0  0  0  0  0  0  0  0
    5.2818   -3.6246    5.9824 H   0  0  0  0  0  0  0  0  0  0  0  0
  1  2  1  0  0  0  0
  3  7  1  0  0  0  0
  4  3  1  0  0  0  0
  4 13  1  0  0  0  0
  5  4  1  0  0  0  0
  6  4  1  0  0  0  0
  7  9  1  0  0  0  0
  7  8  1  0  0  0  0
  7 10  1  0  0  0  0
 10 11  1  0  0  0  0
 10 12  1  0  0  0  0
 13 14  1  0  0  0  0
 13 15  1  0  0  0  0
 13 10  1  0  0  0  0
 16  1  1  0  0  0  0
 17 18  1  0  0  0  0
 18 20  1  0  0  0  0
 18 19  1  0  0  0  0
 21 17  1  0  0  0  0
 22 21  1  0  0  0  0
 23 21  1  0  0  0  0
 24 21  1  0  0  0  0
 24 27  1  0  0  0  0
 25 24  1  0  0  0  0
 26 24  1  0  0  0  0
 27 18  1  0  0  0  0
 28 27  1  0  0  0  0
 29 27  1  0  0  0  0
M  END
$$$$
