CSD_code = PUVZUC | q = 1 | S = 0 | Stoichiometry = C27H24ClN6Zn(1+) | MND = 4
 OpenBabel04212202083D

 59 64  0  0  1  0  0  0  0  0999 V2000
    1.2578   14.9998    5.9372 Zn  0  0  1  0  0  0  0  0  0  0  0  0
    1.6818   15.5079    7.9281 Cl  0  0  0  0  0  0  0  0  0  0  0  0
    0.7260   13.0120    5.8018 N   0  0  0  0  0  0  0  0  0  0  0  0
   -0.5421   12.5804    5.8822 N   0  0  0  0  0  0  0  0  0  0  0  0
   -1.3106   13.2176    5.7402 H   0  0  0  0  0  0  0  0  0  0  0  0
   -0.6177   11.2761    6.2128 C   0  0  2  0  0  3  0  0  0  0  0  0
    0.6989   10.8435    6.3472 C   0  0  0  0  0  0  0  0  0  0  0  0
    1.0395    9.8595    6.5896 H   0  0  0  0  0  0  0  0  0  0  0  0
    1.4854   11.9562    6.0859 C   0  0  0  0  0  0  0  0  0  0  0  0
    2.5555   12.0368    6.1012 H   0  0  0  0  0  0  0  0  0  0  0  0
   -1.8689   10.5576    6.3680 C   0  0  0  0  0  0  0  0  0  0  0  0
   -3.0504   11.0306    5.7928 C   0  0  0  0  0  0  0  0  0  0  0  0
   -3.0465   11.9324    5.1970 H   0  0  0  0  0  0  0  0  0  0  0  0
   -4.2317   10.3321    5.9530 C   0  0  0  0  0  0  0  0  0  0  0  0
   -5.1384   10.7036    5.5006 H   0  0  0  0  0  0  0  0  0  0  0  0
   -4.2540    9.1577    6.6884 C   0  0  0  0  0  0  0  0  0  0  0  0
   -5.1787    8.6163    6.8123 H   0  0  0  0  0  0  0  0  0  0  0  0
   -3.0863    8.6801    7.2617 C   0  0  0  0  0  0  0  0  0  0  0  0
   -3.1005    7.7666    7.8354 H   0  0  0  0  0  0  0  0  0  0  0  0
   -1.9007    9.3712    7.1030 C   0  0  0  0  0  0  0  0  0  0  0  0
   -0.9971    9.0040    7.5631 H   0  0  0  0  0  0  0  0  0  0  0  0
   -0.3435   16.1005    5.2517 N   0  0  0  0  0  0  0  0  0  0  0  0
   -0.3363   16.9774    4.2352 N   0  0  0  0  0  0  0  0  0  0  0  0
    0.3960   16.9570    3.5426 H   0  0  0  0  0  0  0  0  0  0  0  0
   -1.3917   17.8156    4.2779 C   0  0  1  0  0  3  0  0  0  0  0  0
   -2.1232   17.4449    5.4029 C   0  0  0  0  0  0  0  0  0  0  0  0
   -3.0193   17.8943    5.7743 H   0  0  0  0  0  0  0  0  0  0  0  0
   -1.4266   16.3876    5.9704 C   0  0  0  0  0  0  0  0  0  0  0  0
   -1.6534   15.8380    6.8641 H   0  0  0  0  0  0  0  0  0  0  0  0
   -1.6268   18.8637    3.3022 C   0  0  0  0  0  0  0  0  0  0  0  0
   -0.5917   19.3517    2.5017 C   0  0  0  0  0  0  0  0  0  0  0  0
    0.4130   18.9693    2.6127 H   0  0  0  0  0  0  0  0  0  0  0  0
   -0.8346   20.3547    1.5830 C   0  0  0  0  0  0  0  0  0  0  0  0
   -0.0265   20.7289    0.9733 H   0  0  0  0  0  0  0  0  0  0  0  0
   -2.1083   20.8833    1.4468 C   0  0  0  0  0  0  0  0  0  0  0  0
   -2.2936   21.6664    0.7285 H   0  0  0  0  0  0  0  0  0  0  0  0
   -3.1412   20.4073    2.2384 C   0  0  0  0  0  0  0  0  0  0  0  0
   -4.1336   20.8182    2.1365 H   0  0  0  0  0  0  0  0  0  0  0  0
   -2.9054   19.4064    3.1609 C   0  0  0  0  0  0  0  0  0  0  0  0
   -3.7145   19.0314    3.7675 H   0  0  0  0  0  0  0  0  0  0  0  0
    2.8448   15.2622    4.6610 N   0  0  0  0  0  0  0  0  0  0  0  0
    3.4243   14.2890    3.9390 N   0  0  0  0  0  0  0  0  0  0  0  0
    2.9348   13.4276    3.7518 H   0  0  0  0  0  0  0  0  0  0  0  0
    4.6561   14.6365    3.5141 C   0  0  1  0  0  3  0  0  0  0  0  0
    4.8752   15.9223    4.0006 C   0  0  0  0  0  0  0  0  0  0  0  0
    5.7523   16.5220    3.8820 H   0  0  0  0  0  0  0  0  0  0  0  0
    3.7286   16.2561    4.7080 C   0  0  0  0  0  0  0  0  0  0  0  0
    3.5083   17.1580    5.2463 H   0  0  0  0  0  0  0  0  0  0  0  0
    5.5067   13.7666    2.7229 C   0  0  0  0  0  0  0  0  0  0  0  0
    5.3070   12.3844    2.7049 C   0  0  0  0  0  0  0  0  0  0  0  0
    4.5220   11.9369    3.2981 H   0  0  0  0  0  0  0  0  0  0  0  0
    6.1336   11.5703    1.9547 C   0  0  0  0  0  0  0  0  0  0  0  0
    5.9750   10.5029    1.9531 H   0  0  0  0  0  0  0  0  0  0  0  0
    7.1659   12.1196    1.2110 C   0  0  0  0  0  0  0  0  0  0  0  0
    7.8093   11.4804    0.6269 H   0  0  0  0  0  0  0  0  0  0  0  0
    7.3724   13.4898    1.2234 C   0  0  0  0  0  0  0  0  0  0  0  0
    8.1760   13.9201    0.6462 H   0  0  0  0  0  0  0  0  0  0  0  0
    6.5522   14.3098    1.9740 C   0  0  0  0  0  0  0  0  0  0  0  0
    6.7095   15.3768    1.9726 H   0  0  0  0  0  0  0  0  0  0  0  0
  1  2  1  1  0  0  0
  3  4  1  0  0  0  0
  3  1  1  0  0  0  0
  3  9  1  0  0  0  0
  4  6  1  0  0  0  0
  5  4  1  0  0  0  0
  6  7  1  0  0  0  0
  6 11  1  6  0  0  0
  7  8  1  0  0  0  0
  9 10  1  0  0  0  0
  9  7  2  0  0  0  0
 11 20  1  0  0  0  0
 12 14  1  0  0  0  0
 12 11  2  0  0  0  0
 13 12  1  0  0  0  0
 14 16  2  0  0  0  0
 15 14  1  0  0  0  0
 16 17  1  0  0  0  0
 16 18  1  0  0  0  0
 18 19  1  0  0  0  0
 20 18  2  0  0  0  0
 20 21  1  0  0  0  0
 22  1  1  0  0  0  0
 22 28  1  0  0  0  0
 23 25  1  0  0  0  0
 23 22  1  0  0  0  0
 24 23  1  0  0  0  0
 25 30  1  1  0  0  0
 25 26  1  0  0  0  0
 26 27  1  0  0  0  0
 26 28  2  0  0  0  0
 28 29  1  0  0  0  0
 31 32  1  0  0  0  0
 31 30  2  0  0  0  0
 33 31  1  0  0  0  0
 34 33  1  0  0  0  0
 35 33  2  0  0  0  0
 35 37  1  0  0  0  0
 36 35  1  0  0  0  0
 37 39  2  0  0  0  0
 38 37  1  0  0  0  0
 39 30  1  0  0  0  0
 39 40  1  0  0  0  0
 41 47  1  0  0  0  0
 41  1  1  0  0  0  0
 42 41  1  0  0  0  0
 43 42  1  0  0  0  0
 44 49  1  1  0  0  0
 44 42  1  0  0  0  0
 44 45  1  0  0  0  0
 45 47  2  0  0  0  0
 46 45  1  0  0  0  0
 47 48  1  0  0  0  0
 50 49  1  0  0  0  0
 50 51  1  0  0  0  0
 52 50  2  0  0  0  0
 53 52  1  0  0  0  0
 54 56  2  0  0  0  0
 54 52  1  0  0  0  0
 55 54  1  0  0  0  0
 56 58  1  0  0  0  0
 57 56  1  0  0  0  0
 58 49  2  0  0  0  0
 59 58  1  0  0  0  0
M  END
$$$$
