CSD_code = PUYWAI | q = 0 | S = 0 | Stoichiometry = C18H15AsCl4Ti | MND = 5
 OpenBabel04212202083D

 39 40  0  0  0  0  0  0  0  0999 V2000
    1.1788    8.3614   -0.6448 C   0  0  0  0  0  0  0  0  0  0  0  0
    1.9562    7.5954   -1.5093 C   0  0  0  0  0  0  0  0  0  0  0  0
    2.8350    7.0759   -1.1229 H   0  0  0  0  0  0  0  0  0  0  0  0
    1.6099    7.4878   -2.8458 C   0  0  0  0  0  0  0  0  0  0  0  0
    2.2126    6.8906   -3.5142 H   0  0  0  0  0  0  0  0  0  0  0  0
    0.4848    8.1398   -3.3243 C   0  0  0  0  0  0  0  0  0  0  0  0
    0.2118    8.0493   -4.3651 H   0  0  0  0  0  0  0  0  0  0  0  0
   -0.2942    8.9032   -2.4694 C   0  0  0  0  0  0  0  0  0  0  0  0
   -1.1721    9.4079   -2.8455 H   0  0  0  0  0  0  0  0  0  0  0  0
    0.0486    9.0155   -1.1322 C   0  0  0  0  0  0  0  0  0  0  0  0
   -0.5568    9.6063   -0.4495 H   0  0  0  0  0  0  0  0  0  0  0  0
   -0.0043    8.7695    2.0966 C   0  0  0  0  0  0  0  0  0  0  0  0
   -0.4875   10.0424    2.3897 C   0  0  0  0  0  0  0  0  0  0  0  0
    0.0980   10.9124    2.1035 H   0  0  0  0  0  0  0  0  0  0  0  0
   -1.6974   10.1891    3.0489 C   0  0  0  0  0  0  0  0  0  0  0  0
   -2.0684   11.1770    3.2802 H   0  0  0  0  0  0  0  0  0  0  0  0
   -2.4287    9.0719    3.4173 C   0  0  0  0  0  0  0  0  0  0  0  0
   -3.3686    9.1899    3.9356 H   0  0  0  0  0  0  0  0  0  0  0  0
   -1.9522    7.8024    3.1299 C   0  0  0  0  0  0  0  0  0  0  0  0
   -2.5215    6.9328    3.4237 H   0  0  0  0  0  0  0  0  0  0  0  0
   -0.7415    7.6504    2.4772 C   0  0  0  0  0  0  0  0  0  0  0  0
   -0.3494    6.6564    2.2613 H   0  0  0  0  0  0  0  0  0  0  0  0
    2.5413   10.2011    1.3455 C   0  0  0  0  0  0  0  0  0  0  0  0
    2.6302   11.0907    0.2793 C   0  0  0  0  0  0  0  0  0  0  0  0
    2.1763   10.8300   -0.6724 H   0  0  0  0  0  0  0  0  0  0  0  0
    3.3050   12.2916    0.4342 C   0  0  0  0  0  0  0  0  0  0  0  0
    3.3776   12.9786   -0.3962 H   0  0  0  0  0  0  0  0  0  0  0  0
    3.8938   12.6082    1.6469 C   0  0  0  0  0  0  0  0  0  0  0  0
    4.4241   13.5418    1.7616 H   0  0  0  0  0  0  0  0  0  0  0  0
    3.8131   11.7235    2.7116 C   0  0  0  0  0  0  0  0  0  0  0  0
    4.2802   11.9688    3.6541 H   0  0  0  0  0  0  0  0  0  0  0  0
    3.1454   10.5215    2.5606 C   0  0  0  0  0  0  0  0  0  0  0  0
    3.0896    9.8097    3.3851 H   0  0  0  0  0  0  0  0  0  0  0  0
    4.3970    4.8721    2.7767 Cl  0  0  0  0  0  0  0  0  0  0  0  0
    1.7469    5.1812    1.0202 Cl  0  0  0  0  0  0  0  0  0  0  0  0
    2.4905    7.0961    4.0805 Cl  0  0  0  0  0  0  0  0  0  0  0  0
    4.7556    7.5559    1.0796 Cl  0  0  0  0  0  0  0  0  0  0  0  0
    3.1207    6.4953    2.0843 Ti  0  0  0  0  0  0  0  0  0  0  0  0
    1.7245    8.4252    1.2356 As  0  0  0  0  0  0  0  0  0  0  0  0
  1 39  1  0  0  0  0
  2  3  1  0  0  0  0
  2  1  2  0  0  0  0
  4  2  1  0  0  0  0
  5  4  1  0  0  0  0
  6  4  2  0  0  0  0
  6  8  1  0  0  0  0
  7  6  1  0  0  0  0
  8 10  2  0  0  0  0
  9  8  1  0  0  0  0
 10  1  1  0  0  0  0
 10 11  1  0  0  0  0
 12 13  2  0  0  0  0
 12 21  1  0  0  0  0
 13 15  1  0  0  0  0
 14 13  1  0  0  0  0
 15 16  1  0  0  0  0
 15 17  2  0  0  0  0
 17 18  1  0  0  0  0
 19 17  1  0  0  0  0
 19 20  1  0  0  0  0
 21 19  2  0  0  0  0
 22 21  1  0  0  0  0
 23 32  1  0  0  0  0
 24 26  1  0  0  0  0
 24 23  2  0  0  0  0
 25 24  1  0  0  0  0
 26 28  2  0  0  0  0
 27 26  1  0  0  0  0
 28 29  1  0  0  0  0
 28 30  1  0  0  0  0
 30 31  1  0  0  0  0
 32 30  2  0  0  0  0
 32 33  1  0  0  0  0
 35 38  1  0  0  0  0
 37 38  1  0  0  0  0
 38 34  1  0  0  0  0
 38 36  1  0  0  0  0
 39 23  1  0  0  0  0
 39 12  1  0  0  0  0
M  END
$$$$
