CSD_code = PYSCUA | q = 0 | S = 0 | Stoichiometry = C20H30BrCuN2S2 | MND = 4
 OpenBabel04212202083D

 56 58  0  0  1  0  0  0  0  0999 V2000
   13.0710    3.8986    0.7328 Cu  0  0  2  0  0  0  0  0  0  0  0  0
   13.7915    2.1522   -0.5814 Br  0  0  0  0  0  0  0  0  0  0  0  0
   11.7309    3.3188    2.6010 S   0  0  2  0  0  3  0  0  0  0  0  0
   11.6153    5.6326   -0.4741 S   0  0  1  0  0  3  0  0  0  0  0  0
   14.2655    3.0160    4.2163 N   0  0  0  0  0  0  0  0  0  0  0  0
   14.2350    5.4531    1.1606 N   0  0  0  0  0  0  0  0  0  0  0  0
   12.6526    1.7708    2.9474 C   0  0  0  0  0  0  0  0  0  0  0  0
   14.0753    2.1123    3.2618 C   0  0  0  0  0  0  0  0  0  0  0  0
   15.5014    3.3428    4.5432 C   0  0  0  0  0  0  0  0  0  0  0  0
   16.6210    2.7875    3.9423 C   0  0  0  0  0  0  0  0  0  0  0  0
   16.4247    1.8467    2.9424 C   0  0  0  0  0  0  0  0  0  0  0  0
   15.1304    1.4998    2.5906 C   0  0  0  0  0  0  0  0  0  0  0  0
   10.0960    2.6964    1.9362 C   0  0  0  0  0  0  0  0  0  0  0  0
    9.5138    1.6826    2.9112 C   0  0  0  0  0  0  0  0  0  0  0  0
    9.2198    3.9439    1.8785 C   0  0  0  0  0  0  0  0  0  0  0  0
   10.2730    2.1033    0.5492 C   0  0  0  0  0  0  0  0  0  0  0  0
   12.4061    6.9254    0.5427 C   0  0  0  0  0  0  0  0  0  0  0  0
   13.8537    6.6943    0.8453 C   0  0  1  0  0  3  0  0  0  0  0  0
   15.5139    5.2234    1.4502 C   0  0  0  0  0  0  0  0  0  0  0  0
   16.4731    6.2160    1.4444 C   0  0  0  0  0  0  0  0  0  0  0  0
   16.0871    7.5104    1.1260 C   0  0  0  0  0  0  0  0  0  0  0  0
   14.7564    7.7487    0.8214 C   0  0  0  0  0  0  0  0  0  0  0  0
   12.2901    5.8379   -2.2003 C   0  0  0  0  0  0  0  0  0  0  0  0
   11.7238    4.6391   -2.9548 C   0  0  0  0  0  0  0  0  0  0  0  0
   11.7575    7.1447   -2.7714 C   0  0  0  0  0  0  0  0  0  0  0  0
   13.8084    5.8015   -2.2096 C   0  0  0  0  0  0  0  0  0  0  0  0
   12.1818    1.3059    3.8144 H   0  0  0  0  0  0  0  0  0  0  0  0
   12.5945    1.1177    2.0777 H   0  0  0  0  0  0  0  0  0  0  0  0
   15.5928    4.0863    5.3249 H   0  0  0  0  0  0  0  0  0  0  0  0
   17.6133    3.0849    4.2449 H   0  0  0  0  0  0  0  0  0  0  0  0
   17.2642    1.3926    2.4366 H   0  0  0  0  0  0  0  0  0  0  0  0
   14.9451    0.7855    1.8043 H   0  0  0  0  0  0  0  0  0  0  0  0
   10.0692    0.7480    2.8910 H   0  0  0  0  0  0  0  0  0  0  0  0
    8.4836    1.4663    2.6335 H   0  0  0  0  0  0  0  0  0  0  0  0
    9.5201    2.0770    3.9253 H   0  0  0  0  0  0  0  0  0  0  0  0
    8.2306    3.6842    1.5076 H   0  0  0  0  0  0  0  0  0  0  0  0
    9.1181    4.3856    2.8674 H   0  0  0  0  0  0  0  0  0  0  0  0
    9.6545    4.6828    1.2086 H   0  0  0  0  0  0  0  0  0  0  0  0
   10.6888    2.8448   -0.1313 H   0  0  0  0  0  0  0  0  0  0  0  0
   10.9307    1.2372    0.5579 H   0  0  0  0  0  0  0  0  0  0  0  0
    9.3071    1.7867    0.1595 H   0  0  0  0  0  0  0  0  0  0  0  0
   12.2492    7.8938    0.0687 H   0  0  0  0  0  0  0  0  0  0  0  0
   11.8297    6.8871    1.4716 H   0  0  0  0  0  0  0  0  0  0  0  0
   15.7706    4.2004    1.6845 H   0  0  0  0  0  0  0  0  0  0  0  0
   17.4976    5.9795    1.6809 H   0  0  0  0  0  0  0  0  0  0  0  0
   16.8050    8.3159    1.1106 H   0  0  0  0  0  0  0  0  0  0  0  0
   14.4171    8.7421    0.5686 H   0  0  0  0  0  0  0  0  0  0  0  0
   11.9933    4.7037   -4.0064 H   0  0  0  0  0  0  0  0  0  0  0  0
   10.6392    4.6113   -2.8725 H   0  0  0  0  0  0  0  0  0  0  0  0
   12.1277    3.7112   -2.5565 H   0  0  0  0  0  0  0  0  0  0  0  0
   12.1573    8.0043   -2.2364 H   0  0  0  0  0  0  0  0  0  0  0  0
   10.6717    7.1711   -2.7128 H   0  0  0  0  0  0  0  0  0  0  0  0
   12.0511    7.2332   -3.8157 H   0  0  0  0  0  0  0  0  0  0  0  0
   14.1593    5.7911   -3.2401 H   0  0  0  0  0  0  0  0  0  0  0  0
   14.1769    4.9008   -1.7238 H   0  0  0  0  0  0  0  0  0  0  0  0
   14.2368    6.6710   -1.7135 H   0  0  0  0  0  0  0  0  0  0  0  0
  1  2  1  6  0  0  0
  1  6  1  0  0  0  0
  1  3  1  0  0  0  0
  3 13  1  6  0  0  0
  3  7  1  0  0  0  0
  4 23  1  6  0  0  0
  4 17  1  0  0  0  0
  4  1  1  0  0  0  0
  5  9  1  0  0  0  0
  6 19  1  0  0  0  0
  7  8  1  0  0  0  0
  7 27  1  0  0  0  0
  8  5  2  0  0  0  0
  9 29  1  0  0  0  0
 10 30  1  0  0  0  0
 10  9  2  0  0  0  0
 11 10  1  0  0  0  0
 12 11  2  0  0  0  0
 12  8  1  0  0  0  0
 13 14  1  0  0  0  0
 14 35  1  0  0  0  0
 15 13  1  0  0  0  0
 15 37  1  0  0  0  0
 16 40  1  0  0  0  0
 16 13  1  0  0  0  0
 17 18  1  0  0  0  0
 17 43  1  0  0  0  0
 18 22  1  1  0  0  0
 18  6  1  0  0  0  0
 19 44  1  0  0  0  0
 20 19  2  0  0  0  0
 20 45  1  0  0  0  0
 21 20  1  0  0  0  0
 22 21  2  0  0  0  0
 24 49  1  0  0  0  0
 24 50  1  0  0  0  0
 24 23  1  0  0  0  0
 25 52  1  0  0  0  0
 25 51  1  0  0  0  0
 25 23  1  0  0  0  0
 26 23  1  0  0  0  0
 26 55  1  0  0  0  0
 26 56  1  0  0  0  0
 28  7  1  0  0  0  0
 31 11  1  0  0  0  0
 32 12  1  0  0  0  0
 33 14  1  0  0  0  0
 34 14  1  0  0  0  0
 36 15  1  0  0  0  0
 38 15  1  0  0  0  0
 39 16  1  0  0  0  0
 41 16  1  0  0  0  0
 42 17  1  0  0  0  0
 46 21  1  0  0  0  0
 47 22  1  0  0  0  0
 48 24  1  0  0  0  0
 53 25  1  0  0  0  0
 54 26  1  0  0  0  0
M  END
$$$$
