CSD_code = QABFUW | q = 0 | S = 0 | Stoichiometry = C28H22Br2F4P2Pd | MND = 4
 OpenBabel04212202083D

 59 62  0  0  0  0  0  0  0  0999 V2000
    1.6981    1.6515    0.2094 C   0  0  0  0  0  0  0  0  0  0  0  0
    1.3422    0.8533   -0.7909 C   0  0  0  0  0  0  0  0  0  0  0  0
    3.3258    2.1209    2.5482 C   0  0  0  0  0  0  0  0  0  0  0  0
    2.5083    3.1073    3.0936 C   0  0  0  0  0  0  0  0  0  0  0  0
    2.4845    3.2898    4.4633 C   0  0  0  0  0  0  0  0  0  0  0  0
    3.2818    2.5109    5.2877 C   0  0  0  0  0  0  0  0  0  0  0  0
    4.1149    1.5483    4.7433 C   0  0  0  0  0  0  0  0  0  0  0  0
    4.1395    1.3526    3.3746 C   0  0  0  0  0  0  0  0  0  0  0  0
    3.7759    3.5134    0.1025 C   0  0  0  0  0  0  0  0  0  0  0  0
    3.4029    3.8255   -1.2019 C   0  0  0  0  0  0  0  0  0  0  0  0
    3.7169    5.0619   -1.7315 C   0  0  0  0  0  0  0  0  0  0  0  0
    4.4160    5.9853   -0.9712 C   0  0  0  0  0  0  0  0  0  0  0  0
    4.8114    5.6669    0.3171 C   0  0  0  0  0  0  0  0  0  0  0  0
    4.5001    4.4315    0.8547 C   0  0  0  0  0  0  0  0  0  0  0  0
    5.9172    1.3155   -1.4540 Br  0  0  0  0  0  0  0  0  0  0  0  0
    0.7502    2.3868    0.8114 F   0  0  0  0  0  0  0  0  0  0  0  0
    2.2942    0.1377   -1.4307 F   0  0  0  0  0  0  0  0  0  0  0  0
    3.4413    1.8500    0.7598 P   0  0  0  0  0  4  0  0  0  0  0  0
    4.4792   -0.0000    0.0001 Pd  0  0  0  0  0  0  0  0  0  0  0  0
    0.3468    0.6781   -1.1702 H   0  0  0  0  0  0  0  0  0  0  0  0
    1.8973    3.7279    2.4550 H   0  0  0  0  0  0  0  0  0  0  0  0
    1.8419    4.0460    4.8892 H   0  0  0  0  0  0  0  0  0  0  0  0
    3.2556    2.6596    6.3570 H   0  0  0  0  0  0  0  0  0  0  0  0
    4.7426    0.9474    5.3839 H   0  0  0  0  0  0  0  0  0  0  0  0
    4.7877    0.5972    2.9433 H   0  0  0  0  0  0  0  0  0  0  0  0
    2.8794    3.0949   -1.8052 H   0  0  0  0  0  0  0  0  0  0  0  0
    3.4242    5.3020   -2.7425 H   0  0  0  0  0  0  0  0  0  0  0  0
    4.6632    6.9500   -1.3883 H   0  0  0  0  0  0  0  0  0  0  0  0
    5.3708    6.3797    0.9047 H   0  0  0  0  0  0  0  0  0  0  0  0
    4.8202    4.1763    1.8558 H   0  0  0  0  0  0  0  0  0  0  0  0
    7.2602   -1.6514   -0.2095 C   0  0  0  0  0  0  0  0  0  0  0  0
    7.6160   -0.8533    0.7909 C   0  0  0  0  0  0  0  0  0  0  0  0
    5.6324   -2.1208   -2.5481 C   0  0  0  0  0  0  0  0  0  0  0  0
    6.4502   -3.1069   -3.0937 C   0  0  0  0  0  0  0  0  0  0  0  0
    6.4741   -3.2892   -4.4635 C   0  0  0  0  0  0  0  0  0  0  0  0
    5.6766   -2.5103   -5.2877 C   0  0  0  0  0  0  0  0  0  0  0  0
    4.8432   -1.5480   -4.7432 C   0  0  0  0  0  0  0  0  0  0  0  0
    4.8186   -1.3525   -3.3744 C   0  0  0  0  0  0  0  0  0  0  0  0
    5.1825   -3.5136   -0.1025 C   0  0  0  0  0  0  0  0  0  0  0  0
    5.5551   -3.8256    1.2019 C   0  0  0  0  0  0  0  0  0  0  0  0
    5.2413   -5.0621    1.7315 C   0  0  0  0  0  0  0  0  0  0  0  0
    4.5428   -5.9857    0.9709 C   0  0  0  0  0  0  0  0  0  0  0  0
    4.1476   -5.6674   -0.3175 C   0  0  0  0  0  0  0  0  0  0  0  0
    4.4587   -4.4319   -0.8549 C   0  0  0  0  0  0  0  0  0  0  0  0
    3.0411   -1.3159    1.4542 Br  0  0  0  0  0  0  0  0  0  0  0  0
    8.2081   -2.3867   -0.8113 F   0  0  0  0  0  0  0  0  0  0  0  0
    6.6638   -0.1382    1.4312 F   0  0  0  0  0  0  0  0  0  0  0  0
    5.5169   -1.8501   -0.7597 P   0  0  0  0  0  4  0  0  0  0  0  0
    8.6113   -0.6783    1.1707 H   0  0  0  0  0  0  0  0  0  0  0  0
    7.0614   -3.7275   -2.4551 H   0  0  0  0  0  0  0  0  0  0  0  0
    7.1169   -4.0452   -4.8895 H   0  0  0  0  0  0  0  0  0  0  0  0
    5.7029   -2.6588   -6.3571 H   0  0  0  0  0  0  0  0  0  0  0  0
    4.2154   -0.9471   -5.3836 H   0  0  0  0  0  0  0  0  0  0  0  0
    4.1702   -0.5973   -2.9430 H   0  0  0  0  0  0  0  0  0  0  0  0
    6.0783   -3.0949    1.8055 H   0  0  0  0  0  0  0  0  0  0  0  0
    5.5338   -5.3021    2.7426 H   0  0  0  0  0  0  0  0  0  0  0  0
    4.2957   -6.9504    1.3880 H   0  0  0  0  0  0  0  0  0  0  0  0
    3.5885   -6.3803   -0.9051 H   0  0  0  0  0  0  0  0  0  0  0  0
    4.1389   -4.1768   -1.8562 H   0  0  0  0  0  0  0  0  0  0  0  0
  1 18  1  0  0  0  0
  1 16  1  0  0  0  0
  2  1  2  0  0  0  0
  3  4  2  0  0  0  0
  3  8  1  0  0  0  0
  4  5  1  0  0  0  0
  5 22  1  0  0  0  0
  5  6  2  0  0  0  0
  6 23  1  0  0  0  0
  7  6  1  0  0  0  0
  7 24  1  0  0  0  0
  8  7  2  0  0  0  0
  9 18  1  0  0  0  0
  9 14  1  0  0  0  0
 10  9  2  0  0  0  0
 11 10  1  0  0  0  0
 11 12  2  0  0  0  0
 12 13  1  0  0  0  0
 13 14  2  0  0  0  0
 13 29  1  0  0  0  0
 14 30  1  0  0  0  0
 15 19  1  0  0  0  0
 17  2  1  0  0  0  0
 18  3  1  0  0  0  0
 19 18  1  0  0  0  0
 19 45  1  0  0  0  0
 20  2  1  0  0  0  0
 21  4  1  0  0  0  0
 25  8  1  0  0  0  0
 26 10  1  0  0  0  0
 27 11  1  0  0  0  0
 28 12  1  0  0  0  0
 31 32  2  0  0  0  0
 32 49  1  0  0  0  0
 32 47  1  0  0  0  0
 33 48  1  0  0  0  0
 34 33  1  0  0  0  0
 34 50  1  0  0  0  0
 35 34  2  0  0  0  0
 36 37  2  0  0  0  0
 36 35  1  0  0  0  0
 37 38  1  0  0  0  0
 38 54  1  0  0  0  0
 38 33  2  0  0  0  0
 39 40  1  0  0  0  0
 40 41  2  0  0  0  0
 40 55  1  0  0  0  0
 41 56  1  0  0  0  0
 42 57  1  0  0  0  0
 42 41  1  0  0  0  0
 43 42  2  0  0  0  0
 44 43  1  0  0  0  0
 44 39  2  0  0  0  0
 46 31  1  0  0  0  0
 48 31  1  0  0  0  0
 48 39  1  0  0  0  0
 48 19  1  0  0  0  0
 51 35  1  0  0  0  0
 52 36  1  0  0  0  0
 53 37  1  0  0  0  0
 58 43  1  0  0  0  0
 59 44  1  0  0  0  0
M  END
$$$$
