CSD_code = QABGIL | q = 0 | S = 0 | Stoichiometry = C28H22Cl2F4P2Pt | MND = 4
 OpenBabel04212202083D

 59 62  0  0  0  0  0  0  0  0999 V2000
    9.9062   10.1439   53.1621 Pt  0  0  0  0  0  0  0  0  0  0  0  0
    9.2430    8.7626   54.8246 P   0  0  0  0  0  4  0  0  0  0  0  0
   10.7532    8.8439   51.4910 P   0  0  0  0  0  4  0  0  0  0  0  0
    7.6925    9.8560   56.7051 F   0  0  0  0  0  0  0  0  0  0  0  0
   11.1572    9.5359   57.2631 F   0  0  0  0  0  0  0  0  0  0  0  0
    9.5949    6.7132   52.5249 F   0  0  0  0  0  0  0  0  0  0  0  0
   12.6687    6.1310   50.8944 F   0  0  0  0  0  0  0  0  0  0  0  0
   10.6629   11.5147   51.4453 Cl  0  0  0  0  0  0  0  0  0  0  0  0
    9.0835   11.8325   54.4760 Cl  0  0  0  0  0  0  0  0  0  0  0  0
    8.9744    9.5273   56.4681 C   0  0  0  0  0  0  0  0  0  0  0  0
    9.8640    9.8332   57.4050 C   0  0  0  0  0  0  0  0  0  0  0  0
    9.6351   10.3367   58.3335 H   0  0  0  0  0  0  0  0  0  0  0  0
   10.7282    7.0223   51.8418 C   0  0  0  0  0  0  0  0  0  0  0  0
   11.5371    6.0016   51.5906 C   0  0  0  0  0  0  0  0  0  0  0  0
   11.3489    4.9841   51.9075 H   0  0  0  0  0  0  0  0  0  0  0  0
    7.6558    7.9166   54.6206 C   0  0  0  0  0  0  0  0  0  0  0  0
    7.0328    8.0060   53.3818 C   0  0  0  0  0  0  0  0  0  0  0  0
    7.5193    8.5661   52.5913 H   0  0  0  0  0  0  0  0  0  0  0  0
    5.8129    7.3910   53.1720 C   0  0  0  0  0  0  0  0  0  0  0  0
    5.3303    7.4627   52.2089 H   0  0  0  0  0  0  0  0  0  0  0  0
    5.2092    6.6896   54.2029 C   0  0  0  0  0  0  0  0  0  0  0  0
    4.2541    6.2115   54.0439 H   0  0  0  0  0  0  0  0  0  0  0  0
    5.8214    6.6091   55.4438 C   0  0  0  0  0  0  0  0  0  0  0  0
    5.3420    6.0720   56.2489 H   0  0  0  0  0  0  0  0  0  0  0  0
    7.0419    7.2222   55.6594 C   0  0  0  0  0  0  0  0  0  0  0  0
    7.5067    7.1760   56.6352 H   0  0  0  0  0  0  0  0  0  0  0  0
   10.5143    7.5056   55.1721 C   0  0  0  0  0  0  0  0  0  0  0  0
   11.8316    7.9200   54.9936 C   0  0  0  0  0  0  0  0  0  0  0  0
   12.0215    8.9524   54.7106 H   0  0  0  0  0  0  0  0  0  0  0  0
   12.8729    7.0342   55.1930 C   0  0  0  0  0  0  0  0  0  0  0  0
   13.8952    7.3607   55.0714 H   0  0  0  0  0  0  0  0  0  0  0  0
   12.6014    5.7219   55.5481 C   0  0  0  0  0  0  0  0  0  0  0  0
   13.4126    5.0253   55.6986 H   0  0  0  0  0  0  0  0  0  0  0  0
   11.2912    5.3018   55.7038 C   0  0  0  0  0  0  0  0  0  0  0  0
   11.0811    4.2765   55.9706 H   0  0  0  0  0  0  0  0  0  0  0  0
   10.2443    6.1891   55.5180 C   0  0  0  0  0  0  0  0  0  0  0  0
    9.2239    5.8522   55.6212 H   0  0  0  0  0  0  0  0  0  0  0  0
    9.6635    8.7784   50.0404 C   0  0  0  0  0  0  0  0  0  0  0  0
    9.9908    7.9674   48.9568 C   0  0  0  0  0  0  0  0  0  0  0  0
   10.9148    7.4049   48.9663 H   0  0  0  0  0  0  0  0  0  0  0  0
    9.1367    7.8972   47.8720 C   0  0  0  0  0  0  0  0  0  0  0  0
    9.3935    7.2770   47.0259 H   0  0  0  0  0  0  0  0  0  0  0  0
    7.9531    8.6196   47.8700 C   0  0  0  0  0  0  0  0  0  0  0  0
    7.2895    8.5607   47.0202 H   0  0  0  0  0  0  0  0  0  0  0  0
    7.6216    9.4173   48.9530 C   0  0  0  0  0  0  0  0  0  0  0  0
    6.7000    9.9799   48.9500 H   0  0  0  0  0  0  0  0  0  0  0  0
    8.4752    9.4985   50.0384 C   0  0  0  0  0  0  0  0  0  0  0  0
    8.2380   10.1400   50.8814 H   0  0  0  0  0  0  0  0  0  0  0  0
   12.4447    9.0681   50.8847 C   0  0  0  0  0  0  0  0  0  0  0  0
   12.7004    9.6658   49.6565 C   0  0  0  0  0  0  0  0  0  0  0  0
   11.8783    9.9676   49.0236 H   0  0  0  0  0  0  0  0  0  0  0  0
   14.0068    9.8883   49.2619 C   0  0  0  0  0  0  0  0  0  0  0  0
   14.2055   10.3504   48.3063 H   0  0  0  0  0  0  0  0  0  0  0  0
   15.0567    9.5310   50.0918 C   0  0  0  0  0  0  0  0  0  0  0  0
   16.0750    9.7111   49.7810 H   0  0  0  0  0  0  0  0  0  0  0  0
   14.8019    8.9525   51.3246 C   0  0  0  0  0  0  0  0  0  0  0  0
   15.6202    8.6837   51.9759 H   0  0  0  0  0  0  0  0  0  0  0  0
   13.4990    8.7252   51.7252 C   0  0  0  0  0  0  0  0  0  0  0  0
   13.2886    8.2748   52.6852 H   0  0  0  0  0  0  0  0  0  0  0  0
  1  9  1  0  0  0  0
  1  2  1  0  0  0  0
  2 27  1  0  0  0  0
  2 10  1  0  0  0  0
  3 13  1  0  0  0  0
  3  1  1  0  0  0  0
  5 11  1  0  0  0  0
  7 14  1  0  0  0  0
  8  1  1  0  0  0  0
 10  4  1  0  0  0  0
 10 11  2  0  0  0  0
 11 12  1  0  0  0  0
 13  6  1  0  0  0  0
 14 13  2  0  0  0  0
 14 15  1  0  0  0  0
 16  2  1  0  0  0  0
 16 25  1  0  0  0  0
 17 16  2  0  0  0  0
 18 17  1  0  0  0  0
 19 17  1  0  0  0  0
 19 21  2  0  0  0  0
 20 19  1  0  0  0  0
 21 23  1  0  0  0  0
 22 21  1  0  0  0  0
 23 25  2  0  0  0  0
 23 24  1  0  0  0  0
 25 26  1  0  0  0  0
 27 36  1  0  0  0  0
 28 27  2  0  0  0  0
 28 30  1  0  0  0  0
 29 28  1  0  0  0  0
 30 32  2  0  0  0  0
 31 30  1  0  0  0  0
 32 33  1  0  0  0  0
 32 34  1  0  0  0  0
 34 35  1  0  0  0  0
 36 37  1  0  0  0  0
 36 34  2  0  0  0  0
 38  3  1  0  0  0  0
 39 40  1  0  0  0  0
 39 38  2  0  0  0  0
 41 39  1  0  0  0  0
 42 41  1  0  0  0  0
 43 41  2  0  0  0  0
 43 45  1  0  0  0  0
 44 43  1  0  0  0  0
 45 47  2  0  0  0  0
 46 45  1  0  0  0  0
 47 38  1  0  0  0  0
 47 48  1  0  0  0  0
 49  3  1  0  0  0  0
 49 58  1  0  0  0  0
 50 49  2  0  0  0  0
 51 50  1  0  0  0  0
 52 50  1  0  0  0  0
 52 54  2  0  0  0  0
 53 52  1  0  0  0  0
 54 56  1  0  0  0  0
 55 54  1  0  0  0  0
 56 58  2  0  0  0  0
 56 57  1  0  0  0  0
 58 59  1  0  0  0  0
M  END
$$$$
