CSD_code = QABMOV | q = 0 | S = 0 | Stoichiometry = C14H15Cl2NO2STi | MND = 8
 OpenBabel04212202083D

 36 40  0  0  1  0  0  0  0  0999 V2000
    3.1368   -1.1879    2.5590 Ti  0  0  0  0  0  0  0  0  0  0  0  0
    4.3516    1.1216    3.3839 S   0  0  1  0  0  0  0  0  0  0  0  0
    2.9284    0.6984    2.7677 N   0  0  1  0  0  0  0  0  0  0  0  0
    3.2304   -2.3193    4.4289 Cl  0  0  0  0  0  0  0  0  0  0  0  0
    5.0963    2.0291    2.5613 O   0  0  0  0  0  1  0  0  0  0  0  0
    4.0068    1.8591    4.9678 C   0  0  0  0  0  0  0  0  0  0  0  0
    4.8380   -1.8632    1.3872 Cl  0  0  0  0  0  0  0  0  0  0  0  0
    4.9020   -0.2083    3.6277 O   0  0  0  0  0  0  0  0  0  0  0  0
    3.1462    1.1771    5.8090 C   0  0  0  0  0  0  0  0  0  0  0  0
    2.8548    1.7127    7.0517 C   0  0  0  0  0  0  0  0  0  0  0  0
    3.4155    2.9216    7.4533 C   0  0  0  0  0  0  0  0  0  0  0  0
    4.2739    3.5908    6.5841 C   0  0  0  0  0  0  0  0  0  0  0  0
    4.5720    3.0638    5.3402 C   0  0  0  0  0  0  0  0  0  0  0  0
    3.1113    3.5046    8.7979 C   0  0  0  0  0  0  0  0  0  0  0  0
    2.1710    1.6490    1.9800 C   0  0  0  0  0  0  0  0  0  0  0  0
    0.8361    0.9754    1.5960 C   0  0  0  0  0  0  0  0  0  0  0  0
    1.1001   -0.5012    1.5341 C   0  0  1  0  0  3  0  0  0  0  0  0
    1.8690   -1.1665    0.5539 C   0  0  2  0  0  0  0  0  0  0  0  0
    1.9907   -2.5221    0.9371 C   0  0  0  0  0  0  0  0  0  0  0  0
    1.3380   -2.6876    2.1732 C   0  0  0  0  0  0  0  0  0  0  0  0
    0.8089   -1.4313    2.5590 C   0  0  1  0  0  0  0  0  0  0  0  0
    2.7238    0.2332    5.4813 H   0  0  0  0  0  0  0  0  0  0  0  0
    2.1892    1.1845    7.7179 H   0  0  0  0  0  0  0  0  0  0  0  0
    4.7126    4.5293    6.8892 H   0  0  0  0  0  0  0  0  0  0  0  0
    5.2355    3.5625    4.6515 H   0  0  0  0  0  0  0  0  0  0  0  0
    4.0278    3.6155    9.3751 H   0  0  0  0  0  0  0  0  0  0  0  0
    2.4249    2.8719    9.3532 H   0  0  0  0  0  0  0  0  0  0  0  0
    2.6677    4.4932    8.6902 H   0  0  0  0  0  0  0  0  0  0  0  0
    2.7481    1.9113    1.0790 H   0  0  0  0  0  0  0  0  0  0  0  0
    2.0085    2.5683    2.5605 H   0  0  0  0  0  0  0  0  0  0  0  0
    0.0842    1.1796    2.3613 H   0  0  0  0  0  0  0  0  0  0  0  0
    0.4820    1.3599    0.6378 H   0  0  0  0  0  0  0  0  0  0  0  0
    2.2017   -0.7472   -0.3870 H   0  0  0  0  0  0  0  0  0  0  0  0
    2.4347   -3.3089    0.3411 H   0  0  0  0  0  0  0  0  0  0  0  0
    1.1800   -3.6258    2.6908 H   0  0  0  0  0  0  0  0  0  0  0  0
    0.1691   -1.2534    3.4148 H   0  0  0  0  0  0  0  0  0  0  0  0
  1 21  1  0  0  0  0
  1  3  1  0  0  0  0
  1  8  1  0  0  0  0
  1  4  1  0  0  0  0
  2  5  1  6  0  0  0
  2  8  1  0  0  0  0
  2  6  1  0  0  0  0
  3 15  1  6  0  0  0
  3  2  1  0  0  0  0
  6 13  2  0  0  0  0
  6  9  1  0  0  0  0
  7  1  1  0  0  0  0
  9 10  2  0  0  0  0
 10 11  1  0  0  0  0
 10 23  1  0  0  0  0
 11 14  1  0  0  0  0
 12 24  1  0  0  0  0
 12 11  2  0  0  0  0
 13 12  1  0  0  0  0
 14 27  1  0  0  0  0
 14 26  1  0  0  0  0
 15 30  1  0  0  0  0
 16 15  1  0  0  0  0
 16 31  1  0  0  0  0
 17 16  1  1  0  0  0
 17 21  1  0  0  0  0
 18 33  1  6  0  0  0
 18 19  1  0  0  0  0
 18 17  1  0  0  0  0
 18  1  1  0  0  0  0
 19 20  2  0  0  0  0
 20 21  1  0  0  0  0
 20 35  1  0  0  0  0
 21 36  1  1  0  0  0
 22  9  1  0  0  0  0
 25 13  1  0  0  0  0
 28 14  1  0  0  0  0
 29 15  1  0  0  0  0
 32 16  1  0  0  0  0
 34 19  1  0  0  0  0
M  END
$$$$
