CSD_code = QABWAR | q = 0 | S = 0 | Stoichiometry = C9H18I2O9P2W | MND = 7
 OpenBabel04212202083D

 41 39  0  0  0  0  0  0  0  0999 V2000
    9.5931   -0.4155    8.0356 W   0  0  0  0  0  0  0  0  0  0  0  0
    8.1661   -1.8003   10.0459 I   0  0  0  0  0 15  0  0  0  0  0  0
   11.7697   -0.1070    9.7821 I   0  0  0  0  0  0  0  0  0  0  0  0
    9.6445   -1.0001    5.7342 P   0  0  0  0  0  4  0  0  0  0  0  0
    8.7608    1.6760    8.9698 P   0  0  0  0  0  4  0  0  0  0  0  0
   10.8634   -3.2827    7.6926 O   0  0  0  0  0  1  0  0  0  0  0  0
    6.6865   -0.4538    6.8435 O   0  0  0  0  0  1  0  0  0  0  0  0
   11.1146    1.7049    6.2910 O   0  0  0  0  0  1  0  0  0  0  0  0
   11.0154   -1.0174    4.9147 O   0  0  0  0  0  0  0  0  0  0  0  0
    9.1063   -2.4485    5.2531 O   0  0  0  0  0  0  0  0  0  0  0  0
    8.8396    0.0563    4.8342 O   0  0  0  0  0  0  0  0  0  0  0  0
    7.6495    2.4822    8.1334 O   0  0  0  0  0  0  0  0  0  0  0  0
   10.0329    2.6815    9.0183 O   0  0  0  0  0  0  0  0  0  0  0  0
    7.9837    1.9061   10.3381 O   0  0  0  0  0  0  0  0  0  0  0  0
   10.4148   -2.2295    7.8103 C   0  0  0  0  0  2  0  0  0  0  0  0
    7.7490   -0.4525    7.2951 C   0  0  0  0  0  2  0  0  0  0  0  0
   10.6054    0.9220    6.9672 C   0  0  0  0  0  2  0  0  0  0  0  0
   12.2113   -1.6382    5.3678 C   0  0  0  0  0  0  0  0  0  0  0  0
    8.0237   -3.1644    5.8282 C   0  0  0  0  0  0  0  0  0  0  0  0
    8.8225   -0.0377    3.4044 C   0  0  0  0  0  0  0  0  0  0  0  0
    7.8623    2.8162    6.7744 C   0  0  0  0  0  0  0  0  0  0  0  0
    9.9194    4.0031    9.5384 C   0  0  0  0  0  0  0  0  0  0  0  0
    8.4967    1.4871   11.6055 C   0  0  0  0  0  0  0  0  0  0  0  0
   12.9895   -1.3460    4.6637 H   0  0  0  0  0  0  0  0  0  0  0  0
   12.1092   -2.7244    5.3741 H   0  0  0  0  0  0  0  0  0  0  0  0
   12.4812   -1.2866    6.3696 H   0  0  0  0  0  0  0  0  0  0  0  0
    8.1525   -4.2061    5.5350 H   0  0  0  0  0  0  0  0  0  0  0  0
    7.0691   -2.7908    5.4533 H   0  0  0  0  0  0  0  0  0  0  0  0
    8.0341   -3.0955    6.9209 H   0  0  0  0  0  0  0  0  0  0  0  0
    9.6529    0.5344    2.9919 H   0  0  0  0  0  0  0  0  0  0  0  0
    7.8742    0.3851    3.0751 H   0  0  0  0  0  0  0  0  0  0  0  0
    8.9018   -1.0778    3.0869 H   0  0  0  0  0  0  0  0  0  0  0  0
    6.9712    3.3527    6.4505 H   0  0  0  0  0  0  0  0  0  0  0  0
    7.9940    1.9247    6.1529 H   0  0  0  0  0  0  0  0  0  0  0  0
    8.7381    3.4603    6.6606 H   0  0  0  0  0  0  0  0  0  0  0  0
   10.4145    4.6781    8.8403 H   0  0  0  0  0  0  0  0  0  0  0  0
   10.4225    4.0474   10.5051 H   0  0  0  0  0  0  0  0  0  0  0  0
    8.8715    4.2896    9.6526 H   0  0  0  0  0  0  0  0  0  0  0  0
    7.9162    0.6372   11.9659 H   0  0  0  0  0  0  0  0  0  0  0  0
    8.3759    2.3259   12.2911 H   0  0  0  0  0  0  0  0  0  0  0  0
    9.5531    1.2156   11.5573 H   0  0  0  0  0  0  0  0  0  0  0  0
  1  5  1  0  0  0  0
  1  3  1  0  0  0  0
  4  1  1  0  0  0  0
  5 13  1  0  0  0  0
  5 14  1  0  0  0  0
  6 15  1  0  0  0  0
  7 16  1  0  0  0  0
  8 17  1  0  0  0  0
  9 18  1  0  0  0  0
  9  4  1  0  0  0  0
 10  4  1  0  0  0  0
 10 19  1  0  0  0  0
 11  4  1  0  0  0  0
 12  5  1  0  0  0  0
 13 22  1  0  0  0  0
 14 23  1  0  0  0  0
 15  1  1  0  0  0  0
 16  1  1  0  0  0  0
 17  1  1  0  0  0  0
 18 25  1  0  0  0  0
 18 26  1  0  0  0  0
 19 29  1  0  0  0  0
 20 11  1  0  0  0  0
 21 12  1  0  0  0  0
 22 38  1  0  0  0  0
 22 37  1  0  0  0  0
 23 39  1  0  0  0  0
 23 40  1  0  0  0  0
 24 18  1  0  0  0  0
 27 19  1  0  0  0  0
 28 19  1  0  0  0  0
 30 20  1  0  0  0  0
 31 20  1  0  0  0  0
 32 20  1  0  0  0  0
 33 21  1  0  0  0  0
 34 21  1  0  0  0  0
 35 21  1  0  0  0  0
 36 22  1  0  0  0  0
 41 23  1  0  0  0  0
M  END
$$$$
