CSD_code = QACKEM | q = 0 | S = 0 | Stoichiometry = C24H21IN2O4P2Pd | MND = 4
 OpenBabel04212202083D

 55 63  0  0  1  0  0  0  0  0999 V2000
   11.4815    8.5623    9.2918 I   0  0  0  0  0  0  0  0  0  0  0  0
    8.9738    7.9483    9.4707 Pd  0  0  1  0  0  0  0  0  0  0  0  0
    9.0306    6.6794   11.2933 P   0  0  2  0  0  4  0  0  0  0  0  0
    8.1901    9.0502    7.7043 P   0  0  2  0  0  4  0  0  0  0  0  0
    7.5003    6.3088   11.6455 O   0  0  0  0  0  0  0  0  0  0  0  0
    9.6608    6.7603   12.7598 O   0  0  0  0  0  0  0  0  0  0  0  0
    6.6309    8.6580    7.5701 O   0  0  0  0  0  0  0  0  0  0  0  0
    8.5798    9.2462    6.1670 O   0  0  0  0  0  0  0  0  0  0  0  0
    9.7881    5.2047   10.9073 N   0  0  0  0  0  0  0  0  0  0  0  0
    8.2195   10.7161    8.0578 N   0  0  0  0  0  0  0  0  0  0  0  0
    7.0434    7.4744    9.6075 C   0  0  0  0  0  0  0  0  0  0  0  0
    6.5873    6.7220   10.6810 C   0  0  0  0  0  0  0  0  0  0  0  0
    5.2453    6.3887   10.7855 C   0  0  0  0  0  0  0  0  0  0  0  0
    4.9042    5.7977   11.6200 H   0  0  0  0  0  0  0  0  0  0  0  0
    4.3688    6.8260    9.8041 C   0  0  0  0  0  0  0  0  0  0  0  0
    3.3232    6.5727    9.8812 H   0  0  0  0  0  0  0  0  0  0  0  0
    4.8046    7.5823    8.7268 C   0  0  0  0  0  0  0  0  0  0  0  0
    4.1197    7.9262    7.9686 H   0  0  0  0  0  0  0  0  0  0  0  0
    6.1510    7.9013    8.6338 C   0  0  0  0  0  0  0  0  0  0  0  0
   10.9592    6.1711   12.7580 C   0  0  0  0  0  0  0  0  0  0  0  0
   11.1945    5.9172   13.7925 H   0  0  0  0  0  0  0  0  0  0  0  0
   11.6900    6.8977   12.3843 H   0  0  0  0  0  0  0  0  0  0  0  0
   10.9037    4.9420   11.8339 C   0  0  2  0  0  0  0  0  0  0  0  0
   10.6532    4.0512   12.4202 H   0  0  0  0  0  0  0  0  0  0  0  0
   12.1576    4.7107   10.9649 C   0  0  0  0  0  0  0  0  0  0  0  0
   12.9275    5.4625   11.1524 H   0  0  0  0  0  0  0  0  0  0  0  0
   12.5886    3.7262   11.1488 H   0  0  0  0  0  0  0  0  0  0  0  0
   11.6372    4.8341    9.5598 C   0  0  0  0  0  0  0  0  0  0  0  0
   12.3038    4.7910    8.3534 C   0  0  0  0  0  0  0  0  0  0  0  0
   13.3657    4.6050    8.3207 H   0  0  0  0  0  0  0  0  0  0  0  0
   11.5900    5.0311    7.1861 C   0  0  0  0  0  0  0  0  0  0  0  0
   12.1057    5.0244    6.2384 H   0  0  0  0  0  0  0  0  0  0  0  0
   10.2287    5.2887    7.2214 C   0  0  0  0  0  0  0  0  0  0  0  0
    9.6887    5.4650    6.3017 H   0  0  0  0  0  0  0  0  0  0  0  0
    9.5396    5.3254    8.4317 C   0  0  0  0  0  0  0  0  0  0  0  0
    8.4515    5.4288    8.4580 H   0  0  0  0  0  0  0  0  0  0  0  0
   10.2726    5.1026    9.5909 C   0  0  0  0  0  0  0  0  0  0  0  0
    9.4450   10.3708    6.0290 C   0  0  0  0  0  0  0  0  0  0  0  0
    9.3857   10.6906    4.9883 H   0  0  0  0  0  0  0  0  0  0  0  0
   10.4727   10.0708    6.2614 H   0  0  0  0  0  0  0  0  0  0  0  0
    8.9636   11.4478    7.0174 C   0  0  2  0  0  0  0  0  0  0  0  0
    8.2637   12.1239    6.5144 H   0  0  0  0  0  0  0  0  0  0  0  0
   10.0815   12.2310    7.7380 C   0  0  0  0  0  0  0  0  0  0  0  0
   11.0756   11.9030    7.4260 H   0  0  0  0  0  0  0  0  0  0  0  0
    9.9987   13.3012    7.5475 H   0  0  0  0  0  0  0  0  0  0  0  0
    9.8563   11.9069    9.1887 C   0  0  0  0  0  0  0  0  0  0  0  0
   10.5822   12.2607   10.3067 C   0  0  0  0  0  0  0  0  0  0  0  0
   11.4430   12.9046   10.2197 H   0  0  0  0  0  0  0  0  0  0  0  0
   10.2096   11.7385   11.5389 C   0  0  0  0  0  0  0  0  0  0  0  0
   10.7864   11.9868   12.4163 H   0  0  0  0  0  0  0  0  0  0  0  0
    9.1155   10.8958   11.6567 C   0  0  0  0  0  0  0  0  0  0  0  0
    8.8348   10.5068   12.6255 H   0  0  0  0  0  0  0  0  0  0  0  0
    8.3662   10.5380   10.5379 C   0  0  0  0  0  0  0  0  0  0  0  0
    7.4456    9.9575   10.6372 H   0  0  0  0  0  0  0  0  0  0  0  0
    8.7668   11.0508    9.3100 C   0  0  0  0  0  0  0  0  0  0  0  0
  2  1  1  6  0  0  0
  2 11  1  0  0  0  0
  2  3  1  0  0  0  0
  3  5  1  1  0  0  0
  3  6  1  0  0  0  0
  4  8  1  6  0  0  0
  4 10  1  0  0  0  0
  4  2  1  0  0  0  0
  7  4  1  0  0  0  0
  7 19  1  0  0  0  0
  9  3  1  0  0  0  0
  9 23  1  0  0  0  0
 10 55  1  0  0  0  0
 11 12  1  0  0  0  0
 12 13  2  0  0  0  0
 12  5  1  0  0  0  0
 13 14  1  0  0  0  0
 15 16  1  0  0  0  0
 15 13  1  0  0  0  0
 17 15  2  0  0  0  0
 18 17  1  0  0  0  0
 19 17  1  0  0  0  0
 19 11  2  0  0  0  0
 20  6  1  0  0  0  0
 20 21  1  0  0  0  0
 22 20  1  0  0  0  0
 23 24  1  1  0  0  0
 23 20  1  0  0  0  0
 25 27  1  0  0  0  0
 25 26  1  0  0  0  0
 25 23  1  0  0  0  0
 28 37  1  0  0  0  0
 28 25  1  0  0  0  0
 29 28  2  0  0  0  0
 30 29  1  0  0  0  0
 31 33  2  0  0  0  0
 31 29  1  0  0  0  0
 32 31  1  0  0  0  0
 33 35  1  0  0  0  0
 34 33  1  0  0  0  0
 35 36  1  0  0  0  0
 35 37  2  0  0  0  0
 37  9  1  0  0  0  0
 38  8  1  0  0  0  0
 38 40  1  0  0  0  0
 38 41  1  0  0  0  0
 39 38  1  0  0  0  0
 41 42  1  6  0  0  0
 41 43  1  0  0  0  0
 41 10  1  0  0  0  0
 43 46  1  0  0  0  0
 44 43  1  0  0  0  0
 45 43  1  0  0  0  0
 46 55  2  0  0  0  0
 46 47  1  0  0  0  0
 47 49  2  0  0  0  0
 48 47  1  0  0  0  0
 49 51  1  0  0  0  0
 49 50  1  0  0  0  0
 51 52  1  0  0  0  0
 53 54  1  0  0  0  0
 53 51  2  0  0  0  0
 55 53  1  0  0  0  0
M  END
$$$$
