CSD_code = QACWAV | q = 1 | S = 0 | Stoichiometry = C29H23AuClNP(1+) | MND = 4
 OpenBabel04212202083D

 56 61  0  0  1  0  0  0  0  0999 V2000
   14.2069    9.8678    7.6697 Au  0  0  1  0  0  0  0  0  0  0  0  0
   15.6902    8.1637    7.9924 Cl  0  0  0  0  0  0  0  0  0  0  0  0
   12.7496   11.6125    7.4216 P   0  0  0  0  0  4  0  0  0  0  0  0
   13.1065    9.4862    9.5131 N   0  0  0  0  0  0  0  0  0  0  0  0
   11.7962    9.7122    9.6788 C   0  0  2  0  0  3  0  0  0  0  0  0
   11.2372    9.7252   10.9574 C   0  0  0  0  0  0  0  0  0  0  0  0
   10.1874    9.9434   11.0728 H   0  0  0  0  0  0  0  0  0  0  0  0
   12.0319    9.4768   12.0614 C   0  0  0  0  0  0  0  0  0  0  0  0
   11.6088    9.4917   13.0539 H   0  0  0  0  0  0  0  0  0  0  0  0
   13.3746    9.1926   11.8632 C   0  0  0  0  0  0  0  0  0  0  0  0
   14.0308    8.9619   12.6859 H   0  0  0  0  0  0  0  0  0  0  0  0
   13.8663    9.2160   10.5730 C   0  0  0  0  0  0  0  0  0  0  0  0
   14.9011    8.9907   10.3601 H   0  0  0  0  0  0  0  0  0  0  0  0
   15.2068   10.3744    6.0129 C   0  0  0  0  0  0  0  0  0  0  0  0
   15.8343   11.6047    5.9638 C   0  0  0  0  0  0  0  0  0  0  0  0
   15.8096   12.2790    6.8091 H   0  0  0  0  0  0  0  0  0  0  0  0
   16.5084   11.9817    4.8117 C   0  0  0  0  0  0  0  0  0  0  0  0
   17.0001   12.9417    4.7781 H   0  0  0  0  0  0  0  0  0  0  0  0
   16.5485   11.1310    3.7219 C   0  0  0  0  0  0  0  0  0  0  0  0
   17.0759   11.4246    2.8274 H   0  0  0  0  0  0  0  0  0  0  0  0
   15.9216    9.9000    3.7837 C   0  0  0  0  0  0  0  0  0  0  0  0
   15.9580    9.2231    2.9441 H   0  0  0  0  0  0  0  0  0  0  0  0
   15.2464    9.5155    4.9342 C   0  0  0  0  0  0  0  0  0  0  0  0
   14.7755    8.5458    4.9785 H   0  0  0  0  0  0  0  0  0  0  0  0
   11.1461   10.7877    7.4673 C   0  0  0  0  0  0  0  0  0  0  0  0
   10.8917    9.9013    8.5264 C   0  0  0  0  0  0  0  0  0  0  0  0
    9.6896    9.1973    8.5226 C   0  0  0  0  0  0  0  0  0  0  0  0
    9.4876    8.4915    9.3143 H   0  0  0  0  0  0  0  0  0  0  0  0
    8.7671    9.3640    7.5038 C   0  0  0  0  0  0  0  0  0  0  0  0
    7.8500    8.7962    7.5163 H   0  0  0  0  0  0  0  0  0  0  0  0
    9.0162   10.2612    6.4788 C   0  0  0  0  0  0  0  0  0  0  0  0
    8.2914   10.4077    5.6933 H   0  0  0  0  0  0  0  0  0  0  0  0
   10.2054   10.9687    6.4588 C   0  0  0  0  0  0  0  0  0  0  0  0
   10.4062   11.6710    5.6620 H   0  0  0  0  0  0  0  0  0  0  0  0
   12.7684   12.6776    8.8764 C   0  0  0  0  0  0  0  0  0  0  0  0
   13.9225   12.7648    9.6498 C   0  0  0  0  0  0  0  0  0  0  0  0
   14.8054   12.2062    9.3627 H   0  0  0  0  0  0  0  0  0  0  0  0
   13.9271   13.5608   10.7810 C   0  0  0  0  0  0  0  0  0  0  0  0
   14.8198   13.6335   11.3830 H   0  0  0  0  0  0  0  0  0  0  0  0
   12.7860   14.2621   11.1388 C   0  0  0  0  0  0  0  0  0  0  0  0
   12.7923   14.8807   12.0228 H   0  0  0  0  0  0  0  0  0  0  0  0
   11.6362   14.1736   10.3676 C   0  0  0  0  0  0  0  0  0  0  0  0
   10.7515   14.7229   10.6506 H   0  0  0  0  0  0  0  0  0  0  0  0
   11.6197   13.3813    9.2349 C   0  0  0  0  0  0  0  0  0  0  0  0
   10.7288   13.3028    8.6257 H   0  0  0  0  0  0  0  0  0  0  0  0
   12.8364   12.6366    5.9485 C   0  0  0  0  0  0  0  0  0  0  0  0
   13.0611   14.0079    6.0266 C   0  0  0  0  0  0  0  0  0  0  0  0
   13.1097   14.4971    6.9897 H   0  0  0  0  0  0  0  0  0  0  0  0
   13.2163   14.7345    4.8591 C   0  0  0  0  0  0  0  0  0  0  0  0
   13.3853   15.7991    4.9111 H   0  0  0  0  0  0  0  0  0  0  0  0
   13.1625   14.0990    3.6290 C   0  0  0  0  0  0  0  0  0  0  0  0
   13.2903   14.6715    2.7236 H   0  0  0  0  0  0  0  0  0  0  0  0
   12.9507   12.7293    3.5540 C   0  0  0  0  0  0  0  0  0  0  0  0
   12.9149   12.2374    2.5944 H   0  0  0  0  0  0  0  0  0  0  0  0
   12.7944   11.9920    4.7103 C   0  0  0  0  0  0  0  0  0  0  0  0
   12.6456   10.9205    4.6683 H   0  0  0  0  0  0  0  0  0  0  0  0
  1  2  1  6  0  0  0
  1  4  1  0  0  0  0
  3 25  1  0  0  0  0
  3  1  1  0  0  0  0
  3 35  1  0  0  0  0
  4  5  1  0  0  0  0
  4 12  1  0  0  0  0
  5 26  1  6  0  0  0
  5  6  1  0  0  0  0
  6  7  1  0  0  0  0
  6  8  2  0  0  0  0
  8  9  1  0  0  0  0
 10  8  1  0  0  0  0
 10 11  1  0  0  0  0
 12 10  2  0  0  0  0
 13 12  1  0  0  0  0
 14  1  1  0  0  0  0
 15 14  1  0  0  0  0
 15 16  1  0  0  0  0
 17 15  2  0  0  0  0
 18 17  1  0  0  0  0
 19 21  2  0  0  0  0
 19 17  1  0  0  0  0
 20 19  1  0  0  0  0
 21 23  1  0  0  0  0
 22 21  1  0  0  0  0
 23 24  1  0  0  0  0
 23 14  2  0  0  0  0
 25 26  1  0  0  0  0
 27 26  2  0  0  0  0
 27 28  1  0  0  0  0
 29 30  1  0  0  0  0
 29 27  1  0  0  0  0
 31 29  2  0  0  0  0
 32 31  1  0  0  0  0
 33 31  1  0  0  0  0
 33 25  2  0  0  0  0
 34 33  1  0  0  0  0
 35 44  2  0  0  0  0
 35 36  1  0  0  0  0
 36 38  2  0  0  0  0
 37 36  1  0  0  0  0
 38 40  1  0  0  0  0
 38 39  1  0  0  0  0
 40 41  1  0  0  0  0
 42 43  1  0  0  0  0
 42 40  2  0  0  0  0
 44 42  1  0  0  0  0
 45 44  1  0  0  0  0
 46 47  1  0  0  0  0
 46  3  1  0  0  0  0
 47 48  1  0  0  0  0
 49 50  1  0  0  0  0
 49 47  2  0  0  0  0
 51 49  1  0  0  0  0
 52 51  1  0  0  0  0
 53 51  2  0  0  0  0
 53 55  1  0  0  0  0
 54 53  1  0  0  0  0
 55 46  2  0  0  0  0
 56 55  1  0  0  0  0
M  END
$$$$
