CSD_code = QAFCUV | q = 0 | S = 0 | Stoichiometry = C16H17Cl2HfN | MND = 12
 OpenBabel04212202083D

 37 38  0  0  1  0  0  0  0  0999 V2000
    3.5669    0.7445    9.7958 Hf  0  0  0  0  0  0  0  0  0  0  0  0
    4.1775   -1.3152    8.9330 Cl  0  0  0  0  0  0  0  0  0  0  0  0
    5.2386    1.8051    8.5997 Cl  0  0  0  0  0  0  0  0  0  0  0  0
   -0.8461    0.4712   11.1442 N   0  0  0  0  0  0  0  0  0  0  0  0
    1.1449    1.1975    9.9804 C   0  0  0  0  0  0  0  0  0  0  0  0
    1.2901    0.1389    9.0426 C   0  0  0  0  0  0  0  0  0  0  0  0
    0.8590   -0.8484    9.1386 H   0  0  0  0  0  0  0  0  0  0  0  0
    1.9348    0.6535    7.8936 C   0  0  0  0  0  0  0  0  0  0  0  0
    2.1032    0.1158    6.9706 H   0  0  0  0  0  0  0  0  0  0  0  0
    2.2094    2.0190    8.1173 C   0  0  0  0  0  0  0  0  0  0  0  0
    2.6065    2.7119    7.3890 H   0  0  0  0  0  0  0  0  0  0  0  0
    1.7576    2.3539    9.4140 C   0  0  0  0  0  3  0  0  0  0  0  0
    1.6953    3.3523    9.8248 H   0  0  0  0  0  0  0  0  0  0  0  0
    3.2178    1.5080   12.0572 C   0  0  0  0  0  0  0  0  0  0  0  0
    3.2053    0.0774   12.0776 C   0  0  2  0  0  0  0  0  0  0  0  0
    2.3866   -0.5318   12.4375 H   0  0  0  0  0  0  0  0  0  0  0  0
    4.5253   -0.3742   11.8407 C   0  0  0  0  0  0  0  0  0  0  0  0
    4.8641   -1.3980   11.9139 H   0  0  0  0  0  0  0  0  0  0  0  0
    5.3412    0.7499   11.6112 C   0  0  0  0  0  0  0  0  0  0  0  0
    6.4111    0.7354   11.4570 H   0  0  0  0  0  0  0  0  0  0  0  0
    4.5423    1.9104   11.7330 C   0  0  0  0  0  0  0  0  0  0  0  0
    4.9070    2.9282   11.7151 H   0  0  0  0  0  0  0  0  0  0  0  0
    0.3395    1.1870   11.2137 C   0  0  0  0  0  0  0  0  0  0  0  0
    0.7567    1.8338   12.3254 C   0  0  0  0  0  0  0  0  0  0  0  0
    0.0801    1.9870   13.1510 H   0  0  0  0  0  0  0  0  0  0  0  0
    2.1060    2.3602   12.5047 C   0  0  0  0  0  0  0  0  0  0  0  0
    2.3286    3.5150   13.1451 C   0  0  0  0  0  0  0  0  0  0  0  0
    3.3215    3.8831   13.3295 H   0  0  0  0  0  0  0  0  0  0  0  0
    1.5133    4.1191   13.5028 H   0  0  0  0  0  0  0  0  0  0  0  0
   -1.7026    0.6171    9.9869 C   0  0  0  0  0  0  0  0  0  0  0  0
   -2.2090   -0.3293    9.7892 H   0  0  0  0  0  0  0  0  0  0  0  0
   -1.1181    0.8935    9.1145 H   0  0  0  0  0  0  0  0  0  0  0  0
   -2.4648    1.3884   10.1551 H   0  0  0  0  0  0  0  0  0  0  0  0
   -1.5812    0.2316   12.3613 C   0  0  0  0  0  0  0  0  0  0  0  0
   -0.8968   -0.0884   13.1451 H   0  0  0  0  0  0  0  0  0  0  0  0
   -2.2988   -0.5680   12.1759 H   0  0  0  0  0  0  0  0  0  0  0  0
   -2.1332    1.1148   12.7085 H   0  0  0  0  0  0  0  0  0  0  0  0
  1 15  1  0  0  0  0
  2  1  1  0  0  0  0
  3  1  1  0  0  0  0
  4 23  1  0  0  0  0
  4 34  1  0  0  0  0
  5 23  1  0  0  0  0
  6  7  1  0  0  0  0
  6  5  2  0  0  0  0
  8 10  2  0  0  0  0
  8  6  1  0  0  0  0
  9  8  1  0  0  0  0
 10 12  1  0  0  0  0
 11 10  1  0  0  0  0
 12 13  1  0  0  0  0
 12  5  1  0  0  0  0
 14 15  1  0  0  0  0
 14 26  1  0  0  0  0
 15 16  1  1  0  0  0
 17 18  1  0  0  0  0
 17 15  1  0  0  0  0
 19 21  1  0  0  0  0
 19 17  2  0  0  0  0
 20 19  1  0  0  0  0
 21 14  2  0  0  0  0
 22 21  1  0  0  0  0
 23 24  2  0  0  0  0
 24 26  1  0  0  0  0
 24 25  1  0  0  0  0
 26 27  2  0  0  0  0
 27 28  1  0  0  0  0
 27 29  1  0  0  0  0
 30 33  1  0  0  0  0
 30  4  1  0  0  0  0
 31 30  1  0  0  0  0
 32 30  1  0  0  0  0
 34 37  1  0  0  0  0
 34 35  1  0  0  0  0
 36 34  1  0  0  0  0
M  END
$$$$
