CSD_code = QAFMUF | q = 1 | S = 0 | Stoichiometry = C13H8ClN2O3Ru(1+) | MND = 6
 OpenBabel04212202083D

 28 30  0  0  1  0  0  0  0  0999 V2000
    8.6893    3.0719    0.3582 Ru  0  0  0  0  0  0  0  0  0  0  0  0
    9.0988    4.3518   -1.5674 Cl  0  0  0  0  0  0  0  0  0  0  0  0
    9.3909    1.6673   -0.7106 C   0  0  0  0  0  2  0  0  0  0  0  0
    9.8377    0.9706   -1.4758 O   0  0  0  0  0  1  0  0  0  0  0  0
    7.0007    2.7925   -0.4650 C   0  0  0  0  0  2  0  0  0  0  0  0
    6.0615    2.7477   -1.0866 O   0  0  0  0  0  1  0  0  0  0  0  0
    8.4054    2.1182    1.9690 C   0  0  0  0  0  2  0  0  0  0  0  0
    8.2445    1.5589    2.9406 O   0  0  0  0  0  1  0  0  0  0  0  0
    8.1704    4.8813    1.1964 N   0  0  0  0  0  0  0  0  0  0  0  0
   10.5337    3.7650    0.9608 N   0  0  0  0  0  0  0  0  0  0  0  0
   11.6905    3.1103    0.8787 C   0  0  0  0  0  3  0  0  0  0  0  0
   12.9171    3.7321    1.0420 C   0  0  0  0  0  0  0  0  0  0  0  0
   12.9445    5.0946    1.2967 C   0  0  0  0  0  0  0  0  0  0  0  0
   11.7438    5.7752    1.4036 C   0  0  0  0  0  0  0  0  0  0  0  0
   10.5446    5.0859    1.2317 C   0  0  0  0  0  0  0  0  0  0  0  0
    9.2195    5.7127    1.3600 C   0  0  2  0  0  3  0  0  0  0  0  0
    9.0295    7.0607    1.6588 C   0  0  0  0  0  0  0  0  0  0  0  0
    7.7438    7.5564    1.7924 C   0  0  0  0  0  0  0  0  0  0  0  0
    6.6758    6.6845    1.6467 C   0  0  0  0  0  0  0  0  0  0  0  0
    6.9360    5.3579    1.3464 C   0  0  0  0  0  0  0  0  0  0  0  0
   11.6401    2.0456    0.6825 H   0  0  0  0  0  0  0  0  0  0  0  0
   13.8259    3.1586    0.9612 H   0  0  0  0  0  0  0  0  0  0  0  0
   13.8808    5.6173    1.4134 H   0  0  0  0  0  0  0  0  0  0  0  0
   11.7445    6.8325    1.6083 H   0  0  0  0  0  0  0  0  0  0  0  0
    9.8722    7.7211    1.7747 H   0  0  0  0  0  0  0  0  0  0  0  0
    7.5808    8.6003    2.0089 H   0  0  0  0  0  0  0  0  0  0  0  0
    5.6579    7.0224    1.7527 H   0  0  0  0  0  0  0  0  0  0  0  0
    6.1198    4.6544    1.2307 H   0  0  0  0  0  0  0  0  0  0  0  0
  1 10  1  0  0  0  0
  1  9  1  0  0  0  0
  1  7  1  0  0  0  0
  2  1  1  0  0  0  0
  3  1  1  0  0  0  0
  4  3  1  0  0  0  0
  5  1  1  0  0  0  0
  6  5  1  0  0  0  0
  7  8  1  0  0  0  0
  9 20  1  0  0  0  0
  9 16  1  0  0  0  0
 10 15  1  0  0  0  0
 11 10  1  0  0  0  0
 11 12  1  0  0  0  0
 12 13  2  0  0  0  0
 13 14  1  0  0  0  0
 13 23  1  0  0  0  0
 14 24  1  0  0  0  0
 15 14  2  0  0  0  0
 16 15  1  1  0  0  0
 16 17  1  0  0  0  0
 17 25  1  0  0  0  0
 17 18  2  0  0  0  0
 18 26  1  0  0  0  0
 19 27  1  0  0  0  0
 19 18  1  0  0  0  0
 20 19  2  0  0  0  0
 21 11  1  0  0  0  0
 22 12  1  0  0  0  0
 28 20  1  0  0  0  0
M  END
$$$$
