CSD_code = QAFTEY | q = 0 | S = 0 | Stoichiometry = C30H23Cl2N2PPd | MND = 4
 OpenBabel04212202083D

 59 65  0  0  0  0  0  0  0  0999 V2000
    7.6558   13.7590   10.5923 Pd  0  0  0  0  0  0  0  0  0  0  0  0
    5.9976   12.2543   10.7727 P   0  0  0  0  0  4  0  0  0  0  0  0
    6.1484   14.9974   10.2237 C   0  0  0  0  0  0  0  0  0  0  0  0
    4.0045   15.6447   10.1003 C   0  0  0  0  0  0  0  0  0  0  0  0
    2.6413   15.8374   10.2571 C   0  0  0  0  0  0  0  0  0  0  0  0
    1.9774   16.4949    9.2381 C   0  0  0  0  0  0  0  0  0  0  0  0
    2.6443   16.9441    8.1004 C   0  0  0  0  0  0  0  0  0  0  0  0
    4.0011   16.7426    7.9306 C   0  0  0  0  0  0  0  0  0  0  0  0
    4.6734   16.0778    8.9441 C   0  0  0  0  0  0  0  0  0  0  0  0
    6.9993   15.8755    8.0740 C   0  0  0  0  0  0  0  0  0  0  0  0
    4.6806   14.2962   12.0645 C   0  0  0  0  0  0  0  0  0  0  0  0
    4.0663   14.9599   13.1544 C   0  0  0  0  0  0  0  0  0  0  0  0
    3.8323   16.3531   13.1735 C   0  0  0  0  0  0  0  0  0  0  0  0
    3.2394   16.9447   14.2532 C   0  0  0  0  0  0  0  0  0  0  0  0
    2.8485   16.1791   15.3625 C   0  0  0  0  0  0  0  0  0  0  0  0
    3.0872   14.8338   15.3858 C   0  0  0  0  0  0  0  0  0  0  0  0
    3.7125   14.1914   14.2972 C   0  0  0  0  0  0  0  0  0  0  0  0
    4.0129   12.8136   14.3243 C   0  0  0  0  0  0  0  0  0  0  0  0
    4.6646   12.2140   13.2851 C   0  0  0  0  0  0  0  0  0  0  0  0
    5.0019   12.9489   12.1334 C   0  0  0  0  0  0  0  0  0  0  0  0
    6.0959   10.4846   11.1317 C   0  0  0  0  0  0  0  0  0  0  0  0
    5.3488    9.5307   10.4501 C   0  0  0  0  0  0  0  0  0  0  0  0
    5.5031    8.1925   10.7665 C   0  0  0  0  0  0  0  0  0  0  0  0
    6.4007    7.8065   11.7491 C   0  0  0  0  0  0  0  0  0  0  0  0
    7.1548    8.7573   12.4198 C   0  0  0  0  0  0  0  0  0  0  0  0
    7.0093   10.0963   12.1110 C   0  0  0  0  0  0  0  0  0  0  0  0
    4.8880   12.4252    9.3372 C   0  0  0  0  0  0  0  0  0  0  0  0
    3.5010   12.4115    9.4249 C   0  0  0  0  0  0  0  0  0  0  0  0
    2.7397   12.6700    8.2985 C   0  0  0  0  0  0  0  0  0  0  0  0
    3.3561   12.9343    7.0864 C   0  0  0  0  0  0  0  0  0  0  0  0
    4.7395   12.9344    6.9917 C   0  0  0  0  0  0  0  0  0  0  0  0
    5.5048   12.6874    8.1162 C   0  0  0  0  0  0  0  0  0  0  0  0
    5.9803   15.6657    9.0692 N   0  0  0  0  0  0  0  0  0  0  0  0
    4.9535   14.9998   10.8711 N   0  0  0  0  0  0  0  0  0  0  0  0
    9.1725   15.4361   10.6268 Cl  0  0  0  0  0  0  0  0  0  0  0  0
    9.2627   12.2128   10.8376 Cl  0  0  0  0  0  0  0  0  0  0  0  0
    2.1209   15.4871   11.1344 H   0  0  0  0  0  0  0  0  0  0  0  0
    0.9151   16.6630    9.3253 H   0  0  0  0  0  0  0  0  0  0  0  0
    2.0854   17.4553    7.3319 H   0  0  0  0  0  0  0  0  0  0  0  0
    4.5136   17.0813    7.0447 H   0  0  0  0  0  0  0  0  0  0  0  0
    7.2287   16.9387    7.9866 H   0  0  0  0  0  0  0  0  0  0  0  0
    7.9093   15.3450    8.3870 H   0  0  0  0  0  0  0  0  0  0  0  0
    6.6562   15.4976    7.1093 H   0  0  0  0  0  0  0  0  0  0  0  0
    4.1466   16.9558   12.3352 H   0  0  0  0  0  0  0  0  0  0  0  0
    3.0737   18.0115   14.2600 H   0  0  0  0  0  0  0  0  0  0  0  0
    2.3731   16.6644   16.2014 H   0  0  0  0  0  0  0  0  0  0  0  0
    2.8114   14.2399   16.2448 H   0  0  0  0  0  0  0  0  0  0  0  0
    3.7354   12.2405   15.1968 H   0  0  0  0  0  0  0  0  0  0  0  0
    4.9168   11.1641   13.3263 H   0  0  0  0  0  0  0  0  0  0  0  0
    4.6568    9.8338    9.6766 H   0  0  0  0  0  0  0  0  0  0  0  0
    4.9247    7.4475   10.2397 H   0  0  0  0  0  0  0  0  0  0  0  0
    6.5202    6.7595   11.9853 H   0  0  0  0  0  0  0  0  0  0  0  0
    7.8641    8.4526   13.1745 H   0  0  0  0  0  0  0  0  0  0  0  0
    7.6128   10.8514   12.5997 H   0  0  0  0  0  0  0  0  0  0  0  0
    3.0246   12.2097   10.3750 H   0  0  0  0  0  0  0  0  0  0  0  0
    1.6620   12.6713    8.3676 H   0  0  0  0  0  0  0  0  0  0  0  0
    2.7565   13.1427    6.2132 H   0  0  0  0  0  0  0  0  0  0  0  0
    5.2159   13.1339    6.0431 H   0  0  0  0  0  0  0  0  0  0  0  0
    6.5955   12.7024    8.0748 H   0  0  0  0  0  0  0  0  0  0  0  0
  1 35  1  0  0  0  0
  1  2  1  0  0  0  0
  1 36  1  0  0  0  0
  2 21  1  0  0  0  0
  2 20  1  0  0  0  0
  3  1  2  0  0  0  0
  3 34  1  0  0  0  0
  4  5  1  0  0  0  0
  4 34  1  0  0  0  0
  5 37  1  0  0  0  0
  6 38  1  0  0  0  0
  6  5  2  0  0  0  0
  7  6  1  0  0  0  0
  8  7  2  0  0  0  0
  8  9  1  0  0  0  0
  9 33  1  0  0  0  0
  9  4  2  0  0  0  0
 10 42  1  0  0  0  0
 10 33  1  0  0  0  0
 11 20  2  0  0  0  0
 11 12  1  0  0  0  0
 12 13  2  0  0  0  0
 12 17  1  0  0  0  0
 13 14  1  0  0  0  0
 14 45  1  0  0  0  0
 14 15  2  0  0  0  0
 15 16  1  0  0  0  0
 15 46  1  0  0  0  0
 16 47  1  0  0  0  0
 17 18  1  0  0  0  0
 17 16  2  0  0  0  0
 18 48  1  0  0  0  0
 19 49  1  0  0  0  0
 19 18  2  0  0  0  0
 20 19  1  0  0  0  0
 21 26  1  0  0  0  0
 22 23  1  0  0  0  0
 22 21  2  0  0  0  0
 23 24  2  0  0  0  0
 24 52  1  0  0  0  0
 24 25  1  0  0  0  0
 25 53  1  0  0  0  0
 26 25  2  0  0  0  0
 26 54  1  0  0  0  0
 27 28  1  0  0  0  0
 27  2  1  0  0  0  0
 28 55  1  0  0  0  0
 29 56  1  0  0  0  0
 29 28  2  0  0  0  0
 30 29  1  0  0  0  0
 31 30  2  0  0  0  0
 31 32  1  0  0  0  0
 32 27  2  0  0  0  0
 33  3  1  0  0  0  0
 34 11  1  0  0  0  0
 39  7  1  0  0  0  0
 40  8  1  0  0  0  0
 41 10  1  0  0  0  0
 43 10  1  0  0  0  0
 44 13  1  0  0  0  0
 50 22  1  0  0  0  0
 51 23  1  0  0  0  0
 57 30  1  0  0  0  0
 58 31  1  0  0  0  0
 59 32  1  0  0  0  0
M  END
$$$$
