CSD_code = QAFYOO | q = 1 | S = 0 | Stoichiometry = C26H28AuClN5(1+) | MND = 4
 OpenBabel04212202083D

 61 66  0  0  0  0  0  0  0  0999 V2000
    6.9784    1.4477    2.3837 Au  0  0  2  0  0  0  0  0  0  0  0  0
    7.3424    3.2431    3.7154 Cl  0  0  0  0  0  0  0  0  0  0  0  0
    6.6815   -0.2872    1.5220 N   0  0  0  0  0  0  0  0  0  0  0  0
    8.6884   -0.4542    0.2536 N   0  0  0  0  0  0  0  0  0  0  0  0
    8.8083    1.6118    1.4884 N   0  0  0  0  0  0  0  0  0  0  0  0
    4.7367   -0.9619    2.7315 N   0  0  0  0  0  0  0  0  0  0  0  0
    5.0777    1.3872    3.0899 N   0  0  0  0  0  0  0  0  0  0  0  0
    5.7064   -1.1665    1.9183 C   0  0  0  0  0  0  0  0  0  0  0  0
    5.9503   -2.4383    1.2493 C   0  0  0  0  0  0  0  0  0  0  0  0
    7.1150   -2.2785    0.4815 C   0  0  0  0  0  0  0  0  0  0  0  0
    7.5885   -0.9193    0.7152 C   0  0  0  0  0  0  0  0  0  0  0  0
    5.2612   -3.6353    1.2667 C   0  0  0  0  0  0  0  0  0  0  0  0
    4.3697   -3.7505    1.8612 H   0  0  0  0  0  0  0  0  0  0  0  0
    5.7670   -4.6737    0.4927 C   0  0  0  0  0  0  0  0  0  0  0  0
    5.2547   -5.6235    0.4832 H   0  0  0  0  0  0  0  0  0  0  0  0
    6.9180   -4.5147   -0.2689 C   0  0  0  0  0  0  0  0  0  0  0  0
    7.2797   -5.3434   -0.8581 H   0  0  0  0  0  0  0  0  0  0  0  0
    7.6150   -3.3115   -0.2865 C   0  0  0  0  0  0  0  0  0  0  0  0
    8.5092   -3.1808   -0.8736 H   0  0  0  0  0  0  0  0  0  0  0  0
    9.2501    0.7361    0.5481 C   0  0  0  0  0  0  0  0  0  0  0  0
   10.4222    0.9936   -0.1802 C   0  0  0  0  0  0  0  0  0  0  0  0
   10.6802    0.2414   -0.9057 H   0  0  0  0  0  0  0  0  0  0  0  0
   11.1890    2.1208    0.0308 C   0  0  0  0  0  0  0  0  0  0  0  0
   10.7229    2.9807    1.0366 C   0  0  0  0  0  0  0  0  0  0  0  0
   11.2554    3.8794    1.2995 H   0  0  0  0  0  0  0  0  0  0  0  0
    9.5672    2.7016    1.7151 C   0  0  0  0  0  0  0  0  0  0  0  0
    9.2270    3.3795    2.4799 H   0  0  0  0  0  0  0  0  0  0  0  0
   12.4503    2.4365   -0.7359 C   0  0  0  0  0  0  0  0  0  0  0  0
   13.6156    2.5376    0.2598 C   0  0  0  0  0  0  0  0  0  0  0  0
   13.4607    3.3337    0.9822 H   0  0  0  0  0  0  0  0  0  0  0  0
   14.5357    2.7452   -0.2796 H   0  0  0  0  0  0  0  0  0  0  0  0
   13.7384    1.6007    0.7985 H   0  0  0  0  0  0  0  0  0  0  0  0
   12.7812    1.3656   -1.7766 C   0  0  0  0  0  0  0  0  0  0  0  0
   12.9492    0.3997   -1.3070 H   0  0  0  0  0  0  0  0  0  0  0  0
   13.6917    1.6443   -2.3004 H   0  0  0  0  0  0  0  0  0  0  0  0
   11.9873    1.2742   -2.5138 H   0  0  0  0  0  0  0  0  0  0  0  0
   12.2569    3.7820   -1.4518 C   0  0  0  0  0  0  0  0  0  0  0  0
   11.4162    3.7298   -2.1399 H   0  0  0  0  0  0  0  0  0  0  0  0
   13.1507    4.0212   -2.0214 H   0  0  0  0  0  0  0  0  0  0  0  0
   12.0777    4.5899   -0.7481 H   0  0  0  0  0  0  0  0  0  0  0  0
    4.3890    0.2314    3.2580 C   0  0  0  0  0  0  0  0  0  0  0  0
    3.1755    0.2194    3.9609 C   0  0  0  0  0  0  0  0  0  0  0  0
    2.7221   -0.7501    4.0758 H   0  0  0  0  0  0  0  0  0  0  0  0
    2.5952    1.3783    4.4369 C   0  0  0  0  0  0  0  0  0  0  0  0
    3.2718    2.5665    4.1189 C   0  0  0  0  0  0  0  0  0  0  0  0
    2.8713    3.5297    4.3870 H   0  0  0  0  0  0  0  0  0  0  0  0
    4.4770    2.5305    3.4699 C   0  0  0  0  0  0  0  0  0  0  0  0
    4.9940    3.4504    3.2538 H   0  0  0  0  0  0  0  0  0  0  0  0
    1.3074    1.4094    5.2237 C   0  0  0  0  0  0  0  0  0  0  0  0
    1.5759    2.1010    6.5689 C   0  0  0  0  0  0  0  0  0  0  0  0
    2.3323    1.5582    7.1313 H   0  0  0  0  0  0  0  0  0  0  0  0
    0.6617    2.1200    7.1558 H   0  0  0  0  0  0  0  0  0  0  0  0
    1.9134    3.1247    6.4360 H   0  0  0  0  0  0  0  0  0  0  0  0
    0.7564    0.0078    5.4914 C   0  0  0  0  0  0  0  0  0  0  0  0
   -0.1524    0.0869    6.0821 H   0  0  0  0  0  0  0  0  0  0  0  0
    1.4679   -0.5934    6.0520 H   0  0  0  0  0  0  0  0  0  0  0  0
    0.5066   -0.5017    4.5641 H   0  0  0  0  0  0  0  0  0  0  0  0
    0.2673    2.2086    4.4236 C   0  0  0  0  0  0  0  0  0  0  0  0
    0.5811    3.2372    4.2704 H   0  0  0  0  0  0  0  0  0  0  0  0
   -0.6746    2.2192    4.9651 H   0  0  0  0  0  0  0  0  0  0  0  0
    0.0988    1.7496    3.4521 H   0  0  0  0  0  0  0  0  0  0  0  0
  1  7  1  0  0  0  0
  1  2  1  1  0  0  0
  3  8  1  0  0  0  0
  3  1  1  0  0  0  0
  4 20  2  0  0  0  0
  4 11  1  0  0  0  0
  5 26  1  0  0  0  0
  5  1  1  0  0  0  0
  6 41  2  0  0  0  0
  7 41  1  0  0  0  0
  7 47  1  0  0  0  0
  8  6  1  0  0  0  0
  9 12  1  0  0  0  0
  9  8  2  0  0  0  0
 10 11  2  0  0  0  0
 10  9  1  0  0  0  0
 11  3  1  0  0  0  0
 12 13  1  0  0  0  0
 14 12  2  0  0  0  0
 15 14  1  0  0  0  0
 16 14  1  0  0  0  0
 17 16  1  0  0  0  0
 18 16  2  0  0  0  0
 18 10  1  0  0  0  0
 19 18  1  0  0  0  0
 20  5  1  0  0  0  0
 21 23  2  0  0  0  0
 21 20  1  0  0  0  0
 22 21  1  0  0  0  0
 23 24  1  0  0  0  0
 24 25  1  0  0  0  0
 24 26  2  0  0  0  0
 26 27  1  0  0  0  0
 28 23  1  0  0  0  0
 28 29  1  0  0  0  0
 29 32  1  0  0  0  0
 29 30  1  0  0  0  0
 31 29  1  0  0  0  0
 33 34  1  0  0  0  0
 33 28  1  0  0  0  0
 35 33  1  0  0  0  0
 36 33  1  0  0  0  0
 37 40  1  0  0  0  0
 37 28  1  0  0  0  0
 38 37  1  0  0  0  0
 39 37  1  0  0  0  0
 41 42  1  0  0  0  0
 42 43  1  0  0  0  0
 42 44  2  0  0  0  0
 44 49  1  0  0  0  0
 45 46  1  0  0  0  0
 45 44  1  0  0  0  0
 47 45  2  0  0  0  0
 48 47  1  0  0  0  0
 49 54  1  0  0  0  0
 49 50  1  0  0  0  0
 50 51  1  0  0  0  0
 50 52  1  0  0  0  0
 53 50  1  0  0  0  0
 54 56  1  0  0  0  0
 54 55  1  0  0  0  0
 57 54  1  0  0  0  0
 58 60  1  0  0  0  0
 58 49  1  0  0  0  0
 59 58  1  0  0  0  0
 61 58  1  0  0  0  0
M  END
$$$$
