CSD_code = QAFZIH | q = 0 | S = 0 | Stoichiometry = C19H31Br2MoN3S4 | MND = 7
 OpenBabel04212202083D

 60 61  0  0  0  0  0  0  0  0999 V2000
    9.9652    7.1258    2.6747 Mo  0  0  0  0  0  0  0  0  0  0  0  0
   11.5861    8.8281    3.4889 Br  0  0  0  0  0  0  0  0  0  0  0  0
    7.9312    8.4223    3.5000 Br  0  0  0  0  0  0  0  0  0  0  0  0
    9.0188    5.8166    2.0327 N   0  0  0  0  0  2  0  0  0  0  0  0
    8.3438    4.7958    1.5283 C   0  0  0  0  0  0  0  0  0  0  0  0
    8.0699    3.6525    2.3169 C   0  0  0  0  0  0  0  0  0  0  0  0
    7.3774    2.5949    1.7614 C   0  0  0  0  0  0  0  0  0  0  0  0
    6.9306    2.6182    0.4475 C   0  0  0  0  0  0  0  0  0  0  0  0
    7.1826    3.7543   -0.3142 C   0  0  0  0  0  0  0  0  0  0  0  0
    7.8695    4.8366    0.1935 C   0  0  0  0  0  0  0  0  0  0  0  0
    8.5204    3.6138    3.7428 C   0  0  0  0  0  0  0  0  0  0  0  0
    6.1917    1.4595   -0.1457 C   0  0  0  0  0  0  0  0  0  0  0  0
    8.1102    6.0581   -0.6361 C   0  0  0  0  0  0  0  0  0  0  0  0
    9.8390    6.4150    5.1969 S   0  0  0  0  0  0  0  0  0  0  0  0
   11.8502    5.3921    3.4294 S   0  0  0  0  0  0  0  0  0  0  0  0
   11.2948    5.5520    5.0317 C   0  0  0  0  0  3  0  0  0  0  0  0
   11.9355    5.0299    6.0673 N   0  0  0  0  0  0  0  0  0  0  0  0
   11.4121    5.1781    7.4111 C   0  0  0  0  0  0  0  0  0  0  0  0
   10.4205    4.0669    7.7422 C   0  0  0  0  0  0  0  0  0  0  0  0
   13.1923    4.3304    5.8874 C   0  0  0  0  0  0  0  0  0  0  0  0
   14.3703    5.2994    5.9165 C   0  0  0  0  0  0  0  0  0  0  0  0
    9.5618    8.8349    0.7250 S   0  0  0  0  0  0  0  0  0  0  0  0
   11.6375    6.8667    0.6060 S   0  0  0  0  0  0  0  0  0  0  0  0
   10.9397    8.2571   -0.0862 C   0  0  0  0  0  0  0  0  0  0  0  0
   11.4306    8.8455   -1.1699 N   0  0  0  0  0  0  0  0  0  0  0  0
   10.7718   10.0160   -1.7183 C   0  0  0  0  0  0  0  0  0  0  0  0
    9.5641    9.6606   -2.5808 C   0  0  0  0  0  0  0  0  0  0  0  0
   12.5929    8.2919   -1.8361 C   0  0  0  0  0  0  0  0  0  0  0  0
   12.2299    7.1691   -2.8039 C   0  0  0  0  0  0  0  0  0  0  0  0
    7.1775    1.7270    2.3744 H   0  0  0  0  0  0  0  0  0  0  0  0
    6.8267    3.7934   -1.3344 H   0  0  0  0  0  0  0  0  0  0  0  0
    8.1075    4.4661    4.2869 H   0  0  0  0  0  0  0  0  0  0  0  0
    9.6099    3.6686    3.7965 H   0  0  0  0  0  0  0  0  0  0  0  0
    8.1943    2.6962    4.2260 H   0  0  0  0  0  0  0  0  0  0  0  0
    6.0175    0.6862    0.5978 H   0  0  0  0  0  0  0  0  0  0  0  0
    6.7633    1.0285   -0.9675 H   0  0  0  0  0  0  0  0  0  0  0  0
    5.2319    1.7843   -0.5446 H   0  0  0  0  0  0  0  0  0  0  0  0
    9.1821    6.2180   -0.7701 H   0  0  0  0  0  0  0  0  0  0  0  0
    7.6940    6.9358   -0.1364 H   0  0  0  0  0  0  0  0  0  0  0  0
    7.6481    5.9573   -1.6150 H   0  0  0  0  0  0  0  0  0  0  0  0
   12.2549    5.1600    8.1044 H   0  0  0  0  0  0  0  0  0  0  0  0
   10.9150    6.1490    7.4869 H   0  0  0  0  0  0  0  0  0  0  0  0
   10.0466    4.1972    8.7533 H   0  0  0  0  0  0  0  0  0  0  0  0
   10.8952    3.0912    7.6670 H   0  0  0  0  0  0  0  0  0  0  0  0
    9.5795    4.1011    7.0546 H   0  0  0  0  0  0  0  0  0  0  0  0
   13.1649    3.8125    4.9249 H   0  0  0  0  0  0  0  0  0  0  0  0
   13.2817    3.5892    6.6841 H   0  0  0  0  0  0  0  0  0  0  0  0
   15.2997    4.7551    5.7770 H   0  0  0  0  0  0  0  0  0  0  0  0
   14.4121    5.8287    6.8655 H   0  0  0  0  0  0  0  0  0  0  0  0
   14.2711    6.0286    5.1166 H   0  0  0  0  0  0  0  0  0  0  0  0
   11.5064   10.5706   -2.3049 H   0  0  0  0  0  0  0  0  0  0  0  0
   10.4445   10.6430   -0.8832 H   0  0  0  0  0  0  0  0  0  0  0  0
    9.0806   10.5735   -2.9160 H   0  0  0  0  0  0  0  0  0  0  0  0
    8.8468    9.0833   -2.0036 H   0  0  0  0  0  0  0  0  0  0  0  0
    9.8606    9.0837   -3.4525 H   0  0  0  0  0  0  0  0  0  0  0  0
   13.2675    7.9011   -1.0683 H   0  0  0  0  0  0  0  0  0  0  0  0
   13.0967    9.1024   -2.3661 H   0  0  0  0  0  0  0  0  0  0  0  0
   13.1368    6.7606   -3.2403 H   0  0  0  0  0  0  0  0  0  0  0  0
   11.5924    7.5337   -3.6048 H   0  0  0  0  0  0  0  0  0  0  0  0
   11.7128    6.3722   -2.2756 H   0  0  0  0  0  0  0  0  0  0  0  0
  1 15  1  0  0  0  0
  1  2  1  0  0  0  0
  1  3  1  0  0  0  0
  1 14  1  0  0  0  0
  4  1  1  0  0  0  0
  5  4  1  0  0  0  0
  5  6  1  0  0  0  0
  6 11  1  0  0  0  0
  7  6  2  0  0  0  0
  7 30  1  0  0  0  0
  8  7  1  0  0  0  0
  9 10  1  0  0  0  0
  9  8  2  0  0  0  0
 10  5  2  0  0  0  0
 11 33  1  0  0  0  0
 11 34  1  0  0  0  0
 11 32  1  0  0  0  0
 12  8  1  0  0  0  0
 12 35  1  0  0  0  0
 13 39  1  0  0  0  0
 13 10  1  0  0  0  0
 15 16  1  0  0  0  0
 16 14  1  0  0  0  0
 16 17  1  0  0  0  0
 17 18  1  0  0  0  0
 18 42  1  0  0  0  0
 18 19  1  0  0  0  0
 18 41  1  0  0  0  0
 19 43  1  0  0  0  0
 20 21  1  0  0  0  0
 20 17  1  0  0  0  0
 20 47  1  0  0  0  0
 21 49  1  0  0  0  0
 22  1  1  0  0  0  0
 24 23  2  0  0  0  0
 24 22  1  0  0  0  0
 25 24  1  0  0  0  0
 26 25  1  0  0  0  0
 26 52  1  0  0  0  0
 27 54  1  0  0  0  0
 27 26  1  0  0  0  0
 28 25  1  0  0  0  0
 28 56  1  0  0  0  0
 29 60  1  0  0  0  0
 29 28  1  0  0  0  0
 31  9  1  0  0  0  0
 36 12  1  0  0  0  0
 37 12  1  0  0  0  0
 38 13  1  0  0  0  0
 40 13  1  0  0  0  0
 44 19  1  0  0  0  0
 45 19  1  0  0  0  0
 46 20  1  0  0  0  0
 48 21  1  0  0  0  0
 50 21  1  0  0  0  0
 51 26  1  0  0  0  0
 53 27  1  0  0  0  0
 55 27  1  0  0  0  0
 57 28  1  0  0  0  0
 58 29  1  0  0  0  0
 59 29  1  0  0  0  0
M  END
$$$$
