CSD_code = QAFZUV | q = 1 | S = 0 | Stoichiometry = C28H32AuClN5(1+) | MND = 4
 OpenBabel04212202083D

 67 72  0  0  0  0  0  0  0  0999 V2000
    5.2582   10.6118    0.9565 Au  0  0  2  0  0  0  0  0  0  0  0  0
    3.2512    9.5691    1.1315 Cl  0  0  0  0  0  0  0  0  0  0  0  0
    6.8574   11.7393    1.0818 N   0  0  0  0  0  0  0  0  0  0  0  0
    6.6404   12.9545   -0.9555 N   0  0  0  0  0  0  0  0  0  0  0  0
    4.7871   11.4222   -0.8565 N   0  0  0  0  0  0  0  0  0  0  0  0
    7.4468   11.2663    3.3495 N   0  0  0  0  0  0  0  0  0  0  0  0
    5.8555    9.6233    2.6227 N   0  0  0  0  0  0  0  0  0  0  0  0
    7.1689   12.7329    0.1907 C   0  0  0  0  0  0  0  0  0  0  0  0
    8.2152   13.5544    0.7786 C   0  0  0  0  0  0  0  0  0  0  0  0
    8.4376   13.0623    2.0732 C   0  0  0  0  0  0  0  0  0  0  0  0
    7.5434   11.9310    2.2562 C   0  0  0  0  0  0  0  0  0  0  0  0
    8.9240   14.6376    0.3011 C   0  0  0  0  0  0  0  0  0  0  0  0
    8.7458   15.0091   -0.6954 H   0  0  0  0  0  0  0  0  0  0  0  0
    9.8707   15.2361    1.1318 C   0  0  0  0  0  0  0  0  0  0  0  0
   10.0920   14.7439    2.4315 C   0  0  0  0  0  0  0  0  0  0  0  0
    9.3705   13.6487    2.9042 C   0  0  0  0  0  0  0  0  0  0  0  0
    9.5318   13.2642    3.8986 H   0  0  0  0  0  0  0  0  0  0  0  0
    5.5883   12.3115   -1.4983 C   0  0  0  0  0  0  0  0  0  0  0  0
    5.3263   12.6867   -2.8264 C   0  0  0  0  0  0  0  0  0  0  0  0
    6.0240   13.3914   -3.2449 H   0  0  0  0  0  0  0  0  0  0  0  0
    4.2508   12.1921   -3.5328 C   0  0  0  0  0  0  0  0  0  0  0  0
    3.4282   11.3012   -2.8261 C   0  0  0  0  0  0  0  0  0  0  0  0
    2.5493   10.8705   -3.2757 H   0  0  0  0  0  0  0  0  0  0  0  0
    3.7233   10.9512   -1.5367 C   0  0  0  0  0  0  0  0  0  0  0  0
    3.0788   10.2644   -1.0141 H   0  0  0  0  0  0  0  0  0  0  0  0
    3.9349   12.5694   -4.9602 C   0  0  0  0  0  0  0  0  0  0  0  0
    4.9675   13.5322   -5.5488 C   0  0  0  0  0  0  0  0  0  0  0  0
    4.9945   14.4671   -4.9948 H   0  0  0  0  0  0  0  0  0  0  0  0
    4.6986   13.7616   -6.5765 H   0  0  0  0  0  0  0  0  0  0  0  0
    5.9601   13.0885   -5.5543 H   0  0  0  0  0  0  0  0  0  0  0  0
    3.9090   11.2906   -5.8107 C   0  0  0  0  0  0  0  0  0  0  0  0
    4.8739   10.7898   -5.7744 H   0  0  0  0  0  0  0  0  0  0  0  0
    3.6956   11.5471   -6.8448 H   0  0  0  0  0  0  0  0  0  0  0  0
    3.1464   10.5959   -5.4708 H   0  0  0  0  0  0  0  0  0  0  0  0
    2.5547   13.2433   -4.9877 C   0  0  0  0  0  0  0  0  0  0  0  0
    1.7731   12.5723   -4.6431 H   0  0  0  0  0  0  0  0  0  0  0  0
    2.3184   13.5448   -6.0045 H   0  0  0  0  0  0  0  0  0  0  0  0
    2.5515   14.1299   -4.3578 H   0  0  0  0  0  0  0  0  0  0  0  0
    6.7181   10.1457    3.5281 C   0  0  0  0  0  0  0  0  0  0  0  0
    6.9595    9.4895    4.7450 C   0  0  0  0  0  0  0  0  0  0  0  0
    7.6316    9.9991    5.4137 H   0  0  0  0  0  0  0  0  0  0  0  0
    6.3959    8.2652    5.0395 C   0  0  0  0  0  0  0  0  0  0  0  0
    5.6066    7.7030    4.0233 C   0  0  0  0  0  0  0  0  0  0  0  0
    5.1646    6.7268    4.1308 H   0  0  0  0  0  0  0  0  0  0  0  0
    5.3631    8.3940    2.8673 C   0  0  0  0  0  0  0  0  0  0  0  0
    4.7372    7.9579    2.1069 H   0  0  0  0  0  0  0  0  0  0  0  0
    6.6082    7.5349    6.3439 C   0  0  0  0  0  0  0  0  0  0  0  0
    7.4714    8.3330    7.3224 C   0  0  0  0  0  0  0  0  0  0  0  0
    8.4688    8.4996    6.9230 H   0  0  0  0  0  0  0  0  0  0  0  0
    7.5733    7.7738    8.2487 H   0  0  0  0  0  0  0  0  0  0  0  0
    7.0140    9.2905    7.5586 H   0  0  0  0  0  0  0  0  0  0  0  0
    7.3027    6.1975    6.0451 C   0  0  0  0  0  0  0  0  0  0  0  0
    6.6948    5.5621    5.4075 H   0  0  0  0  0  0  0  0  0  0  0  0
    7.4841    5.6680    6.9765 H   0  0  0  0  0  0  0  0  0  0  0  0
    8.2589    6.3661    5.5549 H   0  0  0  0  0  0  0  0  0  0  0  0
    5.2371    7.2798    6.9877 C   0  0  0  0  0  0  0  0  0  0  0  0
    4.7232    8.2203    7.1728 H   0  0  0  0  0  0  0  0  0  0  0  0
    5.3714    6.7706    7.9381 H   0  0  0  0  0  0  0  0  0  0  0  0
    4.6053    6.6597    6.3584 H   0  0  0  0  0  0  0  0  0  0  0  0
   10.6501   16.4079    0.6344 C   0  0  0  0  0  0  0  0  0  0  0  0
   11.7178   16.1930    0.6547 H   0  0  0  0  0  0  0  0  0  0  0  0
   10.4821   17.2768    1.2693 H   0  0  0  0  0  0  0  0  0  0  0  0
   10.3659   16.6605   -0.3827 H   0  0  0  0  0  0  0  0  0  0  0  0
   11.1041   15.3949    3.3147 C   0  0  0  0  0  0  0  0  0  0  0  0
   12.0910   15.3616    2.8551 H   0  0  0  0  0  0  0  0  0  0  0  0
   11.1536   14.8995    4.2798 H   0  0  0  0  0  0  0  0  0  0  0  0
   10.8553   16.4433    3.4737 H   0  0  0  0  0  0  0  0  0  0  0  0
  1  3  1  0  0  0  0
  1  2  1  1  0  0  0
  1  7  1  0  0  0  0
  3 11  1  0  0  0  0
  4  8  1  0  0  0  0
  5  1  1  0  0  0  0
  6 39  2  0  0  0  0
  7 45  1  0  0  0  0
  7 39  1  0  0  0  0
  8  9  2  0  0  0  0
  8  3  1  0  0  0  0
  9 10  1  0  0  0  0
 10 11  2  0  0  0  0
 10 16  1  0  0  0  0
 11  6  1  0  0  0  0
 12  9  1  0  0  0  0
 12 14  2  0  0  0  0
 13 12  1  0  0  0  0
 14 15  1  0  0  0  0
 15 16  2  0  0  0  0
 15 64  1  0  0  0  0
 16 17  1  0  0  0  0
 18  4  2  0  0  0  0
 18  5  1  0  0  0  0
 19 18  1  0  0  0  0
 20 19  1  0  0  0  0
 21 19  2  0  0  0  0
 21 22  1  0  0  0  0
 22 24  2  0  0  0  0
 23 22  1  0  0  0  0
 24 25  1  0  0  0  0
 24  5  1  0  0  0  0
 26 21  1  0  0  0  0
 27 28  1  0  0  0  0
 27 26  1  0  0  0  0
 29 27  1  0  0  0  0
 30 27  1  0  0  0  0
 31 32  1  0  0  0  0
 31 34  1  0  0  0  0
 31 26  1  0  0  0  0
 33 31  1  0  0  0  0
 35 26  1  0  0  0  0
 35 36  1  0  0  0  0
 35 38  1  0  0  0  0
 37 35  1  0  0  0  0
 39 40  1  0  0  0  0
 40 42  2  0  0  0  0
 40 41  1  0  0  0  0
 42 47  1  0  0  0  0
 43 44  1  0  0  0  0
 43 42  1  0  0  0  0
 45 43  2  0  0  0  0
 46 45  1  0  0  0  0
 47 56  1  0  0  0  0
 47 48  1  0  0  0  0
 48 51  1  0  0  0  0
 48 50  1  0  0  0  0
 49 48  1  0  0  0  0
 52 47  1  0  0  0  0
 52 54  1  0  0  0  0
 53 52  1  0  0  0  0
 55 52  1  0  0  0  0
 56 57  1  0  0  0  0
 56 58  1  0  0  0  0
 59 56  1  0  0  0  0
 60 61  1  0  0  0  0
 60 14  1  0  0  0  0
 60 62  1  0  0  0  0
 63 60  1  0  0  0  0
 64 67  1  0  0  0  0
 64 66  1  0  0  0  0
 65 64  1  0  0  0  0
M  END
$$$$
