CSD_code = QAFZED | q = 0 | S = 0 | Stoichiometry = C22H37Cl2MoN3S4 | MND = 7
 OpenBabel04212202083D

 69 70  0  0  0  0  0  0  0  0999 V2000
    4.1166    4.1111    4.6576 Mo  0  0  0  0  0  0  0  0  0  0  0  0
    2.2117    3.0737    5.4289 Cl  0  0  0  0  0  0  0  0  0  0  0  0
    5.2815    3.2882    6.5258 Cl  0  0  0  0  0  0  0  0  0  0  0  0
    3.4904    5.8879    6.5229 S   0  0  0  0  0  0  0  0  0  0  0  0
    2.5834    6.1077    3.8100 S   0  0  0  0  0  0  0  0  0  0  0  0
    3.0434    3.3369    2.3550 S   0  0  0  0  0  0  0  0  0  0  0  0
    4.9497    1.7457    3.8016 S   0  0  0  0  0  0  0  0  0  0  0  0
    5.4752    4.9499    3.9639 N   0  0  0  0  0  2  0  0  0  0  0  0
    1.7858    7.7700    5.7275 N   0  0  0  0  0  0  0  0  0  0  0  0
    3.6485    0.8438    1.6610 N   0  0  0  0  0  0  0  0  0  0  0  0
    6.5256    5.6014    3.4710 C   0  0  0  0  0  0  0  0  0  0  0  0
    7.2547    6.4973    4.2957 C   0  0  0  0  0  0  0  0  0  0  0  0
    8.3382    7.1720    3.7642 C   0  0  0  0  0  0  0  0  0  0  0  0
    8.7364    6.9767    2.4544 C   0  0  0  0  0  0  0  0  0  0  0  0
    8.0371    6.0950    1.6492 C   0  0  0  0  0  0  0  0  0  0  0  0
    6.9419    5.4026    2.1288 C   0  0  0  0  0  0  0  0  0  0  0  0
    6.8059    6.7544    5.7115 C   0  0  0  0  0  0  0  0  0  0  0  0
    7.9688    6.8311    6.7001 C   0  0  0  0  0  0  0  0  0  0  0  0
    5.9811    8.0460    5.7408 C   0  0  0  0  0  0  0  0  0  0  0  0
    6.1463    4.4791    1.2425 C   0  0  0  0  0  0  0  0  0  0  0  0
    5.0459    5.2929    0.5534 C   0  0  0  0  0  0  0  0  0  0  0  0
    6.9933    3.7345    0.2121 C   0  0  0  0  0  0  0  0  0  0  0  0
    2.5216    6.7171    5.3989 C   0  0  0  0  0  0  0  0  0  0  0  0
    1.7704    8.2643    7.0899 C   0  0  0  0  0  0  0  0  0  0  0  0
    0.7198    7.5441    7.9294 C   0  0  0  0  0  0  0  0  0  0  0  0
    0.9703    8.4467    4.7393 C   0  0  0  0  0  0  0  0  0  0  0  0
    1.7676    9.5200    4.0047 C   0  0  0  0  0  0  0  0  0  0  0  0
    3.8459    1.8457    2.5070 C   0  0  0  0  0  3  0  0  0  0  0  0
    2.6946    0.9660    0.5766 C   0  0  0  0  0  0  0  0  0  0  0  0
    1.2923    0.5699    1.0278 C   0  0  0  0  0  0  0  0  0  0  0  0
    4.3762   -0.4014    1.8012 C   0  0  0  0  0  0  0  0  0  0  0  0
    5.7161   -0.3390    1.0742 C   0  0  0  0  0  0  0  0  0  0  0  0
    8.8859    7.8649    4.3840 H   0  0  0  0  0  0  0  0  0  0  0  0
    9.5881    7.5114    2.0607 H   0  0  0  0  0  0  0  0  0  0  0  0
    8.3526    5.9512    0.6278 H   0  0  0  0  0  0  0  0  0  0  0  0
    6.1642    5.9213    6.0205 H   0  0  0  0  0  0  0  0  0  0  0  0
    8.6148    5.9638    6.5892 H   0  0  0  0  0  0  0  0  0  0  0  0
    7.5812    6.8425    7.7160 H   0  0  0  0  0  0  0  0  0  0  0  0
    8.5609    7.7314    6.5541 H   0  0  0  0  0  0  0  0  0  0  0  0
    5.1386    7.9696    5.0538 H   0  0  0  0  0  0  0  0  0  0  0  0
    6.5942    8.8936    5.4403 H   0  0  0  0  0  0  0  0  0  0  0  0
    5.5992    8.2256    6.7432 H   0  0  0  0  0  0  0  0  0  0  0  0
    5.6741    3.7316    1.8904 H   0  0  0  0  0  0  0  0  0  0  0  0
    4.4399    4.6511   -0.0820 H   0  0  0  0  0  0  0  0  0  0  0  0
    5.4865    6.0788   -0.0567 H   0  0  0  0  0  0  0  0  0  0  0  0
    4.3952    5.7524    1.2968 H   0  0  0  0  0  0  0  0  0  0  0  0
    6.3950    2.9555   -0.2564 H   0  0  0  0  0  0  0  0  0  0  0  0
    7.8541    3.2703    0.6878 H   0  0  0  0  0  0  0  0  0  0  0  0
    7.3423    4.4030   -0.5709 H   0  0  0  0  0  0  0  0  0  0  0  0
    1.5679    9.3366    7.0563 H   0  0  0  0  0  0  0  0  0  0  0  0
    2.7602    8.1017    7.5238 H   0  0  0  0  0  0  0  0  0  0  0  0
    0.7267    7.9327    8.9434 H   0  0  0  0  0  0  0  0  0  0  0  0
    0.9415    6.4810    7.9634 H   0  0  0  0  0  0  0  0  0  0  0  0
   -0.2732    7.6812    7.5077 H   0  0  0  0  0  0  0  0  0  0  0  0
    0.1145    8.8881    5.2535 H   0  0  0  0  0  0  0  0  0  0  0  0
    0.6116    7.7043    4.0217 H   0  0  0  0  0  0  0  0  0  0  0  0
    1.1297   10.0250    3.2854 H   0  0  0  0  0  0  0  0  0  0  0  0
    2.5973    9.0623    3.4733 H   0  0  0  0  0  0  0  0  0  0  0  0
    2.1601   10.2554    4.7030 H   0  0  0  0  0  0  0  0  0  0  0  0
    3.0311    0.3267   -0.2420 H   0  0  0  0  0  0  0  0  0  0  0  0
    2.6905    2.0057    0.2393 H   0  0  0  0  0  0  0  0  0  0  0  0
    0.5951    0.6711    0.2013 H   0  0  0  0  0  0  0  0  0  0  0  0
    0.9691    1.2194    1.8367 H   0  0  0  0  0  0  0  0  0  0  0  0
    1.2749   -0.4597    1.3776 H   0  0  0  0  0  0  0  0  0  0  0  0
    3.7553   -1.2031    1.3968 H   0  0  0  0  0  0  0  0  0  0  0  0
    4.5462   -0.5853    2.8649 H   0  0  0  0  0  0  0  0  0  0  0  0
    6.2407   -1.2830    1.1860 H   0  0  0  0  0  0  0  0  0  0  0  0
    6.3278    0.4524    1.4985 H   0  0  0  0  0  0  0  0  0  0  0  0
    5.5713   -0.1424    0.0144 H   0  0  0  0  0  0  0  0  0  0  0  0
  1  2  1  0  0  0  0
  1  4  1  0  0  0  0
  1  3  1  0  0  0  0
  5 23  2  0  0  0  0
  6 28  1  0  0  0  0
  6  1  1  0  0  0  0
  7  1  1  0  0  0  0
  8  1  1  0  0  0  0
  9 24  1  0  0  0  0
 10 31  1  0  0  0  0
 10 28  1  0  0  0  0
 11  8  1  0  0  0  0
 11 12  1  0  0  0  0
 12 17  1  0  0  0  0
 13 12  2  0  0  0  0
 13 33  1  0  0  0  0
 14 13  1  0  0  0  0
 15 16  1  0  0  0  0
 15 14  2  0  0  0  0
 16 11  2  0  0  0  0
 17 19  1  0  0  0  0
 17 36  1  0  0  0  0
 17 18  1  0  0  0  0
 18 38  1  0  0  0  0
 19 42  1  0  0  0  0
 20 43  1  0  0  0  0
 20 16  1  0  0  0  0
 21 20  1  0  0  0  0
 21 46  1  0  0  0  0
 22 48  1  0  0  0  0
 22 20  1  0  0  0  0
 23  9  1  0  0  0  0
 23  4  1  0  0  0  0
 24 51  1  0  0  0  0
 24 25  1  0  0  0  0
 25 53  1  0  0  0  0
 25 52  1  0  0  0  0
 26 55  1  0  0  0  0
 26  9  1  0  0  0  0
 27 59  1  0  0  0  0
 27 26  1  0  0  0  0
 28  7  1  0  0  0  0
 29 30  1  0  0  0  0
 29 10  1  0  0  0  0
 30 64  1  0  0  0  0
 30 63  1  0  0  0  0
 31 66  1  0  0  0  0
 32 67  1  0  0  0  0
 32 68  1  0  0  0  0
 32 31  1  0  0  0  0
 34 14  1  0  0  0  0
 35 15  1  0  0  0  0
 37 18  1  0  0  0  0
 39 18  1  0  0  0  0
 40 19  1  0  0  0  0
 41 19  1  0  0  0  0
 44 21  1  0  0  0  0
 45 21  1  0  0  0  0
 47 22  1  0  0  0  0
 49 22  1  0  0  0  0
 50 24  1  0  0  0  0
 54 25  1  0  0  0  0
 56 26  1  0  0  0  0
 57 27  1  0  0  0  0
 58 27  1  0  0  0  0
 60 29  1  0  0  0  0
 61 29  1  0  0  0  0
 62 30  1  0  0  0  0
 65 31  1  0  0  0  0
 69 32  1  0  0  0  0
M  END
$$$$
