CSD_code = QAFZAZ | q = 0 | S = 0 | Stoichiometry = C18H29Cl2MoN3S4 | MND = 7
 OpenBabel04212202083D

 57 58  0  0  0  0  0  0  0  0999 V2000
    9.7713   -6.8237    4.0452 Mo  0  0  0  0  0  0  0  0  0  0  0  0
   12.0589   -6.6213    4.5411 Cl  0  0  0  0  0  0  0  0  0  0  0  0
    9.3129   -6.9733    6.2919 Cl  0  0  0  0  0  0  0  0  0  0  0  0
    7.7927   -8.5905    3.9181 S   0  0  0  0  0  0  0  0  0  0  0  0
   10.5469   -9.3555    4.1851 S   0  0  0  0  0  0  0  0  0  0  0  0
    7.5044   -5.4447    3.8418 S   0  0  0  0  0  0  0  0  0  0  0  0
    9.9997   -4.2368    4.5685 S   0  0  0  0  0  0  0  0  0  0  0  0
    8.5357  -11.0628    4.5587 N   0  0  0  0  0  0  0  0  0  0  0  0
    7.6705   -2.9630    4.7945 N   0  0  0  0  0  0  0  0  0  0  0  0
    9.9551   -6.7210    2.3196 N   0  0  0  0  0  2  0  0  0  0  0  0
    8.9107   -9.8250    4.2610 C   0  0  0  0  0  3  0  0  0  0  0  0
    7.1284  -11.4117    4.5751 C   0  0  0  0  0  0  0  0  0  0  0  0
    6.5863  -11.7151    3.1815 C   0  0  0  0  0  0  0  0  0  0  0  0
    9.5335  -12.0818    4.8203 C   0  0  0  0  0  0  0  0  0  0  0  0
   10.0834  -12.7039    3.5403 C   0  0  0  0  0  0  0  0  0  0  0  0
    8.3112   -4.0723    4.4457 C   0  0  0  0  0  0  0  0  0  0  0  0
    6.2309   -2.8774    4.6457 C   0  0  0  0  0  0  0  0  0  0  0  0
    5.8118   -2.5120    3.2250 C   0  0  0  0  0  0  0  0  0  0  0  0
    8.4155   -1.8166    5.2783 C   0  0  0  0  0  0  0  0  0  0  0  0
    9.0034   -0.9804    4.1457 C   0  0  0  0  0  0  0  0  0  0  0  0
   10.1196   -6.6164    1.0062 C   0  0  0  0  0  0  0  0  0  0  0  0
   10.7828   -5.4843    0.4718 C   0  0  0  0  0  0  0  0  0  0  0  0
   10.9571   -5.3876   -0.8958 C   0  0  0  0  0  0  0  0  0  0  0  0
   10.5044   -6.3803   -1.7484 C   0  0  0  0  0  0  0  0  0  0  0  0
    9.8666   -7.4943   -1.2284 C   0  0  0  0  0  0  0  0  0  0  0  0
    9.6633   -7.6314    0.1313 C   0  0  0  0  0  0  0  0  0  0  0  0
   11.2692   -4.4150    1.3957 C   0  0  0  0  0  0  0  0  0  0  0  0
    8.9818   -8.8362    0.6977 C   0  0  0  0  0  0  0  0  0  0  0  0
    6.5769  -10.5658    4.9957 H   0  0  0  0  0  0  0  0  0  0  0  0
    7.0022  -12.2768    5.2287 H   0  0  0  0  0  0  0  0  0  0  0  0
    5.5196  -11.9104    3.2433 H   0  0  0  0  0  0  0  0  0  0  0  0
    6.7455  -10.8612    2.5292 H   0  0  0  0  0  0  0  0  0  0  0  0
    7.0749  -12.5849    2.7517 H   0  0  0  0  0  0  0  0  0  0  0  0
    9.0766  -12.8481    5.4493 H   0  0  0  0  0  0  0  0  0  0  0  0
   10.3552  -11.6150    5.3713 H   0  0  0  0  0  0  0  0  0  0  0  0
   10.8578  -13.4227    3.7916 H   0  0  0  0  0  0  0  0  0  0  0  0
    9.3014  -13.2146    2.9855 H   0  0  0  0  0  0  0  0  0  0  0  0
   10.5186  -11.9327    2.9110 H   0  0  0  0  0  0  0  0  0  0  0  0
    5.8613   -2.1340    5.3546 H   0  0  0  0  0  0  0  0  0  0  0  0
    5.8088   -3.8536    4.9018 H   0  0  0  0  0  0  0  0  0  0  0  0
    4.7281   -2.5232    3.1531 H   0  0  0  0  0  0  0  0  0  0  0  0
    6.1679   -1.5222    2.9536 H   0  0  0  0  0  0  0  0  0  0  0  0
    6.2130   -3.2384    2.5238 H   0  0  0  0  0  0  0  0  0  0  0  0
    9.2297   -2.1852    5.9091 H   0  0  0  0  0  0  0  0  0  0  0  0
    7.7427   -1.2105    5.8878 H   0  0  0  0  0  0  0  0  0  0  0  0
    9.5809   -0.1609    4.5635 H   0  0  0  0  0  0  0  0  0  0  0  0
    9.6628   -1.5926    3.5370 H   0  0  0  0  0  0  0  0  0  0  0  0
    8.2201   -0.5687    3.5155 H   0  0  0  0  0  0  0  0  0  0  0  0
   11.4616   -4.5214   -1.2996 H   0  0  0  0  0  0  0  0  0  0  0  0
   10.6523   -6.2890   -2.8139 H   0  0  0  0  0  0  0  0  0  0  0  0
    9.5193   -8.2731   -1.8922 H   0  0  0  0  0  0  0  0  0  0  0  0
   11.8360   -4.8543    2.2185 H   0  0  0  0  0  0  0  0  0  0  0  0
   11.8981   -3.7035    0.8667 H   0  0  0  0  0  0  0  0  0  0  0  0
   10.4211   -3.8792    1.8276 H   0  0  0  0  0  0  0  0  0  0  0  0
    8.7556   -9.5567   -0.0844 H   0  0  0  0  0  0  0  0  0  0  0  0
    9.6222   -9.3104    1.4441 H   0  0  0  0  0  0  0  0  0  0  0  0
    8.0531   -8.5422    1.1897 H   0  0  0  0  0  0  0  0  0  0  0  0
  1  5  1  0  0  0  0
  1  2  1  0  0  0  0
  1  7  1  0  0  0  0
  1  3  1  0  0  0  0
  4  1  1  0  0  0  0
  4 11  1  0  0  0  0
  5 11  1  0  0  0  0
  6 16  2  0  0  0  0
  8 12  1  0  0  0  0
  8 14  1  0  0  0  0
  9 19  1  0  0  0  0
 10  1  1  0  0  0  0
 11  8  1  0  0  0  0
 12 29  1  0  0  0  0
 12 30  1  0  0  0  0
 13 31  1  0  0  0  0
 13 12  1  0  0  0  0
 14 35  1  0  0  0  0
 14 34  1  0  0  0  0
 15 36  1  0  0  0  0
 15 14  1  0  0  0  0
 16  7  1  0  0  0  0
 16  9  1  0  0  0  0
 17  9  1  0  0  0  0
 17 40  1  0  0  0  0
 17 39  1  0  0  0  0
 18 17  1  0  0  0  0
 19 45  1  0  0  0  0
 19 44  1  0  0  0  0
 20 46  1  0  0  0  0
 20 19  1  0  0  0  0
 21 10  1  0  0  0  0
 22 21  1  0  0  0  0
 22 27  1  0  0  0  0
 23 22  2  0  0  0  0
 24 25  2  0  0  0  0
 24 23  1  0  0  0  0
 25 26  1  0  0  0  0
 26 28  1  0  0  0  0
 26 21  2  0  0  0  0
 27 54  1  0  0  0  0
 27 52  1  0  0  0  0
 28 57  1  0  0  0  0
 28 56  1  0  0  0  0
 32 13  1  0  0  0  0
 33 13  1  0  0  0  0
 37 15  1  0  0  0  0
 38 15  1  0  0  0  0
 41 18  1  0  0  0  0
 42 18  1  0  0  0  0
 43 18  1  0  0  0  0
 47 20  1  0  0  0  0
 48 20  1  0  0  0  0
 49 23  1  0  0  0  0
 50 24  1  0  0  0  0
 51 25  1  0  0  0  0
 53 27  1  0  0  0  0
 55 28  1  0  0  0  0
M  END
$$$$
