CSD_code = QAGFEJ | q = 0 | S = 0 | Stoichiometry = C20H27CdClN6S2 | MND = 5
 OpenBabel04212202083D

 57 62  0  0  1  0  0  0  0  0999 V2000
    6.8322    0.6267    1.9727 Cd  0  0  0  0  0  0  0  0  0  0  0  0
    5.3820    1.3425    0.1983 Cl  0  0  0  0  0  0  0  0  0  0  0  0
    6.5153    1.4046    4.3787 S   0  0  0  0  0  0  0  0  0  0  0  0
    9.0655    0.5687    0.3510 S   0  0  0  0  0  0  0  0  0  0  0  0
    5.8799   -1.1895    2.9724 N   0  0  0  0  0  0  0  0  0  0  0  0
    5.5481   -1.1554    4.2477 N   0  0  0  0  0  0  0  0  0  0  0  0
    5.5001   -0.1373    6.2582 N   0  0  0  0  0  0  0  0  0  0  0  0
    6.9245   -1.3317    0.5663 N   0  0  2  0  0  0  0  0  0  0  0  0
    7.2899   -1.0651   -0.6938 N   0  0  0  0  0  0  0  0  0  0  0  0
    8.3408    0.3892   -2.1846 N   0  0  0  0  0  0  0  0  0  0  0  0
    4.5962   -3.2651    2.6329 C   0  0  0  0  0  0  0  0  0  0  0  0
    3.4941   -3.6274    1.8612 C   0  0  0  0  0  0  0  0  0  0  0  0
    3.2792   -3.0927    0.9473 H   0  0  0  0  0  0  0  0  0  0  0  0
    2.6519   -4.6413    2.2783 C   0  0  0  0  0  0  0  0  0  0  0  0
    1.7957   -4.9085    1.6762 H   0  0  0  0  0  0  0  0  0  0  0  0
    2.8998   -5.3097    3.4658 C   0  0  0  0  0  0  0  0  0  0  0  0
    2.2404   -6.1016    3.7889 H   0  0  0  0  0  0  0  0  0  0  0  0
    3.9943   -4.9567    4.2376 C   0  0  0  0  0  0  0  0  0  0  0  0
    4.1930   -5.4770    5.1633 H   0  0  0  0  0  0  0  0  0  0  0  0
    4.8370   -3.9407    3.8273 C   0  0  0  0  0  0  0  0  0  0  0  0
    5.6967   -3.6723    4.4210 H   0  0  0  0  0  0  0  0  0  0  0  0
    5.4893   -2.1743    2.2031 C   0  0  1  0  0  3  0  0  0  0  0  0
    5.8335   -0.0693    4.9576 C   0  0  0  0  0  0  0  0  0  0  0  0
    5.8825    0.8465    7.2410 C   0  0  0  0  0  0  0  0  0  0  0  0
    5.0136    1.0488    7.8768 H   0  0  0  0  0  0  0  0  0  0  0  0
    6.1756    1.7673    6.7375 H   0  0  0  0  0  0  0  0  0  0  0  0
    7.0329    0.3023    8.0913 C   0  0  0  0  0  0  0  0  0  0  0  0
    7.3052    1.0380    8.8486 H   0  0  0  0  0  0  0  0  0  0  0  0
    7.8987    0.1388    7.4470 H   0  0  0  0  0  0  0  0  0  0  0  0
    6.6200   -1.0138    8.7465 C   0  0  0  0  0  0  0  0  0  0  0  0
    7.4598   -1.4350    9.3018 H   0  0  0  0  0  0  0  0  0  0  0  0
    5.8091   -0.8274    9.4551 H   0  0  0  0  0  0  0  0  0  0  0  0
    6.1449   -2.0015    7.6830 C   0  0  0  0  0  0  0  0  0  0  0  0
    6.9747   -2.2566    7.0210 H   0  0  0  0  0  0  0  0  0  0  0  0
    5.7819   -2.9192    8.1475 H   0  0  0  0  0  0  0  0  0  0  0  0
    5.0271   -1.3687    6.8528 C   0  0  0  0  0  0  0  0  0  0  0  0
    4.6957   -2.0348    6.0574 H   0  0  0  0  0  0  0  0  0  0  0  0
    4.1777   -1.1256    7.5004 H   0  0  0  0  0  0  0  0  0  0  0  0
    5.9435   -2.1106    0.8425 C   0  0  0  0  0  3  0  0  0  0  0  0
    8.1540   -0.0354   -0.9266 C   0  0  2  0  0  3  0  0  0  0  0  0
    7.4527    0.0602   -3.2862 C   0  0  0  0  0  0  0  0  0  0  0  0
    7.0835   -0.9638   -3.2134 H   0  0  0  0  0  0  0  0  0  0  0  0
    8.0488    0.1223   -4.2025 H   0  0  0  0  0  0  0  0  0  0  0  0
    6.3120    1.0792   -3.3394 C   0  0  0  0  0  0  0  0  0  0  0  0
    5.6264    0.8273   -4.1493 H   0  0  0  0  0  0  0  0  0  0  0  0
    5.7641    1.0615   -2.3940 H   0  0  0  0  0  0  0  0  0  0  0  0
    6.9017    2.4729   -3.5440 C   0  0  0  0  0  0  0  0  0  0  0  0
    6.1054    3.2165   -3.5165 H   0  0  0  0  0  0  0  0  0  0  0  0
    7.3859    2.5291   -4.5231 H   0  0  0  0  0  0  0  0  0  0  0  0
    7.9215    2.7654   -2.4463 C   0  0  0  0  0  0  0  0  0  0  0  0
    8.3954    3.7334   -2.6084 H   0  0  0  0  0  0  0  0  0  0  0  0
    7.4121    2.7854   -1.4805 H   0  0  0  0  0  0  0  0  0  0  0  0
    8.9890    1.6703   -2.4120 C   0  0  0  0  0  0  0  0  0  0  0  0
    9.5183    1.6154   -3.3669 H   0  0  0  0  0  0  0  0  0  0  0  0
    9.7089    1.8493   -1.6148 H   0  0  0  0  0  0  0  0  0  0  0  0
    5.4349   -2.7057    0.0801 H   0  0  0  0  0  0  0  0  0  0  0  0
    6.6685   -1.3746   -1.4415 H   0  0  0  0  0  0  0  0  0  0  0  0
  1  5  1  0  0  0  0
  1  3  1  0  0  0  0
  2  1  1  0  0  0  0
  3 23  1  0  0  0  0
  4  1  1  0  0  0  0
  5  6  1  0  0  0  0
  6 23  2  0  0  0  0
  7 36  1  0  0  0  0
  7 24  1  0  0  0  0
  8 39  1  6  0  0  0
  8  1  1  0  0  0  0
  9  8  1  0  0  0  0
 11 20  1  0  0  0  0
 12 14  1  0  0  0  0
 12 11  2  0  0  0  0
 13 12  1  0  0  0  0
 14 16  2  0  0  0  0
 15 14  1  0  0  0  0
 16 17  1  0  0  0  0
 16 18  1  0  0  0  0
 18 19  1  0  0  0  0
 20 18  2  0  0  0  0
 20 21  1  0  0  0  0
 22 11  1  6  0  0  0
 22  5  1  0  0  0  0
 23  7  1  0  0  0  0
 24 25  1  0  0  0  0
 24 27  1  0  0  0  0
 26 24  1  0  0  0  0
 27 30  1  0  0  0  0
 27 28  1  0  0  0  0
 29 27  1  0  0  0  0
 30 31  1  0  0  0  0
 30 32  1  0  0  0  0
 33 35  1  0  0  0  0
 33 30  1  0  0  0  0
 34 33  1  0  0  0  0
 36 38  1  0  0  0  0
 36 33  1  0  0  0  0
 37 36  1  0  0  0  0
 39 22  1  0  0  0  0
 40 10  1  6  0  0  0
 40  9  1  0  0  0  0
 40  4  1  0  0  0  0
 41 42  1  0  0  0  0
 41 10  1  0  0  0  0
 43 41  1  0  0  0  0
 44 41  1  0  0  0  0
 44 46  1  0  0  0  0
 45 44  1  0  0  0  0
 47 48  1  0  0  0  0
 47 44  1  0  0  0  0
 47 50  1  0  0  0  0
 49 47  1  0  0  0  0
 50 53  1  0  0  0  0
 50 52  1  0  0  0  0
 51 50  1  0  0  0  0
 53 10  1  0  0  0  0
 53 55  1  0  0  0  0
 54 53  1  0  0  0  0
 56 39  1  0  0  0  0
 57  9  1  0  0  0  0
M  END
$$$$
