CSD_code = QAGRUL | q = 0 | S = 0 | Stoichiometry = C9H7Br3Ti | MND = 8
 OpenBabel04212202083D

 20 19  0  0  1  0  0  0  0  0999 V2000
    4.0956    3.8223    5.5818 Ti  0  0  0  0  0  0  0  0  0  0  0  0
    4.8674    2.1335    4.0999 Br  0  0  0  0  0 15  0  0  0  0  0  0
    4.8420    5.7241    4.3646 Br  0  0  0  0  0 15  0  0  0  0  0  0
    1.8184    3.8459    4.8753 Br  0  0  0  0  0 15  0  0  0  0  0  0
    5.0178    2.5931    7.3855 C   0  0  0  0  0  0  0  0  0  0  0  0
    5.6547    3.8709    7.2675 C   0  0  2  0  0  0  0  0  0  0  0  0
    4.6891    4.8610    7.5588 C   0  0  0  0  0  3  0  0  0  0  0  0
    3.4284    4.2510    7.7179 C   0  0  2  0  0  0  0  0  0  0  0  0
    3.6186    2.8304    7.6396 C   0  0  0  0  0  0  0  0  0  0  0  0
    2.7348    1.7416    7.7709 C   0  0  0  0  0  0  0  0  0  0  0  0
    3.2440    0.4698    7.6792 C   0  0  0  0  0  0  0  0  0  0  0  0
    4.6161    0.2384    7.4673 C   0  0  0  0  0  0  0  0  0  0  0  0
    5.5045    1.2732    7.3186 C   0  0  0  0  0  0  0  0  0  0  0  0
    6.7231    4.0375    7.1796 H   0  0  0  0  0  0  0  0  0  0  0  0
    4.8939    5.9207    7.6743 H   0  0  0  0  0  0  0  0  0  0  0  0
    2.5162    4.7475    8.0307 H   0  0  0  0  0  0  0  0  0  0  0  0
    1.6831    1.9146    7.9584 H   0  0  0  0  0  0  0  0  0  0  0  0
    2.5841   -0.3776    7.7830 H   0  0  0  0  0  0  0  0  0  0  0  0
    4.9703   -0.7797    7.4209 H   0  0  0  0  0  0  0  0  0  0  0  0
    6.5575    1.0896    7.1539 H   0  0  0  0  0  0  0  0  0  0  0  0
  1  6  1  0  0  0  0
  1  8  1  0  0  0  0
  5  9  1  0  0  0  0
  6 14  1  6  0  0  0
  6  5  1  0  0  0  0
  6  7  1  0  0  0  0
  7 15  1  0  0  0  0
  7  8  1  0  0  0  0
  8 16  1  1  0  0  0
  9  8  1  0  0  0  0
  9 10  2  0  0  0  0
 10 17  1  0  0  0  0
 11 10  1  0  0  0  0
 11 18  1  0  0  0  0
 12 11  2  0  0  0  0
 13  5  2  0  0  0  0
 13 12  1  0  0  0  0
 19 12  1  0  0  0  0
 20 13  1  0  0  0  0
M  END
$$$$
