CSD_code = QAGROG | q = 0 | S = 0 | Stoichiometry = C19H28ClN3SiTi | MND = 9
 OpenBabel04212202083D

 53 56  0  0  1  0  0  0  0  0999 V2000
    4.3853    0.2193   10.1874 Ti  0  0  0  0  0  0  0  0  0  0  0  0
    2.8587   -1.0831    9.1410 Cl  0  0  0  0  0  0  0  0  0  0  0  0
    5.9527   -2.2270    8.0798 Si  0  0  0  0  0  0  0  0  0  0  0  0
    3.3006    1.6538    9.7867 N   0  0  0  0  0  0  0  0  0  0  0  0
    5.8531    1.3888    9.4707 N   0  0  2  0  0  0  0  0  0  0  0  0
    5.7358   -0.7225    8.9258 N   0  0  0  0  0  0  0  0  0  0  0  0
    4.4589    0.8654   12.4364 C   0  0  0  0  0  0  0  0  0  0  0  0
    5.7518    0.3945   12.1372 C   0  0  0  0  0  0  0  0  0  0  0  0
    5.6576   -0.9739   11.8142 C   0  0  0  0  0  0  0  0  0  0  0  0
    4.3082   -1.3546   11.9136 C   0  0  0  0  0  0  0  0  0  0  0  0
    3.5575   -0.2165   12.2878 C   0  0  2  0  0  0  0  0  0  0  0  0
    2.4046    2.4823   10.5503 C   0  0  0  0  0  0  0  0  0  0  0  0
    3.4832    2.1231    8.4358 C   0  0  0  0  0  0  0  0  0  0  0  0
    4.6105    3.1792    8.3043 C   0  0  0  0  0  0  0  0  0  0  0  0
    5.8510    2.7934    9.1493 C   0  0  0  0  0  0  0  0  0  0  0  0
    6.1617    0.4681    8.5757 C   0  0  2  0  0  3  0  0  0  0  0  0
    6.9088    0.7676    7.3270 C   0  0  0  0  0  0  0  0  0  0  0  0
    6.2529    0.8121    6.1023 C   0  0  0  0  0  0  0  0  0  0  0  0
    6.9610    1.0920    4.9466 C   0  0  0  0  0  0  0  0  0  0  0  0
    8.3239    1.3310    5.0057 C   0  0  0  0  0  0  0  0  0  0  0  0
    8.9793    1.2958    6.2253 C   0  0  0  0  0  0  0  0  0  0  0  0
    8.2754    1.0200    7.3841 C   0  0  0  0  0  0  0  0  0  0  0  0
    4.9446   -2.3411    6.4561 C   0  0  0  0  0  0  0  0  0  0  0  0
    7.8120   -2.4603    7.6787 C   0  0  0  0  0  0  0  0  0  0  0  0
    5.3860   -3.6078    9.2651 C   0  0  0  0  0  0  0  0  0  0  0  0
    4.2242    1.8447   12.8336 H   0  0  0  0  0  0  0  0  0  0  0  0
    6.6693    0.9596   12.2401 H   0  0  0  0  0  0  0  0  0  0  0  0
    6.4937   -1.6340   11.6277 H   0  0  0  0  0  0  0  0  0  0  0  0
    3.9170   -2.3591   11.8164 H   0  0  0  0  0  0  0  0  0  0  0  0
    2.5063   -0.2230   12.5584 H   0  0  0  0  0  0  0  0  0  0  0  0
    2.8681    3.4465   10.8185 H   0  0  0  0  0  0  0  0  0  0  0  0
    1.4950    2.7005    9.9701 H   0  0  0  0  0  0  0  0  0  0  0  0
    2.1016    1.9746   11.4669 H   0  0  0  0  0  0  0  0  0  0  0  0
    2.5495    2.5641    8.0480 H   0  0  0  0  0  0  0  0  0  0  0  0
    3.7247    1.2556    7.7965 H   0  0  0  0  0  0  0  0  0  0  0  0
    4.2404    4.1503    8.6361 H   0  0  0  0  0  0  0  0  0  0  0  0
    4.8838    3.2617    7.2503 H   0  0  0  0  0  0  0  0  0  0  0  0
    5.8316    3.3357   10.1012 H   0  0  0  0  0  0  0  0  0  0  0  0
    6.7665    3.0740    8.6086 H   0  0  0  0  0  0  0  0  0  0  0  0
    5.1886    0.6270    6.0615 H   0  0  0  0  0  0  0  0  0  0  0  0
    6.4475    1.1235    3.9969 H   0  0  0  0  0  0  0  0  0  0  0  0
    8.8747    1.5458    4.1021 H   0  0  0  0  0  0  0  0  0  0  0  0
   10.0419    1.4835    6.2740 H   0  0  0  0  0  0  0  0  0  0  0  0
    8.7812    0.9875    8.3385 H   0  0  0  0  0  0  0  0  0  0  0  0
    3.9467   -1.9349    6.5988 H   0  0  0  0  0  0  0  0  0  0  0  0
    5.4199   -1.8118    5.6351 H   0  0  0  0  0  0  0  0  0  0  0  0
    4.8336   -3.3779    6.1554 H   0  0  0  0  0  0  0  0  0  0  0  0
    8.1312   -1.8215    6.8615 H   0  0  0  0  0  0  0  0  0  0  0  0
    8.4394   -2.2368    8.5361 H   0  0  0  0  0  0  0  0  0  0  0  0
    8.0055   -3.4868    7.3882 H   0  0  0  0  0  0  0  0  0  0  0  0
    5.9541   -3.6266   10.1902 H   0  0  0  0  0  0  0  0  0  0  0  0
    4.3363   -3.4831    9.5116 H   0  0  0  0  0  0  0  0  0  0  0  0
    5.5012   -4.5771    8.7911 H   0  0  0  0  0  0  0  0  0  0  0  0
  1 11  1  0  0  0  0
  2  1  1  0  0  0  0
  3  6  1  0  0  0  0
  3 25  1  0  0  0  0
  4  1  1  0  0  0  0
  4 12  1  0  0  0  0
  5 15  1  6  0  0  0
  5  1  1  0  0  0  0
  6  1  1  0  0  0  0
  7 26  1  0  0  0  0
  8 27  1  0  0  0  0
  8  7  2  0  0  0  0
  9 10  2  0  0  0  0
  9  8  1  0  0  0  0
 10 11  1  0  0  0  0
 11  7  1  0  0  0  0
 11 30  1  1  0  0  0
 12 31  1  0  0  0  0
 12 33  1  0  0  0  0
 13  4  1  0  0  0  0
 14 13  1  0  0  0  0
 14 36  1  0  0  0  0
 14 15  1  0  0  0  0
 15 38  1  0  0  0  0
 16 17  1  1  0  0  0
 16  6  1  0  0  0  0
 16  5  1  0  0  0  0
 17 22  1  0  0  0  0
 18 17  2  0  0  0  0
 19 20  2  0  0  0  0
 19 18  1  0  0  0  0
 20 21  1  0  0  0  0
 21 43  1  0  0  0  0
 21 22  2  0  0  0  0
 22 44  1  0  0  0  0
 23 45  1  0  0  0  0
 23  3  1  0  0  0  0
 24  3  1  0  0  0  0
 24 49  1  0  0  0  0
 25 52  1  0  0  0  0
 25 51  1  0  0  0  0
 28  9  1  0  0  0  0
 29 10  1  0  0  0  0
 32 12  1  0  0  0  0
 34 13  1  0  0  0  0
 35 13  1  0  0  0  0
 37 14  1  0  0  0  0
 39 15  1  0  0  0  0
 40 18  1  0  0  0  0
 41 19  1  0  0  0  0
 42 20  1  0  0  0  0
 46 23  1  0  0  0  0
 47 23  1  0  0  0  0
 48 24  1  0  0  0  0
 50 24  1  0  0  0  0
 53 25  1  0  0  0  0
M  END
$$$$
