CSD_code = QAGVEB | q = 0 | S = 0 | Stoichiometry = C25H19BrNNiOP | MND = 4
 OpenBabel04212202083D

 49 54  0  0  0  0  0  0  0  0999 V2000
    0.7354    1.5880    8.0744 Ni  0  0  1  0  0  0  0  0  0  0  0  0
    0.4205    3.4998    9.1970 Br  0  0  0  0  0  0  0  0  0  0  0  0
    2.3649    1.2446    9.3609 P   0  0  0  0  0  4  0  0  0  0  0  0
    1.1763   -0.1102    7.2007 N   0  0  0  0  0  0  0  0  0  0  0  0
   -0.6093    2.0021    6.8513 O   0  0  0  0  0  0  0  0  0  0  0  0
    2.3415    1.2604   11.1687 C   0  0  0  0  0  0  0  0  0  0  0  0
    2.1083   -0.9573    7.8141 C   0  0  0  0  0  0  0  0  0  0  0  0
   -0.2930    0.2312    5.2851 C   0  0  0  0  0  0  0  0  0  0  0  0
    2.8473   -0.4440    8.8917 C   0  0  0  0  0  0  0  0  0  0  0  0
    3.8189   -1.1992    9.5274 C   0  0  0  0  0  0  0  0  0  0  0  0
    4.3778   -0.7695   10.3461 H   0  0  0  0  0  0  0  0  0  0  0  0
    2.3224   -2.2912    7.4544 C   0  0  0  0  0  0  0  0  0  0  0  0
    1.7247   -2.7650    6.6903 H   0  0  0  0  0  0  0  0  0  0  0  0
   -0.9590    1.3981    5.7910 C   0  0  0  0  0  0  0  0  0  0  0  0
    0.7241   -0.4144    6.0093 C   0  0  0  0  0  0  0  0  0  0  0  0
    1.1648   -1.2716    5.4996 H   0  0  0  0  0  0  0  0  0  0  0  0
    4.0510   -2.5009    9.1220 C   0  0  0  0  0  0  0  0  0  0  0  0
    4.8046   -3.0976    9.6124 H   0  0  0  0  0  0  0  0  0  0  0  0
   -2.4085    1.3496    3.8417 C   0  0  0  0  0  0  0  0  0  0  0  0
   -3.2297    1.7678    3.2777 H   0  0  0  0  0  0  0  0  0  0  0  0
   -0.6944   -0.3096    4.0413 C   0  0  0  0  0  3  0  0  0  0  0  0
   -0.1689   -1.1777    3.6659 H   0  0  0  0  0  0  0  0  0  0  0  0
   -2.0467    1.9127    5.0289 C   0  0  0  0  0  0  0  0  0  0  0  0
   -2.5542    2.7788    5.4254 H   0  0  0  0  0  0  0  0  0  0  0  0
    3.2847   -3.0425    8.1015 C   0  0  0  0  0  0  0  0  0  0  0  0
    3.4324   -4.0712    7.8079 H   0  0  0  0  0  0  0  0  0  0  0  0
   -1.7262    0.2303    3.3324 C   0  0  0  0  0  0  0  0  0  0  0  0
   -2.0261   -0.1961    2.3875 H   0  0  0  0  0  0  0  0  0  0  0  0
    3.8179    2.2308    8.8947 C   0  0  0  0  0  0  0  0  0  0  0  0
    3.7462    2.9543    7.7091 C   0  0  0  0  0  0  0  0  0  0  0  0
    2.8134    2.9632    7.1461 H   0  0  0  0  0  0  0  0  0  0  0  0
    2.5812    2.4573   11.8397 C   0  0  0  0  0  0  0  0  0  0  0  0
    2.8007    3.3527   11.2757 H   0  0  0  0  0  0  0  0  0  0  0  0
    4.9937    2.2233    9.6367 C   0  0  0  0  0  0  0  0  0  0  0  0
    5.0455    1.6712   10.5645 H   0  0  0  0  0  0  0  0  0  0  0  0
    1.9927    0.1181   11.8833 C   0  0  0  0  0  0  0  0  0  0  0  0
    1.7733   -0.8021   11.3583 H   0  0  0  0  0  0  0  0  0  0  0  0
    4.8416    3.6720    7.2671 C   0  0  0  0  0  0  0  0  0  0  0  0
    4.7820    4.2400    6.3510 H   0  0  0  0  0  0  0  0  0  0  0  0
    6.0125    3.6633    8.0076 C   0  0  0  0  0  0  0  0  0  0  0  0
    6.8695    4.2247    7.6665 H   0  0  0  0  0  0  0  0  0  0  0  0
    2.5122    2.4940   13.2196 C   0  0  0  0  0  0  0  0  0  0  0  0
    2.6987    3.4214   13.7394 H   0  0  0  0  0  0  0  0  0  0  0  0
    1.9273    0.1648   13.2638 C   0  0  0  0  0  0  0  0  0  0  0  0
    1.6625   -0.7236   13.8183 H   0  0  0  0  0  0  0  0  0  0  0  0
    2.1922    1.3492   13.9322 C   0  0  0  0  0  0  0  0  0  0  0  0
    2.1365    1.3816   15.0101 H   0  0  0  0  0  0  0  0  0  0  0  0
    6.0867    2.9419    9.1890 C   0  0  0  0  0  0  0  0  0  0  0  0
    7.0003    2.9424    9.7653 H   0  0  0  0  0  0  0  0  0  0  0  0
  1  2  1  1  0  0  0
  1  3  1  0  0  0  0
  3  6  1  0  0  0  0
  4  7  1  0  0  0  0
  4  1  1  0  0  0  0
  5  1  1  0  0  0  0
  6 32  2  0  0  0  0
  6 36  1  0  0  0  0
  7  9  1  0  0  0  0
  8 14  1  0  0  0  0
  8 15  2  0  0  0  0
  9  3  1  0  0  0  0
  9 10  2  0  0  0  0
 10 11  1  0  0  0  0
 12  7  2  0  0  0  0
 12 25  1  0  0  0  0
 13 12  1  0  0  0  0
 14  5  1  0  0  0  0
 15  4  1  0  0  0  0
 16 15  1  0  0  0  0
 17 10  1  0  0  0  0
 17 18  1  0  0  0  0
 19 23  1  0  0  0  0
 20 19  1  0  0  0  0
 21  8  1  0  0  0  0
 22 21  1  0  0  0  0
 23 24  1  0  0  0  0
 23 14  2  0  0  0  0
 25 17  2  0  0  0  0
 26 25  1  0  0  0  0
 27 19  2  0  0  0  0
 27 21  1  0  0  0  0
 28 27  1  0  0  0  0
 29  3  1  0  0  0  0
 29 34  1  0  0  0  0
 30 29  2  0  0  0  0
 31 30  1  0  0  0  0
 32 42  1  0  0  0  0
 33 32  1  0  0  0  0
 34 35  1  0  0  0  0
 36 44  2  0  0  0  0
 37 36  1  0  0  0  0
 38 30  1  0  0  0  0
 38 40  2  0  0  0  0
 39 38  1  0  0  0  0
 40 48  1  0  0  0  0
 41 40  1  0  0  0  0
 42 43  1  0  0  0  0
 42 46  2  0  0  0  0
 44 45  1  0  0  0  0
 44 46  1  0  0  0  0
 46 47  1  0  0  0  0
 48 34  2  0  0  0  0
 48 49  1  0  0  0  0
M  END
$$$$
