CSD_code = QAHCAE | q = 0 | S = 0 | Stoichiometry = C21H26BrN3Pd | MND = 4
 OpenBabel04212202083D

 52 55  0  0  1  0  0  0  0  0999 V2000
    1.8254    0.7904    4.0002 Pd  0  0  1  0  0  0  0  0  0  0  0  0
    1.7488   -1.1868    2.7155 Br  0  0  0  0  0  0  0  0  0  0  0  0
    2.0120    3.0219    6.2059 N   0  0  0  0  0  0  0  0  0  0  0  0
    0.3682    3.0944    4.8158 N   0  0  0  0  0  0  0  0  0  0  0  0
   -0.2032    1.4660    3.3017 N   0  0  0  0  0  0  0  0  0  0  0  0
    4.2656    1.0583    8.3515 C   0  0  0  0  0  0  0  0  0  0  0  0
    4.2435    0.1928    8.9939 H   0  0  0  0  0  0  0  0  0  0  0  0
    4.3766    3.2939    6.6795 C   0  0  0  0  0  0  0  0  0  0  0  0
    1.5262    2.4194    5.1072 C   0  0  0  0  0  0  0  0  0  0  0  0
   -0.4768    2.6820    3.7900 C   0  0  1  0  0  3  0  0  0  0  0  0
    4.4138    4.4712    5.7306 C   0  0  0  0  0  0  0  0  0  0  0  0
    3.4412    4.9761    5.7629 H   0  0  0  0  0  0  0  0  0  0  0  0
    3.1808    2.6034    6.8979 C   0  0  0  0  0  0  0  0  0  0  0  0
   -2.0218    1.6870    1.7877 C   0  0  0  0  0  0  0  0  0  0  0  0
   -2.6115    1.2572    0.9949 H   0  0  0  0  0  0  0  0  0  0  0  0
   -2.3082    2.9484    2.2919 C   0  0  0  0  0  0  0  0  0  0  0  0
   -3.1276    3.5288    1.8960 H   0  0  0  0  0  0  0  0  0  0  0  0
    3.8125    0.4388    4.3881 C   0  0  0  0  0  0  0  0  0  0  0  0
    3.9378   -0.6089    4.6809 H   0  0  0  0  0  0  0  0  0  0  0  0
    4.2828    1.0717    5.1414 H   0  0  0  0  0  0  0  0  0  0  0  0
    4.3190    0.5842    3.4225 H   0  0  0  0  0  0  0  0  0  0  0  0
    1.1974    4.0578    6.5959 C   0  0  0  0  0  0  0  0  0  0  0  0
    1.4133    4.6559    7.4578 H   0  0  0  0  0  0  0  0  0  0  0  0
    5.4633    1.7092    8.1299 C   0  0  0  0  0  0  0  0  0  0  0  0
    6.3654    1.3464    8.5992 H   0  0  0  0  0  0  0  0  0  0  0  0
   -0.9559    0.9828    2.3205 C   0  0  0  0  0  0  0  0  0  0  0  0
   -0.6911   -0.0049    1.9615 H   0  0  0  0  0  0  0  0  0  0  0  0
    5.5183    2.8236    7.3124 C   0  0  0  0  0  0  0  0  0  0  0  0
    6.4629    3.3183    7.1571 H   0  0  0  0  0  0  0  0  0  0  0  0
    1.7781    0.8030    8.0126 C   0  0  0  0  0  0  0  0  0  0  0  0
    0.9597    1.4502    7.6770 H   0  0  0  0  0  0  0  0  0  0  0  0
    0.1674    4.1111    5.7253 C   0  0  0  0  0  0  0  0  0  0  0  0
   -0.6799    4.7635    5.6993 H   0  0  0  0  0  0  0  0  0  0  0  0
    3.0941    1.4996    7.7492 C   0  0  0  0  0  0  0  0  0  0  0  0
   -1.5250    3.4615    3.3101 C   0  0  0  0  0  0  0  0  0  0  0  0
   -1.7133    4.4443    3.7113 H   0  0  0  0  0  0  0  0  0  0  0  0
    1.6940   -0.5123    7.2306 C   0  0  0  0  0  0  0  0  0  0  0  0
    1.6856   -0.3201    6.1410 H   0  0  0  0  0  0  0  0  0  0  0  0
    0.7817   -1.0439    7.4930 H   0  0  0  0  0  0  0  0  0  0  0  0
    2.5459   -1.1477    7.4594 H   0  0  0  0  0  0  0  0  0  0  0  0
    4.6413    3.9693    4.3000 C   0  0  0  0  0  0  0  0  0  0  0  0
    4.6599    4.8084    3.6080 H   0  0  0  0  0  0  0  0  0  0  0  0
    3.8496    3.2826    3.9936 H   0  0  0  0  0  0  0  0  0  0  0  0
    5.5905    3.4428    4.2335 H   0  0  0  0  0  0  0  0  0  0  0  0
    1.5734    0.5493    9.5088 C   0  0  0  0  0  0  0  0  0  0  0  0
    1.7432    1.4595   10.0807 H   0  0  0  0  0  0  0  0  0  0  0  0
    2.2478   -0.2199    9.8739 H   0  0  0  0  0  0  0  0  0  0  0  0
    0.5544    0.2139    9.6887 H   0  0  0  0  0  0  0  0  0  0  0  0
    5.4764    5.5045    6.1051 C   0  0  0  0  0  0  0  0  0  0  0  0
    5.3345    6.4057    5.5125 H   0  0  0  0  0  0  0  0  0  0  0  0
    6.4770    5.1305    5.9053 H   0  0  0  0  0  0  0  0  0  0  0  0
    5.4040    5.7696    7.1581 H   0  0  0  0  0  0  0  0  0  0  0  0
  1  2  1  1  0  0  0
  1 18  1  0  0  0  0
  1  9  2  0  0  0  0
  3 22  1  0  0  0  0
  3 13  1  0  0  0  0
  4  9  1  0  0  0  0
  4 32  1  0  0  0  0
  5 10  1  0  0  0  0
  5  1  1  0  0  0  0
  6  7  1  0  0  0  0
  8 13  2  0  0  0  0
  8 28  1  0  0  0  0
  9  3  1  0  0  0  0
 10 35  1  1  0  0  0
 10  4  1  0  0  0  0
 11 12  1  0  0  0  0
 11 49  1  0  0  0  0
 11  8  1  0  0  0  0
 13 34  1  0  0  0  0
 14 16  1  0  0  0  0
 14 26  2  0  0  0  0
 15 14  1  0  0  0  0
 16 35  2  0  0  0  0
 17 16  1  0  0  0  0
 18 19  1  0  0  0  0
 18 20  1  0  0  0  0
 21 18  1  0  0  0  0
 22 23  1  0  0  0  0
 24  6  1  0  0  0  0
 24 25  1  0  0  0  0
 26  5  1  0  0  0  0
 27 26  1  0  0  0  0
 28 24  2  0  0  0  0
 29 28  1  0  0  0  0
 30 45  1  0  0  0  0
 31 30  1  0  0  0  0
 32 22  2  0  0  0  0
 33 32  1  0  0  0  0
 34 30  1  0  0  0  0
 34  6  2  0  0  0  0
 35 36  1  0  0  0  0
 37 40  1  0  0  0  0
 37 39  1  0  0  0  0
 37 30  1  0  0  0  0
 38 37  1  0  0  0  0
 41 11  1  0  0  0  0
 42 41  1  0  0  0  0
 43 41  1  0  0  0  0
 44 41  1  0  0  0  0
 45 48  1  0  0  0  0
 45 47  1  0  0  0  0
 45 46  1  0  0  0  0
 49 52  1  0  0  0  0
 50 49  1  0  0  0  0
 51 49  1  0  0  0  0
M  END
$$$$
