CSD_code = QAHLUI | q = 0 | S = 0 | Stoichiometry = C12H36Cl2P4Ru | MND = 6
 OpenBabel04212202083D

 55 54  0  0  0  0  0  0  0  0999 V2000
    9.7070    4.5476    2.9412 Ru  0  0  0  0  0  0  0  0  0  0  0  0
    8.5357    4.5473    0.8429 Cl  0  0  0  0  0  0  0  0  0  0  0  0
    7.6081    4.5473    4.1411 Cl  0  0  0  0  0  0  0  0  0  0  0  0
   11.7587    4.5471    1.9397 P   0  0  0  0  0  4  0  0  0  0  0  0
   10.3142    4.5471    5.1759 P   0  0  0  0  0  4  0  0  0  0  0  0
    9.3372    6.8456    2.5917 P   0  0  0  0  0  4  0  0  0  0  0  0
   11.8130    4.5472    0.1092 C   0  0  0  0  0  0  0  0  0  0  0  0
   12.8463    4.5472   -0.2393 H   0  0  0  0  0  0  0  0  0  0  0  0
   11.2905    3.6683   -0.2620 H   0  0  0  0  0  0  0  0  0  0  0  0
   12.9137    5.9339    2.2931 C   0  0  0  0  0  0  0  0  0  0  0  0
   13.8159    5.8288    1.6903 H   0  0  0  0  0  0  0  0  0  0  0  0
   13.1792    5.9144    3.3481 H   0  0  0  0  0  0  0  0  0  0  0  0
   12.4349    6.8850    2.0718 H   0  0  0  0  0  0  0  0  0  0  0  0
   12.0627    4.5472    5.7651 C   0  0  0  0  0  0  0  0  0  0  0  0
   12.0783    4.5472    6.8547 H   0  0  0  0  0  0  0  0  0  0  0  0
   12.5787    3.6607    5.4025 H   0  0  0  0  0  0  0  0  0  0  0  0
    9.7242    5.9559    6.1916 C   0  0  0  0  0  0  0  0  0  0  0  0
    9.7974    5.6972    7.2481 H   0  0  0  0  0  0  0  0  0  0  0  0
    8.6892    6.1769    5.9403 H   0  0  0  0  0  0  0  0  0  0  0  0
   10.3516    6.8220    5.9906 H   0  0  0  0  0  0  0  0  0  0  0  0
    9.7618    7.5184    0.9341 C   0  0  0  0  0  0  0  0  0  0  0  0
    9.3715    8.5339    0.8615 H   0  0  0  0  0  0  0  0  0  0  0  0
    9.2997    6.8965    0.1700 H   0  0  0  0  0  0  0  0  0  0  0  0
   10.8394    7.5378    0.7842 H   0  0  0  0  0  0  0  0  0  0  0  0
    7.5762    7.3215    2.6463 C   0  0  0  0  0  0  0  0  0  0  0  0
    7.4733    8.3693    2.3609 H   0  0  0  0  0  0  0  0  0  0  0  0
    7.1841    7.1645    3.6501 H   0  0  0  0  0  0  0  0  0  0  0  0
    7.0244    6.6849    1.9548 H   0  0  0  0  0  0  0  0  0  0  0  0
   10.0454    8.2033    3.6234 C   0  0  0  0  0  0  0  0  0  0  0  0
    9.9611    9.1487    3.0886 H   0  0  0  0  0  0  0  0  0  0  0  0
   11.0925    8.0089    3.8491 H   0  0  0  0  0  0  0  0  0  0  0  0
    9.4867    8.2752    4.5533 H   0  0  0  0  0  0  0  0  0  0  0  0
    9.3374    2.2490    2.5918 P   0  0  0  0  0  4  0  0  0  0  0  0
   11.2905    5.4262   -0.2620 H   0  0  0  0  0  0  0  0  0  0  0  0
   12.9138    3.1605    2.2931 C   0  0  0  0  0  0  0  0  0  0  0  0
   13.8160    3.2656    1.6903 H   0  0  0  0  0  0  0  0  0  0  0  0
   13.1792    3.1800    3.3481 H   0  0  0  0  0  0  0  0  0  0  0  0
   12.4351    2.2093    2.0718 H   0  0  0  0  0  0  0  0  0  0  0  0
   12.5786    5.4338    5.4025 H   0  0  0  0  0  0  0  0  0  0  0  0
    9.7242    3.1384    6.1918 C   0  0  0  0  0  0  0  0  0  0  0  0
    9.7974    3.3972    7.2482 H   0  0  0  0  0  0  0  0  0  0  0  0
    8.6891    2.9174    5.9404 H   0  0  0  0  0  0  0  0  0  0  0  0
   10.3516    2.2724    5.9908 H   0  0  0  0  0  0  0  0  0  0  0  0
    9.7618    1.5761    0.9342 C   0  0  0  0  0  0  0  0  0  0  0  0
    9.3715    0.5606    0.8616 H   0  0  0  0  0  0  0  0  0  0  0  0
    9.2997    2.1979    0.1701 H   0  0  0  0  0  0  0  0  0  0  0  0
   10.8394    1.5566    0.7843 H   0  0  0  0  0  0  0  0  0  0  0  0
    7.5763    1.7730    2.6463 C   0  0  0  0  0  0  0  0  0  0  0  0
    7.4735    0.7252    2.3608 H   0  0  0  0  0  0  0  0  0  0  0  0
    7.1842    1.9299    3.6501 H   0  0  0  0  0  0  0  0  0  0  0  0
    7.0245    2.4095    1.9548 H   0  0  0  0  0  0  0  0  0  0  0  0
   10.0454    0.8912    3.6234 C   0  0  0  0  0  0  0  0  0  0  0  0
    9.9611   -0.0542    3.0885 H   0  0  0  0  0  0  0  0  0  0  0  0
   11.0925    1.0856    3.8491 H   0  0  0  0  0  0  0  0  0  0  0  0
    9.4867    0.8193    4.5533 H   0  0  0  0  0  0  0  0  0  0  0  0
  1  3  1  0  0  0  0
  1  5  1  0  0  0  0
  2  1  1  0  0  0  0
  4 10  1  0  0  0  0
  4 35  1  0  0  0  0
  4  1  1  0  0  0  0
  5 14  1  0  0  0  0
  5 17  1  0  0  0  0
  5 40  1  0  0  0  0
  6 25  1  0  0  0  0
  6  1  1  0  0  0  0
  6 29  1  0  0  0  0
  7  4  1  0  0  0  0
  8  7  1  0  0  0  0
  9  7  1  0  0  0  0
 10 12  1  0  0  0  0
 11 10  1  0  0  0  0
 13 10  1  0  0  0  0
 14 15  1  0  0  0  0
 16 14  1  0  0  0  0
 17 18  1  0  0  0  0
 19 17  1  0  0  0  0
 20 17  1  0  0  0  0
 21  6  1  0  0  0  0
 22 21  1  0  0  0  0
 23 21  1  0  0  0  0
 24 21  1  0  0  0  0
 25 27  1  0  0  0  0
 26 25  1  0  0  0  0
 28 25  1  0  0  0  0
 29 31  1  0  0  0  0
 29 32  1  0  0  0  0
 30 29  1  0  0  0  0
 33 48  1  0  0  0  0
 33  1  1  0  0  0  0
 33 52  1  0  0  0  0
 34  7  1  0  0  0  0
 35 37  1  0  0  0  0
 36 35  1  0  0  0  0
 38 35  1  0  0  0  0
 39 14  1  0  0  0  0
 40 41  1  0  0  0  0
 42 40  1  0  0  0  0
 43 40  1  0  0  0  0
 44 33  1  0  0  0  0
 45 44  1  0  0  0  0
 46 44  1  0  0  0  0
 47 44  1  0  0  0  0
 48 50  1  0  0  0  0
 49 48  1  0  0  0  0
 51 48  1  0  0  0  0
 52 54  1  0  0  0  0
 52 55  1  0  0  0  0
 53 52  1  0  0  0  0
M  END
$$$$
