CSD_code = QAHLIX | q = 0 | S = 0 | Stoichiometry = C13H8BrMnN4O3 | MND = 6
 OpenBabel04212202083D

 30 33  0  0  1  0  0  0  0  0999 V2000
    5.4460    4.5471    3.6477 C   0  0  0  0  0  2  0  0  0  0  0  0
    3.6151    3.6144    2.2852 C   0  0  0  0  0  2  0  0  0  0  0  0
    5.4697    2.8075    1.2666 C   0  0  0  0  0  0  0  0  0  0  0  0
    3.7363    3.0851    5.9712 C   0  0  0  0  0  3  0  0  0  0  0  0
    4.0245    4.1291    5.9502 H   0  0  0  0  0  0  0  0  0  0  0  0
    3.1299    2.5562    7.0847 C   0  0  0  0  0  0  0  0  0  0  0  0
    2.9450    3.1832    7.9412 H   0  0  0  0  0  0  0  0  0  0  0  0
    2.7764    1.1992    7.0993 C   0  0  0  0  0  0  0  0  0  0  0  0
    2.3056    0.7692    7.9697 H   0  0  0  0  0  0  0  0  0  0  0  0
    3.0355    0.4409    5.9940 C   0  0  0  0  0  0  0  0  0  0  0  0
    2.7799   -0.6032    5.9243 H   0  0  0  0  0  0  0  0  0  0  0  0
    3.6630    1.0402    4.8793 C   0  0  0  0  0  0  0  0  0  0  0  0
    4.7924    0.5260    1.6740 C   0  0  1  0  0  3  0  0  0  0  0  0
    4.7247   -0.8346    1.3137 C   0  0  0  0  0  0  0  0  0  0  0  0
    4.3109   -1.5215    2.0341 H   0  0  0  0  0  0  0  0  0  0  0  0
    5.2049   -1.2268    0.0956 C   0  0  0  0  0  0  0  0  0  0  0  0
    5.1729   -2.2647   -0.1956 H   0  0  0  0  0  0  0  0  0  0  0  0
    5.7604   -0.2717   -0.7833 C   0  0  0  0  0  0  0  0  0  0  0  0
    6.1456   -0.5727   -1.7430 H   0  0  0  0  0  0  0  0  0  0  0  0
    5.8082    1.0366   -0.4094 C   0  0  0  0  0  0  0  0  0  0  0  0
    6.2226    1.8293   -1.0160 H   0  0  0  0  0  0  0  0  0  0  0  0
    7.1758    2.1190    3.6980 Br  0  0  0  0  0  0  0  0  0  0  0  0
    4.9632    2.8781    3.1812 Mn  0  0  0  0  0  0  0  0  0  0  0  0
    4.0287    2.3657    4.8783 N   0  0  0  0  0  0  0  0  0  0  0  0
    3.8951    0.3271    3.7773 N   0  0  0  0  0  2  0  0  0  0  0  0
    4.4526    1.0716    2.8425 N   0  0  2  0  0  0  0  0  0  0  0  0
    5.3134    1.4322    0.7861 N   0  0  0  0  0  0  0  0  0  0  0  0
    5.7291    5.6116    3.9573 O   0  0  0  0  0  1  0  0  0  0  0  0
    2.7927    4.0998    1.6440 O   0  0  0  0  0  1  0  0  0  0  0  0
    5.8720    3.6229    0.4822 O   0  0  0  0  0  0  0  0  0  0  0  0
  1 28  1  0  0  0  0
  2 23  1  0  0  0  0
  3 23  1  0  0  0  0
  4  6  1  0  0  0  0
  5  4  1  0  0  0  0
  6  8  2  0  0  0  0
  6  7  1  0  0  0  0
  8  9  1  0  0  0  0
 10  8  1  0  0  0  0
 11 10  1  0  0  0  0
 12 10  2  0  0  0  0
 13 14  1  1  0  0  0
 13 26  1  0  0  0  0
 14 15  1  0  0  0  0
 16 14  2  0  0  0  0
 17 16  1  0  0  0  0
 18 20  2  0  0  0  0
 18 16  1  0  0  0  0
 19 18  1  0  0  0  0
 20 27  1  0  0  0  0
 21 20  1  0  0  0  0
 23  1  1  0  0  0  0
 23 22  1  0  0  0  0
 23 24  1  0  0  0  0
 24 12  1  0  0  0  0
 24  4  1  0  0  0  0
 25 12  1  0  0  0  0
 26 23  1  0  0  0  0
 26 25  1  1  0  0  0
 27  3  1  0  0  0  0
 27 13  1  0  0  0  0
 29  2  1  0  0  0  0
 30  3  2  0  0  0  0
M  END
$$$$
