CSD_code = QAHVOM | q = 0 | S = 0 | Stoichiometry = C22H22ClF5IrP | MND = 6
 OpenBabel04212202083D

 52 52  0  0  1  0  0  0  0  0999 V2000
    0.0723    4.9845   11.0447 Ir  0  0  0  0  0  0  0  0  0  0  0  0
    1.7134    3.3400   11.0476 Cl  0  0  0  0  0 15  0  0  0  0  0  0
   -1.0750    3.1032   11.6778 P   0  0  0  0  0  0  0  0  0  0  0  0
   -1.2763    1.4260   13.7979 F   0  0  0  0  0  0  0  0  0  0  0  0
    0.4854    1.0999   12.6186 F   0  0  0  0  0  0  0  0  0  0  0  0
    0.0583    2.7266   15.3629 F   0  0  0  0  0  0  0  0  0  0  0  0
    0.3628    4.2372   13.8841 F   0  0  0  0  0  0  0  0  0  0  0  0
    1.7962    2.6470   14.1119 F   0  0  0  0  0  0  0  0  0  0  0  0
   -2.7691    3.2511   12.3497 C   0  0  0  0  0  0  0  0  0  0  0  0
   -3.8604    3.0288   11.5149 C   0  0  0  0  0  0  0  0  0  0  0  0
   -3.6989    2.6621   10.5106 H   0  0  0  0  0  0  0  0  0  0  0  0
   -5.1449    3.2642   11.9696 C   0  0  0  0  0  0  0  0  0  0  0  0
   -5.9862    3.0785   11.3184 H   0  0  0  0  0  0  0  0  0  0  0  0
   -5.3516    3.7369   13.2548 C   0  0  0  0  0  0  0  0  0  0  0  0
   -6.3552    3.9159   13.6102 H   0  0  0  0  0  0  0  0  0  0  0  0
   -4.2684    3.9874   14.0814 C   0  0  0  0  0  0  0  0  0  0  0  0
   -4.4251    4.3653   15.0804 H   0  0  0  0  0  0  0  0  0  0  0  0
   -2.9821    3.7602   13.6287 C   0  0  0  0  0  0  0  0  0  0  0  0
   -2.1437    3.9703   14.2773 H   0  0  0  0  0  0  0  0  0  0  0  0
   -1.2561    1.7624   10.4691 C   0  0  0  0  0  0  0  0  0  0  0  0
   -1.8558    0.5483   10.7963 C   0  0  0  0  0  0  0  0  0  0  0  0
   -2.2312    0.3734   11.7945 H   0  0  0  0  0  0  0  0  0  0  0  0
   -1.9694   -0.4362    9.8327 C   0  0  0  0  0  0  0  0  0  0  0  0
   -2.4238   -1.3823   10.0867 H   0  0  0  0  0  0  0  0  0  0  0  0
   -1.5018   -0.2134    8.5467 C   0  0  0  0  0  0  0  0  0  0  0  0
   -1.5914   -0.9893    7.8009 H   0  0  0  0  0  0  0  0  0  0  0  0
   -0.9191    0.9992    8.2175 C   0  0  0  0  0  0  0  0  0  0  0  0
   -0.5556    1.1720    7.2157 H   0  0  0  0  0  0  0  0  0  0  0  0
   -0.7950    1.9874    9.1771 C   0  0  0  0  0  0  0  0  0  0  0  0
   -0.3269    2.9348    8.9444 H   0  0  0  0  0  0  0  0  0  0  0  0
   -0.3033    2.0781   13.1001 C   0  0  0  0  0  0  0  0  0  0  0  0
    0.5039    2.9212   14.1156 C   0  0  0  0  0  0  0  0  0  0  0  0
   -1.5943    6.0978   10.3647 C   0  0  1  0  0  0  0  0  0  0  0  0
   -2.4891    5.4799   10.2661 H   0  0  0  0  0  0  0  0  0  0  0  0
   -1.2562    6.5269   11.6617 C   0  0  0  0  0  3  0  0  0  0  0  0
   -1.8878    6.1724   12.4745 H   0  0  0  0  0  0  0  0  0  0  0  0
   -0.5737    7.8515   11.9382 C   0  0  0  0  0  0  0  0  0  0  0  0
   -0.8709    8.5736   11.1770 H   0  0  0  0  0  0  0  0  0  0  0  0
   -0.9171    8.2354   12.8995 H   0  0  0  0  0  0  0  0  0  0  0  0
    0.9606    7.7126   11.9829 C   0  0  0  0  0  0  0  0  0  0  0  0
    1.4341    8.6575   11.6974 H   0  0  0  0  0  0  0  0  0  0  0  0
    1.2640    7.4927   13.0072 H   0  0  0  0  0  0  0  0  0  0  0  0
    1.4855    6.6038   11.1012 C   0  0  0  0  0  3  0  0  0  0  0  0
    2.4383    6.1934   11.4297 H   0  0  0  0  0  0  0  0  0  0  0  0
    1.1200    6.4019    9.7763 C   0  0  0  0  0  3  0  0  0  0  0  0
    1.8012    5.8265    9.1536 H   0  0  0  0  0  0  0  0  0  0  0  0
    0.1895    7.3283    9.0206 C   0  0  0  0  0  0  0  0  0  0  0  0
    0.3017    8.3387    9.4143 H   0  0  0  0  0  0  0  0  0  0  0  0
    0.4890    7.3541    7.9720 H   0  0  0  0  0  0  0  0  0  0  0  0
   -1.2825    6.8794    9.1057 C   0  0  0  0  0  0  0  0  0  0  0  0
   -1.5079    6.2376    8.2522 H   0  0  0  0  0  0  0  0  0  0  0  0
   -1.9461    7.7477    9.0406 H   0  0  0  0  0  0  0  0  0  0  0  0
  3  9  1  0  0  0  0
  3 31  1  0  0  0  0
  5 31  1  0  0  0  0
  7 32  1  0  0  0  0
  8 32  1  0  0  0  0
  9 18  1  0  0  0  0
 10 12  1  0  0  0  0
 10  9  2  0  0  0  0
 11 10  1  0  0  0  0
 12 14  2  0  0  0  0
 13 12  1  0  0  0  0
 14 15  1  0  0  0  0
 14 16  1  0  0  0  0
 16 17  1  0  0  0  0
 18 16  2  0  0  0  0
 18 19  1  0  0  0  0
 20 21  1  0  0  0  0
 20  3  1  0  0  0  0
 21 22  1  0  0  0  0
 23 24  1  0  0  0  0
 23 21  2  0  0  0  0
 25 23  1  0  0  0  0
 26 25  1  0  0  0  0
 27 25  2  0  0  0  0
 27 29  1  0  0  0  0
 28 27  1  0  0  0  0
 29 20  2  0  0  0  0
 30 29  1  0  0  0  0
 31  4  1  0  0  0  0
 31 32  1  0  0  0  0
 32  6  1  0  0  0  0
 33 34  1  6  0  0  0
 33  1  1  0  0  0  0
 33 35  1  0  0  0  0
 35 37  1  0  0  0  0
 35 36  1  0  0  0  0
 37 40  1  0  0  0  0
 37 39  1  0  0  0  0
 38 37  1  0  0  0  0
 40 42  1  0  0  0  0
 41 40  1  0  0  0  0
 43 44  1  0  0  0  0
 43 40  1  0  0  0  0
 45 43  1  0  0  0  0
 46 45  1  0  0  0  0
 47 50  1  0  0  0  0
 47 48  1  0  0  0  0
 47 45  1  0  0  0  0
 49 47  1  0  0  0  0
 50 33  1  0  0  0  0
 51 50  1  0  0  0  0
 52 50  1  0  0  0  0
M  END
$$$$
