CSD_code = QAHWIH | q = 0 | S = 0 | Stoichiometry = C8H8Br2HgN2S2 | MND = 4
 OpenBabel04212202083D

 23 24  0  0  1  0  0  0  0  0999 V2000
    6.6372    8.6814    8.3860 Hg  0  0  0  0  0  0  0  0  0  0  0  0
    7.6518    6.8360    9.6032 Br  0  0  0  0  0  0  0  0  0  0  0  0
    4.9547   10.3103    7.7266 Br  0  0  0  0  0  0  0  0  0  0  0  0
   10.7842   11.4686    7.9499 S   0  0  0  0  0  0  0  0  0  0  0  0
    8.0000    7.6323    3.6945 S   0  0  0  0  0  0  0  0  0  0  0  0
    8.7072    9.9988    7.9667 N   0  0  0  0  0  0  0  0  0  0  0  0
    7.5194    8.2572    6.1125 N   0  0  0  0  0  0  0  0  0  0  0  0
    9.3732   10.8107    8.7205 C   0  0  0  0  0  0  0  0  0  0  0  0
   10.4061   10.5697    6.5414 C   0  0  0  0  0  0  0  0  0  0  0  0
   11.0323   10.6227    5.6754 H   0  0  0  0  0  0  0  0  0  0  0  0
    9.2661    9.8412    6.7273 C   0  0  0  0  0  0  0  0  0  0  0  0
    7.0633    7.5221    5.1508 C   0  0  1  0  0  3  0  0  0  0  0  0
    9.0452    8.7418    4.4759 C   0  0  0  0  0  0  0  0  0  0  0  0
    9.8807    9.1640    3.9576 H   0  0  0  0  0  0  0  0  0  0  0  0
    8.6383    8.9610    5.7614 C   0  0  0  0  0  0  0  0  0  0  0  0
    8.9931   11.1872   10.0991 C   0  0  0  0  0  0  0  0  0  0  0  0
    8.3801   10.4027   10.5448 H   0  0  0  0  0  0  0  0  0  0  0  0
    8.4115   12.1103   10.0850 H   0  0  0  0  0  0  0  0  0  0  0  0
    9.8767   11.3477   10.7119 H   0  0  0  0  0  0  0  0  0  0  0  0
    5.8552    6.6740    5.2464 C   0  0  0  0  0  0  0  0  0  0  0  0
    5.9025    6.0562    6.1444 H   0  0  0  0  0  0  0  0  0  0  0  0
    5.7634    6.0343    4.3732 H   0  0  0  0  0  0  0  0  0  0  0  0
    4.9670    7.3049    5.3179 H   0  0  0  0  0  0  0  0  0  0  0  0
  1  2  1  0  0  0  0
  3  1  1  0  0  0  0
  4  8  1  0  0  0  0
  5 13  1  0  0  0  0
  5 12  1  0  0  0  0
  6  8  2  0  0  0  0
  7  1  1  0  0  0  0
  8 16  1  0  0  0  0
  9 11  2  0  0  0  0
  9  4  1  0  0  0  0
 10  9  1  0  0  0  0
 11  6  1  0  0  0  0
 12 20  1  6  0  0  0
 12  7  1  0  0  0  0
 13 15  2  0  0  0  0
 14 13  1  0  0  0  0
 15  7  1  0  0  0  0
 15 11  1  0  0  0  0
 16 17  1  0  0  0  0
 16 19  1  0  0  0  0
 18 16  1  0  0  0  0
 20 23  1  0  0  0  0
 20 21  1  0  0  0  0
 22 20  1  0  0  0  0
M  END
$$$$
