CSD_code = QAHWII | q = 0 | S = 0 | Stoichiometry = C12H14ClN5ORuS2 | MND = 6
 OpenBabel04212202083D

 36 39  0  0  1  0  0  0  0  0999 V2000
    1.2113    1.8720   13.6087 Ru  0  0  0  0  0  0  0  0  0  0  0  0
    3.5783    2.7443   13.6162 S   0  0  0  0  0  0  0  0  0  0  0  0
   -1.0810    0.8183   13.5649 S   0  0  0  0  0  0  0  0  0  0  0  0
    0.5792    3.3843   13.9327 N   0  0  0  0  0  2  0  0  0  0  0  0
    1.9060    2.3765   11.7347 N   0  0  0  0  0  0  0  0  0  0  0  0
    4.0819    2.9197   10.9883 N   0  0  0  0  0  0  0  0  0  0  0  0
    0.6462    1.0607   15.4170 N   0  0  0  0  0  0  0  0  0  0  0  0
   -1.1771   -0.3314   15.9856 N   0  0  0  0  0  0  0  0  0  0  0  0
    0.1366    4.4319   14.1561 O   0  0  0  0  0  1  0  0  0  0  0  0
    2.0535   -0.1528   13.1734 Cl  0  0  0  0  0  0  0  0  0  0  0  0
    3.2057    2.6896   11.9457 C   0  0  2  0  0  3  0  0  0  0  0  0
    1.4619    2.2419   10.4860 C   0  0  0  0  0  0  0  0  0  0  0  0
    2.3403    2.4739    9.4366 C   0  0  0  0  0  0  0  0  0  0  0  0
    2.0101    2.3810    8.4152 H   0  0  0  0  0  0  0  0  0  0  0  0
    3.6627    2.8170    9.7355 C   0  0  0  0  0  0  0  0  0  0  0  0
    0.0413    1.8398   10.3074 C   0  0  0  0  0  0  0  0  0  0  0  0
   -0.0946    0.8264   10.6895 H   0  0  0  0  0  0  0  0  0  0  0  0
   -0.2500    1.8710    9.2622 H   0  0  0  0  0  0  0  0  0  0  0  0
   -0.6083    2.4910   10.8935 H   0  0  0  0  0  0  0  0  0  0  0  0
    4.6665    3.0678    8.6643 C   0  0  0  0  0  0  0  0  0  0  0  0
    5.6005    3.3935    9.1107 H   0  0  0  0  0  0  0  0  0  0  0  0
    4.3019    3.8262    7.9744 H   0  0  0  0  0  0  0  0  0  0  0  0
    4.8385    2.1533    8.0986 H   0  0  0  0  0  0  0  0  0  0  0  0
   -0.5320    0.4519   15.1453 C   0  0  2  0  0  3  0  0  0  0  0  0
    1.2435    0.8327   16.5851 C   0  0  0  0  0  0  0  0  0  0  0  0
    0.6082    0.0170   17.5120 C   0  0  0  0  0  0  0  0  0  0  0  0
    1.0626   -0.1800   18.4688 H   0  0  0  0  0  0  0  0  0  0  0  0
   -0.6229   -0.5504   17.1700 C   0  0  0  0  0  0  0  0  0  0  0  0
    2.5686    1.4692   16.8095 C   0  0  0  0  0  0  0  0  0  0  0  0
    3.2939    1.0382   16.1169 H   0  0  0  0  0  0  0  0  0  0  0  0
    2.9124    1.3186   17.8281 H   0  0  0  0  0  0  0  0  0  0  0  0
    2.5134    2.5361   16.5899 H   0  0  0  0  0  0  0  0  0  0  0  0
   -1.3768   -1.4197   18.1154 C   0  0  0  0  0  0  0  0  0  0  0  0
   -1.9273   -0.7930   18.8169 H   0  0  0  0  0  0  0  0  0  0  0  0
   -0.7003   -2.0540   18.6829 H   0  0  0  0  0  0  0  0  0  0  0  0
   -2.0903   -2.0248   17.5641 H   0  0  0  0  0  0  0  0  0  0  0  0
  1  2  1  0  0  0  0
  1  4  1  0  0  0  0
  1  7  1  0  0  0  0
  3  1  1  0  0  0  0
  4  9  1  0  0  0  0
  5 11  1  0  0  0  0
  5  1  1  0  0  0  0
  7 25  1  0  0  0  0
  8 28  2  0  0  0  0
 10  1  1  0  0  0  0
 11  6  1  6  0  0  0
 11  2  1  0  0  0  0
 12  5  1  0  0  0  0
 13 15  1  0  0  0  0
 13 12  2  0  0  0  0
 14 13  1  0  0  0  0
 15  6  2  0  0  0  0
 16 12  1  0  0  0  0
 16 17  1  0  0  0  0
 16 19  1  0  0  0  0
 18 16  1  0  0  0  0
 20 21  1  0  0  0  0
 20 15  1  0  0  0  0
 22 20  1  0  0  0  0
 23 20  1  0  0  0  0
 24  3  1  6  0  0  0
 24  7  1  0  0  0  0
 24  8  1  0  0  0  0
 25 29  1  0  0  0  0
 25 26  2  0  0  0  0
 26 27  1  0  0  0  0
 28 26  1  0  0  0  0
 28 33  1  0  0  0  0
 29 31  1  0  0  0  0
 30 29  1  0  0  0  0
 32 29  1  0  0  0  0
 33 35  1  0  0  0  0
 33 34  1  0  0  0  0
 36 33  1  0  0  0  0
M  END
$$$$
