CSD_code = QAHZAC | q = 0 | S = 0 | Stoichiometry = C12H8Br2N4Zn | MND = 4
 OpenBabel04212202083D

 27 28  0  0  0  0  0  0  0  0999 V2000
    4.5645   -0.5519    9.5775 C   0  0  0  0  0  3  0  0  0  0  0  0
    3.9502   -1.2622    9.0405 H   0  0  0  0  0  0  0  0  0  0  0  0
    5.8625   -0.8865    9.9601 C   0  0  0  0  0  0  0  0  0  0  0  0
    6.4030   -2.1516    9.6211 C   0  0  0  0  0  0  0  0  0  0  0  0
    6.6180    0.0476   10.6717 C   0  0  0  0  0  0  0  0  0  0  0  0
    7.6237   -0.1896   10.9850 H   0  0  0  0  0  0  0  0  0  0  0  0
    6.0394    1.2702   10.9595 C   0  0  0  0  0  0  0  0  0  0  0  0
    6.5778    2.0256   11.5084 H   0  0  0  0  0  0  0  0  0  0  0  0
    4.7449    1.5187   10.5317 C   0  0  0  0  0  0  0  0  0  0  0  0
    4.2641    2.4641   10.7420 H   0  0  0  0  0  0  0  0  0  0  0  0
    2.9516    2.8744    6.9208 C   0  0  0  0  0  3  0  0  0  0  0  0
    3.0186    3.5557    7.7586 H   0  0  0  0  0  0  0  0  0  0  0  0
    3.3002    3.2940    5.6380 C   0  0  0  0  0  0  0  0  0  0  0  0
    3.7780    4.6107    5.4239 C   0  0  0  0  0  0  0  0  0  0  0  0
    3.1778    2.3941    4.5774 C   0  0  0  0  0  0  0  0  0  0  0  0
    3.4338    2.6969    3.5731 H   0  0  0  0  0  0  0  0  0  0  0  0
    2.7206    1.1187    4.8547 C   0  0  0  0  0  0  0  0  0  0  0  0
    2.6050    0.3862    4.0725 H   0  0  0  0  0  0  0  0  0  0  0  0
    2.4065    0.7868    6.1630 C   0  0  0  0  0  0  0  0  0  0  0  0
    2.0462   -0.2019    6.4118 H   0  0  0  0  0  0  0  0  0  0  0  0
    4.0242    0.6260    9.8572 N   0  0  0  0  0  0  0  0  0  0  0  0
    6.8571   -3.1645    9.3418 N   0  0  0  0  0  0  0  0  0  0  0  0
    2.5176    1.6473    7.1723 N   0  0  0  0  0  0  0  0  0  0  0  0
    4.1781    5.6668    5.2393 N   0  0  0  0  0  0  0  0  0  0  0  0
    1.9354    1.0698    9.2406 Zn  0  0  0  0  0  0  0  0  0  0  0  0
    1.0837   -1.0946    8.8891 Br  0  0  0  0  0  0  0  0  0  0  0  0
    1.5992    3.1757   10.2332 Br  0  0  0  0  0  0  0  0  0  0  0  0
  1 21  1  0  0  0  0
  1  3  1  0  0  0  0
  2  1  1  0  0  0  0
  3  5  2  0  0  0  0
  4  3  1  0  0  0  0
  5  7  1  0  0  0  0
  5  6  1  0  0  0  0
  7  8  1  0  0  0  0
  9 10  1  0  0  0  0
  9  7  2  0  0  0  0
 11 23  1  0  0  0  0
 11 12  1  0  0  0  0
 13 11  1  0  0  0  0
 14 13  1  0  0  0  0
 15 17  1  0  0  0  0
 15 13  2  0  0  0  0
 16 15  1  0  0  0  0
 17 19  2  0  0  0  0
 18 17  1  0  0  0  0
 19 20  1  0  0  0  0
 19 23  1  0  0  0  0
 21  9  1  0  0  0  0
 22  4  3  0  0  0  0
 23 25  1  0  0  0  0
 24 14  3  0  0  0  0
 25 21  1  0  0  0  0
 25 27  1  0  0  0  0
 26 25  1  0  0  0  0
M  END
$$$$
