CSD_code = QAJBOS | q = 0 | S = 0 | Stoichiometry = C15H32ClIrNO2P | MND = 6
 OpenBabel04212202083D

 53 53  0  0  0  0  0  0  0  0999 V2000
    0.6292    2.7771    3.2721 Ir  0  0  0  0  0  0  0  0  0  0  0  0
    1.7363    1.4332    1.8093 Cl  0  0  0  0  0  0  0  0  0  0  0  0
   -1.0414    2.6987    1.9254 O   0  0  0  0  0  0  0  0  0  0  0  0
   -1.1044    1.1206    3.4364 O   0  0  0  0  0  0  0  0  0  0  0  0
   -1.5358    1.6347    2.3866 C   0  0  0  0  0  3  0  0  0  0  0  0
   -2.6811    0.9937    1.6337 C   0  0  0  0  0  0  0  0  0  0  0  0
    1.5455    4.4772    2.4278 C   0  0  0  0  0  0  0  0  0  0  0  0
    0.5108    5.4365    1.8698 C   0  0  0  0  0  0  0  0  0  0  0  0
   -0.4716    3.7828    4.4236 N   0  0  0  0  0  2  0  0  0  0  0  0
   -1.4223    4.1725    4.9485 C   0  0  0  0  0  2  0  0  0  0  0  0
   -2.5763    4.6819    5.6278 C   0  0  0  0  0  0  0  0  0  0  0  0
    2.2684    2.2745    4.8585 P   0  0  0  0  0  4  0  0  0  0  0  0
    2.3198    3.4138    6.3521 C   0  0  0  0  0  0  0  0  0  0  0  0
    2.4088    4.8882    5.9692 C   0  0  0  0  0  0  0  0  0  0  0  0
    3.3699    3.0699    7.4033 C   0  0  0  0  0  0  0  0  0  0  0  0
    1.7993    0.6524    5.6530 C   0  0  0  0  0  0  0  0  0  0  0  0
    1.6898   -0.4355    4.5875 C   0  0  0  0  0  0  0  0  0  0  0  0
    0.4715    0.7449    6.4013 C   0  0  0  0  0  0  0  0  0  0  0  0
    4.0005    1.9571    4.2230 C   0  0  0  0  0  0  0  0  0  0  0  0
    4.7341    3.2642    3.9337 C   0  0  0  0  0  0  0  0  0  0  0  0
    4.8823    1.0243    5.0509 C   0  0  0  0  0  0  0  0  0  0  0  0
   -2.2602    0.3357    0.8752 H   0  0  0  0  0  0  0  0  0  0  0  0
   -3.2770    1.7570    1.1406 H   0  0  0  0  0  0  0  0  0  0  0  0
   -3.2896    0.4034    2.3138 H   0  0  0  0  0  0  0  0  0  0  0  0
    2.1870    5.0090    3.1322 H   0  0  0  0  0  0  0  0  0  0  0  0
    2.1647    4.1052    1.6099 H   0  0  0  0  0  0  0  0  0  0  0  0
   -0.1822    4.9179    1.2130 H   0  0  0  0  0  0  0  0  0  0  0  0
    1.0126    6.2109    1.2862 H   0  0  0  0  0  0  0  0  0  0  0  0
   -0.0527    5.9243    2.6634 H   0  0  0  0  0  0  0  0  0  0  0  0
   -2.2802    5.1564    6.5637 H   0  0  0  0  0  0  0  0  0  0  0  0
   -3.2639    3.8630    5.8410 H   0  0  0  0  0  0  0  0  0  0  0  0
   -3.0797    5.4146    4.9964 H   0  0  0  0  0  0  0  0  0  0  0  0
    1.3265    3.2656    6.7931 H   0  0  0  0  0  0  0  0  0  0  0  0
    2.2874    5.5040    6.8599 H   0  0  0  0  0  0  0  0  0  0  0  0
    1.6204    5.1420    5.2662 H   0  0  0  0  0  0  0  0  0  0  0  0
    3.3684    5.1290    5.5228 H   0  0  0  0  0  0  0  0  0  0  0  0
    4.3688    3.3044    7.0462 H   0  0  0  0  0  0  0  0  0  0  0  0
    3.3310    2.0211    7.6849 H   0  0  0  0  0  0  0  0  0  0  0  0
    3.1924    3.6631    8.3001 H   0  0  0  0  0  0  0  0  0  0  0  0
    2.5952    0.3951    6.3625 H   0  0  0  0  0  0  0  0  0  0  0  0
    1.5866   -1.4121    5.0593 H   0  0  0  0  0  0  0  0  0  0  0  0
    2.5529   -0.4553    3.9272 H   0  0  0  0  0  0  0  0  0  0  0  0
    0.8077   -0.2586    3.9774 H   0  0  0  0  0  0  0  0  0  0  0  0
   -0.3093    1.0928    5.7289 H   0  0  0  0  0  0  0  0  0  0  0  0
    0.5242    1.4017    7.2670 H   0  0  0  0  0  0  0  0  0  0  0  0
    0.1894   -0.2466    6.7527 H   0  0  0  0  0  0  0  0  0  0  0  0
    3.7958    1.4771    3.2574 H   0  0  0  0  0  0  0  0  0  0  0  0
    5.0510    3.7541    4.8517 H   0  0  0  0  0  0  0  0  0  0  0  0
    4.0991    3.9367    3.3652 H   0  0  0  0  0  0  0  0  0  0  0  0
    5.6241    3.0576    3.3418 H   0  0  0  0  0  0  0  0  0  0  0  0
    5.8316    0.9018    4.5309 H   0  0  0  0  0  0  0  0  0  0  0  0
    4.4419    0.0383    5.1615 H   0  0  0  0  0  0  0  0  0  0  0  0
    5.0948    1.4276    6.0367 H   0  0  0  0  0  0  0  0  0  0  0  0
  1  4  1  0  0  0  0
  1  9  1  0  0  0  0
  1 12  1  0  0  0  0
  2  1  1  0  0  0  0
  3  5  1  0  0  0  0
  3  1  1  0  0  0  0
  5  4  1  0  0  0  0
  6 24  1  0  0  0  0
  6  5  1  0  0  0  0
  7 25  1  0  0  0  0
  7  1  1  0  0  0  0
  8  7  1  0  0  0  0
  8 29  1  0  0  0  0
  9 10  1  0  0  0  0
 10 11  1  0  0  0  0
 11 31  1  0  0  0  0
 11 30  1  0  0  0  0
 12 16  1  0  0  0  0
 12 13  1  0  0  0  0
 13 33  1  0  0  0  0
 13 15  1  0  0  0  0
 14 13  1  0  0  0  0
 14 34  1  0  0  0  0
 15 38  1  0  0  0  0
 15 39  1  0  0  0  0
 16 40  1  0  0  0  0
 16 18  1  0  0  0  0
 17 41  1  0  0  0  0
 17 16  1  0  0  0  0
 18 46  1  0  0  0  0
 18 45  1  0  0  0  0
 19 12  1  0  0  0  0
 19 21  1  0  0  0  0
 20 19  1  0  0  0  0
 20 48  1  0  0  0  0
 21 52  1  0  0  0  0
 21 53  1  0  0  0  0
 22  6  1  0  0  0  0
 23  6  1  0  0  0  0
 26  7  1  0  0  0  0
 27  8  1  0  0  0  0
 28  8  1  0  0  0  0
 32 11  1  0  0  0  0
 35 14  1  0  0  0  0
 36 14  1  0  0  0  0
 37 15  1  0  0  0  0
 42 17  1  0  0  0  0
 43 17  1  0  0  0  0
 44 18  1  0  0  0  0
 47 19  1  0  0  0  0
 49 20  1  0  0  0  0
 50 20  1  0  0  0  0
 51 21  1  0  0  0  0
M  END
$$$$
