CSD_code = QAJFIS | q = 0 | S = 0 | Stoichiometry = C17H11BrN3O4Re | MND = 6
 OpenBabel04212202083D

 37 40  0  0  1  0  0  0  0  0999 V2000
    3.6425    8.6743    3.1247 C   0  0  0  0  0  2  0  0  0  0  0  0
    3.6215    7.7397    5.8082 C   0  0  0  0  0  2  0  0  0  0  0  0
    1.2721    8.7939    4.6594 C   0  0  0  0  0  2  0  0  0  0  0  0
    0.3367    5.7773    5.7612 C   0  0  0  0  0  3  0  0  0  0  0  0
    0.0114    6.7591    6.0790 H   0  0  0  0  0  0  0  0  0  0  0  0
   -0.4058    4.6503    6.0672 C   0  0  0  0  0  0  0  0  0  0  0  0
   -1.3206    4.7501    6.6281 H   0  0  0  0  0  0  0  0  0  0  0  0
    0.0373    3.4051    5.6370 C   0  0  0  0  0  0  0  0  0  0  0  0
   -0.5273    2.5122    5.8546 H   0  0  0  0  0  0  0  0  0  0  0  0
    1.2140    3.3345    4.9181 C   0  0  0  0  0  0  0  0  0  0  0  0
    1.6075    2.4006    4.5499 H   0  0  0  0  0  0  0  0  0  0  0  0
    1.8986    4.5173    4.6513 C   0  0  0  0  0  0  0  0  0  0  0  0
    3.1168    4.5820    3.8975 C   0  0  1  0  0  3  0  0  0  0  0  0
    4.8727    4.1884    2.7894 C   0  0  0  0  0  0  0  0  0  0  0  0
    5.8945    3.4567    2.0908 C   0  0  0  0  0  0  0  0  0  0  0  0
    5.8474    2.0642    2.0047 C   0  0  0  0  0  0  0  0  0  0  0  0
    5.0343    1.5255    2.4681 H   0  0  0  0  0  0  0  0  0  0  0  0
    6.8377    1.3873    1.3263 C   0  0  0  0  0  0  0  0  0  0  0  0
    6.7998    0.3098    1.2591 H   0  0  0  0  0  0  0  0  0  0  0  0
    7.8898    2.0725    0.7216 C   0  0  0  0  0  0  0  0  0  0  0  0
    7.9258    3.4610    0.8128 C   0  0  0  0  0  0  0  0  0  0  0  0
    8.7344    4.0038    0.3462 H   0  0  0  0  0  0  0  0  0  0  0  0
    6.9430    4.1538    1.4880 C   0  0  0  0  0  0  0  0  0  0  0  0
    6.9631    5.2295    1.5601 H   0  0  0  0  0  0  0  0  0  0  0  0
    8.9555    1.3160   -0.0042 C   0  0  0  0  0  0  0  0  0  0  0  0
    9.6603    1.9914   -0.4811 H   0  0  0  0  0  0  0  0  0  0  0  0
    8.5141    0.6738   -0.7647 H   0  0  0  0  0  0  0  0  0  0  0  0
    9.5009    0.6774    0.6902 H   0  0  0  0  0  0  0  0  0  0  0  0
    1.4675    5.7294    5.0652 N   0  0  0  0  0  0  0  0  0  0  0  0
    3.7005    5.7328    3.6389 N   0  0  0  0  0  0  0  0  0  0  0  0
    4.8090    5.4806    2.9425 N   0  0  0  0  0  0  0  0  0  0  0  0
    4.2471    9.3306    2.4143 O   0  0  0  0  0  1  0  0  0  0  0  0
    4.2270    7.9030    6.7676 O   0  0  0  0  0  1  0  0  0  0  0  0
    0.4357    9.5406    4.8902 O   0  0  0  0  0  1  0  0  0  0  0  0
    3.8222    3.5643    3.3867 O   0  0  0  0  0  0  0  0  0  0  0  0
    1.1617    6.8491    2.1367 Br  0  0  0  0  0  0  0  0  0  0  0  0
    2.5841    7.4277    4.1969 Re  0  0  0  0  0  0  0  0  0  0  0  0
  1 37  1  0  0  0  0
  2 33  1  0  0  0  0
  3 34  1  0  0  0  0
  4  6  1  0  0  0  0
  4  5  1  0  0  0  0
  6  7  1  0  0  0  0
  8  9  1  0  0  0  0
  8  6  2  0  0  0  0
 10  8  1  0  0  0  0
 11 10  1  0  0  0  0
 12 10  2  0  0  0  0
 12 29  1  0  0  0  0
 13 35  1  1  0  0  0
 13 12  1  0  0  0  0
 14 31  2  0  0  0  0
 14 35  1  0  0  0  0
 15 14  1  0  0  0  0
 16 15  1  0  0  0  0
 16 17  1  0  0  0  0
 18 16  2  0  0  0  0
 19 18  1  0  0  0  0
 20 21  2  0  0  0  0
 20 18  1  0  0  0  0
 21 23  1  0  0  0  0
 22 21  1  0  0  0  0
 23 24  1  0  0  0  0
 23 15  2  0  0  0  0
 25 28  1  0  0  0  0
 25 20  1  0  0  0  0
 26 25  1  0  0  0  0
 27 25  1  0  0  0  0
 29  4  1  0  0  0  0
 30 13  1  0  0  0  0
 30 37  1  0  0  0  0
 31 30  1  0  0  0  0
 32  1  1  0  0  0  0
 36 37  1  0  0  0  0
 37  3  1  0  0  0  0
 37 29  1  0  0  0  0
 37  2  1  0  0  0  0
M  END
$$$$
