CSD_code = QAJGIS | q = 0 | S = 0 | Stoichiometry = C25H36Cl2N2O2Zr | MND = 6
 OpenBabel04212202083D

 68 70  0  0  1  0  0  0  0  0999 V2000
    8.5957    2.0429    3.5463 C   0  0  0  0  0  0  0  0  0  0  0  0
    7.5937    1.0605    3.4023 C   0  0  0  0  0  0  0  0  0  0  0  0
    6.5942    1.3152    3.7535 H   0  0  0  0  0  0  0  0  0  0  0  0
    7.8849   -0.1996    2.9218 C   0  0  0  0  0  0  0  0  0  0  0  0
    7.0984   -0.9371    2.8248 H   0  0  0  0  0  0  0  0  0  0  0  0
    9.1872   -0.5376    2.5869 C   0  0  0  0  0  0  0  0  0  0  0  0
    9.4169   -1.5218    2.2083 H   0  0  0  0  0  0  0  0  0  0  0  0
   10.1930    0.3994    2.7622 C   0  0  0  0  0  0  0  0  0  0  0  0
   11.2135    0.1409    2.5166 H   0  0  0  0  0  0  0  0  0  0  0  0
    9.9157    1.6634    3.2411 C   0  0  0  0  0  0  0  0  0  0  0  0
   10.7240    2.3718    3.3521 H   0  0  0  0  0  0  0  0  0  0  0  0
    9.0605    3.9982    4.9026 C   0  0  2  0  0  0  0  0  0  0  0  0
   10.1211    3.9197    4.6131 H   0  0  0  0  0  0  0  0  0  0  0  0
    8.8992    3.3616    6.2945 C   0  0  0  0  0  0  0  0  0  0  0  0
    7.8495    3.3956    6.5849 H   0  0  0  0  0  0  0  0  0  0  0  0
    9.4931    3.8908    7.0361 H   0  0  0  0  0  0  0  0  0  0  0  0
    9.2186    2.3214    6.2620 H   0  0  0  0  0  0  0  0  0  0  0  0
    8.6887    5.4867    4.9761 C   0  0  0  0  0  0  0  0  0  0  0  0
    9.4191    5.9826    5.6210 H   0  0  0  0  0  0  0  0  0  0  0  0
    7.6997    5.5865    5.4409 H   0  0  0  0  0  0  0  0  0  0  0  0
    8.6530    6.2078    3.6155 C   0  0  1  0  0  0  0  0  0  0  0  0
    8.7648    7.2865    3.8140 H   0  0  0  0  0  0  0  0  0  0  0  0
    9.8104    5.7864    2.6878 C   0  0  0  0  0  0  0  0  0  0  0  0
    9.6385    4.7676    2.3282 H   0  0  0  0  0  0  0  0  0  0  0  0
   10.7682    5.8446    3.2010 H   0  0  0  0  0  0  0  0  0  0  0  0
    9.8343    6.4510    1.8249 H   0  0  0  0  0  0  0  0  0  0  0  0
    6.9552    6.9781    2.0972 C   0  0  0  0  0  0  0  0  0  0  0  0
    6.8382    8.3093    2.5381 C   0  0  0  0  0  0  0  0  0  0  0  0
    7.0867    8.5562    3.5616 H   0  0  0  0  0  0  0  0  0  0  0  0
    6.3842    9.3023    1.6938 C   0  0  0  0  0  0  0  0  0  0  0  0
    6.2945   10.3141    2.0640 H   0  0  0  0  0  0  0  0  0  0  0  0
    6.0418    9.0155    0.3813 C   0  0  0  0  0  0  0  0  0  0  0  0
    5.6986    9.7990   -0.2775 H   0  0  0  0  0  0  0  0  0  0  0  0
    6.1593    7.7109   -0.0755 C   0  0  0  0  0  0  0  0  0  0  0  0
    5.9262    7.4814   -1.1068 H   0  0  0  0  0  0  0  0  0  0  0  0
    6.5999    6.7059    0.7627 C   0  0  0  0  0  0  0  0  0  0  0  0
    6.7284    5.6975    0.3865 H   0  0  0  0  0  0  0  0  0  0  0  0
    4.7181    1.3887    1.6695 C   0  0  0  0  0  0  0  0  0  0  0  0
    5.7312    1.0629    1.4244 H   0  0  0  0  0  0  0  0  0  0  0  0
    4.2725    1.8472    0.7769 H   0  0  0  0  0  0  0  0  0  0  0  0
    3.8329    0.2684    2.2023 C   0  0  0  0  0  0  0  0  0  0  0  0
    4.4114   -0.4080    2.8322 H   0  0  0  0  0  0  0  0  0  0  0  0
    3.3674   -0.3018    1.4026 H   0  0  0  0  0  0  0  0  0  0  0  0
    2.8367    1.0542    3.0476 C   0  0  0  0  0  0  0  0  0  0  0  0
    2.0795    1.5134    2.4100 H   0  0  0  0  0  0  0  0  0  0  0  0
    2.3406    0.4514    3.8040 H   0  0  0  0  0  0  0  0  0  0  0  0
    3.7416    2.1156    3.6664 C   0  0  0  0  0  0  0  0  0  0  0  0
    3.2206    3.0506    3.8906 H   0  0  0  0  0  0  0  0  0  0  0  0
    4.1952    1.7489    4.5965 H   0  0  0  0  0  0  0  0  0  0  0  0
    3.8551    4.8196    1.1488 C   0  0  0  0  0  0  0  0  0  0  0  0
    3.0747    4.0946    1.4261 H   0  0  0  0  0  0  0  0  0  0  0  0
    4.5089    4.3886    0.3856 H   0  0  0  0  0  0  0  0  0  0  0  0
    3.2088    6.1486    0.7295 C   0  0  0  0  0  0  0  0  0  0  0  0
    2.1755    5.9989    0.4218 H   0  0  0  0  0  0  0  0  0  0  0  0
    3.7539    6.5997   -0.0962 H   0  0  0  0  0  0  0  0  0  0  0  0
    3.3180    7.0261    1.9874 C   0  0  0  0  0  0  0  0  0  0  0  0
    3.9779    7.8720    1.8044 H   0  0  0  0  0  0  0  0  0  0  0  0
    2.3519    7.4030    2.3159 H   0  0  0  0  0  0  0  0  0  0  0  0
    3.9335    6.0904    3.0331 C   0  0  0  0  0  0  0  0  0  0  0  0
    4.6325    6.5893    3.7096 H   0  0  0  0  0  0  0  0  0  0  0  0
    3.1508    5.5961    3.6276 H   0  0  0  0  0  0  0  0  0  0  0  0
    7.0616    3.2585    0.8621 Cl  0  0  0  0  0  0  0  0  0  0  0  0
    5.4120    4.2628    5.1256 Cl  0  0  0  0  0  0  0  0  0  0  0  0
    8.1995    3.2897    3.9705 N   0  0  0  0  0  0  0  0  0  0  0  0
    7.4007    5.9567    2.9165 N   0  0  0  0  0  0  0  0  0  0  0  0
    4.7886    2.3816    2.7124 O   0  0  0  0  0  0  0  0  0  0  0  0
    4.6588    5.1094    2.2912 O   0  0  0  0  0  0  0  0  0  0  0  0
    6.5969    4.0982    3.0408 Zr  0  0  0  0  0  0  0  0  0  0  0  0
  1 64  1  0  0  0  0
  2  1  1  0  0  0  0
  2  3  1  0  0  0  0
  4  2  2  0  0  0  0
  5  4  1  0  0  0  0
  6  8  2  0  0  0  0
  6  4  1  0  0  0  0
  7  6  1  0  0  0  0
  8 10  1  0  0  0  0
  9  8  1  0  0  0  0
 10 11  1  0  0  0  0
 10  1  2  0  0  0  0
 12 13  1  6  0  0  0
 12 18  1  0  0  0  0
 12 14  1  0  0  0  0
 14 15  1  0  0  0  0
 14 16  1  0  0  0  0
 17 14  1  0  0  0  0
 18 20  1  0  0  0  0
 18 19  1  0  0  0  0
 21 22  1  1  0  0  0
 21 18  1  0  0  0  0
 23 25  1  0  0  0  0
 23 21  1  0  0  0  0
 24 23  1  0  0  0  0
 26 23  1  0  0  0  0
 27 28  1  0  0  0  0
 27 65  1  0  0  0  0
 28 29  1  0  0  0  0
 30 31  1  0  0  0  0
 30 28  2  0  0  0  0
 32 30  1  0  0  0  0
 33 32  1  0  0  0  0
 34 32  2  0  0  0  0
 34 36  1  0  0  0  0
 35 34  1  0  0  0  0
 36 27  2  0  0  0  0
 37 36  1  0  0  0  0
 38 41  1  0  0  0  0
 38 66  1  0  0  0  0
 39 38  1  0  0  0  0
 40 38  1  0  0  0  0
 41 42  1  0  0  0  0
 41 44  1  0  0  0  0
 43 41  1  0  0  0  0
 44 47  1  0  0  0  0
 44 46  1  0  0  0  0
 45 44  1  0  0  0  0
 47 48  1  0  0  0  0
 47 49  1  0  0  0  0
 50 51  1  0  0  0  0
 50 67  1  0  0  0  0
 52 50  1  0  0  0  0
 53 50  1  0  0  0  0
 53 56  1  0  0  0  0
 54 53  1  0  0  0  0
 55 53  1  0  0  0  0
 56 58  1  0  0  0  0
 56 59  1  0  0  0  0
 57 56  1  0  0  0  0
 59 61  1  0  0  0  0
 59 60  1  0  0  0  0
 62 68  1  0  0  0  0
 64 12  1  0  0  0  0
 65 68  1  0  0  0  0
 65 21  1  0  0  0  0
 66 47  1  0  0  0  0
 67 59  1  0  0  0  0
 68 64  1  0  0  0  0
 68 63  1  0  0  0  0
M  END
$$$$
