CSD_code = QAJGOY | q = 0 | S = 0 | Stoichiometry = C20H16Cl2Zr | MND = 12
 OpenBabel04212202083D

 39 43  0  0  1  0  0  0  0  0999 V2000
    4.6463    3.9217    5.2688 C   0  0  0  0  0  0  0  0  0  0  0  0
    3.6376    3.8843    4.8708 H   0  0  0  0  0  0  0  0  0  0  0  0
    5.4772    2.7982    5.4548 C   0  0  0  0  0  0  0  0  0  0  0  0
    5.2235    1.7734    5.2161 H   0  0  0  0  0  0  0  0  0  0  0  0
    6.6457    3.2283    6.1448 C   0  0  2  0  0  3  0  0  0  0  0  0
    7.7806    2.5410    6.6225 C   0  0  0  0  0  0  0  0  0  0  0  0
    7.8656    1.4722    6.4750 H   0  0  0  0  0  0  0  0  0  0  0  0
    8.7558    3.2476    7.2769 C   0  0  0  0  0  0  0  0  0  0  0  0
    9.6301    2.7372    7.6508 H   0  0  0  0  0  0  0  0  0  0  0  0
    8.6528    4.6393    7.4695 C   0  0  0  0  0  0  0  0  0  0  0  0
    9.4540    5.1513    7.9808 H   0  0  0  0  0  0  0  0  0  0  0  0
    7.5670    5.3492    7.0264 C   0  0  0  0  0  0  0  0  0  0  0  0
    7.4931    6.4145    7.2122 H   0  0  0  0  0  0  0  0  0  0  0  0
    6.5219    4.6607    6.3673 C   0  0  2  0  0  0  0  0  0  0  0  0
    5.2585    5.0688    5.8346 C   0  0  2  0  0  3  0  0  0  0  0  0
    4.6639    6.4504    5.8693 C   0  0  0  0  0  0  0  0  0  0  0  0
    5.3569    7.1312    6.3697 H   0  0  0  0  0  0  0  0  0  0  0  0
    3.7284    6.4540    6.4373 H   0  0  0  0  0  0  0  0  0  0  0  0
    4.3986    6.9413    4.4292 C   0  0  0  0  0  0  0  0  0  0  0  0
    3.4724    6.4997    4.0533 H   0  0  0  0  0  0  0  0  0  0  0  0
    4.2709    8.0283    4.4287 H   0  0  0  0  0  0  0  0  0  0  0  0
    5.5416    6.5405    3.5367 C   0  0  0  0  0  0  0  0  0  0  0  0
    6.8963    6.9223    3.7105 C   0  0  0  0  0  0  0  0  0  0  0  0
    7.2571    7.6219    4.4570 H   0  0  0  0  0  0  0  0  0  0  0  0
    7.6781    6.3920    2.6643 C   0  0  0  0  0  0  0  0  0  0  0  0
    8.7245    6.6016    2.4832 H   0  0  0  0  0  0  0  0  0  0  0  0
    6.8160    5.6520    1.8064 C   0  0  0  0  0  0  0  0  0  0  0  0
    7.0375    4.9508    0.6031 C   0  0  0  0  0  0  0  0  0  0  0  0
    8.0319    4.9103    0.1778 H   0  0  0  0  0  0  0  0  0  0  0  0
    5.9764    4.3384   -0.0113 C   0  0  0  0  0  0  0  0  0  0  0  0
    6.1275    3.7995   -0.9341 H   0  0  0  0  0  0  0  0  0  0  0  0
    4.6802    4.3849    0.5385 C   0  0  0  0  0  0  0  0  0  0  0  0
    3.8805    3.8762    0.0214 H   0  0  0  0  0  0  0  0  0  0  0  0
    4.4162    5.0562    1.7042 C   0  0  0  0  0  0  0  0  0  0  0  0
    3.4062    5.1047    2.0945 H   0  0  0  0  0  0  0  0  0  0  0  0
    5.4739    5.7258    2.3628 C   0  0  2  0  0  0  0  0  0  0  0  0
    6.5447    2.5303    2.6330 Cl  0  0  0  0  0  0  0  0  0  0  0  0
    9.0386    4.1366    4.1607 Cl  0  0  0  0  0  0  0  0  0  0  0  0
    6.7375    4.4268    3.9680 Zr  0  0  0  0  0  0  0  0  0  0  0  0
  1  3  2  0  0  0  0
  2  1  1  0  0  0  0
  4  3  1  0  0  0  0
  5  3  1  1  0  0  0
  5 14  1  0  0  0  0
  5  6  1  0  0  0  0
  6  8  2  0  0  0  0
  7  6  1  0  0  0  0
  8 10  1  0  0  0  0
  8  9  1  0  0  0  0
 10 11  1  0  0  0  0
 12 13  1  0  0  0  0
 12 10  2  0  0  0  0
 14 12  1  1  0  0  0
 15  1  1  1  0  0  0
 15 16  1  0  0  0  0
 15 14  1  0  0  0  0
 16 17  1  0  0  0  0
 16 18  1  0  0  0  0
 19 16  1  0  0  0  0
 20 19  1  0  0  0  0
 21 19  1  0  0  0  0
 22 23  2  0  0  0  0
 22 19  1  0  0  0  0
 23 24  1  0  0  0  0
 25 23  1  0  0  0  0
 26 25  1  0  0  0  0
 27 36  1  0  0  0  0
 27 25  2  0  0  0  0
 28 27  1  0  0  0  0
 29 28  1  0  0  0  0
 30 32  1  0  0  0  0
 30 28  2  0  0  0  0
 31 30  1  0  0  0  0
 32 34  2  0  0  0  0
 33 32  1  0  0  0  0
 34 35  1  0  0  0  0
 36 34  1  6  0  0  0
 36 22  1  0  0  0  0
 36 39  1  0  0  0  0
 37 39  1  0  0  0  0
 39 38  1  0  0  0  0
 39 14  1  0  0  0  0
M  END
$$$$
