CSD_code = QAJLUL | q = 0 | S = 0 | Stoichiometry = C21H21AsAuCl | MND = 2
 OpenBabel04212202083D

 45 46  0  0  0  0  0  0  0  0999 V2000
    3.8751    1.7088    5.4119 Au  0  0  0  0  0  0  0  0  0  0  0  0
    3.4524    0.2044    3.6777 As  0  0  0  0  0  0  0  0  0  0  0  0
    4.2829    3.0985    7.1750 Cl  0  0  0  0  0  0  0  0  0  0  0  0
    4.9686   -0.9143    3.2479 C   0  0  0  0  0  0  0  0  0  0  0  0
    5.8845   -1.1695    4.2636 C   0  0  0  0  0  0  0  0  0  0  0  0
    5.7310   -0.7106    5.2383 H   0  0  0  0  0  0  0  0  0  0  0  0
    6.9773   -1.9847    4.0335 C   0  0  0  0  0  0  0  0  0  0  0  0
    7.6831   -2.1734    4.8297 H   0  0  0  0  0  0  0  0  0  0  0  0
    7.1812   -2.5589    2.7842 C   0  0  0  0  0  0  0  0  0  0  0  0
    6.2642   -2.2976    1.7707 C   0  0  0  0  0  0  0  0  0  0  0  0
    6.4151   -2.7360    0.7939 H   0  0  0  0  0  0  0  0  0  0  0  0
    5.1685   -1.4859    1.9960 C   0  0  0  0  0  0  0  0  0  0  0  0
    4.4676   -1.2812    1.1916 H   0  0  0  0  0  0  0  0  0  0  0  0
    2.1025   -1.0981    4.1351 C   0  0  0  0  0  0  0  0  0  0  0  0
    1.7569   -2.1227    3.2607 C   0  0  0  0  0  0  0  0  0  0  0  0
    2.2429   -2.1852    2.2913 H   0  0  0  0  0  0  0  0  0  0  0  0
    0.8010   -3.0534    3.6229 C   0  0  0  0  0  0  0  0  0  0  0  0
    0.5368   -3.8454    2.9359 H   0  0  0  0  0  0  0  0  0  0  0  0
    0.1757   -2.9854    4.8633 C   0  0  0  0  0  0  0  0  0  0  0  0
    0.5304   -1.9621    5.7366 C   0  0  0  0  0  0  0  0  0  0  0  0
    0.0541   -1.9009    6.7046 H   0  0  0  0  0  0  0  0  0  0  0  0
    1.4841   -1.0274    5.3787 C   0  0  0  0  0  0  0  0  0  0  0  0
    1.7638   -0.2290    6.0629 H   0  0  0  0  0  0  0  0  0  0  0  0
    2.8882    0.8951    1.9702 C   0  0  0  0  0  0  0  0  0  0  0  0
    1.5490    0.9227    1.5947 C   0  0  0  0  0  0  0  0  0  0  0  0
    0.8030    0.4714    2.2431 H   0  0  0  0  0  0  0  0  0  0  0  0
    1.1709    1.5212    0.4068 C   0  0  0  0  0  0  0  0  0  0  0  0
    0.1283    1.5335    0.1215 H   0  0  0  0  0  0  0  0  0  0  0  0
    2.1137    2.1147   -0.4252 C   0  0  0  0  0  0  0  0  0  0  0  0
    3.4492    2.1039   -0.0356 C   0  0  0  0  0  0  0  0  0  0  0  0
    4.1916    2.5715   -0.6670 H   0  0  0  0  0  0  0  0  0  0  0  0
    3.8332    1.5100    1.1511 C   0  0  0  0  0  0  0  0  0  0  0  0
    4.8764    1.5151    1.4575 H   0  0  0  0  0  0  0  0  0  0  0  0
    8.3751   -3.4219    2.5175 C   0  0  0  0  0  0  0  0  0  0  0  0
    8.8430   -3.7380    3.4460 H   0  0  0  0  0  0  0  0  0  0  0  0
    9.1115   -2.8678    1.9352 H   0  0  0  0  0  0  0  0  0  0  0  0
    8.0934   -4.3033    1.9448 H   0  0  0  0  0  0  0  0  0  0  0  0
   -0.8707   -3.9814    5.2560 C   0  0  0  0  0  0  0  0  0  0  0  0
   -0.8825   -4.8268    4.5730 H   0  0  0  0  0  0  0  0  0  0  0  0
   -1.8550   -3.5133    5.2407 H   0  0  0  0  0  0  0  0  0  0  0  0
   -0.6930   -4.3455    6.2659 H   0  0  0  0  0  0  0  0  0  0  0  0
    1.7017    2.7381   -1.7224 C   0  0  0  0  0  0  0  0  0  0  0  0
    2.3898    3.5296   -2.0089 H   0  0  0  0  0  0  0  0  0  0  0  0
    0.6972    3.1487   -1.6537 H   0  0  0  0  0  0  0  0  0  0  0  0
    1.7043    1.9863   -2.5125 H   0  0  0  0  0  0  0  0  0  0  0  0
  1  3  1  0  0  0  0
  2 14  1  0  0  0  0
  4  2  1  0  0  0  0
  4  5  1  0  0  0  0
  5  6  1  0  0  0  0
  7  5  2  0  0  0  0
  7  8  1  0  0  0  0
  9  7  1  0  0  0  0
 10 12  1  0  0  0  0
 10  9  2  0  0  0  0
 11 10  1  0  0  0  0
 12  4  2  0  0  0  0
 13 12  1  0  0  0  0
 14 22  1  0  0  0  0
 15 17  1  0  0  0  0
 15 14  2  0  0  0  0
 16 15  1  0  0  0  0
 17 19  2  0  0  0  0
 18 17  1  0  0  0  0
 19 38  1  0  0  0  0
 19 20  1  0  0  0  0
 20 21  1  0  0  0  0
 22 20  2  0  0  0  0
 22 23  1  0  0  0  0
 24  2  1  0  0  0  0
 25 24  1  0  0  0  0
 25 26  1  0  0  0  0
 27 25  2  0  0  0  0
 28 27  1  0  0  0  0
 29 30  2  0  0  0  0
 29 27  1  0  0  0  0
 30 32  1  0  0  0  0
 31 30  1  0  0  0  0
 32 33  1  0  0  0  0
 32 24  2  0  0  0  0
 34  9  1  0  0  0  0
 34 35  1  0  0  0  0
 36 34  1  0  0  0  0
 37 34  1  0  0  0  0
 38 41  1  0  0  0  0
 39 38  1  0  0  0  0
 40 38  1  0  0  0  0
 42 44  1  0  0  0  0
 42 29  1  0  0  0  0
 43 42  1  0  0  0  0
 45 42  1  0  0  0  0
M  END
$$$$
