CSD_code = QAJNAR | q = 0 | S = 0 | Stoichiometry = C24H27BCl2N8Os | MND = 6
 OpenBabel04212202083D

 63 70  0  0  1  0  0  0  0  0999 V2000
   -1.2410    3.6581   11.5605 Os  0  0  0  0  0  0  0  0  0  0  0  0
   -0.4512    5.8162   11.8401 Cl  0  0  0  0  0  0  0  0  0  0  0  0
   -1.5254    3.8038    9.2992 Cl  0  0  0  0  0  0  0  0  0  0  0  0
   -3.1805    4.3601   11.8284 N   0  0  2  0  0  0  0  0  0  0  0  0
   -4.0139    3.6727   12.6223 N   0  0  0  0  0  0  0  0  0  0  0  0
   -1.2577    3.4800   13.6286 N   0  0  2  0  0  0  0  0  0  0  0  0
   -2.3066    2.9082   14.2255 N   0  0  0  0  0  0  0  0  0  0  0  0
   -2.0498    1.7616   11.4984 N   0  0  2  0  0  0  0  0  0  0  0  0
   -2.9968    1.4248   12.3752 N   0  0  0  0  0  0  0  0  0  0  0  0
    0.4990    2.8884   11.4517 N   0  0  0  0  0  0  0  0  0  0  0  0
    0.5967    1.9886   11.9331 H   0  0  0  0  0  0  0  0  0  0  0  0
    2.6406    1.2778   11.9553 N   0  0  0  0  0  0  0  0  0  0  0  0
   -3.8533    5.3795   11.3124 C   0  0  0  0  0  3  0  0  0  0  0  0
   -3.3757    6.0684   10.6422 H   0  0  0  0  0  0  0  0  0  0  0  0
   -5.1641    5.3563   11.7820 C   0  0  0  0  0  0  0  0  0  0  0  0
   -5.9522    6.0417   11.5495 H   0  0  0  0  0  0  0  0  0  0  0  0
   -5.2196    4.2552   12.6126 C   0  0  0  0  0  0  0  0  0  0  0  0
   -6.0318    3.8582   13.1875 H   0  0  0  0  0  0  0  0  0  0  0  0
   -0.3965    3.8465   14.5696 C   0  0  0  0  0  3  0  0  0  0  0  0
    0.5142    4.3537   14.3135 H   0  0  0  0  0  0  0  0  0  0  0  0
   -0.9003    3.4940   15.8195 C   0  0  0  0  0  0  0  0  0  0  0  0
   -0.4455    3.6542   16.7747 H   0  0  0  0  0  0  0  0  0  0  0  0
   -2.1187    2.9034   15.5517 C   0  0  0  0  0  0  0  0  0  0  0  0
   -2.8517    2.4905   16.2144 H   0  0  0  0  0  0  0  0  0  0  0  0
   -1.7915    0.7037   10.7421 C   0  0  0  0  0  3  0  0  0  0  0  0
   -1.0694    0.7566    9.9493 H   0  0  0  0  0  0  0  0  0  0  0  0
   -2.5980   -0.3603   11.1440 C   0  0  0  0  0  0  0  0  0  0  0  0
   -2.6294   -1.3474   10.7318 H   0  0  0  0  0  0  0  0  0  0  0  0
   -3.3495    0.1454   12.1845 C   0  0  0  0  0  0  0  0  0  0  0  0
   -4.1025   -0.3186   12.7883 H   0  0  0  0  0  0  0  0  0  0  0  0
    1.6559    3.1537   10.8185 C   0  0  0  0  0  0  0  0  0  0  0  0
    2.7598    2.2764   10.9959 C   0  0  0  0  0  0  0  0  0  0  0  0
    3.9143    2.4278   10.1816 C   0  0  0  0  0  0  0  0  0  0  0  0
    5.0826    1.6495   10.3422 C   0  0  0  0  0  0  0  0  0  0  0  0
    5.1307    0.9149   11.1284 H   0  0  0  0  0  0  0  0  0  0  0  0
    6.1762    1.8312    9.5394 C   0  0  0  0  0  0  0  0  0  0  0  0
    7.0583    1.2252    9.6858 H   0  0  0  0  0  0  0  0  0  0  0  0
    6.1649    2.8025    8.5318 C   0  0  0  0  0  0  0  0  0  0  0  0
    7.0280    2.9238    7.8944 H   0  0  0  0  0  0  0  0  0  0  0  0
    5.0677    3.6080    8.3802 C   0  0  0  0  0  0  0  0  0  0  0  0
    5.0574    4.3831    7.6277 H   0  0  0  0  0  0  0  0  0  0  0  0
    3.9351    3.4577    9.1985 C   0  0  0  0  0  0  0  0  0  0  0  0
    2.8370    4.3466    9.0881 C   0  0  0  0  0  0  0  0  0  0  0  0
    2.8892    5.1376    8.3556 H   0  0  0  0  0  0  0  0  0  0  0  0
    1.7475    4.2232    9.8846 C   0  0  0  0  0  0  0  0  0  0  0  0
    0.9139    4.9014    9.8050 H   0  0  0  0  0  0  0  0  0  0  0  0
    2.9354   -0.1096   11.6975 C   0  0  0  0  0  0  0  0  0  0  0  0
    3.8521   -0.4310   12.2151 H   0  0  0  0  0  0  0  0  0  0  0  0
    3.0626   -0.2551   10.6243 H   0  0  0  0  0  0  0  0  0  0  0  0
    1.7735   -0.9598   12.2225 C   0  0  0  0  0  0  0  0  0  0  0  0
    1.9659   -2.0114   12.0062 H   0  0  0  0  0  0  0  0  0  0  0  0
    0.8512   -0.6699   11.7140 H   0  0  0  0  0  0  0  0  0  0  0  0
    1.6261   -0.7454   13.7266 C   0  0  0  0  0  0  0  0  0  0  0  0
    0.7944   -1.3366   14.1137 H   0  0  0  0  0  0  0  0  0  0  0  0
    2.5373   -1.0802   14.2281 H   0  0  0  0  0  0  0  0  0  0  0  0
    1.3968    0.7350   14.0225 C   0  0  0  0  0  0  0  0  0  0  0  0
    1.4104    0.9155   15.0985 H   0  0  0  0  0  0  0  0  0  0  0  0
    0.4098    1.0270   13.6557 H   0  0  0  0  0  0  0  0  0  0  0  0
    2.4867    1.5857   13.3617 C   0  0  0  0  0  0  0  0  0  0  0  0
    2.2686    2.6487   13.4751 H   0  0  0  0  0  0  0  0  0  0  0  0
    3.4420    1.3787   13.8716 H   0  0  0  0  0  0  0  0  0  0  0  0
   -3.5194    2.4445   13.3983 B   0  0  2  0  0  0  0  0  0  0  0  0
   -4.3632    1.9824   14.0824 H   0  0  0  0  0  0  0  0  0  0  0  0
  1  4  1  0  0  0  0
  1  2  1  0  0  0  0
  1  6  1  0  0  0  0
  3  1  1  0  0  0  0
  4 13  1  6  0  0  0
  4  5  1  0  0  0  0
  5 62  1  0  0  0  0
  6  7  1  0  0  0  0
  6 19  1  1  0  0  0
  7 23  1  0  0  0  0
  8 25  1  1  0  0  0
  8  1  1  0  0  0  0
  8  9  1  0  0  0  0
  9 62  1  0  0  0  0
 10  1  1  0  0  0  0
 10 11  1  0  0  0  0
 12 59  1  0  0  0  0
 13 15  1  0  0  0  0
 14 13  1  0  0  0  0
 15 17  2  0  0  0  0
 16 15  1  0  0  0  0
 17  5  1  0  0  0  0
 17 18  1  0  0  0  0
 19 21  1  0  0  0  0
 20 19  1  0  0  0  0
 21 22  1  0  0  0  0
 23 21  2  0  0  0  0
 23 24  1  0  0  0  0
 25 27  1  0  0  0  0
 26 25  1  0  0  0  0
 27 29  2  0  0  0  0
 28 27  1  0  0  0  0
 29  9  1  0  0  0  0
 29 30  1  0  0  0  0
 31 32  1  0  0  0  0
 31 10  1  0  0  0  0
 32 12  1  0  0  0  0
 33 34  1  0  0  0  0
 33 32  2  0  0  0  0
 34 35  1  0  0  0  0
 36 37  1  0  0  0  0
 36 34  2  0  0  0  0
 38 36  1  0  0  0  0
 39 38  1  0  0  0  0
 40 38  2  0  0  0  0
 40 42  1  0  0  0  0
 41 40  1  0  0  0  0
 42 33  1  0  0  0  0
 43 42  2  0  0  0  0
 43 45  1  0  0  0  0
 44 43  1  0  0  0  0
 45 31  2  0  0  0  0
 46 45  1  0  0  0  0
 47 12  1  0  0  0  0
 47 48  1  0  0  0  0
 47 50  1  0  0  0  0
 49 47  1  0  0  0  0
 50 53  1  0  0  0  0
 51 50  1  0  0  0  0
 52 50  1  0  0  0  0
 53 56  1  0  0  0  0
 53 54  1  0  0  0  0
 53 55  1  0  0  0  0
 56 57  1  0  0  0  0
 58 56  1  0  0  0  0
 59 60  1  0  0  0  0
 59 61  1  0  0  0  0
 59 56  1  0  0  0  0
 62 63  1  1  0  0  0
 62  7  1  0  0  0  0
M  END
$$$$
