CSD_code = QAJYOQ | q = 0 | S = 0 | Stoichiometry = C19H24ClIrN2O4 | MND = 4
 OpenBabel04212202083D

 51 55  0  0  0  0  0  0  0  0999 V2000
    3.0008    4.0911   -0.5768 C   0  0  0  0  0  0  0  0  0  0  0  0
    2.1743    2.5200   -2.4782 C   0  0  0  0  0  0  0  0  0  0  0  0
    1.9776    3.0758   -3.9153 C   0  0  0  0  0  0  0  0  0  0  0  0
    2.3442    2.3932   -4.6829 H   0  0  0  0  0  0  0  0  0  0  0  0
    0.9210    3.2985   -4.1088 H   0  0  0  0  0  0  0  0  0  0  0  0
    3.0289    4.6655   -2.7696 C   0  0  0  0  0  0  0  0  0  0  0  0
    3.5437    5.7037   -2.0757 C   0  0  0  0  0  0  0  0  0  0  0  0
    4.5441    7.3630   -0.9799 C   0  0  0  0  0  0  0  0  0  0  0  0
    4.2143    8.3908   -0.8197 H   0  0  0  0  0  0  0  0  0  0  0  0
    5.6394    7.3405   -1.0164 H   0  0  0  0  0  0  0  0  0  0  0  0
    4.0050    6.3875    0.1026 C   0  0  0  0  0  0  0  0  0  0  0  0
    3.2111    1.3911   -2.4223 C   0  0  0  0  0  0  0  0  0  0  0  0
    4.1090    1.6973   -2.9639 H   0  0  0  0  0  0  0  0  0  0  0  0
    3.4904    1.2423   -1.3769 H   0  0  0  0  0  0  0  0  0  0  0  0
    2.6645    0.0860   -2.9899 C   0  0  0  0  0  0  0  0  0  0  0  0
    2.4573    0.1947   -4.0575 H   0  0  0  0  0  0  0  0  0  0  0  0
    3.4201   -0.6925   -2.8770 H   0  0  0  0  0  0  0  0  0  0  0  0
    1.3850   -0.3180   -2.2664 C   0  0  0  0  0  0  0  0  0  0  0  0
    0.9988   -1.2489   -2.6842 H   0  0  0  0  0  0  0  0  0  0  0  0
    1.6032   -0.4852   -1.2100 H   0  0  0  0  0  0  0  0  0  0  0  0
    0.3407    0.7850   -2.3971 C   0  0  0  0  0  0  0  0  0  0  0  0
   -0.5733    0.5005   -1.8741 H   0  0  0  0  0  0  0  0  0  0  0  0
    0.0929    0.9313   -3.4512 H   0  0  0  0  0  0  0  0  0  0  0  0
    0.8726    2.0850   -1.8043 C   0  0  0  0  0  0  0  0  0  0  0  0
    0.1284    2.8804   -1.8868 H   0  0  0  0  0  0  0  0  0  0  0  0
    1.0881    1.9361   -0.7389 H   0  0  0  0  0  0  0  0  0  0  0  0
    5.0863    5.8701    1.0512 C   0  0  0  0  0  0  0  0  0  0  0  0
    5.9313    5.4866    0.4762 H   0  0  0  0  0  0  0  0  0  0  0  0
    4.6587    5.0281    1.6119 H   0  0  0  0  0  0  0  0  0  0  0  0
    5.5385    6.9475    2.0286 C   0  0  0  0  0  0  0  0  0  0  0  0
    6.2917    6.5302    2.6980 H   0  0  0  0  0  0  0  0  0  0  0  0
    5.9969    7.7764    1.4835 H   0  0  0  0  0  0  0  0  0  0  0  0
    4.3501    7.4611    2.8336 C   0  0  0  0  0  0  0  0  0  0  0  0
    4.6782    8.2295    3.5352 H   0  0  0  0  0  0  0  0  0  0  0  0
    3.9199    6.6383    3.4080 H   0  0  0  0  0  0  0  0  0  0  0  0
    3.2916    8.0322    1.8969 C   0  0  0  0  0  0  0  0  0  0  0  0
    3.7049    8.8926    1.3655 H   0  0  0  0  0  0  0  0  0  0  0  0
    2.4308    8.3788    2.4704 H   0  0  0  0  0  0  0  0  0  0  0  0
    2.8315    6.9722    0.9012 C   0  0  0  0  0  0  0  0  0  0  0  0
    2.3589    6.1482    1.4438 H   0  0  0  0  0  0  0  0  0  0  0  0
    2.0943    7.3904    0.2116 H   0  0  0  0  0  0  0  0  0  0  0  0
    1.2734    3.6099    1.6361 C   0  0  0  0  0  2  0  0  0  0  0  0
    3.2185    1.8843    2.6602 C   0  0  0  0  0  2  0  0  0  0  0  0
    5.0249    2.2500    0.5447 Cl  0  0  0  0  0  0  0  0  0  0  0  0
    2.9556    2.9927    1.1712 Ir  0  0  0  0  0  0  0  0  0  0  0  0
    2.7078    3.7076   -1.8343 N   0  0  0  0  0  0  0  0  0  0  0  0
    3.5185    5.3222   -0.7540 N   0  0  0  0  0  0  0  0  0  0  0  0
    2.7231    4.2912   -4.0305 O   0  0  0  0  0  0  0  0  0  0  0  0
    4.0427    6.9459   -2.2533 O   0  0  0  0  0  0  0  0  0  0  0  0
    0.2201    4.0028    1.9078 O   0  0  0  0  0  1  0  0  0  0  0  0
    3.5238    1.1669    3.4976 O   0  0  0  0  0  1  0  0  0  0  0  0
  1 45  2  0  0  0  0
  2 12  1  0  0  0  0
  2 46  1  0  0  0  0
  2 24  1  0  0  0  0
  3  2  1  0  0  0  0
  4  3  1  0  0  0  0
  5  3  1  0  0  0  0
  6  7  2  0  0  0  0
  6 46  1  0  0  0  0
  7 47  1  0  0  0  0
  8  9  1  0  0  0  0
  8 11  1  0  0  0  0
 10  8  1  0  0  0  0
 11 39  1  0  0  0  0
 11 27  1  0  0  0  0
 12 14  1  0  0  0  0
 13 12  1  0  0  0  0
 15 17  1  0  0  0  0
 15 12  1  0  0  0  0
 15 18  1  0  0  0  0
 16 15  1  0  0  0  0
 18 20  1  0  0  0  0
 19 18  1  0  0  0  0
 21 18  1  0  0  0  0
 21 22  1  0  0  0  0
 21 24  1  0  0  0  0
 23 21  1  0  0  0  0
 24 26  1  0  0  0  0
 25 24  1  0  0  0  0
 27 29  1  0  0  0  0
 27 30  1  0  0  0  0
 28 27  1  0  0  0  0
 30 31  1  0  0  0  0
 30 33  1  0  0  0  0
 32 30  1  0  0  0  0
 33 35  1  0  0  0  0
 33 34  1  0  0  0  0
 36 38  1  0  0  0  0
 36 33  1  0  0  0  0
 37 36  1  0  0  0  0
 39 40  1  0  0  0  0
 39 36  1  0  0  0  0
 41 39  1  0  0  0  0
 42 50  1  0  0  0  0
 43 51  1  0  0  0  0
 44 45  1  0  0  0  0
 45 42  1  0  0  0  0
 45 43  1  0  0  0  0
 46  1  1  0  0  0  0
 47  1  1  0  0  0  0
 47 11  1  0  0  0  0
 48  3  1  0  0  0  0
 48  6  1  0  0  0  0
 49  7  1  0  0  0  0
 49  8  1  0  0  0  0
M  END
$$$$
