CSD_code = QAKBOT | q = 0 | S = 0 | Stoichiometry = C20H19Cl2N3O2Zn | MND = 4
 OpenBabel04212202083D

 47 51  0  0  1  0  0  0  0  0999 V2000
    7.4690    1.3134   12.7510 Zn  0  0  0  0  0  0  0  0  0  0  0  0
    8.1722   -0.6680   12.1000 Cl  0  0  0  0  0  0  0  0  0  0  0  0
    6.7462    3.0719   11.6626 Cl  0  0  0  0  0  0  0  0  0  0  0  0
    5.0992   -0.2796   14.1011 N   0  0  0  0  0  0  0  0  0  0  0  0
    6.0514    0.6432   14.1367 N   0  0  1  0  0  0  0  0  0  0  0  0
    8.3053    2.0205   14.6112 N   0  0  0  0  0  0  0  0  0  0  0  0
    6.4745    0.7505   15.3963 C   0  0  1  0  0  3  0  0  0  0  0  0
    5.7323   -0.1301   16.2091 C   0  0  0  0  0  0  0  0  0  0  0  0
    5.7599   -0.4047   17.6751 C   0  0  0  0  0  0  0  0  0  0  0  0
    5.3188    0.4435   18.2094 H   0  0  0  0  0  0  0  0  0  0  0  0
    6.7890   -0.5221   18.0223 H   0  0  0  0  0  0  0  0  0  0  0  0
    4.9557   -1.6715   17.9808 C   0  0  0  0  0  0  0  0  0  0  0  0
    4.7886   -1.7436   19.0562 H   0  0  0  0  0  0  0  0  0  0  0  0
    5.5279   -2.5477   17.6701 H   0  0  0  0  0  0  0  0  0  0  0  0
    3.6183   -1.6610   17.2417 C   0  0  0  0  0  0  0  0  0  0  0  0
    3.0914   -0.7295   17.4571 H   0  0  0  0  0  0  0  0  0  0  0  0
    2.9954   -2.4886   17.5817 H   0  0  0  0  0  0  0  0  0  0  0  0
    3.8524   -1.7831   15.7332 C   0  0  0  0  0  0  0  0  0  0  0  0
    2.9261   -1.6321   15.1744 H   0  0  0  0  0  0  0  0  0  0  0  0
    4.2158   -2.7909   15.5121 H   0  0  0  0  0  0  0  0  0  0  0  0
    4.8722   -0.7771   15.3384 C   0  0  0  0  0  0  0  0  0  0  0  0
    7.5856    1.6423   15.6753 C   0  0  1  0  0  3  0  0  0  0  0  0
    7.9053    2.0856   16.9584 C   0  0  0  0  0  0  0  0  0  0  0  0
    7.3017    1.7884   17.7991 H   0  0  0  0  0  0  0  0  0  0  0  0
    8.9909    2.9254   17.1284 C   0  0  0  0  0  0  0  0  0  0  0  0
    9.2556    3.2816   18.1127 H   0  0  0  0  0  0  0  0  0  0  0  0
    9.7269    3.3065   16.0169 C   0  0  0  0  0  0  0  0  0  0  0  0
   10.5790    3.9604   16.1064 H   0  0  0  0  0  0  0  0  0  0  0  0
    9.3384    2.8296   14.7755 C   0  0  0  0  0  0  0  0  0  0  0  0
    9.8725    3.1048   13.8769 H   0  0  0  0  0  0  0  0  0  0  0  0
    4.5113   -0.6171   12.8687 C   0  0  0  0  0  0  0  0  0  0  0  0
    4.2502    0.3973   11.9509 C   0  0  0  0  0  0  0  0  0  0  0  0
    4.4605    1.4251   12.2060 H   0  0  0  0  0  0  0  0  0  0  0  0
    3.7224    0.0829   10.7142 C   0  0  0  0  0  0  0  0  0  0  0  0
    3.5289    0.8629    9.9958 H   0  0  0  0  0  0  0  0  0  0  0  0
    3.4422   -1.2422   10.3927 C   0  0  0  0  0  0  0  0  0  0  0  0
    3.7056   -2.2498   11.3172 C   0  0  0  0  0  0  0  0  0  0  0  0
    3.4973   -3.2722   11.0414 H   0  0  0  0  0  0  0  0  0  0  0  0
    4.2438   -1.9444   12.5503 C   0  0  0  0  0  0  0  0  0  0  0  0
    4.4913   -2.7320   13.2425 H   0  0  0  0  0  0  0  0  0  0  0  0
    2.8746   -1.6331    9.0759 C   0  0  0  0  0  0  0  0  0  0  0  0
    2.5420   -2.7575    8.7906 O   0  0  0  0  0  0  0  0  0  0  0  0
    2.7670   -0.5978    8.2360 O   0  0  0  0  0  0  0  0  0  0  0  0
    2.2514   -0.8956    6.9474 C   0  0  0  0  0  0  0  0  0  0  0  0
    2.2593    0.0394    6.3935 H   0  0  0  0  0  0  0  0  0  0  0  0
    2.8770   -1.6411    6.4522 H   0  0  0  0  0  0  0  0  0  0  0  0
    1.2352   -1.2881    7.0264 H   0  0  0  0  0  0  0  0  0  0  0  0
  1  5  1  0  0  0  0
  1  6  1  0  0  0  0
  2  1  1  0  0  0  0
  3  1  1  0  0  0  0
  4 21  1  0  0  0  0
  5  4  1  6  0  0  0
  5  7  1  0  0  0  0
  6 29  1  0  0  0  0
  6 22  1  0  0  0  0
  7 22  1  0  0  0  0
  7  8  1  6  0  0  0
  8  9  1  0  0  0  0
  9 12  1  0  0  0  0
  9 11  1  0  0  0  0
  9 10  1  0  0  0  0
 12 13  1  0  0  0  0
 14 12  1  0  0  0  0
 15 16  1  0  0  0  0
 15 17  1  0  0  0  0
 15 12  1  0  0  0  0
 18 15  1  0  0  0  0
 19 18  1  0  0  0  0
 20 18  1  0  0  0  0
 21 18  1  0  0  0  0
 21  8  2  0  0  0  0
 22 23  1  1  0  0  0
 23 25  2  0  0  0  0
 23 24  1  0  0  0  0
 25 26  1  0  0  0  0
 27 28  1  0  0  0  0
 27 25  1  0  0  0  0
 29 27  2  0  0  0  0
 30 29  1  0  0  0  0
 31  4  1  0  0  0  0
 32 33  1  0  0  0  0
 32 31  2  0  0  0  0
 34 32  1  0  0  0  0
 35 34  1  0  0  0  0
 36 34  2  0  0  0  0
 36 37  1  0  0  0  0
 37 39  2  0  0  0  0
 38 37  1  0  0  0  0
 39 31  1  0  0  0  0
 39 40  1  0  0  0  0
 41 36  1  0  0  0  0
 42 41  2  0  0  0  0
 43 41  1  0  0  0  0
 44 47  1  0  0  0  0
 44 43  1  0  0  0  0
 45 44  1  0  0  0  0
 46 44  1  0  0  0  0
M  END
$$$$
