CSD_code = QAKYEG | q = 1 | S = 0 | Stoichiometry = C24H21Cl2N4O2PRe(1+) | MND = 6
 OpenBabel04212202083D

 55 60  0  0  0  0  0  0  0  0999 V2000
    5.6939    2.3867    2.0074 Re  0  0  0  0  0  0  0  0  0  0  0  0
    5.6444    0.5035    0.7903 Cl  0  0  0  0  0  0  0  0  0  0  0  0
    7.8446    2.7035    1.4596 Cl  0  0  0  0  0  0  0  0  0  0  0  0
    6.3583   -0.4577    3.8254 P   0  0  0  0  0  4  0  0  0  0  0  0
    4.9569    3.5188    1.0469 O   0  0  0  0  0  1  0  0  0  0  0  0
    6.3075    1.0505    3.6525 O   0  0  0  0  0  0  0  0  0  0  0  0
    4.9150    4.4575    5.5554 N   0  0  0  0  0  0  0  0  0  0  0  0
    4.2646    4.6403    6.3042 H   0  0  0  0  0  0  0  0  0  0  0  0
    5.8239    3.6741    3.7278 N   0  0  0  0  0  0  0  0  0  0  0  0
    2.4358    2.5834    4.6958 N   0  0  0  0  0  0  0  0  0  0  0  0
    2.0676    3.0245    5.5246 H   0  0  0  0  0  0  0  0  0  0  0  0
    3.7524    2.0240    3.0398 N   0  0  0  0  0  0  0  0  0  0  0  0
    4.7456    3.6226    4.5088 C   0  0  0  0  0  0  0  0  0  0  0  0
    6.6937    4.5469    4.2772 C   0  0  0  0  0  0  0  0  0  0  0  0
    7.6388    4.7528    3.8156 H   0  0  0  0  0  0  0  0  0  0  0  0
    6.1387    5.0478    5.4225 C   0  0  0  0  0  0  0  0  0  0  0  0
    6.5104    5.7608    6.1288 H   0  0  0  0  0  0  0  0  0  0  0  0
    3.6519    2.7695    4.1373 C   0  0  0  0  0  0  0  0  0  0  0  0
    2.5895    1.3619    2.8832 C   0  0  0  0  0  0  0  0  0  0  0  0
    2.4316    0.7034    2.0541 H   0  0  0  0  0  0  0  0  0  0  0  0
    1.7535    1.6992    3.9129 C   0  0  0  0  0  0  0  0  0  0  0  0
    0.7541    1.3896    4.1360 H   0  0  0  0  0  0  0  0  0  0  0  0
    4.6727   -1.1378    3.8168 C   0  0  0  0  0  0  0  0  0  0  0  0
    3.9204   -0.9673    4.9743 C   0  0  0  0  0  0  0  0  0  0  0  0
    4.3751   -0.4975    5.8380 H   0  0  0  0  0  0  0  0  0  0  0  0
    2.6122   -1.4128    5.0208 C   0  0  0  0  0  0  0  0  0  0  0  0
    2.0325   -1.2942    5.9241 H   0  0  0  0  0  0  0  0  0  0  0  0
    2.0541   -2.0299    3.9114 C   0  0  0  0  0  0  0  0  0  0  0  0
    1.0375   -2.3896    3.9513 H   0  0  0  0  0  0  0  0  0  0  0  0
    2.8013   -2.1923    2.7560 C   0  0  0  0  0  0  0  0  0  0  0  0
    2.3656   -2.6738    1.8941 H   0  0  0  0  0  0  0  0  0  0  0  0
    4.1112   -1.7447    2.7014 C   0  0  0  0  0  0  0  0  0  0  0  0
    4.6919   -1.8567    1.7986 H   0  0  0  0  0  0  0  0  0  0  0  0
    7.4385   -1.3133    2.6597 C   0  0  0  0  0  0  0  0  0  0  0  0
    8.5081   -0.6063    2.1222 C   0  0  0  0  0  0  0  0  0  0  0  0
    8.6334    0.4420    2.3553 H   0  0  0  0  0  0  0  0  0  0  0  0
    9.3910   -1.2451    1.2715 C   0  0  0  0  0  0  0  0  0  0  0  0
   10.2112   -0.6933    0.8394 H   0  0  0  0  0  0  0  0  0  0  0  0
    9.2184   -2.5879    0.9758 C   0  0  0  0  0  0  0  0  0  0  0  0
    9.9045   -3.0847    0.3072 H   0  0  0  0  0  0  0  0  0  0  0  0
    8.1696   -3.2984    1.5389 C   0  0  0  0  0  0  0  0  0  0  0  0
    8.0441   -4.3468    1.3148 H   0  0  0  0  0  0  0  0  0  0  0  0
    7.2784   -2.6670    2.3868 C   0  0  0  0  0  0  0  0  0  0  0  0
    6.4621   -3.2201    2.8284 H   0  0  0  0  0  0  0  0  0  0  0  0
    7.0531   -0.7733    5.4656 C   0  0  0  0  0  0  0  0  0  0  0  0
    7.7062    0.2472    6.1431 C   0  0  0  0  0  0  0  0  0  0  0  0
    7.7522    1.2319    5.6986 H   0  0  0  0  0  0  0  0  0  0  0  0
    8.2921   -0.0082    7.3705 C   0  0  0  0  0  0  0  0  0  0  0  0
    8.8033    0.7820    7.8993 H   0  0  0  0  0  0  0  0  0  0  0  0
    8.2296   -1.2809    7.9144 C   0  0  0  0  0  0  0  0  0  0  0  0
    8.6904   -1.4805    8.8696 H   0  0  0  0  0  0  0  0  0  0  0  0
    7.5824   -2.3017    7.2339 C   0  0  0  0  0  0  0  0  0  0  0  0
    7.5397   -3.2925    7.6593 H   0  0  0  0  0  0  0  0  0  0  0  0
    6.9967   -2.0522    6.0070 C   0  0  0  0  0  0  0  0  0  0  0  0
    6.4920   -2.8410    5.4674 H   0  0  0  0  0  0  0  0  0  0  0  0
  1 12  1  0  0  0  0
  1  6  1  0  0  0  0
  1  9  1  0  0  0  0
  2  1  1  0  0  0  0
  3  1  1  0  0  0  0
  4 45  1  0  0  0  0
  5  1  1  0  0  0  0
  6  4  1  0  0  0  0
  7  8  1  0  0  0  0
  9 14  1  0  0  0  0
  9 13  1  0  0  0  0
 10 11  1  0  0  0  0
 12 18  1  0  0  0  0
 13  7  1  0  0  0  0
 14 16  2  0  0  0  0
 15 14  1  0  0  0  0
 16  7  1  0  0  0  0
 16 17  1  0  0  0  0
 18 13  2  0  0  0  0
 18 10  1  0  0  0  0
 19 12  1  0  0  0  0
 19 21  2  0  0  0  0
 20 19  1  0  0  0  0
 21 22  1  0  0  0  0
 21 10  1  0  0  0  0
 23  4  1  0  0  0  0
 23 24  1  0  0  0  0
 24 26  2  0  0  0  0
 24 25  1  0  0  0  0
 26 27  1  0  0  0  0
 28 29  1  0  0  0  0
 28 26  1  0  0  0  0
 30 28  2  0  0  0  0
 31 30  1  0  0  0  0
 32 30  1  0  0  0  0
 32 23  2  0  0  0  0
 33 32  1  0  0  0  0
 34  4  1  0  0  0  0
 35 36  1  0  0  0  0
 35 34  2  0  0  0  0
 37 35  1  0  0  0  0
 38 37  1  0  0  0  0
 39 37  2  0  0  0  0
 39 41  1  0  0  0  0
 40 39  1  0  0  0  0
 41 43  2  0  0  0  0
 42 41  1  0  0  0  0
 43 34  1  0  0  0  0
 43 44  1  0  0  0  0
 45 54  2  0  0  0  0
 45 46  1  0  0  0  0
 46 48  2  0  0  0  0
 47 46  1  0  0  0  0
 48 49  1  0  0  0  0
 48 50  1  0  0  0  0
 50 51  1  0  0  0  0
 52 53  1  0  0  0  0
 52 50  2  0  0  0  0
 54 52  1  0  0  0  0
 55 54  1  0  0  0  0
M  END
$$$$
