CSD_code = QALDAJ | q = 1 | S = 0 | Stoichiometry = C17H17AuClN4S(1+) | MND = 4
 OpenBabel04212202083D

 41 45  0  0  0  0  0  0  0  0999 V2000
    3.3232   -1.7533    7.9196 Au  0  0  2  0  0  0  0  0  0  0  0  0
    1.3773   -1.2061    8.9935 S   0  0  0  0  0  0  0  0  0  0  0  0
    3.0179   -3.9734    7.7977 Cl  0  0  0  0  0  0  0  0  0  0  0  0
    0.8990    1.2963    9.7070 N   0  0  0  0  0  0  0  0  0  0  0  0
    2.8574    1.0398    8.5731 N   0  0  0  0  0  0  0  0  0  0  0  0
    3.6975    0.2271    7.9913 N   0  0  0  0  0  0  0  0  0  0  0  0
    5.1650   -1.7078    6.9732 N   0  0  0  0  0  0  0  0  0  0  0  0
   -0.3324    0.8231   10.3065 C   0  0  0  0  0  0  0  0  0  0  0  0
   -0.1441   -0.0622   10.9180 H   0  0  0  0  0  0  0  0  0  0  0  0
   -1.0358    0.5429    9.5151 H   0  0  0  0  0  0  0  0  0  0  0  0
   -0.8329    2.0211   11.1084 C   0  0  0  0  0  0  0  0  0  0  0  0
   -1.9152    2.0269   11.2015 H   0  0  0  0  0  0  0  0  0  0  0  0
   -0.3977    2.0143   12.1075 H   0  0  0  0  0  0  0  0  0  0  0  0
   -0.3029    3.2108   10.3092 C   0  0  0  0  0  0  0  0  0  0  0  0
   -0.9359    3.3943    9.4412 H   0  0  0  0  0  0  0  0  0  0  0  0
   -0.2492    4.1212   10.8998 H   0  0  0  0  0  0  0  0  0  0  0  0
    1.0750    2.7296    9.8661 C   0  0  0  0  0  0  0  0  0  0  0  0
    1.4218    3.1723    8.9322 H   0  0  0  0  0  0  0  0  0  0  0  0
    1.8315    2.9158   10.6350 H   0  0  0  0  0  0  0  0  0  0  0  0
    1.7647    0.5251    9.0926 C   0  0  0  0  0  0  0  0  0  0  0  0
    4.8402    0.6036    7.4687 C   0  0  0  0  0  0  0  0  0  0  0  0
    5.2836    2.0015    7.5120 C   0  0  0  0  0  0  0  0  0  0  0  0
    4.4250    3.0256    7.1145 C   0  0  0  0  0  0  0  0  0  0  0  0
    3.4402    2.7831    6.7467 H   0  0  0  0  0  0  0  0  0  0  0  0
    4.8488    4.3401    7.1582 C   0  0  0  0  0  0  0  0  0  0  0  0
    4.1863    5.1267    6.8320 H   0  0  0  0  0  0  0  0  0  0  0  0
    6.1190    4.6487    7.6195 C   0  0  0  0  0  0  0  0  0  0  0  0
    6.4444    5.6764    7.6592 H   0  0  0  0  0  0  0  0  0  0  0  0
    6.9691    3.6363    8.0359 C   0  0  0  0  0  0  0  0  0  0  0  0
    7.9534    3.8741    8.4086 H   0  0  0  0  0  0  0  0  0  0  0  0
    6.5610    2.3168    7.9796 C   0  0  0  0  0  0  0  0  0  0  0  0
    7.2148    1.5328    8.3321 H   0  0  0  0  0  0  0  0  0  0  0  0
    5.6343   -0.4432    6.8598 C   0  0  0  0  0  0  0  0  0  0  0  0
    6.8091   -0.2066    6.1433 C   0  0  0  0  0  0  0  0  0  0  0  0
    7.1579    0.8058    6.0168 H   0  0  0  0  0  0  0  0  0  0  0  0
    7.4991   -1.2734    5.5938 C   0  0  0  0  0  0  0  0  0  0  0  0
    8.4090   -1.1011    5.0398 H   0  0  0  0  0  0  0  0  0  0  0  0
    7.0068   -2.5621    5.7567 C   0  0  0  0  0  0  0  0  0  0  0  0
    7.5191   -3.4174    5.3482 H   0  0  0  0  0  0  0  0  0  0  0  0
    5.8199   -2.7324    6.4485 C   0  0  0  0  0  0  0  0  0  0  0  0
    5.3666   -3.7034    6.5932 H   0  0  0  0  0  0  0  0  0  0  0  0
  1  3  1  1  0  0  0
  1  6  1  0  0  0  0
  1  2  1  0  0  0  0
  2 20  1  0  0  0  0
  4 17  1  0  0  0  0
  4  8  1  0  0  0  0
  5 20  2  0  0  0  0
  6  5  1  0  0  0  0
  7  1  1  0  0  0  0
  8  9  1  0  0  0  0
  8 11  1  0  0  0  0
 10  8  1  0  0  0  0
 11 12  1  0  0  0  0
 11 13  1  0  0  0  0
 14 16  1  0  0  0  0
 14 11  1  0  0  0  0
 15 14  1  0  0  0  0
 17 14  1  0  0  0  0
 17 19  1  0  0  0  0
 18 17  1  0  0  0  0
 20  4  1  0  0  0  0
 21 22  1  0  0  0  0
 21  6  1  0  0  0  0
 22 31  1  0  0  0  0
 23 25  1  0  0  0  0
 23 22  2  0  0  0  0
 24 23  1  0  0  0  0
 25 27  2  0  0  0  0
 26 25  1  0  0  0  0
 27 28  1  0  0  0  0
 27 29  1  0  0  0  0
 29 30  1  0  0  0  0
 31 29  2  0  0  0  0
 31 32  1  0  0  0  0
 33  7  1  0  0  0  0
 33 21  2  0  0  0  0
 34 33  1  0  0  0  0
 35 34  1  0  0  0  0
 36 38  1  0  0  0  0
 36 34  2  0  0  0  0
 37 36  1  0  0  0  0
 38 40  2  0  0  0  0
 39 38  1  0  0  0  0
 40 41  1  0  0  0  0
 40  7  1  0  0  0  0
M  END
$$$$
