CSD_code = QALJAR | q = 1 | S = 0 | Stoichiometry = C25H27CdINO2S3(1+) | MND = 7
 OpenBabel04212202083D

 60 65  0  0  1  0  0  0  0  0999 V2000
   -0.4446    4.7435   10.5388 Cd  0  0  2  0  0  0  0  0  0  0  0  0
   -1.3299    3.8126    8.2138 I   0  0  0  0  0  0  0  0  0  0  0  0
    2.3034    3.8642   10.7918 S   0  0  1  0  0  3  0  0  0  0  0  0
    0.4583    5.2296   13.3038 S   0  0  0  0  0  0  0  0  0  0  0  0
   -1.0436    2.3370   12.0761 S   0  0  2  0  0  3  0  0  0  0  0  0
    0.9932    6.5165    9.0874 O   0  0  0  0  0  0  0  0  0  0  0  0
   -2.5795    5.1510   12.1568 O   0  0  0  0  0  0  0  0  0  0  0  0
   -1.3470    7.0518   10.5382 N   0  0  0  0  0  0  0  0  0  0  0  0
    3.2196    5.3756   10.2709 C   0  0  0  0  0  0  0  0  0  0  0  0
    2.7775    6.2341   10.7776 H   0  0  0  0  0  0  0  0  0  0  0  0
    4.2552    5.2335   10.5783 H   0  0  0  0  0  0  0  0  0  0  0  0
    2.7838    3.7658   12.5492 C   0  0  0  0  0  0  0  0  0  0  0  0
    2.4477    2.7790   12.8647 H   0  0  0  0  0  0  0  0  0  0  0  0
    3.8746    3.7822   12.5847 H   0  0  0  0  0  0  0  0  0  0  0  0
   -2.7575    6.5130   12.4662 C   0  0  0  0  0  0  0  0  0  0  0  0
   -2.1943    6.6752   13.3950 H   0  0  0  0  0  0  0  0  0  0  0  0
   -3.8170    6.7238   12.6619 H   0  0  0  0  0  0  0  0  0  0  0  0
   -0.3421    3.9376   14.3122 C   0  0  0  0  0  0  0  0  0  0  0  0
    0.1457    3.9462   15.2885 H   0  0  0  0  0  0  0  0  0  0  0  0
   -1.3629    4.3046   14.4283 H   0  0  0  0  0  0  0  0  0  0  0  0
   -5.0821    4.5747    9.4924 C   0  0  0  0  0  0  0  0  0  0  0  0
   -5.6548    5.1257    8.7638 H   0  0  0  0  0  0  0  0  0  0  0  0
   -4.2436    5.2615   10.3565 C   0  0  0  0  0  0  0  0  0  0  0  0
   -4.1706    6.3367   10.2835 H   0  0  0  0  0  0  0  0  0  0  0  0
    1.9648    6.0621    8.2091 C   0  0  0  0  0  0  0  0  0  0  0  0
   -0.9032    7.9013    9.6090 C   0  0  2  0  0  3  0  0  0  0  0  0
    3.1091    5.4965    8.7868 C   0  0  0  0  0  0  0  0  0  0  0  0
   -2.2373    7.4830   11.4288 C   0  0  0  0  0  0  0  0  0  0  0  0
   -4.4347    2.4988   10.4922 C   0  0  0  0  0  0  0  0  0  0  0  0
   -4.5078    1.4235   10.5465 H   0  0  0  0  0  0  0  0  0  0  0  0
   -2.8505    2.4281   12.4380 C   0  0  0  0  0  0  0  0  0  0  0  0
   -3.1996    1.3991   12.5156 H   0  0  0  0  0  0  0  0  0  0  0  0
   -2.9439    2.9319   13.3992 H   0  0  0  0  0  0  0  0  0  0  0  0
   -1.3149    9.2278    9.5639 C   0  0  0  0  0  0  0  0  0  0  0  0
   -0.9323    9.8871    8.8017 H   0  0  0  0  0  0  0  0  0  0  0  0
   -0.3443    2.5239   13.7523 C   0  0  0  0  0  0  0  0  0  0  0  0
   -0.9205    1.8768   14.4155 H   0  0  0  0  0  0  0  0  0  0  0  0
    0.6649    2.1210   13.6803 H   0  0  0  0  0  0  0  0  0  0  0  0
   -5.1703    3.1963    9.5506 C   0  0  0  0  0  0  0  0  0  0  0  0
   -5.8080    2.6642    8.8641 H   0  0  0  0  0  0  0  0  0  0  0  0
    4.1151    5.0086    7.9657 C   0  0  0  0  0  0  0  0  0  0  0  0
    4.9904    4.5649    8.4158 H   0  0  0  0  0  0  0  0  0  0  0  0
   -2.2240    9.6842   10.5033 C   0  0  0  0  0  0  0  0  0  0  0  0
   -2.5591   10.7094   10.4932 H   0  0  0  0  0  0  0  0  0  0  0  0
   -3.4938    4.5603   11.2877 C   0  0  0  0  0  0  0  0  0  0  0  0
   -3.6033    3.1661   11.3806 C   0  0  0  0  0  0  0  0  0  0  0  0
   -2.7018    8.7937   11.4472 C   0  0  0  0  0  0  0  0  0  0  0  0
   -3.4246    9.0997   12.1867 H   0  0  0  0  0  0  0  0  0  0  0  0
    2.2393    4.8651   13.4503 C   0  0  0  0  0  0  0  0  0  0  0  0
    2.7187    5.8180   13.2205 H   0  0  0  0  0  0  0  0  0  0  0  0
    2.4366    4.6222   14.4952 H   0  0  0  0  0  0  0  0  0  0  0  0
    1.8631    6.1445    6.8273 C   0  0  0  0  0  0  0  0  0  0  0  0
    0.9903    6.5622    6.3538 H   0  0  0  0  0  0  0  0  0  0  0  0
    0.0108    7.3752    8.5360 C   0  0  0  0  0  0  0  0  0  0  0  0
   -0.6126    6.8266    7.8110 H   0  0  0  0  0  0  0  0  0  0  0  0
    0.4977    8.2138    8.0227 H   0  0  0  0  0  0  0  0  0  0  0  0
    4.0109    5.0909    6.5893 C   0  0  0  0  0  0  0  0  0  0  0  0
    4.8025    4.7117    5.9637 H   0  0  0  0  0  0  0  0  0  0  0  0
    2.8823    5.6559    6.0263 C   0  0  0  0  0  0  0  0  0  0  0  0
    2.7821    5.7177    4.9544 H   0  0  0  0  0  0  0  0  0  0  0  0
  1  2  1  6  0  0  0
  1  3  1  0  0  0  0
  1  5  1  0  0  0  0
  3  9  1  6  0  0  0
  3 12  1  0  0  0  0
  4 49  1  0  0  0  0
  4 18  1  0  0  0  0
  5 31  1  1  0  0  0
  5 36  1  0  0  0  0
  7 15  1  0  0  0  0
  8  1  1  0  0  0  0
  8 28  1  0  0  0  0
  9 11  1  0  0  0  0
  9 10  1  0  0  0  0
 12 14  1  0  0  0  0
 12 13  1  0  0  0  0
 12 49  1  0  0  0  0
 15 17  1  0  0  0  0
 15 16  1  0  0  0  0
 18 20  1  0  0  0  0
 18 19  1  0  0  0  0
 21 39  2  0  0  0  0
 21 23  1  0  0  0  0
 22 21  1  0  0  0  0
 23 45  2  0  0  0  0
 24 23  1  0  0  0  0
 25 27  1  0  0  0  0
 25  6  1  0  0  0  0
 26 34  1  6  0  0  0
 26  8  1  0  0  0  0
 27  9  1  0  0  0  0
 28 47  2  0  0  0  0
 28 15  1  0  0  0  0
 29 30  1  0  0  0  0
 29 46  2  0  0  0  0
 31 32  1  0  0  0  0
 31 33  1  0  0  0  0
 34 43  2  0  0  0  0
 35 34  1  0  0  0  0
 36 18  1  0  0  0  0
 36 37  1  0  0  0  0
 38 36  1  0  0  0  0
 39 29  1  0  0  0  0
 40 39  1  0  0  0  0
 41 42  1  0  0  0  0
 41 27  2  0  0  0  0
 43 47  1  0  0  0  0
 44 43  1  0  0  0  0
 45 46  1  0  0  0  0
 45  7  1  0  0  0  0
 46 31  1  0  0  0  0
 47 48  1  0  0  0  0
 49 51  1  0  0  0  0
 50 49  1  0  0  0  0
 52 25  2  0  0  0  0
 53 52  1  0  0  0  0
 54  6  1  0  0  0  0
 54 26  1  0  0  0  0
 55 54  1  0  0  0  0
 56 54  1  0  0  0  0
 57 41  1  0  0  0  0
 58 57  1  0  0  0  0
 59 57  2  0  0  0  0
 59 52  1  0  0  0  0
 60 59  1  0  0  0  0
M  END
$$$$
