CSD_code = QALVIK | q = 0 | S = 0 | Stoichiometry = C11H14AuBrN2 | MND = 2
 OpenBabel04212202083D

 29 30  0  0  0  0  0  0  0  0999 V2000
    4.8035   11.7977    5.3766 Au  0  0  0  0  0  0  0  0  0  0  0  0
    4.8054    9.4399    5.3762 Br  0  0  0  0  0  0  0  0  0  0  0  0
    4.8048   13.8187    5.3763 C   0  0  0  0  0  3  0  0  0  0  0  0
    5.7931   14.6170    5.8239 N   0  0  0  0  0  0  0  0  0  0  0  0
    5.4471   15.9398    5.6615 C   0  0  0  0  0  0  0  0  0  0  0  0
    6.1053   17.1259    5.9518 C   0  0  0  0  0  0  0  0  0  0  0  0
    7.0918   17.1341    6.3873 H   0  0  0  0  0  0  0  0  0  0  0  0
    5.4424   18.3017    5.6586 C   0  0  0  0  0  0  0  0  0  0  0  0
    5.9219   19.2449    5.8702 H   0  0  0  0  0  0  0  0  0  0  0  0
    7.0584   14.1571    6.3380 C   0  0  0  0  0  0  0  0  0  0  0  0
    6.9171   13.1398    6.7120 H   0  0  0  0  0  0  0  0  0  0  0  0
    7.3485   14.8029    7.1712 H   0  0  0  0  0  0  0  0  0  0  0  0
    8.1330   14.1660    5.2549 C   0  0  0  0  0  0  0  0  0  0  0  0
    7.8558   13.4921    4.4476 H   0  0  0  0  0  0  0  0  0  0  0  0
    9.0791   13.8347    5.6728 H   0  0  0  0  0  0  0  0  0  0  0  0
    8.2604   15.1661    4.8461 H   0  0  0  0  0  0  0  0  0  0  0  0
    3.8166   14.6170    4.9288 N   0  0  0  0  0  0  0  0  0  0  0  0
    4.1625   15.9398    5.0913 C   0  0  0  0  0  0  0  0  0  0  0  0
    3.5043   17.1259    4.8010 C   0  0  0  0  0  0  0  0  0  0  0  0
    2.5178   17.1340    4.3656 H   0  0  0  0  0  0  0  0  0  0  0  0
    4.1672   18.3017    5.0942 C   0  0  0  0  0  0  0  0  0  0  0  0
    3.6877   19.2448    4.8826 H   0  0  0  0  0  0  0  0  0  0  0  0
    2.5513   14.1570    4.4148 C   0  0  0  0  0  0  0  0  0  0  0  0
    2.6926   13.1397    4.0409 H   0  0  0  0  0  0  0  0  0  0  0  0
    2.2612   14.8027    3.5816 H   0  0  0  0  0  0  0  0  0  0  0  0
    1.4766   14.1661    5.4978 C   0  0  0  0  0  0  0  0  0  0  0  0
    1.7538   13.4921    6.3052 H   0  0  0  0  0  0  0  0  0  0  0  0
    0.5306   13.8347    5.0799 H   0  0  0  0  0  0  0  0  0  0  0  0
    1.3493   15.1661    5.9066 H   0  0  0  0  0  0  0  0  0  0  0  0
  2  1  1  0  0  0  0
  3  1  1  0  0  0  0
  3  4  1  0  0  0  0
  4 10  1  0  0  0  0
  5  4  1  0  0  0  0
  5  6  1  0  0  0  0
  6  7  1  0  0  0  0
  8  9  1  0  0  0  0
  8  6  2  0  0  0  0
 10 11  1  0  0  0  0
 10 12  1  0  0  0  0
 13 15  1  0  0  0  0
 13 10  1  0  0  0  0
 14 13  1  0  0  0  0
 16 13  1  0  0  0  0
 17 18  1  0  0  0  0
 17  3  1  0  0  0  0
 18  5  2  0  0  0  0
 19 18  1  0  0  0  0
 19 21  2  0  0  0  0
 20 19  1  0  0  0  0
 21  8  1  0  0  0  0
 22 21  1  0  0  0  0
 23 17  1  0  0  0  0
 23 26  1  0  0  0  0
 24 23  1  0  0  0  0
 25 23  1  0  0  0  0
 26 29  1  0  0  0  0
 26 27  1  0  0  0  0
 28 26  1  0  0  0  0
M  END
$$$$
