CSD_code = QALVOQ | q = 0 | S = 0 | Stoichiometry = C15H22AuBrN2 | MND = 2
 OpenBabel04212202083D

 41 42  0  0  0  0  0  0  0  0999 V2000
   19.8780    1.4909    4.0142 Au  0  0  0  0  0  0  0  0  0  0  0  0
   19.8506   -0.2518    2.4236 Br  0  0  0  0  0  0  0  0  0  0  0  0
   19.8642    2.9825    5.3840 C   0  0  0  0  0  3  0  0  0  0  0  0
   19.8268    2.8332    6.7225 N   0  0  0  0  0  0  0  0  0  0  0  0
   19.8606    4.3051    5.1277 N   0  0  0  0  0  0  0  0  0  0  0  0
   19.7985    4.0646    7.3378 C   0  0  0  0  0  0  0  0  0  0  0  0
   19.8207    5.0178    6.3052 C   0  0  0  0  0  0  0  0  0  0  0  0
   19.8192    6.3773    6.5813 C   0  0  0  0  0  0  0  0  0  0  0  0
   19.8451    7.1145    5.7946 H   0  0  0  0  0  0  0  0  0  0  0  0
   19.7897    6.7499    7.9110 C   0  0  0  0  0  0  0  0  0  0  0  0
   19.7867    7.7984    8.1655 H   0  0  0  0  0  0  0  0  0  0  0  0
   19.7669    5.8040    8.9356 C   0  0  0  0  0  0  0  0  0  0  0  0
   19.7467    6.1417    9.9602 H   0  0  0  0  0  0  0  0  0  0  0  0
   19.7732    4.4485    8.6707 C   0  0  0  0  0  0  0  0  0  0  0  0
   19.7635    3.7228    9.4683 H   0  0  0  0  0  0  0  0  0  0  0  0
   19.7669    1.5731    7.4162 C   0  0  0  0  0  0  0  0  0  0  0  0
   20.4627    1.6073    8.2599 H   0  0  0  0  0  0  0  0  0  0  0  0
   20.0938    0.7959    6.7201 H   0  0  0  0  0  0  0  0  0  0  0  0
   18.3519    1.2607    7.9125 C   0  0  0  0  0  0  0  0  0  0  0  0
   18.3969    0.3480    8.5089 H   0  0  0  0  0  0  0  0  0  0  0  0
   18.0062    2.0698    8.5607 H   0  0  0  0  0  0  0  0  0  0  0  0
   17.3588    1.0692    6.7685 C   0  0  0  0  0  0  0  0  0  0  0  0
   17.3034    1.9845    6.1737 H   0  0  0  0  0  0  0  0  0  0  0  0
   17.7113    0.2701    6.1130 H   0  0  0  0  0  0  0  0  0  0  0  0
   15.9687    0.7233    7.2860 C   0  0  0  0  0  0  0  0  0  0  0  0
   15.9969   -0.1956    7.8671 H   0  0  0  0  0  0  0  0  0  0  0  0
   15.2808    0.5828    6.4564 H   0  0  0  0  0  0  0  0  0  0  0  0
   15.5855    1.5202    7.9205 H   0  0  0  0  0  0  0  0  0  0  0  0
   19.8374    4.8962    3.8152 C   0  0  0  0  0  0  0  0  0  0  0  0
   20.1575    4.1316    3.1022 H   0  0  0  0  0  0  0  0  0  0  0  0
   20.5537    5.7230    3.7924 H   0  0  0  0  0  0  0  0  0  0  0  0
   18.4395    5.3992    3.4419 C   0  0  0  0  0  0  0  0  0  0  0  0
   18.1016    6.1231    4.1876 H   0  0  0  0  0  0  0  0  0  0  0  0
   18.5100    5.9135    2.4819 H   0  0  0  0  0  0  0  0  0  0  0  0
   17.4196    4.2677    3.3371 C   0  0  0  0  0  0  0  0  0  0  0  0
   17.3352    3.7601    4.3014 H   0  0  0  0  0  0  0  0  0  0  0  0
   17.7665    3.5337    2.6067 H   0  0  0  0  0  0  0  0  0  0  0  0
   16.0488    4.7860    2.9229 C   0  0  0  0  0  0  0  0  0  0  0  0
   15.6744    5.5052    3.6488 H   0  0  0  0  0  0  0  0  0  0  0  0
   15.3394    3.9655    2.8543 H   0  0  0  0  0  0  0  0  0  0  0  0
   16.1034    5.2735    1.9523 H   0  0  0  0  0  0  0  0  0  0  0  0
  1  3  1  0  0  0  0
  2  1  1  0  0  0  0
  3  4  1  0  0  0  0
  4  6  1  0  0  0  0
  4 16  1  0  0  0  0
  5  3  1  0  0  0  0
  5  7  1  0  0  0  0
  6 14  1  0  0  0  0
  7  8  1  0  0  0  0
  7  6  2  0  0  0  0
  8 10  2  0  0  0  0
  9  8  1  0  0  0  0
 10 11  1  0  0  0  0
 10 12  1  0  0  0  0
 12 13  1  0  0  0  0
 14 12  2  0  0  0  0
 14 15  1  0  0  0  0
 16 19  1  0  0  0  0
 16 17  1  0  0  0  0
 18 16  1  0  0  0  0
 19 20  1  0  0  0  0
 19 21  1  0  0  0  0
 22 25  1  0  0  0  0
 22 19  1  0  0  0  0
 23 22  1  0  0  0  0
 24 22  1  0  0  0  0
 25 26  1  0  0  0  0
 25 28  1  0  0  0  0
 27 25  1  0  0  0  0
 29  5  1  0  0  0  0
 30 29  1  0  0  0  0
 31 29  1  0  0  0  0
 32 29  1  0  0  0  0
 32 33  1  0  0  0  0
 34 32  1  0  0  0  0
 35 32  1  0  0  0  0
 35 36  1  0  0  0  0
 37 35  1  0  0  0  0
 38 35  1  0  0  0  0
 38 39  1  0  0  0  0
 40 38  1  0  0  0  0
 41 38  1  0  0  0  0
M  END
$$$$
