CSD_code = QALWAD | q = 0 | S = 0 | Stoichiometry = C15H22AuBr3N2 | MND = 4
 OpenBabel04212202083D

 43 44  0  0  0  0  0  0  0  0999 V2000
   17.2437   11.0801    4.0375 Au  0  0  0  0  0  0  0  0  0  0  0  0
   15.8175   12.9533    3.3583 Br  0  0  0  0  0  0  0  0  0  0  0  0
   17.9545   12.1823    6.0611 Br  0  0  0  0  0  0  0  0  0  0  0  0
   18.5821    9.0643    4.4767 Br  0  0  0  0  0  0  0  0  0  0  0  0
   16.6644   10.1300    2.3469 C   0  0  0  0  0  0  0  0  0  0  0  0
   15.6401    9.2761    2.2544 N   0  0  0  0  0  0  0  0  0  0  0  0
   17.2826   10.2093    1.1641 N   0  0  0  0  0  0  0  0  0  0  0  0
   15.5767    8.7894    0.9656 C   0  0  0  0  0  0  0  0  0  0  0  0
   16.6345    9.3901    0.2634 C   0  0  0  0  0  0  0  0  0  0  0  0
   16.8671    9.1041   -1.0744 C   0  0  0  0  0  0  0  0  0  0  0  0
   17.6795    9.5584   -1.6177 H   0  0  0  0  0  0  0  0  0  0  0  0
   16.0112    8.2063   -1.6793 C   0  0  0  0  0  0  0  0  0  0  0  0
   16.1576    7.9566   -2.7184 H   0  0  0  0  0  0  0  0  0  0  0  0
   14.9595    7.6095   -0.9814 C   0  0  0  0  0  0  0  0  0  0  0  0
   14.3182    6.9126   -1.4977 H   0  0  0  0  0  0  0  0  0  0  0  0
   14.7217    7.8865    0.3494 C   0  0  0  0  0  0  0  0  0  0  0  0
   13.9104    7.4197    0.8839 H   0  0  0  0  0  0  0  0  0  0  0  0
   14.7024    8.9583    3.3035 C   0  0  0  0  0  0  0  0  0  0  0  0
   15.1798    9.1537    4.2683 H   0  0  0  0  0  0  0  0  0  0  0  0
   14.4788    7.8914    3.2428 H   0  0  0  0  0  0  0  0  0  0  0  0
   13.4270    9.7956    3.1727 C   0  0  0  0  0  0  0  0  0  0  0  0
   13.7023   10.8517    3.1295 H   0  0  0  0  0  0  0  0  0  0  0  0
   12.9255    9.5453    2.2352 H   0  0  0  0  0  0  0  0  0  0  0  0
   12.4702    9.5793    4.3439 C   0  0  0  0  0  0  0  0  0  0  0  0
   12.9909    9.7893    5.2804 H   0  0  0  0  0  0  0  0  0  0  0  0
   11.6574   10.3015    4.2517 H   0  0  0  0  0  0  0  0  0  0  0  0
   11.8832    8.1732    4.3899 C   0  0  0  0  0  0  0  0  0  0  0  0
   11.4047    7.9276    3.4438 H   0  0  0  0  0  0  0  0  0  0  0  0
   11.1346    8.1092    5.1751 H   0  0  0  0  0  0  0  0  0  0  0  0
   12.6484    7.4292    4.5981 H   0  0  0  0  0  0  0  0  0  0  0  0
   18.4008   11.0637    0.8468 C   0  0  0  0  0  0  0  0  0  0  0  0
   19.0940   10.5020    0.2151 H   0  0  0  0  0  0  0  0  0  0  0  0
   18.9189   11.3159    1.7770 H   0  0  0  0  0  0  0  0  0  0  0  0
   17.9413   12.3416    0.1418 C   0  0  0  0  0  0  0  0  0  0  0  0
   17.4436   12.0799   -0.7945 H   0  0  0  0  0  0  0  0  0  0  0  0
   17.2136   12.8597    0.7698 H   0  0  0  0  0  0  0  0  0  0  0  0
   19.1168   13.2733   -0.1407 C   0  0  0  0  0  0  0  0  0  0  0  0
   19.6126   13.5231    0.7995 H   0  0  0  0  0  0  0  0  0  0  0  0
   19.8449   12.7619   -0.7750 H   0  0  0  0  0  0  0  0  0  0  0  0
   18.6517   14.5541   -0.8210 C   0  0  0  0  0  0  0  0  0  0  0  0
   18.1707   14.3312   -1.7708 H   0  0  0  0  0  0  0  0  0  0  0  0
   19.4962   15.2117   -1.0087 H   0  0  0  0  0  0  0  0  0  0  0  0
   17.9391   15.0797   -0.1902 H   0  0  0  0  0  0  0  0  0  0  0  0
  1  4  1  0  0  0  0
  1  3  1  0  0  0  0
  2  1  1  0  0  0  0
  5  1  2  0  0  0  0
  6  5  1  0  0  0  0
  6 18  1  0  0  0  0
  7  5  1  0  0  0  0
  8  6  1  0  0  0  0
  9  8  2  0  0  0  0
  9  7  1  0  0  0  0
 10  9  1  0  0  0  0
 11 10  1  0  0  0  0
 12 10  2  0  0  0  0
 12 14  1  0  0  0  0
 13 12  1  0  0  0  0
 14 16  2  0  0  0  0
 15 14  1  0  0  0  0
 16 17  1  0  0  0  0
 16  8  1  0  0  0  0
 18 19  1  0  0  0  0
 20 18  1  0  0  0  0
 21 18  1  0  0  0  0
 21 24  1  0  0  0  0
 22 21  1  0  0  0  0
 23 21  1  0  0  0  0
 24 27  1  0  0  0  0
 24 25  1  0  0  0  0
 26 24  1  0  0  0  0
 27 30  1  0  0  0  0
 27 29  1  0  0  0  0
 28 27  1  0  0  0  0
 31  7  1  0  0  0  0
 31 33  1  0  0  0  0
 32 31  1  0  0  0  0
 34 36  1  0  0  0  0
 34 31  1  0  0  0  0
 35 34  1  0  0  0  0
 37 34  1  0  0  0  0
 37 38  1  0  0  0  0
 39 37  1  0  0  0  0
 40 43  1  0  0  0  0
 40 37  1  0  0  0  0
 41 40  1  0  0  0  0
 42 40  1  0  0  0  0
M  END
$$$$
