CSD_code = QAMHUJ | q = 0 | S = 0 | Stoichiometry = C15H18Cl2NPPd | MND = 4
 OpenBabel04212202083D

 38 40  0  0  1  0  0  0  0  0999 V2000
    4.2068    8.4756   27.4316 Pd  0  0  0  0  0  0  0  0  0  0  0  0
    4.7614   11.0482   29.7879 C   0  0  0  0  0  0  0  0  0  0  0  0
    3.8032   10.8382   30.2708 H   0  0  0  0  0  0  0  0  0  0  0  0
    5.4707   11.4195   30.5340 H   0  0  0  0  0  0  0  0  0  0  0  0
    4.5578   12.0377   28.6446 C   0  0  0  0  0  0  0  0  0  0  0  0
    5.5058   12.3282   28.1932 H   0  0  0  0  0  0  0  0  0  0  0  0
    4.0585   12.9355   29.0006 H   0  0  0  0  0  0  0  0  0  0  0  0
    3.9263   11.5757   27.8791 H   0  0  0  0  0  0  0  0  0  0  0  0
    5.5297    8.3472   30.5220 C   0  0  0  0  0  0  0  0  0  0  0  0
    6.3432    8.6242   31.6153 C   0  0  0  0  0  0  0  0  0  0  0  0
    6.9113    9.5435   31.6473 H   0  0  0  0  0  0  0  0  0  0  0  0
    6.4223    7.7184   32.6577 C   0  0  0  0  0  0  0  0  0  0  0  0
    7.0509    7.9317   33.5097 H   0  0  0  0  0  0  0  0  0  0  0  0
    5.6932    6.5401   32.6133 C   0  0  0  0  0  0  0  0  0  0  0  0
    5.7564    5.8394   33.4324 H   0  0  0  0  0  0  0  0  0  0  0  0
    4.8821    6.2599   31.5249 C   0  0  0  0  0  0  0  0  0  0  0  0
    4.3139    5.3424   31.4955 H   0  0  0  0  0  0  0  0  0  0  0  0
    4.8011    7.1611   30.4788 C   0  0  0  0  0  0  0  0  0  0  0  0
    4.1586    6.9633   29.6128 H   0  0  0  0  0  0  0  0  0  0  0  0
    7.0760    9.8268   28.5332 C   0  0  0  0  0  0  0  0  0  0  0  0
    7.3480   10.8438   28.8237 H   0  0  0  0  0  0  0  0  0  0  0  0
    7.7830    9.1314   28.9927 H   0  0  0  0  0  0  0  0  0  0  0  0
    7.1163    9.6878   27.0003 C   0  0  0  0  0  0  0  0  0  0  0  0
    6.2372   10.1959   26.5701 H   0  0  0  0  0  0  0  0  0  0  0  0
    8.0217   10.1476   26.6000 H   0  0  0  0  0  0  0  0  0  0  0  0
    7.0707    8.2358   26.6181 C   0  0  1  0  0  3  0  0  0  0  0  0
    8.2080    7.5667   26.1862 C   0  0  0  0  0  0  0  0  0  0  0  0
    9.1364    8.1061   26.0779 H   0  0  0  0  0  0  0  0  0  0  0  0
    8.1369    6.2151   25.8905 C   0  0  0  0  0  0  0  0  0  0  0  0
    9.0095    5.6830   25.5439 H   0  0  0  0  0  0  0  0  0  0  0  0
    6.9233    5.5656   26.0524 C   0  0  0  0  0  0  0  0  0  0  0  0
    6.8191    4.5142   25.8389 H   0  0  0  0  0  0  0  0  0  0  0  0
    5.8306    6.2941   26.4869 C   0  0  0  0  0  0  0  0  0  0  0  0
    4.8547    5.8322   26.6036 H   0  0  0  0  0  0  0  0  0  0  0  0
    2.3189    9.3149   28.2704 Cl  0  0  0  0  0  0  0  0  0  0  0  0
    3.0758    7.5551   25.6964 Cl  0  0  0  0  0  0  0  0  0  0  0  0
    5.9040    7.5980   26.7533 N   0  0  0  0  0  0  0  0  0  0  0  0
    5.3430    9.4518   29.0957 P   0  0  1  0  0  4  0  0  0  0  0  0
  1 35  1  0  0  0  0
  1 38  1  0  0  0  0
  2  3  1  0  0  0  0
  2  4  1  0  0  0  0
  5  7  1  0  0  0  0
  5  2  1  0  0  0  0
  6  5  1  0  0  0  0
  8  5  1  0  0  0  0
  9 10  1  0  0  0  0
 10 11  1  0  0  0  0
 10 12  2  0  0  0  0
 12 13  1  0  0  0  0
 14 12  1  0  0  0  0
 14 15  1  0  0  0  0
 16 14  2  0  0  0  0
 17 16  1  0  0  0  0
 18  9  2  0  0  0  0
 18 16  1  0  0  0  0
 19 18  1  0  0  0  0
 20 21  1  0  0  0  0
 20 22  1  0  0  0  0
 20 38  1  0  0  0  0
 23 20  1  0  0  0  0
 24 23  1  0  0  0  0
 25 23  1  0  0  0  0
 26 27  1  1  0  0  0
 26 37  1  0  0  0  0
 26 23  1  0  0  0  0
 28 27  1  0  0  0  0
 29 31  1  0  0  0  0
 29 27  2  0  0  0  0
 30 29  1  0  0  0  0
 31 33  2  0  0  0  0
 32 31  1  0  0  0  0
 33 34  1  0  0  0  0
 33 37  1  0  0  0  0
 36  1  1  0  0  0  0
 37  1  1  0  0  0  0
 38  2  1  1  0  0  0
 38  9  1  0  0  0  0
M  END
$$$$
