CSD_code = QAMHET | q = 0 | S = 0 | Stoichiometry = C23H26Cl2P2Pd | MND = 4
 OpenBabel04212202083D

 54 57  0  0  1  0  0  0  0  0999 V2000
    9.5577    3.7443    1.5088 Pd  0  0  0  0  0  0  0  0  0  0  0  0
    8.7919    1.4477    4.3176 C   0  0  0  0  0  0  0  0  0  0  0  0
    7.7922    1.2597    3.9248 H   0  0  0  0  0  0  0  0  0  0  0  0
    9.0097    0.7028    5.0794 H   0  0  0  0  0  0  0  0  0  0  0  0
    9.5168    1.3345    3.5066 H   0  0  0  0  0  0  0  0  0  0  0  0
    8.9054    2.8574    4.8920 C   0  0  0  0  0  0  0  0  0  0  0  0
    9.9151    3.0226    5.2785 H   0  0  0  0  0  0  0  0  0  0  0  0
    8.1758    3.0265    5.6887 H   0  0  0  0  0  0  0  0  0  0  0  0
    9.2543    5.6697    4.1158 C   0  0  0  0  0  0  0  0  0  0  0  0
    9.1736    6.0844    5.4416 C   0  0  0  0  0  0  0  0  0  0  0  0
    8.7449    5.4321    6.1885 H   0  0  0  0  0  0  0  0  0  0  0  0
    9.6568    7.3291    5.8039 C   0  0  0  0  0  0  0  0  0  0  0  0
    9.5988    7.6480    6.8344 H   0  0  0  0  0  0  0  0  0  0  0  0
   10.2209    8.1627    4.8517 C   0  0  0  0  0  0  0  0  0  0  0  0
   10.6002    9.1312    5.1417 H   0  0  0  0  0  0  0  0  0  0  0  0
   10.3143    7.7503    3.5316 C   0  0  0  0  0  0  0  0  0  0  0  0
   10.7698    8.3944    2.7944 H   0  0  0  0  0  0  0  0  0  0  0  0
    9.8369    6.5060    3.1626 C   0  0  0  0  0  0  0  0  0  0  0  0
    9.9410    6.1613    2.1224 H   0  0  0  0  0  0  0  0  0  0  0  0
    6.8175    4.2383    3.3455 C   0  0  1  0  0  0  0  0  0  0  0  0
    6.4395    3.2073    3.2765 H   0  0  0  0  0  0  0  0  0  0  0  0
    6.1421    4.9489    4.5122 C   0  0  0  0  0  0  0  0  0  0  0  0
    6.5077    5.9703    4.6034 H   0  0  0  0  0  0  0  0  0  0  0  0
    6.3317    4.4297    5.4489 H   0  0  0  0  0  0  0  0  0  0  0  0
    5.0643    4.9816    4.3597 H   0  0  0  0  0  0  0  0  0  0  0  0
    6.5346    4.9464    2.0192 C   0  0  0  0  0  0  0  0  0  0  0  0
    6.8421    5.9968    2.0949 H   0  0  0  0  0  0  0  0  0  0  0  0
    5.4676    4.9086    1.7768 H   0  0  0  0  0  0  0  0  0  0  0  0
    7.0539    5.0174   -0.8617 C   0  0  0  0  0  0  0  0  0  0  0  0
    6.2976    6.1830   -0.9118 C   0  0  0  0  0  0  0  0  0  0  0  0
    5.9377    6.6459   -0.0041 H   0  0  0  0  0  0  0  0  0  0  0  0
    6.0049    6.7552   -2.1377 C   0  0  0  0  0  0  0  0  0  0  0  0
    5.4130    7.6585   -2.1781 H   0  0  0  0  0  0  0  0  0  0  0  0
    6.4711    6.1788   -3.3078 C   0  0  0  0  0  0  0  0  0  0  0  0
    6.2410    6.6340   -4.2598 H   0  0  0  0  0  0  0  0  0  0  0  0
    7.2411    5.0264   -3.2576 C   0  0  0  0  0  0  0  0  0  0  0  0
    7.6166    4.5855   -4.1686 H   0  0  0  0  0  0  0  0  0  0  0  0
    7.5354    4.4461   -2.0394 C   0  0  0  0  0  0  0  0  0  0  0  0
    8.1596    3.5641   -1.9785 H   0  0  0  0  0  0  0  0  0  0  0  0
    6.7532    2.5390    0.4726 C   0  0  0  0  0  0  0  0  0  0  0  0
    5.4204    2.4052    0.0956 C   0  0  0  0  0  0  0  0  0  0  0  0
    4.8306    3.2879   -0.1128 H   0  0  0  0  0  0  0  0  0  0  0  0
    4.8623    1.1460   -0.0243 C   0  0  0  0  0  0  0  0  0  0  0  0
    3.8280    1.0413   -0.3176 H   0  0  0  0  0  0  0  0  0  0  0  0
    5.6301    0.0189    0.2256 C   0  0  0  0  0  0  0  0  0  0  0  0
    5.1900   -0.9624    0.1290 H   0  0  0  0  0  0  0  0  0  0  0  0
    6.9620    0.1471    0.5864 C   0  0  0  0  0  0  0  0  0  0  0  0
    7.5607   -0.7332    0.7666 H   0  0  0  0  0  0  0  0  0  0  0  0
    7.5271    1.4046    0.7083 C   0  0  0  0  0  0  0  0  0  0  0  0
    8.5908    1.5153    0.9663 H   0  0  0  0  0  0  0  0  0  0  0  0
   11.4485    3.2249    2.6615 Cl  0  0  0  0  0  0  0  0  0  0  0  0
   10.5352    3.5816   -0.5333 Cl  0  0  0  0  0  0  0  0  0  0  0  0
    8.6750    4.0558    3.5259 P   0  0  1  0  0  4  0  0  0  0  0  0
    7.5325    4.1722    0.6657 P   0  0  0  0  0  4  0  0  0  0  0  0
  1 51  1  0  0  0  0
  1 53  1  0  0  0  0
  2  6  1  0  0  0  0
  2  4  1  0  0  0  0
  3  2  1  0  0  0  0
  5  2  1  0  0  0  0
  6  7  1  0  0  0  0
  6  8  1  0  0  0  0
  9 10  1  0  0  0  0
 10 12  2  0  0  0  0
 10 11  1  0  0  0  0
 12 13  1  0  0  0  0
 14 15  1  0  0  0  0
 14 12  1  0  0  0  0
 16 14  2  0  0  0  0
 17 16  1  0  0  0  0
 18 16  1  0  0  0  0
 18  9  2  0  0  0  0
 19 18  1  0  0  0  0
 20 21  1  6  0  0  0
 20 53  1  0  0  0  0
 20 22  1  0  0  0  0
 22 23  1  0  0  0  0
 22 24  1  0  0  0  0
 25 22  1  0  0  0  0
 26 27  1  0  0  0  0
 26 20  1  0  0  0  0
 28 26  1  0  0  0  0
 29 54  1  0  0  0  0
 30 29  1  0  0  0  0
 30 31  1  0  0  0  0
 32 30  2  0  0  0  0
 33 32  1  0  0  0  0
 34 36  2  0  0  0  0
 34 32  1  0  0  0  0
 35 34  1  0  0  0  0
 36 38  1  0  0  0  0
 37 36  1  0  0  0  0
 38 39  1  0  0  0  0
 38 29  2  0  0  0  0
 40 54  1  0  0  0  0
 40 49  1  0  0  0  0
 41 40  2  0  0  0  0
 42 41  1  0  0  0  0
 43 41  1  0  0  0  0
 43 45  2  0  0  0  0
 44 43  1  0  0  0  0
 45 47  1  0  0  0  0
 46 45  1  0  0  0  0
 47 49  2  0  0  0  0
 47 48  1  0  0  0  0
 49 50  1  0  0  0  0
 52  1  1  0  0  0  0
 53  9  1  0  0  0  0
 53  6  1  1  0  0  0
 54  1  1  0  0  0  0
 54 26  1  0  0  0  0
M  END
$$$$
