CSD_code = QAMSAA | q = 0 | S = 0 | Stoichiometry = C21H25Cl2N3Zn | MND = 4
 OpenBabel04212202083D

 52 55  0  0  1  0  0  0  0  0999 V2000
    8.6135    2.0414    6.0844 Zn  0  0  0  0  0  0  0  0  0  0  0  0
    6.7745    1.7195    4.9085 Cl  0  0  0  0  0  0  0  0  0  0  0  0
   10.6883    2.5623    5.5004 Cl  0  0  0  0  0  0  0  0  0  0  0  0
    9.0457    0.6418    7.5754 N   0  0  2  0  0  0  0  0  0  0  0  0
    9.0745    0.9132    8.8841 N   0  0  0  0  0  0  0  0  0  0  0  0
    8.0667    3.6606    7.5382 N   0  0  0  0  0  4  0  0  0  0  0  0
    9.1609   -0.9568    5.0980 C   0  0  0  0  0  0  0  0  0  0  0  0
    8.1463   -0.7654    5.4165 H   0  0  0  0  0  0  0  0  0  0  0  0
    9.4120   -1.3936    3.8101 C   0  0  0  0  0  0  0  0  0  0  0  0
    8.5927   -1.5030    3.1155 H   0  0  0  0  0  0  0  0  0  0  0  0
   10.7067   -1.6835    3.4126 C   0  0  0  0  0  0  0  0  0  0  0  0
   10.9012   -2.0145    2.4032 H   0  0  0  0  0  0  0  0  0  0  0  0
   11.7529   -1.5473    4.3105 C   0  0  0  0  0  0  0  0  0  0  0  0
   12.7633   -1.7713    4.0013 H   0  0  0  0  0  0  0  0  0  0  0  0
   11.5105   -1.1122    5.5992 C   0  0  0  0  0  0  0  0  0  0  0  0
   12.3284   -0.9778    6.2911 H   0  0  0  0  0  0  0  0  0  0  0  0
   10.2128   -0.8029    6.0000 C   0  0  0  0  0  0  0  0  0  0  0  0
    9.9672   -0.2920    7.3407 C   0  0  1  0  0  3  0  0  0  0  0  0
   10.6064   -0.6225    8.5425 C   0  0  0  0  0  0  0  0  0  0  0  0
   11.3709   -1.3564    8.6920 H   0  0  0  0  0  0  0  0  0  0  0  0
   10.0086    0.1626    9.5119 C   0  0  0  0  0  0  0  0  0  0  0  0
   10.2696    0.1903   10.9488 C   0  0  0  0  0  0  0  0  0  0  0  0
   11.5796    0.3192   11.4038 C   0  0  0  0  0  0  0  0  0  0  0  0
   12.3793    0.4253   10.6865 H   0  0  0  0  0  0  0  0  0  0  0  0
   11.8490    0.3236   12.7597 C   0  0  0  0  0  0  0  0  0  0  0  0
   12.8670    0.4278   13.1037 H   0  0  0  0  0  0  0  0  0  0  0  0
   10.8177    0.1917   13.6750 C   0  0  0  0  0  0  0  0  0  0  0  0
   11.0295    0.1941   14.7335 H   0  0  0  0  0  0  0  0  0  0  0  0
    9.5144    0.0464   13.2296 C   0  0  0  0  0  0  0  0  0  0  0  0
    8.7095   -0.0712   13.9397 H   0  0  0  0  0  0  0  0  0  0  0  0
    9.2382    0.0446   11.8744 C   0  0  0  0  0  0  0  0  0  0  0  0
    8.2239   -0.1026   11.5315 H   0  0  0  0  0  0  0  0  0  0  0  0
    8.2814    1.9818    9.4258 C   0  0  0  0  0  0  0  0  0  0  0  0
    8.4579    2.0056   10.5031 H   0  0  0  0  0  0  0  0  0  0  0  0
    7.2250    1.7666    9.2452 H   0  0  0  0  0  0  0  0  0  0  0  0
    8.6666    3.3468    8.8400 C   0  0  0  0  0  0  0  0  0  0  0  0
    8.4079    4.1227    9.5734 H   0  0  0  0  0  0  0  0  0  0  0  0
    9.7528    3.3624    8.7102 H   0  0  0  0  0  0  0  0  0  0  0  0
    8.6994    4.9009    7.0468 C   0  0  0  0  0  0  0  0  0  0  0  0
    9.7659    4.6883    6.9436 H   0  0  0  0  0  0  0  0  0  0  0  0
    8.5800    5.7037    7.7876 H   0  0  0  0  0  0  0  0  0  0  0  0
    8.1808    5.3624    5.6938 C   0  0  0  0  0  0  0  0  0  0  0  0
    8.8443    6.1330    5.3095 H   0  0  0  0  0  0  0  0  0  0  0  0
    7.1772    5.7752    5.7538 H   0  0  0  0  0  0  0  0  0  0  0  0
    8.1826    4.5344    4.9864 H   0  0  0  0  0  0  0  0  0  0  0  0
    6.5988    3.7734    7.5989 C   0  0  0  0  0  0  0  0  0  0  0  0
    6.1941    2.7977    7.8726 H   0  0  0  0  0  0  0  0  0  0  0  0
    6.2524    3.9638    6.5841 H   0  0  0  0  0  0  0  0  0  0  0  0
    6.0310    4.8361    8.5379 C   0  0  0  0  0  0  0  0  0  0  0  0
    4.9488    4.8361    8.4378 H   0  0  0  0  0  0  0  0  0  0  0  0
    6.3896    5.8297    8.2836 H   0  0  0  0  0  0  0  0  0  0  0  0
    6.2689    4.6324    9.5796 H   0  0  0  0  0  0  0  0  0  0  0  0
  1  6  1  0  0  0  0
  1  4  1  0  0  0  0
  2  1  1  0  0  0  0
  3  1  1  0  0  0  0
  4  5  1  1  0  0  0
  5 33  1  0  0  0  0
  5 21  1  0  0  0  0
  6 46  1  0  0  0  0
  6 36  1  0  0  0  0
  7  8  1  0  0  0  0
  7 17  1  0  0  0  0
  9  7  2  0  0  0  0
 10  9  1  0  0  0  0
 11  9  1  0  0  0  0
 11 13  2  0  0  0  0
 12 11  1  0  0  0  0
 13 15  1  0  0  0  0
 14 13  1  0  0  0  0
 15 17  2  0  0  0  0
 15 16  1  0  0  0  0
 18 17  1  6  0  0  0
 18  4  1  0  0  0  0
 18 19  1  0  0  0  0
 19 20  1  0  0  0  0
 19 21  2  0  0  0  0
 21 22  1  0  0  0  0
 22 23  2  0  0  0  0
 22 31  1  0  0  0  0
 23 25  1  0  0  0  0
 24 23  1  0  0  0  0
 25 26  1  0  0  0  0
 25 27  2  0  0  0  0
 27 28  1  0  0  0  0
 29 27  1  0  0  0  0
 29 30  1  0  0  0  0
 31 29  2  0  0  0  0
 32 31  1  0  0  0  0
 33 34  1  0  0  0  0
 35 33  1  0  0  0  0
 36 33  1  0  0  0  0
 36 37  1  0  0  0  0
 38 36  1  0  0  0  0
 39  6  1  0  0  0  0
 39 41  1  0  0  0  0
 40 39  1  0  0  0  0
 42 44  1  0  0  0  0
 42 39  1  0  0  0  0
 43 42  1  0  0  0  0
 45 42  1  0  0  0  0
 46 47  1  0  0  0  0
 46 49  1  0  0  0  0
 48 46  1  0  0  0  0
 49 52  1  0  0  0  0
 50 49  1  0  0  0  0
 51 49  1  0  0  0  0
M  END
$$$$
