CSD_code = QANDOZ | q = 0 | S = 0 | Stoichiometry = C17H12BrN2O4Re | MND = 6
 OpenBabel04212202083D

 37 40  0  0  1  0  0  0  0  0999 V2000
   -1.0605   13.2094    1.6227 Re  0  0  0  0  0  0  0  0  0  0  0  0
   -2.7361   11.3498    1.4974 Br  0  0  0  0  0  0  0  0  0  0  0  0
   -0.9938   12.8729   -0.7026 N   0  0  0  0  0  0  0  0  0  0  0  0
    1.3121   10.7669   -0.1292 N   0  0  1  0  0  0  0  0  0  0  0  0
   -1.2318   13.1904    4.7054 O   0  0  0  0  0  1  0  0  0  0  0  0
    1.3186   15.1730    1.5357 O   0  0  0  0  0  1  0  0  0  0  0  0
   -3.1134   15.5008    1.3654 O   0  0  0  0  0  1  0  0  0  0  0  0
    0.3562   11.3714    1.8663 O   0  0  0  0  0  0  0  0  0  0  0  0
   -1.1562   13.2547    3.5677 C   0  0  0  0  0  2  0  0  0  0  0  0
    0.4322   14.4400    1.5665 C   0  0  0  0  0  2  0  0  0  0  0  0
   -2.3315   14.6638    1.4664 C   0  0  0  0  0  2  0  0  0  0  0  0
   -2.1605   13.0786   -1.3168 C   0  0  0  0  0  3  0  0  0  0  0  0
   -2.9638   13.4853   -0.7169 H   0  0  0  0  0  0  0  0  0  0  0  0
   -2.3817   12.7867   -2.6498 C   0  0  0  0  0  0  0  0  0  0  0  0
   -3.3498   12.9739   -3.0841 H   0  0  0  0  0  0  0  0  0  0  0  0
   -1.3464   12.2494   -3.3958 C   0  0  0  0  0  0  0  0  0  0  0  0
   -1.4780   11.9995   -4.4374 H   0  0  0  0  0  0  0  0  0  0  0  0
   -0.1328   12.0404   -2.7659 C   0  0  0  0  0  0  0  0  0  0  0  0
    0.7071   11.6308   -3.3066 H   0  0  0  0  0  0  0  0  0  0  0  0
    0.0111   12.3657   -1.4222 C   0  0  0  0  0  0  0  0  0  0  0  0
    1.3249   12.0795   -0.7329 C   0  0  0  0  0  0  0  0  0  0  0  0
    2.1476   12.1283   -1.4504 H   0  0  0  0  0  0  0  0  0  0  0  0
    1.5003   12.8180    0.0588 H   0  0  0  0  0  0  0  0  0  0  0  0
    0.8249   10.5296    1.1150 C   0  0  2  0  0  3  0  0  0  0  0  0
    0.9876    9.0919    1.3634 C   0  0  0  0  0  0  0  0  0  0  0  0
    1.5391    8.5088    0.2214 C   0  0  0  0  0  0  0  0  0  0  0  0
    1.7556    9.5733   -0.8113 C   0  0  0  0  0  0  0  0  0  0  0  0
    2.8083    9.6624   -1.1060 H   0  0  0  0  0  0  0  0  0  0  0  0
    1.1586    9.3885   -1.7133 H   0  0  0  0  0  0  0  0  0  0  0  0
    0.6561    8.3397    2.4769 C   0  0  0  0  0  0  0  0  0  0  0  0
    0.2159    8.8077    3.3432 H   0  0  0  0  0  0  0  0  0  0  0  0
    0.9021    6.9775    2.4279 C   0  0  0  0  0  0  0  0  0  0  0  0
    0.6550    6.3591    3.2770 H   0  0  0  0  0  0  0  0  0  0  0  0
    1.4591    6.3952    1.2972 C   0  0  0  0  0  0  0  0  0  0  0  0
    1.6409    5.3310    1.2838 H   0  0  0  0  0  0  0  0  0  0  0  0
    1.7818    7.1522    0.1783 C   0  0  0  0  0  0  0  0  0  0  0  0
    2.2072    6.6882   -0.6988 H   0  0  0  0  0  0  0  0  0  0  0  0
  1  8  1  0  0  0  0
  1  9  1  0  0  0  0
  2  1  1  0  0  0  0
  3  1  1  0  0  0  0
  4 27  1  6  0  0  0
  4 24  1  0  0  0  0
  6 10  1  0  0  0  0
  7 11  1  0  0  0  0
  9  5  1  0  0  0  0
 10  1  1  0  0  0  0
 11  1  1  0  0  0  0
 12 13  1  0  0  0  0
 12  3  1  0  0  0  0
 14 12  1  0  0  0  0
 15 14  1  0  0  0  0
 16 18  1  0  0  0  0
 16 14  2  0  0  0  0
 17 16  1  0  0  0  0
 18 20  2  0  0  0  0
 19 18  1  0  0  0  0
 20 21  1  0  0  0  0
 20  3  1  0  0  0  0
 21  4  1  0  0  0  0
 21 23  1  0  0  0  0
 22 21  1  0  0  0  0
 24 25  1  1  0  0  0
 24  8  1  0  0  0  0
 25 30  1  0  0  0  0
 26 25  2  0  0  0  0
 27 26  1  0  0  0  0
 28 27  1  0  0  0  0
 29 27  1  0  0  0  0
 30 31  1  0  0  0  0
 32 30  2  0  0  0  0
 32 33  1  0  0  0  0
 34 32  1  0  0  0  0
 35 34  1  0  0  0  0
 36 26  1  0  0  0  0
 36 34  2  0  0  0  0
 37 36  1  0  0  0  0
M  END
$$$$
