CSD_code = QANHAO | q = 1 | S = 0 | Stoichiometry = C28H27ClN4O2PRu(1+) | MND = 6
 OpenBabel04212202083D

 64 70  0  0  1  0  0  0  0  0999 V2000
    2.0721    4.8161    5.6838 Ru  0  0  0  0  0  0  0  0  0  0  0  0
    3.5644    6.3559    4.6288 Cl  0  0  0  0  0  0  0  0  0  0  0  0
    2.9003    3.2344    4.2057 P   0  0  2  0  0  4  0  0  0  0  0  0
    4.1206    3.7526    3.3364 O   0  0  0  0  0  0  0  0  0  0  0  0
    4.2388    4.7195    3.4689 H   0  0  0  0  0  0  0  0  0  0  0  0
    1.7393    2.8932    3.1348 O   0  0  0  0  0  0  0  0  0  0  0  0
    2.0174    2.0907    1.9762 C   0  0  0  0  0  0  0  0  0  0  0  0
    2.0000    1.0348    2.2659 H   0  0  0  0  0  0  0  0  0  0  0  0
    3.0133    2.3347    1.5940 H   0  0  0  0  0  0  0  0  0  0  0  0
    0.9537    2.3861    0.9349 C   0  0  0  0  0  0  0  0  0  0  0  0
    0.9835    3.4366    0.6567 H   0  0  0  0  0  0  0  0  0  0  0  0
   -0.0329    2.1576    1.3309 H   0  0  0  0  0  0  0  0  0  0  0  0
    1.1307    1.7799    0.0514 H   0  0  0  0  0  0  0  0  0  0  0  0
    3.4932    1.5662    4.6549 C   0  0  0  0  0  0  0  0  0  0  0  0
    4.8126    1.1688    4.4884 C   0  0  0  0  0  0  0  0  0  0  0  0
    5.5302    1.8598    4.0718 H   0  0  0  0  0  0  0  0  0  0  0  0
    5.1923   -0.1134    4.8476 C   0  0  0  0  0  0  0  0  0  0  0  0
    6.2159   -0.4275    4.7110 H   0  0  0  0  0  0  0  0  0  0  0  0
    4.2623   -0.9920    5.3790 C   0  0  0  0  0  0  0  0  0  0  0  0
    4.5625   -1.9905    5.6576 H   0  0  0  0  0  0  0  0  0  0  0  0
    2.9449   -0.5942    5.5502 C   0  0  0  0  0  0  0  0  0  0  0  0
    2.2202   -1.2816    5.9597 H   0  0  0  0  0  0  0  0  0  0  0  0
    2.5617    0.6847    5.1916 C   0  0  0  0  0  0  0  0  0  0  0  0
    1.5347    1.0084    5.3074 H   0  0  0  0  0  0  0  0  0  0  0  0
    3.5478    4.7027    7.0396 N   0  0  0  0  0  0  0  0  0  0  0  0
    4.5251    3.7983    7.0870 C   0  0  0  0  0  3  0  0  0  0  0  0
    4.3994    2.9198    6.4659 H   0  0  0  0  0  0  0  0  0  0  0  0
    5.6531    3.9429    7.8717 C   0  0  0  0  0  0  0  0  0  0  0  0
    6.4152    3.1812    7.8603 H   0  0  0  0  0  0  0  0  0  0  0  0
    5.7852    5.0841    8.6517 C   0  0  0  0  0  0  0  0  0  0  0  0
    6.6593    5.2396    9.2634 H   0  0  0  0  0  0  0  0  0  0  0  0
    4.7690    6.0203    8.6255 C   0  0  0  0  0  0  0  0  0  0  0  0
    4.8454    6.9158    9.2189 H   0  0  0  0  0  0  0  0  0  0  0  0
    3.6562    5.8080    7.8132 C   0  0  0  0  0  0  0  0  0  0  0  0
    2.5189    6.7235    7.7283 C   0  0  2  0  0  3  0  0  0  0  0  0
    2.4021    7.9007    8.4669 C   0  0  0  0  0  0  0  0  0  0  0  0
    3.1937    8.2083    9.1292 H   0  0  0  0  0  0  0  0  0  0  0  0
    1.2688    8.6797    8.3342 C   0  0  0  0  0  0  0  0  0  0  0  0
    1.1670    9.5990    8.8881 H   0  0  0  0  0  0  0  0  0  0  0  0
    0.2658    8.2529    7.4733 C   0  0  0  0  0  0  0  0  0  0  0  0
   -0.6384    8.8242    7.3424 H   0  0  0  0  0  0  0  0  0  0  0  0
    0.4498    7.0790    6.7686 C   0  0  0  0  0  0  0  0  0  0  0  0
   -0.3134    6.7271    6.0841 H   0  0  0  0  0  0  0  0  0  0  0  0
    1.5461    6.3310    6.8777 N   0  0  0  0  0  0  0  0  0  0  0  0
    0.5785    5.0373    4.3844 N   0  0  0  0  0  0  0  0  0  0  0  0
   -0.4682    4.2029    4.5608 C   0  0  1  0  0  3  0  0  0  0  0  0
   -1.5297    4.1740    3.6582 C   0  0  0  0  0  0  0  0  0  0  0  0
   -2.3538    3.4961    3.8072 H   0  0  0  0  0  0  0  0  0  0  0  0
    0.5872    5.8493    3.3313 C   0  0  0  0  0  0  0  0  0  0  0  0
    1.4516    6.4953    3.2334 H   0  0  0  0  0  0  0  0  0  0  0  0
   -0.4326    5.8739    2.3984 C   0  0  0  0  0  0  0  0  0  0  0  0
   -0.3772    6.5471    1.5587 H   0  0  0  0  0  0  0  0  0  0  0  0
   -1.5122    5.0161    2.5620 C   0  0  0  0  0  0  0  0  0  0  0  0
   -2.3204    5.0025    1.8480 H   0  0  0  0  0  0  0  0  0  0  0  0
    0.9515    2.8378    7.5777 C   0  0  0  0  0  3  0  0  0  0  0  0
    1.8758    3.0140    8.1148 H   0  0  0  0  0  0  0  0  0  0  0  0
    0.0335    1.9159    8.0384 C   0  0  0  0  0  0  0  0  0  0  0  0
    0.2291    1.3672    8.9448 H   0  0  0  0  0  0  0  0  0  0  0  0
   -1.1345    1.7111    7.3120 C   0  0  0  0  0  0  0  0  0  0  0  0
   -1.8703    0.9947    7.6396 H   0  0  0  0  0  0  0  0  0  0  0  0
   -0.3656    3.3657    5.7515 C   0  0  0  0  0  0  0  0  0  0  0  0
   -1.3327    2.4482    6.1599 C   0  0  0  0  0  0  0  0  0  0  0  0
   -2.2300    2.3135    5.5793 H   0  0  0  0  0  0  0  0  0  0  0  0
    0.7727    3.5473    6.4619 N   0  0  0  0  0  0  0  0  0  0  0  0
  1 64  1  0  0  0  0
  1 44  1  0  0  0  0
  1 25  1  0  0  0  0
  2  1  1  0  0  0  0
  3  6  1  6  0  0  0
  3 14  1  0  0  0  0
  3  1  1  0  0  0  0
  4  5  1  0  0  0  0
  4  3  1  0  0  0  0
  7  8  1  0  0  0  0
  7  6  1  0  0  0  0
  9  7  1  0  0  0  0
 10 12  1  0  0  0  0
 10  7  1  0  0  0  0
 11 10  1  0  0  0  0
 13 10  1  0  0  0  0
 14 23  1  0  0  0  0
 15 14  2  0  0  0  0
 15 17  1  0  0  0  0
 16 15  1  0  0  0  0
 17 19  2  0  0  0  0
 18 17  1  0  0  0  0
 19 21  1  0  0  0  0
 19 20  1  0  0  0  0
 21 22  1  0  0  0  0
 23 24  1  0  0  0  0
 23 21  2  0  0  0  0
 25 26  1  0  0  0  0
 25 34  1  0  0  0  0
 26 28  1  0  0  0  0
 27 26  1  0  0  0  0
 28 30  2  0  0  0  0
 29 28  1  0  0  0  0
 30 31  1  0  0  0  0
 32 30  1  0  0  0  0
 32 33  1  0  0  0  0
 34 32  2  0  0  0  0
 35 34  1  1  0  0  0
 35 36  1  0  0  0  0
 36 37  1  0  0  0  0
 38 36  2  0  0  0  0
 38 39  1  0  0  0  0
 40 38  1  0  0  0  0
 41 40  1  0  0  0  0
 42 44  1  0  0  0  0
 42 40  2  0  0  0  0
 43 42  1  0  0  0  0
 44 35  1  0  0  0  0
 45 46  1  0  0  0  0
 45  1  1  0  0  0  0
 46 47  1  6  0  0  0
 46 61  1  0  0  0  0
 47 48  1  0  0  0  0
 49 45  1  0  0  0  0
 50 49  1  0  0  0  0
 51 53  1  0  0  0  0
 51 49  2  0  0  0  0
 52 51  1  0  0  0  0
 53 47  2  0  0  0  0
 54 53  1  0  0  0  0
 55 57  1  0  0  0  0
 55 56  1  0  0  0  0
 57 58  1  0  0  0  0
 59 60  1  0  0  0  0
 59 57  2  0  0  0  0
 61 62  2  0  0  0  0
 61 64  1  0  0  0  0
 62 59  1  0  0  0  0
 63 62  1  0  0  0  0
 64 55  1  0  0  0  0
M  END
$$$$
