CSD_code = QAPFOC | q = 0 | S = 0 | Stoichiometry = C23H41IP2Pt | MND = 4
 OpenBabel04212202083D

 68 70  0  0  0  0  0  0  0  0999 V2000
   -1.2681    3.0327   12.3746 Pt  0  0  0  0  0  0  0  0  0  0  0  0
   -3.1876    1.2269   12.4559 I   0  0  0  0  0  0  0  0  0  0  0  0
   -2.5539    4.8859   11.9071 P   0  0  0  0  0  4  0  0  0  0  0  0
    0.5326    1.6168   12.1326 P   0  0  0  0  0  4  0  0  0  0  0  0
    0.4594    4.5867   11.1253 C   0  0  0  0  0  0  0  0  0  0  0  0
    1.3587    3.7150   10.4859 C   0  0  0  0  0  0  0  0  0  0  0  0
    1.6487    3.9132    9.1386 C   0  0  0  0  0  0  0  0  0  0  0  0
    0.9931    4.9314    8.4570 C   0  0  0  0  0  0  0  0  0  0  0  0
   -0.0093    5.6988    9.0374 C   0  0  0  0  0  0  0  0  0  0  0  0
   -0.3078    5.5017   10.3828 C   0  0  0  0  0  0  0  0  0  0  0  0
   -0.7113    6.7389    8.2098 C   0  0  0  0  0  0  0  0  0  0  0  0
    2.6737    3.0868    8.4136 C   0  0  0  0  0  0  0  0  0  0  0  0
    0.2242    4.4498   12.5614 C   0  0  0  0  0  0  0  0  0  0  0  0
   -1.4653    6.1663   11.0781 C   0  0  0  0  0  0  0  0  0  0  0  0
   -3.8507    4.5330   10.6234 C   0  0  0  0  0  0  0  0  0  0  0  0
   -3.4527    5.8359   13.2275 C   0  0  0  0  0  0  0  0  0  0  0  0
   -3.1540    3.8576    9.4447 C   0  0  0  0  0  0  0  0  0  0  0  0
   -4.6865    5.7235   10.1679 C   0  0  0  0  0  0  0  0  0  0  0  0
   -4.6350    5.0031   13.7182 C   0  0  0  0  0  0  0  0  0  0  0  0
   -2.4995    6.1029   14.3899 C   0  0  0  0  0  0  0  0  0  0  0  0
    1.9108    2.5670   11.2885 C   0  0  0  0  0  0  0  0  0  0  0  0
    0.2106    0.2004   10.9711 C   0  0  0  0  0  0  0  0  0  0  0  0
    1.3546    0.8155   13.5954 C   0  0  0  0  0  0  0  0  0  0  0  0
    1.6239    1.8613   14.6744 C   0  0  0  0  0  0  0  0  0  0  0  0
    0.4221   -0.2589   14.1518 C   0  0  0  0  0  0  0  0  0  0  0  0
   -0.3458    0.7790    9.6733 C   0  0  0  0  0  0  0  0  0  0  0  0
    1.3934   -0.7234   10.7024 C   0  0  0  0  0  0  0  0  0  0  0  0
    1.2466    5.1081    7.4212 H   0  0  0  0  0  0  0  0  0  0  0  0
   -0.6728    7.7123    8.6984 H   0  0  0  0  0  0  0  0  0  0  0  0
   -1.7589    6.4840    8.0449 H   0  0  0  0  0  0  0  0  0  0  0  0
   -0.2351    6.8270    7.2365 H   0  0  0  0  0  0  0  0  0  0  0  0
    2.3474    2.0526    8.2964 H   0  0  0  0  0  0  0  0  0  0  0  0
    3.6210    3.0841    8.9523 H   0  0  0  0  0  0  0  0  0  0  0  0
    2.8476    3.4931    7.4203 H   0  0  0  0  0  0  0  0  0  0  0  0
   -0.1124    5.3729   13.0312 H   0  0  0  0  0  0  0  0  0  0  0  0
    1.0979    4.0930   13.1040 H   0  0  0  0  0  0  0  0  0  0  0  0
   -2.0737    6.7415   10.3809 H   0  0  0  0  0  0  0  0  0  0  0  0
   -1.1176    6.8522   11.8568 H   0  0  0  0  0  0  0  0  0  0  0  0
   -4.5122    3.7942   11.0928 H   0  0  0  0  0  0  0  0  0  0  0  0
   -3.7991    6.7889   12.8074 H   0  0  0  0  0  0  0  0  0  0  0  0
   -2.4577    3.0995    9.8109 H   0  0  0  0  0  0  0  0  0  0  0  0
   -2.5831    4.5722    8.8579 H   0  0  0  0  0  0  0  0  0  0  0  0
   -3.8777    3.3711    8.7938 H   0  0  0  0  0  0  0  0  0  0  0  0
   -4.0766    6.4752    9.6703 H   0  0  0  0  0  0  0  0  0  0  0  0
   -5.2069    6.1957   10.9977 H   0  0  0  0  0  0  0  0  0  0  0  0
   -5.4343    5.3810    9.4539 H   0  0  0  0  0  0  0  0  0  0  0  0
   -5.3987    4.8887   12.9531 H   0  0  0  0  0  0  0  0  0  0  0  0
   -5.0937    5.4744   14.5862 H   0  0  0  0  0  0  0  0  0  0  0  0
   -4.2947    4.0104   14.0119 H   0  0  0  0  0  0  0  0  0  0  0  0
   -1.6894    6.7731   14.1066 H   0  0  0  0  0  0  0  0  0  0  0  0
   -2.0706    5.1612   14.7381 H   0  0  0  0  0  0  0  0  0  0  0  0
   -3.0351    6.5599   15.2207 H   0  0  0  0  0  0  0  0  0  0  0  0
    2.5851    2.9249   12.0728 H   0  0  0  0  0  0  0  0  0  0  0  0
    2.4740    1.8780   10.6599 H   0  0  0  0  0  0  0  0  0  0  0  0
   -0.5893   -0.3776   11.4506 H   0  0  0  0  0  0  0  0  0  0  0  0
    2.3043    0.3725   13.2692 H   0  0  0  0  0  0  0  0  0  0  0  0
    2.3579    2.5990   14.3538 H   0  0  0  0  0  0  0  0  0  0  0  0
    2.0061    1.3825   15.5749 H   0  0  0  0  0  0  0  0  0  0  0  0
    0.6959    2.3756   14.9306 H   0  0  0  0  0  0  0  0  0  0  0  0
    0.3083   -1.0955   13.4672 H   0  0  0  0  0  0  0  0  0  0  0  0
   -0.5641    0.1657   14.3391 H   0  0  0  0  0  0  0  0  0  0  0  0
    0.8096   -0.6435   15.0941 H   0  0  0  0  0  0  0  0  0  0  0  0
   -1.1535    1.4778    9.8947 H   0  0  0  0  0  0  0  0  0  0  0  0
   -0.7454   -0.0111    9.0404 H   0  0  0  0  0  0  0  0  0  0  0  0
    0.4177    1.3173    9.1177 H   0  0  0  0  0  0  0  0  0  0  0  0
    1.7694   -1.1790   11.6152 H   0  0  0  0  0  0  0  0  0  0  0  0
    2.2126   -0.1966   10.2162 H   0  0  0  0  0  0  0  0  0  0  0  0
    1.0748   -1.5235   10.0357 H   0  0  0  0  0  0  0  0  0  0  0  0
  1  2  1  0  0  0  0
  1 13  1  0  0  0  0
  3  1  1  0  0  0  0
  3 16  1  0  0  0  0
  4  1  1  0  0  0  0
  4 23  1  0  0  0  0
  5 13  1  0  0  0  0
  6  5  1  0  0  0  0
  6 21  1  0  0  0  0
  7  6  2  0  0  0  0
  8  9  2  0  0  0  0
  8  7  1  0  0  0  0
  9 10  1  0  0  0  0
 10 14  1  0  0  0  0
 10  5  2  0  0  0  0
 11 29  1  0  0  0  0
 11  9  1  0  0  0  0
 12 33  1  0  0  0  0
 12  7  1  0  0  0  0
 13 35  1  0  0  0  0
 13 36  1  0  0  0  0
 14 38  1  0  0  0  0
 14  3  1  0  0  0  0
 15 39  1  0  0  0  0
 15  3  1  0  0  0  0
 16 19  1  0  0  0  0
 16 20  1  0  0  0  0
 17 41  1  0  0  0  0
 17 15  1  0  0  0  0
 18 15  1  0  0  0  0
 18 45  1  0  0  0  0
 19 49  1  0  0  0  0
 19 48  1  0  0  0  0
 20 51  1  0  0  0  0
 20 52  1  0  0  0  0
 21 53  1  0  0  0  0
 21  4  1  0  0  0  0
 22 55  1  0  0  0  0
 22  4  1  0  0  0  0
 23 25  1  0  0  0  0
 23 24  1  0  0  0  0
 24 59  1  0  0  0  0
 24 58  1  0  0  0  0
 25 61  1  0  0  0  0
 25 62  1  0  0  0  0
 26 63  1  0  0  0  0
 26 22  1  0  0  0  0
 27 22  1  0  0  0  0
 27 66  1  0  0  0  0
 28  8  1  0  0  0  0
 30 11  1  0  0  0  0
 31 11  1  0  0  0  0
 32 12  1  0  0  0  0
 34 12  1  0  0  0  0
 37 14  1  0  0  0  0
 40 16  1  0  0  0  0
 42 17  1  0  0  0  0
 43 17  1  0  0  0  0
 44 18  1  0  0  0  0
 46 18  1  0  0  0  0
 47 19  1  0  0  0  0
 50 20  1  0  0  0  0
 54 21  1  0  0  0  0
 56 23  1  0  0  0  0
 57 24  1  0  0  0  0
 60 25  1  0  0  0  0
 64 26  1  0  0  0  0
 65 26  1  0  0  0  0
 67 27  1  0  0  0  0
 68 27  1  0  0  0  0
M  END
$$$$
