CSD_code = QAPHAQ | q = 0 | S = 0 | Stoichiometry = C19H14Cl2Zr | MND = 12
 OpenBabel04212202083D

 36 40  0  0  1  0  0  0  0  0999 V2000
   -0.7961    5.1404    3.4497 Zr  0  0  0  0  0  0  0  0  0  0  0  0
   -0.4351    6.7299    5.0984 Cl  0  0  0  0  0  0  0  0  0  0  0  0
    0.3322    3.0182    3.1228 C   0  0  1  0  0  3  0  0  0  0  0  0
    0.4875    3.6885    1.8825 C   0  0  0  0  0  3  0  0  0  0  0  0
    1.3191    4.8155    2.0479 C   0  0  0  0  0  0  0  0  0  0  0  0
    1.6944    4.8843    3.4201 C   0  0  0  0  0  0  0  0  0  0  0  0
    2.5150    5.7736    4.1440 C   0  0  0  0  0  0  0  0  0  0  0  0
    2.6695    5.5839    5.4931 C   0  0  0  0  0  0  0  0  0  0  0  0
    2.0357    4.5205    6.1635 C   0  0  0  0  0  0  0  0  0  0  0  0
    1.2429    3.6201    5.4976 C   0  0  0  0  0  0  0  0  0  0  0  0
    1.0604    3.7686    4.1040 C   0  0  1  0  0  0  0  0  0  0  0  0
   -0.7964    2.0611    3.4497 C   0  0  0  0  0  0  0  0  0  0  0  0
    0.1210    3.3317    0.9260 H   0  0  0  0  0  0  0  0  0  0  0  0
    1.7015    5.4441    1.2537 H   0  0  0  0  0  0  0  0  0  0  0  0
    3.0141    6.5861    3.6322 H   0  0  0  0  0  0  0  0  0  0  0  0
    3.2897    6.2589    6.0630 H   0  0  0  0  0  0  0  0  0  0  0  0
    2.1891    4.4138    7.2269 H   0  0  0  0  0  0  0  0  0  0  0  0
    0.8067    2.7783    6.0224 H   0  0  0  0  0  0  0  0  0  0  0  0
   -0.5518    1.4244    4.3039 H   0  0  0  0  0  0  0  0  0  0  0  0
   -1.1593    6.7294    1.8007 Cl  0  0  0  0  0  0  0  0  0  0  0  0
   -1.9250    3.0181    3.7767 C   0  0  1  0  0  3  0  0  0  0  0  0
   -2.0803    3.6885    5.0170 C   0  0  0  0  0  3  0  0  0  0  0  0
   -2.9117    4.8156    4.8516 C   0  0  0  0  0  0  0  0  0  0  0  0
   -1.7137    3.3316    5.9735 H   0  0  0  0  0  0  0  0  0  0  0  0
   -3.2872    4.8844    3.4794 C   0  0  0  0  0  0  0  0  0  0  0  0
   -2.6533    3.7686    2.7955 C   0  0  1  0  0  0  0  0  0  0  0  0
   -4.1078    5.7737    2.7556 C   0  0  0  0  0  0  0  0  0  0  0  0
   -4.2624    5.5840    1.4066 C   0  0  0  0  0  0  0  0  0  0  0  0
   -3.6286    4.5205    0.7362 C   0  0  0  0  0  0  0  0  0  0  0  0
   -2.8358    3.6201    1.4019 C   0  0  0  0  0  0  0  0  0  0  0  0
   -2.3998    2.7782    0.8772 H   0  0  0  0  0  0  0  0  0  0  0  0
   -3.7822    4.4138   -0.3272 H   0  0  0  0  0  0  0  0  0  0  0  0
   -4.8826    6.2589    0.8367 H   0  0  0  0  0  0  0  0  0  0  0  0
   -4.6067    6.5863    3.2674 H   0  0  0  0  0  0  0  0  0  0  0  0
   -1.0410    1.4244    2.5955 H   0  0  0  0  0  0  0  0  0  0  0  0
   -3.2941    5.4443    5.6459 H   0  0  0  0  0  0  0  0  0  0  0  0
  1 11  1  0  0  0  0
  1  2  1  0  0  0  0
  3  4  1  6  0  0  0
  3 12  1  0  0  0  0
  3 11  1  0  0  0  0
  4  5  1  0  0  0  0
  5  6  2  0  0  0  0
  6  7  1  0  0  0  0
  7  8  2  0  0  0  0
  8 16  1  0  0  0  0
  8  9  1  0  0  0  0
  9 17  1  0  0  0  0
 10 18  1  0  0  0  0
 10  9  2  0  0  0  0
 11  6  1  6  0  0  0
 11 10  1  0  0  0  0
 12 21  1  0  0  0  0
 12 19  1  0  0  0  0
 13  4  1  0  0  0  0
 14  5  1  0  0  0  0
 15  7  1  0  0  0  0
 20  1  1  0  0  0  0
 21 22  1  1  0  0  0
 22 24  1  0  0  0  0
 23 22  1  0  0  0  0
 23 36  1  0  0  0  0
 25 23  2  0  0  0  0
 26 30  1  6  0  0  0
 26  1  1  0  0  0  0
 26 25  1  0  0  0  0
 26 21  1  0  0  0  0
 27 34  1  0  0  0  0
 27 25  1  0  0  0  0
 28 27  2  0  0  0  0
 29 30  2  0  0  0  0
 29 28  1  0  0  0  0
 31 30  1  0  0  0  0
 32 29  1  0  0  0  0
 33 28  1  0  0  0  0
 35 12  1  0  0  0  0
M  END
$$$$
