CSD_code = QAPSOP | q = 0 | S = 0 | Stoichiometry = C14H16ClHgN | MND = 3
 OpenBabel04212202083D

 33 34  0  0  1  0  0  0  0  0999 V2000
    0.4694    4.6323    9.3045 Hg  0  0  0  0  0  0  0  0  0  0  0  0
    0.5960    2.9534    7.6125 Cl  0  0  0  0  0  0  0  0  0  0  0  0
    1.7981    6.7737    8.1442 N   0  0  0  0  0  0  0  0  0  0  0  0
    0.3728    6.3796   10.6641 C   0  0  0  0  0  0  0  0  0  0  0  0
   -0.6031    6.5000   11.6189 C   0  0  0  0  0  0  0  0  0  0  0  0
   -0.7411    7.6758   12.3930 C   0  0  0  0  0  0  0  0  0  0  0  0
   -1.7323    7.8107   13.3856 C   0  0  0  0  0  0  0  0  0  0  0  0
   -1.8370    8.9669   14.1083 C   0  0  0  0  0  0  0  0  0  0  0  0
   -0.9574   10.0343   13.8704 C   0  0  0  0  0  0  0  0  0  0  0  0
    0.0143    9.9300   12.9141 C   0  0  0  0  0  0  0  0  0  0  0  0
    0.1477    8.7503   12.1534 C   0  0  0  0  0  0  0  0  0  0  0  0
    1.1430    8.6042   11.1646 C   0  0  0  0  0  0  0  0  0  0  0  0
    1.2744    7.4547   10.4299 C   0  0  0  0  0  0  0  0  0  0  0  0
    2.3847    7.2740    9.4006 C   0  0  2  0  0  0  0  0  0  0  0  0
    3.2759    8.5079    9.2295 C   0  0  0  0  0  0  0  0  0  0  0  0
    0.9795    7.7753    7.4730 C   0  0  0  0  0  0  0  0  0  0  0  0
    2.7883    6.2385    7.2192 C   0  0  0  0  0  0  0  0  0  0  0  0
   -1.2971    5.6918   11.8161 H   0  0  0  0  0  0  0  0  0  0  0  0
   -2.4071    6.9861   13.5648 H   0  0  0  0  0  0  0  0  0  0  0  0
   -2.5978    9.0675   14.8684 H   0  0  0  0  0  0  0  0  0  0  0  0
   -1.0554   10.9393   14.4517 H   0  0  0  0  0  0  0  0  0  0  0  0
    0.6944   10.7495   12.7296 H   0  0  0  0  0  0  0  0  0  0  0  0
    1.8069    9.4405   11.0104 H   0  0  0  0  0  0  0  0  0  0  0  0
    3.0235    6.4573    9.7732 H   0  0  0  0  0  0  0  0  0  0  0  0
    4.0365    8.3122    8.4776 H   0  0  0  0  0  0  0  0  0  0  0  0
    3.7847    8.7263   10.1644 H   0  0  0  0  0  0  0  0  0  0  0  0
    2.7013    9.3786    8.9256 H   0  0  0  0  0  0  0  0  0  0  0  0
    1.5827    8.5677    7.0124 H   0  0  0  0  0  0  0  0  0  0  0  0
    0.2899    8.2195    8.1888 H   0  0  0  0  0  0  0  0  0  0  0  0
    0.4020    7.2875    6.6884 H   0  0  0  0  0  0  0  0  0  0  0  0
    3.4182    7.0194    6.7730 H   0  0  0  0  0  0  0  0  0  0  0  0
    2.2682    5.7198    6.4150 H   0  0  0  0  0  0  0  0  0  0  0  0
    3.4254    5.5209    7.7348 H   0  0  0  0  0  0  0  0  0  0  0  0
  1  4  1  0  0  0  0
  2  1  1  0  0  0  0
  3 14  1  0  0  0  0
  4  5  1  0  0  0  0
  5 18  1  0  0  0  0
  5  6  2  0  0  0  0
  6  7  1  0  0  0  0
  7 19  1  0  0  0  0
  7  8  2  0  0  0  0
  8 20  1  0  0  0  0
  9  8  1  0  0  0  0
  9 21  1  0  0  0  0
 10  9  2  0  0  0  0
 11  6  1  0  0  0  0
 11 10  1  0  0  0  0
 12 11  2  0  0  0  0
 13  4  2  0  0  0  0
 13 12  1  0  0  0  0
 14 24  1  1  0  0  0
 14 13  1  0  0  0  0
 15 14  1  0  0  0  0
 15 26  1  0  0  0  0
 16  3  1  0  0  0  0
 16 29  1  0  0  0  0
 17 33  1  0  0  0  0
 17  3  1  0  0  0  0
 22 10  1  0  0  0  0
 23 12  1  0  0  0  0
 25 15  1  0  0  0  0
 27 15  1  0  0  0  0
 28 16  1  0  0  0  0
 30 16  1  0  0  0  0
 31 17  1  0  0  0  0
 32 17  1  0  0  0  0
M  END
$$$$
