CSD_code = QAPSOQ | q = 0 | S = 0 | Stoichiometry = C22H28Br4N4O2PtS2 | MND = 6
 OpenBabel04212202083D

 63 64  0  0  1  0  0  0  0  0999 V2000
    1.1868    4.3789    9.2418 Pt  0  0  0  0  0  0  0  0  0  0  0  0
   -1.2172    5.1572    9.2349 Br  0  0  0  0  0  0  0  0  0  0  0  0
    3.5909    3.6020    9.2462 Br  0  0  0  0  0  0  0  0  0  0  0  0
    0.6349    2.8330    7.3072 Br  0  0  0  0  0  0  0  0  0  0  0  0
    1.7382    5.9230   11.1781 Br  0  0  0  0  0  0  0  0  0  0  0  0
    0.6700    2.4362   10.6524 S   0  0  0  0  0  0  0  0  0  0  0  0
    1.7034    6.3228    7.8327 S   0  0  0  0  0  0  0  0  0  0  0  0
   -2.1107    3.4335   14.0709 O   0  0  0  0  0  0  0  0  0  0  0  0
    4.4649    5.3270    4.3980 O   0  0  0  0  0  0  0  0  0  0  0  0
   -0.7157    3.9801   12.3513 N   0  0  0  0  0  0  0  0  0  0  0  0
   -0.1847    4.7504   11.9366 H   0  0  0  0  0  0  0  0  0  0  0  0
    3.0789    4.7793    6.1245 N   0  0  0  0  0  0  0  0  0  0  0  0
    2.5556    4.0075    6.5460 H   0  0  0  0  0  0  0  0  0  0  0  0
   -1.0752    1.6969   12.4247 N   0  0  0  0  0  0  0  0  0  0  0  0
   -1.6908    1.9142   13.2177 H   0  0  0  0  0  0  0  0  0  0  0  0
    3.4227    7.0644    6.0373 N   0  0  0  0  0  0  0  0  0  0  0  0
    4.0356    6.8465    5.2422 H   0  0  0  0  0  0  0  0  0  0  0  0
   -1.5877    5.7269   13.7553 C   0  0  0  0  0  0  0  0  0  0  0  0
    3.9565    3.0321    4.7234 C   0  0  0  0  0  0  0  0  0  0  0  0
   -1.7805    6.0765   15.0925 C   0  0  0  0  0  0  0  0  0  0  0  0
   -1.8786    5.2910   15.8265 H   0  0  0  0  0  0  0  0  0  0  0  0
    4.1490    2.6797    3.3868 C   0  0  0  0  0  0  0  0  0  0  0  0
    4.2382    3.4637    2.6499 H   0  0  0  0  0  0  0  0  0  0  0  0
   -1.8261    7.4056   15.4631 C   0  0  0  0  0  0  0  0  0  0  0  0
   -1.9615    7.6707   16.5008 H   0  0  0  0  0  0  0  0  0  0  0  0
    4.2061    1.3500    3.0204 C   0  0  0  0  0  0  0  0  0  0  0  0
    4.3417    1.0827    1.9833 H   0  0  0  0  0  0  0  0  0  0  0  0
   -1.6995    8.3961   14.5016 C   0  0  0  0  0  0  0  0  0  0  0  0
   -1.7329    9.4358   14.7913 H   0  0  0  0  0  0  0  0  0  0  0  0
    4.0909    0.3615    3.9856 C   0  0  0  0  0  0  0  0  0  0  0  0
    4.1347   -0.6787    3.6994 H   0  0  0  0  0  0  0  0  0  0  0  0
   -1.5417    8.0540   13.1683 C   0  0  0  0  0  0  0  0  0  0  0  0
   -1.4623    8.8242   12.4170 H   0  0  0  0  0  0  0  0  0  0  0  0
    3.9319    0.7066    5.3179 C   0  0  0  0  0  0  0  0  0  0  0  0
    3.8608   -0.0618    6.0719 H   0  0  0  0  0  0  0  0  0  0  0  0
   -1.4826    6.7262   12.7886 C   0  0  0  0  0  0  0  0  0  0  0  0
   -1.4031    6.4821   11.7416 H   0  0  0  0  0  0  0  0  0  0  0  0
    3.8614    2.0350    5.6934 C   0  0  0  0  0  0  0  0  0  0  0  0
    3.7809    2.2816    6.7398 H   0  0  0  0  0  0  0  0  0  0  0  0
   -1.5301    4.2920   13.4308 C   0  0  0  0  0  0  0  0  0  0  0  0
    3.8908    4.4677    5.0432 C   0  0  0  0  0  0  0  0  0  0  0  0
   -0.4615    2.7302   11.8843 C   0  0  2  0  0  3  0  0  0  0  0  0
    2.8219    6.0296    6.5890 C   0  0  1  0  0  3  0  0  0  0  0  0
   -0.9101    0.3286   12.0013 C   0  0  0  0  0  0  0  0  0  0  0  0
    0.0389   -0.0656   12.3855 H   0  0  0  0  0  0  0  0  0  0  0  0
   -0.8589    0.3030   10.9067 H   0  0  0  0  0  0  0  0  0  0  0  0
    3.2544    8.4330    6.4588 C   0  0  0  0  0  0  0  0  0  0  0  0
    3.2330    8.4639    7.5543 H   0  0  0  0  0  0  0  0  0  0  0  0
    2.2907    8.8147    6.0992 H   0  0  0  0  0  0  0  0  0  0  0  0
   -2.0734   -0.5196   12.5008 C   0  0  0  0  0  0  0  0  0  0  0  0
   -3.0074   -0.1130   12.1083 H   0  0  0  0  0  0  0  0  0  0  0  0
   -2.1132   -0.4688   13.5909 H   0  0  0  0  0  0  0  0  0  0  0  0
    4.3937    9.2915    5.9229 C   0  0  0  0  0  0  0  0  0  0  0  0
    5.3424    8.9019    6.2966 H   0  0  0  0  0  0  0  0  0  0  0  0
    4.4078    9.2297    4.8326 H   0  0  0  0  0  0  0  0  0  0  0  0
   -1.9198   -1.9698   12.0600 C   0  0  0  0  0  0  0  0  0  0  0  0
   -1.8953   -2.0387   10.9752 H   0  0  0  0  0  0  0  0  0  0  0  0
   -2.7534   -2.5645   12.4232 H   0  0  0  0  0  0  0  0  0  0  0  0
   -0.9982   -2.3937   12.4520 H   0  0  0  0  0  0  0  0  0  0  0  0
    4.2309   10.7442    6.3521 C   0  0  0  0  0  0  0  0  0  0  0  0
    3.2949   11.1516    5.9772 H   0  0  0  0  0  0  0  0  0  0  0  0
    5.0477   11.3460    5.9634 H   0  0  0  0  0  0  0  0  0  0  0  0
    4.2305   10.8245    7.4364 H   0  0  0  0  0  0  0  0  0  0  0  0
  1  3  1  0  0  0  0
  1  6  1  0  0  0  0
  1  5  1  0  0  0  0
  2  1  1  0  0  0  0
  4  1  1  0  0  0  0
  7  1  1  0  0  0  0
  9 41  2  0  0  0  0
 10 40  1  0  0  0  0
 11 10  1  0  0  0  0
 12 13  1  0  0  0  0
 12 43  1  0  0  0  0
 14 15  1  0  0  0  0
 16 47  1  0  0  0  0
 16 43  1  0  0  0  0
 17 16  1  0  0  0  0
 18 20  1  0  0  0  0
 19 41  1  0  0  0  0
 19 38  1  0  0  0  0
 20 24  2  0  0  0  0
 20 21  1  0  0  0  0
 22 19  2  0  0  0  0
 23 22  1  0  0  0  0
 24 25  1  0  0  0  0
 26 22  1  0  0  0  0
 26 30  2  0  0  0  0
 27 26  1  0  0  0  0
 28 29  1  0  0  0  0
 28 24  1  0  0  0  0
 30 34  1  0  0  0  0
 31 30  1  0  0  0  0
 32 28  2  0  0  0  0
 33 32  1  0  0  0  0
 34 38  2  0  0  0  0
 34 35  1  0  0  0  0
 36 32  1  0  0  0  0
 36 18  2  0  0  0  0
 37 36  1  0  0  0  0
 38 39  1  0  0  0  0
 40 18  1  0  0  0  0
 40  8  2  0  0  0  0
 41 12  1  0  0  0  0
 42  6  1  1  0  0  0
 42 10  1  0  0  0  0
 42 14  1  0  0  0  0
 43  7  1  6  0  0  0
 44 45  1  0  0  0  0
 44 14  1  0  0  0  0
 44 50  1  0  0  0  0
 46 44  1  0  0  0  0
 47 48  1  0  0  0  0
 49 47  1  0  0  0  0
 50 52  1  0  0  0  0
 51 50  1  0  0  0  0
 53 54  1  0  0  0  0
 53 60  1  0  0  0  0
 53 47  1  0  0  0  0
 55 53  1  0  0  0  0
 56 58  1  0  0  0  0
 56 59  1  0  0  0  0
 56 50  1  0  0  0  0
 57 56  1  0  0  0  0
 60 63  1  0  0  0  0
 61 60  1  0  0  0  0
 62 60  1  0  0  0  0
M  END
$$$$
