CSD_code = QAQCAM | q = 0 | S = 0 | Stoichiometry = C18H23ClN2O2Pt | MND = 4
 OpenBabel04212202083D

 47 51  0  0  1  0  0  0  0  0999 V2000
    2.1979   -0.0252   -2.9166 Pt  0  0  2  0  0  0  0  0  0  0  0  0
    0.6504   -0.1479   -1.2055 Cl  0  0  0  0  0  0  0  0  0  0  0  0
    5.4201   -2.5163   -2.7748 O   0  0  0  0  0  0  0  0  0  0  0  0
    1.5689    2.6709   -5.9075 O   0  0  0  0  0  0  0  0  0  0  0  0
    3.5752   -1.3695   -2.2632 N   0  0  2  0  0  0  0  0  0  0  0  0
    1.3204    1.3591   -4.1191 N   0  0  0  0  0  0  0  0  0  0  0  0
    3.4925    0.0725   -4.3470 C   0  0  0  0  0  0  0  0  0  0  0  0
    4.6273   -0.7377   -4.2910 C   0  0  0  0  0  0  0  0  0  0  0  0
    5.5596   -0.6704   -5.3227 C   0  0  0  0  0  0  0  0  0  0  0  0
    5.3281    0.2103   -6.3740 C   0  0  0  0  0  0  0  0  0  0  0  0
    4.2020    1.0245   -6.4368 C   0  0  0  0  0  0  0  0  0  0  0  0
    3.2678    0.9516   -5.4073 C   0  0  0  0  0  0  0  0  0  0  0  0
    4.5620   -1.5499   -3.0938 C   0  0  2  0  0  3  0  0  0  0  0  0
    3.6542   -2.3575   -1.2021 C   0  0  2  0  0  0  0  0  0  0  0  0
    4.9441   -3.1291   -1.5739 C   0  0  0  0  0  0  0  0  0  0  0  0
    2.3639   -3.2022   -1.1444 C   0  0  0  0  0  0  0  0  0  0  0  0
    1.9715   -3.7224   -2.5254 C   0  0  0  0  0  0  0  0  0  0  0  0
    2.4952   -4.3297   -0.1256 C   0  0  0  0  0  0  0  0  0  0  0  0
    2.0334    1.6690   -5.1640 C   0  0  0  0  0  0  0  0  0  0  0  0
    0.1941    2.2703   -4.0191 C   0  0  2  0  0  0  0  0  0  0  0  0
    0.3946    3.1705   -5.2629 C   0  0  0  0  0  0  0  0  0  0  0  0
    0.1972    2.9992   -2.6592 C   0  0  0  0  0  0  0  0  0  0  0  0
    1.5723    3.5792   -2.3369 C   0  0  0  0  0  0  0  0  0  0  0  0
   -0.8975    4.0599   -2.6063 C   0  0  0  0  0  0  0  0  0  0  0  0
    6.4460   -1.2871   -5.3096 H   0  0  0  0  0  0  0  0  0  0  0  0
    6.0524    0.2649   -7.1731 H   0  0  0  0  0  0  0  0  0  0  0  0
    4.0586    1.6975   -7.2690 H   0  0  0  0  0  0  0  0  0  0  0  0
    3.7659   -1.8431   -0.2396 H   0  0  0  0  0  0  0  0  0  0  0  0
    5.7225   -3.0423   -0.8124 H   0  0  0  0  0  0  0  0  0  0  0  0
    4.7642   -4.1859   -1.7844 H   0  0  0  0  0  0  0  0  0  0  0  0
    1.5743   -2.5221   -0.8088 H   0  0  0  0  0  0  0  0  0  0  0  0
    1.7453   -2.8817   -3.1880 H   0  0  0  0  0  0  0  0  0  0  0  0
    1.0792   -4.3375   -2.4473 H   0  0  0  0  0  0  0  0  0  0  0  0
    2.7635   -4.3197   -2.9747 H   0  0  0  0  0  0  0  0  0  0  0  0
    3.2163   -5.0791   -0.4458 H   0  0  0  0  0  0  0  0  0  0  0  0
    2.8090   -3.9392    0.8396 H   0  0  0  0  0  0  0  0  0  0  0  0
    1.5342   -4.8205    0.0022 H   0  0  0  0  0  0  0  0  0  0  0  0
   -0.7383    1.6970   -4.0945 H   0  0  0  0  0  0  0  0  0  0  0  0
    0.5725    4.2177   -5.0063 H   0  0  0  0  0  0  0  0  0  0  0  0
   -0.4370    3.1104   -5.9682 H   0  0  0  0  0  0  0  0  0  0  0  0
   -0.0246    2.2345   -1.9078 H   0  0  0  0  0  0  0  0  0  0  0  0
    1.9170    4.2631   -3.1112 H   0  0  0  0  0  0  0  0  0  0  0  0
    1.5324    4.1181   -1.3941 H   0  0  0  0  0  0  0  0  0  0  0  0
    2.3008    2.7692   -2.2329 H   0  0  0  0  0  0  0  0  0  0  0  0
   -0.6856    4.8899   -3.2773 H   0  0  0  0  0  0  0  0  0  0  0  0
   -0.9758    4.4540   -1.5965 H   0  0  0  0  0  0  0  0  0  0  0  0
   -1.8589    3.6317   -2.8801 H   0  0  0  0  0  0  0  0  0  0  0  0
  1  5  1  0  0  0  0
  1  2  1  6  0  0  0
  3 15  1  0  0  0  0
  4 21  1  0  0  0  0
  4 19  1  0  0  0  0
  5 14  1  0  0  0  0
  6 20  1  0  0  0  0
  6  1  1  0  0  0  0
  7  8  1  0  0  0  0
  7  1  2  0  0  0  0
  8 13  1  0  0  0  0
  9 25  1  0  0  0  0
  9  8  2  0  0  0  0
 10  9  1  0  0  0  0
 11 10  2  0  0  0  0
 11 12  1  0  0  0  0
 12 19  2  0  0  0  0
 12  7  1  0  0  0  0
 13  3  1  0  0  0  0
 13  5  1  0  0  0  0
 14 16  1  0  0  0  0
 14 28  1  0  0  0  0
 15 14  1  0  0  0  0
 15 29  1  0  0  0  0
 16 31  1  0  0  0  0
 16 18  1  0  0  0  0
 17 33  1  0  0  0  0
 17 16  1  0  0  0  0
 18 37  1  0  0  0  0
 18 36  1  0  0  0  0
 19  6  1  0  0  0  0
 20 22  1  0  0  0  0
 21 39  1  0  0  0  0
 21 20  1  0  0  0  0
 22 24  1  0  0  0  0
 22 23  1  0  0  0  0
 22 41  1  0  0  0  0
 23 44  1  0  0  0  0
 23 43  1  0  0  0  0
 24 46  1  0  0  0  0
 26 10  1  0  0  0  0
 27 11  1  0  0  0  0
 30 15  1  0  0  0  0
 32 17  1  0  0  0  0
 34 17  1  0  0  0  0
 35 18  1  0  0  0  0
 38 20  1  0  0  0  0
 40 21  1  0  0  0  0
 42 23  1  0  0  0  0
 45 24  1  0  0  0  0
 47 24  1  0  0  0  0
M  END
$$$$
