CSD_code = QAQTEI | q = 0 | S = 0 | Stoichiometry = C21H34INP2Pt | MND = 4
 OpenBabel04212202083D

 60 60  0  0  0  0  0  0  0  0999 V2000
    5.5118    9.0252    5.7714 Pt  0  0  0  0  0  0  0  0  0  0  0  0
    7.0044   10.7705    7.0507 I   0  0  0  0  0  0  0  0  0  0  0  0
    4.4003    7.7109    4.8194 C   0  0  0  0  0  0  0  0  0  0  0  0
    3.7155    6.8954    4.2404 C   0  0  0  0  0  0  0  0  0  0  0  0
    2.9183    5.9473    3.5651 C   0  0  0  0  0  0  0  0  0  0  0  0
    2.4582    6.2030    2.2685 C   0  0  0  0  0  0  0  0  0  0  0  0
    2.7186    7.1367    1.7907 H   0  0  0  0  0  0  0  0  0  0  0  0
    1.6795    5.2795    1.6089 C   0  0  0  0  0  0  0  0  0  0  0  0
    1.3229    5.4756    0.6079 H   0  0  0  0  0  0  0  0  0  0  0  0
    1.3438    4.0759    2.2349 C   0  0  0  0  0  0  0  0  0  0  0  0
    1.8001    3.8127    3.5294 C   0  0  0  0  0  0  0  0  0  0  0  0
    1.5364    2.8796    4.0064 H   0  0  0  0  0  0  0  0  0  0  0  0
    2.5782    4.7394    4.1849 C   0  0  0  0  0  0  0  0  0  0  0  0
    2.9366    4.5402    5.1848 H   0  0  0  0  0  0  0  0  0  0  0  0
    0.5458    3.1279    1.5620 C   0  0  0  0  0  0  0  0  0  0  0  0
   -0.1059    2.3574    1.0153 N   0  0  0  0  0  0  0  0  0  0  0  0
    3.9742    9.1087    7.4758 P   0  0  0  0  0  4  0  0  0  0  0  0
    4.7365    8.3769    8.9802 C   0  0  0  0  0  0  0  0  0  0  0  0
    5.4262    9.1197    9.3914 H   0  0  0  0  0  0  0  0  0  0  0  0
    3.9759    8.1631    9.7351 H   0  0  0  0  0  0  0  0  0  0  0  0
    5.5012    7.1170    8.5870 C   0  0  0  0  0  0  0  0  0  0  0  0
    6.1010    6.7464    9.4157 H   0  0  0  0  0  0  0  0  0  0  0  0
    6.1719    7.3396    7.7474 H   0  0  0  0  0  0  0  0  0  0  0  0
    4.8216    6.3277    8.2702 H   0  0  0  0  0  0  0  0  0  0  0  0
    2.4245    8.1365    7.2344 C   0  0  0  0  0  0  0  0  0  0  0  0
    2.0139    8.4336    6.2650 H   0  0  0  0  0  0  0  0  0  0  0  0
    2.7447    7.0957    7.1278 H   0  0  0  0  0  0  0  0  0  0  0  0
    1.3630    8.2584    8.3192 C   0  0  0  0  0  0  0  0  0  0  0  0
    0.5636    7.5452    8.1262 H   0  0  0  0  0  0  0  0  0  0  0  0
    0.9242    9.2532    8.3340 H   0  0  0  0  0  0  0  0  0  0  0  0
    1.7707    8.0446    9.3052 H   0  0  0  0  0  0  0  0  0  0  0  0
    3.3965   10.7570    8.0470 C   0  0  0  0  0  0  0  0  0  0  0  0
    2.6853   10.6294    8.8668 H   0  0  0  0  0  0  0  0  0  0  0  0
    4.2662   11.2953    8.4329 H   0  0  0  0  0  0  0  0  0  0  0  0
    2.7842   11.5276    6.8833 C   0  0  0  0  0  0  0  0  0  0  0  0
    2.5197   12.5389    7.1851 H   0  0  0  0  0  0  0  0  0  0  0  0
    1.8901   11.0319    6.5086 H   0  0  0  0  0  0  0  0  0  0  0  0
    3.5033   11.5932    6.0647 H   0  0  0  0  0  0  0  0  0  0  0  0
    7.0591    8.9642    4.0742 P   0  0  0  0  0  4  0  0  0  0  0  0
    8.8254    8.7031    4.5087 C   0  0  0  0  0  0  0  0  0  0  0  0
    9.4318    8.7316    3.6000 H   0  0  0  0  0  0  0  0  0  0  0  0
    9.1332    9.5347    5.1480 H   0  0  0  0  0  0  0  0  0  0  0  0
    8.9904    7.3854    5.2566 C   0  0  0  0  0  0  0  0  0  0  0  0
   10.0136    7.2643    5.6061 H   0  0  0  0  0  0  0  0  0  0  0  0
    8.7378    6.5374    4.6223 H   0  0  0  0  0  0  0  0  0  0  0  0
    8.3289    7.3678    6.1247 H   0  0  0  0  0  0  0  0  0  0  0  0
    7.0618   10.6023    3.2396 C   0  0  0  0  0  0  0  0  0  0  0  0
    7.5986   11.2988    3.8902 H   0  0  0  0  0  0  0  0  0  0  0  0
    7.5917   10.5505    2.2853 H   0  0  0  0  0  0  0  0  0  0  0  0
    5.6211   11.0678    3.0532 C   0  0  0  0  0  0  0  0  0  0  0  0
    5.5824   12.1037    2.7224 H   0  0  0  0  0  0  0  0  0  0  0  0
    5.0818   10.9887    4.0058 H   0  0  0  0  0  0  0  0  0  0  0  0
    5.1001   10.4507    2.3233 H   0  0  0  0  0  0  0  0  0  0  0  0
    6.7384    7.7609    2.7129 C   0  0  0  0  0  0  0  0  0  0  0  0
    6.5901    6.7851    3.1847 H   0  0  0  0  0  0  0  0  0  0  0  0
    5.7718    8.0480    2.2883 H   0  0  0  0  0  0  0  0  0  0  0  0
    7.7932    7.6658    1.6189 C   0  0  0  0  0  0  0  0  0  0  0  0
    7.4321    7.0177    0.8223 H   0  0  0  0  0  0  0  0  0  0  0  0
    8.7201    7.2418    1.9978 H   0  0  0  0  0  0  0  0  0  0  0  0
    8.0096    8.6398    1.1848 H   0  0  0  0  0  0  0  0  0  0  0  0
  1  2  1  0  0  0  0
  1 17  1  0  0  0  0
  3  1  1  0  0  0  0
  4  3  3  0  0  0  0
  5 13  1  0  0  0  0
  5  4  1  0  0  0  0
  6  5  2  0  0  0  0
  7  6  1  0  0  0  0
  8 10  2  0  0  0  0
  8  6  1  0  0  0  0
  9  8  1  0  0  0  0
 10 11  1  0  0  0  0
 11 12  1  0  0  0  0
 11 13  2  0  0  0  0
 13 14  1  0  0  0  0
 15 10  1  0  0  0  0
 16 15  3  0  0  0  0
 17 32  1  0  0  0  0
 17 18  1  0  0  0  0
 18 19  1  0  0  0  0
 18 20  1  0  0  0  0
 21 18  1  0  0  0  0
 21 22  1  0  0  0  0
 23 21  1  0  0  0  0
 24 21  1  0  0  0  0
 25 17  1  0  0  0  0
 25 28  1  0  0  0  0
 26 25  1  0  0  0  0
 27 25  1  0  0  0  0
 28 30  1  0  0  0  0
 28 31  1  0  0  0  0
 29 28  1  0  0  0  0
 32 34  1  0  0  0  0
 32 33  1  0  0  0  0
 35 36  1  0  0  0  0
 35 32  1  0  0  0  0
 37 35  1  0  0  0  0
 38 35  1  0  0  0  0
 39 40  1  0  0  0  0
 39  1  1  0  0  0  0
 40 42  1  0  0  0  0
 40 43  1  0  0  0  0
 41 40  1  0  0  0  0
 43 44  1  0  0  0  0
 43 46  1  0  0  0  0
 45 43  1  0  0  0  0
 47 48  1  0  0  0  0
 47 39  1  0  0  0  0
 49 47  1  0  0  0  0
 50 47  1  0  0  0  0
 50 52  1  0  0  0  0
 51 50  1  0  0  0  0
 53 50  1  0  0  0  0
 54 55  1  0  0  0  0
 54 39  1  0  0  0  0
 56 54  1  0  0  0  0
 57 59  1  0  0  0  0
 57 54  1  0  0  0  0
 58 57  1  0  0  0  0
 60 57  1  0  0  0  0
M  END
$$$$
