CSD_code = QARNED | q = 0 | S = 0 | Stoichiometry = C20H28Cl2HgN6O4S2 | MND = 4
 OpenBabel04212202083D

 63 64  0  0  0  0  0  0  0  0999 V2000
   13.7186    2.4317    1.1442 Hg  0  0  0  0  0  0  0  0  0  0  0  0
   11.4259    2.6552    1.1270 Cl  0  0  0  0  0  0  0  0  0  0  0  0
   14.9514   -1.0874   -1.9260 S   0  0  0  0  0  0  0  0  0  0  0  0
   13.5891    0.6296   -0.5780 N   0  0  0  0  0  0  0  0  0  0  0  0
   16.1490   -1.5555    0.7377 N   0  0  0  0  0  0  0  0  0  0  0  0
   14.7966   -0.3805    2.0198 N   0  0  0  0  0  0  0  0  0  0  0  0
   16.5872   -2.1156   -0.3007 O   0  0  0  0  0  1  0  0  0  0  0  0
   13.8341    0.3451    2.4060 O   0  0  0  0  0  1  0  0  0  0  0  0
   13.2292    0.7851   -1.8692 C   0  0  0  0  0  0  0  0  0  0  0  0
   12.4902    1.5277   -2.1140 H   0  0  0  0  0  0  0  0  0  0  0  0
   13.8486   -0.0557   -2.7417 C   0  0  0  0  0  0  0  0  0  0  0  0
   13.7190   -0.1097   -3.8032 H   0  0  0  0  0  0  0  0  0  0  0  0
   14.4718   -0.3232   -0.4441 C   0  0  0  0  0  0  0  0  0  0  0  0
   15.0931   -0.7356    0.7682 C   0  0  0  0  0  3  0  0  0  0  0  0
   16.8157   -1.5899    2.0461 C   0  0  0  0  0  0  0  0  0  0  0  0
   15.6965   -1.0493    2.9752 C   0  0  0  0  0  0  0  0  0  0  0  0
   17.3084   -3.0013    2.3377 C   0  0  0  0  0  0  0  0  0  0  0  0
   18.0130   -3.2895    1.5612 H   0  0  0  0  0  0  0  0  0  0  0  0
   16.4984   -3.7243    2.3381 H   0  0  0  0  0  0  0  0  0  0  0  0
   17.8140   -3.0289    3.2984 H   0  0  0  0  0  0  0  0  0  0  0  0
   18.0097   -0.6369    1.9120 C   0  0  0  0  0  0  0  0  0  0  0  0
   17.6748    0.3651    1.6479 H   0  0  0  0  0  0  0  0  0  0  0  0
   18.6570   -1.0017    1.1173 H   0  0  0  0  0  0  0  0  0  0  0  0
   18.5771   -0.6006    2.8365 H   0  0  0  0  0  0  0  0  0  0  0  0
   16.1454   -0.0341    4.0193 C   0  0  0  0  0  0  0  0  0  0  0  0
   16.5738    0.8437    3.5448 H   0  0  0  0  0  0  0  0  0  0  0  0
   16.8711   -0.4813    4.6925 H   0  0  0  0  0  0  0  0  0  0  0  0
   15.2796    0.2871    4.5932 H   0  0  0  0  0  0  0  0  0  0  0  0
   14.8598   -2.1468    3.6433 C   0  0  0  0  0  0  0  0  0  0  0  0
   14.5008   -2.8706    2.9147 H   0  0  0  0  0  0  0  0  0  0  0  0
   13.9948   -1.6826    4.1123 H   0  0  0  0  0  0  0  0  0  0  0  0
   15.4386   -2.6590    4.4061 H   0  0  0  0  0  0  0  0  0  0  0  0
   16.0113    2.2071    1.1251 Cl  0  0  0  0  0  0  0  0  0  0  0  0
   12.4805    5.9473   -1.9259 S   0  0  0  0  0  0  0  0  0  0  0  0
   13.8466    4.2342   -0.5768 N   0  0  0  0  0  0  0  0  0  0  0  0
   11.2825    6.4152    0.7378 N   0  0  0  0  0  0  0  0  0  0  0  0
   12.6376    5.2437    2.0205 N   0  0  0  0  0  0  0  0  0  0  0  0
   10.8430    6.9735   -0.3009 O   0  0  0  0  0  1  0  0  0  0  0  0
   13.6011    4.5196    2.4067 O   0  0  0  0  0  1  0  0  0  0  0  0
   14.2068    4.0786   -1.8678 C   0  0  0  0  0  0  0  0  0  0  0  0
   14.9475    3.3376   -2.1121 H   0  0  0  0  0  0  0  0  0  0  0  0
   13.5856    4.9176   -2.7408 C   0  0  0  0  0  0  0  0  0  0  0  0
   13.7152    4.9713   -3.8024 H   0  0  0  0  0  0  0  0  0  0  0  0
   12.9618    5.1852   -0.4435 C   0  0  0  0  0  0  0  0  0  0  0  0
   12.3400    5.5973    0.7687 C   0  0  0  0  0  3  0  0  0  0  0  0
   10.6165    6.4499    2.0466 C   0  0  0  0  0  0  0  0  0  0  0  0
   11.7371    5.9121    2.9756 C   0  0  0  0  0  0  0  0  0  0  0  0
   10.1219    7.8610    2.3368 C   0  0  0  0  0  0  0  0  0  0  0  0
    9.4163    8.1471    1.5603 H   0  0  0  0  0  0  0  0  0  0  0  0
   10.9308    8.5852    2.3356 H   0  0  0  0  0  0  0  0  0  0  0  0
    9.6169    7.8891    3.2978 H   0  0  0  0  0  0  0  0  0  0  0  0
    9.4237    5.4952    1.9143 C   0  0  0  0  0  0  0  0  0  0  0  0
    9.7599    4.4933    1.6512 H   0  0  0  0  0  0  0  0  0  0  0  0
    8.7754    5.8581    1.1196 H   0  0  0  0  0  0  0  0  0  0  0  0
    8.8569    5.4592    2.8392 H   0  0  0  0  0  0  0  0  0  0  0  0
   11.2904    4.8972    4.0210 C   0  0  0  0  0  0  0  0  0  0  0  0
   10.8633    4.0183    3.5476 H   0  0  0  0  0  0  0  0  0  0  0  0
   10.5644    5.3439    4.6942 H   0  0  0  0  0  0  0  0  0  0  0  0
   12.1571    4.5781    4.5948 H   0  0  0  0  0  0  0  0  0  0  0  0
   12.5722    7.0117    3.6422 C   0  0  0  0  0  0  0  0  0  0  0  0
   12.9299    7.7351    2.9127 H   0  0  0  0  0  0  0  0  0  0  0  0
   13.4381    6.5495    4.1117 H   0  0  0  0  0  0  0  0  0  0  0  0
   11.9927    7.5239    4.4045 H   0  0  0  0  0  0  0  0  0  0  0  0
  2  1  1  0  0  0  0
  3 13  1  0  0  0  0
  4 13  2  0  0  0  0
  5 14  1  0  0  0  0
  5 15  1  0  0  0  0
  6  8  1  0  0  0  0
  6 16  1  0  0  0  0
  7  5  1  0  0  0  0
  9  4  1  0  0  0  0
 10  9  1  0  0  0  0
 11  3  1  0  0  0  0
 11  9  2  0  0  0  0
 12 11  1  0  0  0  0
 13 14  1  0  0  0  0
 14  6  1  0  0  0  0
 15 17  1  0  0  0  0
 15 16  1  0  0  0  0
 16 29  1  0  0  0  0
 16 25  1  0  0  0  0
 17 19  1  0  0  0  0
 17 20  1  0  0  0  0
 18 17  1  0  0  0  0
 21 15  1  0  0  0  0
 21 24  1  0  0  0  0
 22 21  1  0  0  0  0
 23 21  1  0  0  0  0
 25 28  1  0  0  0  0
 25 27  1  0  0  0  0
 26 25  1  0  0  0  0
 29 31  1  0  0  0  0
 29 32  1  0  0  0  0
 30 29  1  0  0  0  0
 33  1  1  0  0  0  0
 34 44  1  0  0  0  0
 35 44  2  0  0  0  0
 36 45  1  0  0  0  0
 36 46  1  0  0  0  0
 37 39  1  0  0  0  0
 37 47  1  0  0  0  0
 38 36  1  0  0  0  0
 40 35  1  0  0  0  0
 41 40  1  0  0  0  0
 42 34  1  0  0  0  0
 42 40  2  0  0  0  0
 43 42  1  0  0  0  0
 44 45  1  0  0  0  0
 45 37  1  0  0  0  0
 46 48  1  0  0  0  0
 46 47  1  0  0  0  0
 47 60  1  0  0  0  0
 47 56  1  0  0  0  0
 48 51  1  0  0  0  0
 49 48  1  0  0  0  0
 50 48  1  0  0  0  0
 52 46  1  0  0  0  0
 52 55  1  0  0  0  0
 53 52  1  0  0  0  0
 54 52  1  0  0  0  0
 56 59  1  0  0  0  0
 56 58  1  0  0  0  0
 57 56  1  0  0  0  0
 60 62  1  0  0  0  0
 60 63  1  0  0  0  0
 61 60  1  0  0  0  0
M  END
$$$$
