CSD_code = QARTIM | q = 1 | S = 0 | Stoichiometry = C21H23ClN3RuS3(1+) | MND = 6
 OpenBabel04212202083D

 52 58  0  0  1  0  0  0  0  0999 V2000
    5.8109    0.4854    6.1262 Ru  0  0  0  0  0  0  0  0  0  0  0  0
    4.1866   -0.5036    7.5454 S   0  0  1  0  0  3  0  0  0  0  0  0
    3.0140    0.8632    7.9598 C   0  0  0  0  0  0  0  0  0  0  0  0
    2.1552    0.7721    7.2974 H   0  0  0  0  0  0  0  0  0  0  0  0
    2.6866    0.6789    8.9835 H   0  0  0  0  0  0  0  0  0  0  0  0
    3.6655    2.2263    7.8690 C   0  0  0  0  0  0  0  0  0  0  0  0
    4.3921    2.3560    8.6728 H   0  0  0  0  0  0  0  0  0  0  0  0
    2.9215    3.0208    7.9324 H   0  0  0  0  0  0  0  0  0  0  0  0
    4.6461    2.5200    6.3452 S   0  0  2  0  0  3  0  0  0  0  0  0
    3.3331    2.5605    5.0600 C   0  0  0  0  0  0  0  0  0  0  0  0
    2.3985    2.2342    5.5143 H   0  0  0  0  0  0  0  0  0  0  0  0
    3.2340    3.6033    4.7568 H   0  0  0  0  0  0  0  0  0  0  0  0
    3.7356    1.7108    3.8769 C   0  0  0  0  0  0  0  0  0  0  0  0
    4.6010    2.1455    3.3708 H   0  0  0  0  0  0  0  0  0  0  0  0
    2.9170    1.5914    3.1670 H   0  0  0  0  0  0  0  0  0  0  0  0
    4.3380    0.0414    4.3140 S   0  0  2  0  0  3  0  0  0  0  0  0
    2.8439   -0.7286    5.0714 C   0  0  0  0  0  0  0  0  0  0  0  0
    2.0995    0.0504    5.2268 H   0  0  0  0  0  0  0  0  0  0  0  0
    2.4635   -1.4387    4.3371 H   0  0  0  0  0  0  0  0  0  0  0  0
    3.1922   -1.4684    6.3439 C   0  0  0  0  0  0  0  0  0  0  0  0
    3.8209   -2.3306    6.1101 H   0  0  0  0  0  0  0  0  0  0  0  0
    2.2967   -1.8050    6.8675 H   0  0  0  0  0  0  0  0  0  0  0  0
    7.1301    0.9309    7.5499 N   0  0  0  0  0  0  0  0  0  0  0  0
    7.4164    2.1604    7.9704 C   0  0  0  0  0  3  0  0  0  0  0  0
    6.8566    2.9713    7.5205 H   0  0  0  0  0  0  0  0  0  0  0  0
    8.3907    2.4219    8.9155 C   0  0  0  0  0  0  0  0  0  0  0  0
    8.5877    3.4375    9.2166 H   0  0  0  0  0  0  0  0  0  0  0  0
    9.1075    1.3606    9.4511 C   0  0  0  0  0  0  0  0  0  0  0  0
    9.8731    1.5278   10.1915 H   0  0  0  0  0  0  0  0  0  0  0  0
    8.8383    0.0843    8.9927 C   0  0  0  0  0  0  0  0  0  0  0  0
    9.4062   -0.7555    9.3565 H   0  0  0  0  0  0  0  0  0  0  0  0
    7.8491   -0.1025    8.0292 C   0  0  0  0  0  0  0  0  0  0  0  0
    6.8591   -1.2813    6.2334 N   0  0  0  0  0  0  0  0  0  0  0  0
    7.5714   -1.3816    7.3786 C   0  0  1  0  0  3  0  0  0  0  0  0
    8.0271   -2.6060    7.8566 C   0  0  0  0  0  0  0  0  0  0  0  0
    8.5669   -2.6562    8.7872 H   0  0  0  0  0  0  0  0  0  0  0  0
    7.7564   -3.7588    7.1402 C   0  0  0  0  0  0  0  0  0  0  0  0
    8.0712   -4.7227    7.5066 H   0  0  0  0  0  0  0  0  0  0  0  0
    7.0999   -3.6389    5.9285 C   0  0  0  0  0  0  0  0  0  0  0  0
    6.9008   -4.4939    5.3033 H   0  0  0  0  0  0  0  0  0  0  0  0
    6.6905   -2.3811    5.4946 C   0  0  0  0  0  0  0  0  0  0  0  0
    5.0190   -2.9558    3.8728 N   0  0  0  0  0  0  0  0  0  0  0  0
    6.1224   -2.2604    4.1349 C   0  0  0  0  0  0  0  0  0  0  0  0
    6.8003   -1.5097    3.1757 C   0  0  0  0  0  0  0  0  0  0  0  0
    7.6930   -0.9647    3.4384 H   0  0  0  0  0  0  0  0  0  0  0  0
    6.2885   -1.4862    1.8889 C   0  0  0  0  0  0  0  0  0  0  0  0
    6.7844   -0.9171    1.1179 H   0  0  0  0  0  0  0  0  0  0  0  0
    5.1374   -2.2080    1.6107 C   0  0  0  0  0  0  0  0  0  0  0  0
    4.7126   -2.2203    0.6198 H   0  0  0  0  0  0  0  0  0  0  0  0
    4.5432   -2.9236    2.6390 C   0  0  0  0  0  0  0  0  0  0  0  0
    3.6451   -3.5048    2.4757 H   0  0  0  0  0  0  0  0  0  0  0  0
    7.2806    1.5000    4.6236 Cl  0  0  0  0  0  0  0  0  0  0  0  0
  1 33  1  0  0  0  0
  1  9  1  0  0  0  0
  1  2  1  0  0  0  0
  1 23  1  0  0  0  0
  2 20  1  6  0  0  0
  2  3  1  0  0  0  0
  3  5  1  0  0  0  0
  4  3  1  0  0  0  0
  6  8  1  0  0  0  0
  6  3  1  0  0  0  0
  6  7  1  0  0  0  0
  9 10  1  6  0  0  0
  9  6  1  0  0  0  0
 10 11  1  0  0  0  0
 12 10  1  0  0  0  0
 13 10  1  0  0  0  0
 14 13  1  0  0  0  0
 15 13  1  0  0  0  0
 16 13  1  1  0  0  0
 16 17  1  0  0  0  0
 16  1  1  0  0  0  0
 17 18  1  0  0  0  0
 17 20  1  0  0  0  0
 19 17  1  0  0  0  0
 20 22  1  0  0  0  0
 21 20  1  0  0  0  0
 23 24  1  0  0  0  0
 23 32  1  0  0  0  0
 24 26  1  0  0  0  0
 25 24  1  0  0  0  0
 26 27  1  0  0  0  0
 26 28  2  0  0  0  0
 28 29  1  0  0  0  0
 30 31  1  0  0  0  0
 30 28  1  0  0  0  0
 32 30  2  0  0  0  0
 33 34  1  0  0  0  0
 34 35  1  6  0  0  0
 34 32  1  0  0  0  0
 35 36  1  0  0  0  0
 37 38  1  0  0  0  0
 37 35  2  0  0  0  0
 39 37  1  0  0  0  0
 40 39  1  0  0  0  0
 41 39  2  0  0  0  0
 41 33  1  0  0  0  0
 42 43  1  0  0  0  0
 43 41  1  0  0  0  0
 44 45  1  0  0  0  0
 44 43  2  0  0  0  0
 46 44  1  0  0  0  0
 47 46  1  0  0  0  0
 48 46  2  0  0  0  0
 48 50  1  0  0  0  0
 49 48  1  0  0  0  0
 50 42  2  0  0  0  0
 51 50  1  0  0  0  0
 52  1  1  0  0  0  0
M  END
$$$$
