CSD_code = QARWEO | q = 0 | S = 0 | Stoichiometry = C22H23Cl2N3Pd | MND = 4
 OpenBabel04212202083D

 51 55  0  0  1  0  0  0  0  0999 V2000
    1.8427    6.7222   14.1616 Pd  0  0  0  0  0  0  0  0  0  0  0  0
   -0.2027    6.4153   13.3549 Cl  0  0  0  0  0  0  0  0  0  0  0  0
    1.0445    8.1979   15.6365 Cl  0  0  0  0  0  0  0  0  0  0  0  0
    2.6656    4.5791   11.9361 N   0  0  0  0  0  0  0  0  0  0  0  0
    4.1074    5.4478   13.2407 N   0  0  0  0  0  0  0  0  0  0  0  0
    3.7910    6.9818   14.8986 N   0  0  0  0  0  0  0  0  0  0  0  0
    1.3975    4.3218   11.3415 C   0  0  0  0  0  0  0  0  0  0  0  0
    0.5921    3.3268   11.8955 C   0  0  0  0  0  0  0  0  0  0  0  0
   -0.6845    3.1727   11.3745 C   0  0  0  0  0  0  0  0  0  0  0  0
   -1.3466    2.4290   11.7867 H   0  0  0  0  0  0  0  0  0  0  0  0
   -1.1299    3.9843   10.3490 C   0  0  0  0  0  0  0  0  0  0  0  0
   -2.1335    3.8632    9.9700 H   0  0  0  0  0  0  0  0  0  0  0  0
   -0.3109    4.9601    9.8146 C   0  0  0  0  0  0  0  0  0  0  0  0
   -0.6853    5.5930    9.0268 H   0  0  0  0  0  0  0  0  0  0  0  0
    0.9738    5.1505   10.3024 C   0  0  0  0  0  0  0  0  0  0  0  0
    1.0853    2.4895   13.0542 C   0  0  0  0  0  0  0  0  0  0  0  0
    2.1821    2.4819   13.0440 H   0  0  0  0  0  0  0  0  0  0  0  0
    0.6192    3.1073   14.3777 C   0  0  0  0  0  0  0  0  0  0  0  0
    1.0335    4.1171   14.5173 H   0  0  0  0  0  0  0  0  0  0  0  0
    0.9336    2.4845   15.2129 H   0  0  0  0  0  0  0  0  0  0  0  0
   -0.4641    3.1930   14.3882 H   0  0  0  0  0  0  0  0  0  0  0  0
    0.6199    1.0349   12.9585 C   0  0  0  0  0  0  0  0  0  0  0  0
   -0.4451    0.9503   13.1537 H   0  0  0  0  0  0  0  0  0  0  0  0
    1.1433    0.4321   13.6976 H   0  0  0  0  0  0  0  0  0  0  0  0
    0.8274    0.6276   11.9711 H   0  0  0  0  0  0  0  0  0  0  0  0
    1.8722    6.2442    9.7694 C   0  0  0  0  0  0  0  0  0  0  0  0
    2.9149    5.9857    9.9901 H   0  0  0  0  0  0  0  0  0  0  0  0
    1.7556    6.4002    8.2515 C   0  0  0  0  0  0  0  0  0  0  0  0
    1.8492    5.4357    7.7567 H   0  0  0  0  0  0  0  0  0  0  0  0
    2.5458    7.0532    7.8872 H   0  0  0  0  0  0  0  0  0  0  0  0
    0.8034    6.8430    7.9746 H   0  0  0  0  0  0  0  0  0  0  0  0
    1.5476    7.5715   10.4648 C   0  0  0  0  0  0  0  0  0  0  0  0
    0.5012    7.8243   10.3168 H   0  0  0  0  0  0  0  0  0  0  0  0
    2.1659    8.3688   10.0567 H   0  0  0  0  0  0  0  0  0  0  0  0
    1.7246    7.5102   11.5495 H   0  0  0  0  0  0  0  0  0  0  0  0
    2.7845    5.4502   12.9499 C   0  0  0  0  0  0  0  0  0  0  0  0
    3.8776    4.0388   11.5915 C   0  0  0  0  0  0  0  0  0  0  0  0
    3.9751    3.3234   10.8011 H   0  0  0  0  0  0  0  0  0  0  0  0
    4.8223    4.5868   12.4222 C   0  0  0  0  0  0  0  0  0  0  0  0
    6.2269    4.5083   12.6393 C   0  0  0  0  0  0  0  0  0  0  0  0
    6.8091    3.8477   12.0172 H   0  0  0  0  0  0  0  0  0  0  0  0
    6.8035    5.2568   13.6113 C   0  0  0  0  0  0  0  0  0  0  0  0
    7.8673    5.2060   13.7840 H   0  0  0  0  0  0  0  0  0  0  0  0
    6.0344    6.1431   14.4456 C   0  0  0  0  0  0  0  0  0  0  0  0
    4.6512    6.2142   14.2237 C   0  0  2  0  0  3  0  0  0  0  0  0
    6.5275    6.9566   15.4711 C   0  0  0  0  0  0  0  0  0  0  0  0
    7.5816    6.9571   15.7024 H   0  0  0  0  0  0  0  0  0  0  0  0
    5.6399    7.7546   16.1766 C   0  0  0  0  0  0  0  0  0  0  0  0
    5.9950    8.3903   16.9717 H   0  0  0  0  0  0  0  0  0  0  0  0
    4.2849    7.7473   15.8699 C   0  0  0  0  0  0  0  0  0  0  0  0
    3.5631    8.3581   16.3981 H   0  0  0  0  0  0  0  0  0  0  0  0
  1  6  1  0  0  0  0
  1  3  1  0  0  0  0
  2  1  1  0  0  0  0
  4 36  1  0  0  0  0
  5 45  1  0  0  0  0
  6 50  1  0  0  0  0
  7  8  1  0  0  0  0
  7  4  1  0  0  0  0
  8 16  1  0  0  0  0
  9 10  1  0  0  0  0
  9  8  2  0  0  0  0
 11  9  1  0  0  0  0
 12 11  1  0  0  0  0
 13 15  1  0  0  0  0
 13 11  2  0  0  0  0
 14 13  1  0  0  0  0
 15  7  2  0  0  0  0
 16 18  1  0  0  0  0
 17 16  1  0  0  0  0
 18 21  1  0  0  0  0
 18 19  1  0  0  0  0
 18 20  1  0  0  0  0
 22 16  1  0  0  0  0
 22 23  1  0  0  0  0
 22 24  1  0  0  0  0
 25 22  1  0  0  0  0
 26 27  1  0  0  0  0
 26 15  1  0  0  0  0
 26 32  1  0  0  0  0
 28 26  1  0  0  0  0
 29 28  1  0  0  0  0
 30 28  1  0  0  0  0
 31 28  1  0  0  0  0
 32 35  1  0  0  0  0
 33 32  1  0  0  0  0
 34 32  1  0  0  0  0
 36  5  1  0  0  0  0
 36  1  2  0  0  0  0
 37  4  1  0  0  0  0
 37 39  2  0  0  0  0
 38 37  1  0  0  0  0
 39 40  1  0  0  0  0
 39  5  1  0  0  0  0
 40 42  2  0  0  0  0
 41 40  1  0  0  0  0
 42 43  1  0  0  0  0
 42 44  1  0  0  0  0
 44 46  2  0  0  0  0
 45 44  1  6  0  0  0
 45  6  1  0  0  0  0
 46 47  1  0  0  0  0
 46 48  1  0  0  0  0
 48 49  1  0  0  0  0
 50 48  2  0  0  0  0
 50 51  1  0  0  0  0
M  END
$$$$
