CSD_code = QASCUI | q = 0 | S = 0 | Stoichiometry = C14H12Br2N2NiO4 | MND = 4
 OpenBabel04212202083D

 35 37  0  0  1  0  0  0  0  0999 V2000
    2.0464   11.6281    6.9997 Br  0  0  0  0  0  0  0  0  0  0  0  0
    0.8763   11.1028    2.6091 Br  0  0  0  0  0  0  0  0  0  0  0  0
    1.4019   11.3669    4.8202 Ni  0  0  0  0  0  0  0  0  0  0  0  0
   -0.6704   12.6358    5.2243 N   0  0  0  0  0  0  0  0  0  0  0  0
   -0.6527   10.1921    5.5066 N   0  0  0  0  0  0  0  0  0  0  0  0
   -0.4688   13.9250    5.0196 C   0  0  0  0  0  0  0  0  0  0  0  0
   -1.4790   14.8689    5.1805 C   0  0  0  0  0  0  0  0  0  0  0  0
   -1.2881   15.9150    5.0075 H   0  0  0  0  0  0  0  0  0  0  0  0
   -2.7255   14.4012    5.5696 C   0  0  0  0  0  0  0  0  0  0  0  0
   -3.5417   15.0947    5.7078 H   0  0  0  0  0  0  0  0  0  0  0  0
   -2.9295   13.0439    5.7827 C   0  0  0  0  0  0  0  0  0  0  0  0
   -3.8976   12.6777    6.0850 H   0  0  0  0  0  0  0  0  0  0  0  0
   -1.8571   12.1740    5.5965 C   0  0  0  0  0  0  0  0  0  0  0  0
   -1.8470   10.7094    5.7639 C   0  0  0  0  0  0  0  0  0  0  0  0
   -2.9085    9.8892    6.1407 C   0  0  0  0  0  0  0  0  0  0  0  0
   -3.8824   10.3009    6.3520 H   0  0  0  0  0  0  0  0  0  0  0  0
   -2.6858    8.5217    6.2391 C   0  0  0  0  0  0  0  0  0  0  0  0
   -3.4935    7.8660    6.5284 H   0  0  0  0  0  0  0  0  0  0  0  0
   -1.4317    7.9956    5.9662 C   0  0  0  0  0  0  0  0  0  0  0  0
   -1.2267    6.9400    6.0326 H   0  0  0  0  0  0  0  0  0  0  0  0
   -0.4332    8.8928    5.5980 C   0  0  0  0  0  0  0  0  0  0  0  0
    0.9355   14.1762    4.6130 C   0  0  1  0  0  3  0  0  0  0  0  0
    1.7324   13.2561    4.5083 O   0  0  0  0  0  0  0  0  0  0  0  0
    1.2542   15.4347    4.3777 O   0  0  0  0  0  0  0  0  0  0  0  0
    2.6044   15.6719    3.9842 C   0  0  0  0  0  0  0  0  0  0  0  0
    3.2904   15.3072    4.7513 H   0  0  0  0  0  0  0  0  0  0  0  0
    2.6986   16.7478    3.8659 H   0  0  0  0  0  0  0  0  0  0  0  0
    2.8168   15.1614    3.0427 H   0  0  0  0  0  0  0  0  0  0  0  0
    0.9760    8.5761    5.2602 C   0  0  2  0  0  3  0  0  0  0  0  0
    1.7606    9.4598    4.9505 O   0  0  0  0  0  0  0  0  0  0  0  0
    1.3137    7.3018    5.3158 O   0  0  0  0  0  0  0  0  0  0  0  0
    2.6695    7.0033    4.9889 C   0  0  0  0  0  0  0  0  0  0  0  0
    2.8954    7.3400    3.9752 H   0  0  0  0  0  0  0  0  0  0  0  0
    2.7668    5.9240    5.0649 H   0  0  0  0  0  0  0  0  0  0  0  0
    3.3435    7.5009    5.6891 H   0  0  0  0  0  0  0  0  0  0  0  0
  2  3  1  0  0  0  0
  3 30  1  0  0  0  0
  3  1  1  0  0  0  0
  4 13  1  0  0  0  0
  5 21  2  0  0  0  0
  5 14  1  0  0  0  0
  6  7  1  0  0  0  0
  6  4  2  0  0  0  0
  7  9  2  0  0  0  0
  8  7  1  0  0  0  0
  9 10  1  0  0  0  0
  9 11  1  0  0  0  0
 11 12  1  0  0  0  0
 13 14  1  0  0  0  0
 13 11  2  0  0  0  0
 14 15  2  0  0  0  0
 15 17  1  0  0  0  0
 15 16  1  0  0  0  0
 17 18  1  0  0  0  0
 19 20  1  0  0  0  0
 19 17  2  0  0  0  0
 21 19  1  0  0  0  0
 22 24  1  6  0  0  0
 22  6  1  0  0  0  0
 23 22  1  0  0  0  0
 23  3  1  0  0  0  0
 25 24  1  0  0  0  0
 25 26  1  0  0  0  0
 27 25  1  0  0  0  0
 28 25  1  0  0  0  0
 29 31  1  6  0  0  0
 29 21  1  0  0  0  0
 30 29  1  0  0  0  0
 32 34  1  0  0  0  0
 32 31  1  0  0  0  0
 32 35  1  0  0  0  0
 33 32  1  0  0  0  0
M  END
$$$$
