CSD_code = QASDAP | q = 0 | S = 0 | Stoichiometry = C26H20Br2N2Ni | MND = 4
 OpenBabel04212202083D

 51 56  0  0  0  0  0  0  0  0999 V2000
    2.1348   11.3250    2.1356 Br  0  0  0  0  0  0  0  0  0  0  0  0
    4.2323   10.5011   -0.3457 Br  0  0  0  0  0  0  0  0  0  0  0  0
    3.2603    9.6172    1.4624 Ni  0  0  0  0  0  0  0  0  0  0  0  0
    1.8526    8.0118    0.6918 N   0  0  0  0  0  0  0  0  0  0  0  0
    4.3994    8.0642    1.5491 N   0  0  0  0  0  0  0  0  0  0  0  0
    0.6255    8.0442    0.2012 C   0  0  0  0  0  0  0  0  0  0  0  0
   -0.0210    6.8727   -0.2177 C   0  0  0  0  0  0  0  0  0  0  0  0
   -1.0379    6.9315   -0.5754 H   0  0  0  0  0  0  0  0  0  0  0  0
    0.6107    5.6498   -0.1424 C   0  0  0  0  0  0  0  0  0  0  0  0
    1.9527    5.6210    0.3119 C   0  0  0  0  0  0  0  0  0  0  0  0
    2.5212    6.8425    0.7260 C   0  0  0  0  0  0  0  0  0  0  0  0
    3.8790    6.8717    1.1928 C   0  0  0  0  0  0  0  0  0  0  0  0
    4.6242    5.6767    1.2562 C   0  0  0  0  0  0  0  0  0  0  0  0
    5.9508    5.7549    1.7476 C   0  0  0  0  0  0  0  0  0  0  0  0
    6.4430    6.9954    2.0965 C   0  0  0  0  0  0  0  0  0  0  0  0
    7.4488    7.0916    2.4762 H   0  0  0  0  0  0  0  0  0  0  0  0
    5.6474    8.1399    1.9857 C   0  0  0  0  0  0  0  0  0  0  0  0
    2.7582    4.4507    0.3176 C   0  0  0  0  0  0  0  0  0  0  0  0
    2.3385    3.5358   -0.0721 H   0  0  0  0  0  0  0  0  0  0  0  0
    4.0347    4.4763    0.7744 C   0  0  0  0  0  0  0  0  0  0  0  0
    4.6383    3.5821    0.7543 H   0  0  0  0  0  0  0  0  0  0  0  0
   -0.0500    9.3679    0.1167 C   0  0  0  0  0  0  0  0  0  0  0  0
   -0.3622    9.6936    1.1095 H   0  0  0  0  0  0  0  0  0  0  0  0
   -0.9215    9.3260   -0.5300 H   0  0  0  0  0  0  0  0  0  0  0  0
    0.6512   10.1134   -0.2601 H   0  0  0  0  0  0  0  0  0  0  0  0
    6.1817    9.4836    2.3604 C   0  0  0  0  0  0  0  0  0  0  0  0
    6.7327    9.9034    1.5166 H   0  0  0  0  0  0  0  0  0  0  0  0
    6.8516    9.4140    3.2144 H   0  0  0  0  0  0  0  0  0  0  0  0
    5.3617   10.1771    2.5993 H   0  0  0  0  0  0  0  0  0  0  0  0
   -0.1077    4.4250   -0.5246 C   0  0  0  0  0  0  0  0  0  0  0  0
   -0.7427    4.3469   -1.7609 C   0  0  0  0  0  0  0  0  0  0  0  0
   -0.6723    5.1780   -2.4475 H   0  0  0  0  0  0  0  0  0  0  0  0
   -1.4352    3.2051   -2.1187 C   0  0  0  0  0  0  0  0  0  0  0  0
   -1.9164    3.1505   -3.0838 H   0  0  0  0  0  0  0  0  0  0  0  0
   -1.5147    2.1359   -1.2419 C   0  0  0  0  0  0  0  0  0  0  0  0
   -2.0594    1.2464   -1.5208 H   0  0  0  0  0  0  0  0  0  0  0  0
   -0.8978    2.2119   -0.0042 C   0  0  0  0  0  0  0  0  0  0  0  0
   -0.9651    1.3840    0.6861 H   0  0  0  0  0  0  0  0  0  0  0  0
   -0.1943    3.3473    0.3533 C   0  0  0  0  0  0  0  0  0  0  0  0
    0.2705    3.4126    1.3269 H   0  0  0  0  0  0  0  0  0  0  0  0
    6.7958    4.5623    1.9063 C   0  0  0  0  0  0  0  0  0  0  0  0
    6.3546    3.4718    2.6519 C   0  0  0  0  0  0  0  0  0  0  0  0
    5.3808    3.5031    3.1198 H   0  0  0  0  0  0  0  0  0  0  0  0
    7.1697    2.3678    2.8205 C   0  0  0  0  0  0  0  0  0  0  0  0
    6.8213    1.5296    3.4056 H   0  0  0  0  0  0  0  0  0  0  0  0
    8.4280    2.3365    2.2426 C   0  0  0  0  0  0  0  0  0  0  0  0
    9.0604    1.4711    2.3712 H   0  0  0  0  0  0  0  0  0  0  0  0
    8.8746    3.4194    1.5034 C   0  0  0  0  0  0  0  0  0  0  0  0
    9.8557    3.3995    1.0530 H   0  0  0  0  0  0  0  0  0  0  0  0
    8.0678    4.5304    1.3415 C   0  0  0  0  0  0  0  0  0  0  0  0
    8.4110    5.3719    0.7574 H   0  0  0  0  0  0  0  0  0  0  0  0
  2  3  1  0  0  0  0
  3  5  1  0  0  0  0
  3  1  1  0  0  0  0
  4 11  1  0  0  0  0
  4  3  1  0  0  0  0
  5 17  1  0  0  0  0
  6  4  1  0  0  0  0
  7  9  1  0  0  0  0
  7  6  2  0  0  0  0
  8  7  1  0  0  0  0
  9 10  2  0  0  0  0
 10 18  1  0  0  0  0
 10 11  1  0  0  0  0
 11 12  2  0  0  0  0
 12 13  1  0  0  0  0
 12  5  1  0  0  0  0
 13 14  2  0  0  0  0
 14 41  1  0  0  0  0
 14 15  1  0  0  0  0
 15 16  1  0  0  0  0
 17 15  2  0  0  0  0
 17 26  1  0  0  0  0
 18 20  2  0  0  0  0
 19 18  1  0  0  0  0
 20 13  1  0  0  0  0
 21 20  1  0  0  0  0
 22  6  1  0  0  0  0
 22 23  1  0  0  0  0
 24 22  1  0  0  0  0
 25 22  1  0  0  0  0
 26 29  1  0  0  0  0
 26 28  1  0  0  0  0
 27 26  1  0  0  0  0
 30  9  1  0  0  0  0
 30 39  1  0  0  0  0
 31 30  2  0  0  0  0
 32 31  1  0  0  0  0
 33 31  1  0  0  0  0
 33 35  2  0  0  0  0
 34 33  1  0  0  0  0
 35 37  1  0  0  0  0
 36 35  1  0  0  0  0
 37 39  2  0  0  0  0
 37 38  1  0  0  0  0
 39 40  1  0  0  0  0
 41 42  1  0  0  0  0
 42 44  2  0  0  0  0
 42 43  1  0  0  0  0
 44 45  1  0  0  0  0
 46 47  1  0  0  0  0
 46 44  1  0  0  0  0
 48 46  2  0  0  0  0
 49 48  1  0  0  0  0
 50 48  1  0  0  0  0
 50 41  2  0  0  0  0
 51 50  1  0  0  0  0
M  END
$$$$
