CSD_code = QASHOI | q = 1 | S = 0 | Stoichiometry = C28H29INP2Pd(1+) | MND = 4
 OpenBabel04212202083D

 62 67  0  0  1  0  0  0  0  0999 V2000
    0.9082    9.5129    2.3743 Pd  0  0  1  0  0  0  0  0  0  0  0  0
    0.3970    7.3171    2.5707 P   0  0  0  0  0  4  0  0  0  0  0  0
    0.1779    6.4152    4.1183 C   0  0  0  0  0  0  0  0  0  0  0  0
    0.6755    6.9794    5.2898 C   0  0  0  0  0  0  0  0  0  0  0  0
    1.1733    7.9421    5.2551 H   0  0  0  0  0  0  0  0  0  0  0  0
    0.5443    6.3024    6.4889 C   0  0  0  0  0  0  0  0  0  0  0  0
    0.9357    6.7360    7.3960 H   0  0  0  0  0  0  0  0  0  0  0  0
   -0.0831    5.0678    6.5202 C   0  0  0  0  0  0  0  0  0  0  0  0
   -0.1818    4.5371    7.4544 H   0  0  0  0  0  0  0  0  0  0  0  0
   -0.5859    4.5082    5.3547 C   0  0  0  0  0  0  0  0  0  0  0  0
   -1.0748    3.5463    5.3837 H   0  0  0  0  0  0  0  0  0  0  0  0
   -0.4609    5.1768    4.1516 C   0  0  0  0  0  0  0  0  0  0  0  0
   -0.8541    4.7386    3.2441 H   0  0  0  0  0  0  0  0  0  0  0  0
    1.4790    6.3770    1.4657 C   0  0  0  0  0  0  0  0  0  0  0  0
    2.0121    7.1146    0.4054 C   0  0  0  0  0  0  0  0  0  0  0  0
    1.7703    8.1843    0.3014 H   0  0  0  0  0  0  0  0  0  0  0  0
    2.8706    6.5126   -0.4922 C   0  0  0  0  0  0  0  0  0  0  0  0
    3.2898    7.0813   -1.3081 H   0  0  0  0  0  0  0  0  0  0  0  0
    3.2085    5.1769   -0.3281 C   0  0  0  0  0  0  0  0  0  0  0  0
    3.8864    4.7074   -1.0237 H   0  0  0  0  0  0  0  0  0  0  0  0
    2.6980    4.4509    0.7350 C   0  0  0  0  0  0  0  0  0  0  0  0
    2.9801    3.4179    0.8683 H   0  0  0  0  0  0  0  0  0  0  0  0
    1.8356    5.0464    1.6400 C   0  0  0  0  0  0  0  0  0  0  0  0
    1.4582    4.4869    2.4831 H   0  0  0  0  0  0  0  0  0  0  0  0
   -1.2680    7.2900    1.7207 C   0  0  0  0  0  0  0  0  0  0  0  0
   -1.1086    7.1186    0.6499 H   0  0  0  0  0  0  0  0  0  0  0  0
   -1.8978    6.4880    2.1092 H   0  0  0  0  0  0  0  0  0  0  0  0
   -1.9289    8.6479    1.9526 C   0  0  0  0  0  0  0  0  0  0  0  0
   -2.8922    8.6992    1.4252 H   0  0  0  0  0  0  0  0  0  0  0  0
   -2.1181    8.7904    3.0246 H   0  0  0  0  0  0  0  0  0  0  0  0
   -1.0347    9.7205    1.4988 N   0  0  1  0  0  4  0  0  0  0  0  0
   -0.8619    9.5822    0.4948 H   0  0  0  0  0  0  0  0  0  0  0  0
   -1.5706   11.0754    1.6820 C   0  0  0  0  0  0  0  0  0  0  0  0
   -1.7821   11.2200    2.7496 H   0  0  0  0  0  0  0  0  0  0  0  0
   -2.5127   11.1948    1.1280 H   0  0  0  0  0  0  0  0  0  0  0  0
   -0.5471   12.1085    1.2126 C   0  0  0  0  0  0  0  0  0  0  0  0
   -0.8994   13.1254    1.4021 H   0  0  0  0  0  0  0  0  0  0  0  0
   -0.3671   11.9930    0.1383 H   0  0  0  0  0  0  0  0  0  0  0  0
    1.0348   11.7757    2.1343 P   0  0  0  0  0  4  0  0  0  0  0  0
    0.6290   12.3886    3.7960 C   0  0  0  0  0  0  0  0  0  0  0  0
    0.2435   11.4657    4.7690 C   0  0  0  0  0  0  0  0  0  0  0  0
    0.2283   10.3871    4.5396 H   0  0  0  0  0  0  0  0  0  0  0  0
   -0.1027   11.9009    6.0352 C   0  0  0  0  0  0  0  0  0  0  0  0
   -0.3945   11.1877    6.7913 H   0  0  0  0  0  0  0  0  0  0  0  0
   -0.0648   13.2539    6.3337 C   0  0  0  0  0  0  0  0  0  0  0  0
   -0.3282   13.5922    7.3237 H   0  0  0  0  0  0  0  0  0  0  0  0
    0.3174   14.1730    5.3688 C   0  0  0  0  0  0  0  0  0  0  0  0
    0.3496   15.2249    5.6073 H   0  0  0  0  0  0  0  0  0  0  0  0
    0.6642   13.7461    4.1001 C   0  0  0  0  0  0  0  0  0  0  0  0
    0.9736   14.4577    3.3471 H   0  0  0  0  0  0  0  0  0  0  0  0
    2.2920   12.9034    1.5046 C   0  0  0  0  0  0  0  0  0  0  0  0
    2.1940   13.5389    0.2701 C   0  0  0  0  0  0  0  0  0  0  0  0
    1.3258   13.4005   -0.3578 H   0  0  0  0  0  0  0  0  0  0  0  0
    3.2184   14.3666   -0.1537 C   0  0  0  0  0  0  0  0  0  0  0  0
    3.1392   14.8670   -1.1069 H   0  0  0  0  0  0  0  0  0  0  0  0
    4.3420   14.5493    0.6362 C   0  0  0  0  0  0  0  0  0  0  0  0
    5.1389   15.1918    0.2951 H   0  0  0  0  0  0  0  0  0  0  0  0
    4.4471   13.9044    1.8593 C   0  0  0  0  0  0  0  0  0  0  0  0
    5.3247   14.0397    2.4719 H   0  0  0  0  0  0  0  0  0  0  0  0
    3.4287   13.0797    2.2954 C   0  0  0  0  0  0  0  0  0  0  0  0
    3.5080   12.5672    3.2448 H   0  0  0  0  0  0  0  0  0  0  0  0
    3.2807    9.2918    3.3115 I   0  0  0  0  0  0  0  0  0  0  0  0
  1  2  1  0  0  0  0
  1 62  1  6  0  0  0
  2  3  1  0  0  0  0
  3 12  2  0  0  0  0
  3  4  1  0  0  0  0
  4  6  2  0  0  0  0
  5  4  1  0  0  0  0
  6  8  1  0  0  0  0
  6  7  1  0  0  0  0
  8  9  1  0  0  0  0
 10 11  1  0  0  0  0
 10  8  2  0  0  0  0
 12 10  1  0  0  0  0
 13 12  1  0  0  0  0
 14 23  1  0  0  0  0
 14  2  1  0  0  0  0
 15 14  2  0  0  0  0
 16 15  1  0  0  0  0
 17 19  2  0  0  0  0
 17 15  1  0  0  0  0
 18 17  1  0  0  0  0
 19 21  1  0  0  0  0
 20 19  1  0  0  0  0
 21 22  1  0  0  0  0
 21 23  2  0  0  0  0
 23 24  1  0  0  0  0
 25 28  1  0  0  0  0
 25 27  1  0  0  0  0
 25  2  1  0  0  0  0
 26 25  1  0  0  0  0
 28 30  1  0  0  0  0
 29 28  1  0  0  0  0
 31 32  1  6  0  0  0
 31 33  1  0  0  0  0
 31 28  1  0  0  0  0
 31  1  1  0  0  0  0
 33 34  1  0  0  0  0
 35 33  1  0  0  0  0
 36 37  1  0  0  0  0
 36 33  1  0  0  0  0
 36 39  1  0  0  0  0
 38 36  1  0  0  0  0
 39  1  1  0  0  0  0
 39 40  1  0  0  0  0
 40 49  2  0  0  0  0
 40 41  1  0  0  0  0
 41 43  2  0  0  0  0
 42 41  1  0  0  0  0
 43 45  1  0  0  0  0
 43 44  1  0  0  0  0
 45 46  1  0  0  0  0
 47 48  1  0  0  0  0
 47 45  2  0  0  0  0
 49 47  1  0  0  0  0
 50 49  1  0  0  0  0
 51 39  1  0  0  0  0
 51 60  1  0  0  0  0
 52 51  2  0  0  0  0
 53 52  1  0  0  0  0
 54 52  1  0  0  0  0
 54 56  2  0  0  0  0
 55 54  1  0  0  0  0
 56 58  1  0  0  0  0
 57 56  1  0  0  0  0
 58 60  2  0  0  0  0
 58 59  1  0  0  0  0
 60 61  1  0  0  0  0
M  END
$$$$
