CSD_code = QASKAX | q = 0 | S = 0 | Stoichiometry = C6H12I2N2O4Pt | MND = 6
 OpenBabel04212202083D

 27 28  0  0  0  0  0  0  0  0999 V2000
    3.6959    0.5835    3.0949 Pt  0  0  0  0  0  0  0  0  0  0  0  0
    1.5163    1.4732    4.3554 I   0  0  0  0  0  0  0  0  0  0  0  0
    5.9973   -0.1775    1.9554 I   0  0  0  0  0  0  0  0  0  0  0  0
    4.2978    2.6590    2.7876 N   0  0  0  0  0  4  0  0  0  0  0  0
    5.3066    2.8123    2.7528 H   0  0  0  0  0  0  0  0  0  0  0  0
    3.8699    3.3382    3.4185 H   0  0  0  0  0  0  0  0  0  0  0  0
    3.9270    2.8290    1.8464 H   0  0  0  0  0  0  0  0  0  0  0  0
    4.6107    0.2255    5.0434 N   0  0  0  0  0  4  0  0  0  0  0  0
    4.3932   -0.7679    5.1770 H   0  0  0  0  0  0  0  0  0  0  0  0
    4.1997    0.7419    5.8224 H   0  0  0  0  0  0  0  0  0  0  0  0
    5.6267    0.3236    5.0659 H   0  0  0  0  0  0  0  0  0  0  0  0
    2.3446   -0.1121    0.5867 C   0  0  0  0  0  0  0  0  0  0  0  0
    2.9058    0.8450    1.2727 O   0  0  0  0  0  0  0  0  0  0  0  0
    2.2075    0.0395   -0.6052 O   0  0  0  0  0  0  0  0  0  0  0  0
    1.7490   -1.3211    1.3070 C   0  0  0  0  0  0  0  0  0  0  0  0
    1.0756   -2.3068    0.3344 C   0  0  0  0  0  0  0  0  0  0  0  0
    1.2446   -2.0491   -0.7086 H   0  0  0  0  0  0  0  0  0  0  0  0
    1.3718   -3.3374    0.5161 H   0  0  0  0  0  0  0  0  0  0  0  0
   -0.3079   -1.9281    0.8805 C   0  0  0  0  0  0  0  0  0  0  0  0
   -0.8463   -2.7486    1.3487 H   0  0  0  0  0  0  0  0  0  0  0  0
   -0.9552   -1.4435    0.1535 H   0  0  0  0  0  0  0  0  0  0  0  0
    0.3397   -0.9581    1.8748 C   0  0  0  0  0  0  0  0  0  0  0  0
    0.2077   -1.2281    2.9220 H   0  0  0  0  0  0  0  0  0  0  0  0
    0.0642    0.0869    1.7375 H   0  0  0  0  0  0  0  0  0  0  0  0
    2.5791   -2.0323    2.3747 C   0  0  0  0  0  0  0  0  0  0  0  0
    3.1839   -1.3419    3.3011 O   0  0  0  0  0  0  0  0  0  0  0  0
    2.6008   -3.2390    2.4525 O   0  0  0  0  0  0  0  0  0  0  0  0
  1 26  1  0  0  0  0
  1  2  1  0  0  0  0
  1  8  1  0  0  0  0
  3  1  1  0  0  0  0
  4  1  1  0  0  0  0
  4  6  1  0  0  0  0
  5  4  1  0  0  0  0
  7  4  1  0  0  0  0
  8 11  1  0  0  0  0
  8  9  1  0  0  0  0
  8 10  1  0  0  0  0
 12 13  1  0  0  0  0
 12 15  1  0  0  0  0
 13  1  1  0  0  0  0
 14 12  2  0  0  0  0
 15 22  1  0  0  0  0
 15 25  1  0  0  0  0
 16 18  1  0  0  0  0
 16 19  1  0  0  0  0
 16 15  1  0  0  0  0
 17 16  1  0  0  0  0
 19 20  1  0  0  0  0
 19 22  1  0  0  0  0
 21 19  1  0  0  0  0
 22 23  1  0  0  0  0
 24 22  1  0  0  0  0
 25 27  2  0  0  0  0
 25 26  1  0  0  0  0
M  END
$$$$
