CSD_code = QASRAD | q = 0 | S = 0 | Stoichiometry = C14H21ClN4SZn | MND = 4
 OpenBabel04212202083D

 42 45  0  0  1  0  0  0  0  0999 V2000
    3.1253   11.2908    3.6019 Zn  0  0  2  0  0  0  0  0  0  0  0  0
    1.2579   10.4369    2.8605 Cl  0  0  0  0  0  0  0  0  0  0  0  0
    5.0748   12.4212    3.1156 S   0  0  0  0  0  0  0  0  0  0  0  0
    3.8767   10.0039    5.0871 N   0  0  0  0  0  0  0  0  0  0  0  0
    4.5611   10.6257    6.0604 N   0  0  1  0  0  0  0  0  0  0  0  0
    2.6784   12.6154    5.1961 N   0  0  1  0  0  0  0  0  0  0  0  0
    3.7047   12.8273    6.0362 N   0  0  0  0  0  0  0  0  0  0  0  0
    0.4430   13.5378    4.7659 C   0  0  0  0  0  0  0  0  0  0  0  0
    0.3031   12.6250    4.1926 H   0  0  0  0  0  0  0  0  0  0  0  0
    0.4513   14.3816    4.0766 H   0  0  0  0  0  0  0  0  0  0  0  0
   -0.3872   13.6689    5.4562 H   0  0  0  0  0  0  0  0  0  0  0  0
    1.7250   13.4786    5.5067 C   0  0  2  0  0  3  0  0  0  0  0  0
    2.1491   14.2647    6.5887 C   0  0  0  0  0  0  0  0  0  0  0  0
    1.6008   15.0481    7.0700 H   0  0  0  0  0  0  0  0  0  0  0  0
    3.4136   13.8224    6.9092 C   0  0  0  0  0  0  0  0  0  0  0  0
    4.3251   14.2829    7.9879 C   0  0  0  0  0  0  0  0  0  0  0  0
    5.2604   14.6648    7.5821 H   0  0  0  0  0  0  0  0  0  0  0  0
    4.5536   13.4745    8.6830 H   0  0  0  0  0  0  0  0  0  0  0  0
    3.8399   15.0810    8.5422 H   0  0  0  0  0  0  0  0  0  0  0  0
    5.6059   10.1394    8.2895 C   0  0  0  0  0  0  0  0  0  0  0  0
    5.0690   10.9019    8.8541 H   0  0  0  0  0  0  0  0  0  0  0  0
    6.6006   10.5162    8.0527 H   0  0  0  0  0  0  0  0  0  0  0  0
    5.7142    9.2618    8.9202 H   0  0  0  0  0  0  0  0  0  0  0  0
    4.8632    9.7627    7.0597 C   0  0  1  0  0  3  0  0  0  0  0  0
    4.3478    8.5399    6.6901 C   0  0  0  0  0  0  0  0  0  0  0  0
    4.4007    7.6256    7.2442 H   0  0  0  0  0  0  0  0  0  0  0  0
    3.7341    8.7376    5.4444 C   0  0  0  0  0  0  0  0  0  0  0  0
    3.0344    7.7516    4.5886 C   0  0  0  0  0  0  0  0  0  0  0  0
    2.2254    8.2376    4.0479 H   0  0  0  0  0  0  0  0  0  0  0  0
    2.6400    6.9393    5.1930 H   0  0  0  0  0  0  0  0  0  0  0  0
    3.7266    7.3362    3.8564 H   0  0  0  0  0  0  0  0  0  0  0  0
    4.9016   12.0242    5.9792 C   0  0  2  0  0  0  0  0  0  0  0  0
    5.4684   12.2529    6.8900 H   0  0  0  0  0  0  0  0  0  0  0  0
    5.8483   12.3651    4.7891 C   0  0  0  0  0  0  0  0  0  0  0  0
    6.4235   13.7607    5.0340 C   0  0  0  0  0  0  0  0  0  0  0  0
    5.6249   14.4974    5.0804 H   0  0  0  0  0  0  0  0  0  0  0  0
    7.0668   14.0244    4.1996 H   0  0  0  0  0  0  0  0  0  0  0  0
    7.0091   13.7935    5.9531 H   0  0  0  0  0  0  0  0  0  0  0  0
    6.9745   11.3328    4.7576 C   0  0  0  0  0  0  0  0  0  0  0  0
    6.5901   10.3446    4.5162 H   0  0  0  0  0  0  0  0  0  0  0  0
    7.4996   11.2901    5.7123 H   0  0  0  0  0  0  0  0  0  0  0  0
    7.6808   11.6126    3.9814 H   0  0  0  0  0  0  0  0  0  0  0  0
  1  2  1  6  0  0  0
  1  4  1  0  0  0  0
  1  6  1  0  0  0  0
  3  1  1  0  0  0  0
  3 34  1  0  0  0  0
  4 27  1  0  0  0  0
  5  4  1  6  0  0  0
  5 24  1  0  0  0  0
  6 12  1  0  0  0  0
  6  7  1  6  0  0  0
  7 15  1  0  0  0  0
  8 11  1  0  0  0  0
  9  8  1  0  0  0  0
 10  8  1  0  0  0  0
 12  8  1  6  0  0  0
 12 13  1  0  0  0  0
 13 15  2  0  0  0  0
 13 14  1  0  0  0  0
 15 16  1  0  0  0  0
 16 19  1  0  0  0  0
 16 18  1  0  0  0  0
 17 16  1  0  0  0  0
 20 21  1  0  0  0  0
 20 23  1  0  0  0  0
 22 20  1  0  0  0  0
 24 20  1  1  0  0  0
 25 24  1  0  0  0  0
 25 26  1  0  0  0  0
 27 25  2  0  0  0  0
 28 30  1  0  0  0  0
 28 27  1  0  0  0  0
 29 28  1  0  0  0  0
 31 28  1  0  0  0  0
 32  7  1  0  0  0  0
 32  5  1  0  0  0  0
 32 33  1  1  0  0  0
 34 35  1  0  0  0  0
 34 32  1  0  0  0  0
 35 36  1  0  0  0  0
 35 38  1  0  0  0  0
 37 35  1  0  0  0  0
 39 34  1  0  0  0  0
 39 41  1  0  0  0  0
 40 39  1  0  0  0  0
 42 39  1  0  0  0  0
M  END
$$$$
