CSD_code = QATLUU | q = 0 | S = 0 | Stoichiometry = C29H22CuIN3P | MND = 4
 OpenBabel04212202083D

 57 62  0  0  1  0  0  0  0  0999 V2000
    4.6090    7.1106    0.0948 I   0  0  0  0  0  0  0  0  0  0  0  0
    4.0163    6.0407    2.2588 Cu  0  0  2  0  0  0  0  0  0  0  0  0
    4.9368    6.2073    4.3261 P   0  0  0  0  0  4  0  0  0  0  0  0
    3.3491    4.0643    2.1139 N   0  0  0  0  0  0  0  0  0  0  0  0
    2.0636    6.2439    2.7414 N   0  0  0  0  0  0  0  0  0  0  0  0
    3.0122    9.0931    4.2441 N   0  0  0  0  0  0  0  0  0  0  0  0
    4.0539    2.9514    2.0410 C   0  0  0  0  0  3  0  0  0  0  0  0
    5.1223    3.0552    2.1793 H   0  0  0  0  0  0  0  0  0  0  0  0
    3.4712    1.7187    1.7956 C   0  0  0  0  0  0  0  0  0  0  0  0
    4.0799    0.8317    1.7281 H   0  0  0  0  0  0  0  0  0  0  0  0
    2.0936    1.6617    1.6346 C   0  0  0  0  0  0  0  0  0  0  0  0
    1.6025    0.7188    1.4448 H   0  0  0  0  0  0  0  0  0  0  0  0
    1.3537    2.8276    1.7229 C   0  0  0  0  0  0  0  0  0  0  0  0
    0.2800    2.8085    1.6238 H   0  0  0  0  0  0  0  0  0  0  0  0
    2.0212    4.0276    1.9572 C   0  0  0  0  0  0  0  0  0  0  0  0
    1.3576    5.3302    2.0630 C   0  0  2  0  0  3  0  0  0  0  0  0
    0.1348    5.6345    1.4764 C   0  0  0  0  0  0  0  0  0  0  0  0
   -0.4047    4.8873    0.9167 H   0  0  0  0  0  0  0  0  0  0  0  0
   -0.3633    6.9259    1.5887 C   0  0  0  0  0  0  0  0  0  0  0  0
   -1.3011    7.1905    1.1255 H   0  0  0  0  0  0  0  0  0  0  0  0
    0.3614    7.8731    2.2956 C   0  0  0  0  0  0  0  0  0  0  0  0
    0.0124    8.8876    2.4070 H   0  0  0  0  0  0  0  0  0  0  0  0
    1.5681    7.4815    2.8676 C   0  0  0  0  0  0  0  0  0  0  0  0
    2.3613    8.3806    3.6238 C   0  0  0  0  0  0  0  0  0  0  0  0
    3.8032    6.2340    5.7439 C   0  0  0  0  0  0  0  0  0  0  0  0
    2.8312    5.2345    5.7702 C   0  0  0  0  0  0  0  0  0  0  0  0
    2.8406    4.4665    5.0047 H   0  0  0  0  0  0  0  0  0  0  0  0
    1.8674    5.2266    6.7591 C   0  0  0  0  0  0  0  0  0  0  0  0
    1.1191    4.4467    6.7806 H   0  0  0  0  0  0  0  0  0  0  0  0
    1.8570    6.2277    7.7185 C   0  0  0  0  0  0  0  0  0  0  0  0
    1.1007    6.2261    8.4896 H   0  0  0  0  0  0  0  0  0  0  0  0
    2.8076    7.2343    7.6815 C   0  0  0  0  0  0  0  0  0  0  0  0
    2.7897    8.0199    8.4225 H   0  0  0  0  0  0  0  0  0  0  0  0
    3.7779    7.2462    6.6950 C   0  0  0  0  0  0  0  0  0  0  0  0
    4.5059    8.0429    6.6555 H   0  0  0  0  0  0  0  0  0  0  0  0
    6.1209    7.5473    4.6521 C   0  0  0  0  0  0  0  0  0  0  0  0
    6.9872    7.5050    5.7421 C   0  0  0  0  0  0  0  0  0  0  0  0
    6.9554    6.6646    6.4234 H   0  0  0  0  0  0  0  0  0  0  0  0
    7.8819    8.5379    5.9442 C   0  0  0  0  0  0  0  0  0  0  0  0
    8.5528    8.5092    6.7908 H   0  0  0  0  0  0  0  0  0  0  0  0
    7.9218    9.6078    5.0621 C   0  0  0  0  0  0  0  0  0  0  0  0
    8.6252   10.4111    5.2255 H   0  0  0  0  0  0  0  0  0  0  0  0
    7.0680    9.6460    3.9730 C   0  0  0  0  0  0  0  0  0  0  0  0
    7.1034   10.4745    3.2820 H   0  0  0  0  0  0  0  0  0  0  0  0
    6.1680    8.6159    3.7646 C   0  0  0  0  0  0  0  0  0  0  0  0
    5.5006    8.6360    2.9146 H   0  0  0  0  0  0  0  0  0  0  0  0
    5.9938    4.7580    4.6457 C   0  0  0  0  0  0  0  0  0  0  0  0
    6.9808    4.5248    3.6885 C   0  0  0  0  0  0  0  0  0  0  0  0
    7.0822    5.2140    2.8580 H   0  0  0  0  0  0  0  0  0  0  0  0
    7.8170    3.4316    3.8005 C   0  0  0  0  0  0  0  0  0  0  0  0
    8.5824    3.2583    3.0583 H   0  0  0  0  0  0  0  0  0  0  0  0
    7.6661    2.5547    4.8645 C   0  0  0  0  0  0  0  0  0  0  0  0
    8.3156    1.6964    4.9530 H   0  0  0  0  0  0  0  0  0  0  0  0
    6.6826    2.7789    5.8132 C   0  0  0  0  0  0  0  0  0  0  0  0
    6.5672    2.0964    6.6430 H   0  0  0  0  0  0  0  0  0  0  0  0
    5.8445    3.8760    5.7083 C   0  0  0  0  0  0  0  0  0  0  0  0
    5.0800    4.0467    6.4539 H   0  0  0  0  0  0  0  0  0  0  0  0
  2  1  1  6  0  0  0
  2  5  1  0  0  0  0
  2  3  1  0  0  0  0
  3 47  1  0  0  0  0
  3 36  1  0  0  0  0
  3 25  1  0  0  0  0
  4  2  1  0  0  0  0
  5 23  1  0  0  0  0
  7  4  1  0  0  0  0
  7  8  1  0  0  0  0
  9  7  1  0  0  0  0
 10  9  1  0  0  0  0
 11 13  1  0  0  0  0
 11  9  2  0  0  0  0
 12 11  1  0  0  0  0
 13 15  2  0  0  0  0
 14 13  1  0  0  0  0
 15 16  1  0  0  0  0
 15  4  1  0  0  0  0
 16 17  1  6  0  0  0
 16  5  1  0  0  0  0
 17 19  2  0  0  0  0
 18 17  1  0  0  0  0
 19 21  1  0  0  0  0
 20 19  1  0  0  0  0
 21 22  1  0  0  0  0
 21 23  2  0  0  0  0
 23 24  1  0  0  0  0
 24  6  3  0  0  0  0
 25 26  2  0  0  0  0
 25 34  1  0  0  0  0
 26 28  1  0  0  0  0
 27 26  1  0  0  0  0
 28 29  1  0  0  0  0
 28 30  2  0  0  0  0
 30 31  1  0  0  0  0
 32 30  1  0  0  0  0
 32 33  1  0  0  0  0
 34 32  2  0  0  0  0
 35 34  1  0  0  0  0
 36 37  1  0  0  0  0
 37 39  2  0  0  0  0
 37 38  1  0  0  0  0
 39 40  1  0  0  0  0
 41 42  1  0  0  0  0
 41 39  1  0  0  0  0
 43 41  2  0  0  0  0
 44 43  1  0  0  0  0
 45 43  1  0  0  0  0
 45 36  2  0  0  0  0
 46 45  1  0  0  0  0
 47 56  1  0  0  0  0
 48 50  1  0  0  0  0
 48 47  2  0  0  0  0
 49 48  1  0  0  0  0
 50 52  2  0  0  0  0
 51 50  1  0  0  0  0
 52 53  1  0  0  0  0
 52 54  1  0  0  0  0
 54 55  1  0  0  0  0
 56 54  2  0  0  0  0
 56 57  1  0  0  0  0
M  END
$$$$
