CSD_code = QATLOO | q = 0 | S = 0 | Stoichiometry = C29H22BrCuN3P | MND = 4
 OpenBabel04212202083D

 57 62  0  0  1  0  0  0  0  0999 V2000
    7.0925    2.2142    0.7986 Br  0  0  0  0  0  0  0  0  0  0  0  0
    6.4971    1.1452    2.7227 Cu  0  0  2  0  0  0  0  0  0  0  0  0
    7.2318    1.5252    4.8186 P   0  0  0  0  0  4  0  0  0  0  0  0
    6.0759   -0.8838    2.4902 N   0  0  0  0  0  0  0  0  0  0  0  0
    4.4735    1.1359    2.8816 N   0  0  0  0  0  0  0  0  0  0  0  0
    4.8861    4.0856    4.4272 N   0  0  0  0  0  0  0  0  0  0  0  0
    6.9092   -1.9080    2.5284 C   0  0  0  0  0  3  0  0  0  0  0  0
    7.9264   -1.6812    2.8209 H   0  0  0  0  0  0  0  0  0  0  0  0
    6.5168   -3.1970    2.2104 C   0  0  0  0  0  0  0  0  0  0  0  0
    7.2281   -4.0062    2.2389 H   0  0  0  0  0  0  0  0  0  0  0  0
    5.1924   -3.4139    1.8520 C   0  0  0  0  0  0  0  0  0  0  0  0
    4.8480   -4.4061    1.6012 H   0  0  0  0  0  0  0  0  0  0  0  0
    4.3164   -2.3440    1.8249 C   0  0  0  0  0  0  0  0  0  0  0  0
    3.2779   -2.4888    1.5732 H   0  0  0  0  0  0  0  0  0  0  0  0
    4.7958   -1.0753    2.1446 C   0  0  0  0  0  0  0  0  0  0  0  0
    3.9746    0.1376    2.1398 C   0  0  2  0  0  3  0  0  0  0  0  0
    2.8092    0.2907    1.3959 C   0  0  0  0  0  0  0  0  0  0  0  0
    2.4394   -0.5184    0.7868 H   0  0  0  0  0  0  0  0  0  0  0  0
    2.1501    1.5114    1.4186 C   0  0  0  0  0  0  0  0  0  0  0  0
    1.2542    1.6582    0.8354 H   0  0  0  0  0  0  0  0  0  0  0  0
    2.6598    2.5441    2.1919 C   0  0  0  0  0  0  0  0  0  0  0  0
    2.1796    3.5087    2.2379 H   0  0  0  0  0  0  0  0  0  0  0  0
    3.8223    2.3055    2.9172 C   0  0  0  0  0  0  0  0  0  0  0  0
    4.4032    3.2990    3.7462 C   0  0  0  0  0  0  0  0  0  0  0  0
    5.9660    1.4905    6.1199 C   0  0  0  0  0  0  0  0  0  0  0  0
    5.0926    0.4040    6.0935 C   0  0  0  0  0  0  0  0  0  0  0  0
    5.2461   -0.3792    5.3594 H   0  0  0  0  0  0  0  0  0  0  0  0
    4.0454    0.3308    6.9906 C   0  0  0  0  0  0  0  0  0  0  0  0
    3.3746   -0.5167    6.9728 H   0  0  0  0  0  0  0  0  0  0  0  0
    3.8526    1.3518    7.9087 C   0  0  0  0  0  0  0  0  0  0  0  0
    3.0302    1.2993    8.6069 H   0  0  0  0  0  0  0  0  0  0  0  0
    4.7055    2.4427    7.9225 C   0  0  0  0  0  0  0  0  0  0  0  0
    4.5446    3.2436    8.6290 H   0  0  0  0  0  0  0  0  0  0  0  0
    5.7591    2.5201    7.0287 C   0  0  0  0  0  0  0  0  0  0  0  0
    6.4106    3.3813    7.0271 H   0  0  0  0  0  0  0  0  0  0  0  0
    8.4078    0.2308    5.3288 C   0  0  0  0  0  0  0  0  0  0  0  0
    9.5109    0.0663    4.4915 C   0  0  0  0  0  0  0  0  0  0  0  0
    9.6224    0.7184    3.6331 H   0  0  0  0  0  0  0  0  0  0  0  0
   10.4477   -0.9130    4.7570 C   0  0  0  0  0  0  0  0  0  0  0  0
   11.3031   -1.0326    4.1083 H   0  0  0  0  0  0  0  0  0  0  0  0
   10.2838   -1.7448    5.8546 C   0  0  0  0  0  0  0  0  0  0  0  0
   11.0129   -2.5139    6.0628 H   0  0  0  0  0  0  0  0  0  0  0  0
    9.1851   -1.5903    6.6833 C   0  0  0  0  0  0  0  0  0  0  0  0
    9.0585   -2.2382    7.5387 H   0  0  0  0  0  0  0  0  0  0  0  0
    8.2452   -0.6072    6.4247 C   0  0  0  0  0  0  0  0  0  0  0  0
    7.3901   -0.4897    7.0759 H   0  0  0  0  0  0  0  0  0  0  0  0
    8.2089    3.0197    5.1580 C   0  0  0  0  0  0  0  0  0  0  0  0
    8.9897    3.1369    6.3055 C   0  0  0  0  0  0  0  0  0  0  0  0
    9.0174    2.3273    7.0233 H   0  0  0  0  0  0  0  0  0  0  0  0
    9.7239    4.2877    6.5176 C   0  0  0  0  0  0  0  0  0  0  0  0
   10.3281    4.3827    7.4084 H   0  0  0  0  0  0  0  0  0  0  0  0
    9.6881    5.3178    5.5893 C   0  0  0  0  0  0  0  0  0  0  0  0
   10.2667    6.2138    5.7606 H   0  0  0  0  0  0  0  0  0  0  0  0
    8.9202    5.1980    4.4437 C   0  0  0  0  0  0  0  0  0  0  0  0
    8.8991    5.9950    3.7162 H   0  0  0  0  0  0  0  0  0  0  0  0
    8.1810    4.0491    4.2242 C   0  0  0  0  0  0  0  0  0  0  0  0
    7.5865    3.9457    3.3270 H   0  0  0  0  0  0  0  0  0  0  0  0
  2  1  1  6  0  0  0
  2  5  1  0  0  0  0
  2  3  1  0  0  0  0
  3 47  1  0  0  0  0
  3 36  1  0  0  0  0
  3 25  1  0  0  0  0
  4  7  1  0  0  0  0
  4  2  1  0  0  0  0
  5 23  1  0  0  0  0
  7  8  1  0  0  0  0
  9 10  1  0  0  0  0
  9  7  1  0  0  0  0
 11  9  2  0  0  0  0
 12 11  1  0  0  0  0
 13 11  1  0  0  0  0
 13 15  2  0  0  0  0
 14 13  1  0  0  0  0
 15  4  1  0  0  0  0
 16 17  1  6  0  0  0
 16 15  1  0  0  0  0
 16  5  1  0  0  0  0
 17 19  2  0  0  0  0
 18 17  1  0  0  0  0
 19 21  1  0  0  0  0
 20 19  1  0  0  0  0
 21 22  1  0  0  0  0
 21 23  2  0  0  0  0
 23 24  1  0  0  0  0
 24  6  3  0  0  0  0
 25 34  1  0  0  0  0
 26 25  2  0  0  0  0
 26 28  1  0  0  0  0
 27 26  1  0  0  0  0
 28 30  2  0  0  0  0
 29 28  1  0  0  0  0
 30 32  1  0  0  0  0
 30 31  1  0  0  0  0
 32 33  1  0  0  0  0
 34 32  2  0  0  0  0
 35 34  1  0  0  0  0
 36 45  1  0  0  0  0
 37 39  1  0  0  0  0
 37 36  2  0  0  0  0
 38 37  1  0  0  0  0
 39 41  2  0  0  0  0
 40 39  1  0  0  0  0
 41 42  1  0  0  0  0
 41 43  1  0  0  0  0
 43 44  1  0  0  0  0
 45 43  2  0  0  0  0
 45 46  1  0  0  0  0
 47 48  1  0  0  0  0
 48 50  2  0  0  0  0
 48 49  1  0  0  0  0
 50 51  1  0  0  0  0
 52 53  1  0  0  0  0
 52 50  1  0  0  0  0
 54 52  2  0  0  0  0
 55 54  1  0  0  0  0
 56 54  1  0  0  0  0
 56 47  2  0  0  0  0
 57 56  1  0  0  0  0
M  END
$$$$
