CSD_code = QATMIJ | q = 0 | S = 0 | Stoichiometry = C28H26Cl2N2O3PRe | MND = 6
 OpenBabel04212202083D

 63 67  0  0  0  0  0  0  0  0999 V2000
    4.4709    3.2878    4.2637 Re  0  0  0  0  0  0  0  0  0  0  0  0
    2.3413    2.4595    4.4728 Cl  0  0  0  0  0  0  0  0  0  0  0  0
    3.8184    4.3625    2.3642 Cl  0  0  0  0  0  0  0  0  0  0  0  0
    6.8434    3.7171    3.6458 P   0  0  0  0  0  4  0  0  0  0  0  0
    4.9137    1.6406    3.1414 O   0  0  0  0  0  0  0  0  0  0  0  0
    7.0030   -1.5710    4.8059 O   0  0  0  0  0  0  0  0  0  0  0  0
    6.4943   -0.8540    5.2501 H   0  0  0  0  0  0  0  0  0  0  0  0
    4.5388    4.5017    5.3944 O   0  0  0  0  0  1  0  0  0  0  0  0
    5.4966    0.5471    5.0288 N   0  0  0  0  0  0  0  0  0  0  0  0
    5.0286    1.6408    5.6761 N   0  0  0  0  0  0  0  0  0  0  0  0
    5.4188    0.6182    3.7194 C   0  0  0  0  0  0  0  0  0  0  0  0
    5.3691    0.3448    7.6822 C   0  0  0  0  0  0  0  0  0  0  0  0
    4.8876   -0.5265    7.2407 H   0  0  0  0  0  0  0  0  0  0  0  0
    5.1147    0.4095    8.7351 H   0  0  0  0  0  0  0  0  0  0  0  0
    6.4460    0.2108    7.5785 H   0  0  0  0  0  0  0  0  0  0  0  0
    4.9448    1.5830    6.9555 C   0  0  0  0  0  3  0  0  0  0  0  0
    4.4291    2.7132    7.7621 C   0  0  0  0  0  0  0  0  0  0  0  0
    5.0932    2.9036    8.6032 H   0  0  0  0  0  0  0  0  0  0  0  0
    3.4460    2.4540    8.1549 H   0  0  0  0  0  0  0  0  0  0  0  0
    4.3277    3.6155    7.1597 H   0  0  0  0  0  0  0  0  0  0  0  0
    5.9824   -0.4687    2.9152 C   0  0  0  0  0  0  0  0  0  0  0  0
    6.7681   -1.4857    3.4866 C   0  0  0  0  0  0  0  0  0  0  0  0
    7.3481   -2.4383    2.6487 C   0  0  0  0  0  0  0  0  0  0  0  0
    7.9533   -3.2084    3.1007 H   0  0  0  0  0  0  0  0  0  0  0  0
    7.1440   -2.3957    1.2856 C   0  0  0  0  0  0  0  0  0  0  0  0
    7.5991   -3.1454    0.6557 H   0  0  0  0  0  0  0  0  0  0  0  0
    6.3545   -1.4017    0.7219 C   0  0  0  0  0  0  0  0  0  0  0  0
    6.1896   -1.3760   -0.3439 H   0  0  0  0  0  0  0  0  0  0  0  0
    5.7824   -0.4482    1.5339 C   0  0  0  0  0  0  0  0  0  0  0  0
    5.1641    0.3343    1.1215 H   0  0  0  0  0  0  0  0  0  0  0  0
    7.8514    3.1811    5.0581 C   0  0  0  0  0  0  0  0  0  0  0  0
    8.2506    1.8537    5.2004 C   0  0  0  0  0  0  0  0  0  0  0  0
    8.0830    1.1463    4.4008 H   0  0  0  0  0  0  0  0  0  0  0  0
    8.8554    1.4322    6.3705 C   0  0  0  0  0  0  0  0  0  0  0  0
    9.1610    0.4008    6.4692 H   0  0  0  0  0  0  0  0  0  0  0  0
    9.0589    2.3255    7.4099 C   0  0  0  0  0  0  0  0  0  0  0  0
    9.5262    1.9922    8.3245 H   0  0  0  0  0  0  0  0  0  0  0  0
    8.6561    3.6450    7.2768 C   0  0  0  0  0  0  0  0  0  0  0  0
    8.8091    4.3412    8.0879 H   0  0  0  0  0  0  0  0  0  0  0  0
    8.0481    4.0719    6.1109 C   0  0  0  0  0  0  0  0  0  0  0  0
    7.7142    5.0948    6.0092 H   0  0  0  0  0  0  0  0  0  0  0  0
    7.4906    2.8919    2.1664 C   0  0  0  0  0  0  0  0  0  0  0  0
    8.7666    2.3382    2.1097 C   0  0  0  0  0  0  0  0  0  0  0  0
    9.4277    2.3972    2.9630 H   0  0  0  0  0  0  0  0  0  0  0  0
    9.1934    1.7156    0.9503 C   0  0  0  0  0  0  0  0  0  0  0  0
   10.1804    1.2786    0.9120 H   0  0  0  0  0  0  0  0  0  0  0  0
    8.3618    1.6521   -0.1554 C   0  0  0  0  0  0  0  0  0  0  0  0
    8.6986    1.1561   -1.0534 H   0  0  0  0  0  0  0  0  0  0  0  0
    7.1047    2.2322   -0.1111 C   0  0  0  0  0  0  0  0  0  0  0  0
    6.4615    2.1978   -0.9776 H   0  0  0  0  0  0  0  0  0  0  0  0
    6.6663    2.8526    1.0444 C   0  0  0  0  0  0  0  0  0  0  0  0
    5.6834    3.3034    1.0911 H   0  0  0  0  0  0  0  0  0  0  0  0
    7.2748    5.4639    3.3961 C   0  0  0  0  0  0  0  0  0  0  0  0
    8.4715    5.8045    2.7723 C   0  0  0  0  0  0  0  0  0  0  0  0
    9.1406    5.0299    2.4248 H   0  0  0  0  0  0  0  0  0  0  0  0
    8.7967    7.1363    2.5940 C   0  0  0  0  0  0  0  0  0  0  0  0
    9.7245    7.4012    2.1088 H   0  0  0  0  0  0  0  0  0  0  0  0
    7.9336    8.1287    3.0317 C   0  0  0  0  0  0  0  0  0  0  0  0
    8.1901    9.1673    2.8851 H   0  0  0  0  0  0  0  0  0  0  0  0
    6.7412    7.7901    3.6502 C   0  0  0  0  0  0  0  0  0  0  0  0
    6.0663    8.5628    3.9858 H   0  0  0  0  0  0  0  0  0  0  0  0
    6.4079    6.4596    3.8319 C   0  0  0  0  0  0  0  0  0  0  0  0
    5.4743    6.1834    4.3064 H   0  0  0  0  0  0  0  0  0  0  0  0
  1  2  1  0  0  0  0
  1  8  1  0  0  0  0
  1 10  1  0  0  0  0
  3  1  1  0  0  0  0
  4  1  1  0  0  0  0
  4 31  1  0  0  0  0
  5 11  1  0  0  0  0
  5  1  1  0  0  0  0
  6  7  1  0  0  0  0
  9 10  1  0  0  0  0
 10 16  1  0  0  0  0
 11  9  2  0  0  0  0
 12 14  1  0  0  0  0
 13 12  1  0  0  0  0
 15 12  1  0  0  0  0
 16 12  1  0  0  0  0
 16 17  1  0  0  0  0
 17 19  1  0  0  0  0
 17 18  1  0  0  0  0
 20 17  1  0  0  0  0
 21 22  1  0  0  0  0
 21 11  1  0  0  0  0
 22  6  1  0  0  0  0
 23 24  1  0  0  0  0
 23 22  2  0  0  0  0
 25 23  1  0  0  0  0
 26 25  1  0  0  0  0
 27 25  2  0  0  0  0
 27 29  1  0  0  0  0
 28 27  1  0  0  0  0
 29 21  2  0  0  0  0
 30 29  1  0  0  0  0
 31 32  2  0  0  0  0
 31 40  1  0  0  0  0
 32 34  1  0  0  0  0
 33 32  1  0  0  0  0
 34 35  1  0  0  0  0
 34 36  2  0  0  0  0
 36 37  1  0  0  0  0
 38 36  1  0  0  0  0
 38 39  1  0  0  0  0
 40 38  2  0  0  0  0
 41 40  1  0  0  0  0
 42  4  1  0  0  0  0
 43 42  1  0  0  0  0
 43 44  1  0  0  0  0
 45 43  2  0  0  0  0
 46 45  1  0  0  0  0
 47 49  2  0  0  0  0
 47 45  1  0  0  0  0
 48 47  1  0  0  0  0
 49 51  1  0  0  0  0
 50 49  1  0  0  0  0
 51 52  1  0  0  0  0
 51 42  2  0  0  0  0
 53  4  1  0  0  0  0
 53 62  1  0  0  0  0
 54 53  2  0  0  0  0
 55 54  1  0  0  0  0
 56 54  1  0  0  0  0
 56 58  2  0  0  0  0
 57 56  1  0  0  0  0
 58 60  1  0  0  0  0
 59 58  1  0  0  0  0
 60 62  2  0  0  0  0
 60 61  1  0  0  0  0
 62 63  1  0  0  0  0
M  END
$$$$
