CSD_code = QAVGOJ | q = 0 | S = 0 | Stoichiometry = C14H14Cl2O4Ti | MND = 6
 OpenBabel04212202083D

 35 36  0  0  0  0  0  0  0  0999 V2000
   -1.5490   15.5897   10.2114 Ti  0  0  0  0  0  0  0  0  0  0  0  0
   -0.0525   17.1714   10.2600 Cl  0  0  0  0  0  0  0  0  0  0  0  0
   -2.9933   16.3615   11.6472 Cl  0  0  0  0  0  0  0  0  0  0  0  0
   -2.3601   16.0616    8.7262 O   0  0  0  0  0  0  0  0  0  0  0  0
   -2.9159   13.8491    9.8532 O   0  0  0  0  0  0  0  0  0  0  0  0
   -0.7518   14.4277   11.2608 O   0  0  0  0  0  0  0  0  0  0  0  0
   -0.2449   14.4765    8.7683 O   0  0  0  0  0  0  0  0  0  0  0  0
   -3.3354   15.3809    8.1510 C   0  0  0  0  0  0  0  0  0  0  0  0
   -3.7124   14.1627    8.7598 C   0  0  0  0  0  0  0  0  0  0  0  0
   -4.7521   13.4062    8.2579 C   0  0  0  0  0  0  0  0  0  0  0  0
   -5.4202   13.8476    7.1216 C   0  0  0  0  0  0  0  0  0  0  0  0
   -5.0491   15.0279    6.5033 C   0  0  0  0  0  0  0  0  0  0  0  0
   -4.0127   15.7968    7.0061 C   0  0  0  0  0  0  0  0  0  0  0  0
   -3.4959   13.0310   10.8594 C   0  0  0  0  0  0  0  0  0  0  0  0
    0.2019   13.5977   10.8771 C   0  0  0  0  0  0  0  0  0  0  0  0
    0.5513   13.6121    9.5079 C   0  0  0  0  0  0  0  0  0  0  0  0
    1.5675   12.8141    9.0225 C   0  0  0  0  0  0  0  0  0  0  0  0
    2.2398   11.9704    9.8992 C   0  0  0  0  0  0  0  0  0  0  0  0
    1.8961   11.9316   11.2383 C   0  0  0  0  0  0  0  0  0  0  0  0
    0.8828   12.7353   11.7343 C   0  0  0  0  0  0  0  0  0  0  0  0
    0.3165   15.0087    7.5769 C   0  0  0  0  0  0  0  0  0  0  0  0
   -5.0496   12.4845    8.7334 H   0  0  0  0  0  0  0  0  0  0  0  0
   -6.2346   13.2610    6.7267 H   0  0  0  0  0  0  0  0  0  0  0  0
   -5.5759   15.3608    5.6222 H   0  0  0  0  0  0  0  0  0  0  0  0
   -3.7297   16.7306    6.5439 H   0  0  0  0  0  0  0  0  0  0  0  0
   -3.5530   11.9899   10.5229 H   0  0  0  0  0  0  0  0  0  0  0  0
   -2.8351   13.1027   11.7265 H   0  0  0  0  0  0  0  0  0  0  0  0
   -4.4910   13.3984   11.1288 H   0  0  0  0  0  0  0  0  0  0  0  0
    1.8440   12.8378    7.9799 H   0  0  0  0  0  0  0  0  0  0  0  0
    3.0363   11.3467    9.5252 H   0  0  0  0  0  0  0  0  0  0  0  0
    2.4263   11.2737   11.9096 H   0  0  0  0  0  0  0  0  0  0  0  0
    0.6216   12.7285   12.7818 H   0  0  0  0  0  0  0  0  0  0  0  0
    0.3371   14.2481    6.7884 H   0  0  0  0  0  0  0  0  0  0  0  0
   -0.3344   15.8334    7.2769 H   0  0  0  0  0  0  0  0  0  0  0  0
    1.3253   15.3905    7.7632 H   0  0  0  0  0  0  0  0  0  0  0  0
  1  2  1  0  0  0  0
  1  6  1  0  0  0  0
  1  3  1  0  0  0  0
  4  1  1  0  0  0  0
  5 14  1  0  0  0  0
  7 16  1  0  0  0  0
  8  4  1  0  0  0  0
  8  9  1  0  0  0  0
  9  5  1  0  0  0  0
 10 22  1  0  0  0  0
 10  9  2  0  0  0  0
 11 10  1  0  0  0  0
 12 13  1  0  0  0  0
 12 11  2  0  0  0  0
 13  8  2  0  0  0  0
 14 28  1  0  0  0  0
 14 27  1  0  0  0  0
 15  6  1  0  0  0  0
 15 20  1  0  0  0  0
 16 15  2  0  0  0  0
 17 16  1  0  0  0  0
 17 18  2  0  0  0  0
 18 19  1  0  0  0  0
 19 20  2  0  0  0  0
 19 31  1  0  0  0  0
 20 32  1  0  0  0  0
 21 35  1  0  0  0  0
 21  7  1  0  0  0  0
 23 11  1  0  0  0  0
 24 12  1  0  0  0  0
 25 13  1  0  0  0  0
 26 14  1  0  0  0  0
 29 17  1  0  0  0  0
 30 18  1  0  0  0  0
 33 21  1  0  0  0  0
 34 21  1  0  0  0  0
M  END
$$$$
