CSD_code = QAVJII | q = 0 | S = 0 | Stoichiometry = C19H18AuBrF2N2 | MND = 2
 OpenBabel04212202083D

 43 45  0  0  1  0  0  0  0  0999 V2000
    3.1329    5.0159   -0.6344 Au  0  0  0  0  0  0  0  0  0  0  0  0
    2.9197    4.9876   -2.9842 Br  0  0  0  0  0  0  0  0  0  0  0  0
    3.3072    5.0439    1.3862 C   0  0  2  0  0  3  0  0  0  0  0  0
    3.6594    4.0184    2.1819 N   0  0  0  0  0  0  0  0  0  0  0  0
    3.6522    4.4122    3.5017 C   0  0  0  0  0  0  0  0  0  0  0  0
    3.2896    5.7325    3.5117 C   0  0  0  0  0  0  0  0  0  0  0  0
    3.0793    6.0909    2.1990 N   0  0  0  0  0  0  0  0  0  0  0  0
    4.1390    2.7482    1.6945 C   0  0  0  0  0  0  0  0  0  0  0  0
    3.7929    2.6461    0.6627 H   0  0  0  0  0  0  0  0  0  0  0  0
    3.7138    1.9416    2.2939 H   0  0  0  0  0  0  0  0  0  0  0  0
    5.6623    2.6860    1.7431 C   0  0  0  0  0  0  0  0  0  0  0  0
    6.0023    1.7324    1.3507 H   0  0  0  0  0  0  0  0  0  0  0  0
    6.0173    2.7892    2.7666 H   0  0  0  0  0  0  0  0  0  0  0  0
    6.0909    3.4823    1.1389 H   0  0  0  0  0  0  0  0  0  0  0  0
    2.5231    7.3471    1.7593 C   0  0  0  0  0  0  0  0  0  0  0  0
    2.7269    7.4362    0.6891 H   0  0  0  0  0  0  0  0  0  0  0  0
    3.0129    8.1680    2.2857 H   0  0  0  0  0  0  0  0  0  0  0  0
    1.0188    7.3913    2.0095 C   0  0  0  0  0  0  0  0  0  0  0  0
    0.6150    8.3332    1.6508 H   0  0  0  0  0  0  0  0  0  0  0  0
    0.8050    7.3016    3.0728 H   0  0  0  0  0  0  0  0  0  0  0  0
    0.5258    6.5787    1.4806 H   0  0  0  0  0  0  0  0  0  0  0  0
    3.9865    3.5669    4.6469 C   0  0  0  0  0  0  0  0  0  0  0  0
    4.9535    3.9961    5.5540 C   0  0  0  0  0  0  0  0  0  0  0  0
    5.4606    4.9340    5.3859 H   0  0  0  0  0  0  0  0  0  0  0  0
    5.2712    3.2298    6.6583 C   0  0  0  0  0  0  0  0  0  0  0  0
    6.0199    3.5484    7.3657 H   0  0  0  0  0  0  0  0  0  0  0  0
    4.6093    2.0294    6.8491 C   0  0  0  0  0  0  0  0  0  0  0  0
    3.6337    1.5864    5.9737 C   0  0  0  0  0  0  0  0  0  0  0  0
    3.1275    0.6531    6.1621 H   0  0  0  0  0  0  0  0  0  0  0  0
    3.3228    2.3630    4.8738 C   0  0  0  0  0  0  0  0  0  0  0  0
    2.5387    2.0422    4.2039 H   0  0  0  0  0  0  0  0  0  0  0  0
    4.9154    1.2762    7.9205 F   0  0  0  0  0  0  0  0  0  0  0  0
    3.1281    6.6110    4.6696 C   0  0  0  0  0  0  0  0  0  0  0  0
    2.2957    6.2175    5.7155 C   0  0  0  0  0  0  0  0  0  0  0  0
    1.7643    5.2804    5.6477 H   0  0  0  0  0  0  0  0  0  0  0  0
    2.1411    7.0182    6.8302 C   0  0  0  0  0  0  0  0  0  0  0  0
    1.4970    6.7280    7.6447 H   0  0  0  0  0  0  0  0  0  0  0  0
    2.8309    8.2165    6.8905 C   0  0  0  0  0  0  0  0  0  0  0  0
    3.6765    8.6245    5.8743 C   0  0  0  0  0  0  0  0  0  0  0  0
    4.2099    9.5575    5.9621 H   0  0  0  0  0  0  0  0  0  0  0  0
    3.8244    7.8140    4.7649 C   0  0  0  0  0  0  0  0  0  0  0  0
    4.5075    8.1076    3.9814 H   0  0  0  0  0  0  0  0  0  0  0  0
    2.6828    9.0030    7.9715 F   0  0  0  0  0  0  0  0  0  0  0  0
  2  1  1  0  0  0  0
  3  1  1  1  0  0  0
  3  4  1  0  0  0  0
  3  7  1  0  0  0  0
  4  5  1  0  0  0  0
  5  6  2  0  0  0  0
  5 22  1  0  0  0  0
  6 33  1  0  0  0  0
  7  6  1  0  0  0  0
  8 11  1  0  0  0  0
  8  4  1  0  0  0  0
  8 10  1  0  0  0  0
  9  8  1  0  0  0  0
 11 13  1  0  0  0  0
 12 11  1  0  0  0  0
 14 11  1  0  0  0  0
 15 18  1  0  0  0  0
 15  7  1  0  0  0  0
 15 17  1  0  0  0  0
 16 15  1  0  0  0  0
 18 20  1  0  0  0  0
 19 18  1  0  0  0  0
 21 18  1  0  0  0  0
 22 30  2  0  0  0  0
 22 23  1  0  0  0  0
 23 25  2  0  0  0  0
 24 23  1  0  0  0  0
 25 27  1  0  0  0  0
 25 26  1  0  0  0  0
 27 32  1  0  0  0  0
 28 29  1  0  0  0  0
 28 27  2  0  0  0  0
 30 28  1  0  0  0  0
 31 30  1  0  0  0  0
 33 41  2  0  0  0  0
 33 34  1  0  0  0  0
 34 36  2  0  0  0  0
 35 34  1  0  0  0  0
 36 38  1  0  0  0  0
 36 37  1  0  0  0  0
 38 43  1  0  0  0  0
 39 40  1  0  0  0  0
 39 38  2  0  0  0  0
 41 39  1  0  0  0  0
 42 41  1  0  0  0  0
M  END
$$$$
