CSD_code = QAWFIF | q = 0 | S = 0 | Stoichiometry = C14H15Cl2N3Zn | MND = 4
 OpenBabel04212202083D

 35 37  0  0  0  0  0  0  0  0999 V2000
   -2.6817    5.5381    2.5245 Zn  0  0  0  0  0  0  0  0  0  0  0  0
   -3.4863    3.4813    2.5663 Cl  0  0  0  0  0  0  0  0  0  0  0  0
   -3.6324    7.4666    2.9828 Cl  0  0  0  0  0  0  0  0  0  0  0  0
   -1.5675    5.6446    0.7205 N   0  0  0  0  0  0  0  0  0  0  0  0
   -0.6897    5.4094    3.2930 N   0  0  0  0  0  0  0  0  0  0  0  0
    0.2140    5.0970    8.7663 N   0  0  0  0  0  0  0  0  0  0  0  0
   -1.9964    5.7436   -0.5242 C   0  0  0  0  0  3  0  0  0  0  0  0
   -3.0563    5.9178   -0.6478 H   0  0  0  0  0  0  0  0  0  0  0  0
   -1.1519    5.6352   -1.6189 C   0  0  0  0  0  0  0  0  0  0  0  0
   -1.5438    5.7225   -2.6191 H   0  0  0  0  0  0  0  0  0  0  0  0
    0.1995    5.4106   -1.3930 C   0  0  0  0  0  0  0  0  0  0  0  0
    0.8875    5.3171   -2.2199 H   0  0  0  0  0  0  0  0  0  0  0  0
    0.6494    5.3080   -0.0913 C   0  0  0  0  0  0  0  0  0  0  0  0
    1.6920    5.1326    0.1253 H   0  0  0  0  0  0  0  0  0  0  0  0
   -0.2675    5.4299    0.9589 C   0  0  0  0  0  0  0  0  0  0  0  0
    0.1596    5.3256    2.3328 C   0  0  0  0  0  3  0  0  0  0  0  0
    1.2248    5.1642    2.4936 H   0  0  0  0  0  0  0  0  0  0  0  0
   -0.3909    5.3316    4.6244 C   0  0  0  0  0  0  0  0  0  0  0  0
    0.9045    5.2736    5.1692 C   0  0  0  0  0  0  0  0  0  0  0  0
    1.7703    5.3026    4.5252 H   0  0  0  0  0  0  0  0  0  0  0  0
    1.1008    5.2017    6.5232 C   0  0  0  0  0  0  0  0  0  0  0  0
    2.1131    5.1750    6.8914 H   0  0  0  0  0  0  0  0  0  0  0  0
    0.0168    5.1770    7.4269 C   0  0  0  0  0  0  0  0  0  0  0  0
   -1.2797    5.2442    6.8757 C   0  0  0  0  0  0  0  0  0  0  0  0
   -2.1454    5.2295    7.5152 H   0  0  0  0  0  0  0  0  0  0  0  0
   -1.4696    5.3228    5.5228 C   0  0  0  0  0  0  0  0  0  0  0  0
   -2.4734    5.3706    5.1205 H   0  0  0  0  0  0  0  0  0  0  0  0
    1.5429    4.9597    9.3111 C   0  0  0  0  0  0  0  0  0  0  0  0
    2.0570    4.1017    8.8712 H   0  0  0  0  0  0  0  0  0  0  0  0
    1.4813    4.8002   10.3844 H   0  0  0  0  0  0  0  0  0  0  0  0
    2.1415    5.8582    9.1323 H   0  0  0  0  0  0  0  0  0  0  0  0
   -0.9046    5.1590    9.6769 C   0  0  0  0  0  0  0  0  0  0  0  0
   -1.4882    6.0684    9.5152 H   0  0  0  0  0  0  0  0  0  0  0  0
   -0.5402    5.1687   10.7008 H   0  0  0  0  0  0  0  0  0  0  0  0
   -1.5622    4.2936    9.5548 H   0  0  0  0  0  0  0  0  0  0  0  0
  1  2  1  0  0  0  0
  1  3  1  0  0  0  0
  1  5  1  0  0  0  0
  4 15  1  0  0  0  0
  4  1  1  0  0  0  0
  5 18  1  0  0  0  0
  6 28  1  0  0  0  0
  6 32  1  0  0  0  0
  7  4  1  0  0  0  0
  8  7  1  0  0  0  0
  9 11  2  0  0  0  0
  9  7  1  0  0  0  0
 10  9  1  0  0  0  0
 11 13  1  0  0  0  0
 12 11  1  0  0  0  0
 13 14  1  0  0  0  0
 13 15  2  0  0  0  0
 15 16  1  0  0  0  0
 16 17  1  0  0  0  0
 16  5  1  0  0  0  0
 18 19  2  0  0  0  0
 18 26  1  0  0  0  0
 19 21  1  0  0  0  0
 20 19  1  0  0  0  0
 21 22  1  0  0  0  0
 21 23  2  0  0  0  0
 23  6  1  0  0  0  0
 24 23  1  0  0  0  0
 24 25  1  0  0  0  0
 26 24  2  0  0  0  0
 27 26  1  0  0  0  0
 28 30  1  0  0  0  0
 29 28  1  0  0  0  0
 31 28  1  0  0  0  0
 32 34  1  0  0  0  0
 33 32  1  0  0  0  0
 35 32  1  0  0  0  0
M  END
$$$$
