CSD_code = QAWNAF | q = 1 | S = 0 | Stoichiometry = C15H23ClN3PtS2(1+) | MND = 4
 OpenBabel04212202083D

 45 47  0  0  1  0  0  0  0  0999 V2000
    0.3866    3.0548    2.1626 Pt  0  0  1  0  0  0  0  0  0  0  0  0
   -1.4396    3.7722    3.1405 Cl  0  0  0  0  0  0  0  0  0  0  0  0
    1.6899    3.3345    4.0560 S   0  0  0  0  0  0  0  0  0  0  0  0
   -0.6752    2.6462    0.1456 S   0  0  0  0  0  0  0  0  0  0  0  0
    2.0208    2.4649    1.2781 N   0  0  0  0  0  0  0  0  0  0  0  0
    4.2471    2.6717    4.1163 N   0  0  0  0  0  0  0  0  0  0  0  0
    5.0714    2.3056    3.6598 H   0  0  0  0  0  0  0  0  0  0  0  0
    0.5871    1.5850   -1.9193 N   0  0  0  0  0  0  0  0  0  0  0  0
    1.4293    1.2183   -2.3413 H   0  0  0  0  0  0  0  0  0  0  0  0
    3.1496    2.8049    3.3807 C   0  0  2  0  0  3  0  0  0  0  0  0
    3.2037    2.4889    1.9493 C   0  0  0  0  0  0  0  0  0  0  0  0
    4.4038    2.2466    1.2826 C   0  0  0  0  0  0  0  0  0  0  0  0
    5.3504    2.3073    1.7941 H   0  0  0  0  0  0  0  0  0  0  0  0
    4.3959    1.9583   -0.0707 C   0  0  0  0  0  0  0  0  0  0  0  0
    5.3193    1.7920   -0.6005 H   0  0  0  0  0  0  0  0  0  0  0  0
    3.1826    1.8848   -0.7320 C   0  0  0  0  0  0  0  0  0  0  0  0
    3.1791    1.6645   -1.7869 H   0  0  0  0  0  0  0  0  0  0  0  0
    1.9976    2.1317   -0.0404 C   0  0  0  0  0  0  0  0  0  0  0  0
    0.6833    2.0765   -0.6894 C   0  0  0  0  0  0  0  0  0  0  0  0
    4.4566    2.9330    5.5492 C   0  0  0  0  0  0  0  0  0  0  0  0
    4.1840    4.4048    5.8607 C   0  0  0  0  0  0  0  0  0  0  0  0
    4.7748    5.0479    5.2130 H   0  0  0  0  0  0  0  0  0  0  0  0
    3.1347    4.6527    5.7388 H   0  0  0  0  0  0  0  0  0  0  0  0
    4.4604    4.6072    6.8908 H   0  0  0  0  0  0  0  0  0  0  0  0
    5.9273    2.6117    5.8145 C   0  0  0  0  0  0  0  0  0  0  0  0
    6.1594    2.7817    6.8611 H   0  0  0  0  0  0  0  0  0  0  0  0
    6.5784    3.2503    5.2209 H   0  0  0  0  0  0  0  0  0  0  0  0
    6.1451    1.5692    5.5903 H   0  0  0  0  0  0  0  0  0  0  0  0
    3.5664    2.0138    6.3871 C   0  0  0  0  0  0  0  0  0  0  0  0
    3.7261    0.9739    6.1126 H   0  0  0  0  0  0  0  0  0  0  0  0
    2.5151    2.2522    6.2625 H   0  0  0  0  0  0  0  0  0  0  0  0
    3.8173    2.1351    7.4362 H   0  0  0  0  0  0  0  0  0  0  0  0
   -0.5947    1.4403   -2.7841 C   0  0  0  0  0  0  0  0  0  0  0  0
   -1.6131    0.5029   -2.1333 C   0  0  0  0  0  0  0  0  0  0  0  0
   -2.0434    0.9383   -1.2375 H   0  0  0  0  0  0  0  0  0  0  0  0
   -2.4188    0.3110   -2.8348 H   0  0  0  0  0  0  0  0  0  0  0  0
   -1.1481   -0.4454   -1.8750 H   0  0  0  0  0  0  0  0  0  0  0  0
   -0.0797    0.8219   -4.0838 C   0  0  0  0  0  0  0  0  0  0  0  0
   -0.9026    0.6837   -4.7781 H   0  0  0  0  0  0  0  0  0  0  0  0
    0.6527    1.4704   -4.5603 H   0  0  0  0  0  0  0  0  0  0  0  0
    0.3685   -0.1527   -3.9007 H   0  0  0  0  0  0  0  0  0  0  0  0
   -1.2062    2.8123   -3.0700 C   0  0  0  0  0  0  0  0  0  0  0  0
   -0.4563    3.4875   -3.4749 H   0  0  0  0  0  0  0  0  0  0  0  0
   -2.0007    2.7024   -3.8014 H   0  0  0  0  0  0  0  0  0  0  0  0
   -1.6310    3.2557   -2.1754 H   0  0  0  0  0  0  0  0  0  0  0  0
  1  2  1  6  0  0  0
  1  3  1  0  0  0  0
  4  1  1  0  0  0  0
  5 11  1  0  0  0  0
  5  1  1  0  0  0  0
  6 20  1  0  0  0  0
  7  6  1  0  0  0  0
  8 19  1  0  0  0  0
  9  8  1  0  0  0  0
 10  3  1  0  0  0  0
 10  6  1  6  0  0  0
 11 10  1  0  0  0  0
 12 13  1  0  0  0  0
 12 11  2  0  0  0  0
 14 12  1  0  0  0  0
 15 14  1  0  0  0  0
 16 14  2  0  0  0  0
 16 18  1  0  0  0  0
 17 16  1  0  0  0  0
 18  5  1  0  0  0  0
 19 18  2  0  0  0  0
 19  4  1  0  0  0  0
 20 25  1  0  0  0  0
 20 21  1  0  0  0  0
 20 29  1  0  0  0  0
 21 24  1  0  0  0  0
 22 21  1  0  0  0  0
 23 21  1  0  0  0  0
 25 26  1  0  0  0  0
 27 25  1  0  0  0  0
 28 25  1  0  0  0  0
 29 32  1  0  0  0  0
 30 29  1  0  0  0  0
 31 29  1  0  0  0  0
 33 34  1  0  0  0  0
 33  8  1  0  0  0  0
 34 37  1  0  0  0  0
 34 35  1  0  0  0  0
 36 34  1  0  0  0  0
 38 41  1  0  0  0  0
 38 33  1  0  0  0  0
 39 38  1  0  0  0  0
 40 38  1  0  0  0  0
 42 33  1  0  0  0  0
 42 45  1  0  0  0  0
 43 42  1  0  0  0  0
 44 42  1  0  0  0  0
M  END
$$$$
