CSD_code = QAWQEN | q = 0 | S = 0 | Stoichiometry = C26H31Br2N3O4Pd | MND = 4
 OpenBabel04212202083D

 67 70  0  0  0  0  0  0  0  0999 V2000
    4.3104   20.2772    2.9410 C   0  0  0  0  0  3  0  0  0  0  0  0
    3.2846   19.9068    2.9200 H   0  0  0  0  0  0  0  0  0  0  0  0
    4.8568   20.8912    1.8286 C   0  0  0  0  0  0  0  0  0  0  0  0
    4.2710   20.9938    0.9292 H   0  0  0  0  0  0  0  0  0  0  0  0
    6.1565   21.3680    1.8994 C   0  0  0  0  0  0  0  0  0  0  0  0
    6.6119   21.8567    1.0517 H   0  0  0  0  0  0  0  0  0  0  0  0
    6.8578   21.1989    3.0820 C   0  0  0  0  0  0  0  0  0  0  0  0
    7.8730   21.5472    3.1850 H   0  0  0  0  0  0  0  0  0  0  0  0
    6.2379   20.5643    4.1446 C   0  0  0  0  0  0  0  0  0  0  0  0
    6.7681   20.3987    5.0754 H   0  0  0  0  0  0  0  0  0  0  0  0
    2.8113   17.8930    6.5883 C   0  0  0  0  0  0  0  0  0  0  0  0
    1.7094   16.9062    8.2501 C   0  0  0  0  0  0  0  0  0  0  0  0
    1.2186   16.4490    9.4632 C   0  0  0  0  0  0  0  0  0  0  0  0
    1.6208   16.7913   10.4036 H   0  0  0  0  0  0  0  0  0  0  0  0
    0.1887   15.5289    9.4204 C   0  0  0  0  0  0  0  0  0  0  0  0
   -0.2180   15.1504   10.3454 H   0  0  0  0  0  0  0  0  0  0  0  0
   -0.3371   15.0747    8.2122 C   0  0  0  0  0  0  0  0  0  0  0  0
   -1.1394   14.3534    8.2273 H   0  0  0  0  0  0  0  0  0  0  0  0
    0.1449   15.5229    6.9974 C   0  0  0  0  0  0  0  0  0  0  0  0
   -0.2538   15.1632    6.0633 H   0  0  0  0  0  0  0  0  0  0  0  0
    1.1780   16.4462    7.0322 C   0  0  0  0  0  0  0  0  0  0  0  0
    1.6252   16.9723    4.6175 C   0  0  0  0  0  0  0  0  0  0  0  0
    2.4037   17.5715    4.0939 H   0  0  0  0  0  0  0  0  0  0  0  0
    0.6441   17.4104    4.3999 H   0  0  0  0  0  0  0  0  0  0  0  0
    1.6811   15.5408    4.1528 C   0  0  0  0  0  0  0  0  0  0  0  0
    2.7820   14.7694    4.4774 C   0  0  0  0  0  0  0  0  0  0  0  0
    3.5783   15.2106    5.0523 H   0  0  0  0  0  0  0  0  0  0  0  0
    2.8752   13.4423    4.0715 C   0  0  0  0  0  0  0  0  0  0  0  0
    1.8416   12.8868    3.3021 C   0  0  0  0  0  0  0  0  0  0  0  0
    0.7210   13.6793    2.9837 C   0  0  0  0  0  0  0  0  0  0  0  0
    0.6419   14.9951    3.4141 C   0  0  0  0  0  0  0  0  0  0  0  0
   -0.2121   15.6057    3.1675 H   0  0  0  0  0  0  0  0  0  0  0  0
    5.0118   13.2106    5.1103 C   0  0  0  0  0  0  0  0  0  0  0  0
    5.4511   14.0613    4.5832 H   0  0  0  0  0  0  0  0  0  0  0  0
    5.7508   12.4154    5.1927 H   0  0  0  0  0  0  0  0  0  0  0  0
    4.7086   13.5258    6.1132 H   0  0  0  0  0  0  0  0  0  0  0  0
    2.9604   10.8837    2.5894 C   0  0  0  0  0  0  0  0  0  0  0  0
    3.6851   11.4801    2.0294 H   0  0  0  0  0  0  0  0  0  0  0  0
    2.6529   10.0286    1.9871 H   0  0  0  0  0  0  0  0  0  0  0  0
    3.4240   10.5323    3.5135 H   0  0  0  0  0  0  0  0  0  0  0  0
   -1.3849   13.7687    1.8832 C   0  0  0  0  0  0  0  0  0  0  0  0
   -1.9521   14.0928    2.7626 H   0  0  0  0  0  0  0  0  0  0  0  0
   -1.9922   13.0762    1.3026 H   0  0  0  0  0  0  0  0  0  0  0  0
   -1.1439   14.6408    1.2654 H   0  0  0  0  0  0  0  0  0  0  0  0
    3.4971   18.5764    8.8526 C   0  0  0  0  0  0  0  0  0  0  0  0
    3.0004   18.5718    9.8240 H   0  0  0  0  0  0  0  0  0  0  0  0
    3.5355   19.6145    8.4948 H   0  0  0  0  0  0  0  0  0  0  0  0
    4.9213   18.0246    8.9656 C   0  0  0  0  0  0  0  0  0  0  0  0
    4.9272   17.0832    9.5164 H   0  0  0  0  0  0  0  0  0  0  0  0
    5.3052   17.8247    7.9601 H   0  0  0  0  0  0  0  0  0  0  0  0
    5.8381   19.0252    9.6776 C   0  0  0  0  0  0  0  0  0  0  0  0
    5.5333   19.1410   10.7210 H   0  0  0  0  0  0  0  0  0  0  0  0
    6.8705   18.6438    9.6497 H   0  0  0  0  0  0  0  0  0  0  0  0
    6.1974   20.4382    7.8063 C   0  0  0  0  0  0  0  0  0  0  0  0
    7.1492   19.9174    7.6416 H   0  0  0  0  0  0  0  0  0  0  0  0
    6.3221   21.5038    7.6152 H   0  0  0  0  0  0  0  0  0  0  0  0
    5.4276   20.0352    7.1027 H   0  0  0  0  0  0  0  0  0  0  0  0
    3.9333   12.6439    4.3990 O   0  0  0  0  0  0  0  0  0  0  0  0
    1.7748   11.6058    2.8365 O   0  0  0  0  0  0  0  0  0  0  0  0
   -0.2328   13.0500    2.2423 O   0  0  0  0  0  0  0  0  0  0  0  0
    5.7858   20.3279    9.1490 O   0  0  0  0  0  0  0  0  0  0  0  0
    2.3278   20.7854    5.7606 Br  0  0  0  0  0  0  0  0  0  0  0  0
    5.6045   17.2214    5.1579 Br  0  0  0  0  0  0  0  0  0  0  0  0
    3.9642   19.0063    5.4634 Pd  0  0  0  0  0  0  0  0  0  0  0  0
    4.9869   20.1198    4.0785 N   0  0  0  0  0  0  0  0  0  0  0  0
    1.8845   17.0873    6.0386 N   0  0  0  0  0  0  0  0  0  0  0  0
    2.7038   17.8043    7.9256 N   0  0  0  0  0  0  0  0  0  0  0  0
  1 65  1  0  0  0  0
  2  1  1  0  0  0  0
  3  5  2  0  0  0  0
  3  1  1  0  0  0  0
  4  3  1  0  0  0  0
  5  7  1  0  0  0  0
  6  5  1  0  0  0  0
  7  8  1  0  0  0  0
  7  9  2  0  0  0  0
  9 10  1  0  0  0  0
 11 67  1  0  0  0  0
 12 13  1  0  0  0  0
 13 14  1  0  0  0  0
 15 13  2  0  0  0  0
 15 16  1  0  0  0  0
 17 18  1  0  0  0  0
 17 15  1  0  0  0  0
 19 21  1  0  0  0  0
 19 17  2  0  0  0  0
 20 19  1  0  0  0  0
 21 12  2  0  0  0  0
 22 66  1  0  0  0  0
 23 22  1  0  0  0  0
 24 22  1  0  0  0  0
 25 26  1  0  0  0  0
 25 22  1  0  0  0  0
 26 27  1  0  0  0  0
 28 58  1  0  0  0  0
 28 26  2  0  0  0  0
 29 28  1  0  0  0  0
 30 29  2  0  0  0  0
 30 31  1  0  0  0  0
 31 25  2  0  0  0  0
 32 31  1  0  0  0  0
 33 35  1  0  0  0  0
 33 36  1  0  0  0  0
 34 33  1  0  0  0  0
 37 59  1  0  0  0  0
 37 40  1  0  0  0  0
 38 37  1  0  0  0  0
 39 37  1  0  0  0  0
 41 60  1  0  0  0  0
 41 42  1  0  0  0  0
 43 41  1  0  0  0  0
 44 41  1  0  0  0  0
 45 48  1  0  0  0  0
 45 46  1  0  0  0  0
 47 45  1  0  0  0  0
 48 49  1  0  0  0  0
 48 51  1  0  0  0  0
 50 48  1  0  0  0  0
 51 52  1  0  0  0  0
 53 51  1  0  0  0  0
 54 61  1  0  0  0  0
 55 54  1  0  0  0  0
 56 54  1  0  0  0  0
 57 54  1  0  0  0  0
 58 33  1  0  0  0  0
 59 29  1  0  0  0  0
 60 30  1  0  0  0  0
 61 51  1  0  0  0  0
 63 64  1  0  0  0  0
 64 62  1  0  0  0  0
 64 11  2  0  0  0  0
 65  9  1  0  0  0  0
 65 64  1  0  0  0  0
 66 11  1  0  0  0  0
 66 21  1  0  0  0  0
 67 12  1  0  0  0  0
 67 45  1  0  0  0  0
M  END
$$$$
