CSD_code = QAWXUK | q = 1 | S = 0 | Stoichiometry = C10H25Cl3CoN4(1+) | MND = 4
 OpenBabel04212202083D

 43 42  0  0  0  0  0  0  0  0999 V2000
    7.4610    9.2391    5.9385 Co  0  0  0  0  0  0  0  0  0  0  0  0
    9.0419    8.7066    4.8978 Cl  0  0  0  0  0  0  0  0  0  0  0  0
    7.4492    8.9495    7.8821 Cl  0  0  0  0  0  0  0  0  0  0  0  0
    3.9473    4.5174    1.7633 N   0  0  0  0  0  0  0  0  0  0  0  0
    5.0954    5.7105    3.6018 C   0  0  0  0  0  0  0  0  0  0  0  0
    5.6194    4.8448    4.0125 H   0  0  0  0  0  0  0  0  0  0  0  0
    4.1090    5.7643    4.0677 H   0  0  0  0  0  0  0  0  0  0  0  0
    4.9118    5.5552    2.0933 C   0  0  0  0  0  0  0  0  0  0  0  0
    4.5232    6.4973    1.6990 H   0  0  0  0  0  0  0  0  0  0  0  0
    5.8882    5.3683    1.6153 H   0  0  0  0  0  0  0  0  0  0  0  0
    6.1251    7.1695    5.3602 N   0  0  0  0  0  0  0  0  0  0  0  0
    2.8586    2.2688    0.3748 N   0  0  0  0  0  0  0  0  0  0  0  0
    1.8046    1.0694   -1.4798 C   0  0  0  0  0  0  0  0  0  0  0  0
    2.8155    1.1652   -1.8759 H   0  0  0  0  0  0  0  0  0  0  0  0
    1.2044    1.8643   -1.9234 H   0  0  0  0  0  0  0  0  0  0  0  0
    4.4679    3.1789    1.9618 C   0  0  0  0  0  0  0  0  0  0  0  0
    4.8298    3.0805    2.9848 H   0  0  0  0  0  0  0  0  0  0  0  0
    5.3005    2.9632    1.2689 H   0  0  0  0  0  0  0  0  0  0  0  0
    3.4680    4.6299    0.4004 C   0  0  0  0  0  0  0  0  0  0  0  0
    4.2750    4.4524   -0.3323 H   0  0  0  0  0  0  0  0  0  0  0  0
    3.0716    5.6351    0.2454 H   0  0  0  0  0  0  0  0  0  0  0  0
    1.8973    1.2417    0.0455 C   0  0  0  0  0  0  0  0  0  0  0  0
    2.2631    0.3074    0.4832 H   0  0  0  0  0  0  0  0  0  0  0  0
    0.8983    1.4622    0.4793 H   0  0  0  0  0  0  0  0  0  0  0  0
    2.3551    3.6158    0.1600 C   0  0  0  0  0  0  0  0  0  0  0  0
    1.5166    3.8361    0.8430 H   0  0  0  0  0  0  0  0  0  0  0  0
    2.0079    3.7125   -0.8701 H   0  0  0  0  0  0  0  0  0  0  0  0
    6.1738   10.4951    5.1455 Cl  0  0  0  0  0  0  0  0  0  0  0  0
    5.8962    6.9755    3.9286 C   0  0  0  0  0  0  0  0  0  0  0  0
    6.8715    6.9301    3.4384 H   0  0  0  0  0  0  0  0  0  0  0  0
    5.3685    7.8555    3.5544 H   0  0  0  0  0  0  0  0  0  0  0  0
    1.2524   -0.2859   -1.8868 C   0  0  0  0  0  0  0  0  0  0  0  0
   -0.1616   -0.4240   -1.4079 N   0  0  0  0  0  4  0  0  0  0  0  0
    3.3586    2.1585    1.7363 C   0  0  0  0  0  0  0  0  0  0  0  0
    3.7597    1.1529    1.8833 H   0  0  0  0  0  0  0  0  0  0  0  0
    2.5567    2.3353    2.4721 H   0  0  0  0  0  0  0  0  0  0  0  0
   -0.1776   -0.2682   -0.3897 H   0  0  0  0  0  0  0  0  0  0  0  0
   -0.7518    0.2925   -1.8512 H   0  0  0  0  0  0  0  0  0  0  0  0
    1.2630   -0.4003   -2.9714 H   0  0  0  0  0  0  0  0  0  0  0  0
    5.2285    7.2170    5.8380 H   0  0  0  0  0  0  0  0  0  0  0  0
    1.8432   -1.0883   -1.4418 H   0  0  0  0  0  0  0  0  0  0  0  0
   -0.5477   -1.3523   -1.6177 H   0  0  0  0  0  0  0  0  0  0  0  0
    6.6151    6.3604    5.7338 H   0  0  0  0  0  0  0  0  0  0  0  0
  1  3  1  0  0  0  0
  2  1  1  0  0  0  0
  4 16  1  0  0  0  0
  4  8  1  0  0  0  0
  5 29  1  0  0  0  0
  5  6  1  0  0  0  0
  5  7  1  0  0  0  0
  8  5  1  0  0  0  0
  9  8  1  0  0  0  0
 10  8  1  0  0  0  0
 11 43  1  0  0  0  0
 11 40  1  0  0  0  0
 12 34  1  0  0  0  0
 13 22  1  0  0  0  0
 14 13  1  0  0  0  0
 15 13  1  0  0  0  0
 16 17  1  0  0  0  0
 18 16  1  0  0  0  0
 19  4  1  0  0  0  0
 20 19  1  0  0  0  0
 21 19  1  0  0  0  0
 22 12  1  0  0  0  0
 22 24  1  0  0  0  0
 22 23  1  0  0  0  0
 25 12  1  0  0  0  0
 25 19  1  0  0  0  0
 25 26  1  0  0  0  0
 27 25  1  0  0  0  0
 28  1  1  0  0  0  0
 29 11  1  0  0  0  0
 30 29  1  0  0  0  0
 31 29  1  0  0  0  0
 32 13  1  0  0  0  0
 32 41  1  0  0  0  0
 32 33  1  0  0  0  0
 33 37  1  0  0  0  0
 34 35  1  0  0  0  0
 34 16  1  0  0  0  0
 34 36  1  0  0  0  0
 38 33  1  0  0  0  0
 39 32  1  0  0  0  0
 42 33  1  0  0  0  0
M  END
$$$$
