CSD_code = QAXBID | q = 0 | S = 0 | Stoichiometry = C12H11Cl4F6NOW | MND = 6
 OpenBabel04212202083D

 36 36  0  0  0  0  0  0  0  0999 V2000
    9.5275    8.0984    2.4537 C   0  0  0  0  0  0  0  0  0  0  0  0
    9.7102    9.2397    3.2622 C   0  0  0  0  0  0  0  0  0  0  0  0
    9.0378   10.0764    3.1345 H   0  0  0  0  0  0  0  0  0  0  0  0
   10.7289    9.2668    4.1916 C   0  0  0  0  0  0  0  0  0  0  0  0
   11.5929    8.1880    4.3562 C   0  0  0  0  0  0  0  0  0  0  0  0
   12.3853    8.2261    5.0869 H   0  0  0  0  0  0  0  0  0  0  0  0
   11.4144    7.0679    3.5547 C   0  0  0  0  0  0  0  0  0  0  0  0
   10.4020    7.0067    2.6160 C   0  0  0  0  0  0  0  0  0  0  0  0
   10.2652    6.1332    1.9947 H   0  0  0  0  0  0  0  0  0  0  0  0
   10.9370   10.4745    5.0684 C   0  0  0  0  0  0  0  0  0  0  0  0
   12.3127    5.8708    3.7297 C   0  0  0  0  0  0  0  0  0  0  0  0
    5.4104    8.6379   -2.2805 C   0  0  0  0  0  0  0  0  0  0  0  0
    5.9947    7.9923   -2.9493 H   0  0  0  0  0  0  0  0  0  0  0  0
    5.8783    9.6266   -2.2257 H   0  0  0  0  0  0  0  0  0  0  0  0
    3.9469    8.6842   -2.7024 C   0  0  0  0  0  0  0  0  0  0  0  0
    3.8338    8.6715   -3.7829 H   0  0  0  0  0  0  0  0  0  0  0  0
    3.4629    9.5759   -2.3036 H   0  0  0  0  0  0  0  0  0  0  0  0
    3.3982    7.4322   -2.0246 C   0  0  0  0  0  0  0  0  0  0  0  0
    3.6722    6.5419   -2.5908 H   0  0  0  0  0  0  0  0  0  0  0  0
    2.3197    7.4525   -1.8948 H   0  0  0  0  0  0  0  0  0  0  0  0
    4.1339    7.4642   -0.6904 C   0  0  0  0  0  0  0  0  0  0  0  0
    3.6114    8.1025    0.0341 H   0  0  0  0  0  0  0  0  0  0  0  0
    4.2905    6.4709   -0.2564 H   0  0  0  0  0  0  0  0  0  0  0  0
   10.8293   10.1694    6.3725 F   0  0  0  0  0  0  0  0  0  0  0  0
   10.0615   11.4567    4.8320 F   0  0  0  0  0  0  0  0  0  0  0  0
   12.1612   11.0042    4.9085 F   0  0  0  0  0  0  0  0  0  0  0  0
    5.4238    8.0524   -0.9617 O   0  0  0  0  0  0  0  0  0  0  0  0
    7.1628    8.0535    0.4321 W   0  0  0  0  0  0  0  0  0  0  0  0
    5.4764    8.2541    2.0206 Cl  0  0  0  0  0  0  0  0  0  0  0  0
    6.9874   10.3428    0.0477 Cl  0  0  0  0  0  0  0  0  0  0  0  0
    8.3555    7.8561   -1.5511 Cl  0  0  0  0  0  0  0  0  0  0  0  0
    6.7523    5.7644    0.3479 Cl  0  0  0  0  0  0  0  0  0  0  0  0
    8.5387    8.0603    1.5626 N   0  0  0  0  0  2  0  0  0  0  0  0
   13.4802    6.1740    4.3086 F   0  0  0  0  0  0  0  0  0  0  0  0
   12.6030    5.2750    2.5644 F   0  0  0  0  0  0  0  0  0  0  0  0
   11.7395    4.9289    4.5007 F   0  0  0  0  0  0  0  0  0  0  0  0
  1  8  2  0  0  0  0
  1  2  1  0  0  0  0
  2  4  2  0  0  0  0
  3  2  1  0  0  0  0
  4  5  1  0  0  0  0
  4 10  1  0  0  0  0
  5  6  1  0  0  0  0
  7 11  1  0  0  0  0
  7  5  2  0  0  0  0
  8  7  1  0  0  0  0
  9  8  1  0  0  0  0
 10 24  1  0  0  0  0
 11 34  1  0  0  0  0
 11 36  1  0  0  0  0
 12 14  1  0  0  0  0
 12 27  1  0  0  0  0
 13 12  1  0  0  0  0
 15 17  1  0  0  0  0
 15 12  1  0  0  0  0
 15 18  1  0  0  0  0
 16 15  1  0  0  0  0
 18 20  1  0  0  0  0
 18 21  1  0  0  0  0
 19 18  1  0  0  0  0
 21 23  1  0  0  0  0
 21 22  1  0  0  0  0
 25 10  1  0  0  0  0
 26 10  1  0  0  0  0
 27 21  1  0  0  0  0
 28 33  1  0  0  0  0
 28 29  1  0  0  0  0
 30 28  1  0  0  0  0
 31 28  1  0  0  0  0
 32 28  1  0  0  0  0
 33  1  1  0  0  0  0
 35 11  1  0  0  0  0
M  END
$$$$
