CSD_code = QAXBAV | q = 0 | S = 0 | Stoichiometry = C10H13Cl4NOW | MND = 6
 OpenBabel04212202083D

 30 30  0  0  0  0  0  0  0  0999 V2000
    3.4911    4.9981    0.6591 W   0  0  0  0  0  0  0  0  0  0  0  0
    3.8010    5.9695    2.7648 Cl  0  0  0  0  0  0  0  0  0  0  0  0
    4.9301    3.2792    1.3185 Cl  0  0  0  0  0  0  0  0  0  0  0  0
    2.7819    3.6706   -1.1320 Cl  0  0  0  0  0  0  0  0  0  0  0  0
    1.5514    6.2711    0.3947 Cl  0  0  0  0  0  0  0  0  0  0  0  0
    2.0457    3.7106    1.7937 O   0  0  0  0  0  0  0  0  0  0  0  0
    4.6372    6.0061   -0.2386 N   0  0  0  0  0  2  0  0  0  0  0  0
    5.5226    6.7396   -0.9150 C   0  0  0  0  0  0  0  0  0  0  0  0
    5.1983    8.0378   -1.3511 C   0  0  0  0  0  0  0  0  0  0  0  0
    4.2148    8.4232   -1.1213 H   0  0  0  0  0  0  0  0  0  0  0  0
    6.1251    8.7816   -2.0486 C   0  0  0  0  0  0  0  0  0  0  0  0
    5.8696    9.7775   -2.3792 H   0  0  0  0  0  0  0  0  0  0  0  0
    7.3801    8.2598   -2.3285 C   0  0  0  0  0  0  0  0  0  0  0  0
    8.0997    8.8488   -2.8765 H   0  0  0  0  0  0  0  0  0  0  0  0
    7.7099    6.9803   -1.9037 C   0  0  0  0  0  0  0  0  0  0  0  0
    8.6867    6.5747   -2.1220 H   0  0  0  0  0  0  0  0  0  0  0  0
    6.7991    6.2205   -1.2029 C   0  0  0  0  0  0  0  0  0  0  0  0
    7.0317    5.2212   -0.8614 H   0  0  0  0  0  0  0  0  0  0  0  0
    1.7806    2.3204    1.5267 C   0  0  0  0  0  0  0  0  0  0  0  0
    1.1776    2.2533    0.6113 H   0  0  0  0  0  0  0  0  0  0  0  0
    2.7364    1.8090    1.3704 H   0  0  0  0  0  0  0  0  0  0  0  0
    1.0078    1.8025    2.7339 C   0  0  0  0  0  0  0  0  0  0  0  0
    1.6942    1.5134    3.5301 H   0  0  0  0  0  0  0  0  0  0  0  0
    0.3786    0.9534    2.4810 H   0  0  0  0  0  0  0  0  0  0  0  0
    0.2146    3.0416    3.1389 C   0  0  0  0  0  0  0  0  0  0  0  0
   -0.1262    3.0152    4.1704 H   0  0  0  0  0  0  0  0  0  0  0  0
   -0.6459    3.1733    2.4823 H   0  0  0  0  0  0  0  0  0  0  0  0
    1.2384    4.1465    2.9042 C   0  0  0  0  0  0  0  0  0  0  0  0
    0.7860    5.1102    2.6468 H   0  0  0  0  0  0  0  0  0  0  0  0
    1.8927    4.2729    3.7771 H   0  0  0  0  0  0  0  0  0  0  0  0
  1  3  1  0  0  0  0
  1  2  1  0  0  0  0
  4  1  1  0  0  0  0
  5  1  1  0  0  0  0
  6 28  1  0  0  0  0
  7  1  1  0  0  0  0
  8  7  1  0  0  0  0
  9 10  1  0  0  0  0
  9  8  2  0  0  0  0
 11  9  1  0  0  0  0
 12 11  1  0  0  0  0
 13 11  2  0  0  0  0
 13 15  1  0  0  0  0
 14 13  1  0  0  0  0
 15 17  2  0  0  0  0
 16 15  1  0  0  0  0
 17  8  1  0  0  0  0
 17 18  1  0  0  0  0
 19  6  1  0  0  0  0
 19 22  1  0  0  0  0
 20 19  1  0  0  0  0
 21 19  1  0  0  0  0
 22 25  1  0  0  0  0
 22 23  1  0  0  0  0
 24 22  1  0  0  0  0
 25 26  1  0  0  0  0
 27 25  1  0  0  0  0
 28 25  1  0  0  0  0
 28 30  1  0  0  0  0
 29 28  1  0  0  0  0
M  END
$$$$
