CSD_code = QAXCAT | q = 1 | S = 0 | Stoichiometry = C27H21ClN8Rh(1+) | MND = 6
 OpenBabel04212202083D

 58 65  0  0  0  0  0  0  0  0999 V2000
    0.8327    2.6313    3.7067 Rh  0  0  0  0  0  0  0  0  0  0  0  0
    1.5909    4.4098    4.9073 Cl  0  0  0  0  0  0  0  0  0  0  0  0
    4.6014    3.7389    0.9513 C   0  0  0  0  0  0  0  0  0  0  0  0
    4.8320    2.7826    1.9374 C   0  0  0  0  0  0  0  0  0  0  0  0
    3.7766    2.3647    2.7253 C   0  0  0  0  0  3  0  0  0  0  0  0
    2.5423    2.8334    2.5745 N   0  0  0  0  0  0  0  0  0  0  0  0
    2.3029    3.7849    1.6234 C   0  0  0  0  0  0  0  0  0  0  0  0
    3.3303    4.2432    0.7894 C   0  0  0  0  0  0  0  0  0  0  0  0
    1.0491    4.2819    1.5001 N   0  0  0  0  0  2  0  0  0  0  0  0
    0.2303    3.8638    2.3915 N   0  0  0  0  0  0  0  0  0  0  0  0
   -1.0562    4.2391    2.4674 C   0  0  0  0  0  0  0  0  0  0  0  0
   -1.6980    5.1078    1.5583 C   0  0  0  0  0  0  0  0  0  0  0  0
   -3.0220    5.3851    1.7286 C   0  0  0  0  0  0  0  0  0  0  0  0
   -3.7370    4.8191    2.8064 C   0  0  0  0  0  0  0  0  0  0  0  0
   -3.1425    3.9857    3.7107 C   0  0  0  0  0  0  0  0  0  0  0  0
   -1.7713    3.6658    3.5762 C   0  0  0  0  0  0  0  0  0  0  0  0
   -1.0546    2.9271    4.4273 N   0  0  0  0  0  0  0  0  0  0  0  0
   -1.6054    2.1982    5.4741 C   0  0  0  0  0  0  0  0  0  0  0  0
   -1.0124    2.2571    6.7399 C   0  0  0  0  0  0  0  0  0  0  0  0
   -1.5285    1.4563    7.7404 C   0  0  0  0  0  0  0  0  0  0  0  0
   -2.6077    0.6303    7.4549 C   0  0  0  0  0  0  0  0  0  0  0  0
   -3.1310    0.6573    6.1718 C   0  0  0  0  0  0  0  0  0  0  0  0
   -2.6448    1.4113    5.2023 N   0  0  0  0  0  0  0  0  0  0  0  0
   -0.4109    1.5009    0.6441 C   0  0  0  0  0  0  0  0  0  0  0  0
   -1.3130    1.5577   -0.3981 C   0  0  0  0  0  0  0  0  0  0  0  0
   -2.6194    1.1241   -0.2162 C   0  0  0  0  0  0  0  0  0  0  0  0
   -3.0190    0.6068    1.0072 C   0  0  0  0  0  0  0  0  0  0  0  0
   -2.1240    0.5223    2.0543 C   0  0  0  0  0  0  0  0  0  0  0  0
   -0.8174    0.9898    1.8804 C   0  0  0  0  0  0  0  0  0  0  0  0
    0.0646    0.9916    2.9595 N   0  0  0  0  0  0  0  0  0  0  0  0
    0.0507   -0.0382    3.7017 N   0  0  0  0  0  0  0  0  0  0  0  0
    0.8052    0.0377    4.8306 C   0  0  0  0  0  0  0  0  0  0  0  0
    0.9216   -1.0613    5.6848 C   0  0  0  0  0  0  0  0  0  0  0  0
    1.6819   -0.9270    6.8292 C   0  0  0  0  0  0  0  0  0  0  0  0
    2.3064    0.2894    7.0859 C   0  0  0  0  0  0  0  0  0  0  0  0
    2.1445    1.3376    6.1947 C   0  0  0  0  0  0  0  0  0  0  0  0
    1.4107    1.2222    5.0931 N   0  0  0  0  0  0  0  0  0  0  0  0
    5.4103    4.0841    0.3269 H   0  0  0  0  0  0  0  0  0  0  0  0
    5.8145    2.3696    2.0938 H   0  0  0  0  0  0  0  0  0  0  0  0
    3.9218    1.6239    3.5016 H   0  0  0  0  0  0  0  0  0  0  0  0
    3.0947    4.9955    0.0556 H   0  0  0  0  0  0  0  0  0  0  0  0
   -1.1157    5.5263    0.7531 H   0  0  0  0  0  0  0  0  0  0  0  0
   -3.5333    6.0448    1.0463 H   0  0  0  0  0  0  0  0  0  0  0  0
   -4.7823    5.0629    2.9196 H   0  0  0  0  0  0  0  0  0  0  0  0
   -3.6992    3.5674    4.5332 H   0  0  0  0  0  0  0  0  0  0  0  0
   -0.1919    2.9365    6.9141 H   0  0  0  0  0  0  0  0  0  0  0  0
   -1.1021    1.4811    8.7321 H   0  0  0  0  0  0  0  0  0  0  0  0
   -3.0355   -0.0100    8.2084 H   0  0  0  0  0  0  0  0  0  0  0  0
   -3.9771    0.0429    5.8948 H   0  0  0  0  0  0  0  0  0  0  0  0
    0.6165    1.8029    0.4973 H   0  0  0  0  0  0  0  0  0  0  0  0
   -0.9975    1.9379   -1.3570 H   0  0  0  0  0  0  0  0  0  0  0  0
   -3.3230    1.1854   -1.0316 H   0  0  0  0  0  0  0  0  0  0  0  0
   -4.0339    0.2695    1.1467 H   0  0  0  0  0  0  0  0  0  0  0  0
   -2.4236    0.1627    3.0267 H   0  0  0  0  0  0  0  0  0  0  0  0
    0.4146   -1.9760    5.4272 H   0  0  0  0  0  0  0  0  0  0  0  0
    1.7905   -1.7537    7.5136 H   0  0  0  0  0  0  0  0  0  0  0  0
    2.9096    0.4273    7.9683 H   0  0  0  0  0  0  0  0  0  0  0  0
    2.6045    2.3034    6.3635 H   0  0  0  0  0  0  0  0  0  0  0  0
  1 17  1  0  0  0  0
  1  2  1  0  0  0  0
  1 37  1  0  0  0  0
  3  4  2  0  0  0  0
  4 39  1  0  0  0  0
  4  5  1  0  0  0  0
  5 40  1  0  0  0  0
  6  5  1  0  0  0  0
  6  1  1  0  0  0  0
  7  6  1  0  0  0  0
  8  3  1  0  0  0  0
  8  7  2  0  0  0  0
  9  7  1  0  0  0  0
  9 10  1  0  0  0  0
 10 11  1  0  0  0  0
 10  1  1  0  0  0  0
 11 16  1  0  0  0  0
 12 13  1  0  0  0  0
 12 11  2  0  0  0  0
 13 14  2  0  0  0  0
 14 44  1  0  0  0  0
 14 15  1  0  0  0  0
 15 45  1  0  0  0  0
 16 15  2  0  0  0  0
 16 17  1  0  0  0  0
 17 18  1  0  0  0  0
 18 19  1  0  0  0  0
 19 46  1  0  0  0  0
 19 20  2  0  0  0  0
 20 47  1  0  0  0  0
 21 20  1  0  0  0  0
 21 48  1  0  0  0  0
 22 21  2  0  0  0  0
 23 18  2  0  0  0  0
 23 22  1  0  0  0  0
 24 29  1  0  0  0  0
 25 26  1  0  0  0  0
 25 24  2  0  0  0  0
 26 27  2  0  0  0  0
 27 53  1  0  0  0  0
 27 28  1  0  0  0  0
 28 54  1  0  0  0  0
 29 28  2  0  0  0  0
 29 30  1  0  0  0  0
 30 31  1  0  0  0  0
 30  1  1  0  0  0  0
 31 32  2  0  0  0  0
 32 37  1  0  0  0  0
 32 33  1  0  0  0  0
 33 34  2  0  0  0  0
 34 35  1  0  0  0  0
 34 56  1  0  0  0  0
 35 57  1  0  0  0  0
 36 58  1  0  0  0  0
 36 35  2  0  0  0  0
 37 36  1  0  0  0  0
 38  3  1  0  0  0  0
 41  8  1  0  0  0  0
 42 12  1  0  0  0  0
 43 13  1  0  0  0  0
 49 22  1  0  0  0  0
 50 24  1  0  0  0  0
 51 25  1  0  0  0  0
 52 26  1  0  0  0  0
 55 33  1  0  0  0  0
M  END
$$$$
