CSD_code = QAXCIB | q = 0 | S = 0 | Stoichiometry = C13H24Br2P2Pd | MND = 4
 OpenBabel04212202083D

 42 42  0  0  0  0  0  0  0  0999 V2000
    2.2391    6.6459    1.8760 Pd  0  0  0  0  0  0  0  0  0  0  0  0
   -0.1031    6.1691    1.3034 Br  0  0  0  0  0  0  0  0  0  0  0  0
    1.1217   13.0808    2.2688 Br  0  0  0  0  0  0  0  0  0  0  0  0
    2.8289    5.5773   -0.0492 P   0  0  0  0  0  4  0  0  0  0  0  0
    1.5518    6.9670    4.0313 P   0  0  0  0  0  4  0  0  0  0  0  0
    4.0634    7.6572    2.1014 C   0  0  0  0  0  0  0  0  0  0  0  0
    3.4294    8.9859    2.1264 C   0  0  0  0  0  0  0  0  0  0  0  0
    3.6177    9.8900    3.1773 C   0  0  0  0  0  0  0  0  0  0  0  0
    2.9466   11.0974    3.2202 C   0  0  0  0  0  0  0  0  0  0  0  0
    2.0679   11.4214    2.2016 C   0  0  0  0  0  0  0  0  0  0  0  0
    1.8736   10.5658    1.1276 C   0  0  0  0  0  0  0  0  0  0  0  0
    2.5540    9.3655    1.0887 C   0  0  0  0  0  0  0  0  0  0  0  0
    2.3617    3.8177    0.1549 C   0  0  0  0  0  0  0  0  0  0  0  0
    1.9894    6.0053   -1.6193 C   0  0  0  0  0  0  0  0  0  0  0  0
    4.5678    5.4148   -0.6209 C   0  0  0  0  0  0  0  0  0  0  0  0
    2.6950    7.2860    5.4314 C   0  0  0  0  0  0  0  0  0  0  0  0
    0.2882    8.2628    4.2903 C   0  0  0  0  0  0  0  0  0  0  0  0
    0.7002    5.4641    4.6451 C   0  0  0  0  0  0  0  0  0  0  0  0
    4.6696    7.4612    2.9889 H   0  0  0  0  0  0  0  0  0  0  0  0
    4.6626    7.5055    1.1994 H   0  0  0  0  0  0  0  0  0  0  0  0
    4.3210    9.6505    3.9630 H   0  0  0  0  0  0  0  0  0  0  0  0
    3.1053   11.7834    4.0388 H   0  0  0  0  0  0  0  0  0  0  0  0
    1.1937   10.8372    0.3342 H   0  0  0  0  0  0  0  0  0  0  0  0
    2.4281    8.7130    0.2192 H   0  0  0  0  0  0  0  0  0  0  0  0
    1.2827    3.7509    0.3003 H   0  0  0  0  0  0  0  0  0  0  0  0
    2.8618    3.4159    1.0388 H   0  0  0  0  0  0  0  0  0  0  0  0
    2.6510    3.2413   -0.7239 H   0  0  0  0  0  0  0  0  0  0  0  0
    2.3183    6.9880   -1.9581 H   0  0  0  0  0  0  0  0  0  0  0  0
    0.9118    6.0290   -1.4575 H   0  0  0  0  0  0  0  0  0  0  0  0
    2.2311    5.2617   -2.3787 H   0  0  0  0  0  0  0  0  0  0  0  0
    4.9421    6.3787   -0.9633 H   0  0  0  0  0  0  0  0  0  0  0  0
    4.6174    4.7024   -1.4437 H   0  0  0  0  0  0  0  0  0  0  0  0
    5.1927    5.0650    0.2001 H   0  0  0  0  0  0  0  0  0  0  0  0
    3.4679    6.5187    5.4545 H   0  0  0  0  0  0  0  0  0  0  0  0
    2.1379    7.2674    6.3676 H   0  0  0  0  0  0  0  0  0  0  0  0
    3.1638    8.2596    5.3155 H   0  0  0  0  0  0  0  0  0  0  0  0
   -0.5421    8.0961    3.6040 H   0  0  0  0  0  0  0  0  0  0  0  0
    0.7250    9.2397    4.0831 H   0  0  0  0  0  0  0  0  0  0  0  0
   -0.0735    8.2329    5.3178 H   0  0  0  0  0  0  0  0  0  0  0  0
    1.3816    4.6137    4.5763 H   0  0  0  0  0  0  0  0  0  0  0  0
   -0.1752    5.2619    4.0284 H   0  0  0  0  0  0  0  0  0  0  0  0
    0.3946    5.6035    5.6823 H   0  0  0  0  0  0  0  0  0  0  0  0
  1  6  1  0  0  0  0
  1  5  1  0  0  0  0
  2  1  1  0  0  0  0
  4 13  1  0  0  0  0
  4  1  1  0  0  0  0
  5 17  1  0  0  0  0
  5 18  1  0  0  0  0
  5 16  1  0  0  0  0
  6  7  1  0  0  0  0
  6 19  1  0  0  0  0
  7  8  1  0  0  0  0
  8  9  2  0  0  0  0
  8 21  1  0  0  0  0
  9 22  1  0  0  0  0
 10  3  1  0  0  0  0
 10  9  1  0  0  0  0
 11 10  2  0  0  0  0
 12 11  1  0  0  0  0
 12  7  2  0  0  0  0
 13 25  1  0  0  0  0
 13 26  1  0  0  0  0
 14 29  1  0  0  0  0
 14  4  1  0  0  0  0
 15  4  1  0  0  0  0
 15 33  1  0  0  0  0
 16 34  1  0  0  0  0
 16 35  1  0  0  0  0
 17 39  1  0  0  0  0
 18 42  1  0  0  0  0
 20  6  1  0  0  0  0
 23 11  1  0  0  0  0
 24 12  1  0  0  0  0
 27 13  1  0  0  0  0
 28 14  1  0  0  0  0
 30 14  1  0  0  0  0
 31 15  1  0  0  0  0
 32 15  1  0  0  0  0
 36 16  1  0  0  0  0
 37 17  1  0  0  0  0
 38 17  1  0  0  0  0
 40 18  1  0  0  0  0
 41 18  1  0  0  0  0
M  END
$$$$
