CSD_code = QAYBAT | q = 0 | S = 0 | Stoichiometry = C22H40Cl2FeN4 | MND = 4
 OpenBabel04212202083D

 69 70  0  0  1  0  0  0  0  0999 V2000
    1.4389   11.5782    4.9822 Fe  0  0  0  0  0  0  0  0  0  0  0  0
   -0.3071   12.4587    4.3547 Cl  0  0  0  0  0  0  0  0  0  0  0  0
    3.3707   11.7558    4.0155 Cl  0  0  0  0  0  0  0  0  0  0  0  0
   -0.3276    9.1214    5.4193 N   0  0  0  0  0  0  0  0  0  0  0  0
    0.6904    8.9421    3.5258 N   0  0  0  0  0  0  0  0  0  0  0  0
    2.3321   11.7482    7.7021 N   0  0  0  0  0  0  0  0  0  0  0  0
    3.1693    9.9358    6.8624 N   0  0  0  0  0  0  0  0  0  0  0  0
    0.5808    9.7308    4.6171 C   0  0  1  0  0  3  0  0  0  0  0  0
   -0.7812    9.7417    6.6502 C   0  0  0  0  0  0  0  0  0  0  0  0
   -0.2994    8.9997    7.8968 C   0  0  0  0  0  0  0  0  0  0  0  0
   -2.2906    9.9712    6.6495 C   0  0  0  0  0  0  0  0  0  0  0  0
   -0.7762    7.9536    4.8352 C   0  0  0  0  0  0  0  0  0  0  0  0
   -1.7770    7.0108    5.4112 C   0  0  0  0  0  0  0  0  0  0  0  0
   -0.1392    7.8467    3.6356 C   0  0  0  0  0  0  0  0  0  0  0  0
   -0.2804    6.7608    2.6266 C   0  0  0  0  0  0  0  0  0  0  0  0
    1.5103    9.3353    2.3918 C   0  0  0  0  0  0  0  0  0  0  0  0
    0.6403    9.9081    1.2742 C   0  0  0  0  0  0  0  0  0  0  0  0
    2.4348    8.2218    1.9063 C   0  0  0  0  0  0  0  0  0  0  0  0
    2.3737   10.9927    6.5708 C   0  0  2  0  0  3  0  0  0  0  0  0
    1.6316   13.0212    7.7161 C   0  0  0  0  0  0  0  0  0  0  0  0
    0.4507   13.0383    8.6864 C   0  0  0  0  0  0  0  0  0  0  0  0
    2.5889   14.1879    7.9459 C   0  0  0  0  0  0  0  0  0  0  0  0
    3.1006   11.1692    8.6925 C   0  0  0  0  0  0  0  0  0  0  0  0
    3.3212   11.7234   10.0563 C   0  0  0  0  0  0  0  0  0  0  0  0
    3.6261   10.0297    8.1644 C   0  0  0  0  0  0  0  0  0  0  0  0
    4.5481    9.0760    8.8424 C   0  0  0  0  0  0  0  0  0  0  0  0
    3.5297    8.9548    5.8541 C   0  0  0  0  0  0  0  0  0  0  0  0
    5.0348    8.9295    5.6044 C   0  0  0  0  0  0  0  0  0  0  0  0
    2.9530    7.5692    6.1452 C   0  0  0  0  0  0  0  0  0  0  0  0
   -0.2926   10.7274    6.6357 H   0  0  0  0  0  0  0  0  0  0  0  0
   -0.7066    7.9944    7.9600 H   0  0  0  0  0  0  0  0  0  0  0  0
   -0.6121    9.5446    8.7841 H   0  0  0  0  0  0  0  0  0  0  0  0
    0.7853    8.9377    7.8973 H   0  0  0  0  0  0  0  0  0  0  0  0
   -2.5818   10.4531    5.7197 H   0  0  0  0  0  0  0  0  0  0  0  0
   -2.5551   10.6315    7.4715 H   0  0  0  0  0  0  0  0  0  0  0  0
   -2.8464    9.0456    6.7630 H   0  0  0  0  0  0  0  0  0  0  0  0
   -2.7912    7.3032    5.1355 H   0  0  0  0  0  0  0  0  0  0  0  0
   -1.7140    6.9686    6.4940 H   0  0  0  0  0  0  0  0  0  0  0  0
   -1.5977    6.0095    5.0263 H   0  0  0  0  0  0  0  0  0  0  0  0
    0.5788    6.0902    2.6485 H   0  0  0  0  0  0  0  0  0  0  0  0
   -0.3763    7.1652    1.6227 H   0  0  0  0  0  0  0  0  0  0  0  0
   -1.1737    6.1797    2.8404 H   0  0  0  0  0  0  0  0  0  0  0  0
    2.1374   10.1500    2.7706 H   0  0  0  0  0  0  0  0  0  0  0  0
   -0.0213    9.1588    0.8451 H   0  0  0  0  0  0  0  0  0  0  0  0
    1.2767   10.3005    0.4862 H   0  0  0  0  0  0  0  0  0  0  0  0
    0.0359   10.7222    1.6679 H   0  0  0  0  0  0  0  0  0  0  0  0
    2.8643    7.6933    2.7538 H   0  0  0  0  0  0  0  0  0  0  0  0
    3.2479    8.6660    1.3392 H   0  0  0  0  0  0  0  0  0  0  0  0
    1.9222    7.5114    1.2640 H   0  0  0  0  0  0  0  0  0  0  0  0
    1.2205   13.1201    6.6941 H   0  0  0  0  0  0  0  0  0  0  0  0
   -0.1105   12.1105    8.6124 H   0  0  0  0  0  0  0  0  0  0  0  0
   -0.2117   13.8604    8.4300 H   0  0  0  0  0  0  0  0  0  0  0  0
    0.7724   13.1751    9.7156 H   0  0  0  0  0  0  0  0  0  0  0  0
    2.9588   14.2061    8.9672 H   0  0  0  0  0  0  0  0  0  0  0  0
    2.0728   15.1243    7.7515 H   0  0  0  0  0  0  0  0  0  0  0  0
    3.4330   14.1110    7.2644 H   0  0  0  0  0  0  0  0  0  0  0  0
    3.6262   10.9255   10.7294 H   0  0  0  0  0  0  0  0  0  0  0  0
    2.4198   12.1778   10.4558 H   0  0  0  0  0  0  0  0  0  0  0  0
    4.1146   12.4716   10.0482 H   0  0  0  0  0  0  0  0  0  0  0  0
    5.5870    9.3728    8.6932 H   0  0  0  0  0  0  0  0  0  0  0  0
    4.4238    8.0623    8.4771 H   0  0  0  0  0  0  0  0  0  0  0  0
    4.3530    9.0761    9.9132 H   0  0  0  0  0  0  0  0  0  0  0  0
    3.0556    9.3314    4.9433 H   0  0  0  0  0  0  0  0  0  0  0  0
    5.3695    9.9373    5.3752 H   0  0  0  0  0  0  0  0  0  0  0  0
    5.2429    8.3011    4.7429 H   0  0  0  0  0  0  0  0  0  0  0  0
    5.5903    8.5450    6.4541 H   0  0  0  0  0  0  0  0  0  0  0  0
    3.3890    7.1120    7.0292 H   0  0  0  0  0  0  0  0  0  0  0  0
    3.1536    6.9174    5.2989 H   0  0  0  0  0  0  0  0  0  0  0  0
    1.8768    7.6312    6.2793 H   0  0  0  0  0  0  0  0  0  0  0  0
  2  1  1  0  0  0  0
  3  1  1  0  0  0  0
  4  9  1  0  0  0  0
  5 14  1  0  0  0  0
  5  8  1  0  0  0  0
  6 20  1  0  0  0  0
  6 23  1  0  0  0  0
  7 25  1  0  0  0  0
  8  1  1  6  0  0  0
  8  4  1  0  0  0  0
  9 10  1  0  0  0  0
 10 33  1  0  0  0  0
 10 31  1  0  0  0  0
 10 32  1  0  0  0  0
 11  9  1  0  0  0  0
 11 36  1  0  0  0  0
 11 35  1  0  0  0  0
 12 13  1  0  0  0  0
 12  4  1  0  0  0  0
 13 38  1  0  0  0  0
 14 12  2  0  0  0  0
 15 40  1  0  0  0  0
 15 42  1  0  0  0  0
 15 14  1  0  0  0  0
 16 43  1  0  0  0  0
 16  5  1  0  0  0  0
 17 46  1  0  0  0  0
 17 16  1  0  0  0  0
 18 16  1  0  0  0  0
 18 47  1  0  0  0  0
 19  1  1  6  0  0  0
 19  7  1  0  0  0  0
 19  6  1  0  0  0  0
 20 22  1  0  0  0  0
 20 21  1  0  0  0  0
 21 53  1  0  0  0  0
 22 54  1  0  0  0  0
 23 24  1  0  0  0  0
 24 58  1  0  0  0  0
 24 57  1  0  0  0  0
 25 23  2  0  0  0  0
 25 26  1  0  0  0  0
 26 62  1  0  0  0  0
 27 29  1  0  0  0  0
 27  7  1  0  0  0  0
 28 27  1  0  0  0  0
 28 66  1  0  0  0  0
 29 69  1  0  0  0  0
 29 67  1  0  0  0  0
 30  9  1  0  0  0  0
 34 11  1  0  0  0  0
 37 13  1  0  0  0  0
 39 13  1  0  0  0  0
 41 15  1  0  0  0  0
 44 17  1  0  0  0  0
 45 17  1  0  0  0  0
 48 18  1  0  0  0  0
 49 18  1  0  0  0  0
 50 20  1  0  0  0  0
 51 21  1  0  0  0  0
 52 21  1  0  0  0  0
 55 22  1  0  0  0  0
 56 22  1  0  0  0  0
 59 24  1  0  0  0  0
 60 26  1  0  0  0  0
 61 26  1  0  0  0  0
 63 27  1  0  0  0  0
 64 28  1  0  0  0  0
 65 28  1  0  0  0  0
 68 29  1  0  0  0  0
M  END
$$$$
