CSD_code = QAYDAV | q = 0 | S = 0 | Stoichiometry = C30H33ClNPPd | MND = 4
 OpenBabel04212202083D

 67 71  0  0  1  0  0  0  0  0999 V2000
    3.4050    5.4203    1.3892 Pd  0  0  2  0  0  0  0  0  0  0  0  0
    1.8878    4.3735    0.1698 P   0  0  0  0  0  4  0  0  0  0  0  0
    4.7315    5.7547   -0.5430 Cl  0  0  0  0  0  0  0  0  0  0  0  0
    4.9297    6.2838    2.5350 N   0  0  0  0  0  4  0  0  0  0  0  0
    2.4307    5.4032    3.1757 C   0  0  0  0  0  0  0  0  0  0  0  0
    2.8800    6.7241    3.8133 C   0  0  0  0  0  0  0  0  0  0  0  0
    4.4364    6.6718    3.8659 C   0  0  2  0  0  0  0  0  0  0  0  0
    2.3129    6.8715    5.2296 C   0  0  0  0  0  0  0  0  0  0  0  0
    2.3811    7.8934    2.9513 C   0  0  0  0  0  0  0  0  0  0  0  0
    5.0815    7.9273    4.4019 C   0  0  0  0  0  0  0  0  0  0  0  0
    5.3248    9.0400    3.6036 C   0  0  0  0  0  0  0  0  0  0  0  0
    5.9050   10.1781    4.1361 C   0  0  0  0  0  0  0  0  0  0  0  0
    6.2496   10.2263    5.4753 C   0  0  0  0  0  0  0  0  0  0  0  0
    6.0132    9.1251    6.2800 C   0  0  0  0  0  0  0  0  0  0  0  0
    5.4380    7.9871    5.7452 C   0  0  0  0  0  0  0  0  0  0  0  0
    6.1402    5.4680    2.5696 C   0  0  0  0  0  0  0  0  0  0  0  0
    0.1842    4.0155    0.7071 C   0  0  0  0  0  0  0  0  0  0  0  0
    0.0274    3.1417    1.7802 C   0  0  0  0  0  0  0  0  0  0  0  0
   -1.2337    2.8435    2.2576 C   0  0  0  0  0  0  0  0  0  0  0  0
   -2.3497    3.4230    1.6727 C   0  0  0  0  0  0  0  0  0  0  0  0
   -2.1982    4.3005    0.6125 C   0  0  0  0  0  0  0  0  0  0  0  0
   -0.9357    4.6001    0.1296 C   0  0  0  0  0  0  0  0  0  0  0  0
    2.5132    2.7071   -0.1888 C   0  0  0  0  0  0  0  0  0  0  0  0
    1.7535    1.7339   -0.8309 C   0  0  0  0  0  0  0  0  0  0  0  0
    2.2930    0.4807   -1.0576 C   0  0  0  0  0  0  0  0  0  0  0  0
    3.5821    0.1909   -0.6380 C   0  0  0  0  0  0  0  0  0  0  0  0
    4.3344    1.1518    0.0181 C   0  0  0  0  0  0  0  0  0  0  0  0
    3.8014    2.4074    0.2473 C   0  0  0  0  0  0  0  0  0  0  0  0
    1.6498    5.2405   -1.4063 C   0  0  0  0  0  0  0  0  0  0  0  0
    1.5785    6.6275   -1.2913 C   0  0  0  0  0  0  0  0  0  0  0  0
    1.4177    7.4107   -2.4164 C   0  0  0  0  0  0  0  0  0  0  0  0
    1.3389    6.8106   -3.6644 C   0  0  0  0  0  0  0  0  0  0  0  0
    1.4264    5.4341   -3.7821 C   0  0  0  0  0  0  0  0  0  0  0  0
    1.5819    4.6428   -2.6559 C   0  0  0  0  0  0  0  0  0  0  0  0
    5.1410    7.1180    1.9803 H   0  0  0  0  0  0  0  0  0  0  0  0
    1.3357    5.3700    3.1326 H   0  0  0  0  0  0  0  0  0  0  0  0
    2.7697    4.5504    3.7822 H   0  0  0  0  0  0  0  0  0  0  0  0
    4.6865    5.8473    4.5480 H   0  0  0  0  0  0  0  0  0  0  0  0
    2.6357    7.8074    5.6824 H   0  0  0  0  0  0  0  0  0  0  0  0
    2.6401    6.0490    5.8627 H   0  0  0  0  0  0  0  0  0  0  0  0
    1.2260    6.8608    5.1956 H   0  0  0  0  0  0  0  0  0  0  0  0
    2.6856    8.8501    3.3726 H   0  0  0  0  0  0  0  0  0  0  0  0
    1.2928    7.8681    2.9111 H   0  0  0  0  0  0  0  0  0  0  0  0
    2.7611    7.8131    1.9191 H   0  0  0  0  0  0  0  0  0  0  0  0
    5.0641    9.0384    2.5542 H   0  0  0  0  0  0  0  0  0  0  0  0
    6.0873   11.0314    3.4994 H   0  0  0  0  0  0  0  0  0  0  0  0
    6.7024   11.1152    5.8884 H   0  0  0  0  0  0  0  0  0  0  0  0
    6.2817    9.1503    7.3259 H   0  0  0  0  0  0  0  0  0  0  0  0
    5.2630    7.1293    6.3792 H   0  0  0  0  0  0  0  0  0  0  0  0
    6.9570    5.9761    3.0990 H   0  0  0  0  0  0  0  0  0  0  0  0
    6.4545    5.2653    1.5425 H   0  0  0  0  0  0  0  0  0  0  0  0
    5.9310    4.5198    3.0742 H   0  0  0  0  0  0  0  0  0  0  0  0
    0.9091    2.7033    2.2306 H   0  0  0  0  0  0  0  0  0  0  0  0
   -1.3513    2.1619    3.0873 H   0  0  0  0  0  0  0  0  0  0  0  0
   -3.3365    3.1921    2.0461 H   0  0  0  0  0  0  0  0  0  0  0  0
   -3.0668    4.7546    0.1581 H   0  0  0  0  0  0  0  0  0  0  0  0
   -0.8200    5.2857   -0.6985 H   0  0  0  0  0  0  0  0  0  0  0  0
    0.7400    1.9568   -1.1375 H   0  0  0  0  0  0  0  0  0  0  0  0
    1.7062   -0.2745   -1.5602 H   0  0  0  0  0  0  0  0  0  0  0  0
    3.9979   -0.7897   -0.8179 H   0  0  0  0  0  0  0  0  0  0  0  0
    5.3354    0.9189    0.3507 H   0  0  0  0  0  0  0  0  0  0  0  0
    4.3831    3.1805    0.7621 H   0  0  0  0  0  0  0  0  0  0  0  0
    1.6747    7.0737   -0.3009 H   0  0  0  0  0  0  0  0  0  0  0  0
    1.3682    8.4863   -2.3287 H   0  0  0  0  0  0  0  0  0  0  0  0
    1.2246    7.4207   -4.5484 H   0  0  0  0  0  0  0  0  0  0  0  0
    1.3831    4.9727   -4.7581 H   0  0  0  0  0  0  0  0  0  0  0  0
    1.6720    3.5704   -2.7520 H   0  0  0  0  0  0  0  0  0  0  0  0
  1  3  1  6  0  0  0
  1  4  1  0  0  0  0
  1  5  1  0  0  0  0
  2 17  1  0  0  0  0
  2  1  1  0  0  0  0
  4 16  1  0  0  0  0
  4  7  1  0  0  0  0
  5 37  1  0  0  0  0
  5  6  1  0  0  0  0
  6  7  1  0  0  0  0
  6  8  1  0  0  0  0
  7 10  1  0  0  0  0
  7 38  1  1  0  0  0
  8 39  1  0  0  0  0
  8 40  1  0  0  0  0
  9 42  1  0  0  0  0
  9  6  1  0  0  0  0
 10 15  1  0  0  0  0
 11 12  1  0  0  0  0
 11 10  2  0  0  0  0
 12 13  2  0  0  0  0
 13 47  1  0  0  0  0
 13 14  1  0  0  0  0
 14 48  1  0  0  0  0
 15 14  2  0  0  0  0
 15 49  1  0  0  0  0
 16 52  1  0  0  0  0
 16 50  1  0  0  0  0
 17 18  1  0  0  0  0
 18 53  1  0  0  0  0
 18 19  2  0  0  0  0
 19 54  1  0  0  0  0
 20 55  1  0  0  0  0
 20 19  1  0  0  0  0
 21 20  2  0  0  0  0
 22 21  1  0  0  0  0
 22 17  2  0  0  0  0
 23  2  1  0  0  0  0
 23 28  1  0  0  0  0
 24 23  2  0  0  0  0
 25 24  1  0  0  0  0
 25 26  2  0  0  0  0
 26 27  1  0  0  0  0
 27 28  2  0  0  0  0
 27 61  1  0  0  0  0
 28 62  1  0  0  0  0
 29 30  1  0  0  0  0
 29  2  1  0  0  0  0
 30 63  1  0  0  0  0
 31 64  1  0  0  0  0
 31 30  2  0  0  0  0
 32 31  1  0  0  0  0
 33 32  2  0  0  0  0
 33 34  1  0  0  0  0
 34 29  2  0  0  0  0
 35  4  1  0  0  0  0
 36  5  1  0  0  0  0
 41  8  1  0  0  0  0
 43  9  1  0  0  0  0
 44  9  1  0  0  0  0
 45 11  1  0  0  0  0
 46 12  1  0  0  0  0
 51 16  1  0  0  0  0
 56 21  1  0  0  0  0
 57 22  1  0  0  0  0
 58 24  1  0  0  0  0
 59 25  1  0  0  0  0
 60 26  1  0  0  0  0
 65 32  1  0  0  0  0
 66 33  1  0  0  0  0
 67 34  1  0  0  0  0
M  END
$$$$
