CSD_code = QAYJUV | q = 0 | S = 0 | Stoichiometry = C29H23Cl4N3PRe | MND = 6
 OpenBabel04212202083D

 61 66  0  0  0  0  0  0  0  0999 V2000
    4.1138   15.7893    2.3868 Re  0  0  0  0  0  0  0  0  0  0  0  0
    5.7690   15.2475    0.8373 Cl  0  0  0  0  0  0  0  0  0  0  0  0
    3.7307   17.6828    1.1781 Cl  0  0  0  0  0  0  0  0  0  0  0  0
    2.5348   14.5410    1.3178 Cl  0  0  0  0  0  0  0  0  0  0  0  0
    7.2125   21.9980    4.2558 Cl  0  0  0  0  0  0  0  0  0  0  0  0
    2.2488   16.3056    3.9017 P   0  0  0  0  0  4  0  0  0  0  0  0
    4.6578   14.0897    3.5080 N   0  0  0  0  0  0  0  0  0  0  0  0
    5.8155   15.6460    4.7358 N   0  0  0  0  0  0  0  0  0  0  0  0
    5.3943   16.4151    3.7769 N   0  0  0  0  0  0  0  0  0  0  0  0
    5.4446   14.3668    4.5851 C   0  0  0  0  0  0  0  0  0  0  0  0
    5.8795   13.3663    5.4677 C   0  0  0  0  0  0  0  0  0  0  0  0
    6.4934   13.6567    6.3032 H   0  0  0  0  0  0  0  0  0  0  0  0
    5.5194   12.0664    5.2213 C   0  0  0  0  0  0  0  0  0  0  0  0
    5.8425   11.2709    5.8746 H   0  0  0  0  0  0  0  0  0  0  0  0
    4.7297   11.7869    4.1032 C   0  0  0  0  0  0  0  0  0  0  0  0
    4.4315   10.7773    3.8744 H   0  0  0  0  0  0  0  0  0  0  0  0
    4.3295   12.8172    3.2838 C   0  0  0  0  0  0  0  0  0  0  0  0
    3.7115   12.6375    2.4148 H   0  0  0  0  0  0  0  0  0  0  0  0
    5.8599   17.7355    3.8850 C   0  0  0  0  0  0  0  0  0  0  0  0
    6.3065   18.4260    2.7587 C   0  0  0  0  0  0  0  0  0  0  0  0
    6.3445   17.9250    1.8023 H   0  0  0  0  0  0  0  0  0  0  0  0
    6.7319   19.7339    2.8740 C   0  0  0  0  0  0  0  0  0  0  0  0
    7.0763   20.2717    2.0051 H   0  0  0  0  0  0  0  0  0  0  0  0
    6.7147   20.3533    4.1156 C   0  0  0  0  0  0  0  0  0  0  0  0
    6.3107   19.6638    5.2503 C   0  0  0  0  0  0  0  0  0  0  0  0
    6.3189   20.1522    6.2116 H   0  0  0  0  0  0  0  0  0  0  0  0
    5.8945   18.3544    5.1351 C   0  0  0  0  0  0  0  0  0  0  0  0
    5.5754   17.7982    6.0023 H   0  0  0  0  0  0  0  0  0  0  0  0
    2.0980   14.9060    5.0463 C   0  0  0  0  0  0  0  0  0  0  0  0
    1.3591   13.7916    4.6550 C   0  0  0  0  0  0  0  0  0  0  0  0
    0.7989   13.8238    3.7312 H   0  0  0  0  0  0  0  0  0  0  0  0
    1.3557   12.6530    5.4387 C   0  0  0  0  0  0  0  0  0  0  0  0
    0.7766   11.7942    5.1343 H   0  0  0  0  0  0  0  0  0  0  0  0
    2.0997   12.6104    6.6069 C   0  0  0  0  0  0  0  0  0  0  0  0
    2.0956   11.7203    7.2180 H   0  0  0  0  0  0  0  0  0  0  0  0
    2.8592   13.7054    6.9848 C   0  0  0  0  0  0  0  0  0  0  0  0
    3.4530   13.6675    7.8859 H   0  0  0  0  0  0  0  0  0  0  0  0
    2.8696   14.8469    6.2042 C   0  0  0  0  0  0  0  0  0  0  0  0
    3.4813   15.6923    6.4877 H   0  0  0  0  0  0  0  0  0  0  0  0
    2.3611   17.8024    4.9312 C   0  0  0  0  0  0  0  0  0  0  0  0
    1.8534   17.8637    6.2250 C   0  0  0  0  0  0  0  0  0  0  0  0
    1.4075   16.9900    6.6782 H   0  0  0  0  0  0  0  0  0  0  0  0
    1.9218   19.0491    6.9340 C   0  0  0  0  0  0  0  0  0  0  0  0
    1.5339   19.0922    7.9413 H   0  0  0  0  0  0  0  0  0  0  0  0
    2.4789   20.1787    6.3561 C   0  0  0  0  0  0  0  0  0  0  0  0
    2.5302   21.1002    6.9166 H   0  0  0  0  0  0  0  0  0  0  0  0
    2.9587   20.1274    5.0582 C   0  0  0  0  0  0  0  0  0  0  0  0
    3.3814   21.0083    4.5996 H   0  0  0  0  0  0  0  0  0  0  0  0
    2.8995   18.9441    4.3449 C   0  0  0  0  0  0  0  0  0  0  0  0
    3.2648   18.8985    3.3283 H   0  0  0  0  0  0  0  0  0  0  0  0
    0.5733   16.5284    3.2314 C   0  0  0  0  0  0  0  0  0  0  0  0
    0.3969   17.0112    1.9408 C   0  0  0  0  0  0  0  0  0  0  0  0
    1.2572   17.2102    1.3182 H   0  0  0  0  0  0  0  0  0  0  0  0
   -0.8799   17.2333    1.4560 C   0  0  0  0  0  0  0  0  0  0  0  0
   -1.0140   17.6001    0.4496 H   0  0  0  0  0  0  0  0  0  0  0  0
   -1.9807   16.9849    2.2579 C   0  0  0  0  0  0  0  0  0  0  0  0
   -2.9769   17.1548    1.8773 H   0  0  0  0  0  0  0  0  0  0  0  0
   -1.8055   16.5208    3.5520 C   0  0  0  0  0  0  0  0  0  0  0  0
   -2.6637   16.3328    4.1805 H   0  0  0  0  0  0  0  0  0  0  0  0
   -0.5336   16.2962    4.0433 C   0  0  0  0  0  0  0  0  0  0  0  0
   -0.3987   15.9325    5.0524 H   0  0  0  0  0  0  0  0  0  0  0  0
  1  7  1  0  0  0  0
  1  9  1  0  0  0  0
  1  6  1  0  0  0  0
  2  1  1  0  0  0  0
  3  1  1  0  0  0  0
  4  1  1  0  0  0  0
  6 40  1  0  0  0  0
  6 29  1  0  0  0  0
  7 10  1  0  0  0  0
  9 19  1  0  0  0  0
  9  8  1  0  0  0  0
 10  8  2  0  0  0  0
 10 11  1  0  0  0  0
 11 12  1  0  0  0  0
 13 11  2  0  0  0  0
 13 14  1  0  0  0  0
 15 13  1  0  0  0  0
 16 15  1  0  0  0  0
 17  7  1  0  0  0  0
 17 15  2  0  0  0  0
 18 17  1  0  0  0  0
 19 27  1  0  0  0  0
 20 22  1  0  0  0  0
 20 19  2  0  0  0  0
 21 20  1  0  0  0  0
 22 24  2  0  0  0  0
 23 22  1  0  0  0  0
 24  5  1  0  0  0  0
 24 25  1  0  0  0  0
 25 26  1  0  0  0  0
 27 25  2  0  0  0  0
 27 28  1  0  0  0  0
 29 38  1  0  0  0  0
 30 29  2  0  0  0  0
 30 32  1  0  0  0  0
 31 30  1  0  0  0  0
 32 34  2  0  0  0  0
 33 32  1  0  0  0  0
 34 36  1  0  0  0  0
 34 35  1  0  0  0  0
 36 37  1  0  0  0  0
 38 39  1  0  0  0  0
 38 36  2  0  0  0  0
 40 41  1  0  0  0  0
 41 42  1  0  0  0  0
 41 43  2  0  0  0  0
 43 44  1  0  0  0  0
 45 46  1  0  0  0  0
 45 43  1  0  0  0  0
 47 45  2  0  0  0  0
 48 47  1  0  0  0  0
 49 40  2  0  0  0  0
 49 47  1  0  0  0  0
 50 49  1  0  0  0  0
 51  6  1  0  0  0  0
 51 60  1  0  0  0  0
 52 51  2  0  0  0  0
 53 52  1  0  0  0  0
 54 52  1  0  0  0  0
 54 56  2  0  0  0  0
 55 54  1  0  0  0  0
 56 58  1  0  0  0  0
 57 56  1  0  0  0  0
 58 60  2  0  0  0  0
 58 59  1  0  0  0  0
 60 61  1  0  0  0  0
M  END
$$$$
