CSD_code = QAYSIV | q = 0 | S = 0 | Stoichiometry = C14H18ClNO3PdS2 | MND = 4
 OpenBabel04212202083D

 40 42  0  0  1  0  0  0  0  0999 V2000
    3.1564    1.1421    3.5887 Pd  0  0  2  0  0  0  0  0  0  0  0  0
    2.5408    3.2876    4.0010 Cl  0  0  0  0  0  0  0  0  0  0  0  0
    2.9656    0.6352    5.8021 S   0  0  2  0  0  3  0  0  0  0  0  0
    3.5964    1.4606    1.3118 S   0  0  2  0  0  3  0  0  0  0  0  0
    5.1889   -2.1017    2.0514 O   0  0  0  0  0  0  0  0  0  0  0  0
    1.0733   -0.2265    2.6450 O   0  0  0  0  0  0  0  0  0  0  0  0
    1.4321   -2.0441    1.3838 O   0  0  0  0  0  0  0  0  0  0  0  0
    3.7677   -0.7607    3.2277 N   0  0  0  0  0  0  0  0  0  0  0  0
    5.7672    0.1969    2.4101 C   0  0  0  0  0  0  0  0  0  0  0  0
    5.2869    1.4276    1.9342 C   0  0  0  0  0  0  0  0  0  0  0  0
    6.1314    2.5260    1.8714 C   0  0  0  0  0  0  0  0  0  0  0  0
    5.7784    3.4790    1.5113 H   0  0  0  0  0  0  0  0  0  0  0  0
    7.4489    2.4041    2.2876 C   0  0  0  0  0  0  0  0  0  0  0  0
    8.0938    3.2691    2.2492 H   0  0  0  0  0  0  0  0  0  0  0  0
    7.9375    1.1893    2.7314 C   0  0  0  0  0  0  0  0  0  0  0  0
    8.9686    1.0972    3.0363 H   0  0  0  0  0  0  0  0  0  0  0  0
    7.0965    0.0896    2.7875 C   0  0  0  0  0  0  0  0  0  0  0  0
    7.4576   -0.8693    3.1275 H   0  0  0  0  0  0  0  0  0  0  0  0
    4.8689   -1.0154    2.5187 C   0  0  0  0  0  0  0  0  0  0  0  0
    2.7548   -1.7849    3.3518 C   0  0  1  0  0  0  0  0  0  0  0  0
    3.1578   -2.7316    2.9721 H   0  0  0  0  0  0  0  0  0  0  0  0
    2.2180   -1.9246    4.7989 C   0  0  0  0  0  0  0  0  0  0  0  0
    1.1888   -1.5589    4.8361 H   0  0  0  0  0  0  0  0  0  0  0  0
    2.2008   -2.9828    5.0667 H   0  0  0  0  0  0  0  0  0  0  0  0
    3.0485   -1.1950    5.8462 C   0  0  0  0  0  0  0  0  0  0  0  0
    4.1080   -1.4272    5.7316 H   0  0  0  0  0  0  0  0  0  0  0  0
    2.7238   -1.4823    6.8476 H   0  0  0  0  0  0  0  0  0  0  0  0
    1.6475   -1.2800    2.4360 C   0  0  0  0  0  0  0  0  0  0  0  0
    0.5303   -1.5500    0.3974 C   0  0  0  0  0  0  0  0  0  0  0  0
    0.2593   -2.4008   -0.2222 H   0  0  0  0  0  0  0  0  0  0  0  0
    1.0262   -0.7846   -0.2028 H   0  0  0  0  0  0  0  0  0  0  0  0
   -0.3507   -1.1162    0.8740 H   0  0  0  0  0  0  0  0  0  0  0  0
    1.1712    0.9212    5.9303 C   0  0  0  0  0  0  0  0  0  0  0  0
    0.7804    0.3522    6.7701 H   0  0  0  0  0  0  0  0  0  0  0  0
    0.6763    0.6612    4.9929 H   0  0  0  0  0  0  0  0  0  0  0  0
    1.0557    1.9875    6.1117 H   0  0  0  0  0  0  0  0  0  0  0  0
    3.3317    3.1930    0.8395 C   0  0  0  0  0  0  0  0  0  0  0  0
    4.0042    3.4495    0.0255 H   0  0  0  0  0  0  0  0  0  0  0  0
    3.4562    3.8394    1.7058 H   0  0  0  0  0  0  0  0  0  0  0  0
    2.3007    3.2448    0.5002 H   0  0  0  0  0  0  0  0  0  0  0  0
  1  2  1  6  0  0  0
  1  3  1  0  0  0  0
  3 25  1  0  0  0  0
  3 33  1  6  0  0  0
  4 37  1  1  0  0  0
  4 10  1  0  0  0  0
  4  1  1  0  0  0  0
  5 19  2  0  0  0  0
  7 28  1  0  0  0  0
  8 20  1  0  0  0  0
  8  1  1  0  0  0  0
  9 19  1  0  0  0  0
  9 17  1  0  0  0  0
 10  9  2  0  0  0  0
 11 10  1  0  0  0  0
 11 13  2  0  0  0  0
 12 11  1  0  0  0  0
 13 15  1  0  0  0  0
 14 13  1  0  0  0  0
 15 17  2  0  0  0  0
 15 16  1  0  0  0  0
 17 18  1  0  0  0  0
 19  8  1  0  0  0  0
 20 21  1  6  0  0  0
 20 22  1  0  0  0  0
 22 23  1  0  0  0  0
 22 24  1  0  0  0  0
 22 25  1  0  0  0  0
 25 27  1  0  0  0  0
 26 25  1  0  0  0  0
 28  6  2  0  0  0  0
 28 20  1  0  0  0  0
 29 32  1  0  0  0  0
 29  7  1  0  0  0  0
 30 29  1  0  0  0  0
 31 29  1  0  0  0  0
 33 36  1  0  0  0  0
 33 34  1  0  0  0  0
 35 33  1  0  0  0  0
 37 39  1  0  0  0  0
 38 37  1  0  0  0  0
 40 37  1  0  0  0  0
M  END
$$$$
