CSD_code = QAYZAR | q = 0 | S = 0 | Stoichiometry = C32H24ClHgN2PS4 | MND = 4
 OpenBabel04212202083D

 65 70  0  0  0  0  0  0  0  0999 V2000
    0.9768    4.5675    0.6940 Hg  0  0  0  0  0  0  0  0  0  0  0  0
   -1.1483    4.0559   -0.2942 Cl  0  0  0  0  0  0  0  0  0  0  0  0
    5.5328    3.9577    1.4489 S   0  0  0  0  0  0  0  0  0  0  0  0
    3.8574    4.0614    0.9440 C   0  0  0  0  0  0  0  0  0  0  0  0
    3.2220    5.5255    0.3516 S   0  0  0  0  0  0  0  0  0  0  0  0
    3.1642    2.9682    1.0582 N   0  0  0  0  0  0  0  0  0  0  0  0
    3.9219    1.9371    1.5458 C   0  0  0  0  0  0  0  0  0  0  0  0
    3.4956    0.6311    1.7658 C   0  0  0  0  0  0  0  0  0  0  0  0
    2.4815    0.3548    1.5273 H   0  0  0  0  0  0  0  0  0  0  0  0
    4.3860   -0.2848    2.2866 C   0  0  0  0  0  0  0  0  0  0  0  0
    4.0594   -1.2994    2.4606 H   0  0  0  0  0  0  0  0  0  0  0  0
    5.6956    0.0738    2.5898 C   0  0  0  0  0  0  0  0  0  0  0  0
    6.3714   -0.6619    2.9987 H   0  0  0  0  0  0  0  0  0  0  0  0
    6.1453    1.3613    2.3646 C   0  0  0  0  0  0  0  0  0  0  0  0
    7.1610    1.6484    2.5859 H   0  0  0  0  0  0  0  0  0  0  0  0
    5.2567    2.2811    1.8406 C   0  0  0  0  0  0  0  0  0  0  0  0
   -2.4773    7.6328    3.6655 S   0  0  0  0  0  0  0  0  0  0  0  0
   -1.5767    6.7033    2.4830 C   0  0  0  0  0  0  0  0  0  0  0  0
    0.0751    6.7727    2.3728 S   0  0  0  0  0  0  0  0  0  0  0  0
   -2.3968    5.9692    1.7271 N   0  0  0  0  0  0  0  0  0  0  0  0
   -2.0409    5.3394    0.9844 H   0  0  0  0  0  0  0  0  0  0  0  0
   -3.7298    6.0616    2.0320 C   0  0  0  0  0  0  0  0  0  0  0  0
   -4.7729    5.3842    1.4153 C   0  0  0  0  0  0  0  0  0  0  0  0
   -4.5644    4.7071    0.6025 H   0  0  0  0  0  0  0  0  0  0  0  0
   -6.0571    5.6061    1.8743 C   0  0  0  0  0  0  0  0  0  0  0  0
   -6.8832    5.0903    1.4099 H   0  0  0  0  0  0  0  0  0  0  0  0
   -6.3030    6.4845    2.9253 C   0  0  0  0  0  0  0  0  0  0  0  0
   -7.3158    6.6399    3.2633 H   0  0  0  0  0  0  0  0  0  0  0  0
   -5.2692    7.1644    3.5448 C   0  0  0  0  0  0  0  0  0  0  0  0
   -5.4534    7.8472    4.3581 H   0  0  0  0  0  0  0  0  0  0  0  0
   -3.9814    6.9444    3.0898 C   0  0  0  0  0  0  0  0  0  0  0  0
    0.6085    3.1842    2.9985 P   0  0  0  0  0  4  0  0  0  0  0  0
    2.1378    3.1870    3.9738 C   0  0  0  0  0  0  0  0  0  0  0  0
    2.7171    2.0401    4.5023 C   0  0  0  0  0  0  0  0  0  0  0  0
    2.2224    1.0846    4.4070 H   0  0  0  0  0  0  0  0  0  0  0  0
    3.9456    2.1237    5.1346 C   0  0  0  0  0  0  0  0  0  0  0  0
    4.3996    1.2299    5.5361 H   0  0  0  0  0  0  0  0  0  0  0  0
    4.5998    3.3397    5.2349 C   0  0  0  0  0  0  0  0  0  0  0  0
    5.5655    3.3945    5.7146 H   0  0  0  0  0  0  0  0  0  0  0  0
    4.0239    4.4857    4.7077 C   0  0  0  0  0  0  0  0  0  0  0  0
    4.5380    5.4329    4.7740 H   0  0  0  0  0  0  0  0  0  0  0  0
    2.7991    4.4111    4.0734 C   0  0  0  0  0  0  0  0  0  0  0  0
    2.3522    5.2971    3.6353 H   0  0  0  0  0  0  0  0  0  0  0  0
   -0.6761    3.8180    4.1215 C   0  0  0  0  0  0  0  0  0  0  0  0
   -1.9998    3.5997    3.7413 C   0  0  0  0  0  0  0  0  0  0  0  0
   -2.2070    3.0467    2.8337 H   0  0  0  0  0  0  0  0  0  0  0  0
   -3.0317    4.0881    4.5190 C   0  0  0  0  0  0  0  0  0  0  0  0
   -4.0572    3.9123    4.2273 H   0  0  0  0  0  0  0  0  0  0  0  0
   -2.7491    4.8139    5.6664 C   0  0  0  0  0  0  0  0  0  0  0  0
   -3.5562    5.2041    6.2683 H   0  0  0  0  0  0  0  0  0  0  0  0
   -1.4345    5.0465    6.0347 C   0  0  0  0  0  0  0  0  0  0  0  0
   -1.2162    5.6195    6.9236 H   0  0  0  0  0  0  0  0  0  0  0  0
   -0.3944    4.5521    5.2667 C   0  0  0  0  0  0  0  0  0  0  0  0
    0.6308    4.7359    5.5543 H   0  0  0  0  0  0  0  0  0  0  0  0
    0.0954    1.4499    2.8495 C   0  0  0  0  0  0  0  0  0  0  0  0
   -0.2847    0.7157    3.9707 C   0  0  0  0  0  0  0  0  0  0  0  0
   -0.2767    1.1819    4.9470 H   0  0  0  0  0  0  0  0  0  0  0  0
   -0.6781   -0.6014    3.8246 C   0  0  0  0  0  0  0  0  0  0  0  0
   -0.9680   -1.1746    4.6931 H   0  0  0  0  0  0  0  0  0  0  0  0
   -0.7063   -1.1855    2.5671 C   0  0  0  0  0  0  0  0  0  0  0  0
   -1.0177   -2.2139    2.4590 H   0  0  0  0  0  0  0  0  0  0  0  0
   -0.3459   -0.4515    1.4491 C   0  0  0  0  0  0  0  0  0  0  0  0
   -0.3786   -0.9045    0.4693 H   0  0  0  0  0  0  0  0  0  0  0  0
    0.0557    0.8660    1.5885 C   0  0  0  0  0  0  0  0  0  0  0  0
    0.3373    1.4548    0.7224 H   0  0  0  0  0  0  0  0  0  0  0  0
  1 32  1  0  0  0  0
  2  1  1  0  0  0  0
  3 16  1  0  0  0  0
  4  6  2  0  0  0  0
  4  3  1  0  0  0  0
  5  1  1  0  0  0  0
  5  4  1  0  0  0  0
  6  7  1  0  0  0  0
  7  8  2  0  0  0  0
  7 16  1  0  0  0  0
  8 10  1  0  0  0  0
  9  8  1  0  0  0  0
 10 11  1  0  0  0  0
 10 12  2  0  0  0  0
 12 13  1  0  0  0  0
 14 15  1  0  0  0  0
 14 12  1  0  0  0  0
 16 14  2  0  0  0  0
 18 17  1  0  0  0  0
 19 18  2  0  0  0  0
 20 22  1  0  0  0  0
 20 18  1  0  0  0  0
 21 20  1  0  0  0  0
 22 31  1  0  0  0  0
 23 25  1  0  0  0  0
 23 22  2  0  0  0  0
 24 23  1  0  0  0  0
 25 27  2  0  0  0  0
 26 25  1  0  0  0  0
 27 28  1  0  0  0  0
 27 29  1  0  0  0  0
 29 30  1  0  0  0  0
 31 29  2  0  0  0  0
 31 17  1  0  0  0  0
 32 33  1  0  0  0  0
 32 44  1  0  0  0  0
 33 42  2  0  0  0  0
 33 34  1  0  0  0  0
 34 36  2  0  0  0  0
 35 34  1  0  0  0  0
 36 38  1  0  0  0  0
 36 37  1  0  0  0  0
 38 39  1  0  0  0  0
 40 41  1  0  0  0  0
 40 38  2  0  0  0  0
 42 40  1  0  0  0  0
 43 42  1  0  0  0  0
 44 53  1  0  0  0  0
 45 44  2  0  0  0  0
 45 47  1  0  0  0  0
 46 45  1  0  0  0  0
 47 49  2  0  0  0  0
 48 47  1  0  0  0  0
 49 51  1  0  0  0  0
 49 50  1  0  0  0  0
 51 52  1  0  0  0  0
 53 54  1  0  0  0  0
 53 51  2  0  0  0  0
 55 32  1  0  0  0  0
 55 56  1  0  0  0  0
 56 57  1  0  0  0  0
 58 56  2  0  0  0  0
 58 59  1  0  0  0  0
 60 58  1  0  0  0  0
 61 60  1  0  0  0  0
 62 64  1  0  0  0  0
 62 60  2  0  0  0  0
 63 62  1  0  0  0  0
 64 55  2  0  0  0  0
 65 64  1  0  0  0  0
M  END
$$$$
