CSD_code = QAZQIT | q = 0 | S = 0 | Stoichiometry = C15H20Cl2N4Zn | MND = 4
 OpenBabel04212202083D

 42 44  0  0  1  0  0  0  0  0999 V2000
   -0.7568    9.8540   10.5509 Zn  0  0  0  0  0  0  0  0  0  0  0  0
    0.1771   11.8376   10.7365 Cl  0  0  0  0  0  0  0  0  0  0  0  0
   -2.2926    9.3730    8.9932 Cl  0  0  0  0  0  0  0  0  0  0  0  0
    0.3811    8.1196   10.3244 N   0  0  0  0  0  0  0  0  0  0  0  0
    1.2024    8.3738    8.1912 N   0  0  0  0  0  0  0  0  0  0  0  0
   -0.0786    6.5009    8.6852 N   0  0  0  0  0  0  0  0  0  0  0  0
   -1.1752    8.9926   12.3861 N   0  0  0  0  0  0  0  0  0  0  0  0
    0.4874    7.6604    9.0921 C   0  0  0  0  0  3  0  0  0  0  0  0
    0.6749    8.6325    6.8648 C   0  0  0  0  0  0  0  0  0  0  0  0
   -0.2705    8.1174    6.7248 H   0  0  0  0  0  0  0  0  0  0  0  0
    1.3875    8.3258    6.0960 H   0  0  0  0  0  0  0  0  0  0  0  0
    0.4837    9.7028    6.7605 H   0  0  0  0  0  0  0  0  0  0  0  0
    2.1152    9.3915    8.6688 C   0  0  0  0  0  0  0  0  0  0  0  0
    2.5712    9.0641    9.6002 H   0  0  0  0  0  0  0  0  0  0  0  0
    1.6143   10.3481    8.8445 H   0  0  0  0  0  0  0  0  0  0  0  0
    2.8905    9.5327    7.9154 H   0  0  0  0  0  0  0  0  0  0  0  0
   -1.2641    5.9715    9.3153 C   0  0  0  0  0  0  0  0  0  0  0  0
   -1.7939    6.7715    9.8283 H   0  0  0  0  0  0  0  0  0  0  0  0
   -1.0277    5.1739   10.0272 H   0  0  0  0  0  0  0  0  0  0  0  0
   -1.9203    5.5749    8.5396 H   0  0  0  0  0  0  0  0  0  0  0  0
    0.4315    5.7243    7.5809 C   0  0  0  0  0  0  0  0  0  0  0  0
    1.4154    6.0852    7.2938 H   0  0  0  0  0  0  0  0  0  0  0  0
   -0.2341    5.7577    6.7144 H   0  0  0  0  0  0  0  0  0  0  0  0
    0.5196    4.6828    7.9024 H   0  0  0  0  0  0  0  0  0  0  0  0
    0.2324    7.3194   11.4292 C   0  0  0  0  0  0  0  0  0  0  0  0
    0.8839    6.1056   11.5808 C   0  0  0  0  0  0  0  0  0  0  0  0
    1.4940    5.7326   10.7708 H   0  0  0  0  0  0  0  0  0  0  0  0
    0.7933    5.3750   12.7667 C   0  0  0  0  0  0  0  0  0  0  0  0
    1.3195    4.4346   12.8411 H   0  0  0  0  0  0  0  0  0  0  0  0
    0.0566    5.8343   13.8261 C   0  0  0  0  0  0  0  0  0  0  0  0
   -0.0152    5.2698   14.7430 H   0  0  0  0  0  0  0  0  0  0  0  0
   -0.6164    7.0660   13.7259 C   0  0  0  0  0  0  0  0  0  0  0  0
   -0.5323    7.8156   12.5252 C   0  0  2  0  0  3  0  0  0  0  0  0
   -1.3903    7.6144   14.7702 C   0  0  0  0  0  0  0  0  0  0  0  0
   -1.4718    7.0750   15.7031 H   0  0  0  0  0  0  0  0  0  0  0  0
   -2.0227    8.8126   14.5926 C   0  0  0  0  0  0  0  0  0  0  0  0
   -2.6186    9.2495   15.3786 H   0  0  0  0  0  0  0  0  0  0  0  0
   -1.8970    9.4932   13.3647 C   0  0  0  0  0  0  0  0  0  0  0  0
   -2.5662   10.8012   13.1249 C   0  0  0  0  0  0  0  0  0  0  0  0
   -1.8114   11.5732   12.9693 H   0  0  0  0  0  0  0  0  0  0  0  0
   -3.1995   11.0838   13.9610 H   0  0  0  0  0  0  0  0  0  0  0  0
   -3.1673   10.7497   12.2166 H   0  0  0  0  0  0  0  0  0  0  0  0
  1  2  1  0  0  0  0
  1  7  1  0  0  0  0
  3  1  1  0  0  0  0
  4  1  1  0  0  0  0
  4 25  1  0  0  0  0
  5 13  1  0  0  0  0
  5  8  1  0  0  0  0
  6  8  1  0  0  0  0
  6 17  1  0  0  0  0
  7 33  1  0  0  0  0
  7 38  1  0  0  0  0
  8  4  1  0  0  0  0
  9  5  1  0  0  0  0
 10  9  1  0  0  0  0
 11  9  1  0  0  0  0
 12  9  1  0  0  0  0
 13 15  1  0  0  0  0
 13 14  1  0  0  0  0
 16 13  1  0  0  0  0
 17 18  1  0  0  0  0
 17 19  1  0  0  0  0
 20 17  1  0  0  0  0
 21 24  1  0  0  0  0
 21  6  1  0  0  0  0
 22 21  1  0  0  0  0
 23 21  1  0  0  0  0
 25 26  2  0  0  0  0
 26 28  1  0  0  0  0
 27 26  1  0  0  0  0
 28 29  1  0  0  0  0
 28 30  2  0  0  0  0
 30 31  1  0  0  0  0
 32 30  1  0  0  0  0
 32 34  2  0  0  0  0
 33 25  1  6  0  0  0
 33 32  1  0  0  0  0
 34 35  1  0  0  0  0
 36 34  1  0  0  0  0
 36 37  1  0  0  0  0
 38 36  2  0  0  0  0
 39 38  1  0  0  0  0
 39 41  1  0  0  0  0
 40 39  1  0  0  0  0
 42 39  1  0  0  0  0
M  END
$$$$
