CSD_code = QAZXIA | q = 0 | S = 0 | Stoichiometry = C9H10ClN3O5Ru | MND = 6
 OpenBabel04212202083D

 29 30  0  0  0  0  0  0  0  0999 V2000
    7.0704    6.2048    3.1233 Ru  0  0  0  0  0  0  0  0  0  0  0  0
    8.0504    6.6314    5.1991 Cl  0  0  0  0  0  0  0  0  0  0  0  0
    9.5358    4.5620    2.6816 O   0  0  0  0  0  1  0  0  0  0  0  0
    5.8715    5.8562    0.3959 O   0  0  0  0  0  1  0  0  0  0  0  0
    5.1510    8.5597    3.5694 O   0  0  0  0  0  0  0  0  0  0  0  0
    5.9488    8.9463    3.0769 H   0  0  0  0  0  0  0  0  0  0  0  0
    7.4319    8.9809    2.4598 O   0  0  0  0  0  0  0  0  0  0  0  0
    9.2190    7.7202    2.0604 O   0  0  0  0  0  0  0  0  0  0  0  0
    5.4772    7.2780    3.8456 N   0  0  0  0  0  0  0  0  0  0  0  0
    5.9899    4.6596    4.2666 N   0  0  0  0  0  0  0  0  0  0  0  0
    5.1445    2.4502    6.3513 H   0  0  0  0  0  0  0  0  0  0  0  0
    5.2437    3.2818    5.7908 N   0  0  0  0  0  0  0  0  0  0  0  0
    8.5852    5.1839    2.7666 C   0  0  0  0  0  2  0  0  0  0  0  0
    6.3045    5.9711    1.4515 C   0  0  0  0  0  2  0  0  0  0  0  0
    7.9716    7.8823    2.4611 C   0  0  0  0  0  0  0  0  0  0  0  0
    9.9527    8.8909    1.6467 C   0  0  0  0  0  0  0  0  0  0  0  0
   10.1931    9.4790    2.5387 H   0  0  0  0  0  0  0  0  0  0  0  0
    9.3074    9.4913    0.9962 H   0  0  0  0  0  0  0  0  0  0  0  0
   11.2069    8.4346    0.9286 C   0  0  0  0  0  0  0  0  0  0  0  0
   11.8083    7.8165    1.5892 H   0  0  0  0  0  0  0  0  0  0  0  0
   11.7883    9.2991    0.6206 H   0  0  0  0  0  0  0  0  0  0  0  0
   10.9437    7.8502    0.0510 H   0  0  0  0  0  0  0  0  0  0  0  0
    4.7376    6.6793    4.7047 C   0  0  0  0  0  3  0  0  0  0  0  0
    3.9177    7.1953    5.1942 H   0  0  0  0  0  0  0  0  0  0  0  0
    5.0307    5.3079    5.0041 C   0  0  0  0  0  0  0  0  0  0  0  0
    4.5532    4.4429    5.9610 C   0  0  0  0  0  0  0  0  0  0  0  0
    3.8179    4.5758    6.7265 H   0  0  0  0  0  0  0  0  0  0  0  0
    6.1016    3.4571    4.7625 C   0  0  0  0  0  3  0  0  0  0  0  0
    6.7744    2.7005    4.4083 H   0  0  0  0  0  0  0  0  0  0  0  0
  1  9  1  0  0  0  0
  1 10  1  0  0  0  0
  1  2  1  0  0  0  0
  3 13  1  0  0  0  0
  4 14  1  0  0  0  0
  5  9  1  0  0  0  0
  6  5  1  0  0  0  0
  7 15  2  0  0  0  0
  8 15  1  0  0  0  0
  9 23  1  0  0  0  0
 10 28  1  0  0  0  0
 10 25  1  0  0  0  0
 12 26  1  0  0  0  0
 12 11  1  0  0  0  0
 13  1  1  0  0  0  0
 14  1  1  0  0  0  0
 15  1  1  0  0  0  0
 16  8  1  0  0  0  0
 16 17  1  0  0  0  0
 18 16  1  0  0  0  0
 19 20  1  0  0  0  0
 19 16  1  0  0  0  0
 21 19  1  0  0  0  0
 22 19  1  0  0  0  0
 23 25  1  0  0  0  0
 23 24  1  0  0  0  0
 25 26  2  0  0  0  0
 26 27  1  0  0  0  0
 28 12  1  0  0  0  0
 29 28  1  0  0  0  0
M  END
$$$$
