CSD_code = QAZXEW | q = 0 | S = 0 | Stoichiometry = C9H10ClN3O5Ru | MND = 6
 OpenBabel04212202083D

 29 30  0  0  0  0  0  0  0  0999 V2000
    5.4125    2.9975    3.0289 Ru  0  0  0  0  0  0  0  0  0  0  0  0
    6.4747    3.4666    5.0534 Cl  0  0  0  0  0  0  0  0  0  0  0  0
    7.8035    1.2495    2.5735 O   0  0  0  0  0  1  0  0  0  0  0  0
    4.1141    2.6111    0.3518 O   0  0  0  0  0  1  0  0  0  0  0  0
    3.5958    5.4240    3.4795 O   0  0  0  0  0  0  0  0  0  0  0  0
    4.3825    5.7676    2.9302 H   0  0  0  0  0  0  0  0  0  0  0  0
    5.8317    5.7391    2.2700 O   0  0  0  0  0  0  0  0  0  0  0  0
    7.5964    4.4338    1.9246 O   0  0  0  0  0  0  0  0  0  0  0  0
    3.8935    4.1449    3.7762 N   0  0  0  0  0  0  0  0  0  0  0  0
    4.3088    1.5192    4.2502 N   0  0  0  0  0  0  0  0  0  0  0  0
    2.9501    1.4494    5.9774 N   0  0  0  0  0  0  0  0  0  0  0  0
    2.3116    1.7450    6.6980 H   0  0  0  0  0  0  0  0  0  0  0  0
    6.8808    1.9094    2.6611 C   0  0  0  0  0  2  0  0  0  0  0  0
    4.5903    2.7393    1.3861 C   0  0  0  0  0  2  0  0  0  0  0  0
    6.3496    4.6294    2.3053 C   0  0  0  0  0  0  0  0  0  0  0  0
    8.3583    5.5865    1.5099 C   0  0  0  0  0  0  0  0  0  0  0  0
    8.4108    6.2863    2.3507 H   0  0  0  0  0  0  0  0  0  0  0  0
    7.8259    6.0734    0.6854 H   0  0  0  0  0  0  0  0  0  0  0  0
    9.7359    5.1159    1.0899 C   0  0  0  0  0  0  0  0  0  0  0  0
   10.2241    4.6126    1.9199 H   0  0  0  0  0  0  0  0  0  0  0  0
   10.3372    5.9678    0.7854 H   0  0  0  0  0  0  0  0  0  0  0  0
    9.6564    4.4191    0.2599 H   0  0  0  0  0  0  0  0  0  0  0  0
    3.1897    3.5966    4.7047 C   0  0  0  0  0  0  0  0  0  0  0  0
    2.4217    4.1538    5.2318 H   0  0  0  0  0  0  0  0  0  0  0  0
    3.4621    2.2250    4.9915 C   0  0  0  0  0  0  0  0  0  0  0  0
    3.5153    0.2147    5.8581 C   0  0  0  0  0  0  0  0  0  0  0  0
    3.2860   -0.5875    6.5280 H   0  0  0  0  0  0  0  0  0  0  0  0
    4.3551    0.2761    4.7792 C   0  0  0  0  0  0  0  0  0  0  0  0
    4.9770   -0.4902    4.3612 H   0  0  0  0  0  0  0  0  0  0  0  0
  1  9  1  0  0  0  0
  1 10  1  0  0  0  0
  1  2  1  0  0  0  0
  3 13  1  0  0  0  0
  4 14  1  0  0  0  0
  5  9  1  0  0  0  0
  6  5  1  0  0  0  0
  7 15  2  0  0  0  0
  8 15  1  0  0  0  0
  9 23  1  0  0  0  0
 10 28  1  0  0  0  0
 10 25  1  0  0  0  0
 11 12  1  0  0  0  0
 13  1  1  0  0  0  0
 14  1  1  0  0  0  0
 15  1  1  0  0  0  0
 16  8  1  0  0  0  0
 16 17  1  0  0  0  0
 18 16  1  0  0  0  0
 19 16  1  0  0  0  0
 19 20  1  0  0  0  0
 21 19  1  0  0  0  0
 22 19  1  0  0  0  0
 23 25  2  0  0  0  0
 23 24  1  0  0  0  0
 25 11  1  0  0  0  0
 26 11  1  0  0  0  0
 26 27  1  0  0  0  0
 28 26  2  0  0  0  0
 29 28  1  0  0  0  0
M  END
$$$$
