CSD_code = QEBKAJ | q = 0 | S = 0 | Stoichiometry = C11H21Cl2N7O2RuS | MND = 6
 OpenBabel04212202083D

 45 48  0  0  1  0  0  0  0  0999 V2000
    1.4407    1.7462    2.5444 Ru  0  0  0  0  0  0  0  0  0  0  0  0
    3.6209    2.2248    3.3551 Cl  0  0  0  0  0  0  0  0  0  0  0  0
   -0.6388    0.9637    1.7366 Cl  0  0  0  0  0  0  0  0  0  0  0  0
    1.8157    7.5163   -0.2660 N   0  0  0  0  0  0  0  0  0  0  0  0
    1.7786    8.5229   -0.3724 H   0  0  0  0  0  0  0  0  0  0  0  0
    2.1928    6.7447   -1.3238 C   0  0  0  0  0  0  0  0  0  0  0  0
    2.4801    7.3764   -2.4905 N   0  0  0  0  0  0  0  0  0  0  0  0
    2.8929    6.8043   -3.2068 H   0  0  0  0  0  0  0  0  0  0  0  0
    2.7228    8.3517   -2.4795 H   0  0  0  0  0  0  0  0  0  0  0  0
    2.2426    5.4420   -1.2848 N   0  0  0  0  0  0  0  0  0  0  0  0
    1.8768    4.9158   -0.0951 C   0  0  0  0  0  0  0  0  0  0  0  0
    1.4846    5.6216    1.0329 C   0  0  0  0  0  0  0  0  0  0  0  0
    1.4191    7.0482    1.0115 C   0  0  0  0  0  0  0  0  0  0  0  0
    1.0977    7.8414    1.8675 O   0  0  0  0  0  0  0  0  0  0  0  0
    1.2235    4.6807    1.9991 N   0  0  0  0  0  0  0  0  0  0  0  0
    0.9062    4.8496    2.9575 H   0  0  0  0  0  0  0  0  0  0  0  0
    1.4313    3.4443    1.5271 C   0  0  1  0  0  3  0  0  0  0  0  0
    1.8348    3.5945    0.2266 N   0  0  0  0  0  0  0  0  0  0  0  0
    2.1253    2.5364   -0.7068 C   0  0  0  0  0  0  0  0  0  0  0  0
    2.6204    3.0010   -1.5624 H   0  0  0  0  0  0  0  0  0  0  0  0
    1.1817    2.0844   -1.0410 H   0  0  0  0  0  0  0  0  0  0  0  0
    3.0102    1.4569   -0.0870 C   0  0  0  0  0  0  0  0  0  0  0  0
    3.3888    0.8020   -0.8853 H   0  0  0  0  0  0  0  0  0  0  0  0
    3.8580    1.9171    0.4326 H   0  0  0  0  0  0  0  0  0  0  0  0
    2.2437    0.6906    0.8890 N   0  0  1  0  0  4  0  0  0  0  0  0
    1.3829    0.3460    0.4384 H   0  0  0  0  0  0  0  0  0  0  0  0
    2.9735   -0.4591    1.4221 C   0  0  0  0  0  0  0  0  0  0  0  0
    3.8787   -0.0830    1.9139 H   0  0  0  0  0  0  0  0  0  0  0  0
    3.2566   -1.1576    0.6219 H   0  0  0  0  0  0  0  0  0  0  0  0
    2.0835   -1.1570    2.4487 C   0  0  0  0  0  0  0  0  0  0  0  0
    1.1420   -1.4554    1.9732 H   0  0  0  0  0  0  0  0  0  0  0  0
    2.5892   -2.0534    2.8343 H   0  0  0  0  0  0  0  0  0  0  0  0
    1.7695   -0.2012    3.5121 N   0  0  0  0  0  4  0  0  0  0  0  0
    1.0612   -0.5932    4.1289 H   0  0  0  0  0  0  0  0  0  0  0  0
    2.6176   -0.0082    4.0544 H   0  0  0  0  0  0  0  0  0  0  0  0
    0.5182    2.6365    4.3754 S   0  0  0  0  0  0  0  0  0  0  0  0
    0.3525    4.0856    4.4698 O   0  0  0  0  0  1  0  0  0  0  0  0
    1.3806    2.1753    5.9197 C   0  0  0  0  0  0  0  0  0  0  0  0
    2.4369    2.3768    5.7649 H   0  0  0  0  0  0  0  0  0  0  0  0
    1.2177    1.1257    6.1359 H   0  0  0  0  0  0  0  0  0  0  0  0
    0.9908    2.8057    6.7099 H   0  0  0  0  0  0  0  0  0  0  0  0
   -1.1133    1.9576    4.8209 C   0  0  0  0  0  0  0  0  0  0  0  0
   -1.4233    2.4014    5.7594 H   0  0  0  0  0  0  0  0  0  0  0  0
   -1.0483    0.8773    4.8859 H   0  0  0  0  0  0  0  0  0  0  0  0
   -1.7970    2.2344    4.0251 H   0  0  0  0  0  0  0  0  0  0  0  0
  1  2  1  0  0  0  0
  1 33  1  0  0  0  0
  1 36  1  0  0  0  0
  3  1  1  0  0  0  0
  4 13  1  0  0  0  0
  5  4  1  0  0  0  0
  6 10  2  0  0  0  0
  6  4  1  0  0  0  0
  7  9  1  0  0  0  0
  7  6  1  0  0  0  0
  8  7  1  0  0  0  0
 10 11  1  0  0  0  0
 11 18  1  0  0  0  0
 11 12  2  0  0  0  0
 12 15  1  0  0  0  0
 13 12  1  0  0  0  0
 13 14  2  0  0  0  0
 15 16  1  0  0  0  0
 17 18  1  1  0  0  0
 17 15  1  0  0  0  0
 17  1  1  0  0  0  0
 19 22  1  0  0  0  0
 19 18  1  0  0  0  0
 20 19  1  0  0  0  0
 21 19  1  0  0  0  0
 22 24  1  0  0  0  0
 22 25  1  0  0  0  0
 23 22  1  0  0  0  0
 25 26  1  6  0  0  0
 25 27  1  0  0  0  0
 25  1  1  0  0  0  0
 27 28  1  0  0  0  0
 27 30  1  0  0  0  0
 29 27  1  0  0  0  0
 30 32  1  0  0  0  0
 30 33  1  0  0  0  0
 31 30  1  0  0  0  0
 33 35  1  0  0  0  0
 33 34  1  0  0  0  0
 36 37  1  0  0  0  0
 36 42  1  0  0  0  0
 36 38  1  0  0  0  0
 38 40  1  0  0  0  0
 38 41  1  0  0  0  0
 39 38  1  0  0  0  0
 42 44  1  0  0  0  0
 42 43  1  0  0  0  0
 45 42  1  0  0  0  0
M  END
$$$$
