CSD_code = QEBWIF | q = 0 | S = 0 | Stoichiometry = C30H26Cl2N10Zn | MND = 4
 OpenBabel04212202083D

 69 76  0  0  1  0  0  0  0  0999 V2000
   -0.5843    7.5474    3.6350 Zn  0  0  0  0  0  0  0  0  0  0  0  0
    0.0419    6.0929    2.2267 N   0  0  0  0  0  0  0  0  0  0  0  0
    1.1549    4.4425    1.2578 N   0  0  0  0  0  0  0  0  0  0  0  0
    1.8380    2.1763    1.3762 N   0  0  0  0  0  0  0  0  0  0  0  0
    1.8584    1.1533    0.5006 N   0  0  0  0  0  0  0  0  0  0  0  0
    1.5808    0.0670    1.0770 N   0  0  0  0  0  0  0  0  0  0  0  0
   -0.8299    5.4264    1.3909 C   0  0  0  0  0  0  0  0  0  0  0  0
   -2.1677    5.6581    1.0959 C   0  0  0  0  0  0  0  0  0  0  0  0
   -2.6932    6.4856    1.5437 H   0  0  0  0  0  0  0  0  0  0  0  0
   -2.7672    4.8138    0.1830 C   0  0  0  0  0  0  0  0  0  0  0  0
   -3.8037    4.9679   -0.0753 H   0  0  0  0  0  0  0  0  0  0  0  0
   -2.0686    3.7721   -0.4304 C   0  0  0  0  0  0  0  0  0  0  0  0
   -2.5796    3.1440   -1.1445 H   0  0  0  0  0  0  0  0  0  0  0  0
   -0.7364    3.5309   -0.1520 C   0  0  0  0  0  0  0  0  0  0  0  0
   -0.1939    2.7299   -0.6310 H   0  0  0  0  0  0  0  0  0  0  0  0
   -0.1342    4.3741    0.7680 C   0  0  0  0  0  0  0  0  0  0  0  0
    1.2044    5.4961    2.1225 C   0  0  1  0  0  3  0  0  0  0  0  0
    2.4521    5.9198    2.7931 C   0  0  0  0  0  0  0  0  0  0  0  0
    2.2664    6.8381    3.3489 H   0  0  0  0  0  0  0  0  0  0  0  0
    3.2280    6.1150    2.0535 H   0  0  0  0  0  0  0  0  0  0  0  0
    2.8132    5.1576    3.4832 H   0  0  0  0  0  0  0  0  0  0  0  0
    2.1945    3.5017    0.9545 C   0  0  0  0  0  0  0  0  0  0  0  0
    2.3576    3.4410   -0.1291 H   0  0  0  0  0  0  0  0  0  0  0  0
    3.1191    3.8220    1.4483 H   0  0  0  0  0  0  0  0  0  0  0  0
    1.5010    1.7016    2.6122 C   0  0  0  0  0  0  0  0  0  0  0  0
    1.2901    2.2759    3.8592 C   0  0  0  0  0  0  0  0  0  0  0  0
    1.3715    3.3385    4.0294 H   0  0  0  0  0  0  0  0  0  0  0  0
    0.9616    1.4147    4.8822 C   0  0  0  0  0  0  0  0  0  0  0  0
    0.7944    1.8186    5.8688 H   0  0  0  0  0  0  0  0  0  0  0  0
    0.8448    0.0318    4.6886 C   0  0  0  0  0  0  0  0  0  0  0  0
    0.5919   -0.5872    5.5356 H   0  0  0  0  0  0  0  0  0  0  0  0
    1.0285   -0.5439    3.4544 C   0  0  0  0  0  0  0  0  0  0  0  0
    0.9319   -1.6042    3.2911 H   0  0  0  0  0  0  0  0  0  0  0  0
    1.3495    0.3081    2.3995 C   0  0  0  0  0  0  0  0  0  0  0  0
   -2.3519    8.6349    2.8942 Cl  0  0  0  0  0  0  0  0  0  0  0  0
   -1.2104    6.0931    5.0442 N   0  0  0  0  0  0  0  0  0  0  0  0
   -2.3233    4.4426    6.0130 N   0  0  0  0  0  0  0  0  0  0  0  0
   -3.0063    2.1764    5.8945 N   0  0  0  0  0  0  0  0  0  0  0  0
   -3.0268    1.1533    6.7701 N   0  0  0  0  0  0  0  0  0  0  0  0
   -2.7492    0.0670    6.1937 N   0  0  0  0  0  0  0  0  0  0  0  0
   -0.3385    5.4266    5.8799 C   0  0  0  0  0  0  0  0  0  0  0  0
    0.9993    5.6584    6.1748 C   0  0  0  0  0  0  0  0  0  0  0  0
    1.5247    6.4859    5.7270 H   0  0  0  0  0  0  0  0  0  0  0  0
    1.5989    4.8139    7.0876 C   0  0  0  0  0  0  0  0  0  0  0  0
    2.6354    4.9679    7.3458 H   0  0  0  0  0  0  0  0  0  0  0  0
    0.9004    3.7721    7.7009 C   0  0  0  0  0  0  0  0  0  0  0  0
    1.4114    3.1440    8.4149 H   0  0  0  0  0  0  0  0  0  0  0  0
   -0.4319    3.5309    7.4227 C   0  0  0  0  0  0  0  0  0  0  0  0
   -0.9743    2.7299    7.9017 H   0  0  0  0  0  0  0  0  0  0  0  0
   -1.0341    4.3742    6.5028 C   0  0  0  0  0  0  0  0  0  0  0  0
   -2.3729    5.4962    5.1483 C   0  0  1  0  0  3  0  0  0  0  0  0
   -3.6206    5.9199    4.4778 C   0  0  0  0  0  0  0  0  0  0  0  0
   -3.4350    6.8380    3.9218 H   0  0  0  0  0  0  0  0  0  0  0  0
   -4.3965    6.1151    5.2174 H   0  0  0  0  0  0  0  0  0  0  0  0
   -3.9817    5.1575    3.7878 H   0  0  0  0  0  0  0  0  0  0  0  0
   -3.3628    3.5017    6.3163 C   0  0  0  0  0  0  0  0  0  0  0  0
   -3.5259    3.4410    7.4000 H   0  0  0  0  0  0  0  0  0  0  0  0
   -4.2875    3.8221    5.8227 H   0  0  0  0  0  0  0  0  0  0  0  0
   -2.6695    1.7017    4.6585 C   0  0  0  0  0  0  0  0  0  0  0  0
   -2.4586    2.2761    3.4115 C   0  0  0  0  0  0  0  0  0  0  0  0
   -2.5400    3.3387    3.2414 H   0  0  0  0  0  0  0  0  0  0  0  0
   -2.1302    1.4149    2.3885 C   0  0  0  0  0  0  0  0  0  0  0  0
   -1.9630    1.8188    1.4019 H   0  0  0  0  0  0  0  0  0  0  0  0
   -2.0135    0.0320    2.5820 C   0  0  0  0  0  0  0  0  0  0  0  0
   -1.7606   -0.5869    1.7349 H   0  0  0  0  0  0  0  0  0  0  0  0
   -2.1973   -0.5438    3.8161 C   0  0  0  0  0  0  0  0  0  0  0  0
   -2.1007   -1.6041    3.9793 H   0  0  0  0  0  0  0  0  0  0  0  0
   -2.5181    0.3082    4.8711 C   0  0  0  0  0  0  0  0  0  0  0  0
    1.1824    8.6358    4.3763 Cl  0  0  0  0  0  0  0  0  0  0  0  0
  1 69  1  0  0  0  0
  1 36  1  0  0  0  0
  2  1  1  0  0  0  0
  3 17  1  0  0  0  0
  4 25  1  0  0  0  0
  5  6  2  0  0  0  0
  5  4  1  0  0  0  0
  6 34  1  0  0  0  0
  7  2  1  0  0  0  0
  8  7  1  0  0  0  0
  8  9  1  0  0  0  0
 10  8  2  0  0  0  0
 11 10  1  0  0  0  0
 12 14  2  0  0  0  0
 12 10  1  0  0  0  0
 13 12  1  0  0  0  0
 14 16  1  0  0  0  0
 15 14  1  0  0  0  0
 16  3  1  0  0  0  0
 16  7  2  0  0  0  0
 17  2  1  0  0  0  0
 17 18  1  6  0  0  0
 18 19  1  0  0  0  0
 18 21  1  0  0  0  0
 20 18  1  0  0  0  0
 22  3  1  0  0  0  0
 22  4  1  0  0  0  0
 22 24  1  0  0  0  0
 23 22  1  0  0  0  0
 25 26  1  0  0  0  0
 26 27  1  0  0  0  0
 26 28  2  0  0  0  0
 28 29  1  0  0  0  0
 30 28  1  0  0  0  0
 30 31  1  0  0  0  0
 32 30  2  0  0  0  0
 33 32  1  0  0  0  0
 34 25  2  0  0  0  0
 34 32  1  0  0  0  0
 35  1  1  0  0  0  0
 36 51  1  0  0  0  0
 36 41  1  0  0  0  0
 37 56  1  0  0  0  0
 37 50  1  0  0  0  0
 38 56  1  0  0  0  0
 38 39  1  0  0  0  0
 40 39  2  0  0  0  0
 41 42  2  0  0  0  0
 41 50  1  0  0  0  0
 42 44  1  0  0  0  0
 43 42  1  0  0  0  0
 44 45  1  0  0  0  0
 44 46  2  0  0  0  0
 46 47  1  0  0  0  0
 48 46  1  0  0  0  0
 48 49  1  0  0  0  0
 50 48  2  0  0  0  0
 51 52  1  1  0  0  0
 51 37  1  0  0  0  0
 52 54  1  0  0  0  0
 53 52  1  0  0  0  0
 55 52  1  0  0  0  0
 56 57  1  0  0  0  0
 58 56  1  0  0  0  0
 59 68  1  0  0  0  0
 59 38  1  0  0  0  0
 60 59  2  0  0  0  0
 61 60  1  0  0  0  0
 62 64  2  0  0  0  0
 62 60  1  0  0  0  0
 63 62  1  0  0  0  0
 64 66  1  0  0  0  0
 65 64  1  0  0  0  0
 66 67  1  0  0  0  0
 66 68  2  0  0  0  0
 68 40  1  0  0  0  0
M  END
$$$$
