CSD_code = QEBWEC | q = 0 | S = 0 | Stoichiometry = C20H18Br2FeN2 | MND = 4
 OpenBabel04212202083D

 43 47  0  0  1  0  0  0  0  0999 V2000
    4.4932    8.3935    3.0866 Br  0  0  0  0  0  0  0  0  0  0  0  0
    0.8063    6.3152    4.0686 Br  0  0  0  0  0  0  0  0  0  0  0  0
    4.5522    5.1275    5.4948 C   0  0  0  0  0  0  0  0  0  0  0  0
    3.5577    5.4506    5.7749 H   0  0  0  0  0  0  0  0  0  0  0  0
    5.6300    5.3878    6.3248 C   0  0  0  0  0  0  0  0  0  0  0  0
    5.4825    5.9305    7.2459 H   0  0  0  0  0  0  0  0  0  0  0  0
    6.8954    4.9494    5.9716 C   0  0  0  0  0  0  0  0  0  0  0  0
    7.7344    5.1448    6.6222 H   0  0  0  0  0  0  0  0  0  0  0  0
    7.0934    4.2780    4.7782 C   0  0  0  0  0  0  0  0  0  0  0  0
    8.0858    3.9672    4.4867 H   0  0  0  0  0  0  0  0  0  0  0  0
    6.0233    4.0355    3.9257 C   0  0  0  0  0  0  0  0  0  0  0  0
    6.2048    3.4143    2.6046 C   0  0  0  0  0  0  0  0  0  0  0  0
    6.9682    2.2663    2.4323 C   0  0  0  0  0  0  0  0  0  0  0  0
    7.4473    1.8163    3.2894 H   0  0  0  0  0  0  0  0  0  0  0  0
    7.0972    1.6917    1.1805 C   0  0  0  0  0  0  0  0  0  0  0  0
    7.6878    0.7963    1.0573 H   0  0  0  0  0  0  0  0  0  0  0  0
    6.4691    2.2631    0.0871 C   0  0  0  0  0  0  0  0  0  0  0  0
    6.5683    1.8161   -0.8906 H   0  0  0  0  0  0  0  0  0  0  0  0
    5.7191    3.4169    0.2457 C   0  0  0  0  0  0  0  0  0  0  0  0
    5.2503    3.8758   -0.6140 H   0  0  0  0  0  0  0  0  0  0  0  0
    5.5784    4.0004    1.4950 C   0  0  0  0  0  0  0  0  0  0  0  0
    4.8330    5.2953    1.6821 C   0  0  0  0  0  0  0  0  0  0  0  0
    4.6830    5.7984    0.7246 H   0  0  0  0  0  0  0  0  0  0  0  0
    5.4483    5.9441    2.3093 H   0  0  0  0  0  0  0  0  0  0  0  0
    3.5835    4.1351    3.3967 C   0  0  0  0  0  0  0  0  0  0  0  0
    3.7130    3.1393    2.9495 H   0  0  0  0  0  0  0  0  0  0  0  0
    2.6463    4.1423    3.9569 H   0  0  0  0  0  0  0  0  0  0  0  0
    4.7392    4.4406    4.3060 C   0  0  0  0  0  0  0  0  0  0  0  0
    2.4969    4.7876    1.3287 C   0  0  0  0  0  0  0  0  0  0  0  0
    1.6157    4.4012    1.8531 H   0  0  0  0  0  0  0  0  0  0  0  0
    2.8673    4.0083    0.6522 H   0  0  0  0  0  0  0  0  0  0  0  0
    2.0900    6.0301    0.5847 C   0  0  1  0  0  3  0  0  0  0  0  0
    1.6852    6.0424   -0.7340 C   0  0  0  0  0  0  0  0  0  0  0  0
    1.6834    5.1235   -1.2994 H   0  0  0  0  0  0  0  0  0  0  0  0
    1.2718    7.2369   -1.3109 C   0  0  0  0  0  0  0  0  0  0  0  0
    0.9475    7.2688   -2.3383 H   0  0  0  0  0  0  0  0  0  0  0  0
    1.2831    8.3832   -0.5286 C   0  0  0  0  0  0  0  0  0  0  0  0
    0.9659    9.3331   -0.9267 H   0  0  0  0  0  0  0  0  0  0  0  0
    1.7118    8.2975    0.7793 C   0  0  0  0  0  0  0  0  0  0  0  0
    1.7412    9.1711    1.4192 H   0  0  0  0  0  0  0  0  0  0  0  0
    2.7265    6.9857    3.0742 Fe  0  0  0  0  0  0  0  0  0  0  0  0
    3.5070    5.1540    2.3351 N   0  0  0  0  0  4  0  0  0  0  0  0
    2.1166    7.1514    1.3396 N   0  0  0  0  0  0  0  0  0  0  0  0
  3  4  1  0  0  0  0
  3  5  1  0  0  0  0
  5  6  1  0  0  0  0
  7  5  2  0  0  0  0
  7  8  1  0  0  0  0
  9  7  1  0  0  0  0
 10  9  1  0  0  0  0
 11 28  1  0  0  0  0
 11  9  2  0  0  0  0
 12 11  1  0  0  0  0
 13 12  1  0  0  0  0
 13 14  1  0  0  0  0
 15 13  2  0  0  0  0
 16 15  1  0  0  0  0
 17 19  2  0  0  0  0
 17 15  1  0  0  0  0
 18 17  1  0  0  0  0
 19 21  1  0  0  0  0
 20 19  1  0  0  0  0
 21 22  1  0  0  0  0
 21 12  2  0  0  0  0
 22 24  1  0  0  0  0
 22 42  1  0  0  0  0
 23 22  1  0  0  0  0
 25 27  1  0  0  0  0
 25 28  1  0  0  0  0
 26 25  1  0  0  0  0
 28  3  2  0  0  0  0
 29 30  1  0  0  0  0
 29 42  1  0  0  0  0
 31 29  1  0  0  0  0
 32 33  1  1  0  0  0
 32 29  1  0  0  0  0
 32 43  1  0  0  0  0
 34 33  1  0  0  0  0
 35 33  2  0  0  0  0
 35 37  1  0  0  0  0
 36 35  1  0  0  0  0
 37 39  2  0  0  0  0
 38 37  1  0  0  0  0
 39 43  1  0  0  0  0
 39 40  1  0  0  0  0
 41  1  1  0  0  0  0
 41  2  1  0  0  0  0
 42 41  1  0  0  0  0
 42 25  1  0  0  0  0
 43 41  1  0  0  0  0
M  END
$$$$
