CSD_code = QEBYAZ | q = 0 | S = 0 | Stoichiometry = C16H16Cl2N8Ru | MND = 6
 OpenBabel04212202083D

 43 46  0  0  0  0  0  0  0  0999 V2000
    7.3059    3.6530   11.8415 Ru  0  0  0  0  0  0  0  0  0  0  0  0
    5.6195    1.9670   11.8418 Cl  0  0  0  0  0  0  0  0  0  0  0  0
    6.3157    4.6473   10.4398 N   0  0  0  0  0  0  0  0  0  0  0  0
    6.9403    5.2235    9.4019 C   0  0  0  0  0  3  0  0  0  0  0  0
    8.0192    5.1405    9.3574 H   0  0  0  0  0  0  0  0  0  0  0  0
    4.9222    6.0768    8.4828 N   0  0  0  0  0  0  0  0  0  0  0  0
    6.2387    5.9348    8.4433 C   0  0  0  0  0  0  0  0  0  0  0  0
    6.7503    6.4058    7.6162 H   0  0  0  0  0  0  0  0  0  0  0  0
    4.3042    5.4990    9.5022 C   0  0  0  0  0  0  0  0  0  0  0  0
    3.2295    5.6055    9.5384 H   0  0  0  0  0  0  0  0  0  0  0  0
    4.9828    4.7936   10.4814 C   0  0  0  0  0  0  0  0  0  0  0  0
    4.4510    4.3127   11.2932 H   0  0  0  0  0  0  0  0  0  0  0  0
    8.9923    5.3392   11.8417 Cl  0  0  0  0  0  0  0  0  0  0  0  0
    8.3004    2.6627   13.2430 N   0  0  0  0  0  0  0  0  0  0  0  0
    8.2961    2.6586   10.4398 N   0  0  0  0  0  0  0  0  0  0  0  0
    6.3113    4.6432   13.2430 N   0  0  0  0  0  0  0  0  0  0  0  0
    8.8766    3.2873   14.2810 C   0  0  0  0  0  3  0  0  0  0  0  0
    7.6715    2.0824    9.4019 C   0  0  0  0  0  3  0  0  0  0  0  0
    5.7352    4.0186   14.2810 C   0  0  0  0  0  3  0  0  0  0  0  0
    8.7935    4.3661   14.3255 H   0  0  0  0  0  0  0  0  0  0  0  0
    6.5926    2.1655    9.3574 H   0  0  0  0  0  0  0  0  0  0  0  0
    5.8183    2.9398   14.3255 H   0  0  0  0  0  0  0  0  0  0  0  0
    9.7297    1.2692   15.2001 N   0  0  0  0  0  0  0  0  0  0  0  0
    9.6896    1.2291    8.4828 N   0  0  0  0  0  0  0  0  0  0  0  0
    4.8821    6.0367   15.2001 N   0  0  0  0  0  0  0  0  0  0  0  0
    9.5878    2.5856   15.2397 C   0  0  0  0  0  0  0  0  0  0  0  0
    8.3731    1.3711    8.4433 C   0  0  0  0  0  0  0  0  0  0  0  0
    5.0240    4.7203   15.2396 C   0  0  0  0  0  0  0  0  0  0  0  0
   10.0587    3.0973   16.0667 H   0  0  0  0  0  0  0  0  0  0  0  0
    7.8615    0.9001    7.6162 H   0  0  0  0  0  0  0  0  0  0  0  0
    4.5531    4.2086   16.0667 H   0  0  0  0  0  0  0  0  0  0  0  0
    9.1520    0.6512   14.1808 C   0  0  0  0  0  0  0  0  0  0  0  0
   10.3076    1.8069    9.5021 C   0  0  0  0  0  0  0  0  0  0  0  0
    5.4598    6.6547   14.1808 C   0  0  0  0  0  0  0  0  0  0  0  0
    9.2585   -0.4235   14.1445 H   0  0  0  0  0  0  0  0  0  0  0  0
   11.3823    1.7004    9.5384 H   0  0  0  0  0  0  0  0  0  0  0  0
    5.3533    7.7294   14.1446 H   0  0  0  0  0  0  0  0  0  0  0  0
    8.4467    1.3298   13.2015 C   0  0  0  0  0  0  0  0  0  0  0  0
    9.6290    2.5123   10.4814 C   0  0  0  0  0  0  0  0  0  0  0  0
    6.1651    5.9761   13.2014 C   0  0  0  0  0  0  0  0  0  0  0  0
    7.9658    0.7980   12.3897 H   0  0  0  0  0  0  0  0  0  0  0  0
   10.1608    2.9932   11.2932 H   0  0  0  0  0  0  0  0  0  0  0  0
    6.6460    6.5080   12.3897 H   0  0  0  0  0  0  0  0  0  0  0  0
  1 13  1  0  0  0  0
  1  2  1  0  0  0  0
  1 16  1  0  0  0  0
  1 14  1  0  0  0  0
  3 11  1  0  0  0  0
  3  1  1  0  0  0  0
  4  3  1  0  0  0  0
  5  4  1  0  0  0  0
  6  9  1  0  0  0  0
  7  6  2  0  0  0  0
  7  4  1  0  0  0  0
  8  7  1  0  0  0  0
  9 10  1  0  0  0  0
  9 11  2  0  0  0  0
 11 12  1  0  0  0  0
 14 17  1  0  0  0  0
 15 39  1  0  0  0  0
 15  1  1  0  0  0  0
 16 19  1  0  0  0  0
 17 20  1  0  0  0  0
 17 26  1  0  0  0  0
 18 15  1  0  0  0  0
 19 22  1  0  0  0  0
 19 28  1  0  0  0  0
 21 18  1  0  0  0  0
 23 26  2  0  0  0  0
 24 33  1  0  0  0  0
 25 28  2  0  0  0  0
 26 29  1  0  0  0  0
 27 24  2  0  0  0  0
 27 18  1  0  0  0  0
 28 31  1  0  0  0  0
 30 27  1  0  0  0  0
 32 23  1  0  0  0  0
 33 36  1  0  0  0  0
 33 39  2  0  0  0  0
 34 25  1  0  0  0  0
 35 32  1  0  0  0  0
 37 34  1  0  0  0  0
 38 14  1  0  0  0  0
 38 32  2  0  0  0  0
 39 42  1  0  0  0  0
 40 16  1  0  0  0  0
 40 34  2  0  0  0  0
 41 38  1  0  0  0  0
 43 40  1  0  0  0  0
M  END
$$$$
