CSD_code = QECBAD | q = 0 | S = 0 | Stoichiometry = C15H11Cl3N4OPt | MND = 6
 OpenBabel04212202083D

 35 39  0  0  1  0  0  0  0  0999 V2000
    9.8642    9.3391    8.3059 Pt  0  0  0  0  0  0  0  0  0  0  0  0
   10.2477   11.4806    7.2609 Cl  0  0  0  0  0  0  0  0  0  0  0  0
    8.8907   10.3539   10.2133 Cl  0  0  0  0  0  0  0  0  0  0  0  0
   10.8108    8.1832    6.4650 Cl  0  0  0  0  0  0  0  0  0  0  0  0
   11.6166    9.1405    9.3172 N   0  0  0  0  0  0  0  0  0  0  0  0
   12.7775    7.6780   10.7524 N   0  0  0  0  0  0  0  0  0  0  0  0
    8.0072    8.9422    7.5831 N   0  0  0  0  0  0  0  0  0  0  0  0
    6.3020    7.3170    7.6438 N   0  0  0  0  0  0  0  0  0  0  0  0
    9.0054    3.9962   10.9428 O   0  0  0  0  0  0  0  0  0  0  0  0
   11.7146    7.9808   10.0364 C   0  0  2  0  0  3  0  0  0  0  0  0
   12.6272    9.9948    9.3387 C   0  0  0  0  0  0  0  0  0  0  0  0
   12.5076   10.9018    8.7540 H   0  0  0  0  0  0  0  0  0  0  0  0
   13.7712    9.7247   10.0767 C   0  0  0  0  0  0  0  0  0  0  0  0
   14.5962   10.4162   10.0972 H   0  0  0  0  0  0  0  0  0  0  0  0
   13.7904    8.5268   10.7779 C   0  0  0  0  0  0  0  0  0  0  0  0
   14.6369    8.2276   11.3812 H   0  0  0  0  0  0  0  0  0  0  0  0
    9.5555    7.6077    9.1486 C   0  0  0  0  0  0  0  0  0  0  0  0
   10.5565    7.0953    9.9560 C   0  0  0  0  0  0  0  0  0  0  0  0
   10.3323    5.8600   10.5519 C   0  0  0  0  0  0  0  0  0  0  0  0
   11.0673    5.4009   11.1927 H   0  0  0  0  0  0  0  0  0  0  0  0
    9.1194    5.1904   10.3147 C   0  0  0  0  0  0  0  0  0  0  0  0
    8.1270    5.7334    9.4928 C   0  0  0  0  0  0  0  0  0  0  0  0
    7.1954    5.2260    9.3058 H   0  0  0  0  0  0  0  0  0  0  0  0
    8.3553    6.9759    8.8958 C   0  0  0  0  0  0  0  0  0  0  0  0
    7.4933    7.7472    8.0082 C   0  0  1  0  0  3  0  0  0  0  0  0
    5.5748    8.0692    6.8360 C   0  0  0  0  0  0  0  0  0  0  0  0
    4.6061    7.6686    6.5689 H   0  0  0  0  0  0  0  0  0  0  0  0
    6.0223    9.2938    6.3599 C   0  0  0  0  0  0  0  0  0  0  0  0
    5.4294    9.9059    5.7019 H   0  0  0  0  0  0  0  0  0  0  0  0
    7.2835    9.6992    6.7745 C   0  0  0  0  0  0  0  0  0  0  0  0
    7.7293   10.6385    6.4616 H   0  0  0  0  0  0  0  0  0  0  0  0
    7.8304    3.2373   10.7628 C   0  0  0  0  0  0  0  0  0  0  0  0
    6.9480    3.7716   11.1271 H   0  0  0  0  0  0  0  0  0  0  0  0
    7.9745    2.3347   11.3541 H   0  0  0  0  0  0  0  0  0  0  0  0
    7.6874    2.9637    9.7133 H   0  0  0  0  0  0  0  0  0  0  0  0
  1 17  1  0  0  0  0
  1  5  1  0  0  0  0
  1  3  1  0  0  0  0
  2  1  1  0  0  0  0
  4  1  1  0  0  0  0
  5 11  1  0  0  0  0
  5 10  1  0  0  0  0
  6 15  2  0  0  0  0
  7 25  1  0  0  0  0
  7  1  1  0  0  0  0
 10 18  1  6  0  0  0
 10  6  1  0  0  0  0
 11 13  2  0  0  0  0
 12 11  1  0  0  0  0
 13 14  1  0  0  0  0
 13 15  1  0  0  0  0
 15 16  1  0  0  0  0
 17 18  1  0  0  0  0
 18 19  2  0  0  0  0
 19 20  1  0  0  0  0
 21 19  1  0  0  0  0
 21  9  1  0  0  0  0
 22 21  2  0  0  0  0
 23 22  1  0  0  0  0
 24 17  2  0  0  0  0
 24 22  1  0  0  0  0
 25  8  1  6  0  0  0
 25 24  1  0  0  0  0
 26  8  2  0  0  0  0
 27 26  1  0  0  0  0
 28 30  2  0  0  0  0
 28 26  1  0  0  0  0
 29 28  1  0  0  0  0
 30  7  1  0  0  0  0
 31 30  1  0  0  0  0
 32  9  1  0  0  0  0
 32 33  1  0  0  0  0
 32 34  1  0  0  0  0
 35 32  1  0  0  0  0
M  END
$$$$
