CSD_code = QECFEL | q = 0 | S = 0 | Stoichiometry = C22H18Br2N2Pt | MND = 4
 OpenBabel04212202083D

 45 48  0  0  0  0  0  0  0  0999 V2000
    2.7360    2.5321    2.5216 Pt  0  0  0  0  0  0  0  0  0  0  0  0
    1.6883    0.4940    1.8013 Br  0  0  0  0  0  0  0  0  0  0  0  0
    3.8141    2.8459    0.3978 Br  0  0  0  0  0  0  0  0  0  0  0  0
    3.6172    4.2951    3.1525 N   0  0  0  0  0  0  0  0  0  0  0  0
    1.8274    2.2685    4.3625 N   0  0  0  0  0  0  0  0  0  0  0  0
    3.3721    5.4233    2.4900 C   0  0  0  0  0  3  0  0  0  0  0  0
    2.8150    5.3336    1.5672 H   0  0  0  0  0  0  0  0  0  0  0  0
    3.8021    6.6573    2.9368 C   0  0  0  0  0  0  0  0  0  0  0  0
    3.5790    7.5418    2.3635 H   0  0  0  0  0  0  0  0  0  0  0  0
    4.5167    6.7269    4.1233 C   0  0  0  0  0  0  0  0  0  0  0  0
    4.8609    7.6743    4.5087 H   0  0  0  0  0  0  0  0  0  0  0  0
    4.8010    5.5500    4.7923 C   0  0  0  0  0  0  0  0  0  0  0  0
    5.3897    5.5491    5.6963 H   0  0  0  0  0  0  0  0  0  0  0  0
    4.3510    4.3408    4.2725 C   0  0  0  0  0  0  0  0  0  0  0  0
    4.7001    3.0616    4.9094 C   0  0  0  0  0  0  0  0  0  0  0  0
    4.5585    2.8830    6.2821 C   0  0  0  0  0  0  0  0  0  0  0  0
    4.1726    3.6897    6.8896 H   0  0  0  0  0  0  0  0  0  0  0  0
    4.8777    1.6679    6.8610 C   0  0  0  0  0  0  0  0  0  0  0  0
    4.7563    1.5344    7.9258 H   0  0  0  0  0  0  0  0  0  0  0  0
    5.3508    0.6272    6.0786 C   0  0  0  0  0  0  0  0  0  0  0  0
    5.5992   -0.3195    6.5341 H   0  0  0  0  0  0  0  0  0  0  0  0
    5.5172    0.8049    4.7144 C   0  0  0  0  0  0  0  0  0  0  0  0
    5.9019    0.0015    4.1052 H   0  0  0  0  0  0  0  0  0  0  0  0
    5.1907    2.0141    4.1246 C   0  0  0  0  0  0  0  0  0  0  0  0
    5.3876    2.1686    3.0704 H   0  0  0  0  0  0  0  0  0  0  0  0
    2.0717    1.1614    5.0601 C   0  0  0  0  0  3  0  0  0  0  0  0
    2.6450    0.3905    4.5633 H   0  0  0  0  0  0  0  0  0  0  0  0
    1.6214    0.9819    6.3533 C   0  0  0  0  0  0  0  0  0  0  0  0
    1.8449    0.0667    6.8759 H   0  0  0  0  0  0  0  0  0  0  0  0
    0.8858    1.9940    6.9517 C   0  0  0  0  0  0  0  0  0  0  0  0
    0.5250    1.8935    7.9639 H   0  0  0  0  0  0  0  0  0  0  0  0
    0.6032    3.1291    6.2134 C   0  0  0  0  0  0  0  0  0  0  0  0
   -0.0006    3.9250    6.6208 H   0  0  0  0  0  0  0  0  0  0  0  0
    1.0752    3.2329    4.9091 C   0  0  0  0  0  0  0  0  0  0  0  0
    0.7312    4.3882    4.0659 C   0  0  0  0  0  0  0  0  0  0  0  0
    0.8557    5.6875    4.5483 C   0  0  0  0  0  0  0  0  0  0  0  0
    1.2237    5.8526    5.5513 H   0  0  0  0  0  0  0  0  0  0  0  0
    0.5431    6.7628    3.7364 C   0  0  0  0  0  0  0  0  0  0  0  0
    0.6516    7.7683    4.1152 H   0  0  0  0  0  0  0  0  0  0  0  0
    0.0931    6.5508    2.4435 C   0  0  0  0  0  0  0  0  0  0  0  0
   -0.1501    7.3925    1.8129 H   0  0  0  0  0  0  0  0  0  0  0  0
   -0.0565    5.2593    1.9639 C   0  0  0  0  0  0  0  0  0  0  0  0
   -0.4231    5.0910    0.9629 H   0  0  0  0  0  0  0  0  0  0  0  0
    0.2641    4.1770    2.7656 C   0  0  0  0  0  0  0  0  0  0  0  0
    0.0809    3.1705    2.4086 H   0  0  0  0  0  0  0  0  0  0  0  0
  1  4  1  0  0  0  0
  1  5  1  0  0  0  0
  2  1  1  0  0  0  0
  3  1  1  0  0  0  0
  4 14  1  0  0  0  0
  5 34  1  0  0  0  0
  5 26  1  0  0  0  0
  6  8  1  0  0  0  0
  6  4  1  0  0  0  0
  7  6  1  0  0  0  0
  8 10  2  0  0  0  0
  9  8  1  0  0  0  0
 10 11  1  0  0  0  0
 10 12  1  0  0  0  0
 12 13  1  0  0  0  0
 14 12  2  0  0  0  0
 14 15  1  0  0  0  0
 15 16  1  0  0  0  0
 16 18  2  0  0  0  0
 16 17  1  0  0  0  0
 18 19  1  0  0  0  0
 20 21  1  0  0  0  0
 20 18  1  0  0  0  0
 22 20  2  0  0  0  0
 23 22  1  0  0  0  0
 24 22  1  0  0  0  0
 24 15  2  0  0  0  0
 25 24  1  0  0  0  0
 26 28  1  0  0  0  0
 27 26  1  0  0  0  0
 28 29  1  0  0  0  0
 28 30  2  0  0  0  0
 30 31  1  0  0  0  0
 32 33  1  0  0  0  0
 32 30  1  0  0  0  0
 34 32  2  0  0  0  0
 35 36  1  0  0  0  0
 35 34  1  0  0  0  0
 36 37  1  0  0  0  0
 38 39  1  0  0  0  0
 38 36  2  0  0  0  0
 40 38  1  0  0  0  0
 41 40  1  0  0  0  0
 42 40  2  0  0  0  0
 42 44  1  0  0  0  0
 43 42  1  0  0  0  0
 44 35  2  0  0  0  0
 45 44  1  0  0  0  0
M  END
$$$$
