CSD_code = QEDGIP | q = 0 | S = 0 | Stoichiometry = C16H18Br2N4Pd | MND = 4
 OpenBabel04212202083D

 41 44  0  0  1  0  0  0  0  0999 V2000
    2.4277   11.1637    3.9643 Pd  0  0  0  0  0  0  0  0  0  0  0  0
    1.6600    9.2008    2.7720 Br  0  0  0  0  0  0  0  0  0  0  0  0
    2.1057   12.6920    2.1131 Br  0  0  0  0  0  0  0  0  0  0  0  0
    0.4761    9.7939    6.3651 C   0  0  0  0  0  0  0  0  0  0  0  0
    5.0872    9.3944    4.8544 C   0  0  0  0  0  0  0  0  0  0  0  0
    1.8592    9.4019    6.3265 N   0  0  0  0  0  0  0  0  0  0  0  0
    2.7559    9.9018    5.4632 C   0  0  0  0  0  0  0  0  0  0  0  0
    3.8966    9.2191    5.6602 N   0  0  0  0  0  0  0  0  0  0  0  0
    3.7179    8.2932    6.6562 C   0  0  0  0  0  0  0  0  0  0  0  0
    2.4362    8.4078    7.0743 C   0  0  0  0  0  0  0  0  0  0  0  0
    5.4749   12.4357    4.2845 C   0  0  0  0  0  0  0  0  0  0  0  0
    6.2781   11.6393    5.2905 C   0  0  0  0  0  0  0  0  0  0  0  0
    6.1043   10.2769    5.5460 C   0  0  0  0  0  0  0  0  0  0  0  0
    6.9063    9.6677    6.5088 C   0  0  0  0  0  0  0  0  0  0  0  0
    7.8524   10.3752    7.2230 C   0  0  0  0  0  0  0  0  0  0  0  0
    8.0248   11.7245    6.9697 C   0  0  0  0  0  0  0  0  0  0  0  0
    7.2472   12.3376    6.0078 C   0  0  0  0  0  0  0  0  0  0  0  0
    0.9755   13.7316    5.6195 C   0  0  0  0  0  0  0  0  0  0  0  0
    4.3990   13.1688    4.9193 N   0  0  0  0  0  0  0  0  0  0  0  0
    3.1190   12.7594    4.9246 C   0  0  1  0  0  3  0  0  0  0  0  0
    2.4095   13.7357    5.5098 N   0  0  0  0  0  0  0  0  0  0  0  0
    3.2431   14.7593    5.8808 C   0  0  0  0  0  0  0  0  0  0  0  0
    4.4946   14.4027    5.5105 C   0  0  0  0  0  0  0  0  0  0  0  0
   -0.1613    8.9098    6.3758 H   0  0  0  0  0  0  0  0  0  0  0  0
    0.2579   10.3722    5.4541 H   0  0  0  0  0  0  0  0  0  0  0  0
    0.2644   10.4031    7.2473 H   0  0  0  0  0  0  0  0  0  0  0  0
    4.7623    9.7988    3.8816 H   0  0  0  0  0  0  0  0  0  0  0  0
    5.5274    8.4084    4.6784 H   0  0  0  0  0  0  0  0  0  0  0  0
    4.4917    7.6259    6.9733 H   0  0  0  0  0  0  0  0  0  0  0  0
    1.8954    7.8638    7.8207 H   0  0  0  0  0  0  0  0  0  0  0  0
    5.0189   11.8031    3.5051 H   0  0  0  0  0  0  0  0  0  0  0  0
    6.1323   13.1569    3.7898 H   0  0  0  0  0  0  0  0  0  0  0  0
    6.7890    8.6100    6.6945 H   0  0  0  0  0  0  0  0  0  0  0  0
    8.4574    9.8752    7.9637 H   0  0  0  0  0  0  0  0  0  0  0  0
    8.7667   12.2928    7.5095 H   0  0  0  0  0  0  0  0  0  0  0  0
    7.3993   13.3864    5.7981 H   0  0  0  0  0  0  0  0  0  0  0  0
    0.5829   12.9439    4.9584 H   0  0  0  0  0  0  0  0  0  0  0  0
    0.6601   13.5396    6.6480 H   0  0  0  0  0  0  0  0  0  0  0  0
    0.5745   14.6907    5.2925 H   0  0  0  0  0  0  0  0  0  0  0  0
    2.8840   15.6473    6.3584 H   0  0  0  0  0  0  0  0  0  0  0  0
    5.4207   14.9299    5.6056 H   0  0  0  0  0  0  0  0  0  0  0  0
  1 20  1  0  0  0  0
  1  7  2  0  0  0  0
  2  1  1  0  0  0  0
  3  1  1  0  0  0  0
  4 24  1  0  0  0  0
  4 26  1  0  0  0  0
  5 13  1  0  0  0  0
  5  8  1  0  0  0  0
  6  4  1  0  0  0  0
  6 10  1  0  0  0  0
  7  8  1  0  0  0  0
  7  6  1  0  0  0  0
  8  9  1  0  0  0  0
  9 29  1  0  0  0  0
  9 10  2  0  0  0  0
 10 30  1  0  0  0  0
 11 19  1  0  0  0  0
 11 12  1  0  0  0  0
 12 13  2  0  0  0  0
 12 17  1  0  0  0  0
 13 14  1  0  0  0  0
 14 33  1  0  0  0  0
 14 15  2  0  0  0  0
 15 34  1  0  0  0  0
 16 15  1  0  0  0  0
 16 35  1  0  0  0  0
 17 16  2  0  0  0  0
 18 38  1  0  0  0  0
 19 23  1  0  0  0  0
 20 19  1  6  0  0  0
 20 21  1  0  0  0  0
 21 18  1  0  0  0  0
 21 22  1  0  0  0  0
 22 40  1  0  0  0  0
 23 41  1  0  0  0  0
 23 22  2  0  0  0  0
 25  4  1  0  0  0  0
 27  5  1  0  0  0  0
 28  5  1  0  0  0  0
 31 11  1  0  0  0  0
 32 11  1  0  0  0  0
 36 17  1  0  0  0  0
 37 18  1  0  0  0  0
 39 18  1  0  0  0  0
M  END
$$$$
