CSD_code = QEFCUC | q = 0 | S = 0 | Stoichiometry = C16H32Cl2N2OP3Re | MND = 6
 OpenBabel04212202083D

 57 57  0  0  0  0  0  0  0  0999 V2000
   12.1066   13.5096   10.0388 C   0  0  0  0  0  0  0  0  0  0  0  0
   12.2395   14.5883    9.9510 H   0  0  0  0  0  0  0  0  0  0  0  0
   13.0710   13.0059    9.9986 H   0  0  0  0  0  0  0  0  0  0  0  0
   11.6218   13.2667   10.9839 H   0  0  0  0  0  0  0  0  0  0  0  0
    9.6663   14.0973    8.7829 C   0  0  0  0  0  0  0  0  0  0  0  0
    9.2009   14.0117    9.7628 H   0  0  0  0  0  0  0  0  0  0  0  0
    8.9279   13.8865    8.0126 H   0  0  0  0  0  0  0  0  0  0  0  0
   10.0414   15.1123    8.6555 H   0  0  0  0  0  0  0  0  0  0  0  0
   11.9342   13.5273    7.1838 C   0  0  0  0  0  0  0  0  0  0  0  0
   12.1450   14.5915    7.2834 H   0  0  0  0  0  0  0  0  0  0  0  0
   11.3109   13.3487    6.3086 H   0  0  0  0  0  0  0  0  0  0  0  0
   12.8631   12.9705    7.0731 H   0  0  0  0  0  0  0  0  0  0  0  0
    7.6105   11.2312   10.0549 C   0  0  0  0  0  0  0  0  0  0  0  0
    6.5441   11.0095   10.0664 H   0  0  0  0  0  0  0  0  0  0  0  0
    7.7634   12.3000    9.9330 H   0  0  0  0  0  0  0  0  0  0  0  0
    8.0679   10.9150   10.9901 H   0  0  0  0  0  0  0  0  0  0  0  0
    7.6254    8.6926    8.8367 C   0  0  0  0  0  0  0  0  0  0  0  0
    6.5419    8.8086    8.8378 H   0  0  0  0  0  0  0  0  0  0  0  0
    7.9465    8.2266    9.7655 H   0  0  0  0  0  0  0  0  0  0  0  0
    7.9369    8.0897    7.9877 H   0  0  0  0  0  0  0  0  0  0  0  0
    7.5403   10.9930    7.2151 C   0  0  0  0  0  0  0  0  0  0  0  0
    7.6851   10.2981    6.3920 H   0  0  0  0  0  0  0  0  0  0  0  0
    7.9581   11.9579    6.9366 H   0  0  0  0  0  0  0  0  0  0  0  0
    6.4767   11.0929    7.4260 H   0  0  0  0  0  0  0  0  0  0  0  0
   12.6325    7.6989    7.3646 C   0  0  0  0  0  0  0  0  0  0  0  0
   13.4062    8.4561    7.2551 H   0  0  0  0  0  0  0  0  0  0  0  0
   12.0494    7.6456    6.4472 H   0  0  0  0  0  0  0  0  0  0  0  0
   13.0852    6.7290    7.5689 H   0  0  0  0  0  0  0  0  0  0  0  0
   10.3937    6.7151    8.7468 C   0  0  0  0  0  0  0  0  0  0  0  0
   10.9882    5.8022    8.7638 H   0  0  0  0  0  0  0  0  0  0  0  0
    9.7911    6.7452    7.8429 H   0  0  0  0  0  0  0  0  0  0  0  0
    9.7508    6.7440    9.6225 H   0  0  0  0  0  0  0  0  0  0  0  0
   12.5385    7.8316   10.2162 C   0  0  0  0  0  0  0  0  0  0  0  0
   12.9283    6.8146   10.1754 H   0  0  0  0  0  0  0  0  0  0  0  0
   11.9271    7.9618   11.1081 H   0  0  0  0  0  0  0  0  0  0  0  0
   13.3591    8.5463   10.2454 H   0  0  0  0  0  0  0  0  0  0  0  0
    9.8332    9.0406    5.2013 C   0  0  0  0  0  0  0  0  0  0  0  0
    9.7703    8.9308    3.7338 C   0  0  0  0  0  0  0  0  0  0  0  0
    8.9919    7.9234    3.1663 C   0  0  0  0  0  0  0  0  0  0  0  0
    8.4602    7.2496    3.8219 H   0  0  0  0  0  0  0  0  0  0  0  0
    8.9093    7.7991    1.7931 C   0  0  0  0  0  0  0  0  0  0  0  0
    8.3045    7.0175    1.3569 H   0  0  0  0  0  0  0  0  0  0  0  0
    9.6032    8.6771    0.9756 C   0  0  0  0  0  0  0  0  0  0  0  0
    9.5392    8.5796   -0.0983 H   0  0  0  0  0  0  0  0  0  0  0  0
   10.3811    9.6800    1.5346 C   0  0  0  0  0  0  0  0  0  0  0  0
   10.9225   10.3609    0.8940 H   0  0  0  0  0  0  0  0  0  0  0  0
   10.4668    9.8097    2.9071 C   0  0  0  0  0  0  0  0  0  0  0  0
   11.0708   10.5833    3.3560 H   0  0  0  0  0  0  0  0  0  0  0  0
   10.7573   10.3523    6.8241 N   0  0  0  0  0  2  0  0  0  0  0  0
   10.5826   10.1012    5.6492 N   0  0  0  0  0  2  0  0  0  0  0  0
    9.2787    8.2683    5.9803 O   0  0  0  0  0  0  0  0  0  0  0  0
   11.0667   12.9137    8.6680 P   0  0  0  0  0  4  0  0  0  0  0  0
    8.4110   10.3296    8.6821 P   0  0  0  0  0  4  0  0  0  0  0  0
   11.5206    8.1539    8.7390 P   0  0  0  0  0  4  0  0  0  0  0  0
   13.2200   10.7415    8.6261 Cl  0  0  0  0  0  0  0  0  0  0  0  0
   10.7559   10.5489   10.8776 Cl  0  0  0  0  0  0  0  0  0  0  0  0
   10.8329   10.4941    8.5830 Re  0  0  0  0  0  0  0  0  0  0  0  0
  1  4  1  0  0  0  0
  2  1  1  0  0  0  0
  3  1  1  0  0  0  0
  5  6  1  0  0  0  0
  7  5  1  0  0  0  0
  8  5  1  0  0  0  0
  9 10  1  0  0  0  0
  9 52  1  0  0  0  0
 11  9  1  0  0  0  0
 12  9  1  0  0  0  0
 13 14  1  0  0  0  0
 13 16  1  0  0  0  0
 15 13  1  0  0  0  0
 17 18  1  0  0  0  0
 17 19  1  0  0  0  0
 20 17  1  0  0  0  0
 21 24  1  0  0  0  0
 21 53  1  0  0  0  0
 22 21  1  0  0  0  0
 23 21  1  0  0  0  0
 25 28  1  0  0  0  0
 25 54  1  0  0  0  0
 26 25  1  0  0  0  0
 27 25  1  0  0  0  0
 29 30  1  0  0  0  0
 29 32  1  0  0  0  0
 31 29  1  0  0  0  0
 33 36  1  0  0  0  0
 33 35  1  0  0  0  0
 34 33  1  0  0  0  0
 37 50  1  0  0  0  0
 37 51  2  0  0  0  0
 38 37  1  0  0  0  0
 39 38  1  0  0  0  0
 39 40  1  0  0  0  0
 41 39  2  0  0  0  0
 42 41  1  0  0  0  0
 43 45  2  0  0  0  0
 43 41  1  0  0  0  0
 44 43  1  0  0  0  0
 45 47  1  0  0  0  0
 46 45  1  0  0  0  0
 47 48  1  0  0  0  0
 47 38  2  0  0  0  0
 49 57  1  0  0  0  0
 50 49  1  0  0  0  0
 52  5  1  0  0  0  0
 52  1  1  0  0  0  0
 53 17  1  0  0  0  0
 53 13  1  0  0  0  0
 54 29  1  0  0  0  0
 54 33  1  0  0  0  0
 57 55  1  0  0  0  0
 57 52  1  0  0  0  0
 57 53  1  0  0  0  0
 57 54  1  0  0  0  0
 57 56  1  0  0  0  0
M  END
$$$$
