CSD_code = QEFROK | q = 0 | S = 0 | Stoichiometry = C17H23ClN4O3Ru | MND = 6
 OpenBabel04212202083D

 49 53  0  0  1  0  0  0  0  0999 V2000
    1.9231    5.0828    3.5031 Ru  0  0  0  0  0  0  0  0  0  0  0  0
    0.8490    3.3732    2.2348 Cl  0  0  0  0  0  0  0  0  0  0  0  0
    2.7670    6.5910    4.7056 O   0  0  0  0  0  0  0  0  0  0  0  0
    2.3382    7.7294    6.5621 O   0  0  0  0  0  0  0  0  0  0  0  0
    0.1176    7.3601    7.7800 O   0  0  0  0  0  0  0  0  0  0  0  0
    3.4545    4.9579    2.4155 N   0  0  0  0  0  0  0  0  0  0  0  0
    1.4489    6.6422    2.0830 N   0  0  0  0  0  4  0  0  0  0  0  0
    2.9447    3.5039    4.5578 N   0  0  0  0  0  4  0  0  0  0  0  0
    0.4196    5.3265    4.7943 N   0  0  0  0  0  0  0  0  0  0  0  0
    4.2682    3.9025    2.5330 C   0  0  2  0  0  3  0  0  0  0  0  0
    5.4378    3.8207    1.8010 C   0  0  0  0  0  0  0  0  0  0  0  0
    5.7533    4.8539    0.9247 C   0  0  0  0  0  0  0  0  0  0  0  0
    4.9061    5.9534    0.8325 C   0  0  0  0  0  0  0  0  0  0  0  0
    3.7634    5.9799    1.6096 C   0  0  0  0  0  0  0  0  0  0  0  0
    2.8000    7.1309    1.7375 C   0  0  0  0  0  0  0  0  0  0  0  0
    0.6481    7.7393    2.6203 C   0  0  0  0  0  0  0  0  0  0  0  0
    0.8051    6.1437    0.8668 C   0  0  0  0  0  0  0  0  0  0  0  0
    3.7323    2.8627    3.4807 C   0  0  0  0  0  0  0  0  0  0  0  0
    3.8646    4.0426    5.5585 C   0  0  0  0  0  0  0  0  0  0  0  0
    2.0759    2.5103    5.1861 C   0  0  0  0  0  0  0  0  0  0  0  0
    0.7042    6.1991    5.7800 C   0  0  2  0  0  3  0  0  0  0  0  0
   -0.1913    6.4905    6.8216 C   0  0  0  0  0  0  0  0  0  0  0  0
   -1.4280    5.8344    6.8255 C   0  0  0  0  0  0  0  0  0  0  0  0
   -1.7048    4.9474    5.8036 C   0  0  0  0  0  0  0  0  0  0  0  0
   -0.7668    4.7183    4.8090 C   0  0  0  0  0  0  0  0  0  0  0  0
    2.0393    6.8946    5.6918 C   0  0  0  0  0  0  0  0  0  0  0  0
    6.0874    2.9659    1.9052 H   0  0  0  0  0  0  0  0  0  0  0  0
    6.6518    4.8083    0.3308 H   0  0  0  0  0  0  0  0  0  0  0  0
    5.1388    6.7773    0.1764 H   0  0  0  0  0  0  0  0  0  0  0  0
    3.1525    7.7485    2.5729 H   0  0  0  0  0  0  0  0  0  0  0  0
    2.7745    7.7455    0.8270 H   0  0  0  0  0  0  0  0  0  0  0  0
   -0.3499    7.3718    2.8632 H   0  0  0  0  0  0  0  0  0  0  0  0
    0.5551    8.5542    1.8906 H   0  0  0  0  0  0  0  0  0  0  0  0
    1.1092    8.1338    3.5259 H   0  0  0  0  0  0  0  0  0  0  0  0
    1.4172    5.3628    0.4145 H   0  0  0  0  0  0  0  0  0  0  0  0
    0.6660    6.9564    0.1419 H   0  0  0  0  0  0  0  0  0  0  0  0
   -0.1648    5.7132    1.1132 H   0  0  0  0  0  0  0  0  0  0  0  0
    3.0483    2.2216    2.9107 H   0  0  0  0  0  0  0  0  0  0  0  0
    4.5366    2.2430    3.8997 H   0  0  0  0  0  0  0  0  0  0  0  0
    4.5152    4.7905    5.1039 H   0  0  0  0  0  0  0  0  0  0  0  0
    4.4814    3.2431    5.9896 H   0  0  0  0  0  0  0  0  0  0  0  0
    3.3042    4.5200    6.3625 H   0  0  0  0  0  0  0  0  0  0  0  0
    2.6582    1.6672    5.5772 H   0  0  0  0  0  0  0  0  0  0  0  0
    1.3574    2.1455    4.4516 H   0  0  0  0  0  0  0  0  0  0  0  0
    1.5313    2.9728    6.0098 H   0  0  0  0  0  0  0  0  0  0  0  0
   -2.1306    6.0377    7.6173 H   0  0  0  0  0  0  0  0  0  0  0  0
   -2.6491    4.4268    5.7718 H   0  0  0  0  0  0  0  0  0  0  0  0
   -0.9572    4.0239    4.0007 H   0  0  0  0  0  0  0  0  0  0  0  0
    1.0322    7.7150    7.5611 H   0  0  0  0  0  0  0  0  0  0  0  0
  1  8  1  0  0  0  0
  1  3  1  0  0  0  0
  1  9  1  0  0  0  0
  2  1  1  0  0  0  0
  3 26  1  0  0  0  0
  6 10  1  0  0  0  0
  6  1  1  0  0  0  0
  7 16  1  0  0  0  0
  7  1  1  0  0  0  0
  8 20  1  0  0  0  0
  8 19  1  0  0  0  0
  9 25  1  0  0  0  0
  9 21  1  0  0  0  0
 10 11  1  6  0  0  0
 10 18  1  0  0  0  0
 11 27  1  0  0  0  0
 12 11  2  0  0  0  0
 13 12  1  0  0  0  0
 13 14  2  0  0  0  0
 14 15  1  0  0  0  0
 14  6  1  0  0  0  0
 15  7  1  0  0  0  0
 15 30  1  0  0  0  0
 16 32  1  0  0  0  0
 16 34  1  0  0  0  0
 17 37  1  0  0  0  0
 17  7  1  0  0  0  0
 18 39  1  0  0  0  0
 18  8  1  0  0  0  0
 19 41  1  0  0  0  0
 19 42  1  0  0  0  0
 20 43  1  0  0  0  0
 20 45  1  0  0  0  0
 21 26  1  6  0  0  0
 21 22  1  0  0  0  0
 22 23  2  0  0  0  0
 22  5  1  0  0  0  0
 23 46  1  0  0  0  0
 24 23  1  0  0  0  0
 25 24  2  0  0  0  0
 26  4  2  0  0  0  0
 28 12  1  0  0  0  0
 29 13  1  0  0  0  0
 31 15  1  0  0  0  0
 33 16  1  0  0  0  0
 35 17  1  0  0  0  0
 36 17  1  0  0  0  0
 38 18  1  0  0  0  0
 40 19  1  0  0  0  0
 44 20  1  0  0  0  0
 47 24  1  0  0  0  0
 48 25  1  0  0  0  0
 49  5  1  0  0  0  0
M  END
$$$$
