CSD_code = QEFSEB | q = 0 | S = 0 | Stoichiometry = C28H25BrCuN4P | MND = 4
 OpenBabel04212202083D

 60 65  0  0  1  0  0  0  0  0999 V2000
    1.1814   -0.7681   10.6433 Cu  0  0  2  0  0  0  0  0  0  0  0  0
    0.0666   -2.5597   11.4896 Br  0  0  0  0  0  0  0  0  0  0  0  0
    1.8397    0.5713   12.3302 P   0  0  0  0  0  4  0  0  0  0  0  0
    0.3224    0.4902    9.3306 N   0  0  0  0  0  0  0  0  0  0  0  0
    0.4840    1.0071    7.1882 N   0  0  0  0  0  0  0  0  0  0  0  0
    0.7790    0.9735    6.2281 H   0  0  0  0  0  0  0  0  0  0  0  0
    1.7572   -0.8390    7.9912 N   0  0  0  0  0  2  0  0  0  0  0  0
    2.1956   -1.3461    9.1194 N   0  0  0  0  0  0  0  0  0  0  0  0
   -0.4872    1.5456    9.0787 C   0  0  0  0  0  0  0  0  0  0  0  0
   -1.0891    1.9801    9.8520 H   0  0  0  0  0  0  0  0  0  0  0  0
   -0.4010    1.8811    7.7583 C   0  0  0  0  0  0  0  0  0  0  0  0
   -0.9050    2.6358    7.1910 H   0  0  0  0  0  0  0  0  0  0  0  0
    0.9172    0.1800    8.1746 C   0  0  2  0  0  3  0  0  0  0  0  0
    2.9547   -2.4924    9.0249 C   0  0  0  0  0  0  0  0  0  0  0  0
    3.2562   -3.1084    7.8044 C   0  0  0  0  0  0  0  0  0  0  0  0
    2.8553   -2.6816    6.8981 H   0  0  0  0  0  0  0  0  0  0  0  0
    4.0476   -4.2349    7.7776 C   0  0  0  0  0  0  0  0  0  0  0  0
    4.2718   -4.7044    6.8301 H   0  0  0  0  0  0  0  0  0  0  0  0
    4.5554   -4.7852    8.9512 C   0  0  0  0  0  0  0  0  0  0  0  0
    4.2547   -4.1669   10.1640 C   0  0  0  0  0  0  0  0  0  0  0  0
    4.6380   -4.5854   11.0830 H   0  0  0  0  0  0  0  0  0  0  0  0
    3.4734   -3.0361   10.2076 C   0  0  0  0  0  0  0  0  0  0  0  0
    3.2348   -2.5690   11.1547 H   0  0  0  0  0  0  0  0  0  0  0  0
    5.3888   -6.0269    8.9252 C   0  0  0  0  0  0  0  0  0  0  0  0
    6.2502   -5.9269    9.5832 H   0  0  0  0  0  0  0  0  0  0  0  0
    5.7346   -6.2469    7.9183 H   0  0  0  0  0  0  0  0  0  0  0  0
    4.7993   -6.8734    9.2782 H   0  0  0  0  0  0  0  0  0  0  0  0
    3.5012    1.2776   12.0807 C   0  0  0  0  0  0  0  0  0  0  0  0
    4.3212    0.7240   11.1041 C   0  0  0  0  0  0  0  0  0  0  0  0
    3.9528   -0.0996   10.5043 H   0  0  0  0  0  0  0  0  0  0  0  0
    5.5938    1.2271   10.8970 C   0  0  0  0  0  0  0  0  0  0  0  0
    6.2275    0.7919   10.1382 H   0  0  0  0  0  0  0  0  0  0  0  0
    6.0492    2.2881   11.6613 C   0  0  0  0  0  0  0  0  0  0  0  0
    7.0414    2.6830   11.5001 H   0  0  0  0  0  0  0  0  0  0  0  0
    5.2323    2.8469   12.6329 C   0  0  0  0  0  0  0  0  0  0  0  0
    5.5892    3.6750   13.2277 H   0  0  0  0  0  0  0  0  0  0  0  0
    3.9618    2.3466   12.8456 C   0  0  0  0  0  0  0  0  0  0  0  0
    3.3223    2.7785   13.6034 H   0  0  0  0  0  0  0  0  0  0  0  0
    0.8825    2.0828   12.6660 C   0  0  0  0  0  0  0  0  0  0  0  0
    0.0835    2.2685   13.7876 C   0  0  0  0  0  0  0  0  0  0  0  0
    0.0491    1.5139   14.5602 H   0  0  0  0  0  0  0  0  0  0  0  0
   -0.6599    3.4289   13.9173 C   0  0  0  0  0  0  0  0  0  0  0  0
   -1.2754    3.5726   14.7932 H   0  0  0  0  0  0  0  0  0  0  0  0
   -0.6195    4.4017   12.9326 C   0  0  0  0  0  0  0  0  0  0  0  0
   -1.2048    5.3031   13.0382 H   0  0  0  0  0  0  0  0  0  0  0  0
    0.1714    4.2168   11.8088 C   0  0  0  0  0  0  0  0  0  0  0  0
    0.2033    4.9727   11.0373 H   0  0  0  0  0  0  0  0  0  0  0  0
    0.9153    3.0616   11.6730 C   0  0  0  0  0  0  0  0  0  0  0  0
    1.5337    2.9080   10.7969 H   0  0  0  0  0  0  0  0  0  0  0  0
    1.9619   -0.2639   13.9368 C   0  0  0  0  0  0  0  0  0  0  0  0
    0.8053   -0.8815   14.4133 C   0  0  0  0  0  0  0  0  0  0  0  0
   -0.1092   -0.8306   13.8387 H   0  0  0  0  0  0  0  0  0  0  0  0
    0.8380   -1.5863   15.6013 C   0  0  0  0  0  0  0  0  0  0  0  0
   -0.0583   -2.0676   15.9608 H   0  0  0  0  0  0  0  0  0  0  0  0
    2.0223   -1.6898   16.3129 C   0  0  0  0  0  0  0  0  0  0  0  0
    2.0497   -2.2450   17.2387 H   0  0  0  0  0  0  0  0  0  0  0  0
    3.1771   -1.0963   15.8298 C   0  0  0  0  0  0  0  0  0  0  0  0
    4.1039   -1.1891   16.3774 H   0  0  0  0  0  0  0  0  0  0  0  0
    3.1550   -0.3899   14.6407 C   0  0  0  0  0  0  0  0  0  0  0  0
    4.0626    0.0591   14.2613 H   0  0  0  0  0  0  0  0  0  0  0  0
  1  2  1  1  0  0  0
  1  3  1  0  0  0  0
  3 39  1  0  0  0  0
  3 50  1  0  0  0  0
  4  1  1  0  0  0  0
  5 11  1  0  0  0  0
  5 13  1  0  0  0  0
  6  5  1  0  0  0  0
  7  8  1  0  0  0  0
  8  1  1  0  0  0  0
  9  4  1  0  0  0  0
  9 10  1  0  0  0  0
 11  9  2  0  0  0  0
 12 11  1  0  0  0  0
 13  7  1  6  0  0  0
 13  4  1  0  0  0  0
 14  8  1  0  0  0  0
 14 22  1  0  0  0  0
 15 14  2  0  0  0  0
 16 15  1  0  0  0  0
 17 15  1  0  0  0  0
 17 19  2  0  0  0  0
 18 17  1  0  0  0  0
 19 20  1  0  0  0  0
 20 22  2  0  0  0  0
 20 21  1  0  0  0  0
 22 23  1  0  0  0  0
 24 19  1  0  0  0  0
 24 27  1  0  0  0  0
 24 25  1  0  0  0  0
 26 24  1  0  0  0  0
 28  3  1  0  0  0  0
 28 37  1  0  0  0  0
 29 28  2  0  0  0  0
 30 29  1  0  0  0  0
 31 29  1  0  0  0  0
 31 33  2  0  0  0  0
 32 31  1  0  0  0  0
 33 35  1  0  0  0  0
 34 33  1  0  0  0  0
 35 37  2  0  0  0  0
 35 36  1  0  0  0  0
 37 38  1  0  0  0  0
 39 40  1  0  0  0  0
 40 42  2  0  0  0  0
 40 41  1  0  0  0  0
 42 43  1  0  0  0  0
 44 45  1  0  0  0  0
 44 42  1  0  0  0  0
 46 44  2  0  0  0  0
 47 46  1  0  0  0  0
 48 46  1  0  0  0  0
 48 39  2  0  0  0  0
 49 48  1  0  0  0  0
 50 51  2  0  0  0  0
 50 59  1  0  0  0  0
 51 53  1  0  0  0  0
 52 51  1  0  0  0  0
 53 54  1  0  0  0  0
 53 55  2  0  0  0  0
 55 56  1  0  0  0  0
 57 55  1  0  0  0  0
 57 58  1  0  0  0  0
 59 57  2  0  0  0  0
 60 59  1  0  0  0  0
M  END
$$$$
