CSD_code = QEFSAX | q = 0 | S = 0 | Stoichiometry = C28H25ClCuN4P | MND = 4
 OpenBabel04212202083D

 60 65  0  0  1  0  0  0  0  0999 V2000
    1.1078    1.1553    2.6164 Cu  0  0  1  0  0  0  0  0  0  0  0  0
    2.4870    1.7262    4.3405 P   0  0  0  0  0  4  0  0  0  0  0  0
   -0.6224    1.2447    3.9001 Cl  0  0  0  0  0  0  0  0  0  0  0  0
    0.7312    2.2044    0.9626 N   0  0  0  0  0  0  0  0  0  0  0  0
    2.2054    0.5191    0.2262 N   0  0  0  0  0  2  0  0  0  0  0  0
    2.0598    0.0166    1.4357 N   0  0  0  0  0  0  0  0  0  0  0  0
    1.6863    3.1065    5.2036 C   0  0  0  0  0  0  0  0  0  0  0  0
    4.1522    2.3786    3.9931 C   0  0  0  0  0  0  0  0  0  0  0  0
    2.7592    0.4904    5.6421 C   0  0  0  0  0  0  0  0  0  0  0  0
    1.3417    1.5059   -0.0054 C   0  0  2  0  0  3  0  0  0  0  0  0
    3.0099   -0.8961    1.8427 C   0  0  0  0  0  0  0  0  0  0  0  0
    4.0157    0.0786    6.0717 C   0  0  0  0  0  0  0  0  0  0  0  0
    4.9083    0.5298    5.6630 H   0  0  0  0  0  0  0  0  0  0  0  0
    4.1196   -0.9097    7.0349 C   0  0  0  0  0  0  0  0  0  0  0  0
    5.0968   -1.2257    7.3714 H   0  0  0  0  0  0  0  0  0  0  0  0
    0.4176    5.2713    6.3727 C   0  0  0  0  0  0  0  0  0  0  0  0
   -0.0848    6.1104    6.8313 H   0  0  0  0  0  0  0  0  0  0  0  0
    6.6891    3.2834    3.3099 C   0  0  0  0  0  0  0  0  0  0  0  0
    7.6760    3.6358    3.0489 H   0  0  0  0  0  0  0  0  0  0  0  0
    4.5342    3.6815    4.2948 C   0  0  0  0  0  0  0  0  0  0  0  0
    3.8444    4.3435    4.7990 H   0  0  0  0  0  0  0  0  0  0  0  0
    1.6654    3.2305    6.5868 C   0  0  0  0  0  0  0  0  0  0  0  0
    2.1370    2.4805    7.2063 H   0  0  0  0  0  0  0  0  0  0  0  0
    2.7921   -1.5442    3.0661 C   0  0  0  0  0  0  0  0  0  0  0  0
    1.8868   -1.3211    3.6151 H   0  0  0  0  0  0  0  0  0  0  0  0
    4.1534   -1.2114    1.1002 C   0  0  0  0  0  0  0  0  0  0  0  0
    4.3065   -0.7192    0.1524 H   0  0  0  0  0  0  0  0  0  0  0  0
    5.8003    4.1260    3.9564 C   0  0  0  0  0  0  0  0  0  0  0  0
    6.0941    5.1368    4.1998 H   0  0  0  0  0  0  0  0  0  0  0  0
    1.0283    4.3145    7.1655 C   0  0  0  0  0  0  0  0  0  0  0  0
    1.0046    4.4087    8.2415 H   0  0  0  0  0  0  0  0  0  0  0  0
    0.4403    5.1494    4.9918 C   0  0  0  0  0  0  0  0  0  0  0  0
   -0.0441    5.8926    4.3753 H   0  0  0  0  0  0  0  0  0  0  0  0
    5.0448    1.5393    3.3269 C   0  0  0  0  0  0  0  0  0  0  0  0
    4.7400    0.5325    3.0777 H   0  0  0  0  0  0  0  0  0  0  0  0
    1.0705    4.0687    4.4072 C   0  0  0  0  0  0  0  0  0  0  0  0
    1.0794    3.9430    3.3307 H   0  0  0  0  0  0  0  0  0  0  0  0
    3.7169   -2.4409    3.5498 C   0  0  0  0  0  0  0  0  0  0  0  0
    3.5469   -2.9221    4.5022 H   0  0  0  0  0  0  0  0  0  0  0  0
    1.6123   -0.1001    6.1745 C   0  0  0  0  0  0  0  0  0  0  0  0
    0.6411    0.2199    5.8186 H   0  0  0  0  0  0  0  0  0  0  0  0
    6.3080    1.9884    2.9940 C   0  0  0  0  0  0  0  0  0  0  0  0
    6.9949    1.3286    2.4843 H   0  0  0  0  0  0  0  0  0  0  0  0
    1.0041    2.0038   -1.2212 N   0  0  0  0  0  0  0  0  0  0  0  0
    1.2987    1.6283   -2.1057 H   0  0  0  0  0  0  0  0  0  0  0  0
   -0.0491    3.1250    0.3436 C   0  0  0  0  0  0  0  0  0  0  0  0
   -0.6539    3.8068    0.9071 H   0  0  0  0  0  0  0  0  0  0  0  0
    4.8714   -2.7386    2.8264 C   0  0  0  0  0  0  0  0  0  0  0  0
    0.1061    3.0169   -1.0064 C   0  0  0  0  0  0  0  0  0  0  0  0
   -0.3142    3.5842   -1.8107 H   0  0  0  0  0  0  0  0  0  0  0  0
    5.0644   -2.1217    1.5939 C   0  0  0  0  0  0  0  0  0  0  0  0
    5.9493   -2.3532    1.0175 H   0  0  0  0  0  0  0  0  0  0  0  0
    1.7278   -1.0846    7.1369 C   0  0  0  0  0  0  0  0  0  0  0  0
    0.8390   -1.5387    7.5492 H   0  0  0  0  0  0  0  0  0  0  0  0
    2.9814   -1.4923    7.5672 C   0  0  0  0  0  0  0  0  0  0  0  0
    3.0715   -2.2652    8.3167 H   0  0  0  0  0  0  0  0  0  0  0  0
    5.8658   -3.7165    3.3694 C   0  0  0  0  0  0  0  0  0  0  0  0
    6.7749   -3.7237    2.7734 H   0  0  0  0  0  0  0  0  0  0  0  0
    5.4436   -4.7215    3.3656 H   0  0  0  0  0  0  0  0  0  0  0  0
    6.1195   -3.4691    4.3989 H   0  0  0  0  0  0  0  0  0  0  0  0
  1  3  1  1  0  0  0
  1  2  1  0  0  0  0
  2  7  1  0  0  0  0
  2  9  1  0  0  0  0
  4  1  1  0  0  0  0
  5  6  1  0  0  0  0
  6 11  1  0  0  0  0
  6  1  1  0  0  0  0
  7 22  1  0  0  0  0
  8 20  1  0  0  0  0
  8  2  1  0  0  0  0
  9 12  2  0  0  0  0
  9 40  1  0  0  0  0
 10  5  1  1  0  0  0
 10  4  1  0  0  0  0
 11 24  1  0  0  0  0
 12 14  1  0  0  0  0
 13 12  1  0  0  0  0
 14 15  1  0  0  0  0
 14 55  2  0  0  0  0
 16 17  1  0  0  0  0
 16 30  1  0  0  0  0
 18 28  1  0  0  0  0
 19 18  1  0  0  0  0
 20 21  1  0  0  0  0
 22 30  2  0  0  0  0
 22 23  1  0  0  0  0
 24 38  2  0  0  0  0
 24 25  1  0  0  0  0
 26 51  1  0  0  0  0
 26 11  2  0  0  0  0
 27 26  1  0  0  0  0
 28 29  1  0  0  0  0
 28 20  2  0  0  0  0
 30 31  1  0  0  0  0
 32 16  2  0  0  0  0
 33 32  1  0  0  0  0
 34  8  2  0  0  0  0
 35 34  1  0  0  0  0
 36 32  1  0  0  0  0
 36  7  2  0  0  0  0
 37 36  1  0  0  0  0
 38 39  1  0  0  0  0
 40 53  2  0  0  0  0
 41 40  1  0  0  0  0
 42 18  2  0  0  0  0
 42 34  1  0  0  0  0
 43 42  1  0  0  0  0
 44 49  1  0  0  0  0
 44 10  1  0  0  0  0
 45 44  1  0  0  0  0
 46 47  1  0  0  0  0
 46  4  1  0  0  0  0
 48 57  1  0  0  0  0
 48 38  1  0  0  0  0
 49 46  2  0  0  0  0
 50 49  1  0  0  0  0
 51 48  2  0  0  0  0
 52 51  1  0  0  0  0
 53 54  1  0  0  0  0
 53 55  1  0  0  0  0
 55 56  1  0  0  0  0
 57 60  1  0  0  0  0
 58 57  1  0  0  0  0
 59 57  1  0  0  0  0
M  END
$$$$
