CSD_code = QEFVUS | q = 1 | S = 0 | Stoichiometry = C29H32ClNO2PPd(1+) | MND = 4
 OpenBabel04212202083D

 67 70  0  0  0  0  0  0  0  0999 V2000
    0.9872    1.7194    3.9956 Pd  0  0  0  0  0  0  0  0  0  0  0  0
    1.5311    1.5118    1.7585 Cl  0  0  0  0  0  0  0  0  0  0  0  0
    0.6652    1.8826    6.1908 P   0  0  0  0  0  4  0  0  0  0  0  0
    1.8686   -0.3629    4.6598 O   0  0  0  0  0  0  0  0  0  0  0  0
    0.9436    1.2456    8.9347 O   0  0  0  0  0  0  0  0  0  0  0  0
   -1.3808    1.1504    2.0242 N   0  0  0  0  0  4  0  0  0  0  0  0
   -1.3006    3.3304    3.1836 C   0  0  0  0  0  0  0  0  0  0  0  0
    0.0291    3.4077    3.5979 C   0  0  0  0  0  0  0  0  0  0  0  0
    0.6661    4.6342    3.6548 C   0  0  0  0  0  0  0  0  0  0  0  0
   -0.0234    5.7884    3.3096 C   0  0  0  0  0  0  0  0  0  0  0  0
   -1.3456    5.7167    2.9065 C   0  0  0  0  0  0  0  0  0  0  0  0
   -1.9830    4.4901    2.8392 C   0  0  0  0  0  0  0  0  0  0  0  0
   -1.9615    1.9732    3.1228 C   0  0  0  0  0  0  0  0  0  0  0  0
   -2.0319    1.4206    0.7414 C   0  0  0  0  0  0  0  0  0  0  0  0
   -1.3538   -0.2768    2.3629 C   0  0  0  0  0  0  0  0  0  0  0  0
    1.3900    0.3580    6.8573 C   0  0  0  0  0  0  0  0  0  0  0  0
    1.9469   -0.6046    6.0083 C   0  0  0  0  0  0  0  0  0  0  0  0
    2.5352   -1.7368    6.5591 C   0  0  0  0  0  0  0  0  0  0  0  0
    2.5788   -1.8818    7.9356 C   0  0  0  0  0  0  0  0  0  0  0  0
    2.0611   -0.9242    8.7889 C   0  0  0  0  0  0  0  0  0  0  0  0
    1.4713    0.2110    8.2478 C   0  0  0  0  0  0  0  0  0  0  0  0
    2.4929   -1.2784    3.7717 C   0  0  0  0  0  0  0  0  0  0  0  0
    0.9528    1.2085   10.3460 C   0  0  0  0  0  0  0  0  0  0  0  0
    1.8221    3.1618    6.7542 C   0  0  0  0  0  0  0  0  0  0  0  0
    2.9679    3.2920    5.9651 C   0  0  0  0  0  0  0  0  0  0  0  0
    3.9398    4.2143    6.3035 C   0  0  0  0  0  0  0  0  0  0  0  0
    3.7670    5.0169    7.4218 C   0  0  0  0  0  0  0  0  0  0  0  0
    2.6252    4.8973    8.1970 C   0  0  0  0  0  0  0  0  0  0  0  0
    1.6500    3.9707    7.8692 C   0  0  0  0  0  0  0  0  0  0  0  0
   -0.9499    2.1522    6.9494 C   0  0  0  0  0  0  0  0  0  0  0  0
   -1.4970    3.4309    6.8654 C   0  0  0  0  0  0  0  0  0  0  0  0
   -2.7625    3.6724    7.3659 C   0  0  0  0  0  0  0  0  0  0  0  0
   -3.4921    2.6401    7.9357 C   0  0  0  0  0  0  0  0  0  0  0  0
   -2.9614    1.3612    7.9921 C   0  0  0  0  0  0  0  0  0  0  0  0
   -1.6957    1.1115    7.4927 C   0  0  0  0  0  0  0  0  0  0  0  0
    1.7037    4.7039    3.9670 H   0  0  0  0  0  0  0  0  0  0  0  0
    0.4766    6.7437    3.3564 H   0  0  0  0  0  0  0  0  0  0  0  0
   -1.8791    6.6151    2.6389 H   0  0  0  0  0  0  0  0  0  0  0  0
   -3.0153    4.4329    2.5245 H   0  0  0  0  0  0  0  0  0  0  0  0
    2.9662   -2.5031    5.9373 H   0  0  0  0  0  0  0  0  0  0  0  0
    3.0398   -2.7636    8.3520 H   0  0  0  0  0  0  0  0  0  0  0  0
    2.1310   -1.0626    9.8548 H   0  0  0  0  0  0  0  0  0  0  0  0
    3.0921    2.6592    5.0725 H   0  0  0  0  0  0  0  0  0  0  0  0
    4.8275    4.3162    5.6973 H   0  0  0  0  0  0  0  0  0  0  0  0
    4.5232    5.7405    7.6845 H   0  0  0  0  0  0  0  0  0  0  0  0
    2.4935    5.5294    9.0622 H   0  0  0  0  0  0  0  0  0  0  0  0
    0.7584    3.8743    8.4701 H   0  0  0  0  0  0  0  0  0  0  0  0
   -0.9236    4.2255    6.4059 H   0  0  0  0  0  0  0  0  0  0  0  0
   -3.1809    4.6658    7.3123 H   0  0  0  0  0  0  0  0  0  0  0  0
   -4.4775    2.8313    8.3319 H   0  0  0  0  0  0  0  0  0  0  0  0
   -3.5354    0.5570    8.4273 H   0  0  0  0  0  0  0  0  0  0  0  0
   -1.2796    0.1138    7.5311 H   0  0  0  0  0  0  0  0  0  0  0  0
   -3.0393    2.0633    2.9696 H   0  0  0  0  0  0  0  0  0  0  0  0
   -1.7810    1.4529    4.0768 H   0  0  0  0  0  0  0  0  0  0  0  0
   -2.0186    2.4921    0.5525 H   0  0  0  0  0  0  0  0  0  0  0  0
   -1.4887    0.9221   -0.0583 H   0  0  0  0  0  0  0  0  0  0  0  0
   -3.0631    1.0669    0.7515 H   0  0  0  0  0  0  0  0  0  0  0  0
   -2.3547   -0.6423    2.5920 H   0  0  0  0  0  0  0  0  0  0  0  0
   -0.9459   -0.8411    1.5262 H   0  0  0  0  0  0  0  0  0  0  0  0
   -0.6975   -0.4155    3.2340 H   0  0  0  0  0  0  0  0  0  0  0  0
    2.0160   -2.2615    3.8244 H   0  0  0  0  0  0  0  0  0  0  0  0
    2.3603   -0.8630    2.7707 H   0  0  0  0  0  0  0  0  0  0  0  0
    3.5608   -1.3698    3.9866 H   0  0  0  0  0  0  0  0  0  0  0  0
    0.3945    0.3481   10.7244 H   0  0  0  0  0  0  0  0  0  0  0  0
    1.9742    1.1860   10.7350 H   0  0  0  0  0  0  0  0  0  0  0  0
    0.4630    2.1248   10.6695 H   0  0  0  0  0  0  0  0  0  0  0  0
   -0.3126    1.4161    1.9099 H   0  0  0  0  0  0  0  0  0  0  0  0
  1  3  1  0  0  0  0
  2  1  1  0  0  0  0
  3 24  1  0  0  0  0
  3 16  1  0  0  0  0
  3 30  1  0  0  0  0
  4 17  1  0  0  0  0
  5 23  1  0  0  0  0
  6 15  1  0  0  0  0
  6 13  1  0  0  0  0
  7  8  1  0  0  0  0
  8  9  2  0  0  0  0
  8  1  1  0  0  0  0
  9 36  1  0  0  0  0
 10 37  1  0  0  0  0
 10  9  1  0  0  0  0
 11 10  2  0  0  0  0
 12 11  1  0  0  0  0
 12  7  2  0  0  0  0
 13  7  1  0  0  0  0
 13 54  1  0  0  0  0
 14 57  1  0  0  0  0
 14  6  1  0  0  0  0
 15 58  1  0  0  0  0
 15 60  1  0  0  0  0
 16 21  1  0  0  0  0
 17 18  1  0  0  0  0
 17 16  2  0  0  0  0
 18 19  2  0  0  0  0
 19 41  1  0  0  0  0
 19 20  1  0  0  0  0
 20 42  1  0  0  0  0
 21 20  2  0  0  0  0
 21  5  1  0  0  0  0
 22 61  1  0  0  0  0
 22 63  1  0  0  0  0
 22  4  1  0  0  0  0
 23 66  1  0  0  0  0
 23 64  1  0  0  0  0
 23 65  1  0  0  0  0
 24 29  1  0  0  0  0
 25 26  1  0  0  0  0
 25 24  2  0  0  0  0
 26 27  2  0  0  0  0
 27 45  1  0  0  0  0
 27 28  1  0  0  0  0
 28 46  1  0  0  0  0
 29 28  2  0  0  0  0
 29 47  1  0  0  0  0
 30 35  1  0  0  0  0
 31 30  2  0  0  0  0
 31 32  1  0  0  0  0
 32 33  2  0  0  0  0
 33 34  1  0  0  0  0
 33 50  1  0  0  0  0
 34 51  1  0  0  0  0
 35 52  1  0  0  0  0
 35 34  2  0  0  0  0
 38 11  1  0  0  0  0
 39 12  1  0  0  0  0
 40 18  1  0  0  0  0
 43 25  1  0  0  0  0
 44 26  1  0  0  0  0
 48 31  1  0  0  0  0
 49 32  1  0  0  0  0
 53 13  1  0  0  0  0
 55 14  1  0  0  0  0
 56 14  1  0  0  0  0
 59 15  1  0  0  0  0
 62 22  1  0  0  0  0
 67  6  1  0  0  0  0
M  END
$$$$
