CSD_code = QEFXEE | q = 0 | S = 0 | Stoichiometry = C12H20CdI2N2S4 | MND = 4
 OpenBabel04212202083D

 41 43  0  0  1  0  0  0  0  0999 V2000
    9.5578    2.1357    7.6684 Cd  0  0  0  0  0  0  0  0  0  0  0  0
    7.0201    1.4805    8.2830 I   0  0  0  0  0  0  0  0  0  0  0  0
   10.0438    4.2213    9.6716 S   0  0  0  0  0  0  0  0  0  0  0  0
    8.6049    6.2470    7.9849 S   0  0  0  0  0  0  0  0  0  0  0  0
    8.6213    4.9913    9.2932 C   0  0  2  0  0  3  0  0  0  0  0  0
    7.4715    4.7934    9.9031 N   0  0  0  0  0  0  0  0  0  0  0  0
    7.3548    3.9871   11.1031 C   0  0  0  0  0  0  0  0  0  0  0  0
    6.9679    4.8887   12.2741 C   0  0  0  0  0  0  0  0  0  0  0  0
    5.6598    5.6112   11.9657 C   0  0  0  0  0  0  0  0  0  0  0  0
    5.7912    6.3828   10.6553 C   0  0  0  0  0  0  0  0  0  0  0  0
    6.2266    5.4334    9.5399 C   0  0  0  0  0  0  0  0  0  0  0  0
    8.3039    3.4848   11.2961 H   0  0  0  0  0  0  0  0  0  0  0  0
    6.5797    3.2340   10.9365 H   0  0  0  0  0  0  0  0  0  0  0  0
    7.7637    5.6167   12.4459 H   0  0  0  0  0  0  0  0  0  0  0  0
    6.8662    4.2782   13.1711 H   0  0  0  0  0  0  0  0  0  0  0  0
    4.8533    4.8806   11.8779 H   0  0  0  0  0  0  0  0  0  0  0  0
    5.4093    6.2945   12.7778 H   0  0  0  0  0  0  0  0  0  0  0  0
    4.8416    6.8430   10.3835 H   0  0  0  0  0  0  0  0  0  0  0  0
    6.5355    7.1746   10.7634 H   0  0  0  0  0  0  0  0  0  0  0  0
    5.4792    4.6445    9.4041 H   0  0  0  0  0  0  0  0  0  0  0  0
    6.3405    5.9676    8.5954 H   0  0  0  0  0  0  0  0  0  0  0  0
   12.0975    1.4806    7.0534 I   0  0  0  0  0  0  0  0  0  0  0  0
   10.5124    6.2492    7.3501 S   0  0  0  0  0  0  0  0  0  0  0  0
   10.4954    4.9918    6.0435 C   0  0  1  0  0  3  0  0  0  0  0  0
    9.0724    4.2223    5.6659 S   0  0  0  0  0  0  0  0  0  0  0  0
   11.6450    4.7935    5.4334 N   0  0  0  0  0  0  0  0  0  0  0  0
   11.7617    3.9872    4.2333 C   0  0  0  0  0  0  0  0  0  0  0  0
   12.1487    4.8887    3.0623 C   0  0  0  0  0  0  0  0  0  0  0  0
   13.4568    5.6111    3.3707 C   0  0  0  0  0  0  0  0  0  0  0  0
   13.3255    6.3828    4.6811 C   0  0  0  0  0  0  0  0  0  0  0  0
   12.8900    5.4334    5.7965 C   0  0  0  0  0  0  0  0  0  0  0  0
   13.6374    4.6444    5.9323 H   0  0  0  0  0  0  0  0  0  0  0  0
   12.7762    5.9676    6.7409 H   0  0  0  0  0  0  0  0  0  0  0  0
   14.2752    6.8428    4.9529 H   0  0  0  0  0  0  0  0  0  0  0  0
   12.5813    7.1746    4.5730 H   0  0  0  0  0  0  0  0  0  0  0  0
   14.2633    4.8805    3.4586 H   0  0  0  0  0  0  0  0  0  0  0  0
   13.7074    6.2944    2.5586 H   0  0  0  0  0  0  0  0  0  0  0  0
   11.3530    5.6168    2.8905 H   0  0  0  0  0  0  0  0  0  0  0  0
   12.2504    4.2782    2.1653 H   0  0  0  0  0  0  0  0  0  0  0  0
   10.8126    3.4849    4.0403 H   0  0  0  0  0  0  0  0  0  0  0  0
   12.5367    3.2340    4.4000 H   0  0  0  0  0  0  0  0  0  0  0  0
  1  2  1  0  0  0  0
  1  3  1  0  0  0  0
  4  5  1  0  0  0  0
  5  3  1  0  0  0  0
  5  6  1  1  0  0  0
  6  7  1  0  0  0  0
  7 12  1  0  0  0  0
  7  8  1  0  0  0  0
  8 14  1  0  0  0  0
  8 15  1  0  0  0  0
  9  8  1  0  0  0  0
  9 17  1  0  0  0  0
 10 19  1  0  0  0  0
 10  9  1  0  0  0  0
 11  6  1  0  0  0  0
 11 10  1  0  0  0  0
 13  7  1  0  0  0  0
 16  9  1  0  0  0  0
 18 10  1  0  0  0  0
 20 11  1  0  0  0  0
 21 11  1  0  0  0  0
 22  1  1  0  0  0  0
 23  4  1  0  0  0  0
 24 26  1  6  0  0  0
 24 23  1  0  0  0  0
 25 24  1  0  0  0  0
 25  1  1  0  0  0  0
 26 31  1  0  0  0  0
 27 41  1  0  0  0  0
 27 26  1  0  0  0  0
 28 29  1  0  0  0  0
 28 27  1  0  0  0  0
 29 36  1  0  0  0  0
 29 30  1  0  0  0  0
 30 34  1  0  0  0  0
 30 31  1  0  0  0  0
 31 32  1  0  0  0  0
 31 33  1  0  0  0  0
 35 30  1  0  0  0  0
 37 29  1  0  0  0  0
 38 28  1  0  0  0  0
 39 28  1  0  0  0  0
 40 27  1  0  0  0  0
M  END
$$$$
