CSD_code = QEGNOF | q = 0 | S = 0 | Stoichiometry = C20H27Cl2NOSiTi | MND = 8
 OpenBabel04212202083D

 53 56  0  0  1  0  0  0  0  0999 V2000
    6.1909    6.1702   14.5912 Ti  0  0  0  0  0  0  0  0  0  0  0  0
    4.0581    6.1449   15.0745 Cl  0  0  0  0  0  0  0  0  0  0  0  0
    6.6660    6.8663   16.6352 Cl  0  0  0  0  0  0  0  0  0  0  0  0
    8.6352    4.8392   13.6433 Si  0  0  0  0  0  0  0  0  0  0  0  0
    7.3404    4.7218   14.7810 N   0  0  2  0  0  0  0  0  0  0  0  0
    5.1765    3.7445   13.7664 O   0  0  0  0  0  0  0  0  0  0  0  0
    7.8579    6.4731   13.0473 C   0  0  2  0  0  3  0  0  0  0  0  0
    7.8550    7.6195   13.8797 C   0  0  0  0  0  3  0  0  0  0  0  0
    8.6811    7.9456   14.4995 H   0  0  0  0  0  0  0  0  0  0  0  0
    6.6414    8.3179   13.7020 C   0  0  0  0  0  0  0  0  0  0  0  0
    6.3914    9.2811   14.1324 H   0  0  0  0  0  0  0  0  0  0  0  0
    5.8679    7.6061   12.7570 C   0  0  0  0  0  0  0  0  0  0  0  0
    4.9336    7.9397   12.3213 H   0  0  0  0  0  0  0  0  0  0  0  0
    6.6034    6.4655   12.3730 C   0  0  2  0  0  0  0  0  0  0  0  0
    6.3250    5.7775   11.5856 H   0  0  0  0  0  0  0  0  0  0  0  0
   10.3435    5.0413   14.4714 C   0  0  0  0  0  0  0  0  0  0  0  0
   10.7572    4.0820   14.7637 H   0  0  0  0  0  0  0  0  0  0  0  0
   10.2678    5.6567   15.3627 H   0  0  0  0  0  0  0  0  0  0  0  0
   11.0494    5.5110   13.7955 H   0  0  0  0  0  0  0  0  0  0  0  0
    8.7194    3.5371   12.2422 C   0  0  0  0  0  0  0  0  0  0  0  0
    9.0323    2.5711   12.6250 H   0  0  0  0  0  0  0  0  0  0  0  0
    7.7568    3.4130   11.7559 H   0  0  0  0  0  0  0  0  0  0  0  0
    9.4379    3.8345   11.4862 H   0  0  0  0  0  0  0  0  0  0  0  0
    6.7649    3.6278   15.4944 C   0  0  1  0  0  0  0  0  0  0  0  0
    6.0731    4.0495   16.2553 H   0  0  0  0  0  0  0  0  0  0  0  0
    5.9127    2.7931   14.5180 C   0  0  1  0  0  0  0  0  0  0  0  0
    6.5865    2.2509   13.8307 H   0  0  0  0  0  0  0  0  0  0  0  0
    5.0852    1.7867   15.3166 C   0  0  0  0  0  0  0  0  0  0  0  0
    4.4355    2.3301   16.0066 H   0  0  0  0  0  0  0  0  0  0  0  0
    4.4560    1.1889   14.6539 H   0  0  0  0  0  0  0  0  0  0  0  0
    6.0361    0.8666   16.0841 C   0  0  0  0  0  0  0  0  0  0  0  0
    5.4555    0.1601   16.6797 H   0  0  0  0  0  0  0  0  0  0  0  0
    6.6269    0.2907   15.3673 H   0  0  0  0  0  0  0  0  0  0  0  0
    6.9781    1.6527   16.9953 C   0  0  0  0  0  0  0  0  0  0  0  0
    7.6729    0.9649   17.4807 H   0  0  0  0  0  0  0  0  0  0  0  0
    6.3965    2.1472   17.7759 H   0  0  0  0  0  0  0  0  0  0  0  0
    7.7547    2.7085   16.2118 C   0  0  0  0  0  0  0  0  0  0  0  0
    8.3729    3.3087   16.8808 H   0  0  0  0  0  0  0  0  0  0  0  0
    8.4060    2.2405   15.4699 H   0  0  0  0  0  0  0  0  0  0  0  0
    4.3267    3.1724   12.7724 C   0  0  0  0  0  0  0  0  0  0  0  0
    3.3662    2.8952   13.2297 H   0  0  0  0  0  0  0  0  0  0  0  0
    4.8016    2.2693   12.3636 H   0  0  0  0  0  0  0  0  0  0  0  0
    4.1021    4.1734   11.6719 C   0  0  0  0  0  0  0  0  0  0  0  0
    3.2897    5.2799   11.8916 C   0  0  0  0  0  0  0  0  0  0  0  0
    2.8108    5.4049   12.8512 H   0  0  0  0  0  0  0  0  0  0  0  0
    3.1011    6.2149   10.8882 C   0  0  0  0  0  0  0  0  0  0  0  0
    2.4646    7.0695   11.0652 H   0  0  0  0  0  0  0  0  0  0  0  0
    3.7171    6.0537    9.6583 C   0  0  0  0  0  0  0  0  0  0  0  0
    3.5688    6.7835    8.8763 H   0  0  0  0  0  0  0  0  0  0  0  0
    4.5224    4.9506    9.4314 C   0  0  0  0  0  0  0  0  0  0  0  0
    5.0027    4.8179    8.4734 H   0  0  0  0  0  0  0  0  0  0  0  0
    4.7150    4.0157   10.4345 C   0  0  0  0  0  0  0  0  0  0  0  0
    5.3431    3.1548   10.2510 H   0  0  0  0  0  0  0  0  0  0  0  0
  1  5  1  0  0  0  0
  1  2  1  0  0  0  0
  1  3  1  0  0  0  0
  4 16  1  0  0  0  0
  5  4  1  6  0  0  0
  5 24  1  0  0  0  0
  6 26  1  0  0  0  0
  7  4  1  0  0  0  0
  7  8  1  1  0  0  0
  8  9  1  0  0  0  0
 10  8  1  0  0  0  0
 10 11  1  0  0  0  0
 12 10  2  0  0  0  0
 13 12  1  0  0  0  0
 14 15  1  6  0  0  0
 14 12  1  0  0  0  0
 14  7  1  0  0  0  0
 14  1  1  0  0  0  0
 16 17  1  0  0  0  0
 16 18  1  0  0  0  0
 19 16  1  0  0  0  0
 20 21  1  0  0  0  0
 20  4  1  0  0  0  0
 22 20  1  0  0  0  0
 23 20  1  0  0  0  0
 24 37  1  0  0  0  0
 24 25  1  1  0  0  0
 26 27  1  6  0  0  0
 26 28  1  0  0  0  0
 26 24  1  0  0  0  0
 28 29  1  0  0  0  0
 28 31  1  0  0  0  0
 30 28  1  0  0  0  0
 31 32  1  0  0  0  0
 31 34  1  0  0  0  0
 33 31  1  0  0  0  0
 34 35  1  0  0  0  0
 34 36  1  0  0  0  0
 37 38  1  0  0  0  0
 37 34  1  0  0  0  0
 39 37  1  0  0  0  0
 40 41  1  0  0  0  0
 40  6  1  0  0  0  0
 42 40  1  0  0  0  0
 43 44  1  0  0  0  0
 43 40  1  0  0  0  0
 44 45  1  0  0  0  0
 46 47  1  0  0  0  0
 46 44  2  0  0  0  0
 48 46  1  0  0  0  0
 49 48  1  0  0  0  0
 50 48  2  0  0  0  0
 50 52  1  0  0  0  0
 51 50  1  0  0  0  0
 52 43  2  0  0  0  0
 53 52  1  0  0  0  0
M  END
$$$$
