CSD_code = QEHKOE | q = 0 | S = 0 | Stoichiometry = C23H23CdCl2N7O2 | MND = 7
 OpenBabel04212202083D

 58 63  0  0  1  0  0  0  0  0999 V2000
    2.5975   12.9581    2.0824 Cd  0  0  0  0  0  0  0  0  0  0  0  0
    3.9288   14.9614    2.4371 Cl  0  0  0  0  0  0  0  0  0  0  0  0
    4.0249   11.8245    3.5988 O   0  0  0  0  0  0  0  0  0  0  0  0
    2.5953   12.9591   -0.3375 N   0  0  0  0  0  0  0  0  0  0  0  0
    3.9107   11.1401    1.0424 N   0  0  0  0  0  0  0  0  0  0  0  0
    4.2300   10.2426    1.9782 N   0  0  0  0  0  0  0  0  0  0  0  0
    2.4735   10.7475    5.6336 N   0  0  0  0  0  0  0  0  0  0  0  0
    3.1025   11.9186   -0.9920 C   0  0  1  0  0  3  0  0  0  0  0  0
    3.5779   10.8130   -0.1486 C   0  0  0  0  0  0  0  0  0  0  0  0
    4.1103   10.6426    3.3025 C   0  0  2  0  0  3  0  0  0  0  0  0
    4.0800    9.5460    4.2736 C   0  0  0  0  0  0  0  0  0  0  0  0
    3.2203    9.6466    5.3931 C   0  0  0  0  0  0  0  0  0  0  0  0
    3.1778    8.5592    6.2832 C   0  0  0  0  0  0  0  0  0  0  0  0
    3.9577    7.4453    6.0926 C   0  0  0  0  0  0  0  0  0  0  0  0
    4.8100    7.3584    4.9950 C   0  0  0  0  0  0  0  0  0  0  0  0
    4.8540    8.3973    4.0929 C   0  0  0  0  0  0  0  0  0  0  0  0
    2.5949   12.9611   -3.0833 C   0  0  0  0  0  0  0  0  0  0  0  0
    3.1386   11.8941   -2.3892 C   0  0  0  0  0  0  0  0  0  0  0  0
    3.5427    9.3970   -0.6516 C   0  0  0  0  0  0  0  0  0  0  0  0
    4.0777    9.2529    1.7875 H   0  0  0  0  0  0  0  0  0  0  0  0
    1.7003   10.6532    6.2708 H   0  0  0  0  0  0  0  0  0  0  0  0
    2.3465   11.4156    4.8845 H   0  0  0  0  0  0  0  0  0  0  0  0
    2.5158    8.6202    7.1349 H   0  0  0  0  0  0  0  0  0  0  0  0
    3.9090    6.6295    6.7987 H   0  0  0  0  0  0  0  0  0  0  0  0
    5.4282    6.4856    4.8535 H   0  0  0  0  0  0  0  0  0  0  0  0
    5.5307    8.3454    3.2514 H   0  0  0  0  0  0  0  0  0  0  0  0
    2.5949   12.9620   -4.1635 H   0  0  0  0  0  0  0  0  0  0  0  0
    3.5962   11.0751   -2.9204 H   0  0  0  0  0  0  0  0  0  0  0  0
    2.8791    8.8123   -0.0113 H   0  0  0  0  0  0  0  0  0  0  0  0
    4.5365    8.9486   -0.6244 H   0  0  0  0  0  0  0  0  0  0  0  0
    3.1584    9.3442   -1.6640 H   0  0  0  0  0  0  0  0  0  0  0  0
    1.2642   10.9565    2.4338 Cl  0  0  0  0  0  0  0  0  0  0  0  0
    1.1755   14.0921    3.6051 O   0  0  0  0  0  0  0  0  0  0  0  0
    1.2815   14.7754    1.0461 N   0  0  1  0  0  0  0  0  0  0  0  0
    0.9589   15.6709    1.9825 N   0  0  0  0  0  0  0  0  0  0  0  0
    2.7414   15.1956    5.6232 N   0  0  0  0  0  0  0  0  0  0  0  0
    2.0875   14.0004   -0.9903 C   0  0  0  0  0  0  0  0  0  0  0  0
    1.6105   15.1041   -0.1455 C   0  0  2  0  0  3  0  0  0  0  0  0
    1.0826   15.2726    3.3069 C   0  0  2  0  0  3  0  0  0  0  0  0
    1.1058   16.3714    4.2764 C   0  0  0  0  0  0  0  0  0  0  0  0
    1.9735   16.2838    5.3906 C   0  0  0  0  0  0  0  0  0  0  0  0
    2.0012   17.3696    6.2831 C   0  0  0  0  0  0  0  0  0  0  0  0
    1.2023   18.4710    6.0977 C   0  0  0  0  0  0  0  0  0  0  0  0
    0.3448   18.5464    5.0034 C   0  0  0  0  0  0  0  0  0  0  0  0
    0.3130   17.5078    4.1003 C   0  0  0  0  0  0  0  0  0  0  0  0
    2.0511   14.0268   -2.3875 C   0  0  0  0  0  0  0  0  0  0  0  0
    1.6372   16.5203   -0.6488 C   0  0  0  0  0  0  0  0  0  0  0  0
    1.1026   16.6618    1.7913 H   0  0  0  0  0  0  0  0  0  0  0  0
    3.5144   15.3020    6.2590 H   0  0  0  0  0  0  0  0  0  0  0  0
    2.8831   14.5375    4.8677 H   0  0  0  0  0  0  0  0  0  0  0  0
    2.6673   17.3179    7.1321 H   0  0  0  0  0  0  0  0  0  0  0  0
    1.2404   19.2861    6.8053 H   0  0  0  0  0  0  0  0  0  0  0  0
   -0.2874   19.4096    4.8655 H   0  0  0  0  0  0  0  0  0  0  0  0
   -0.3680   17.5497    3.2617 H   0  0  0  0  0  0  0  0  0  0  0  0
    1.5932   14.8465   -2.9175 H   0  0  0  0  0  0  0  0  0  0  0  0
    2.2909   17.1114   -0.0044 H   0  0  0  0  0  0  0  0  0  0  0  0
    0.6392   16.9598   -0.6291 H   0  0  0  0  0  0  0  0  0  0  0  0
    2.0283   16.5757   -1.6585 H   0  0  0  0  0  0  0  0  0  0  0  0
  1 32  1  0  0  0  0
  1  2  1  0  0  0  0
  1  3  1  0  0  0  0
  1 33  1  0  0  0  0
  4  1  1  0  0  0  0
  5  6  1  0  0  0  0
  6 10  1  0  0  0  0
  7 21  1  0  0  0  0
  8 18  1  6  0  0  0
  8  4  1  0  0  0  0
  8  9  1  0  0  0  0
  9  5  2  0  0  0  0
 10  3  1  0  0  0  0
 10 11  1  6  0  0  0
 11 12  1  0  0  0  0
 12  7  1  0  0  0  0
 12 13  2  0  0  0  0
 13 23  1  0  0  0  0
 14 13  1  0  0  0  0
 14 24  1  0  0  0  0
 15 14  2  0  0  0  0
 16 11  2  0  0  0  0
 16 15  1  0  0  0  0
 17 18  2  0  0  0  0
 17 46  1  0  0  0  0
 19 30  1  0  0  0  0
 19  9  1  0  0  0  0
 19 29  1  0  0  0  0
 20  6  1  0  0  0  0
 22  7  1  0  0  0  0
 25 15  1  0  0  0  0
 26 16  1  0  0  0  0
 27 17  1  0  0  0  0
 28 18  1  0  0  0  0
 31 19  1  0  0  0  0
 34 35  1  1  0  0  0
 34  1  1  0  0  0  0
 35 39  1  0  0  0  0
 36 49  1  0  0  0  0
 37  4  1  0  0  0  0
 37 38  1  0  0  0  0
 38 47  1  1  0  0  0
 38 34  1  0  0  0  0
 39 33  1  0  0  0  0
 39 40  1  6  0  0  0
 40 41  1  0  0  0  0
 41 36  1  0  0  0  0
 41 42  2  0  0  0  0
 42 51  1  0  0  0  0
 43 42  1  0  0  0  0
 43 52  1  0  0  0  0
 44 43  2  0  0  0  0
 45 40  2  0  0  0  0
 45 44  1  0  0  0  0
 46 37  2  0  0  0  0
 47 57  1  0  0  0  0
 47 56  1  0  0  0  0
 48 35  1  0  0  0  0
 50 36  1  0  0  0  0
 53 44  1  0  0  0  0
 54 45  1  0  0  0  0
 55 46  1  0  0  0  0
 58 47  1  0  0  0  0
M  END
$$$$
