CSD_code = QEHNIA | q = 1 | S = 0 | Stoichiometry = C14H25AuIN2(1+) | MND = 2
 OpenBabel04212202083D

 43 43  0  0  0  0  0  0  0  0999 V2000
    2.1991    5.2519    1.4871 Au  0  0  0  0  0  0  0  0  0  0  0  0
    4.1704    3.7236    2.1282 I   0  0  0  0  0  0  0  0  0  0  0  0
    2.6400    9.1458    1.5337 N   0  0  0  0  0  4  0  0  0  0  0  0
   -1.1845    3.5633    0.5097 N   0  0  0  0  0  4  0  0  0  0  0  0
    0.7705    7.7731    0.4940 C   0  0  0  0  0  0  0  0  0  0  0  0
   -0.3016    8.5641    0.0954 C   0  0  0  0  0  0  0  0  0  0  0  0
   -1.5966    8.0969    0.2221 C   0  0  0  0  0  0  0  0  0  0  0  0
   -1.8105    6.8235    0.7163 C   0  0  0  0  0  0  0  0  0  0  0  0
   -0.7320    6.0091    1.0445 C   0  0  0  0  0  0  0  0  0  0  0  0
    2.1703    8.3200    0.3656 C   0  0  0  0  0  0  0  0  0  0  0  0
    2.4559    8.4127    2.7963 C   0  0  0  0  0  0  0  0  0  0  0  0
    4.0727    9.4375    1.3520 C   0  0  0  0  0  0  0  0  0  0  0  0
    1.8898   10.4102    1.6028 C   0  0  0  0  0  0  0  0  0  0  0  0
   -0.9969    4.6189    1.5666 C   0  0  0  0  0  0  0  0  0  0  0  0
   -0.0732    3.5877   -0.4549 C   0  0  0  0  0  0  0  0  0  0  0  0
   -1.2189    2.2461    1.1693 C   0  0  0  0  0  0  0  0  0  0  0  0
   -2.4482    3.7801   -0.2135 C   0  0  0  0  0  0  0  0  0  0  0  0
    0.5961    6.4603    0.9628 C   0  0  0  0  0  0  0  0  0  0  0  0
   -0.1352    9.5469   -0.3236 H   0  0  0  0  0  0  0  0  0  0  0  0
   -2.4308    8.7189   -0.0609 H   0  0  0  0  0  0  0  0  0  0  0  0
   -2.8250    6.4747    0.8504 H   0  0  0  0  0  0  0  0  0  0  0  0
    2.2550    8.9452   -0.5256 H   0  0  0  0  0  0  0  0  0  0  0  0
    2.8593    7.4748    0.2765 H   0  0  0  0  0  0  0  0  0  0  0  0
    2.9936    7.4645    2.7595 H   0  0  0  0  0  0  0  0  0  0  0  0
    1.4000    8.1963    2.9479 H   0  0  0  0  0  0  0  0  0  0  0  0
    2.8268    9.0039    3.6309 H   0  0  0  0  0  0  0  0  0  0  0  0
    4.4332   10.0664    2.1644 H   0  0  0  0  0  0  0  0  0  0  0  0
    4.2366    9.9548    0.4083 H   0  0  0  0  0  0  0  0  0  0  0  0
    4.6470    8.5125    1.3483 H   0  0  0  0  0  0  0  0  0  0  0  0
    2.2371   11.0053    2.4456 H   0  0  0  0  0  0  0  0  0  0  0  0
    0.8293   10.2021    1.7325 H   0  0  0  0  0  0  0  0  0  0  0  0
    2.0315   10.9829    0.6878 H   0  0  0  0  0  0  0  0  0  0  0  0
   -1.8925    4.6115    2.1914 H   0  0  0  0  0  0  0  0  0  0  0  0
   -0.1370    4.3139    2.1705 H   0  0  0  0  0  0  0  0  0  0  0  0
    0.8754    3.4434    0.0641 H   0  0  0  0  0  0  0  0  0  0  0  0
   -0.0403    4.5529   -0.9569 H   0  0  0  0  0  0  0  0  0  0  0  0
   -0.2013    2.8002   -1.1945 H   0  0  0  0  0  0  0  0  0  0  0  0
   -2.0143    2.2155    1.9119 H   0  0  0  0  0  0  0  0  0  0  0  0
   -0.2696    2.0495    1.6650 H   0  0  0  0  0  0  0  0  0  0  0  0
   -1.3947    1.4628    0.4339 H   0  0  0  0  0  0  0  0  0  0  0  0
   -2.5827    3.0091   -0.9703 H   0  0  0  0  0  0  0  0  0  0  0  0
   -2.4301    4.7527   -0.7020 H   0  0  0  0  0  0  0  0  0  0  0  0
   -3.2889    3.7429    0.4774 H   0  0  0  0  0  0  0  0  0  0  0  0
  1  2  1  0  0  0  0
  3 13  1  0  0  0  0
  3 11  1  0  0  0  0
  4 16  1  0  0  0  0
  4 14  1  0  0  0  0
  5 18  1  0  0  0  0
  6  7  1  0  0  0  0
  6  5  2  0  0  0  0
  7  8  2  0  0  0  0
  8 21  1  0  0  0  0
  8  9  1  0  0  0  0
  9 14  1  0  0  0  0
 10  5  1  0  0  0  0
 10  3  1  0  0  0  0
 11 25  1  0  0  0  0
 11 26  1  0  0  0  0
 12  3  1  0  0  0  0
 12 27  1  0  0  0  0
 13 31  1  0  0  0  0
 13 30  1  0  0  0  0
 14 34  1  0  0  0  0
 14 33  1  0  0  0  0
 15 35  1  0  0  0  0
 15  4  1  0  0  0  0
 16 39  1  0  0  0  0
 16 38  1  0  0  0  0
 17 43  1  0  0  0  0
 17  4  1  0  0  0  0
 18  9  2  0  0  0  0
 18  1  1  0  0  0  0
 19  6  1  0  0  0  0
 20  7  1  0  0  0  0
 22 10  1  0  0  0  0
 23 10  1  0  0  0  0
 24 11  1  0  0  0  0
 28 12  1  0  0  0  0
 29 12  1  0  0  0  0
 32 13  1  0  0  0  0
 36 15  1  0  0  0  0
 37 15  1  0  0  0  0
 40 16  1  0  0  0  0
 41 17  1  0  0  0  0
 42 17  1  0  0  0  0
M  END
$$$$
