CSD_code = QEHNOG | q = 1 | S = 0 | Stoichiometry = C13H21AuIN2(1+) | MND = 4
 OpenBabel04212202083D

 38 40  0  0  0  0  0  0  0  0999 V2000
    0.7018    3.0811    2.3967 Au  0  0  2  0  0  0  0  0  0  0  0  0
   -1.0223    1.3404    1.4534 I   0  0  0  0  0  0  0  0  0  0  0  0
    2.4067    2.3553    1.3006 N   0  0  0  0  0  4  0  0  0  0  0  0
   -0.5544    5.1503    4.2970 N   0  0  0  0  0  4  0  0  0  0  0  0
    2.0731    4.3072    3.1782 C   0  0  0  0  0  0  0  0  0  0  0  0
    3.2779    4.3051    2.4810 C   0  0  0  0  0  0  0  0  0  0  0  0
    4.3566    5.0445    2.9450 C   0  0  0  0  0  0  0  0  0  0  0  0
    4.2312    5.7921    4.1021 C   0  0  0  0  0  0  0  0  0  0  0  0
    3.0341    5.8036    4.7937 C   0  0  0  0  0  0  0  0  0  0  0  0
    1.9525    5.0549    4.3392 C   0  0  0  0  0  0  0  0  0  0  0  0
    3.3306    3.5068    1.2152 C   0  0  0  0  0  0  0  0  0  0  0  0
    2.1529    1.8381   -0.0499 C   0  0  0  0  0  0  0  0  0  0  0  0
    3.0288    1.2892    2.0995 C   0  0  0  0  0  0  0  0  0  0  0  0
    0.6725    5.0546    5.1334 C   0  0  0  0  0  0  0  0  0  0  0  0
   -0.4556    6.2932    3.3730 C   0  0  0  0  0  0  0  0  0  0  0  0
   -1.7112    5.3702    5.1906 C   0  0  0  0  0  0  0  0  0  0  0  0
   -0.7769    3.8913    3.5468 C   0  0  0  0  0  0  0  0  0  0  0  0
    5.2877    5.0345    2.4001 H   0  0  0  0  0  0  0  0  0  0  0  0
    5.0673    6.3676    4.4654 H   0  0  0  0  0  0  0  0  0  0  0  0
    2.9396    6.3860    5.6976 H   0  0  0  0  0  0  0  0  0  0  0  0
    3.0055    4.1433    0.3844 H   0  0  0  0  0  0  0  0  0  0  0  0
    4.3469    3.1639    0.9943 H   0  0  0  0  0  0  0  0  0  0  0  0
    3.0947    1.6076   -0.5522 H   0  0  0  0  0  0  0  0  0  0  0  0
    1.6084    2.5744   -0.6389 H   0  0  0  0  0  0  0  0  0  0  0  0
    1.5580    0.9293    0.0004 H   0  0  0  0  0  0  0  0  0  0  0  0
    2.3281    0.4658    2.2272 H   0  0  0  0  0  0  0  0  0  0  0  0
    3.3120    1.6719    3.0792 H   0  0  0  0  0  0  0  0  0  0  0  0
    3.9222    0.9079    1.5996 H   0  0  0  0  0  0  0  0  0  0  0  0
    0.6019    4.1318    5.7187 H   0  0  0  0  0  0  0  0  0  0  0  0
    0.6824    5.8968    5.8290 H   0  0  0  0  0  0  0  0  0  0  0  0
    0.3607    6.1392    2.6705 H   0  0  0  0  0  0  0  0  0  0  0  0
   -0.2689    7.2089    3.9312 H   0  0  0  0  0  0  0  0  0  0  0  0
   -1.3850    6.3995    2.8168 H   0  0  0  0  0  0  0  0  0  0  0  0
   -1.6164    6.3275    5.7007 H   0  0  0  0  0  0  0  0  0  0  0  0
   -1.7692    4.5783    5.9353 H   0  0  0  0  0  0  0  0  0  0  0  0
   -2.6335    5.3706    4.6122 H   0  0  0  0  0  0  0  0  0  0  0  0
   -1.6462    4.0474    2.9082 H   0  0  0  0  0  0  0  0  0  0  0  0
   -1.0553    3.1252    4.2724 H   0  0  0  0  0  0  0  0  0  0  0  0
  1  2  1  1  0  0  0
  1  5  1  0  0  0  0
  1 17  1  0  0  0  0
  3 13  1  0  0  0  0
  3  1  1  0  0  0  0
  4 14  1  0  0  0  0
  4 16  1  0  0  0  0
  5 10  1  0  0  0  0
  6  7  1  0  0  0  0
  6  5  2  0  0  0  0
  7  8  2  0  0  0  0
  8 19  1  0  0  0  0
  8  9  1  0  0  0  0
  9 20  1  0  0  0  0
 10  9  2  0  0  0  0
 10 14  1  0  0  0  0
 11  3  1  0  0  0  0
 11  6  1  0  0  0  0
 12 25  1  0  0  0  0
 12  3  1  0  0  0  0
 13 26  1  0  0  0  0
 13 27  1  0  0  0  0
 14 29  1  0  0  0  0
 14 30  1  0  0  0  0
 15 32  1  0  0  0  0
 15  4  1  0  0  0  0
 16 34  1  0  0  0  0
 16 35  1  0  0  0  0
 17 38  1  0  0  0  0
 17  4  1  0  0  0  0
 18  7  1  0  0  0  0
 21 11  1  0  0  0  0
 22 11  1  0  0  0  0
 23 12  1  0  0  0  0
 24 12  1  0  0  0  0
 28 13  1  0  0  0  0
 31 15  1  0  0  0  0
 33 15  1  0  0  0  0
 36 16  1  0  0  0  0
 37 17  1  0  0  0  0
M  END
$$$$
