CSD_code = QEHPOI | q = 0 | S = 0 | Stoichiometry = C25H27BClN6O2PRu | MND = 6
 OpenBabel04212202083D

 64 70  0  0  1  0  0  0  0  0999 V2000
    2.5336    4.4063    3.3895 Ru  0  0  0  0  0  0  0  0  0  0  0  0
    0.5348    3.7402    4.4654 Cl  0  0  0  0  0  0  0  0  0  0  0  0
    3.1958    2.1826    3.5036 P   0  0  0  0  0  4  0  0  0  0  0  0
    3.7321    4.9677    6.0656 O   0  0  0  0  0  1  0  0  0  0  0  0
    1.2722   -1.4034    3.4141 O   0  0  0  0  0  0  0  0  0  0  0  0
    1.7255    5.1442    0.6257 N   0  0  0  0  0  0  0  0  0  0  0  0
    1.5329    4.2247    1.5792 N   0  0  2  0  0  0  0  0  0  0  0  0
    1.9932    7.0390    2.1417 N   0  0  0  0  0  0  0  0  0  0  0  0
    1.8431    6.3378    3.2678 N   0  0  1  0  0  0  0  0  0  0  0  0
    3.9992    5.8768    1.2846 N   0  0  0  0  0  0  0  0  0  0  0  0
    4.1605    5.0593    2.3236 N   0  0  1  0  0  0  0  0  0  0  0  0
    2.6008    6.3761    0.8945 B   0  0  1  0  0  0  0  0  0  0  0  0
    2.6357    7.1084   -0.0308 H   0  0  0  0  0  0  0  0  0  0  0  0
    0.5905    3.3953    1.1558 C   0  0  0  0  0  3  0  0  0  0  0  0
    0.2374    2.5918    1.7730 H   0  0  0  0  0  0  0  0  0  0  0  0
    0.1653    3.7769   -0.1165 C   0  0  0  0  0  0  0  0  0  0  0  0
   -0.5805    3.3057   -0.7222 H   0  0  0  0  0  0  0  0  0  0  0  0
    0.9120    4.8963   -0.4120 C   0  0  0  0  0  0  0  0  0  0  0  0
    0.9151    5.5248   -1.2793 H   0  0  0  0  0  0  0  0  0  0  0  0
    1.2134    7.0977    4.1494 C   0  0  0  0  0  3  0  0  0  0  0  0
    0.9779    6.7304    5.1313 H   0  0  0  0  0  0  0  0  0  0  0  0
    0.9421    8.3406    3.5767 C   0  0  0  0  0  0  0  0  0  0  0  0
    0.4438    9.1719    4.0304 H   0  0  0  0  0  0  0  0  0  0  0  0
    1.4544    8.2574    2.2998 C   0  0  0  0  0  0  0  0  0  0  0  0
    1.4675    8.9762    1.5057 H   0  0  0  0  0  0  0  0  0  0  0  0
    5.4570    4.8219    2.4621 C   0  0  0  0  0  3  0  0  0  0  0  0
    5.8225    4.1896    3.2497 H   0  0  0  0  0  0  0  0  0  0  0  0
    6.1630    5.5060    1.4739 C   0  0  0  0  0  0  0  0  0  0  0  0
    7.2214    5.5173    1.3172 H   0  0  0  0  0  0  0  0  0  0  0  0
    5.1939    6.1652    0.7476 C   0  0  0  0  0  0  0  0  0  0  0  0
    5.2793    6.8109   -0.1023 H   0  0  0  0  0  0  0  0  0  0  0  0
    3.3088    4.7282    5.0274 C   0  0  0  0  0  2  0  0  0  0  0  0
    4.4672    1.5718    2.3427 C   0  0  0  0  0  0  0  0  0  0  0  0
    4.4432    2.1051    1.0575 C   0  0  0  0  0  0  0  0  0  0  0  0
    3.7101    2.8645    0.8150 H   0  0  0  0  0  0  0  0  0  0  0  0
    5.3374    1.6714    0.0969 C   0  0  0  0  0  0  0  0  0  0  0  0
    5.3125    2.0957   -0.8961 H   0  0  0  0  0  0  0  0  0  0  0  0
    6.2656    0.6928    0.4124 C   0  0  0  0  0  0  0  0  0  0  0  0
    6.9700    0.3543   -0.3328 H   0  0  0  0  0  0  0  0  0  0  0  0
    6.2856    0.1442    1.6841 C   0  0  0  0  0  0  0  0  0  0  0  0
    7.0020   -0.6268    1.9278 H   0  0  0  0  0  0  0  0  0  0  0  0
    5.3899    0.5763    2.6468 C   0  0  0  0  0  0  0  0  0  0  0  0
    5.4099    0.1406    3.6355 H   0  0  0  0  0  0  0  0  0  0  0  0
    3.8458    1.8438    5.1669 C   0  0  0  0  0  0  0  0  0  0  0  0
    5.1959    1.9987    5.4690 C   0  0  0  0  0  0  0  0  0  0  0  0
    5.9024    2.2283    4.6824 H   0  0  0  0  0  0  0  0  0  0  0  0
    5.6366    1.8690    6.7737 C   0  0  0  0  0  0  0  0  0  0  0  0
    6.6867    1.9860    6.9992 H   0  0  0  0  0  0  0  0  0  0  0  0
    4.7333    1.6054    7.7896 C   0  0  0  0  0  0  0  0  0  0  0  0
    5.0797    1.5095    8.8080 H   0  0  0  0  0  0  0  0  0  0  0  0
    3.3830    1.4900    7.5009 C   0  0  0  0  0  0  0  0  0  0  0  0
    2.6736    1.3138    8.2959 H   0  0  0  0  0  0  0  0  0  0  0  0
    2.9365    1.6157    6.1985 C   0  0  0  0  0  0  0  0  0  0  0  0
    1.8792    1.5713    5.9788 H   0  0  0  0  0  0  0  0  0  0  0  0
    1.9200    0.8685    3.2661 C   0  0  0  0  0  0  0  0  0  0  0  0
    1.0375    1.1526    3.8478 H   0  0  0  0  0  0  0  0  0  0  0  0
    1.6464    0.8801    2.2063 H   0  0  0  0  0  0  0  0  0  0  0  0
    2.3639   -0.5402    3.6374 C   0  0  0  0  0  0  0  0  0  0  0  0
    3.2194   -0.8543    3.0166 H   0  0  0  0  0  0  0  0  0  0  0  0
    2.6734   -0.5882    4.6935 H   0  0  0  0  0  0  0  0  0  0  0  0
    1.5439   -2.7343    3.7645 C   0  0  0  0  0  0  0  0  0  0  0  0
    0.6395   -3.3017    3.5562 H   0  0  0  0  0  0  0  0  0  0  0  0
    1.7945   -2.8225    4.8293 H   0  0  0  0  0  0  0  0  0  0  0  0
    2.3756   -3.1403    3.1741 H   0  0  0  0  0  0  0  0  0  0  0  0
  1  3  1  0  0  0  0
  1  2  1  0  0  0  0
  1 32  1  0  0  0  0
  3 44  1  0  0  0  0
  5 58  1  0  0  0  0
  5 61  1  0  0  0  0
  6 12  1  0  0  0  0
  6  7  1  0  0  0  0
  7 14  1  1  0  0  0
  7  1  1  0  0  0  0
  8 24  1  0  0  0  0
  8  9  1  0  0  0  0
  9  1  1  0  0  0  0
  9 20  1  6  0  0  0
 10 11  1  0  0  0  0
 11 26  1  1  0  0  0
 11  1  1  0  0  0  0
 12 13  1  6  0  0  0
 12 10  1  0  0  0  0
 12  8  1  0  0  0  0
 14 15  1  0  0  0  0
 16 14  1  0  0  0  0
 17 16  1  0  0  0  0
 18 16  2  0  0  0  0
 18  6  1  0  0  0  0
 19 18  1  0  0  0  0
 20 21  1  0  0  0  0
 22 23  1  0  0  0  0
 22 20  1  0  0  0  0
 24 22  2  0  0  0  0
 25 24  1  0  0  0  0
 26 27  1  0  0  0  0
 28 26  1  0  0  0  0
 29 28  1  0  0  0  0
 30 10  1  0  0  0  0
 30 28  2  0  0  0  0
 31 30  1  0  0  0  0
 32  4  1  0  0  0  0
 33 42  1  0  0  0  0
 33  3  1  0  0  0  0
 34 33  2  0  0  0  0
 35 34  1  0  0  0  0
 36 38  2  0  0  0  0
 36 34  1  0  0  0  0
 37 36  1  0  0  0  0
 38 40  1  0  0  0  0
 39 38  1  0  0  0  0
 40 41  1  0  0  0  0
 40 42  2  0  0  0  0
 42 43  1  0  0  0  0
 44 45  2  0  0  0  0
 44 53  1  0  0  0  0
 45 47  1  0  0  0  0
 46 45  1  0  0  0  0
 47 48  1  0  0  0  0
 47 49  2  0  0  0  0
 49 50  1  0  0  0  0
 51 49  1  0  0  0  0
 51 52  1  0  0  0  0
 53 51  2  0  0  0  0
 54 53  1  0  0  0  0
 55  3  1  0  0  0  0
 55 58  1  0  0  0  0
 55 56  1  0  0  0  0
 57 55  1  0  0  0  0
 58 60  1  0  0  0  0
 59 58  1  0  0  0  0
 61 63  1  0  0  0  0
 62 61  1  0  0  0  0
 64 61  1  0  0  0  0
M  END
$$$$
