CSD_code = QEHZOS | q = 1 | S = 0 | Stoichiometry = C17H24ClN4Pt(1+) | MND = 6
 OpenBabel04212202083D

 47 50  0  0  1  0  0  0  0  0999 V2000
    0.9522    8.2853   10.4389 Pt  0  0  0  0  0  0  0  0  0  0  0  0
    0.8400    9.6754    8.8179 N   0  0  0  0  0  0  0  0  0  0  0  0
    1.8029   10.3532    8.2143 C   0  0  0  0  0  3  0  0  0  0  0  0
    2.8196   10.0632    8.4425 H   0  0  0  0  0  0  0  0  0  0  0  0
    1.5479   11.3876    7.3243 C   0  0  0  0  0  0  0  0  0  0  0  0
    2.3673   11.9145    6.8633 H   0  0  0  0  0  0  0  0  0  0  0  0
    0.2317   11.7261    7.0518 C   0  0  0  0  0  0  0  0  0  0  0  0
   -0.0042   12.5332    6.3762 H   0  0  0  0  0  0  0  0  0  0  0  0
   -0.7775   11.0003    7.6620 C   0  0  0  0  0  0  0  0  0  0  0  0
   -1.8151   11.2240    7.4697 H   0  0  0  0  0  0  0  0  0  0  0  0
   -0.4412    9.9723    8.5422 C   0  0  0  0  0  0  0  0  0  0  0  0
   -1.4816    9.1839    9.1831 C   0  0  0  0  0  3  0  0  0  0  0  0
   -2.5121    9.4414    8.9275 H   0  0  0  0  0  0  0  0  0  0  0  0
   -1.2112    8.2408    9.9897 N   0  0  2  0  0  0  0  0  0  0  0  0
   -2.2849    7.5093   10.6072 C   0  0  0  0  0  0  0  0  0  0  0  0
   -2.0506    6.4428   10.5479 H   0  0  0  0  0  0  0  0  0  0  0  0
   -3.2210    7.6904   10.0629 H   0  0  0  0  0  0  0  0  0  0  0  0
   -2.4924    7.9208   12.0766 C   0  0  0  0  0  0  0  0  0  0  0  0
   -2.3562    9.0005   12.1640 H   0  0  0  0  0  0  0  0  0  0  0  0
   -3.5261    7.6926   12.3374 H   0  0  0  0  0  0  0  0  0  0  0  0
   -1.5974    7.2191   13.0958 C   0  0  0  0  0  0  0  0  0  0  0  0
   -1.9625    7.4767   14.0928 H   0  0  0  0  0  0  0  0  0  0  0  0
   -1.6621    6.1334   12.9816 H   0  0  0  0  0  0  0  0  0  0  0  0
   -0.1928    7.6354   13.0090 N   0  0  0  0  0  4  0  0  0  0  0  0
    0.3688    7.4569   13.9002 H   0  0  0  0  0  0  0  0  0  0  0  0
   -0.1333    8.6879   12.8085 H   0  0  0  0  0  0  0  0  0  0  0  0
    0.6781    6.9475   12.0149 C   0  0  2  0  0  0  0  0  0  0  0  0
    0.1317    6.0890   11.5967 H   0  0  0  0  0  0  0  0  0  0  0  0
    1.8475    6.4098   12.7929 C   0  0  0  0  0  0  0  0  0  0  0  0
    2.8497    5.6076   12.2573 C   0  0  0  0  0  0  0  0  0  0  0  0
    2.8412    5.3453   11.2130 H   0  0  0  0  0  0  0  0  0  0  0  0
    3.8598    5.1640   13.0950 C   0  0  0  0  0  0  0  0  0  0  0  0
    4.6509    4.5411   12.7073 H   0  0  0  0  0  0  0  0  0  0  0  0
    3.8438    5.5240   14.4354 C   0  0  0  0  0  0  0  0  0  0  0  0
    4.6164    5.1982   15.1115 H   0  0  0  0  0  0  0  0  0  0  0  0
    2.7963    6.3086   14.8871 C   0  0  0  0  0  0  0  0  0  0  0  0
    2.7139    6.6108   15.9219 H   0  0  0  0  0  0  0  0  0  0  0  0
    1.8306    6.7294   14.0886 N   0  0  0  0  0  0  0  0  0  0  0  0
    2.9302    8.5902   10.9337 C   0  0  0  0  0  0  0  0  0  0  0  0
    3.6133    7.8329   10.5546 H   0  0  0  0  0  0  0  0  0  0  0  0
    3.0278    8.6362   12.0186 H   0  0  0  0  0  0  0  0  0  0  0  0
    3.2214    9.5644   10.5390 H   0  0  0  0  0  0  0  0  0  0  0  0
    1.4144    6.7961    9.0702 C   0  0  0  0  0  0  0  0  0  0  0  0
    0.6405    6.8332    8.3009 H   0  0  0  0  0  0  0  0  0  0  0  0
    1.4232    5.7973    9.4965 H   0  0  0  0  0  0  0  0  0  0  0  0
    2.3780    6.9827    8.5992 H   0  0  0  0  0  0  0  0  0  0  0  0
    0.3092   10.2652   11.8647 Cl  0  0  0  0  0  0  0  0  0  0  0  0
  1 39  1  0  0  0  0
  1 47  1  0  0  0  0
  1 27  1  0  0  0  0
  2  1  1  0  0  0  0
  3  4  1  0  0  0  0
  3  2  1  0  0  0  0
  5  3  1  0  0  0  0
  6  5  1  0  0  0  0
  7  5  2  0  0  0  0
  7  9  1  0  0  0  0
  8  7  1  0  0  0  0
  9 11  2  0  0  0  0
 10  9  1  0  0  0  0
 11  2  1  0  0  0  0
 11 12  1  0  0  0  0
 13 12  1  0  0  0  0
 14 12  1  1  0  0  0
 14  1  1  0  0  0  0
 14 15  1  0  0  0  0
 15 18  1  0  0  0  0
 16 15  1  0  0  0  0
 17 15  1  0  0  0  0
 18 19  1  0  0  0  0
 18 20  1  0  0  0  0
 18 21  1  0  0  0  0
 21 22  1  0  0  0  0
 23 21  1  0  0  0  0
 24 21  1  0  0  0  0
 24 25  1  0  0  0  0
 26 24  1  0  0  0  0
 27 28  1  6  0  0  0
 27 29  1  0  0  0  0
 27 24  1  0  0  0  0
 29 38  1  0  0  0  0
 30 29  2  0  0  0  0
 30 32  1  0  0  0  0
 31 30  1  0  0  0  0
 32 34  2  0  0  0  0
 33 32  1  0  0  0  0
 34 36  1  0  0  0  0
 34 35  1  0  0  0  0
 36 37  1  0  0  0  0
 38 36  2  0  0  0  0
 39 41  1  0  0  0  0
 40 39  1  0  0  0  0
 42 39  1  0  0  0  0
 43 45  1  0  0  0  0
 43  1  1  0  0  0  0
 44 43  1  0  0  0  0
 46 43  1  0  0  0  0
M  END
$$$$
