CSD_code = QEJNUQ | q = 0 | S = 0 | Stoichiometry = C15H20I2N2Pt | MND = 6
 OpenBabel04212202083D

 40 42  0  0  1  0  0  0  0  0999 V2000
    6.9167   11.9335    4.3916 Pt  0  0  0  0  0  0  0  0  0  0  0  0
    6.2051   10.3729    2.3161 I   0  0  0  0  0  0  0  0  0  0  0  0
    8.9621   10.1722    5.0950 I   0  0  0  0  0  0  0  0  0  0  0  0
    8.0682   13.0608    3.0776 C   0  0  0  0  0  0  0  0  0  0  0  0
    7.5336   13.2381    2.1435 H   0  0  0  0  0  0  0  0  0  0  0  0
    8.9754   12.5025    2.8299 H   0  0  0  0  0  0  0  0  0  0  0  0
    8.3509   14.0386    3.4783 H   0  0  0  0  0  0  0  0  0  0  0  0
    5.3328   13.1929    3.8980 C   0  0  0  0  0  0  0  0  0  0  0  0
    5.5042   14.2224    4.2149 H   0  0  0  0  0  0  0  0  0  0  0  0
    4.4342   12.8070    4.3851 H   0  0  0  0  0  0  0  0  0  0  0  0
    5.1450   13.2064    2.8264 H   0  0  0  0  0  0  0  0  0  0  0  0
    5.6960   10.7728    5.8691 N   0  0  0  0  0  0  0  0  0  0  0  0
    5.3549    9.4946    5.7744 C   0  0  0  0  0  3  0  0  0  0  0  0
    5.5027    9.0193    4.8141 H   0  0  0  0  0  0  0  0  0  0  0  0
    4.8432    8.7794    6.8422 C   0  0  0  0  0  0  0  0  0  0  0  0
    4.5840    7.7408    6.7187 H   0  0  0  0  0  0  0  0  0  0  0  0
    4.6894    9.4237    8.0585 C   0  0  0  0  0  0  0  0  0  0  0  0
    4.3035    8.8984    8.9191 H   0  0  0  0  0  0  0  0  0  0  0  0
    5.0495   10.7572    8.1540 C   0  0  0  0  0  0  0  0  0  0  0  0
    4.9515   11.2941    9.0853 H   0  0  0  0  0  0  0  0  0  0  0  0
    5.5515   11.4044    7.0338 C   0  0  0  0  0  0  0  0  0  0  0  0
    5.9500   12.8519    7.0554 C   0  0  0  0  0  0  0  0  0  0  0  0
    6.0755   13.1862    8.0915 H   0  0  0  0  0  0  0  0  0  0  0  0
    5.1241   13.4209    6.6205 H   0  0  0  0  0  0  0  0  0  0  0  0
    7.2525   13.0592    6.2799 C   0  0  2  0  0  0  0  0  0  0  0  0
    8.0248   12.4379    6.7363 H   0  0  0  0  0  0  0  0  0  0  0  0
    7.6856   14.4069    6.0811 C   0  0  2  0  0  3  0  0  0  0  0  0
    6.7867   15.5046    6.0493 C   0  0  0  0  0  0  0  0  0  0  0  0
    5.7470   15.3252    6.2623 H   0  0  0  0  0  0  0  0  0  0  0  0
    7.2000   16.7716    5.7546 C   0  0  0  0  0  0  0  0  0  0  0  0
    6.4944   17.5867    5.7273 H   0  0  0  0  0  0  0  0  0  0  0  0
    8.5584   17.0047    5.4919 C   0  0  0  0  0  0  0  0  0  0  0  0
    8.9221   17.9868    5.2446 H   0  0  0  0  0  0  0  0  0  0  0  0
    9.4172   15.9482    5.5707 C   0  0  0  0  0  0  0  0  0  0  0  0
   10.4747   16.0746    5.3945 H   0  0  0  0  0  0  0  0  0  0  0  0
    9.0116   14.7002    5.8723 N   0  0  0  0  0  0  0  0  0  0  0  0
   10.0072   13.6585    5.9461 C   0  0  0  0  0  0  0  0  0  0  0  0
   10.0148   13.1998    6.9364 H   0  0  0  0  0  0  0  0  0  0  0  0
   10.9930   14.0692    5.7455 H   0  0  0  0  0  0  0  0  0  0  0  0
    9.7989   12.8762    5.2126 H   0  0  0  0  0  0  0  0  0  0  0  0
  1  3  1  0  0  0  0
  1 12  1  0  0  0  0
  1 25  1  0  0  0  0
  2  1  1  0  0  0  0
  4  7  1  0  0  0  0
  4  1  1  0  0  0  0
  5  4  1  0  0  0  0
  6  4  1  0  0  0  0
  8  9  1  0  0  0  0
  8 10  1  0  0  0  0
  8  1  1  0  0  0  0
 11  8  1  0  0  0  0
 12 21  1  0  0  0  0
 13 12  1  0  0  0  0
 13 15  1  0  0  0  0
 14 13  1  0  0  0  0
 15 17  2  0  0  0  0
 16 15  1  0  0  0  0
 17 19  1  0  0  0  0
 17 18  1  0  0  0  0
 19 20  1  0  0  0  0
 21 22  1  0  0  0  0
 21 19  2  0  0  0  0
 22 23  1  0  0  0  0
 24 22  1  0  0  0  0
 25 26  1  1  0  0  0
 25 22  1  0  0  0  0
 27 28  1  6  0  0  0
 27 25  1  0  0  0  0
 28 29  1  0  0  0  0
 30 28  2  0  0  0  0
 31 30  1  0  0  0  0
 32 34  2  0  0  0  0
 32 30  1  0  0  0  0
 33 32  1  0  0  0  0
 34 36  1  0  0  0  0
 35 34  1  0  0  0  0
 36 37  1  0  0  0  0
 36 27  1  0  0  0  0
 37 38  1  0  0  0  0
 39 37  1  0  0  0  0
 40 37  1  0  0  0  0
M  END
$$$$
