CSD_code = QEJYIN | q = 0 | S = 0 | Stoichiometry = C27H25BCl2N6OPRe | MND = 6
 OpenBabel04212202083D

 64 71  0  0  1  0  0  0  0  0999 V2000
   -2.2799   -4.4742   -4.6463 Re  0  0  0  0  0  0  0  0  0  0  0  0
   -0.9781   -5.6623   -3.2187 Cl  0  0  0  0  0  0  0  0  0  0  0  0
   -0.6337   -3.4303   -5.7991 Cl  0  0  0  0  0  0  0  0  0  0  0  0
   -2.7593   -1.8285   -2.1909 P   0  0  0  0  0  4  0  0  0  0  0  0
   -2.0986   -2.7531   -3.1390 O   0  0  0  0  0  0  0  0  0  0  0  0
   -3.7778   -6.3018   -6.4378 N   0  0  0  0  0  0  0  0  0  0  0  0
   -2.5480   -5.9901   -6.0012 N   0  0  1  0  0  0  0  0  0  0  0  0
   -4.7984   -4.0555   -6.2530 N   0  0  0  0  0  0  0  0  0  0  0  0
   -3.7071   -3.4407   -5.7868 N   0  0  2  0  0  0  0  0  0  0  0  0
   -5.0485   -5.6565   -4.4129 N   0  0  0  0  0  0  0  0  0  0  0  0
   -3.9909   -5.2520   -3.7024 N   0  0  1  0  0  0  0  0  0  0  0  0
   -1.6821   -6.8008   -6.5928 C   0  0  0  0  0  3  0  0  0  0  0  0
   -2.3662   -7.6690   -7.4424 C   0  0  0  0  0  0  0  0  0  0  0  0
   -3.6917   -7.3171   -7.3125 C   0  0  0  0  0  0  0  0  0  0  0  0
   -3.7506   -2.1735   -6.1826 C   0  0  0  0  0  3  0  0  0  0  0  0
   -4.9102   -1.9588   -6.9242 C   0  0  0  0  0  0  0  0  0  0  0  0
   -5.5469   -3.1836   -6.9405 C   0  0  0  0  0  0  0  0  0  0  0  0
   -4.2492   -5.4766   -2.4201 C   0  0  0  0  0  3  0  0  0  0  0  0
   -5.5171   -6.0373   -2.2936 C   0  0  0  0  0  0  0  0  0  0  0  0
   -5.9894   -6.1307   -3.5869 C   0  0  0  0  0  0  0  0  0  0  0  0
   -4.5168   -2.2408   -1.9337 C   0  0  0  0  0  0  0  0  0  0  0  0
   -5.3452   -2.1581   -3.0461 C   0  0  0  0  0  0  0  0  0  0  0  0
   -6.6586   -2.5796   -2.9645 C   0  0  0  0  0  0  0  0  0  0  0  0
   -7.1505   -3.0706   -1.7651 C   0  0  0  0  0  0  0  0  0  0  0  0
   -6.3303   -3.1370   -0.6510 C   0  0  0  0  0  0  0  0  0  0  0  0
   -5.0097   -2.7301   -0.7337 C   0  0  0  0  0  0  0  0  0  0  0  0
   -2.7185   -0.1315   -2.8328 C   0  0  0  0  0  0  0  0  0  0  0  0
   -3.6142    0.8484   -2.4269 C   0  0  0  0  0  0  0  0  0  0  0  0
   -3.5241    2.1196   -2.9648 C   0  0  0  0  0  0  0  0  0  0  0  0
   -2.5467    2.4094   -3.9044 C   0  0  0  0  0  0  0  0  0  0  0  0
   -1.6573    1.4286   -4.3135 C   0  0  0  0  0  0  0  0  0  0  0  0
   -1.7412    0.1565   -3.7767 C   0  0  0  0  0  0  0  0  0  0  0  0
   -1.9308   -1.8795   -0.5800 C   0  0  0  0  0  0  0  0  0  0  0  0
   -2.1734   -0.9308    0.4053 C   0  0  0  0  0  0  0  0  0  0  0  0
   -1.5105   -1.0209    1.6153 C   0  0  0  0  0  0  0  0  0  0  0  0
   -0.6107   -2.0525    1.8390 C   0  0  0  0  0  0  0  0  0  0  0  0
   -0.3683   -2.9956    0.8536 C   0  0  0  0  0  0  0  0  0  0  0  0
   -1.0266   -2.9105   -0.3606 C   0  0  0  0  0  0  0  0  0  0  0  0
   -5.0204   -5.5457   -5.9470 B   0  0  2  0  0  0  0  0  0  0  0  0
   -6.0124   -5.9545   -6.4374 H   0  0  0  0  0  0  0  0  0  0  0  0
   -0.6321   -6.7257   -6.3875 H   0  0  0  0  0  0  0  0  0  0  0  0
   -1.9499   -8.4382   -8.0585 H   0  0  0  0  0  0  0  0  0  0  0  0
   -4.5665   -7.7197   -7.7809 H   0  0  0  0  0  0  0  0  0  0  0  0
   -2.9593   -1.4915   -5.9364 H   0  0  0  0  0  0  0  0  0  0  0  0
   -5.2310   -1.0458   -7.3815 H   0  0  0  0  0  0  0  0  0  0  0  0
   -6.4705   -3.4810   -7.3936 H   0  0  0  0  0  0  0  0  0  0  0  0
   -3.5214   -5.2507   -1.6647 H   0  0  0  0  0  0  0  0  0  0  0  0
   -6.0111   -6.3340   -1.3920 H   0  0  0  0  0  0  0  0  0  0  0  0
   -6.9212   -6.5018   -3.9621 H   0  0  0  0  0  0  0  0  0  0  0  0
   -4.9472   -1.7604   -3.9703 H   0  0  0  0  0  0  0  0  0  0  0  0
   -7.2974   -2.5267   -3.8340 H   0  0  0  0  0  0  0  0  0  0  0  0
   -8.1758   -3.4025   -1.6995 H   0  0  0  0  0  0  0  0  0  0  0  0
   -6.7178   -3.5153    0.2833 H   0  0  0  0  0  0  0  0  0  0  0  0
   -4.3609   -2.7932    0.1288 H   0  0  0  0  0  0  0  0  0  0  0  0
   -4.3848    0.6102   -1.7064 H   0  0  0  0  0  0  0  0  0  0  0  0
   -4.2197    2.8857   -2.6547 H   0  0  0  0  0  0  0  0  0  0  0  0
   -2.4829    3.4032   -4.3224 H   0  0  0  0  0  0  0  0  0  0  0  0
   -0.9013    1.6543   -5.0507 H   0  0  0  0  0  0  0  0  0  0  0  0
   -1.0647   -0.6280   -4.0877 H   0  0  0  0  0  0  0  0  0  0  0  0
   -2.8737   -0.1285    0.2200 H   0  0  0  0  0  0  0  0  0  0  0  0
   -1.6928   -0.2857    2.3855 H   0  0  0  0  0  0  0  0  0  0  0  0
   -0.0950   -2.1167    2.7858 H   0  0  0  0  0  0  0  0  0  0  0  0
    0.3346   -3.7961    1.0286 H   0  0  0  0  0  0  0  0  0  0  0  0
   -0.8451   -3.6323   -1.1455 H   0  0  0  0  0  0  0  0  0  0  0  0
  1 11  1  0  0  0  0
  1  2  1  0  0  0  0
  1  5  1  0  0  0  0
  3  1  1  0  0  0  0
  4 21  1  0  0  0  0
  4 33  1  0  0  0  0
  5  4  1  0  0  0  0
  6  7  1  0  0  0  0
  6 39  1  0  0  0  0
  7 12  1  6  0  0  0
  7  1  1  0  0  0  0
  8 39  1  0  0  0  0
  8  9  1  0  0  0  0
  9 15  1  6  0  0  0
  9  1  1  0  0  0  0
 10 11  1  0  0  0  0
 10 20  1  0  0  0  0
 11 18  1  6  0  0  0
 12 41  1  0  0  0  0
 13 14  2  0  0  0  0
 13 12  1  0  0  0  0
 14  6  1  0  0  0  0
 15 44  1  0  0  0  0
 16 15  1  0  0  0  0
 17 16  2  0  0  0  0
 17  8  1  0  0  0  0
 18 19  1  0  0  0  0
 18 47  1  0  0  0  0
 19 48  1  0  0  0  0
 20 19  2  0  0  0  0
 21 26  1  0  0  0  0
 22 23  1  0  0  0  0
 22 21  2  0  0  0  0
 23 24  2  0  0  0  0
 24 52  1  0  0  0  0
 24 25  1  0  0  0  0
 25 53  1  0  0  0  0
 26 25  2  0  0  0  0
 26 54  1  0  0  0  0
 27 28  1  0  0  0  0
 27  4  1  0  0  0  0
 28 55  1  0  0  0  0
 29 56  1  0  0  0  0
 29 28  2  0  0  0  0
 30 29  1  0  0  0  0
 31 30  2  0  0  0  0
 31 32  1  0  0  0  0
 32 27  2  0  0  0  0
 33 38  2  0  0  0  0
 33 34  1  0  0  0  0
 34 35  2  0  0  0  0
 35 36  1  0  0  0  0
 35 61  1  0  0  0  0
 36 62  1  0  0  0  0
 37 63  1  0  0  0  0
 37 36  2  0  0  0  0
 38 37  1  0  0  0  0
 39 40  1  6  0  0  0
 39 10  1  0  0  0  0
 42 13  1  0  0  0  0
 43 14  1  0  0  0  0
 45 16  1  0  0  0  0
 46 17  1  0  0  0  0
 49 20  1  0  0  0  0
 50 22  1  0  0  0  0
 51 23  1  0  0  0  0
 57 30  1  0  0  0  0
 58 31  1  0  0  0  0
 59 32  1  0  0  0  0
 60 34  1  0  0  0  0
 64 38  1  0  0  0  0
M  END
$$$$
