CSD_code = QEKHUJ | q = 0 | S = 0 | Stoichiometry = C9H13CdI2N5O | MND = 5
 OpenBabel04212202083D

 31 33  0  0  1  0  0  0  0  0999 V2000
    6.7418    1.1570    3.7266 Cd  0  0  0  0  0  0  0  0  0  0  0  0
    9.3641    1.8707    3.8215 I   0  0  0  0  0  0  0  0  0  0  0  0
    5.5439   -1.2170    3.5884 I   0  0  0  0  0  0  0  0  0  0  0  0
    6.6572    4.0780    5.1587 N   0  0  0  0  0  0  0  0  0  0  0  0
    6.1922    3.6013    4.0147 N   0  0  0  0  0  0  0  0  0  0  0  0
    8.8842    4.3724    6.7017 N   0  0  0  0  0  0  0  0  0  0  0  0
    7.9784    3.3313    6.9609 N   0  0  0  0  0  0  0  0  0  0  0  0
    5.6023    2.2581    1.7745 N   0  0  0  0  0  0  0  0  0  0  0  0
    6.4457    1.9777    5.9983 O   0  0  0  0  0  0  0  0  0  0  0  0
    7.0153    3.0605    6.0555 C   0  0  1  0  0  3  0  0  0  0  0  0
    5.8155    4.2928    3.0110 C   0  0  0  0  0  0  0  0  0  0  0  0
    6.7235    5.4950    5.4408 C   0  0  0  0  0  0  0  0  0  0  0  0
    8.4335    2.2437    7.8109 C   0  0  0  0  0  0  0  0  0  0  0  0
    5.4159    3.5850    1.8061 C   0  0  0  0  0  0  0  0  0  0  0  0
    5.2298    1.5848    0.6988 C   0  0  0  0  0  0  0  0  0  0  0  0
    4.6615    2.1883   -0.4141 C   0  0  0  0  0  0  0  0  0  0  0  0
    4.4816    3.5630   -0.3996 C   0  0  0  0  0  0  0  0  0  0  0  0
    4.8631    4.2731    0.7239 C   0  0  0  0  0  0  0  0  0  0  0  0
    9.6284    4.0409    6.0819 H   0  0  0  0  0  0  0  0  0  0  0  0
    9.3035    4.6686    7.5786 H   0  0  0  0  0  0  0  0  0  0  0  0
    5.7809    5.3809    2.9849 H   0  0  0  0  0  0  0  0  0  0  0  0
    7.5250    5.9689    4.8715 H   0  0  0  0  0  0  0  0  0  0  0  0
    6.9053    5.6396    6.4992 H   0  0  0  0  0  0  0  0  0  0  0  0
    5.7661    5.9514    5.1775 H   0  0  0  0  0  0  0  0  0  0  0  0
    7.6121    1.5459    7.9535 H   0  0  0  0  0  0  0  0  0  0  0  0
    8.7410    2.6530    8.7735 H   0  0  0  0  0  0  0  0  0  0  0  0
    9.2748    1.7190    7.3480 H   0  0  0  0  0  0  0  0  0  0  0  0
    5.3901    0.5132    0.7254 H   0  0  0  0  0  0  0  0  0  0  0  0
    4.3729    1.5946   -1.2660 H   0  0  0  0  0  0  0  0  0  0  0  0
    4.0483    4.0720   -1.2476 H   0  0  0  0  0  0  0  0  0  0  0  0
    4.7334    5.3434    0.7761 H   0  0  0  0  0  0  0  0  0  0  0  0
  1  2  1  0  0  0  0
  1  5  1  0  0  0  0
  1  9  1  0  0  0  0
  3  1  1  0  0  0  0
  4 12  1  0  0  0  0
  4 10  1  0  0  0  0
  5  4  1  0  0  0  0
  6  7  1  0  0  0  0
  6 20  1  0  0  0  0
  7 13  1  0  0  0  0
  8 14  1  0  0  0  0
  8  1  1  0  0  0  0
  9 10  1  0  0  0  0
 10  7  1  1  0  0  0
 11  5  1  0  0  0  0
 12 23  1  0  0  0  0
 13 25  1  0  0  0  0
 13 26  1  0  0  0  0
 14 11  2  0  0  0  0
 15 28  1  0  0  0  0
 15  8  1  0  0  0  0
 16 17  1  0  0  0  0
 16 15  2  0  0  0  0
 17 18  2  0  0  0  0
 18 31  1  0  0  0  0
 18 14  1  0  0  0  0
 19  6  1  0  0  0  0
 21 11  1  0  0  0  0
 22 12  1  0  0  0  0
 24 12  1  0  0  0  0
 27 13  1  0  0  0  0
 29 16  1  0  0  0  0
 30 17  1  0  0  0  0
M  END
$$$$
