CSD_code = QEKQIH | q = 0 | S = 0 | Stoichiometry = C28H24Cl2N8Ru | MND = 6
 OpenBabel04212202083D

 63 70  0  0  1  0  0  0  0  0999 V2000
   13.3401    6.1718    0.0002 Ru  0  0  0  0  0  0  0  0  0  0  0  0
   15.5119    6.4493    1.0367 Cl  0  0  0  0  0  0  0  0  0  0  0  0
   12.4833    5.8974    1.8087 N   0  0  0  0  0  0  0  0  0  0  0  0
   11.2648    5.3297    1.8820 N   0  0  0  0  0  0  0  0  0  0  0  0
   13.0309    8.1712    0.1571 N   0  0  0  0  0  0  0  0  0  0  0  0
   13.8875    8.9099    0.8855 N   0  0  0  0  0  0  0  0  0  0  0  0
   12.8987    6.1380    3.0353 C   0  0  0  0  0  0  0  0  0  0  0  0
   11.9169    5.7274    3.9656 C   0  0  0  0  0  0  0  0  0  0  0  0
   11.8004    5.7316    5.3589 C   0  0  0  0  0  0  0  0  0  0  0  0
   10.6443    5.2341    5.9089 C   0  0  0  0  0  0  0  0  0  0  0  0
    9.6056    4.7345    5.1099 C   0  0  0  0  0  0  0  0  0  0  0  0
    9.6921    4.7156    3.7369 C   0  0  0  0  0  0  0  0  0  0  0  0
   10.8594    5.2189    3.1693 C   0  0  2  0  0  3  0  0  0  0  0  0
   12.0890    8.9693   -0.3021 C   0  0  0  0  0  0  0  0  0  0  0  0
   12.3261   10.2933    0.1318 C   0  0  0  0  0  0  0  0  0  0  0  0
   11.6880   11.5264   -0.0337 C   0  0  0  0  0  3  0  0  0  0  0  0
   12.2494   12.6266    0.5668 C   0  0  0  0  0  0  0  0  0  0  0  0
   13.4257   12.5307    1.3251 C   0  0  0  0  0  0  0  0  0  0  0  0
   14.0760   11.3322    1.5056 C   0  0  0  0  0  0  0  0  0  0  0  0
   13.5149   10.2102    0.9007 C   0  0  0  0  0  0  0  0  0  0  0  0
   13.8631    6.5696    3.2275 H   0  0  0  0  0  0  0  0  0  0  0  0
   12.5996    6.1151    5.9741 H   0  0  0  0  0  0  0  0  0  0  0  0
   10.5237    5.2237    6.9819 H   0  0  0  0  0  0  0  0  0  0  0  0
    8.7162    4.3555    5.5906 H   0  0  0  0  0  0  0  0  0  0  0  0
    8.8939    4.3323    3.1209 H   0  0  0  0  0  0  0  0  0  0  0  0
   11.2840    8.6019   -0.9102 H   0  0  0  0  0  0  0  0  0  0  0  0
   10.7828   11.6009   -0.6163 H   0  0  0  0  0  0  0  0  0  0  0  0
   11.7804   13.5931    0.4582 H   0  0  0  0  0  0  0  0  0  0  0  0
   13.8270   13.4255    1.7770 H   0  0  0  0  0  0  0  0  0  0  0  0
   14.9805   11.2564    2.0883 H   0  0  0  0  0  0  0  0  0  0  0  0
   10.7466    5.2011    1.0112 H   0  0  0  0  0  0  0  0  0  0  0  0
   14.7148    8.4411    1.2618 H   0  0  0  0  0  0  0  0  0  0  0  0
   11.1668    5.8941   -1.0349 Cl  0  0  0  0  0  0  0  0  0  0  0  0
   14.1957    6.4467   -1.8093 N   0  0  0  0  0  0  0  0  0  0  0  0
   15.4192    7.0036   -1.8822 N   0  0  0  0  0  0  0  0  0  0  0  0
   13.6483    4.1722   -0.1574 N   0  0  0  0  0  0  0  0  0  0  0  0
   12.7898    3.4330   -0.8830 N   0  0  0  0  0  0  0  0  0  0  0  0
   13.7760    6.2154   -3.0362 C   0  0  0  0  0  0  0  0  0  0  0  0
   14.7596    6.6220   -3.9663 C   0  0  0  0  0  0  0  0  0  0  0  0
   14.8734    6.6238   -5.3599 C   0  0  0  0  0  3  0  0  0  0  0  0
   16.0326    7.1142   -5.9097 C   0  0  0  0  0  0  0  0  0  0  0  0
   17.0772    7.6006   -5.1102 C   0  0  0  0  0  0  0  0  0  0  0  0
   16.9936    7.6134   -3.7370 C   0  0  0  0  0  0  0  0  0  0  0  0
   15.8229    7.1176   -3.1696 C   0  0  0  0  0  0  0  0  0  0  0  0
   14.5917    3.3746    0.2994 C   0  0  0  0  0  0  0  0  0  0  0  0
   14.3537    2.0503   -0.1333 C   0  0  0  0  0  0  0  0  0  0  0  0
   14.9926    0.8174    0.0309 C   0  0  0  0  0  0  0  0  0  0  0  0
   14.4296   -0.2832   -0.5673 C   0  0  0  0  0  0  0  0  0  0  0  0
   13.2509   -0.1880   -1.3220 C   0  0  0  0  0  0  0  0  0  0  0  0
   12.6000    1.0104   -1.5014 C   0  0  0  0  0  0  0  0  0  0  0  0
   13.1627    2.1328   -0.8989 C   0  0  2  0  0  3  0  0  0  0  0  0
   12.8078    5.7927   -3.2284 H   0  0  0  0  0  0  0  0  0  0  0  0
   14.0697    6.2504   -5.9755 H   0  0  0  0  0  0  0  0  0  0  0  0
   16.1512    7.1291   -6.9828 H   0  0  0  0  0  0  0  0  0  0  0  0
   17.9689    7.9744   -5.5908 H   0  0  0  0  0  0  0  0  0  0  0  0
   17.7962    7.9867   -3.1206 H   0  0  0  0  0  0  0  0  0  0  0  0
   15.3984    3.7423    0.9050 H   0  0  0  0  0  0  0  0  0  0  0  0
   15.8995    0.7434    0.6108 H   0  0  0  0  0  0  0  0  0  0  0  0
   14.8991   -1.2495   -0.4595 H   0  0  0  0  0  0  0  0  0  0  0  0
   12.8484   -1.0831   -1.7721 H   0  0  0  0  0  0  0  0  0  0  0  0
   11.6936    1.0857   -2.0813 H   0  0  0  0  0  0  0  0  0  0  0  0
   15.9383    7.1280   -1.0113 H   0  0  0  0  0  0  0  0  0  0  0  0
   11.9625    3.9020   -1.2592 H   0  0  0  0  0  0  0  0  0  0  0  0
  1  5  1  0  0  0  0
  1  2  1  0  0  0  0
  1  3  1  0  0  0  0
  3  4  1  0  0  0  0
  3  7  1  0  0  0  0
  4 13  1  0  0  0  0
  5  6  1  0  0  0  0
  6 20  1  0  0  0  0
  6 32  1  0  0  0  0
  7 21  1  0  0  0  0
  7  8  2  0  0  0  0
  8  9  1  0  0  0  0
  9 10  2  0  0  0  0
  9 22  1  0  0  0  0
 10 23  1  0  0  0  0
 11 24  1  0  0  0  0
 11 10  1  0  0  0  0
 12 11  2  0  0  0  0
 13 12  1  1  0  0  0
 13  8  1  0  0  0  0
 14 15  2  0  0  0  0
 14  5  1  0  0  0  0
 15 20  1  0  0  0  0
 16 15  1  0  0  0  0
 16 17  1  0  0  0  0
 17 18  2  0  0  0  0
 18 19  1  0  0  0  0
 18 29  1  0  0  0  0
 19 30  1  0  0  0  0
 20 19  2  0  0  0  0
 25 12  1  0  0  0  0
 26 14  1  0  0  0  0
 27 16  1  0  0  0  0
 28 17  1  0  0  0  0
 31  4  1  0  0  0  0
 33  1  1  0  0  0  0
 34  1  1  0  0  0  0
 35 34  1  0  0  0  0
 35 62  1  0  0  0  0
 36  1  1  0  0  0  0
 36 45  1  0  0  0  0
 37 36  1  0  0  0  0
 38 34  1  0  0  0  0
 39 44  1  0  0  0  0
 39 38  2  0  0  0  0
 40 39  1  0  0  0  0
 41 40  1  0  0  0  0
 41 42  2  0  0  0  0
 42 43  1  0  0  0  0
 43 44  2  0  0  0  0
 43 56  1  0  0  0  0
 44 35  1  0  0  0  0
 45 57  1  0  0  0  0
 46 47  1  0  0  0  0
 46 45  2  0  0  0  0
 47 58  1  0  0  0  0
 48 59  1  0  0  0  0
 48 47  2  0  0  0  0
 49 48  1  0  0  0  0
 50 49  2  0  0  0  0
 51 50  1  6  0  0  0
 51 37  1  0  0  0  0
 51 46  1  0  0  0  0
 52 38  1  0  0  0  0
 53 40  1  0  0  0  0
 54 41  1  0  0  0  0
 55 42  1  0  0  0  0
 60 49  1  0  0  0  0
 61 50  1  0  0  0  0
 63 37  1  0  0  0  0
M  END
$$$$
