CSD_code = QEKVAD | q = 1 | S = 0 | Stoichiometry = C35H25Cl2N4OOs(1+) | MND = 6
 OpenBabel04212202083D

 68 75  0  0  1  0  0  0  0  0999 V2000
    0.3583    7.7871    3.2015 Os  0  0  0  0  0  0  0  0  0  0  0  0
   -0.6357    7.6385    1.0867 Cl  0  0  0  0  0  0  0  0  0  0  0  0
    1.3240    7.2343    5.2374 Cl  0  0  0  0  0  0  0  0  0  0  0  0
    2.9020   11.5559    1.9249 O   0  0  0  0  0  0  0  0  0  0  0  0
    0.3814    9.5686    3.2834 N   0  0  0  0  0  2  0  0  0  0  0  0
    2.1896    7.5072    2.3055 N   0  0  0  0  0  0  0  0  0  0  0  0
    0.3214    5.8438    3.0050 N   0  0  0  0  0  0  0  0  0  0  0  0
   -1.4790    7.3962    4.0401 N   0  0  0  0  0  0  0  0  0  0  0  0
    0.4601   10.8081    3.1539 C   0  0  2  0  0  3  0  0  0  0  0  0
    2.2021   12.5107    1.6299 C   0  0  0  0  0  0  0  0  0  0  0  0
    2.4365    6.1961    2.0618 C   0  0  0  0  0  0  0  0  0  0  0  0
    3.6337    5.7906    1.4828 C   0  0  0  0  0  0  0  0  0  0  0  0
    4.5891    6.7374    1.1484 C   0  0  0  0  0  0  0  0  0  0  0  0
    4.3168    8.0711    1.3996 C   0  0  0  0  0  0  0  0  0  0  0  0
    3.1030    8.4109    1.9798 C   0  0  0  0  0  0  0  0  0  0  0  0
    1.3728    5.2504    2.4437 C   0  0  0  0  0  0  0  0  0  0  0  0
    1.3702    3.8663    2.2756 C   0  0  0  0  0  0  0  0  0  0  0  0
    0.2590    3.1541    2.7032 C   0  0  0  0  0  0  0  0  0  0  0  0
   -0.8214    3.8039    3.2846 C   0  0  0  0  0  0  0  0  0  0  0  0
   -0.7591    5.1885    3.4260 C   0  0  0  0  0  0  0  0  0  0  0  0
   -1.7789    6.0747    4.0155 C   0  0  1  0  0  3  0  0  0  0  0  0
   -2.9825    5.6060    4.5316 C   0  0  0  0  0  0  0  0  0  0  0  0
   -3.8869    6.4986    5.0830 C   0  0  0  0  0  0  0  0  0  0  0  0
   -3.5605    7.8451    5.1093 C   0  0  0  0  0  0  0  0  0  0  0  0
   -2.3458    8.2450    4.5764 C   0  0  0  0  0  0  0  0  0  0  0  0
   -0.0350   11.4221    1.8896 C   0  0  0  0  0  0  0  0  0  0  0  0
    0.7976   12.2904    1.1765 C   0  0  0  0  0  0  0  0  0  0  0  0
    0.3354   12.8422   -0.0141 C   0  0  0  0  0  0  0  0  0  0  0  0
   -0.9299   12.5349   -0.4835 C   0  0  0  0  0  0  0  0  0  0  0  0
   -1.7477   11.6731    0.2292 C   0  0  0  0  0  0  0  0  0  0  0  0
   -1.3010   11.1122    1.4134 C   0  0  0  0  0  0  0  0  0  0  0  0
    1.0482   11.6864    4.1824 C   0  0  0  0  0  0  0  0  0  0  0  0
    0.7162   13.0370    4.2431 C   0  0  0  0  0  0  0  0  0  0  0  0
    1.3192   13.8507    5.1845 C   0  0  0  0  0  0  0  0  0  0  0  0
    2.2465   13.3246    6.0689 C   0  0  0  0  0  0  0  0  0  0  0  0
    2.5594   11.9746    6.0249 C   0  0  0  0  0  0  0  0  0  0  0  0
    1.9631   11.1526    5.0888 C   0  0  0  0  0  0  0  0  0  0  0  0
    2.6945   13.8966    1.6934 C   0  0  0  0  0  0  0  0  0  0  0  0
    4.0687   14.1009    1.8387 C   0  0  0  0  0  0  0  0  0  0  0  0
    4.5811   15.3791    1.9290 C   0  0  0  0  0  0  0  0  0  0  0  0
    3.7264   16.4701    1.8885 C   0  0  0  0  0  0  0  0  0  0  0  0
    2.3590   16.2776    1.7604 C   0  0  0  0  0  0  0  0  0  0  0  0
    1.8407   15.0008    1.6618 C   0  0  0  0  0  0  0  0  0  0  0  0
    3.8174    4.7452    1.2970 H   0  0  0  0  0  0  0  0  0  0  0  0
    5.5226    6.4342    0.7007 H   0  0  0  0  0  0  0  0  0  0  0  0
    5.0224    8.8481    1.1562 H   0  0  0  0  0  0  0  0  0  0  0  0
    2.8643    9.4497    2.1767 H   0  0  0  0  0  0  0  0  0  0  0  0
    2.2029    3.3534    1.8247 H   0  0  0  0  0  0  0  0  0  0  0  0
    0.2337    2.0822    2.5819 H   0  0  0  0  0  0  0  0  0  0  0  0
   -1.6796    3.2423    3.6128 H   0  0  0  0  0  0  0  0  0  0  0  0
   -3.2086    4.5529    4.5034 H   0  0  0  0  0  0  0  0  0  0  0  0
   -4.8237    6.1475    5.4861 H   0  0  0  0  0  0  0  0  0  0  0  0
   -4.2297    8.5750    5.5345 H   0  0  0  0  0  0  0  0  0  0  0  0
   -2.0489    9.2859    4.5835 H   0  0  0  0  0  0  0  0  0  0  0  0
    0.9849   13.4907   -0.5831 H   0  0  0  0  0  0  0  0  0  0  0  0
   -1.2742   12.9626   -1.4124 H   0  0  0  0  0  0  0  0  0  0  0  0
   -2.7309   11.4279   -0.1409 H   0  0  0  0  0  0  0  0  0  0  0  0
   -1.9281   10.4332    1.9720 H   0  0  0  0  0  0  0  0  0  0  0  0
   -0.0212   13.4456    3.5683 H   0  0  0  0  0  0  0  0  0  0  0  0
    1.0641   14.8986    5.2252 H   0  0  0  0  0  0  0  0  0  0  0  0
    2.7207   13.9656    6.7959 H   0  0  0  0  0  0  0  0  0  0  0  0
    3.2737   11.5617    6.7203 H   0  0  0  0  0  0  0  0  0  0  0  0
    2.2052   10.1006    5.0373 H   0  0  0  0  0  0  0  0  0  0  0  0
    4.7158   13.2373    1.8710 H   0  0  0  0  0  0  0  0  0  0  0  0
    5.6450   15.5287    2.0322 H   0  0  0  0  0  0  0  0  0  0  0  0
    4.1244   17.4709    1.9601 H   0  0  0  0  0  0  0  0  0  0  0  0
    1.6955   17.1289    1.7375 H   0  0  0  0  0  0  0  0  0  0  0  0
    0.7736   14.8625    1.5733 H   0  0  0  0  0  0  0  0  0  0  0  0
  1  5  1  0  0  0  0
  1  8  1  0  0  0  0
  1  3  1  0  0  0  0
  2  1  1  0  0  0  0
  6  1  1  0  0  0  0
  7  1  1  0  0  0  0
  7 20  1  0  0  0  0
  8 25  1  0  0  0  0
  9  5  1  6  0  0  0
  9 32  1  0  0  0  0
 10 38  1  0  0  0  0
 10  4  2  0  0  0  0
 11  6  1  0  0  0  0
 11 16  2  0  0  0  0
 12 11  1  0  0  0  0
 13 14  1  0  0  0  0
 13 12  2  0  0  0  0
 14 15  2  0  0  0  0
 15 47  1  0  0  0  0
 15  6  1  0  0  0  0
 16  7  1  0  0  0  0
 17 16  1  0  0  0  0
 17 18  2  0  0  0  0
 18 19  1  0  0  0  0
 19 20  2  0  0  0  0
 19 50  1  0  0  0  0
 21 20  1  1  0  0  0
 21  8  1  0  0  0  0
 21 22  1  0  0  0  0
 22 23  2  0  0  0  0
 23 24  1  0  0  0  0
 23 52  1  0  0  0  0
 24 53  1  0  0  0  0
 25 54  1  0  0  0  0
 25 24  2  0  0  0  0
 26  9  1  0  0  0  0
 27 10  1  0  0  0  0
 27 26  2  0  0  0  0
 28 27  1  0  0  0  0
 29 28  2  0  0  0  0
 29 30  1  0  0  0  0
 30 31  2  0  0  0  0
 31 26  1  0  0  0  0
 31 58  1  0  0  0  0
 32 33  2  0  0  0  0
 32 37  1  0  0  0  0
 33 34  1  0  0  0  0
 34 60  1  0  0  0  0
 34 35  2  0  0  0  0
 35 61  1  0  0  0  0
 36 35  1  0  0  0  0
 36 62  1  0  0  0  0
 37 36  2  0  0  0  0
 38 39  1  0  0  0  0
 39 64  1  0  0  0  0
 39 40  2  0  0  0  0
 40 65  1  0  0  0  0
 41 40  1  0  0  0  0
 41 66  1  0  0  0  0
 42 41  2  0  0  0  0
 43 38  2  0  0  0  0
 43 42  1  0  0  0  0
 44 12  1  0  0  0  0
 45 13  1  0  0  0  0
 46 14  1  0  0  0  0
 48 17  1  0  0  0  0
 49 18  1  0  0  0  0
 51 22  1  0  0  0  0
 55 28  1  0  0  0  0
 56 29  1  0  0  0  0
 57 30  1  0  0  0  0
 59 33  1  0  0  0  0
 63 37  1  0  0  0  0
 67 42  1  0  0  0  0
 68 43  1  0  0  0  0
M  END
$$$$
