CSD_code = QELQED | q = 0 | S = 0 | Stoichiometry = C25H29ClNPPd | MND = 4
 OpenBabel04212202083D

 58 61  0  0  1  0  0  0  0  0999 V2000
    2.9308    0.0093   -0.2314 Pd  0  0  2  0  0  0  0  0  0  0  0  0
    4.0208    1.4331   -1.5241 P   0  0  0  0  0  4  0  0  0  0  0  0
    2.3500    1.9751    0.9693 Cl  0  0  0  0  0  0  0  0  0  0  0  0
    2.0429   -1.3211    1.1316 N   0  0  0  0  0  4  0  0  0  0  0  0
    2.9907   -1.6290   -1.3647 C   0  0  0  0  0  0  0  0  0  0  0  0
    3.0401   -1.6769   -2.7523 C   0  0  0  0  0  0  0  0  0  0  0  0
    2.8581   -2.8712   -3.4336 C   0  0  0  0  0  0  0  0  0  0  0  0
    2.6102   -4.0358   -2.7319 C   0  0  0  0  0  0  0  0  0  0  0  0
    2.5139   -4.0018   -1.3505 C   0  0  0  0  0  0  0  0  0  0  0  0
    2.6863   -2.8070   -0.6677 C   0  0  0  0  0  0  0  0  0  0  0  0
    2.5662   -2.6815    0.8392 C   0  0  2  0  0  0  0  0  0  0  0  0
    1.7580   -3.8064    1.4910 C   0  0  0  0  0  0  0  0  0  0  0  0
    2.3135   -0.9166    2.5093 C   0  0  0  0  0  0  0  0  0  0  0  0
    0.6129   -1.1902    0.8437 C   0  0  0  0  0  0  0  0  0  0  0  0
    5.1990    2.4131   -0.4879 C   0  0  0  0  0  0  0  0  0  0  0  0
    5.8197    1.4184    0.4374 C   0  0  0  0  0  0  0  0  0  0  0  0
    7.1082    1.1307    0.4779 C   0  0  0  0  0  0  0  0  0  0  0  0
    5.1736    0.8729   -2.8180 C   0  0  0  0  0  0  0  0  0  0  0  0
    5.3184    1.4870   -4.0539 C   0  0  0  0  0  0  0  0  0  0  0  0
    6.2572    1.0078   -4.9522 C   0  0  0  0  0  0  0  0  0  0  0  0
    7.0502   -0.0776   -4.6196 C   0  0  0  0  0  0  0  0  0  0  0  0
    6.9000   -0.6982   -3.3887 C   0  0  0  0  0  0  0  0  0  0  0  0
    5.9604   -0.2281   -2.4925 C   0  0  0  0  0  0  0  0  0  0  0  0
    2.8787    2.5968   -2.3083 C   0  0  0  0  0  0  0  0  0  0  0  0
    1.5665    2.1454   -2.4281 C   0  0  0  0  0  0  0  0  0  0  0  0
    0.6026    2.9615   -2.9888 C   0  0  0  0  0  0  0  0  0  0  0  0
    0.9460    4.2319   -3.4255 C   0  0  0  0  0  0  0  0  0  0  0  0
    2.2481    4.6876   -3.2963 C   0  0  0  0  0  0  0  0  0  0  0  0
    3.2183    3.8744   -2.7369 C   0  0  0  0  0  0  0  0  0  0  0  0
    3.2309   -0.7738   -3.3240 H   0  0  0  0  0  0  0  0  0  0  0  0
    2.9108   -2.8880   -4.5132 H   0  0  0  0  0  0  0  0  0  0  0  0
    2.4769   -4.9710   -3.2563 H   0  0  0  0  0  0  0  0  0  0  0  0
    2.2995   -4.9153   -0.8157 H   0  0  0  0  0  0  0  0  0  0  0  0
    3.5854   -2.7050    1.2585 H   0  0  0  0  0  0  0  0  0  0  0  0
    1.5636   -3.5908    2.5391 H   0  0  0  0  0  0  0  0  0  0  0  0
    2.3260   -4.7320    1.4478 H   0  0  0  0  0  0  0  0  0  0  0  0
    0.8106   -3.9589    0.9794 H   0  0  0  0  0  0  0  0  0  0  0  0
    1.7639   -1.5313    3.2340 H   0  0  0  0  0  0  0  0  0  0  0  0
    2.0144    0.1259    2.6420 H   0  0  0  0  0  0  0  0  0  0  0  0
    3.3849   -0.9981    2.7142 H   0  0  0  0  0  0  0  0  0  0  0  0
   -0.0009   -1.7271    1.5785 H   0  0  0  0  0  0  0  0  0  0  0  0
    0.4002   -1.5821   -0.1559 H   0  0  0  0  0  0  0  0  0  0  0  0
    0.3405   -0.1288    0.8794 H   0  0  0  0  0  0  0  0  0  0  0  0
    5.9465    2.9220   -1.1022 H   0  0  0  0  0  0  0  0  0  0  0  0
    4.6022    3.1344    0.0785 H   0  0  0  0  0  0  0  0  0  0  0  0
    5.1085    0.9065    1.0961 H   0  0  0  0  0  0  0  0  0  0  0  0
    7.8194    1.6260   -0.1641 H   0  0  0  0  0  0  0  0  0  0  0  0
    7.5103    0.3976    1.1562 H   0  0  0  0  0  0  0  0  0  0  0  0
    4.6926    2.3283   -4.3174 H   0  0  0  0  0  0  0  0  0  0  0  0
    6.3681    1.4824   -5.9164 H   0  0  0  0  0  0  0  0  0  0  0  0
    7.7806   -0.4466   -5.3246 H   0  0  0  0  0  0  0  0  0  0  0  0
    7.5108   -1.5521   -3.1353 H   0  0  0  0  0  0  0  0  0  0  0  0
    5.8039   -0.7153   -1.5351 H   0  0  0  0  0  0  0  0  0  0  0  0
    1.3162    1.1482   -2.0499 H   0  0  0  0  0  0  0  0  0  0  0  0
   -0.4174    2.6175   -3.0773 H   0  0  0  0  0  0  0  0  0  0  0  0
    0.1929    4.8743   -3.8577 H   0  0  0  0  0  0  0  0  0  0  0  0
    2.5062    5.6833   -3.6268 H   0  0  0  0  0  0  0  0  0  0  0  0
    4.2317    4.2333   -2.6213 H   0  0  0  0  0  0  0  0  0  0  0  0
  1  3  1  6  0  0  0
  1  4  1  0  0  0  0
  2 15  1  0  0  0  0
  2  1  1  0  0  0  0
  4 13  1  0  0  0  0
  5 10  1  0  0  0  0
  5  1  1  0  0  0  0
  6  5  2  0  0  0  0
  7  6  1  0  0  0  0
  7  8  2  0  0  0  0
  8  9  1  0  0  0  0
  9 33  1  0  0  0  0
  9 10  2  0  0  0  0
 10 11  1  0  0  0  0
 11  4  1  0  0  0  0
 11 34  1  1  0  0  0
 11 12  1  0  0  0  0
 12 35  1  0  0  0  0
 13 39  1  0  0  0  0
 13 40  1  0  0  0  0
 13 38  1  0  0  0  0
 14 43  1  0  0  0  0
 14  4  1  0  0  0  0
 14 41  1  0  0  0  0
 15 45  1  0  0  0  0
 15 16  1  0  0  0  0
 16 17  2  0  0  0  0
 16 46  1  0  0  0  0
 17 48  1  0  0  0  0
 18 23  1  0  0  0  0
 18  2  1  0  0  0  0
 19 18  2  0  0  0  0
 20 21  2  0  0  0  0
 20 19  1  0  0  0  0
 21 22  1  0  0  0  0
 22 52  1  0  0  0  0
 22 23  2  0  0  0  0
 23 53  1  0  0  0  0
 24  2  1  0  0  0  0
 25 24  1  0  0  0  0
 25 54  1  0  0  0  0
 26 25  2  0  0  0  0
 27 28  2  0  0  0  0
 27 26  1  0  0  0  0
 28 29  1  0  0  0  0
 29 58  1  0  0  0  0
 29 24  2  0  0  0  0
 30  6  1  0  0  0  0
 31  7  1  0  0  0  0
 32  8  1  0  0  0  0
 36 12  1  0  0  0  0
 37 12  1  0  0  0  0
 42 14  1  0  0  0  0
 44 15  1  0  0  0  0
 47 17  1  0  0  0  0
 49 19  1  0  0  0  0
 50 20  1  0  0  0  0
 51 21  1  0  0  0  0
 55 26  1  0  0  0  0
 56 27  1  0  0  0  0
 57 28  1  0  0  0  0
M  END
$$$$
