CSD_code = QELREH | q = 0 | S = 0 | Stoichiometry = C18H20ClN5O2PRe | MND = 6
 OpenBabel04212202083D

 48 53  0  0  1  0  0  0  0  0999 V2000
    3.2768   11.8268    4.2376 Re  0  0  0  0  0  0  0  0  0  0  0  0
    1.1759   11.7507    3.0275 Cl  0  0  0  0  0  0  0  0  0  0  0  0
    5.0721   11.9038    5.8181 P   0  0  1  0  0  4  0  0  0  0  0  0
    4.4141   14.0062    2.3688 O   0  0  0  0  0  1  0  0  0  0  0  0
    4.5148    9.6182    2.4701 O   0  0  0  0  0  1  0  0  0  0  0  0
    2.2192   10.5266    5.4894 N   0  0  0  0  0  0  0  0  0  0  0  0
    2.1545   13.1331    5.4270 N   0  0  0  0  0  0  0  0  0  0  0  0
    6.3521   13.2068    7.8938 N   0  0  1  0  0  0  0  0  0  0  0  0
    6.3791   10.7764    7.9783 N   0  0  2  0  0  0  0  0  0  0  0  0
    7.7757   11.9530    6.3748 N   0  0  2  0  0  0  0  0  0  0  0  0
    4.0123   13.1758    3.0583 C   0  0  0  0  0  2  0  0  0  0  0  0
    4.0745   10.4605    3.1205 C   0  0  0  0  0  2  0  0  0  0  0  0
    2.3230    9.2005    5.4881 C   0  0  0  0  0  3  0  0  0  0  0  0
    3.1423    8.7871    4.9140 H   0  0  0  0  0  0  0  0  0  0  0  0
    1.4493    8.3685    6.1600 C   0  0  0  0  0  0  0  0  0  0  0  0
    1.5780    7.2993    6.1139 H   0  0  0  0  0  0  0  0  0  0  0  0
    0.4055    8.9396    6.8755 C   0  0  0  0  0  0  0  0  0  0  0  0
   -0.3052    8.3252    7.4066 H   0  0  0  0  0  0  0  0  0  0  0  0
    0.2918   10.3154    6.8894 C   0  0  0  0  0  0  0  0  0  0  0  0
   -0.5126   10.7823    7.4335 H   0  0  0  0  0  0  0  0  0  0  0  0
    1.2107   11.0908    6.1819 C   0  0  0  0  0  0  0  0  0  0  0  0
    1.1703   12.5533    6.1412 C   0  0  1  0  0  3  0  0  0  0  0  0
    0.2004   13.3145    6.7936 C   0  0  0  0  0  0  0  0  0  0  0  0
   -0.5865   12.8346    7.3519 H   0  0  0  0  0  0  0  0  0  0  0  0
    0.2389   14.6916    6.7039 C   0  0  0  0  0  0  0  0  0  0  0  0
   -0.5126   15.2942    7.1902 H   0  0  0  0  0  0  0  0  0  0  0  0
    1.2611   15.2792    5.9707 C   0  0  0  0  0  0  0  0  0  0  0  0
    1.3327   16.3497    5.8674 H   0  0  0  0  0  0  0  0  0  0  0  0
    2.1873   14.4608    5.3547 C   0  0  0  0  0  0  0  0  0  0  0  0
    2.9911   14.8865    4.7679 H   0  0  0  0  0  0  0  0  0  0  0  0
    5.2183   13.3389    7.0028 C   0  0  0  0  0  0  0  0  0  0  0  0
    5.3233   14.2626    6.4217 H   0  0  0  0  0  0  0  0  0  0  0  0
    4.3023   13.4132    7.6025 H   0  0  0  0  0  0  0  0  0  0  0  0
    5.2492   10.5578    7.0995 C   0  0  0  0  0  0  0  0  0  0  0  0
    4.3347   10.5050    7.7037 H   0  0  0  0  0  0  0  0  0  0  0  0
    5.3752    9.5985    6.5840 H   0  0  0  0  0  0  0  0  0  0  0  0
    6.8480   11.9041    5.2636 C   0  0  0  0  0  0  0  0  0  0  0  0
    7.0273   10.9988    4.6728 H   0  0  0  0  0  0  0  0  0  0  0  0
    7.0077   12.7699    4.6111 H   0  0  0  0  0  0  0  0  0  0  0  0
    6.2492   12.0178    8.7236 C   0  0  0  0  0  0  0  0  0  0  0  0
    7.0522   12.0524    9.4663 H   0  0  0  0  0  0  0  0  0  0  0  0
    5.2860   12.0251    9.2422 H   0  0  0  0  0  0  0  0  0  0  0  0
    7.6357   10.7977    7.2437 C   0  0  0  0  0  0  0  0  0  0  0  0
    8.4512   10.8179    7.9733 H   0  0  0  0  0  0  0  0  0  0  0  0
    7.7138    9.8873    6.6445 H   0  0  0  0  0  0  0  0  0  0  0  0
    7.6095   13.1625    7.1615 C   0  0  0  0  0  0  0  0  0  0  0  0
    7.6678   14.0305    6.5004 H   0  0  0  0  0  0  0  0  0  0  0  0
    8.4248   13.2111    7.8900 H   0  0  0  0  0  0  0  0  0  0  0  0
  1  7  1  0  0  0  0
  1  6  1  0  0  0  0
  1  3  1  0  0  0  0
  2  1  1  0  0  0  0
  3 37  1  6  0  0  0
  3 31  1  0  0  0  0
  3 34  1  0  0  0  0
  4 11  1  0  0  0  0
  5 12  1  0  0  0  0
  6 21  1  0  0  0  0
  7 22  1  0  0  0  0
  8 31  1  6  0  0  0
  8 40  1  0  0  0  0
  9 34  1  6  0  0  0
  9 40  1  0  0  0  0
 10 37  1  6  0  0  0
 10 46  1  0  0  0  0
 10 43  1  0  0  0  0
 11  1  1  0  0  0  0
 12  1  1  0  0  0  0
 13  6  1  0  0  0  0
 13 15  1  0  0  0  0
 14 13  1  0  0  0  0
 15 17  2  0  0  0  0
 16 15  1  0  0  0  0
 17 19  1  0  0  0  0
 17 18  1  0  0  0  0
 19 20  1  0  0  0  0
 21 19  2  0  0  0  0
 22 21  1  1  0  0  0
 22 23  1  0  0  0  0
 23 24  1  0  0  0  0
 25 23  2  0  0  0  0
 25 26  1  0  0  0  0
 27 25  1  0  0  0  0
 28 27  1  0  0  0  0
 29  7  1  0  0  0  0
 29 27  2  0  0  0  0
 30 29  1  0  0  0  0
 31 33  1  0  0  0  0
 32 31  1  0  0  0  0
 34 35  1  0  0  0  0
 36 34  1  0  0  0  0
 38 37  1  0  0  0  0
 39 37  1  0  0  0  0
 40 42  1  0  0  0  0
 40 41  1  0  0  0  0
 43 44  1  0  0  0  0
 43  9  1  0  0  0  0
 45 43  1  0  0  0  0
 46 48  1  0  0  0  0
 46  8  1  0  0  0  0
 47 46  1  0  0  0  0
M  END
$$$$
