CSD_code = QELSEF | q = 0 | S = 0 | Stoichiometry = C27H26Cl2P2Pd | MND = 4
 OpenBabel04212202083D

 58 62  0  0  1  0  0  0  0  0999 V2000
   19.6199   10.9220    9.5847 Pd  0  0  0  0  0  0  0  0  0  0  0  0
   17.9159   11.5774    8.2956 P   0  0  0  0  0  4  0  0  0  0  0  0
   20.9443   12.1692    8.2848 P   0  0  0  0  0  4  0  0  0  0  0  0
   21.3134   10.4415   11.0141 Cl  0  0  0  0  0  0  0  0  0  0  0  0
   18.1022    9.5949   10.6286 Cl  0  0  0  0  0  0  0  0  0  0  0  0
   19.8464   13.2545    7.2624 C   0  0  0  0  0  0  0  0  0  0  0  0
   18.6319   12.4488    6.7984 C   0  0  2  0  0  0  0  0  0  0  0  0
   16.5534   10.5621    7.6816 C   0  0  0  0  0  0  0  0  0  0  0  0
   16.5819    9.9629    6.4255 C   0  0  0  0  0  0  0  0  0  0  0  0
   15.5488    9.1297    6.0357 C   0  0  0  0  0  0  0  0  0  0  0  0
   14.4963    8.8729    6.8990 C   0  0  0  0  0  0  0  0  0  0  0  0
   14.4820    9.4411    8.1629 C   0  0  0  0  0  0  0  0  0  0  0  0
   15.5073   10.2787    8.5583 C   0  0  0  0  0  0  0  0  0  0  0  0
   17.1144   12.9118    9.2373 C   0  0  0  0  0  0  0  0  0  0  0  0
   15.8989   13.4767    8.8577 C   0  0  0  0  0  0  0  0  0  0  0  0
   15.3491   14.5003    9.6077 C   0  0  0  0  0  0  0  0  0  0  0  0
   16.0023   14.9648   10.7384 C   0  0  0  0  0  0  0  0  0  0  0  0
   17.2051   14.3982   11.1289 C   0  0  0  0  0  0  0  0  0  0  0  0
   17.7613   13.3729   10.3845 C   0  0  0  0  0  0  0  0  0  0  0  0
   22.3878   13.1704    8.7152 C   0  0  0  0  0  0  0  0  0  0  0  0
   22.4334   14.5560    8.6118 C   0  0  0  0  0  0  0  0  0  0  0  0
   23.5744   15.2341    9.0040 C   0  0  0  0  0  0  0  0  0  0  0  0
   24.6614   14.5397    9.5083 C   0  0  0  0  0  0  0  0  0  0  0  0
   24.6101   13.1594    9.6292 C   0  0  0  0  0  0  0  0  0  0  0  0
   23.4769   12.4739    9.2378 C   0  0  0  0  0  0  0  0  0  0  0  0
   21.6063   11.0047    7.0522 C   0  0  0  0  0  0  0  0  0  0  0  0
   22.4547   11.4266    6.0327 C   0  0  0  0  0  0  0  0  0  0  0  0
   22.9266   10.5139    5.1075 C   0  0  0  0  0  0  0  0  0  0  0  0
   22.5579    9.1804    5.1967 C   0  0  0  0  0  0  0  0  0  0  0  0
   21.7207    8.7539    6.2154 C   0  0  0  0  0  0  0  0  0  0  0  0
   21.2446    9.6617    7.1453 C   0  0  0  0  0  0  0  0  0  0  0  0
   17.6326   13.3113    6.0378 C   0  0  0  0  0  0  0  0  0  0  0  0
   19.5137   14.0865    7.8947 H   0  0  0  0  0  0  0  0  0  0  0  0
   20.3979   13.6588    6.4073 H   0  0  0  0  0  0  0  0  0  0  0  0
   18.9922   11.6405    6.1443 H   0  0  0  0  0  0  0  0  0  0  0  0
   17.4104   10.1391    5.7535 H   0  0  0  0  0  0  0  0  0  0  0  0
   15.5699    8.6718    5.0576 H   0  0  0  0  0  0  0  0  0  0  0  0
   13.6943    8.2187    6.5909 H   0  0  0  0  0  0  0  0  0  0  0  0
   13.6732    9.2245    8.8444 H   0  0  0  0  0  0  0  0  0  0  0  0
   15.5176   10.7047    9.5515 H   0  0  0  0  0  0  0  0  0  0  0  0
   15.3788   13.1004    7.9879 H   0  0  0  0  0  0  0  0  0  0  0  0
   14.4045   14.9334    9.3127 H   0  0  0  0  0  0  0  0  0  0  0  0
   15.5662   15.7611   11.3230 H   0  0  0  0  0  0  0  0  0  0  0  0
   17.7049   14.7491   12.0193 H   0  0  0  0  0  0  0  0  0  0  0  0
   18.7015   12.9033   10.7151 H   0  0  0  0  0  0  0  0  0  0  0  0
   21.5866   15.1072    8.2289 H   0  0  0  0  0  0  0  0  0  0  0  0
   23.6120   16.3105    8.9200 H   0  0  0  0  0  0  0  0  0  0  0  0
   25.5463   15.0765    9.8163 H   0  0  0  0  0  0  0  0  0  0  0  0
   25.4520   12.6198   10.0358 H   0  0  0  0  0  0  0  0  0  0  0  0
   23.4086   11.4003    9.3519 H   0  0  0  0  0  0  0  0  0  0  0  0
   22.7498   12.4661    5.9775 H   0  0  0  0  0  0  0  0  0  0  0  0
   23.5872   10.8404    4.3178 H   0  0  0  0  0  0  0  0  0  0  0  0
   22.9320    8.4703    4.4744 H   0  0  0  0  0  0  0  0  0  0  0  0
   21.4446    7.7127    6.2886 H   0  0  0  0  0  0  0  0  0  0  0  0
   20.5975    9.3225    7.9699 H   0  0  0  0  0  0  0  0  0  0  0  0
   16.7578   12.7282    5.7563 H   0  0  0  0  0  0  0  0  0  0  0  0
   18.0883   13.7034    5.1295 H   0  0  0  0  0  0  0  0  0  0  0  0
   17.3084   14.1518    6.6486 H   0  0  0  0  0  0  0  0  0  0  0  0
  1  5  1  0  0  0  0
  1  4  1  0  0  0  0
  2 14  1  0  0  0  0
  2  1  1  0  0  0  0
  3 20  1  0  0  0  0
  3  1  1  0  0  0  0
  6 33  1  0  0  0  0
  6  3  1  0  0  0  0
  7 35  1  6  0  0  0
  7  6  1  0  0  0  0
  7  2  1  0  0  0  0
  8  2  1  0  0  0  0
  8 13  1  0  0  0  0
  9  8  2  0  0  0  0
 10  9  1  0  0  0  0
 10 11  2  0  0  0  0
 11 12  1  0  0  0  0
 12 13  2  0  0  0  0
 12 39  1  0  0  0  0
 13 40  1  0  0  0  0
 14 19  1  0  0  0  0
 15 14  2  0  0  0  0
 15 16  1  0  0  0  0
 16 17  2  0  0  0  0
 17 18  1  0  0  0  0
 17 43  1  0  0  0  0
 18 44  1  0  0  0  0
 19 45  1  0  0  0  0
 19 18  2  0  0  0  0
 20 25  1  0  0  0  0
 21 20  2  0  0  0  0
 21 22  1  0  0  0  0
 22 23  2  0  0  0  0
 23 24  1  0  0  0  0
 23 48  1  0  0  0  0
 24 49  1  0  0  0  0
 25 50  1  0  0  0  0
 25 24  2  0  0  0  0
 26 31  1  0  0  0  0
 26  3  1  0  0  0  0
 27 26  2  0  0  0  0
 28 29  2  0  0  0  0
 28 27  1  0  0  0  0
 29 30  1  0  0  0  0
 30 54  1  0  0  0  0
 30 31  2  0  0  0  0
 31 55  1  0  0  0  0
 32 58  1  0  0  0  0
 32  7  1  0  0  0  0
 34  6  1  0  0  0  0
 36  9  1  0  0  0  0
 37 10  1  0  0  0  0
 38 11  1  0  0  0  0
 41 15  1  0  0  0  0
 42 16  1  0  0  0  0
 46 21  1  0  0  0  0
 47 22  1  0  0  0  0
 51 27  1  0  0  0  0
 52 28  1  0  0  0  0
 53 29  1  0  0  0  0
 56 32  1  0  0  0  0
 57 32  1  0  0  0  0
M  END
$$$$
