CSD_code = QELWIQ | q = 0 | S = 0 | Stoichiometry = C32H31ClZr | MND = 12
 OpenBabel04212202083D

 65 67  0  0  1  0  0  0  0  0999 V2000
    3.1680    8.7314    3.7381 Zr  0  0  0  0  0  0  0  0  0  0  0  0
    3.5510   10.8550    4.7174 Cl  0  0  0  0  0 15  0  0  0  0  0  0
    3.5405    7.5906    1.5631 C   0  0  0  0  0  0  0  0  0  0  0  0
    4.8036    8.0400    2.0408 C   0  0  2  0  0  3  0  0  0  0  0  0
    4.7728    9.4634    2.1043 C   0  0  0  0  0  0  0  0  0  0  0  0
    3.4933    9.8983    1.6542 C   0  0  0  0  0  0  0  0  0  0  0  0
    2.7222    8.7391    1.3400 C   0  0  0  0  0  0  0  0  0  0  0  0
    3.2030    6.1925    1.1246 C   0  0  0  0  0  0  0  0  0  0  0  0
    3.2120    6.1352    0.0341 H   0  0  0  0  0  0  0  0  0  0  0  0
    2.2148    5.8857    1.4655 H   0  0  0  0  0  0  0  0  0  0  0  0
    3.9344    5.4775    1.4957 H   0  0  0  0  0  0  0  0  0  0  0  0
    6.0406    7.2074    2.2436 C   0  0  0  0  0  0  0  0  0  0  0  0
    5.8003    6.1929    2.5602 H   0  0  0  0  0  0  0  0  0  0  0  0
    6.6979    7.6604    2.9869 H   0  0  0  0  0  0  0  0  0  0  0  0
    6.5993    7.1376    1.3068 H   0  0  0  0  0  0  0  0  0  0  0  0
    5.9292   10.3344    2.5140 C   0  0  0  0  0  0  0  0  0  0  0  0
    6.3137   10.0391    3.4963 H   0  0  0  0  0  0  0  0  0  0  0  0
    5.6193   11.3757    2.5726 H   0  0  0  0  0  0  0  0  0  0  0  0
    6.7446   10.2565    1.7911 H   0  0  0  0  0  0  0  0  0  0  0  0
    3.0742   11.3267    1.4292 C   0  0  0  0  0  0  0  0  0  0  0  0
    3.6540   11.7633    0.6132 H   0  0  0  0  0  0  0  0  0  0  0  0
    3.2402   11.9337    2.3220 H   0  0  0  0  0  0  0  0  0  0  0  0
    2.0203   11.3837    1.1582 H   0  0  0  0  0  0  0  0  0  0  0  0
    1.3837    8.7408    0.6507 C   0  0  0  0  0  0  0  0  0  0  0  0
    0.6667    9.4013    1.1455 H   0  0  0  0  0  0  0  0  0  0  0  0
    0.9672    7.7363    0.6251 H   0  0  0  0  0  0  0  0  0  0  0  0
    1.4952    9.0846   -0.3805 H   0  0  0  0  0  0  0  0  0  0  0  0
    2.3299    7.2072    5.1202 C   0  0  1  0  0  0  0  0  0  0  0  0
    3.5539    6.5959    4.6490 C   0  0  0  0  0  0  0  0  0  0  0  0
    3.6095    5.7530    3.9685 H   0  0  0  0  0  0  0  0  0  0  0  0
    4.6623    7.1989    5.2721 C   0  0  0  0  0  0  0  0  0  0  0  0
    5.6860    6.8465    5.2285 H   0  0  0  0  0  0  0  0  0  0  0  0
    4.1748    8.1456    6.2173 C   0  0  0  0  0  0  0  0  0  0  0  0
    4.8362    8.9574    7.1516 C   0  0  0  0  0  0  0  0  0  0  0  0
    5.9160    8.9322    7.2223 H   0  0  0  0  0  0  0  0  0  0  0  0
    4.0936    9.7695    7.9721 C   0  0  0  0  0  0  0  0  0  0  0  0
    4.5879   10.4025    8.6942 H   0  0  0  0  0  0  0  0  0  0  0  0
    2.6932    9.7890    7.8952 C   0  0  0  0  0  0  0  0  0  0  0  0
    2.1418   10.4349    8.5626 H   0  0  0  0  0  0  0  0  0  0  0  0
    2.0111    9.0049    6.9943 C   0  0  0  0  0  0  0  0  0  0  0  0
    0.9292    9.0156    6.9820 H   0  0  0  0  0  0  0  0  0  0  0  0
    2.7344    8.1634    6.1328 C   0  0  0  0  0  0  0  0  0  0  0  0
    1.2001    7.4409    4.1974 C   0  0  0  0  0  3  0  0  0  0  0  0
    0.5992    6.3357    3.4639 C   0  0  0  0  0  0  0  0  0  0  0  0
    0.9722    4.9946    3.6590 C   0  0  0  0  0  0  0  0  0  0  0  0
    1.6784    4.7478    4.4376 H   0  0  0  0  0  0  0  0  0  0  0  0
    0.4087    3.9804    2.9126 C   0  0  0  0  0  0  0  0  0  0  0  0
    0.7144    2.9582    3.0868 H   0  0  0  0  0  0  0  0  0  0  0  0
   -0.5561    4.2569    1.9560 C   0  0  0  0  0  0  0  0  0  0  0  0
   -0.9905    3.4609    1.3705 H   0  0  0  0  0  0  0  0  0  0  0  0
   -0.9777    5.5672    1.7839 C   0  0  0  0  0  0  0  0  0  0  0  0
   -1.7531    5.7927    1.0651 H   0  0  0  0  0  0  0  0  0  0  0  0
   -0.4185    6.5868    2.5242 C   0  0  0  0  0  0  0  0  0  0  0  0
   -0.7741    7.6002    2.3924 H   0  0  0  0  0  0  0  0  0  0  0  0
    0.2468    8.5440    4.5324 C   0  0  0  0  0  0  0  0  0  0  0  0
   -0.9439    8.2933    5.2175 C   0  0  0  0  0  0  0  0  0  0  0  0
   -1.1715    7.2804    5.5176 H   0  0  0  0  0  0  0  0  0  0  0  0
   -1.8124    9.3241    5.5257 C   0  0  0  0  0  0  0  0  0  0  0  0
   -2.7233    9.1145    6.0671 H   0  0  0  0  0  0  0  0  0  0  0  0
   -1.5137   10.6257    5.1531 C   0  0  0  0  0  0  0  0  0  0  0  0
   -2.1882   11.4298    5.4050 H   0  0  0  0  0  0  0  0  0  0  0  0
   -0.3535   10.8893    4.4435 C   0  0  0  0  0  0  0  0  0  0  0  0
   -0.1239   11.8984    4.1329 H   0  0  0  0  0  0  0  0  0  0  0  0
    0.5125    9.8556    4.1208 C   0  0  0  0  0  0  0  0  0  0  0  0
    1.4075   10.0637    3.5096 H   0  0  0  0  0  0  0  0  0  0  0  0
  3  4  1  0  0  0  0
  4  5  1  0  0  0  0
  4 12  1  6  0  0  0
  5 16  1  0  0  0  0
  6  5  2  0  0  0  0
  7  3  2  0  0  0  0
  7  6  1  0  0  0  0
  8 10  1  0  0  0  0
  8 11  1  0  0  0  0
  8  3  1  0  0  0  0
  9  8  1  0  0  0  0
 12 13  1  0  0  0  0
 12 14  1  0  0  0  0
 15 12  1  0  0  0  0
 16 18  1  0  0  0  0
 16 17  1  0  0  0  0
 19 16  1  0  0  0  0
 20  6  1  0  0  0  0
 20 22  1  0  0  0  0
 21 20  1  0  0  0  0
 23 20  1  0  0  0  0
 24 25  1  0  0  0  0
 24  7  1  0  0  0  0
 26 24  1  0  0  0  0
 27 24  1  0  0  0  0
 28  1  1  6  0  0  0
 28 42  1  0  0  0  0
 29 28  1  0  0  0  0
 29 31  2  0  0  0  0
 30 29  1  0  0  0  0
 31 33  1  0  0  0  0
 32 31  1  0  0  0  0
 33 34  1  0  0  0  0
 34 35  1  0  0  0  0
 34 36  2  0  0  0  0
 36 37  1  0  0  0  0
 38 36  1  0  0  0  0
 38 39  1  0  0  0  0
 40 38  2  0  0  0  0
 41 40  1  0  0  0  0
 42 33  2  0  0  0  0
 42 40  1  0  0  0  0
 43 55  1  0  0  0  0
 43 28  1  0  0  0  0
 44 45  1  0  0  0  0
 44 43  1  0  0  0  0
 45 46  1  0  0  0  0
 47 48  1  0  0  0  0
 47 45  2  0  0  0  0
 49 47  1  0  0  0  0
 50 49  1  0  0  0  0
 51 49  2  0  0  0  0
 51 53  1  0  0  0  0
 52 51  1  0  0  0  0
 53 44  2  0  0  0  0
 54 53  1  0  0  0  0
 55 56  1  0  0  0  0
 56 57  1  0  0  0  0
 56 58  2  0  0  0  0
 58 59  1  0  0  0  0
 60 61  1  0  0  0  0
 60 58  1  0  0  0  0
 62 60  2  0  0  0  0
 63 62  1  0  0  0  0
 64 62  1  0  0  0  0
 64 55  2  0  0  0  0
 65 64  1  0  0  0  0
M  END
$$$$
