CSD_code = QELWEJ | q = 0 | S = 0 | Stoichiometry = C23H16Cl2Zr | MND = 12
 OpenBabel04212202083D

 42 47  0  0  1  0  0  0  0  0999 V2000
    1.7262    7.5980    3.3099 Zr  0  0  0  0  0  0  0  0  0  0  0  0
    2.5688    9.6972    2.8024 Cl  0  0  0  0  0  0  0  0  0  0  0  0
    3.7239    6.7402    4.1126 Cl  0  0  0  0  0  0  0  0  0  0  0  0
    0.0267    6.7488    1.8744 C   0  0  1  0  0  0  0  0  0  0  0  0
    0.7902    7.6274    1.0567 C   0  0  0  0  0  0  0  0  0  0  0  0
    0.4319    8.5081    0.5414 H   0  0  0  0  0  0  0  0  0  0  0  0
    2.0596    7.0418    0.8359 C   0  0  0  0  0  0  0  0  0  0  0  0
    2.8207    7.4258    0.1667 H   0  0  0  0  0  0  0  0  0  0  0  0
    2.0941    5.8045    1.5092 C   0  0  0  0  0  0  0  0  0  0  0  0
    2.8881    5.0701    1.4509 H   0  0  0  0  0  0  0  0  0  0  0  0
    0.8546    5.6242    2.1602 C   0  0  0  0  0  0  0  0  0  0  0  0
    0.5564    4.7084    2.6526 H   0  0  0  0  0  0  0  0  0  0  0  0
   -0.5292    7.5010    4.0668 C   0  0  2  0  0  0  0  0  0  0  0  0
   -0.0680    8.7913    4.4490 C   0  0  0  0  0  3  0  0  0  0  0  0
   -0.4762    9.7436    4.1390 H   0  0  0  0  0  0  0  0  0  0  0  0
    0.8810    8.6362    5.4877 C   0  0  0  0  0  0  0  0  0  0  0  0
    1.3296    9.4438    6.0543 H   0  0  0  0  0  0  0  0  0  0  0  0
    1.0153    7.2594    5.7561 C   0  0  0  0  0  0  0  0  0  0  0  0
    1.5881    6.8217    6.5644 H   0  0  0  0  0  0  0  0  0  0  0  0
    0.1627    6.5558    4.8785 C   0  0  0  0  0  3  0  0  0  0  0  0
   -0.0303    5.4933    4.9419 H   0  0  0  0  0  0  0  0  0  0  0  0
   -1.1898    7.1670    2.7180 C   0  0  0  0  0  0  0  0  0  0  0  0
   -1.9174    8.3631    2.1286 C   0  0  0  0  0  0  0  0  0  0  0  0
   -1.4420    9.6245    1.8150 C   0  0  0  0  0  0  0  0  0  0  0  0
   -0.4061    9.9051    1.9727 H   0  0  0  0  0  0  0  0  0  0  0  0
   -2.3222   10.5585    1.2826 C   0  0  0  0  0  0  0  0  0  0  0  0
   -1.9582   11.5445    1.0355 H   0  0  0  0  0  0  0  0  0  0  0  0
   -3.6550   10.2458    1.0653 C   0  0  0  0  0  0  0  0  0  0  0  0
   -4.3181   10.9906    0.6511 H   0  0  0  0  0  0  0  0  0  0  0  0
   -4.1395    8.9870    1.3758 C   0  0  0  0  0  0  0  0  0  0  0  0
   -5.1765    8.7391    1.2087 H   0  0  0  0  0  0  0  0  0  0  0  0
   -3.2662    8.0514    1.9062 C   0  0  0  0  0  0  0  0  0  0  0  0
   -3.5019    6.6779    2.3156 C   0  0  0  0  0  0  0  0  0  0  0  0
   -4.6668    5.9303    2.2841 C   0  0  0  0  0  0  0  0  0  0  0  0
   -5.5855    6.3597    1.9146 H   0  0  0  0  0  0  0  0  0  0  0  0
   -4.6299    4.6220    2.7353 C   0  0  0  0  0  0  0  0  0  0  0  0
   -5.5268    4.0210    2.7194 H   0  0  0  0  0  0  0  0  0  0  0  0
   -3.4468    4.0787    3.2075 C   0  0  0  0  0  0  0  0  0  0  0  0
   -3.4301    3.0568    3.5561 H   0  0  0  0  0  0  0  0  0  0  0  0
   -2.2774    4.8274    3.2408 C   0  0  0  0  0  0  0  0  0  0  0  0
   -1.3780    4.3663    3.6159 H   0  0  0  0  0  0  0  0  0  0  0  0
   -2.3001    6.1328    2.7943 C   0  0  0  0  0  0  0  0  0  0  0  0
  1 13  1  0  0  0  0
  1  3  1  0  0  0  0
  2  1  1  0  0  0  0
  4  5  1  6  0  0  0
  4 11  1  0  0  0  0
  4 22  1  0  0  0  0
  4  1  1  0  0  0  0
  6  5  1  0  0  0  0
  7  5  2  0  0  0  0
  7  9  1  0  0  0  0
  8  7  1  0  0  0  0
  9 11  2  0  0  0  0
 10  9  1  0  0  0  0
 11 12  1  0  0  0  0
 13 14  1  1  0  0  0
 13 20  1  0  0  0  0
 14 16  1  0  0  0  0
 15 14  1  0  0  0  0
 16 18  2  0  0  0  0
 16 17  1  0  0  0  0
 18 19  1  0  0  0  0
 20 21  1  0  0  0  0
 20 18  1  0  0  0  0
 22 42  1  0  0  0  0
 22 13  1  0  0  0  0
 23 22  1  0  0  0  0
 24 25  1  0  0  0  0
 24 23  2  0  0  0  0
 26 24  1  0  0  0  0
 27 26  1  0  0  0  0
 28 26  2  0  0  0  0
 28 30  1  0  0  0  0
 29 28  1  0  0  0  0
 30 32  2  0  0  0  0
 31 30  1  0  0  0  0
 32 23  1  0  0  0  0
 32 33  1  0  0  0  0
 33 42  1  0  0  0  0
 34 33  2  0  0  0  0
 34 36  1  0  0  0  0
 35 34  1  0  0  0  0
 36 38  2  0  0  0  0
 37 36  1  0  0  0  0
 38 40  1  0  0  0  0
 38 39  1  0  0  0  0
 40 41  1  0  0  0  0
 42 40  2  0  0  0  0
M  END
$$$$
