CSD_code = QEMPUU | q = 0 | S = 0 | Stoichiometry = C18H14Cl2F10PtS4 | MND = 4
 OpenBabel04212202083D

 49 50  0  0  0  0  0  0  0  0999 V2000
    7.5978    0.0003    0.0000 Pt  0  0  0  0  0  0  0  0  0  0  0  0
    5.8601    1.1678    1.0092 Cl  0  0  0  0  0  0  0  0  0  0  0  0
    5.9030   -0.9490   -1.3838 S   0  0  2  0  0  3  0  0  0  0  0  0
    5.0419   -1.8755   -0.0690 C   0  0  0  0  0  0  0  0  0  0  0  0
    4.5375   -1.1076    0.5207 H   0  0  0  0  0  0  0  0  0  0  0  0
    4.2931   -2.5118   -0.5415 H   0  0  0  0  0  0  0  0  0  0  0  0
    5.9993   -2.6747    0.7930 C   0  0  0  0  0  0  0  0  0  0  0  0
    6.8793   -2.0783    1.0652 H   0  0  0  0  0  0  0  0  0  0  0  0
    6.3272   -3.5900    0.3020 H   0  0  0  0  0  0  0  0  0  0  0  0
    5.1495   -3.2442    2.3041 S   0  0  0  0  0  0  0  0  0  0  0  0
    4.8679   -1.6989    3.1272 C   0  0  0  0  0  0  0  0  0  0  0  0
    5.8862   -0.8112    3.4692 C   0  0  0  0  0  0  0  0  0  0  0  0
    7.1526   -1.0655    3.1246 F   0  0  0  0  0  0  0  0  0  0  0  0
    5.6155    0.3468    4.1877 C   0  0  0  0  0  0  0  0  0  0  0  0
    6.6135    1.1579    4.5439 F   0  0  0  0  0  0  0  0  0  0  0  0
    4.3132    0.6492    4.5678 C   0  0  0  0  0  0  0  0  0  0  0  0
    4.0592    1.7573    5.2610 F   0  0  0  0  0  0  0  0  0  0  0  0
    3.2816   -0.2226    4.2313 C   0  0  0  0  0  0  0  0  0  0  0  0
    2.0278    0.0546    4.5893 F   0  0  0  0  0  0  0  0  0  0  0  0
    3.5680   -1.3833    3.5241 C   0  0  0  0  0  0  0  0  0  0  0  0
    2.5701   -2.2113    3.2097 F   0  0  0  0  0  0  0  0  0  0  0  0
    6.5622   -2.3418   -2.3433 C   0  0  0  0  0  0  0  0  0  0  0  0
    5.7936   -3.1059   -2.3989 H   0  0  0  0  0  0  0  0  0  0  0  0
    7.4745   -2.7253   -1.8987 H   0  0  0  0  0  0  0  0  0  0  0  0
    6.7744   -1.9650   -3.3372 H   0  0  0  0  0  0  0  0  0  0  0  0
    9.3361   -1.1678   -1.0085 Cl  0  0  0  0  0  0  0  0  0  0  0  0
    9.2928    0.9499    1.3835 S   0  0  1  0  0  3  0  0  0  0  0  0
   10.1542    1.8764    0.0689 C   0  0  0  0  0  0  0  0  0  0  0  0
   10.6589    1.1085   -0.5207 H   0  0  0  0  0  0  0  0  0  0  0  0
   10.9027    2.5128    0.5415 H   0  0  0  0  0  0  0  0  0  0  0  0
    9.1966    2.6751   -0.7933 C   0  0  0  0  0  0  0  0  0  0  0  0
    8.3166    2.0786   -1.0651 H   0  0  0  0  0  0  0  0  0  0  0  0
    8.8687    3.5906   -0.3026 H   0  0  0  0  0  0  0  0  0  0  0  0
   10.0464    3.2439   -2.3046 S   0  0  0  0  0  0  0  0  0  0  0  0
   10.3276    1.6984   -3.1274 C   0  0  0  0  0  0  0  0  0  0  0  0
    9.3091    0.8109   -3.4692 C   0  0  0  0  0  0  0  0  0  0  0  0
    8.0428    1.0655   -3.1245 F   0  0  0  0  0  0  0  0  0  0  0  0
    9.5795   -0.3472   -4.1875 C   0  0  0  0  0  0  0  0  0  0  0  0
    8.5813   -1.1582   -4.5436 F   0  0  0  0  0  0  0  0  0  0  0  0
   10.8817   -0.6500   -4.5676 C   0  0  0  0  0  0  0  0  0  0  0  0
   11.1355   -1.7582   -5.2607 F   0  0  0  0  0  0  0  0  0  0  0  0
   11.9136    0.2216   -4.2313 C   0  0  0  0  0  0  0  0  0  0  0  0
   13.1673   -0.0559   -4.5893 F   0  0  0  0  0  0  0  0  0  0  0  0
   11.6274    1.3825   -3.5243 C   0  0  0  0  0  0  0  0  0  0  0  0
   12.6255    2.2103   -3.2101 F   0  0  0  0  0  0  0  0  0  0  0  0
    8.6337    2.3424    2.3434 C   0  0  0  0  0  0  0  0  0  0  0  0
    9.4033    3.1055    2.4007 H   0  0  0  0  0  0  0  0  0  0  0  0
    7.7224    2.7274    1.8976 H   0  0  0  0  0  0  0  0  0  0  0  0
    8.4195    1.9651    3.3369 H   0  0  0  0  0  0  0  0  0  0  0  0
  1  2  1  0  0  0  0
  1 27  1  0  0  0  0
  3 22  1  6  0  0  0
  3  4  1  0  0  0  0
  3  1  1  0  0  0  0
  4  5  1  0  0  0  0
  4  7  1  0  0  0  0
  6  4  1  0  0  0  0
  7  8  1  0  0  0  0
  7 10  1  0  0  0  0
  9  7  1  0  0  0  0
 10 11  1  0  0  0  0
 11 12  2  0  0  0  0
 11 20  1  0  0  0  0
 12 14  1  0  0  0  0
 13 12  1  0  0  0  0
 14 15  1  0  0  0  0
 14 16  2  0  0  0  0
 16 17  1  0  0  0  0
 18 16  1  0  0  0  0
 18 19  1  0  0  0  0
 20 18  2  0  0  0  0
 21 20  1  0  0  0  0
 22 24  1  0  0  0  0
 23 22  1  0  0  0  0
 25 22  1  0  0  0  0
 26  1  1  0  0  0  0
 27 28  1  6  0  0  0
 27 46  1  0  0  0  0
 28 30  1  0  0  0  0
 29 28  1  0  0  0  0
 31 33  1  0  0  0  0
 31 28  1  0  0  0  0
 32 31  1  0  0  0  0
 34 31  1  0  0  0  0
 35 34  1  0  0  0  0
 36 35  1  0  0  0  0
 36 37  1  0  0  0  0
 38 36  2  0  0  0  0
 39 38  1  0  0  0  0
 40 42  2  0  0  0  0
 40 38  1  0  0  0  0
 41 40  1  0  0  0  0
 42 44  1  0  0  0  0
 43 42  1  0  0  0  0
 44 45  1  0  0  0  0
 44 35  2  0  0  0  0
 46 47  1  0  0  0  0
 46 49  1  0  0  0  0
 48 46  1  0  0  0  0
M  END
$$$$
