CSD_code = QENHUN | q = 0 | S = 0 | Stoichiometry = C35H27ClO4Zr | MND = 10
 OpenBabel04212202083D

 68 74  0  0  1  0  0  0  0  0999 V2000
   -2.5242    1.7103    4.6868 Zr  0  0  0  0  0  0  0  0  0  0  0  0
   -1.5954   -0.3383    3.8387 Cl  0  0  0  0  0  0  0  0  0  0  0  0
   -1.0919    1.7180    6.1236 O   0  0  0  0  0  0  0  0  0  0  0  0
    0.1229    1.3405    6.0030 C   0  0  2  0  0  3  0  0  0  0  0  0
    0.8803    1.5088    4.8403 C   0  0  0  0  0  0  0  0  0  0  0  0
    1.8851    1.1237    4.8095 H   0  0  0  0  0  0  0  0  0  0  0  0
    0.3228    2.0664    3.6801 C   0  0  0  0  0  0  0  0  0  0  0  0
   -0.8829    2.4603    3.6040 O   0  0  0  0  0  0  0  0  0  0  0  0
   -2.7661    3.7340    4.8358 O   0  0  0  0  0  0  0  0  0  0  0  0
   -2.6934    4.5536    3.8670 C   0  0  0  0  0  0  0  0  0  0  0  0
   -2.9172    4.2219    2.5217 C   0  0  0  0  0  0  0  0  0  0  0  0
   -2.7592    4.9861    1.7788 H   0  0  0  0  0  0  0  0  0  0  0  0
   -3.2108    2.9185    2.0922 C   0  0  2  0  0  3  0  0  0  0  0  0
   -3.3858    1.9387    2.8853 O   0  0  0  0  0  0  0  0  0  0  0  0
    0.7376    0.6718    7.1756 C   0  0  0  0  0  0  0  0  0  0  0  0
    2.0779    0.8292    7.5185 C   0  0  0  0  0  0  0  0  0  0  0  0
    2.7115    1.4806    6.9357 H   0  0  0  0  0  0  0  0  0  0  0  0
    2.5907    0.1771    8.6249 C   0  0  0  0  0  0  0  0  0  0  0  0
    3.6290    0.3084    8.8919 H   0  0  0  0  0  0  0  0  0  0  0  0
    1.7785   -0.6433    9.3915 C   0  0  0  0  0  0  0  0  0  0  0  0
    2.1861   -1.1553   10.2505 H   0  0  0  0  0  0  0  0  0  0  0  0
    0.4436   -0.8035    9.0562 C   0  0  0  0  0  0  0  0  0  0  0  0
   -0.1905   -1.4432    9.6518 H   0  0  0  0  0  0  0  0  0  0  0  0
   -0.0771   -0.1432    7.9599 C   0  0  0  0  0  0  0  0  0  0  0  0
   -1.1143   -0.2606    7.6774 H   0  0  0  0  0  0  0  0  0  0  0  0
    1.1488    2.1990    2.4558 C   0  0  0  0  0  0  0  0  0  0  0  0
    0.4966    2.1106    1.2269 C   0  0  0  0  0  0  0  0  0  0  0  0
   -0.5702    1.9387    1.2199 H   0  0  0  0  0  0  0  0  0  0  0  0
    1.2071    2.2156    0.0471 C   0  0  0  0  0  0  0  0  0  0  0  0
    0.6924    2.1343   -0.8989 H   0  0  0  0  0  0  0  0  0  0  0  0
    2.5764    2.4257    0.0817 C   0  0  0  0  0  0  0  0  0  0  0  0
    3.1351    2.5101   -0.8387 H   0  0  0  0  0  0  0  0  0  0  0  0
    3.2299    2.5300    1.2995 C   0  0  0  0  0  0  0  0  0  0  0  0
    4.2960    2.7021    1.3251 H   0  0  0  0  0  0  0  0  0  0  0  0
    2.5244    2.4145    2.4833 C   0  0  0  0  0  0  0  0  0  0  0  0
    3.0386    2.5150    3.4270 H   0  0  0  0  0  0  0  0  0  0  0  0
   -2.3018    5.9459    4.2059 C   0  0  0  0  0  0  0  0  0  0  0  0
   -1.4337    6.1252    5.2824 C   0  0  0  0  0  0  0  0  0  0  0  0
   -1.0849    5.2490    5.8137 H   0  0  0  0  0  0  0  0  0  0  0  0
   -1.0247    7.3933    5.6473 C   0  0  0  0  0  0  0  0  0  0  0  0
   -0.3452    7.5240    6.4765 H   0  0  0  0  0  0  0  0  0  0  0  0
   -1.4906    8.4976    4.9515 C   0  0  0  0  0  0  0  0  0  0  0  0
   -1.1760    9.4900    5.2384 H   0  0  0  0  0  0  0  0  0  0  0  0
   -2.3669    8.3285    3.8916 C   0  0  0  0  0  0  0  0  0  0  0  0
   -2.7396    9.1906    3.3582 H   0  0  0  0  0  0  0  0  0  0  0  0
   -2.7702    7.0603    3.5150 C   0  0  0  0  0  0  0  0  0  0  0  0
   -3.4698    6.9377    2.7022 H   0  0  0  0  0  0  0  0  0  0  0  0
   -3.2896    2.6133    0.6419 C   0  0  0  0  0  0  0  0  0  0  0  0
   -2.9865    1.3054    0.2548 C   0  0  0  0  0  0  0  0  0  0  0  0
   -2.7305    0.5829    1.0208 H   0  0  0  0  0  0  0  0  0  0  0  0
   -3.0011    0.9510   -1.0803 C   0  0  0  0  0  0  0  0  0  0  0  0
   -2.7544   -0.0591   -1.3706 H   0  0  0  0  0  0  0  0  0  0  0  0
   -3.3352    1.8907   -2.0428 C   0  0  0  0  0  0  0  0  0  0  0  0
   -3.3502    1.6151   -3.0869 H   0  0  0  0  0  0  0  0  0  0  0  0
   -3.6584    3.1842   -1.6645 C   0  0  0  0  0  0  0  0  0  0  0  0
   -3.9335    3.9117   -2.4140 H   0  0  0  0  0  0  0  0  0  0  0  0
   -3.6336    3.5490   -0.3307 C   0  0  0  0  0  0  0  0  0  0  0  0
   -3.9075    4.5535   -0.0469 H   0  0  0  0  0  0  0  0  0  0  0  0
   -3.7270    0.0565    6.1383 C   0  0  0  0  0  3  0  0  0  0  0  0
   -3.2836   -0.8983    6.4008 H   0  0  0  0  0  0  0  0  0  0  0  0
   -3.7199    1.2312    6.9196 C   0  0  0  0  0  0  0  0  0  0  0  0
   -3.2628    1.3484    7.8949 H   0  0  0  0  0  0  0  0  0  0  0  0
   -4.5342    2.1858    6.2792 C   0  0  0  0  0  0  0  0  0  0  0  0
   -4.7911    3.1615    6.6709 H   0  0  0  0  0  0  0  0  0  0  0  0
   -5.0524    1.6048    5.1066 C   0  0  0  0  0  3  0  0  0  0  0  0
   -5.7801    2.0554    4.4412 H   0  0  0  0  0  0  0  0  0  0  0  0
   -4.5527    0.2884    5.0133 C   0  0  1  0  0  0  0  0  0  0  0  0
   -4.8311   -0.4507    4.2698 H   0  0  0  0  0  0  0  0  0  0  0  0
  1  9  1  0  0  0  0
  1 67  1  0  0  0  0
  1  3  1  0  0  0  0
  2  1  1  0  0  0  0
  4  3  1  0  0  0  0
  4 15  1  6  0  0  0
  5  4  1  0  0  0  0
  6  5  1  0  0  0  0
  7  5  2  0  0  0  0
  8  7  1  0  0  0  0
  8  1  1  0  0  0  0
 10 37  1  0  0  0  0
 10  9  1  0  0  0  0
 11 10  2  0  0  0  0
 12 11  1  0  0  0  0
 13 48  1  6  0  0  0
 13 11  1  0  0  0  0
 13 14  1  0  0  0  0
 14  1  1  0  0  0  0
 15 16  2  0  0  0  0
 15 24  1  0  0  0  0
 16 18  1  0  0  0  0
 17 16  1  0  0  0  0
 18 19  1  0  0  0  0
 18 20  2  0  0  0  0
 20 21  1  0  0  0  0
 22 20  1  0  0  0  0
 22 23  1  0  0  0  0
 24 22  2  0  0  0  0
 25 24  1  0  0  0  0
 26 35  1  0  0  0  0
 26  7  1  0  0  0  0
 27 26  2  0  0  0  0
 28 27  1  0  0  0  0
 29 31  2  0  0  0  0
 29 27  1  0  0  0  0
 30 29  1  0  0  0  0
 31 33  1  0  0  0  0
 32 31  1  0  0  0  0
 33 34  1  0  0  0  0
 33 35  2  0  0  0  0
 35 36  1  0  0  0  0
 37 38  1  0  0  0  0
 38 40  2  0  0  0  0
 38 39  1  0  0  0  0
 40 41  1  0  0  0  0
 42 43  1  0  0  0  0
 42 40  1  0  0  0  0
 44 42  2  0  0  0  0
 45 44  1  0  0  0  0
 46 44  1  0  0  0  0
 46 37  2  0  0  0  0
 47 46  1  0  0  0  0
 49 48  1  0  0  0  0
 49 50  1  0  0  0  0
 51 49  2  0  0  0  0
 52 51  1  0  0  0  0
 53 55  2  0  0  0  0
 53 51  1  0  0  0  0
 54 53  1  0  0  0  0
 55 57  1  0  0  0  0
 56 55  1  0  0  0  0
 57 58  1  0  0  0  0
 57 48  2  0  0  0  0
 59 60  1  0  0  0  0
 59 61  1  0  0  0  0
 61 62  1  0  0  0  0
 63 64  1  0  0  0  0
 63 61  2  0  0  0  0
 65 63  1  0  0  0  0
 66 65  1  0  0  0  0
 67 68  1  6  0  0  0
 67 65  1  0  0  0  0
 67 59  1  0  0  0  0
M  END
$$$$
