CSD_code = QENYUE | q = 0 | S = 0 | Stoichiometry = C23H22Cl2Zr | MND = 12
 OpenBabel04212202083D

 48 54  0  0  1  0  0  0  0  0999 V2000
   -1.0427    1.8587    3.3069 Zr  0  0  0  0  0  0  0  0  0  0  0  0
   -2.5399    3.4544    2.5416 Cl  0  0  0  0  0  0  0  0  0  0  0  0
   -2.7918    0.4157    4.1920 C   0  0  1  0  0  0  0  0  0  0  0  0
   -3.6513    0.0804    3.6219 H   0  0  0  0  0  0  0  0  0  0  0  0
   -1.5700   -0.2864    4.3381 C   0  0  2  0  0  3  0  0  0  0  0  0
   -0.7362    0.4151    5.2434 C   0  0  2  0  0  0  0  0  0  0  0  0
    0.2289    0.0791    5.6064 H   0  0  0  0  0  0  0  0  0  0  0  0
   -1.4899    1.5140    5.7674 C   0  0  0  0  0  0  0  0  0  0  0  0
   -1.1815    2.4961    6.7399 C   0  0  0  0  0  0  0  0  0  0  0  0
   -2.1412    3.4445    7.0016 C   0  0  0  0  0  0  0  0  0  0  0  0
   -1.9372    4.2157    7.7302 H   0  0  0  0  0  0  0  0  0  0  0  0
   -3.3931    3.4451    6.3612 C   0  0  0  0  0  0  0  0  0  0  0  0
   -4.1027    4.2167    6.6223 H   0  0  0  0  0  0  0  0  0  0  0  0
   -3.7433    2.4972    5.4294 C   0  0  0  0  0  0  0  0  0  0  0  0
   -2.7750    1.5145    5.1102 C   0  0  0  0  0  0  0  0  0  0  0  0
   -1.0426   -1.2616    3.3070 C   0  0  0  0  0  0  0  0  0  0  0  0
   -0.2491   -1.8934    3.7130 H   0  0  0  0  0  0  0  0  0  0  0  0
    0.1511    2.4782    7.4255 C   0  0  0  0  0  0  0  0  0  0  0  0
    0.2091    3.2647    8.1728 H   0  0  0  0  0  0  0  0  0  0  0  0
    0.9447    2.6333    6.6926 H   0  0  0  0  0  0  0  0  0  0  0  0
    0.3170    1.5176    7.9129 H   0  0  0  0  0  0  0  0  0  0  0  0
   -5.0791    2.4807    4.7501 C   0  0  0  0  0  0  0  0  0  0  0  0
   -5.7182    3.2679    5.1404 H   0  0  0  0  0  0  0  0  0  0  0  0
   -5.5724    1.5206    4.9008 H   0  0  0  0  0  0  0  0  0  0  0  0
   -4.9491    2.6358    3.6777 H   0  0  0  0  0  0  0  0  0  0  0  0
    0.4548    3.4546    4.0746 Cl  0  0  0  0  0  0  0  0  0  0  0  0
    0.7065    0.4157    2.4219 C   0  0  1  0  0  0  0  0  0  0  0  0
    1.5660    0.0806    2.9921 H   0  0  0  0  0  0  0  0  0  0  0  0
   -0.5153   -0.2865    2.2759 C   0  0  2  0  0  3  0  0  0  0  0  0
   -1.3492    0.4150    1.3706 C   0  0  2  0  0  0  0  0  0  0  0  0
   -2.3144    0.0791    1.0077 H   0  0  0  0  0  0  0  0  0  0  0  0
   -0.5954    1.5139    0.8464 C   0  0  0  0  0  0  0  0  0  0  0  0
   -0.9040    2.4960   -0.1259 C   0  0  0  0  0  0  0  0  0  0  0  0
    0.0557    3.4445   -0.3877 C   0  0  0  0  0  0  0  0  0  0  0  0
   -0.1484    4.2157   -1.1161 H   0  0  0  0  0  0  0  0  0  0  0  0
    1.3077    3.4450    0.2526 C   0  0  0  0  0  0  0  0  0  0  0  0
    2.0172    4.2167   -0.0086 H   0  0  0  0  0  0  0  0  0  0  0  0
    1.6579    2.4971    1.1843 C   0  0  0  0  0  0  0  0  0  0  0  0
    0.6897    1.5144    1.5036 C   0  0  0  0  0  0  0  0  0  0  0  0
   -1.8361   -1.8935    2.9011 H   0  0  0  0  0  0  0  0  0  0  0  0
   -2.2368    2.4783   -0.8113 C   0  0  0  0  0  0  0  0  0  0  0  0
   -2.2949    3.2648   -1.5585 H   0  0  0  0  0  0  0  0  0  0  0  0
   -3.0302    2.6333   -0.0782 H   0  0  0  0  0  0  0  0  0  0  0  0
   -2.4027    1.5176   -1.2987 H   0  0  0  0  0  0  0  0  0  0  0  0
    2.9938    2.4807    1.8635 C   0  0  0  0  0  0  0  0  0  0  0  0
    3.6328    3.2678    1.4731 H   0  0  0  0  0  0  0  0  0  0  0  0
    3.4871    1.5205    1.7127 H   0  0  0  0  0  0  0  0  0  0  0  0
    2.8640    2.6357    2.9359 H   0  0  0  0  0  0  0  0  0  0  0  0
  1 26  1  0  0  0  0
  1  3  1  0  0  0  0
  1  6  1  0  0  0  0
  2  1  1  0  0  0  0
  3  4  1  6  0  0  0
  3  5  1  0  0  0  0
  3 15  1  0  0  0  0
  5 16  1  6  0  0  0
  5  6  1  0  0  0  0
  6  7  1  1  0  0  0
  6  8  1  0  0  0  0
  8  9  1  0  0  0  0
  9 10  2  0  0  0  0
  9 18  1  0  0  0  0
 10 11  1  0  0  0  0
 12 13  1  0  0  0  0
 12 10  1  0  0  0  0
 14 12  2  0  0  0  0
 15 14  1  0  0  0  0
 15  8  2  0  0  0  0
 16 17  1  0  0  0  0
 18 21  1  0  0  0  0
 18 19  1  0  0  0  0
 20 18  1  0  0  0  0
 22 24  1  0  0  0  0
 22 23  1  0  0  0  0
 22 14  1  0  0  0  0
 25 22  1  0  0  0  0
 27 28  1  1  0  0  0
 27  1  1  0  0  0  0
 29 27  1  0  0  0  0
 29 16  1  1  0  0  0
 30 31  1  6  0  0  0
 30 29  1  0  0  0  0
 30  1  1  0  0  0  0
 32 30  1  0  0  0  0
 32 39  1  0  0  0  0
 33 32  2  0  0  0  0
 34 33  1  0  0  0  0
 34 36  2  0  0  0  0
 35 34  1  0  0  0  0
 36 38  1  0  0  0  0
 37 36  1  0  0  0  0
 38 39  2  0  0  0  0
 38 45  1  0  0  0  0
 39 27  1  0  0  0  0
 40 16  1  0  0  0  0
 41 33  1  0  0  0  0
 41 43  1  0  0  0  0
 42 41  1  0  0  0  0
 44 41  1  0  0  0  0
 45 48  1  0  0  0  0
 46 45  1  0  0  0  0
 47 45  1  0  0  0  0
M  END
$$$$
