CSD_code = QENZAL | q = 0 | S = 0 | Stoichiometry = C25H30Cl2Si2Zr | MND = 12
 OpenBabel04212202083D

 60 64  0  0  1  0  0  0  0  0999 V2000
   -1.3044    1.9794    3.0221 Zr  0  0  0  0  0  0  0  0  0  0  0  0
   -2.5790    3.6332    2.0073 Cl  0  0  0  0  0  0  0  0  0  0  0  0
   -3.1181    0.6196    3.6699 C   0  0  1  0  0  0  0  0  0  0  0  0
   -1.9593   -0.1634    3.9837 C   0  0  2  0  0  3  0  0  0  0  0  0
   -1.2499    0.4287    5.0438 C   0  0  0  0  0  3  0  0  0  0  0  0
   -0.3824    0.0124    5.5367 H   0  0  0  0  0  0  0  0  0  0  0  0
   -1.9773    1.5727    5.4831 C   0  0  0  0  0  0  0  0  0  0  0  0
   -1.7411    2.5151    6.4996 C   0  0  0  0  0  0  0  0  0  0  0  0
   -0.8896    2.4052    7.1577 H   0  0  0  0  0  0  0  0  0  0  0  0
   -2.5996    3.5785    6.6265 C   0  0  0  0  0  0  0  0  0  0  0  0
   -2.4259    4.3208    7.3909 H   0  0  0  0  0  0  0  0  0  0  0  0
   -3.7056    3.7289    5.7725 C   0  0  0  0  0  0  0  0  0  0  0  0
   -4.3477    4.5877    5.9004 H   0  0  0  0  0  0  0  0  0  0  0  0
   -3.9873    2.8099    4.7905 C   0  0  0  0  0  0  0  0  0  0  0  0
   -4.8486    2.9379    4.1485 H   0  0  0  0  0  0  0  0  0  0  0  0
   -3.1307    1.7045    4.6243 C   0  0  0  0  0  0  0  0  0  0  0  0
   -1.3043   -1.1336    3.0221 C   0  0  0  0  0  0  0  0  0  0  0  0
   -0.5769   -1.7629    3.5335 H   0  0  0  0  0  0  0  0  0  0  0  0
   -4.6231    0.1918    2.6209 Si  0  0  0  0  0  0  0  0  0  0  0  0
   -4.9111    1.4600    1.2210 C   0  0  0  0  0  0  0  0  0  0  0  0
   -4.0100    1.6573    0.6437 H   0  0  0  0  0  0  0  0  0  0  0  0
   -5.2376    2.4159    1.6195 H   0  0  0  0  0  0  0  0  0  0  0  0
   -5.6795    1.1128    0.5361 H   0  0  0  0  0  0  0  0  0  0  0  0
   -6.1457    0.1368    3.7814 C   0  0  0  0  0  0  0  0  0  0  0  0
   -6.2589    1.0467    4.3605 H   0  0  0  0  0  0  0  0  0  0  0  0
   -6.0721   -0.6865    4.4858 H   0  0  0  0  0  0  0  0  0  0  0  0
   -7.0573   -0.0041    3.2091 H   0  0  0  0  0  0  0  0  0  0  0  0
   -4.5460   -1.5593    1.8444 C   0  0  0  0  0  0  0  0  0  0  0  0
   -5.5202   -1.7953    1.4284 H   0  0  0  0  0  0  0  0  0  0  0  0
   -4.3239   -2.3225    2.5835 H   0  0  0  0  0  0  0  0  0  0  0  0
   -3.8279   -1.6509    1.0363 H   0  0  0  0  0  0  0  0  0  0  0  0
   -0.0291    3.6331    4.0363 Cl  0  0  0  0  0  0  0  0  0  0  0  0
    0.5094    0.6196    2.3743 C   0  0  1  0  0  0  0  0  0  0  0  0
   -0.6494   -0.1634    2.0605 C   0  0  2  0  0  3  0  0  0  0  0  0
   -1.3587    0.4287    1.0003 C   0  0  0  0  0  3  0  0  0  0  0  0
   -2.2262    0.0123    0.5074 H   0  0  0  0  0  0  0  0  0  0  0  0
   -0.6314    1.5727    0.5611 C   0  0  0  0  0  0  0  0  0  0  0  0
   -0.8676    2.5151   -0.4554 C   0  0  0  0  0  0  0  0  0  0  0  0
   -1.7190    2.4052   -1.1136 H   0  0  0  0  0  0  0  0  0  0  0  0
   -0.0091    3.5786   -0.5823 C   0  0  0  0  0  0  0  0  0  0  0  0
   -0.1828    4.3208   -1.3467 H   0  0  0  0  0  0  0  0  0  0  0  0
    1.0968    3.7290    0.2716 C   0  0  0  0  0  0  0  0  0  0  0  0
    1.7390    4.5878    0.1438 H   0  0  0  0  0  0  0  0  0  0  0  0
    1.3785    2.8100    1.2537 C   0  0  0  0  0  0  0  0  0  0  0  0
    2.2399    2.9380    1.8956 H   0  0  0  0  0  0  0  0  0  0  0  0
    0.5220    1.7045    1.4199 C   0  0  0  0  0  0  0  0  0  0  0  0
   -2.0317   -1.7629    2.5107 H   0  0  0  0  0  0  0  0  0  0  0  0
    2.0145    0.1918    3.4232 Si  0  0  0  0  0  0  0  0  0  0  0  0
    2.3025    1.4601    4.8230 C   0  0  0  0  0  0  0  0  0  0  0  0
    1.4015    1.6574    5.4004 H   0  0  0  0  0  0  0  0  0  0  0  0
    2.6290    2.4160    4.4246 H   0  0  0  0  0  0  0  0  0  0  0  0
    3.0710    1.1129    5.5079 H   0  0  0  0  0  0  0  0  0  0  0  0
    3.5370    0.1368    2.2626 C   0  0  0  0  0  0  0  0  0  0  0  0
    3.6502    1.0466    1.6835 H   0  0  0  0  0  0  0  0  0  0  0  0
    3.4634   -0.6866    1.5582 H   0  0  0  0  0  0  0  0  0  0  0  0
    4.4487   -0.0041    2.8348 H   0  0  0  0  0  0  0  0  0  0  0  0
    1.9374   -1.5593    4.1997 C   0  0  0  0  0  0  0  0  0  0  0  0
    2.9116   -1.7953    4.6157 H   0  0  0  0  0  0  0  0  0  0  0  0
    1.7153   -2.3225    3.4606 H   0  0  0  0  0  0  0  0  0  0  0  0
    1.2193   -1.6509    5.0078 H   0  0  0  0  0  0  0  0  0  0  0  0
  1  3  1  0  0  0  0
  1 32  1  0  0  0  0
  2  1  1  0  0  0  0
  3 19  1  6  0  0  0
  3  4  1  0  0  0  0
  3 16  1  0  0  0  0
  4  5  1  6  0  0  0
  5  7  1  0  0  0  0
  5  6  1  0  0  0  0
  7  8  1  0  0  0  0
  8 10  2  0  0  0  0
  8  9  1  0  0  0  0
 10 11  1  0  0  0  0
 12 13  1  0  0  0  0
 12 10  1  0  0  0  0
 14 12  2  0  0  0  0
 15 14  1  0  0  0  0
 16 14  1  0  0  0  0
 16  7  2  0  0  0  0
 17 18  1  0  0  0  0
 17  4  1  0  0  0  0
 19 24  1  0  0  0  0
 20 22  1  0  0  0  0
 20 19  1  0  0  0  0
 21 20  1  0  0  0  0
 23 20  1  0  0  0  0
 24 25  1  0  0  0  0
 24 26  1  0  0  0  0
 27 24  1  0  0  0  0
 28 30  1  0  0  0  0
 28 19  1  0  0  0  0
 29 28  1  0  0  0  0
 31 28  1  0  0  0  0
 33  1  1  0  0  0  0
 33 48  1  1  0  0  0
 34 35  1  1  0  0  0
 34 33  1  0  0  0  0
 34 17  1  0  0  0  0
 36 35  1  0  0  0  0
 37 35  1  0  0  0  0
 37 46  1  0  0  0  0
 38 37  2  0  0  0  0
 39 38  1  0  0  0  0
 40 38  1  0  0  0  0
 40 42  2  0  0  0  0
 41 40  1  0  0  0  0
 42 44  1  0  0  0  0
 43 42  1  0  0  0  0
 44 46  2  0  0  0  0
 44 45  1  0  0  0  0
 46 33  1  0  0  0  0
 47 17  1  0  0  0  0
 48 57  1  0  0  0  0
 48 49  1  0  0  0  0
 49 50  1  0  0  0  0
 49 52  1  0  0  0  0
 51 49  1  0  0  0  0
 53 56  1  0  0  0  0
 53 48  1  0  0  0  0
 54 53  1  0  0  0  0
 55 53  1  0  0  0  0
 57 58  1  0  0  0  0
 57 60  1  0  0  0  0
 59 57  1  0  0  0  0
M  END
$$$$
