CSD_code = QEPXOZ | q = 0 | S = 0 | Stoichiometry = C15H24Cl3IrN6 | MND = 6
 OpenBabel04212202083D

 49 51  0  0  1  0  0  0  0  0999 V2000
   25.7851    4.6766   13.6983 Ir  0  0  0  0  0  0  0  0  0  0  0  0
   24.7270    2.7597   14.7028 Cl  0  0  0  0  0  0  0  0  0  0  0  0
   23.7182    5.7855   13.7838 Cl  0  0  0  0  0  0  0  0  0  0  0  0
   26.6239    6.5434   12.5066 Cl  0  0  0  0  0  0  0  0  0  0  0  0
   26.2788    5.6159   15.4359 N   0  0  0  0  0  0  0  0  0  0  0  0
   26.1345    6.9477   15.4451 N   0  0  0  0  0  0  0  0  0  0  0  0
   25.8844    7.4219   14.5823 H   0  0  0  0  0  0  0  0  0  0  0  0
   27.5778    3.6107   13.7684 N   0  0  0  0  0  0  0  0  0  0  0  0
   27.4547    2.2757   13.8144 N   0  0  0  0  0  0  0  0  0  0  0  0
   26.5112    1.9011   13.9605 H   0  0  0  0  0  0  0  0  0  0  0  0
   25.2096    3.8552   11.9261 N   0  0  0  0  0  0  0  0  0  0  0  0
   23.8984    3.6600   11.7447 N   0  0  0  0  0  0  0  0  0  0  0  0
   23.2560    4.0286   12.4445 H   0  0  0  0  0  0  0  0  0  0  0  0
   26.4560    7.4763   16.6337 C   0  0  2  0  0  3  0  0  0  0  0  0
   26.8217    6.4151   17.4381 C   0  0  0  0  0  0  0  0  0  0  0  0
   27.1327    6.4541   18.4617 H   0  0  0  0  0  0  0  0  0  0  0  0
   26.6985    5.2641   16.6488 C   0  0  0  0  0  0  0  0  0  0  0  0
   26.3767    8.9331   16.9007 C   0  0  0  0  0  0  0  0  0  0  0  0
   26.7671    9.1538   17.8897 H   0  0  0  0  0  0  0  0  0  0  0  0
   25.3422    9.2705   16.8482 H   0  0  0  0  0  0  0  0  0  0  0  0
   26.9499    9.4865   16.1585 H   0  0  0  0  0  0  0  0  0  0  0  0
   26.9974    3.8654   17.0495 C   0  0  0  0  0  0  0  0  0  0  0  0
   26.2719    3.1849   16.6113 H   0  0  0  0  0  0  0  0  0  0  0  0
   26.9681    3.7773   18.1321 H   0  0  0  0  0  0  0  0  0  0  0  0
   27.9901    3.5762   16.7043 H   0  0  0  0  0  0  0  0  0  0  0  0
   28.6494    1.6747   13.9310 C   0  0  2  0  0  3  0  0  0  0  0  0
   29.5922    2.6831   13.9278 C   0  0  0  0  0  0  0  0  0  0  0  0
   30.6557    2.5786   13.9908 H   0  0  0  0  0  0  0  0  0  0  0  0
   28.8771    3.8865   13.8340 C   0  0  0  0  0  0  0  0  0  0  0  0
   28.7887    0.2001   14.0169 C   0  0  0  0  0  0  0  0  0  0  0  0
   28.0885   -0.2033   14.7459 H   0  0  0  0  0  0  0  0  0  0  0  0
   29.8010   -0.0633   14.3090 H   0  0  0  0  0  0  0  0  0  0  0  0
   28.5743   -0.2605   13.0528 H   0  0  0  0  0  0  0  0  0  0  0  0
   29.4395    5.2593   13.8471 C   0  0  0  0  0  0  0  0  0  0  0  0
   28.7730    5.9477   13.3346 H   0  0  0  0  0  0  0  0  0  0  0  0
   30.4164    5.2684   13.3706 H   0  0  0  0  0  0  0  0  0  0  0  0
   29.5569    5.6012   14.8756 H   0  0  0  0  0  0  0  0  0  0  0  0
   23.6354    3.1421   10.5374 C   0  0  1  0  0  3  0  0  0  0  0  0
   24.8579    2.9767    9.9158 C   0  0  0  0  0  0  0  0  0  0  0  0
   25.0401    2.5841    8.9368 H   0  0  0  0  0  0  0  0  0  0  0  0
   25.8217    3.4429   10.8187 C   0  0  0  0  0  0  0  0  0  0  0  0
   22.2545    2.8425   10.0867 C   0  0  0  0  0  0  0  0  0  0  0  0
   21.6157    3.7141   10.2208 H   0  0  0  0  0  0  0  0  0  0  0  0
   21.8350    2.0231   10.6702 H   0  0  0  0  0  0  0  0  0  0  0  0
   22.2569    2.5606    9.0376 H   0  0  0  0  0  0  0  0  0  0  0  0
   27.2917    3.5091   10.6113 C   0  0  0  0  0  0  0  0  0  0  0  0
   27.5084    3.5392    9.5467 H   0  0  0  0  0  0  0  0  0  0  0  0
   27.7851    2.6366   11.0386 H   0  0  0  0  0  0  0  0  0  0  0  0
   27.6953    4.4007   11.0842 H   0  0  0  0  0  0  0  0  0  0  0  0
  1  8  1  0  0  0  0
  1  3  1  0  0  0  0
  1  2  1  0  0  0  0
  1  5  1  0  0  0  0
  4  1  1  0  0  0  0
  5  6  1  0  0  0  0
  5 17  1  0  0  0  0
  6 14  1  0  0  0  0
  7  6  1  0  0  0  0
  8  9  1  0  0  0  0
  8 29  1  0  0  0  0
  9 26  1  0  0  0  0
  9 10  1  0  0  0  0
 11  1  1  0  0  0  0
 12 11  1  0  0  0  0
 12 13  1  0  0  0  0
 14 18  1  1  0  0  0
 14 15  1  0  0  0  0
 15 16  1  0  0  0  0
 17 22  1  0  0  0  0
 17 15  2  0  0  0  0
 18 19  1  0  0  0  0
 20 18  1  0  0  0  0
 21 18  1  0  0  0  0
 22 24  1  0  0  0  0
 23 22  1  0  0  0  0
 25 22  1  0  0  0  0
 26 30  1  6  0  0  0
 27 26  1  0  0  0  0
 27 28  1  0  0  0  0
 29 34  1  0  0  0  0
 29 27  2  0  0  0  0
 30 32  1  0  0  0  0
 30 31  1  0  0  0  0
 33 30  1  0  0  0  0
 34 37  1  0  0  0  0
 35 34  1  0  0  0  0
 36 34  1  0  0  0  0
 38 42  1  1  0  0  0
 38 12  1  0  0  0  0
 39 38  1  0  0  0  0
 39 41  2  0  0  0  0
 40 39  1  0  0  0  0
 41 11  1  0  0  0  0
 42 43  1  0  0  0  0
 42 44  1  0  0  0  0
 45 42  1  0  0  0  0
 46 41  1  0  0  0  0
 46 48  1  0  0  0  0
 46 49  1  0  0  0  0
 47 46  1  0  0  0  0
M  END
$$$$
