CSD_code = QERTAJ | q = 0 | S = 0 | Stoichiometry = C24H22Cl6N6O4Zn | MND = 4
 OpenBabel04212202083D

 63 68  0  0  0  0  0  0  0  0999 V2000
    3.1677    5.8021    4.6036 C   0  0  0  0  0  0  0  0  0  0  0  0
    2.8587    7.0964    5.0163 C   0  0  0  0  0  0  0  0  0  0  0  0
    1.8660    7.3216    5.9581 C   0  0  0  0  0  0  0  0  0  0  0  0
    1.6405    8.3281    6.2706 H   0  0  0  0  0  0  0  0  0  0  0  0
    1.1719    6.2453    6.4866 C   0  0  0  0  0  0  0  0  0  0  0  0
    1.4570    4.9501    6.0821 C   0  0  0  0  0  0  0  0  0  0  0  0
    0.9105    4.1180    6.4955 H   0  0  0  0  0  0  0  0  0  0  0  0
    2.4518    4.7427    5.1458 C   0  0  0  0  0  0  0  0  0  0  0  0
    2.6899    3.7414    4.8214 H   0  0  0  0  0  0  0  0  0  0  0  0
    4.2758    5.5249    3.5894 C   0  0  0  0  0  0  0  0  0  0  0  0
    3.7849    5.9440    2.1720 C   0  0  0  0  0  0  0  0  0  0  0  0
    3.0043    5.2441    1.8669 H   0  0  0  0  0  0  0  0  0  0  0  0
    3.4064    6.9658    2.1886 H   0  0  0  0  0  0  0  0  0  0  0  0
    5.6662    4.8776    0.9438 C   0  0  0  0  0  3  0  0  0  0  0  0
    5.5129    3.8710    1.2763 H   0  0  0  0  0  0  0  0  0  0  0  0
    6.4261    6.6254    0.0469 C   0  0  0  0  0  0  0  0  0  0  0  0
    7.0418    7.2808   -0.5341 H   0  0  0  0  0  0  0  0  0  0  0  0
    5.7658    3.9616    4.3236 C   0  0  0  0  0  0  0  0  0  0  0  0
    6.3450    3.1496    3.8850 H   0  0  0  0  0  0  0  0  0  0  0  0
    5.4800    3.7269    5.3559 H   0  0  0  0  0  0  0  0  0  0  0  0
    6.4845    5.3074    4.2289 C   0  0  0  0  0  0  0  0  0  0  0  0
    6.9633    5.6066    5.1619 H   0  0  0  0  0  0  0  0  0  0  0  0
    7.2210    5.3009    3.4180 H   0  0  0  0  0  0  0  0  0  0  0  0
    3.6945    8.4561    4.3727 Cl  0  0  0  0  0  0  0  0  0  0  0  0
   -0.0604    6.5283    7.6550 Cl  0  0  0  0  0  0  0  0  0  0  0  0
    8.2419    3.0943    1.9738 Cl  0  0  0  0  0  0  0  0  0  0  0  0
    4.8853    5.9100    1.2573 N   0  0  0  0  0  0  0  0  0  0  0  0
    5.3630    7.0189    0.6921 N   0  0  0  0  0  0  0  0  0  0  0  0
    6.6585    5.2994    0.1780 N   0  0  0  0  0  0  0  0  0  0  0  0
    4.6068    4.1625    3.5313 O   0  0  0  0  0  0  0  0  0  0  0  0
    5.4475    6.2315    3.9326 O   0  0  0  0  0  0  0  0  0  0  0  0
    8.3300    4.0694   -0.0017 Zn  0  0  0  0  0  0  0  0  0  0  0  0
   13.4945    5.8019   -4.6014 C   0  0  0  0  0  0  0  0  0  0  0  0
   13.8032    7.0960   -5.0148 C   0  0  0  0  0  0  0  0  0  0  0  0
   14.7950    7.3209   -5.9576 C   0  0  0  0  0  0  0  0  0  0  0  0
   15.0203    8.3274   -6.2706 H   0  0  0  0  0  0  0  0  0  0  0  0
   15.4885    6.2444   -6.4866 C   0  0  0  0  0  0  0  0  0  0  0  0
   15.2037    4.9493   -6.0814 C   0  0  0  0  0  0  0  0  0  0  0  0
   15.7497    4.1171   -6.4950 H   0  0  0  0  0  0  0  0  0  0  0  0
   14.2099    4.7424   -5.1439 C   0  0  0  0  0  0  0  0  0  0  0  0
   13.9722    3.7411   -4.8189 H   0  0  0  0  0  0  0  0  0  0  0  0
   12.3868    5.5250   -3.5868 C   0  0  0  0  0  0  0  0  0  0  0  0
   12.8770    5.9448   -2.1694 C   0  0  0  0  0  0  0  0  0  0  0  0
   13.6577    5.2453   -1.8636 H   0  0  0  0  0  0  0  0  0  0  0  0
   13.2550    6.9667   -2.1863 H   0  0  0  0  0  0  0  0  0  0  0  0
   10.9945    4.8784   -0.9431 C   0  0  0  0  0  3  0  0  0  0  0  0
   11.1481    3.8718   -1.2755 H   0  0  0  0  0  0  0  0  0  0  0  0
   10.2338    6.6262   -0.0468 C   0  0  0  0  0  0  0  0  0  0  0  0
    9.6176    7.2816    0.5335 H   0  0  0  0  0  0  0  0  0  0  0  0
   10.9000    3.9610   -4.3249 C   0  0  0  0  0  0  0  0  0  0  0  0
   10.3197    3.1487   -3.8883 H   0  0  0  0  0  0  0  0  0  0  0  0
   11.1897    3.7264   -5.3561 H   0  0  0  0  0  0  0  0  0  0  0  0
   10.1801    5.3064   -4.2330 C   0  0  0  0  0  0  0  0  0  0  0  0
    9.7063    5.6060   -5.1685 H   0  0  0  0  0  0  0  0  0  0  0  0
    9.4392    5.2989   -3.4262 H   0  0  0  0  0  0  0  0  0  0  0  0
   12.9680    8.4561   -4.3709 Cl  0  0  0  0  0  0  0  0  0  0  0  0
   16.7195    6.5269   -7.6563 Cl  0  0  0  0  0  0  0  0  0  0  0  0
    8.4185    3.0984   -1.9790 Cl  0  0  0  0  0  0  0  0  0  0  0  0
   11.7760    5.9107   -1.2555 N   0  0  0  0  0  0  0  0  0  0  0  0
   11.2977    7.0196   -0.6907 N   0  0  0  0  0  0  0  0  0  0  0  0
   10.0014    5.3001   -0.1784 N   0  0  0  0  0  0  0  0  0  0  0  0
   12.0559    4.1626   -3.5284 O   0  0  0  0  0  0  0  0  0  0  0  0
   11.2146    6.2311   -3.9298 O   0  0  0  0  0  0  0  0  0  0  0  0
  1  2  2  0  0  0  0
  1  8  1  0  0  0  0
  2  3  1  0  0  0  0
  3  4  1  0  0  0  0
  3  5  2  0  0  0  0
  5 25  1  0  0  0  0
  6  5  1  0  0  0  0
  6  7  1  0  0  0  0
  8  6  2  0  0  0  0
  9  8  1  0  0  0  0
 10 31  1  0  0  0  0
 10  1  1  0  0  0  0
 11 13  1  0  0  0  0
 11 10  1  0  0  0  0
 12 11  1  0  0  0  0
 14 27  1  0  0  0  0
 14 15  1  0  0  0  0
 16 29  1  0  0  0  0
 16 28  2  0  0  0  0
 17 16  1  0  0  0  0
 18 20  1  0  0  0  0
 19 18  1  0  0  0  0
 21 18  1  0  0  0  0
 21 22  1  0  0  0  0
 23 21  1  0  0  0  0
 24  2  1  0  0  0  0
 27 11  1  0  0  0  0
 28 27  1  0  0  0  0
 29 14  1  0  0  0  0
 30 10  1  0  0  0  0
 30 18  1  0  0  0  0
 31 21  1  0  0  0  0
 32 29  1  0  0  0  0
 32 26  1  0  0  0  0
 33 42  1  0  0  0  0
 34 33  1  0  0  0  0
 34 56  1  0  0  0  0
 35 34  2  0  0  0  0
 36 35  1  0  0  0  0
 37 38  2  0  0  0  0
 37 35  1  0  0  0  0
 38 40  1  0  0  0  0
 39 38  1  0  0  0  0
 40 41  1  0  0  0  0
 40 33  2  0  0  0  0
 42 62  1  0  0  0  0
 42 43  1  0  0  0  0
 43 44  1  0  0  0  0
 43 59  1  0  0  0  0
 45 43  1  0  0  0  0
 46 61  1  0  0  0  0
 47 46  1  0  0  0  0
 48 49  1  0  0  0  0
 50 53  1  0  0  0  0
 50 51  1  0  0  0  0
 50 62  1  0  0  0  0
 52 50  1  0  0  0  0
 53 63  1  0  0  0  0
 53 55  1  0  0  0  0
 54 53  1  0  0  0  0
 57 37  1  0  0  0  0
 58 32  1  0  0  0  0
 59 46  1  0  0  0  0
 59 60  1  0  0  0  0
 60 48  2  0  0  0  0
 61 48  1  0  0  0  0
 61 32  1  0  0  0  0
 63 42  1  0  0  0  0
M  END
$$$$
