CSD_code = QESPIN | q = 0 | S = 0 | Stoichiometry = C14H15ClN2Pd | MND = 4
 OpenBabel04212202083D

 33 36  0  0  0  0  0  0  0  0999 V2000
    2.3092    7.4491    0.9389 Pd  0  0  1  0  0  0  0  0  0  0  0  0
    3.8087    6.5565    2.2682 Cl  0  0  0  0  0  0  0  0  0  0  0  0
    0.4470    6.7152    1.8856 N   0  0  0  0  0  0  0  0  0  0  0  0
    0.9839    8.2011   -0.2018 N   0  0  0  0  0  0  0  0  0  0  0  0
    0.2875    5.9275    2.9387 C   0  0  0  0  0  0  0  0  0  0  0  0
   -0.9359    5.3669    3.2702 C   0  0  0  0  0  0  0  0  0  0  0  0
   -2.0303    5.6451    2.4624 C   0  0  0  0  0  0  0  0  0  0  0  0
   -1.8649    6.4603    1.3579 C   0  0  0  0  0  0  0  0  0  0  0  0
   -0.6030    6.9893    1.0811 C   0  0  0  0  0  0  0  0  0  0  0  0
   -0.3104    7.8584   -0.0644 C   0  0  0  0  0  0  0  0  0  0  0  0
   -1.2574    8.3396   -0.9688 C   0  0  0  0  0  0  0  0  0  0  0  0
   -0.8437    9.1638   -1.9983 C   0  0  0  0  0  0  0  0  0  0  0  0
    0.4970    9.5264   -2.0967 C   0  0  0  0  0  0  0  0  0  0  0  0
    1.3966    9.0328   -1.1681 C   0  0  0  0  0  0  0  0  0  0  0  0
    2.8625    9.3894   -1.0493 C   0  0  0  0  0  0  0  0  0  0  0  0
    3.5976    8.1625   -0.4666 C   0  0  0  0  0  0  0  0  0  0  0  0
    3.4823    9.8369   -2.3756 C   0  0  0  0  0  0  0  0  0  0  0  0
    2.9468   10.5313   -0.0155 C   0  0  0  0  0  0  0  0  0  0  0  0
    1.1791    5.7477    3.5297 H   0  0  0  0  0  0  0  0  0  0  0  0
   -1.0284    4.7306    4.1352 H   0  0  0  0  0  0  0  0  0  0  0  0
   -3.0003    5.2283    2.6888 H   0  0  0  0  0  0  0  0  0  0  0  0
   -2.7027    6.6769    0.7149 H   0  0  0  0  0  0  0  0  0  0  0  0
   -2.2982    8.0781   -0.8697 H   0  0  0  0  0  0  0  0  0  0  0  0
   -1.5591    9.5368   -2.7150 H   0  0  0  0  0  0  0  0  0  0  0  0
    0.8250   10.1852   -2.8837 H   0  0  0  0  0  0  0  0  0  0  0  0
    3.7022    7.3785   -1.2384 H   0  0  0  0  0  0  0  0  0  0  0  0
    4.5975    8.4496   -0.1216 H   0  0  0  0  0  0  0  0  0  0  0  0
    3.3020    9.0956   -3.1512 H   0  0  0  0  0  0  0  0  0  0  0  0
    3.0764   10.7929   -2.7000 H   0  0  0  0  0  0  0  0  0  0  0  0
    4.5566    9.9494   -2.2525 H   0  0  0  0  0  0  0  0  0  0  0  0
    2.6194   10.1590    0.9675 H   0  0  0  0  0  0  0  0  0  0  0  0
    3.9761   10.8697    0.0720 H   0  0  0  0  0  0  0  0  0  0  0  0
    2.3228   11.3746   -0.3086 H   0  0  0  0  0  0  0  0  0  0  0  0
  1  3  1  0  0  0  0
  1  2  1  1  0  0  0
  3  5  1  0  0  0  0
  4 10  1  0  0  0  0
  4  1  1  0  0  0  0
  5  6  2  0  0  0  0
  5 19  1  0  0  0  0
  6 20  1  0  0  0  0
  7 21  1  0  0  0  0
  7  6  1  0  0  0  0
  8  7  2  0  0  0  0
  9  8  1  0  0  0  0
  9  3  1  0  0  0  0
 10  9  2  0  0  0  0
 11 23  1  0  0  0  0
 11 10  1  0  0  0  0
 12 11  2  0  0  0  0
 13 12  1  0  0  0  0
 13 14  2  0  0  0  0
 14 15  1  0  0  0  0
 14  4  1  0  0  0  0
 15 16  1  0  0  0  0
 15 18  1  0  0  0  0
 16 27  1  0  0  0  0
 16  1  1  0  0  0  0
 17 30  1  0  0  0  0
 17 15  1  0  0  0  0
 18 32  1  0  0  0  0
 18 31  1  0  0  0  0
 22  8  1  0  0  0  0
 24 12  1  0  0  0  0
 25 13  1  0  0  0  0
 26 16  1  0  0  0  0
 28 17  1  0  0  0  0
 29 17  1  0  0  0  0
 33 18  1  0  0  0  0
M  END
$$$$
