CSD_code = QESWUJ | q = 0 | S = 0 | Stoichiometry = C30H26Br2N2P2Se2Zn | MND = 4
 OpenBabel04212202083D

 65 69  0  0  0  0  0  0  0  0999 V2000
    0.3456    8.1240    5.0740 Zn  0  0  0  0  0  0  0  0  0  0  0  0
   -0.1296    8.1612    7.3965 Br  0  0  0  0  0  0  0  0  0  0  0  0
    0.9118    9.7908    3.5068 Br  0  0  0  0  0  0  0  0  0  0  0  0
    2.4739    1.4752    4.0053 Se  0  0  0  0  0  1  0  0  0  0  0  0
   -1.4040    6.1497    3.9179 Se  0  0  0  0  0  1  0  0  0  0  0  0
    0.9053    2.3409    5.0759 P   0  0  0  0  0  4  0  0  0  0  0  0
    0.1509    4.7964    3.4490 P   0  0  0  0  0  4  0  0  0  0  0  0
    0.7521    4.0413    4.8644 N   0  0  0  0  0  0  0  0  0  0  0  0
    2.2636    6.9552    5.1626 N   0  0  0  0  0  0  0  0  0  0  0  0
    3.3803    7.6124    4.8636 C   0  0  0  0  0  3  0  0  0  0  0  0
    3.2566    8.6077    4.4611 H   0  0  0  0  0  0  0  0  0  0  0  0
    4.6412    7.0742    5.0408 C   0  0  0  0  0  0  0  0  0  0  0  0
    5.5124    7.6540    4.7839 H   0  0  0  0  0  0  0  0  0  0  0  0
    4.7503    5.7923    5.5553 C   0  0  0  0  0  0  0  0  0  0  0  0
    5.7158    5.3365    5.7128 H   0  0  0  0  0  0  0  0  0  0  0  0
    3.5896    5.1065    5.8635 C   0  0  0  0  0  0  0  0  0  0  0  0
    3.6202    4.1026    6.2597 H   0  0  0  0  0  0  0  0  0  0  0  0
    2.3610    5.7194    5.6533 C   0  0  0  0  0  0  0  0  0  0  0  0
    1.0967    4.9657    5.9474 C   0  0  0  0  0  0  0  0  0  0  0  0
    0.2652    5.6594    6.1047 H   0  0  0  0  0  0  0  0  0  0  0  0
    1.2269    4.3958    6.8700 H   0  0  0  0  0  0  0  0  0  0  0  0
    1.0914    2.1073    6.8762 C   0  0  0  0  0  0  0  0  0  0  0  0
    2.3343    1.7198    7.3628 C   0  0  0  0  0  0  0  0  0  0  0  0
    3.1571    1.5832    6.6731 H   0  0  0  0  0  0  0  0  0  0  0  0
    2.5108    1.4911    8.7148 C   0  0  0  0  0  0  0  0  0  0  0  0
    3.4797    1.1933    9.0859 H   0  0  0  0  0  0  0  0  0  0  0  0
    1.4431    1.6389    9.5846 C   0  0  0  0  0  0  0  0  0  0  0  0
    1.5781    1.4593   10.6402 H   0  0  0  0  0  0  0  0  0  0  0  0
    0.1984    2.0092    9.0999 C   0  0  0  0  0  0  0  0  0  0  0  0
   -0.6361    2.1172    9.7757 H   0  0  0  0  0  0  0  0  0  0  0  0
    0.0148    2.2404    7.7492 C   0  0  0  0  0  0  0  0  0  0  0  0
   -0.9589    2.5238    7.3793 H   0  0  0  0  0  0  0  0  0  0  0  0
   -0.7562    1.7057    4.7064 C   0  0  0  0  0  0  0  0  0  0  0  0
   -1.9013    2.4194    5.0447 C   0  0  0  0  0  0  0  0  0  0  0  0
   -1.8264    3.4195    5.4518 H   0  0  0  0  0  0  0  0  0  0  0  0
   -3.1436    1.8574    4.8209 C   0  0  0  0  0  0  0  0  0  0  0  0
   -4.0336    2.4094    5.0827 H   0  0  0  0  0  0  0  0  0  0  0  0
   -3.2456    0.5959    4.2551 C   0  0  0  0  0  0  0  0  0  0  0  0
   -4.2192    0.1638    4.0798 H   0  0  0  0  0  0  0  0  0  0  0  0
   -2.1046   -0.1078    3.9082 C   0  0  0  0  0  0  0  0  0  0  0  0
   -2.1835   -1.0864    3.4598 H   0  0  0  0  0  0  0  0  0  0  0  0
   -0.8577    0.4432    4.1407 C   0  0  0  0  0  0  0  0  0  0  0  0
    0.0435   -0.0933    3.8757 H   0  0  0  0  0  0  0  0  0  0  0  0
   -0.4151    3.4819    2.3354 C   0  0  0  0  0  0  0  0  0  0  0  0
    0.5039    2.7520    1.5900 C   0  0  0  0  0  0  0  0  0  0  0  0
    1.5594    2.9674    1.6560 H   0  0  0  0  0  0  0  0  0  0  0  0
    0.0563    1.7422    0.7571 C   0  0  0  0  0  0  0  0  0  0  0  0
    0.7731    1.1587    0.2003 H   0  0  0  0  0  0  0  0  0  0  0  0
   -1.2989    1.4843    0.6389 C   0  0  0  0  0  0  0  0  0  0  0  0
   -1.6426    0.6910   -0.0074 H   0  0  0  0  0  0  0  0  0  0  0  0
   -2.2172    2.2599    1.3294 C   0  0  0  0  0  0  0  0  0  0  0  0
   -3.2757    2.0856    1.2117 H   0  0  0  0  0  0  0  0  0  0  0  0
   -1.7779    3.2623    2.1714 C   0  0  0  0  0  0  0  0  0  0  0  0
   -2.4870    3.8813    2.7044 H   0  0  0  0  0  0  0  0  0  0  0  0
    1.5777    5.5547    2.6132 C   0  0  0  0  0  0  0  0  0  0  0  0
    2.8576    5.0189    2.7052 C   0  0  0  0  0  0  0  0  0  0  0  0
    3.0355    4.1195    3.2787 H   0  0  0  0  0  0  0  0  0  0  0  0
    3.9072    5.6527    2.0685 C   0  0  0  0  0  0  0  0  0  0  0  0
    4.9016    5.2388    2.1454 H   0  0  0  0  0  0  0  0  0  0  0  0
    3.6850    6.8138    1.3435 C   0  0  0  0  0  0  0  0  0  0  0  0
    4.5127    7.3151    0.8655 H   0  0  0  0  0  0  0  0  0  0  0  0
    2.4058    7.3316    1.2287 C   0  0  0  0  0  0  0  0  0  0  0  0
    2.2272    8.2373    0.6713 H   0  0  0  0  0  0  0  0  0  0  0  0
    1.3494    6.6984    1.8578 C   0  0  0  0  0  0  0  0  0  0  0  0
    0.3471    7.0965    1.7677 H   0  0  0  0  0  0  0  0  0  0  0  0
  1  9  1  0  0  0  0
  1  2  1  0  0  0  0
  3  1  1  0  0  0  0
  4  6  1  0  0  0  0
  6 22  1  0  0  0  0
  7  5  1  0  0  0  0
  7  8  1  0  0  0  0
  8  6  1  0  0  0  0
  8 19  1  0  0  0  0
  9 18  1  0  0  0  0
 10 12  1  0  0  0  0
 10  9  1  0  0  0  0
 11 10  1  0  0  0  0
 12 14  2  0  0  0  0
 13 12  1  0  0  0  0
 14 15  1  0  0  0  0
 14 16  1  0  0  0  0
 16 17  1  0  0  0  0
 18 16  2  0  0  0  0
 18 19  1  0  0  0  0
 19 20  1  0  0  0  0
 19 21  1  0  0  0  0
 22 23  2  0  0  0  0
 22 31  1  0  0  0  0
 23 25  1  0  0  0  0
 24 23  1  0  0  0  0
 25 26  1  0  0  0  0
 25 27  2  0  0  0  0
 27 28  1  0  0  0  0
 29 27  1  0  0  0  0
 29 30  1  0  0  0  0
 31 29  2  0  0  0  0
 32 31  1  0  0  0  0
 33 34  1  0  0  0  0
 33  6  1  0  0  0  0
 34 35  1  0  0  0  0
 36 34  2  0  0  0  0
 36 37  1  0  0  0  0
 38 36  1  0  0  0  0
 39 38  1  0  0  0  0
 40 42  1  0  0  0  0
 40 38  2  0  0  0  0
 41 40  1  0  0  0  0
 42 33  2  0  0  0  0
 43 42  1  0  0  0  0
 44  7  1  0  0  0  0
 45 46  1  0  0  0  0
 45 44  2  0  0  0  0
 47 45  1  0  0  0  0
 48 47  1  0  0  0  0
 49 47  2  0  0  0  0
 49 51  1  0  0  0  0
 50 49  1  0  0  0  0
 51 53  2  0  0  0  0
 52 51  1  0  0  0  0
 53 44  1  0  0  0  0
 53 54  1  0  0  0  0
 55 56  1  0  0  0  0
 55  7  1  0  0  0  0
 56 57  1  0  0  0  0
 58 59  1  0  0  0  0
 58 56  2  0  0  0  0
 60 58  1  0  0  0  0
 61 60  1  0  0  0  0
 62 60  2  0  0  0  0
 62 64  1  0  0  0  0
 63 62  1  0  0  0  0
 64 55  2  0  0  0  0
 65 64  1  0  0  0  0
M  END
$$$$
