CSD_code = QESXIY | q = 0 | S = 0 | Stoichiometry = C30H26I2N2P2Se2Zn | MND = 4
 OpenBabel04212202083D

 65 69  0  0  1  0  0  0  0  0999 V2000
    8.1375    5.2620    5.0341 Zn  0  0  0  0  0  0  0  0  0  0  0  0
    8.8849    3.8407    2.6129 Se  0  0  0  0  0  1  0  0  0  0  0  0
   12.7377    8.6499    1.2624 Se  0  0  0  0  0  1  0  0  0  0  0  0
    6.6003    7.1271    4.3160 I   0  0  0  0  0  0  0  0  0  0  0  0
    8.1253    3.5091    6.8446 I   0  0  0  0  0  0  0  0  0  0  0  0
   10.9207    4.3981    2.5737 P   0  0  0  0  0  4  0  0  0  0  0  0
   11.9434    6.7653    0.8402 P   0  0  0  0  0  4  0  0  0  0  0  0
   10.0883    6.3314    5.2920 N   0  0  0  0  0  0  0  0  0  0  0  0
   11.1961    6.0509    2.2177 N   0  0  0  0  0  0  0  0  0  0  0  0
   10.6856    7.1060    4.3820 C   0  0  1  0  0  3  0  0  0  0  0  0
   11.6714    8.0191    4.7346 C   0  0  0  0  0  0  0  0  0  0  0  0
   12.1136    8.6449    3.9750 H   0  0  0  0  0  0  0  0  0  0  0  0
   12.0698    8.1183    6.0552 C   0  0  0  0  0  0  0  0  0  0  0  0
   12.8284    8.8286    6.3459 H   0  0  0  0  0  0  0  0  0  0  0  0
   11.4713    7.2876    6.9880 C   0  0  0  0  0  0  0  0  0  0  0  0
   11.7463    7.3139    8.0298 H   0  0  0  0  0  0  0  0  0  0  0  0
   10.4840    6.4219    6.5591 C   0  0  0  0  0  0  0  0  0  0  0  0
    9.9884    5.7712    7.2651 H   0  0  0  0  0  0  0  0  0  0  0  0
   10.2866    6.9556    2.9402 C   0  0  0  0  0  0  0  0  0  0  0  0
   10.3205    7.9361    2.4523 H   0  0  0  0  0  0  0  0  0  0  0  0
    9.2591    6.5841    2.8677 H   0  0  0  0  0  0  0  0  0  0  0  0
   11.8002    4.1309    4.1428 C   0  0  0  0  0  0  0  0  0  0  0  0
   11.3612    3.0958    4.9588 C   0  0  0  0  0  0  0  0  0  0  0  0
   10.5453    2.4634    4.6341 H   0  0  0  0  0  0  0  0  0  0  0  0
   11.9577    2.8861    6.1889 C   0  0  0  0  0  0  0  0  0  0  0  0
   11.5942    2.0989    6.8306 H   0  0  0  0  0  0  0  0  0  0  0  0
   12.9971    3.7052    6.5977 C   0  0  0  0  0  0  0  0  0  0  0  0
   13.4536    3.5530    7.5638 H   0  0  0  0  0  0  0  0  0  0  0  0
   13.4529    4.7222    5.7720 C   0  0  0  0  0  0  0  0  0  0  0  0
   14.2685    5.3553    6.0888 H   0  0  0  0  0  0  0  0  0  0  0  0
   12.8586    4.9387    4.5434 C   0  0  0  0  0  0  0  0  0  0  0  0
   13.1977    5.7409    3.9035 H   0  0  0  0  0  0  0  0  0  0  0  0
   11.7644    3.3850    1.3317 C   0  0  0  0  0  0  0  0  0  0  0  0
   12.9797    2.7771    1.6239 C   0  0  0  0  0  0  0  0  0  0  0  0
   13.4848    2.9923    2.5552 H   0  0  0  0  0  0  0  0  0  0  0  0
   13.5372    1.8966    0.7151 C   0  0  0  0  0  0  0  0  0  0  0  0
   14.4811    1.4240    0.9411 H   0  0  0  0  0  0  0  0  0  0  0  0
   12.8817    1.6106   -0.4712 C   0  0  0  0  0  0  0  0  0  0  0  0
   13.3168    0.9140   -1.1716 H   0  0  0  0  0  0  0  0  0  0  0  0
   11.6621    2.2048   -0.7539 C   0  0  0  0  0  0  0  0  0  0  0  0
   11.1437    1.9728   -1.6718 H   0  0  0  0  0  0  0  0  0  0  0  0
   11.0978    3.0849    0.1490 C   0  0  0  0  0  0  0  0  0  0  0  0
   10.1326    3.5297   -0.0528 H   0  0  0  0  0  0  0  0  0  0  0  0
   10.6956    6.8132   -0.4781 C   0  0  0  0  0  0  0  0  0  0  0  0
    9.4284    6.2620   -0.3540 C   0  0  0  0  0  0  0  0  0  0  0  0
    9.1444    5.7276    0.5421 H   0  0  0  0  0  0  0  0  0  0  0  0
    8.5168    6.3999   -1.3857 C   0  0  0  0  0  0  0  0  0  0  0  0
    7.5298    5.9757   -1.2833 H   0  0  0  0  0  0  0  0  0  0  0  0
    8.8681    7.0882   -2.5349 C   0  0  0  0  0  0  0  0  0  0  0  0
    8.1524    7.1979   -3.3356 H   0  0  0  0  0  0  0  0  0  0  0  0
   10.1313    7.6485   -2.6556 C   0  0  0  0  0  0  0  0  0  0  0  0
   10.4014    8.1938   -3.5472 H   0  0  0  0  0  0  0  0  0  0  0  0
   11.0430    7.5203   -1.6261 C   0  0  0  0  0  0  0  0  0  0  0  0
   12.0245    7.9715   -1.6930 H   0  0  0  0  0  0  0  0  0  0  0  0
   13.2825    5.6609    0.3202 C   0  0  0  0  0  0  0  0  0  0  0  0
   14.4158    5.5984    1.1232 C   0  0  0  0  0  0  0  0  0  0  0  0
   14.4258    6.1203    2.0702 H   0  0  0  0  0  0  0  0  0  0  0  0
   15.5287    4.9028    0.6944 C   0  0  0  0  0  0  0  0  0  0  0  0
   16.4056    4.8502    1.3219 H   0  0  0  0  0  0  0  0  0  0  0  0
   15.5249    4.2961   -0.5519 C   0  0  0  0  0  0  0  0  0  0  0  0
   16.4000    3.7654   -0.8952 H   0  0  0  0  0  0  0  0  0  0  0  0
   14.4090    4.3879   -1.3669 C   0  0  0  0  0  0  0  0  0  0  0  0
   14.4138    3.9330   -2.3459 H   0  0  0  0  0  0  0  0  0  0  0  0
   13.2863    5.0728   -0.9381 C   0  0  0  0  0  0  0  0  0  0  0  0
   12.4156    5.1480   -1.5745 H   0  0  0  0  0  0  0  0  0  0  0  0
  1  8  1  0  0  0  0
  1  5  1  0  0  0  0
  4  1  1  0  0  0  0
  6  2  1  0  0  0  0
  6 22  1  0  0  0  0
  7  3  1  0  0  0  0
  7  9  1  0  0  0  0
  8 17  1  0  0  0  0
  9  6  1  0  0  0  0
  9 19  1  0  0  0  0
 10 19  1  6  0  0  0
 10 11  1  0  0  0  0
 10  8  1  0  0  0  0
 11 13  2  0  0  0  0
 12 11  1  0  0  0  0
 13 14  1  0  0  0  0
 13 15  1  0  0  0  0
 15 16  1  0  0  0  0
 17 15  2  0  0  0  0
 17 18  1  0  0  0  0
 20 19  1  0  0  0  0
 21 19  1  0  0  0  0
 22 31  2  0  0  0  0
 22 23  1  0  0  0  0
 23 25  2  0  0  0  0
 24 23  1  0  0  0  0
 25 27  1  0  0  0  0
 25 26  1  0  0  0  0
 27 28  1  0  0  0  0
 29 30  1  0  0  0  0
 29 27  2  0  0  0  0
 31 29  1  0  0  0  0
 32 31  1  0  0  0  0
 33 34  1  0  0  0  0
 33  6  1  0  0  0  0
 34 35  1  0  0  0  0
 36 37  1  0  0  0  0
 36 34  2  0  0  0  0
 38 36  1  0  0  0  0
 39 38  1  0  0  0  0
 40 38  2  0  0  0  0
 40 42  1  0  0  0  0
 41 40  1  0  0  0  0
 42 33  2  0  0  0  0
 43 42  1  0  0  0  0
 44 45  1  0  0  0  0
 44  7  1  0  0  0  0
 45 46  1  0  0  0  0
 47 48  1  0  0  0  0
 47 45  2  0  0  0  0
 49 47  1  0  0  0  0
 50 49  1  0  0  0  0
 51 49  2  0  0  0  0
 51 53  1  0  0  0  0
 52 51  1  0  0  0  0
 53 44  2  0  0  0  0
 54 53  1  0  0  0  0
 55  7  1  0  0  0  0
 55 56  1  0  0  0  0
 56 57  1  0  0  0  0
 58 56  2  0  0  0  0
 58 59  1  0  0  0  0
 60 58  1  0  0  0  0
 61 60  1  0  0  0  0
 62 64  1  0  0  0  0
 62 60  2  0  0  0  0
 63 62  1  0  0  0  0
 64 55  2  0  0  0  0
 65 64  1  0  0  0  0
M  END
$$$$
