CSD_code = QETDOL | q = 0 | S = 0 | Stoichiometry = C11H12AuClN2Se | MND = 2
 OpenBabel04212202083D

 28 29  0  0  1  0  0  0  0  0999 V2000
   12.3235    3.8412    2.9153 Au  0  0  0  0  0  0  0  0  0  0  0  0
   12.9534    4.7071    7.2421 Se  0  0  0  0  0  0  0  0  0  0  0  0
   12.7090    1.8068    2.0542 Cl  0  0  0  0  0  0  0  0  0  0  0  0
   12.3028    6.8479    3.1686 N   0  0  0  0  0  0  0  0  0  0  0  0
   11.6864    5.9203    5.0006 N   0  0  0  0  0  0  0  0  0  0  0  0
   12.7280    7.0579    1.8142 C   0  0  0  0  0  0  0  0  0  0  0  0
   12.8817    6.0877    1.3433 H   0  0  0  0  0  0  0  0  0  0  0  0
   13.6620    7.6213    1.7952 H   0  0  0  0  0  0  0  0  0  0  0  0
   11.9690    7.6116    1.2586 H   0  0  0  0  0  0  0  0  0  0  0  0
   12.0829    7.8560    4.0694 C   0  0  0  0  0  0  0  0  0  0  0  0
   12.2144    8.8882    3.8185 H   0  0  0  0  0  0  0  0  0  0  0  0
   11.6969    7.2719    5.2266 C   0  0  0  0  0  0  0  0  0  0  0  0
   11.4401    7.6925    6.1770 H   0  0  0  0  0  0  0  0  0  0  0  0
   12.0643    5.6525    3.7330 C   0  0  2  0  0  3  0  0  0  0  0  0
   11.4039    4.9471    5.9949 C   0  0  0  0  0  0  0  0  0  0  0  0
   11.2132    3.9825    5.5204 H   0  0  0  0  0  0  0  0  0  0  0  0
   10.5615    5.2550    6.6171 H   0  0  0  0  0  0  0  0  0  0  0  0
   14.1377    3.9440    5.9145 C   0  0  0  0  0  0  0  0  0  0  0  0
   14.0795    2.5857    5.6485 C   0  0  0  0  0  0  0  0  0  0  0  0
   13.4075    1.9532    6.2100 H   0  0  0  0  0  0  0  0  0  0  0  0
   14.8804    2.0547    4.6534 C   0  0  0  0  0  0  0  0  0  0  0  0
   14.8245    1.0026    4.4241 H   0  0  0  0  0  0  0  0  0  0  0  0
   15.7333    2.8783    3.9376 C   0  0  0  0  0  0  0  0  0  0  0  0
   16.3456    2.4622    3.1524 H   0  0  0  0  0  0  0  0  0  0  0  0
   15.7942    4.2330    4.2185 C   0  0  0  0  0  0  0  0  0  0  0  0
   16.4620    4.8742    3.6613 H   0  0  0  0  0  0  0  0  0  0  0  0
   14.9973    4.7730    5.2128 C   0  0  0  0  0  0  0  0  0  0  0  0
   15.0411    5.8281    5.4455 H   0  0  0  0  0  0  0  0  0  0  0  0
  3  1  1  0  0  0  0
  4 14  1  0  0  0  0
  4 10  1  0  0  0  0
  5 12  1  0  0  0  0
  5 15  1  0  0  0  0
  6  4  1  0  0  0  0
  7  6  1  0  0  0  0
  8  6  1  0  0  0  0
  9  6  1  0  0  0  0
 10 12  2  0  0  0  0
 11 10  1  0  0  0  0
 12 13  1  0  0  0  0
 14  1  1  1  0  0  0
 14  5  1  0  0  0  0
 15 17  1  0  0  0  0
 15  2  1  0  0  0  0
 16 15  1  0  0  0  0
 18  2  1  0  0  0  0
 19 18  1  0  0  0  0
 19 20  1  0  0  0  0
 21 19  2  0  0  0  0
 22 21  1  0  0  0  0
 23 25  2  0  0  0  0
 23 21  1  0  0  0  0
 24 23  1  0  0  0  0
 25 27  1  0  0  0  0
 26 25  1  0  0  0  0
 27 28  1  0  0  0  0
 27 18  2  0  0  0  0
M  END
$$$$
