CSD_code = QETDUP | q = 0 | S = 0 | Stoichiometry = C20H20Cl3N2OPRu | MND = 6
 OpenBabel04212202083D

 48 51  0  0  0  0  0  0  0  0999 V2000
    1.6768    1.6155    4.4938 Ru  0  0  0  0  0  0  0  0  0  0  0  0
    2.6115    3.6996    4.9922 Cl  0  0  0  0  0  0  0  0  0  0  0  0
   -0.5219    2.4337    4.9173 Cl  0  0  0  0  0  0  0  0  0  0  0  0
    1.5200    2.2199    2.3010 Cl  0  0  0  0  0  0  0  0  0  0  0  0
    3.6805    0.8713    3.6480 P   0  0  0  0  0  4  0  0  0  0  0  0
    1.9376    0.6894    7.1483 O   0  0  0  0  0  1  0  0  0  0  0  0
    1.8233    1.0954    6.0699 N   0  0  0  0  0  2  0  0  0  0  0  0
    0.9336   -0.4471    3.7125 N   0  0  0  0  0  4  0  0  0  0  0  0
    3.1737   -0.5568    2.6529 C   0  0  0  0  0  0  0  0  0  0  0  0
    4.0695   -1.1573    1.7709 C   0  0  0  0  0  0  0  0  0  0  0  0
    5.0661   -0.7480    1.6764 H   0  0  0  0  0  0  0  0  0  0  0  0
    3.6831   -2.2462    1.0138 C   0  0  0  0  0  0  0  0  0  0  0  0
    4.3784   -2.7045    0.3274 H   0  0  0  0  0  0  0  0  0  0  0  0
    2.3950   -2.7386    1.1388 C   0  0  0  0  0  0  0  0  0  0  0  0
    2.0795   -3.5866    0.5504 H   0  0  0  0  0  0  0  0  0  0  0  0
    1.5006   -2.1474    2.0136 C   0  0  0  0  0  0  0  0  0  0  0  0
    0.5035   -2.5524    2.0884 H   0  0  0  0  0  0  0  0  0  0  0  0
    1.8721   -1.0485    2.7810 C   0  0  0  0  0  0  0  0  0  0  0  0
    0.7875   -1.3354    4.8731 C   0  0  0  0  0  0  0  0  0  0  0  0
    0.3913   -2.3113    4.5695 H   0  0  0  0  0  0  0  0  0  0  0  0
    0.0931   -0.8857    5.5847 H   0  0  0  0  0  0  0  0  0  0  0  0
    1.7573   -1.4914    5.3517 H   0  0  0  0  0  0  0  0  0  0  0  0
   -0.3820   -0.2476    3.0884 C   0  0  0  0  0  0  0  0  0  0  0  0
   -0.2549    0.2471    2.1263 H   0  0  0  0  0  0  0  0  0  0  0  0
   -0.9785    0.4010    3.7340 H   0  0  0  0  0  0  0  0  0  0  0  0
   -0.9130   -1.1925    2.9478 H   0  0  0  0  0  0  0  0  0  0  0  0
    4.7558    1.8835    2.6096 C   0  0  0  0  0  0  0  0  0  0  0  0
    4.5276    1.9810    1.2381 C   0  0  0  0  0  0  0  0  0  0  0  0
    3.7285    1.4153    0.7807 H   0  0  0  0  0  0  0  0  0  0  0  0
    5.3125    2.8238    0.4739 C   0  0  0  0  0  0  0  0  0  0  0  0
    5.1330    2.9027   -0.5880 H   0  0  0  0  0  0  0  0  0  0  0  0
    6.3142    3.5753    1.0675 C   0  0  0  0  0  0  0  0  0  0  0  0
    6.9180    4.2389    0.4666 H   0  0  0  0  0  0  0  0  0  0  0  0
    6.5350    3.4843    2.4321 C   0  0  0  0  0  0  0  0  0  0  0  0
    7.3078    4.0780    2.8969 H   0  0  0  0  0  0  0  0  0  0  0  0
    5.7588    2.6427    3.2073 C   0  0  0  0  0  0  0  0  0  0  0  0
    5.9216    2.5815    4.2735 H   0  0  0  0  0  0  0  0  0  0  0  0
    4.7767    0.2057    4.9368 C   0  0  0  0  0  0  0  0  0  0  0  0
    5.4095   -1.0293    4.8602 C   0  0  0  0  0  0  0  0  0  0  0  0
    5.2664   -1.6619    3.9957 H   0  0  0  0  0  0  0  0  0  0  0  0
    6.2168   -1.4513    5.9025 C   0  0  0  0  0  0  0  0  0  0  0  0
    6.7053   -2.4128    5.8439 H   0  0  0  0  0  0  0  0  0  0  0  0
    6.3971   -0.6487    7.0169 C   0  0  0  0  0  0  0  0  0  0  0  0
    7.0273   -0.9855    7.8262 H   0  0  0  0  0  0  0  0  0  0  0  0
    5.7622    0.5809    7.0990 C   0  0  0  0  0  0  0  0  0  0  0  0
    5.8940    1.2034    7.9708 H   0  0  0  0  0  0  0  0  0  0  0  0
    4.9481    1.0070    6.0663 C   0  0  0  0  0  0  0  0  0  0  0  0
    4.4318    1.9600    6.1253 H   0  0  0  0  0  0  0  0  0  0  0  0
  1  3  1  0  0  0  0
  1  2  1  0  0  0  0
  1  7  1  0  0  0  0
  4  1  1  0  0  0  0
  5  1  1  0  0  0  0
  5 38  1  0  0  0  0
  7  6  1  0  0  0  0
  8  1  1  0  0  0  0
  8 19  1  0  0  0  0
  9 18  1  0  0  0  0
  9  5  1  0  0  0  0
 10  9  2  0  0  0  0
 11 10  1  0  0  0  0
 12 14  2  0  0  0  0
 12 10  1  0  0  0  0
 13 12  1  0  0  0  0
 14 16  1  0  0  0  0
 15 14  1  0  0  0  0
 16 17  1  0  0  0  0
 16 18  2  0  0  0  0
 18  8  1  0  0  0  0
 19 22  1  0  0  0  0
 19 21  1  0  0  0  0
 20 19  1  0  0  0  0
 23  8  1  0  0  0  0
 23 25  1  0  0  0  0
 24 23  1  0  0  0  0
 26 23  1  0  0  0  0
 27 36  1  0  0  0  0
 27  5  1  0  0  0  0
 28 27  2  0  0  0  0
 29 28  1  0  0  0  0
 30 32  2  0  0  0  0
 30 28  1  0  0  0  0
 31 30  1  0  0  0  0
 32 34  1  0  0  0  0
 33 32  1  0  0  0  0
 34 35  1  0  0  0  0
 34 36  2  0  0  0  0
 36 37  1  0  0  0  0
 38 47  1  0  0  0  0
 39 38  2  0  0  0  0
 39 41  1  0  0  0  0
 40 39  1  0  0  0  0
 41 43  2  0  0  0  0
 42 41  1  0  0  0  0
 43 45  1  0  0  0  0
 43 44  1  0  0  0  0
 45 46  1  0  0  0  0
 47 48  1  0  0  0  0
 47 45  2  0  0  0  0
M  END
$$$$
