CSD_code = QETSUE | q = 0 | S = 0 | Stoichiometry = C15H19Cl2N3O2Zn | MND = 5
 OpenBabel04212202083D

 42 46  0  0  1  0  0  0  0  0999 V2000
   -1.9840    2.7846    5.2573 Zn  0  0  0  0  0  0  0  0  0  0  0  0
   -2.7640    2.4583    3.2301 Cl  0  0  0  0  0  0  0  0  0  0  0  0
   -0.8459    4.3767    6.3462 Cl  0  0  0  0  0  0  0  0  0  0  0  0
   -0.1952    1.4174    5.0688 N   0  0  0  0  0  0  0  0  0  0  0  0
   -1.9950    1.5226    6.9856 N   0  0  0  0  0  0  0  0  0  0  0  0
   -3.9304    3.2126    6.3403 N   0  0  1  0  0  0  0  0  0  0  0  0
    1.1555    0.0553    6.2090 O   0  0  0  0  0  0  0  0  0  0  0  0
   -4.9881    2.9380    8.2881 O   0  0  0  0  0  0  0  0  0  0  0  0
    1.4310    0.5068    1.7694 C   0  0  0  0  0  0  0  0  0  0  0  0
    1.7668    1.5115    1.5255 H   0  0  0  0  0  0  0  0  0  0  0  0
    1.0257    0.0545    0.8686 H   0  0  0  0  0  0  0  0  0  0  0  0
    2.2928   -0.0759    2.0900 H   0  0  0  0  0  0  0  0  0  0  0  0
    0.3611    0.5525    2.8512 C   0  0  0  0  0  0  0  0  0  0  0  0
   -0.4863    1.1513    2.5138 H   0  0  0  0  0  0  0  0  0  0  0  0
   -0.0064   -0.4539    3.0649 H   0  0  0  0  0  0  0  0  0  0  0  0
    0.8886    1.1773    4.1449 C   0  0  2  0  0  0  0  0  0  0  0  0
    1.3544    2.1398    3.9095 H   0  0  0  0  0  0  0  0  0  0  0  0
    1.8337    0.2552    4.9619 C   0  0  0  0  0  0  0  0  0  0  0  0
    1.9771   -0.7212    4.4920 H   0  0  0  0  0  0  0  0  0  0  0  0
    2.8054    0.7081    5.1696 H   0  0  0  0  0  0  0  0  0  0  0  0
    0.0282    0.7690    6.1394 C   0  0  0  0  0  0  0  0  0  0  0  0
   -0.8962    0.8392    7.2653 C   0  0  0  0  0  0  0  0  0  0  0  0
   -0.6569    0.3179    8.5339 C   0  0  0  0  0  0  0  0  0  0  0  0
    0.2484   -0.2339    8.7292 H   0  0  0  0  0  0  0  0  0  0  0  0
   -1.6048    0.5468    9.5210 C   0  0  0  0  0  0  0  0  0  0  0  0
   -1.4545    0.1575   10.5167 H   0  0  0  0  0  0  0  0  0  0  0  0
   -2.7330    1.3005    9.2313 C   0  0  0  0  0  0  0  0  0  0  0  0
   -3.4746    1.5282    9.9798 H   0  0  0  0  0  0  0  0  0  0  0  0
   -2.8821    1.7802    7.9325 C   0  0  0  0  0  0  0  0  0  0  0  0
   -3.9558    2.6607    7.4860 C   0  0  2  0  0  3  0  0  0  0  0  0
   -5.8169    3.8572    7.5700 C   0  0  0  0  0  0  0  0  0  0  0  0
   -5.9001    4.7747    8.1583 H   0  0  0  0  0  0  0  0  0  0  0  0
   -6.8058    3.4082    7.4518 H   0  0  0  0  0  0  0  0  0  0  0  0
   -5.0790    4.0835    6.2217 C   0  0  1  0  0  0  0  0  0  0  0  0
   -5.6717    3.7512    5.3629 H   0  0  0  0  0  0  0  0  0  0  0  0
   -4.6562    5.5413    6.0049 C   0  0  0  0  0  0  0  0  0  0  0  0
   -5.5229    6.1757    6.2082 H   0  0  0  0  0  0  0  0  0  0  0  0
   -3.8678    5.7876    6.7190 H   0  0  0  0  0  0  0  0  0  0  0  0
   -4.1556    5.7918    4.5901 C   0  0  0  0  0  0  0  0  0  0  0  0
   -3.2866    5.1714    4.3804 H   0  0  0  0  0  0  0  0  0  0  0  0
   -3.8661    6.8331    4.4770 H   0  0  0  0  0  0  0  0  0  0  0  0
   -4.9270    5.5599    3.8595 H   0  0  0  0  0  0  0  0  0  0  0  0
  1  3  1  0  0  0  0
  1  5  1  0  0  0  0
  2  1  1  0  0  0  0
  4  1  1  0  0  0  0
  4 21  1  0  0  0  0
  5 22  1  0  0  0  0
  5 29  1  0  0  0  0
  6  1  1  1  0  0  0
  6 30  1  0  0  0  0
  9 12  1  0  0  0  0
  9 13  1  0  0  0  0
 10  9  1  0  0  0  0
 11  9  1  0  0  0  0
 13 15  1  0  0  0  0
 13 16  1  0  0  0  0
 14 13  1  0  0  0  0
 16 17  1  6  0  0  0
 16 18  1  0  0  0  0
 16  4  1  0  0  0  0
 18 20  1  0  0  0  0
 18  7  1  0  0  0  0
 19 18  1  0  0  0  0
 21  7  1  0  0  0  0
 21 22  2  0  0  0  0
 22 23  1  0  0  0  0
 23 24  1  0  0  0  0
 23 25  2  0  0  0  0
 25 26  1  0  0  0  0
 27 25  1  0  0  0  0
 27 28  1  0  0  0  0
 29 27  2  0  0  0  0
 30 29  1  1  0  0  0
 30  8  1  0  0  0  0
 31 32  1  0  0  0  0
 31  8  1  0  0  0  0
 33 31  1  0  0  0  0
 34 35  1  6  0  0  0
 34  6  1  0  0  0  0
 34 31  1  0  0  0  0
 36 37  1  0  0  0  0
 36 34  1  0  0  0  0
 36 38  1  0  0  0  0
 39 36  1  0  0  0  0
 40 39  1  0  0  0  0
 41 39  1  0  0  0  0
 42 39  1  0  0  0  0
M  END
$$$$
