CSD_code = QETXIX | q = 0 | S = 0 | Stoichiometry = C12H10Cl2F4N2Pd | MND = 4
 OpenBabel04212202083D

 31 32  0  0  0  0  0  0  0  0999 V2000
    2.2486   -0.0009   12.8102 Pd  0  0  0  0  0  0  0  0  0  0  0  0
    4.3365   -0.9569   12.7063 Cl  0  0  0  0  0  0  0  0  0  0  0  0
    1.3556   -1.0682    7.9890 F   0  0  0  0  0  0  0  0  0  0  0  0
    0.0591    3.4178    8.4084 F   0  0  0  0  0  0  0  0  0  0  0  0
    3.0304    1.5003   11.6382 N   0  0  0  0  0  4  0  0  0  0  0  0
    3.0438    2.4439   12.0305 H   0  0  0  0  0  0  0  0  0  0  0  0
    3.9833    1.1246   11.5268 H   0  0  0  0  0  0  0  0  0  0  0  0
    2.2586    1.4187   10.4486 C   0  0  0  0  0  0  0  0  0  0  0  0
    2.2034    0.1973    9.7702 C   0  0  0  0  0  0  0  0  0  0  0  0
    2.7661   -0.6651   10.1259 H   0  0  0  0  0  0  0  0  0  0  0  0
    1.4122    0.1016    8.6412 C   0  0  0  0  0  0  0  0  0  0  0  0
    0.6754    1.1703    8.1557 C   0  0  0  0  0  0  0  0  0  0  0  0
    0.0588    1.0726    7.2783 H   0  0  0  0  0  0  0  0  0  0  0  0
    0.7535    2.3614    8.8517 C   0  0  0  0  0  0  0  0  0  0  0  0
    1.5364    2.5105    9.9852 C   0  0  0  0  0  0  0  0  0  0  0  0
    1.5475    3.4564   10.5044 H   0  0  0  0  0  0  0  0  0  0  0  0
    0.1615    0.9569   12.9148 Cl  0  0  0  0  0  0  0  0  0  0  0  0
    3.1411    1.0683   17.6325 F   0  0  0  0  0  0  0  0  0  0  0  0
    4.4399   -3.4170   17.2121 F   0  0  0  0  0  0  0  0  0  0  0  0
    1.4661   -1.5007   13.9837 N   0  0  0  0  0  4  0  0  0  0  0  0
    1.4525   -2.4445   13.5917 H   0  0  0  0  0  0  0  0  0  0  0  0
    0.5134   -1.1249   14.0953 H   0  0  0  0  0  0  0  0  0  0  0  0
    2.2385   -1.4189   15.1730 C   0  0  0  0  0  0  0  0  0  0  0  0
    2.2933   -0.1975   15.8515 C   0  0  0  0  0  0  0  0  0  0  0  0
    1.7300    0.6646   15.4961 H   0  0  0  0  0  0  0  0  0  0  0  0
    3.0849   -0.1015   16.9801 C   0  0  0  0  0  0  0  0  0  0  0  0
    3.8224   -1.1699   17.4652 C   0  0  0  0  0  0  0  0  0  0  0  0
    4.4393   -1.0719   18.3424 H   0  0  0  0  0  0  0  0  0  0  0  0
    3.7448   -2.3609   16.7691 C   0  0  0  0  0  0  0  0  0  0  0  0
    2.9615   -2.5103   15.6359 C   0  0  0  0  0  0  0  0  0  0  0  0
    2.9508   -3.4561   15.1165 H   0  0  0  0  0  0  0  0  0  0  0  0
  1 17  1  0  0  0  0
  1 20  1  0  0  0  0
  2  1  1  0  0  0  0
  3 11  1  0  0  0  0
  4 14  1  0  0  0  0
  5  6  1  0  0  0  0
  5  1  1  0  0  0  0
  7  5  1  0  0  0  0
  8  5  1  0  0  0  0
  9 10  1  0  0  0  0
  9  8  2  0  0  0  0
 11  9  1  0  0  0  0
 12 11  2  0  0  0  0
 12 14  1  0  0  0  0
 13 12  1  0  0  0  0
 14 15  2  0  0  0  0
 15  8  1  0  0  0  0
 15 16  1  0  0  0  0
 20 22  1  0  0  0  0
 20 23  1  0  0  0  0
 21 20  1  0  0  0  0
 23 30  2  0  0  0  0
 23 24  1  0  0  0  0
 24 26  2  0  0  0  0
 25 24  1  0  0  0  0
 26 27  1  0  0  0  0
 26 18  1  0  0  0  0
 27 28  1  0  0  0  0
 29 19  1  0  0  0  0
 29 27  2  0  0  0  0
 30 29  1  0  0  0  0
 31 30  1  0  0  0  0
M  END
$$$$
