CSD_code = QETXOD | q = 0 | S = 0 | Stoichiometry = C12H10Cl2F4N2Pd | MND = 4
 OpenBabel04212202083D

 31 32  0  0  0  0  0  0  0  0999 V2000
    4.9969    2.2787   12.4711 Pd  0  0  0  0  0  0  0  0  0  0  0  0
    6.0981    0.2721   12.2343 Cl  0  0  0  0  0  0  0  0  0  0  0  0
    3.5418    1.4740   11.2599 N   0  0  0  0  0  4  0  0  0  0  0  0
    2.6031    1.3906   11.6552 H   0  0  0  0  0  0  0  0  0  0  0  0
    3.9602    0.5481   11.0918 H   0  0  0  0  0  0  0  0  0  0  0  0
    3.5695    2.3082   10.1074 C   0  0  0  0  0  0  0  0  0  0  0  0
    2.4303    2.9781    9.6816 C   0  0  0  0  0  0  0  0  0  0  0  0
    1.4893    2.8809   10.2013 H   0  0  0  0  0  0  0  0  0  0  0  0
    2.5049    3.8225    8.5863 C   0  0  0  0  0  0  0  0  0  0  0  0
    3.7055    3.9910    7.9090 C   0  0  0  0  0  0  0  0  0  0  0  0
    4.8424    3.3194    8.3314 C   0  0  0  0  0  0  0  0  0  0  0  0
    5.7655    3.4707    7.7955 H   0  0  0  0  0  0  0  0  0  0  0  0
    4.7793    2.4813    9.4274 C   0  0  0  0  0  0  0  0  0  0  0  0
    5.6682    1.9519    9.7703 H   0  0  0  0  0  0  0  0  0  0  0  0
    1.4014    4.4630    8.1818 F   0  0  0  0  0  0  0  0  0  0  0  0
    3.7741    4.8028    6.8441 F   0  0  0  0  0  0  0  0  0  0  0  0
    3.8964    4.2860   12.7066 Cl  0  0  0  0  0  0  0  0  0  0  0  0
    6.4527    3.0839   13.6810 N   0  0  0  0  0  4  0  0  0  0  0  0
    7.3914    3.1671   13.2855 H   0  0  0  0  0  0  0  0  0  0  0  0
    6.0345    4.0098   13.8491 H   0  0  0  0  0  0  0  0  0  0  0  0
    6.4252    2.2498   14.8336 C   0  0  0  0  0  0  0  0  0  0  0  0
    7.5645    1.5801   15.2595 C   0  0  0  0  0  0  0  0  0  0  0  0
    8.5054    1.6774   14.7397 H   0  0  0  0  0  0  0  0  0  0  0  0
    7.4900    0.7358   16.3548 C   0  0  0  0  0  0  0  0  0  0  0  0
    6.2893    0.5671   17.0321 C   0  0  0  0  0  0  0  0  0  0  0  0
    5.1523    1.2385   16.6096 C   0  0  0  0  0  0  0  0  0  0  0  0
    4.2293    1.0871   17.1455 H   0  0  0  0  0  0  0  0  0  0  0  0
    5.2154    2.0765   15.5136 C   0  0  0  0  0  0  0  0  0  0  0  0
    4.3264    2.6058   15.1706 H   0  0  0  0  0  0  0  0  0  0  0  0
    8.5935    0.0954   16.7595 F   0  0  0  0  0  0  0  0  0  0  0  0
    6.2209   -0.2446   18.0971 F   0  0  0  0  0  0  0  0  0  0  0  0
  1 17  1  0  0  0  0
  1 18  1  0  0  0  0
  2  1  1  0  0  0  0
  3  4  1  0  0  0  0
  3  1  1  0  0  0  0
  5  3  1  0  0  0  0
  6  3  1  0  0  0  0
  7  6  1  0  0  0  0
  7  8  1  0  0  0  0
  9  7  2  0  0  0  0
 10 11  2  0  0  0  0
 10  9  1  0  0  0  0
 11 13  1  0  0  0  0
 12 11  1  0  0  0  0
 13 14  1  0  0  0  0
 13  6  2  0  0  0  0
 15  9  1  0  0  0  0
 16 10  1  0  0  0  0
 18 20  1  0  0  0  0
 18 21  1  0  0  0  0
 19 18  1  0  0  0  0
 21 22  2  0  0  0  0
 21 28  1  0  0  0  0
 22 24  1  0  0  0  0
 23 22  1  0  0  0  0
 24 30  1  0  0  0  0
 24 25  2  0  0  0  0
 25 31  1  0  0  0  0
 26 25  1  0  0  0  0
 26 27  1  0  0  0  0
 28 26  2  0  0  0  0
 29 28  1  0  0  0  0
M  END
$$$$
