CSD_code = QETYEU | q = 0 | S = 0 | Stoichiometry = C12H8Cl2F6N2Pd | MND = 4
 OpenBabel04212202083D

 31 32  0  0  0  0  0  0  0  0999 V2000
   -0.2850    4.9470    3.3164 Pd  0  0  0  0  0  0  0  0  0  0  0  0
   -1.8350    6.6422    3.1841 Cl  0  0  0  0  0  0  0  0  0  0  0  0
    1.2637    3.2523    3.4663 Cl  0  0  0  0  0  0  0  0  0  0  0  0
    0.6530    5.9663    0.9658 F   0  0  0  0  0  0  0  0  0  0  0  0
    5.2354    5.3486    0.0096 F   0  0  0  0  0  0  0  0  0  0  0  0
    3.8246    6.4214    4.3638 F   0  0  0  0  0  0  0  0  0  0  0  0
   -0.8526    3.8670    0.8756 F   0  0  0  0  0  0  0  0  0  0  0  0
   -5.2316    4.4602   -0.7877 F   0  0  0  0  0  0  0  0  0  0  0  0
   -4.5098    3.4958    3.7564 F   0  0  0  0  0  0  0  0  0  0  0  0
    1.1336    6.4530    3.5413 N   0  0  0  0  0  4  0  0  0  0  0  0
    0.5060    7.2188    3.2501 H   0  0  0  0  0  0  0  0  0  0  0  0
    1.4377    6.5785    4.5108 H   0  0  0  0  0  0  0  0  0  0  0  0
   -1.7245    3.4445    3.3579 N   0  0  0  0  0  4  0  0  0  0  0  0
   -1.0617    2.6726    3.1850 H   0  0  0  0  0  0  0  0  0  0  0  0
   -2.1742    3.3422    4.2718 H   0  0  0  0  0  0  0  0  0  0  0  0
    2.2152    6.2207    2.6676 C   0  0  0  0  0  0  0  0  0  0  0  0
    1.9578    5.9540    1.3216 C   0  0  0  0  0  0  0  0  0  0  0  0
    2.9446    5.6626    0.4071 C   0  0  0  0  0  0  0  0  0  0  0  0
    2.7092    5.4467   -0.6213 H   0  0  0  0  0  0  0  0  0  0  0  0
    4.2514    5.6277    0.8723 C   0  0  0  0  0  0  0  0  0  0  0  0
    4.5732    5.8746    2.1955 C   0  0  0  0  0  0  0  0  0  0  0  0
    5.5937    5.8316    2.5383 H   0  0  0  0  0  0  0  0  0  0  0  0
    3.5467    6.1692    3.0735 C   0  0  0  0  0  0  0  0  0  0  0  0
   -2.6584    3.6545    2.3230 C   0  0  0  0  0  0  0  0  0  0  0  0
   -2.1965    3.8878    1.0264 C   0  0  0  0  0  0  0  0  0  0  0  0
   -3.0302    4.1563   -0.0357 C   0  0  0  0  0  0  0  0  0  0  0  0
   -2.6389    4.3467   -1.0207 H   0  0  0  0  0  0  0  0  0  0  0  0
   -4.3928    4.2026    0.2224 C   0  0  0  0  0  0  0  0  0  0  0  0
   -4.9147    3.9886    1.4861 C   0  0  0  0  0  0  0  0  0  0  0  0
   -5.9755    4.0400    1.6670 H   0  0  0  0  0  0  0  0  0  0  0  0
   -4.0363    3.7159    2.5183 C   0  0  0  0  0  0  0  0  0  0  0  0
  1 13  1  0  0  0  0
  1  3  1  0  0  0  0
  1 10  1  0  0  0  0
  2  1  1  0  0  0  0
  4 17  1  0  0  0  0
  5 20  1  0  0  0  0
  7 25  1  0  0  0  0
  8 28  1  0  0  0  0
 10 12  1  0  0  0  0
 11 10  1  0  0  0  0
 13 15  1  0  0  0  0
 14 13  1  0  0  0  0
 16 23  1  0  0  0  0
 16 10  1  0  0  0  0
 17 16  2  0  0  0  0
 18 20  2  0  0  0  0
 18 17  1  0  0  0  0
 19 18  1  0  0  0  0
 20 21  1  0  0  0  0
 21 22  1  0  0  0  0
 21 23  2  0  0  0  0
 23  6  1  0  0  0  0
 24 31  1  0  0  0  0
 24 13  1  0  0  0  0
 25 24  2  0  0  0  0
 26 28  2  0  0  0  0
 26 25  1  0  0  0  0
 27 26  1  0  0  0  0
 28 29  1  0  0  0  0
 29 30  1  0  0  0  0
 29 31  2  0  0  0  0
 31  9  1  0  0  0  0
M  END
$$$$
