CSD_code = QEVYUL | q = 1 | S = 0 | Stoichiometry = C18H21ClN5Ru(1+) | MND = 6
 OpenBabel04212202083D

 46 48  0  0  1  0  0  0  0  0999 V2000
   10.3998    5.1810    2.5313 Ru  0  0  0  0  0  0  0  0  0  0  0  0
   12.4637    6.2151    3.0022 Cl  0  0  0  0  0  0  0  0  0  0  0  0
    9.6845    6.3496    3.9783 N   0  0  0  0  0  0  0  0  0  0  0  0
   10.8077    4.0320    4.1064 N   0  0  0  0  0  0  0  0  0  0  0  0
   11.3783    4.0697    1.2520 N   0  0  0  0  0  2  0  0  0  0  0  0
   10.1882    6.5160    1.1156 N   0  0  0  0  0  2  0  0  0  0  0  0
    8.7069    4.3362    2.1650 N   0  0  0  0  0  2  0  0  0  0  0  0
    9.0304    7.4984    3.8341 C   0  0  0  0  0  3  0  0  0  0  0  0
    8.8438    8.3933    4.8680 C   0  0  0  0  0  0  0  0  0  0  0  0
    9.3616    8.1056    6.1303 C   0  0  0  0  0  0  0  0  0  0  0  0
   10.0198    6.8915    6.2804 C   0  0  0  0  0  0  0  0  0  0  0  0
   10.1685    6.0323    5.1969 C   0  0  0  0  0  0  0  0  0  0  0  0
   10.8024    4.7132    5.2709 C   0  0  1  0  0  3  0  0  0  0  0  0
   11.3216    4.1582    6.4357 C   0  0  0  0  0  0  0  0  0  0  0  0
   11.8612    2.8782    6.4255 C   0  0  0  0  0  0  0  0  0  0  0  0
   11.8276    2.1865    5.2152 C   0  0  0  0  0  0  0  0  0  0  0  0
   11.3010    2.7971    4.0951 C   0  0  0  0  0  0  0  0  0  0  0  0
   12.2553    3.6426    0.6415 C   0  0  0  0  0  2  0  0  0  0  0  0
   13.3151    3.0846   -0.1363 C   0  0  0  0  0  0  0  0  0  0  0  0
   10.4250    7.4139    0.4361 C   0  0  0  0  0  2  0  0  0  0  0  0
   10.6874    8.5237   -0.4236 C   0  0  0  0  0  0  0  0  0  0  0  0
    7.7010    3.8316    1.9143 C   0  0  0  0  0  2  0  0  0  0  0  0
    6.4526    3.2053    1.6059 C   0  0  0  0  0  0  0  0  0  0  0  0
    9.2315    9.0649    7.2621 C   0  0  0  0  0  0  0  0  0  0  0  0
   12.4642    2.2789    7.6484 C   0  0  0  0  0  0  0  0  0  0  0  0
    8.6388    7.7069    2.8456 H   0  0  0  0  0  0  0  0  0  0  0  0
    8.3102    9.3137    4.6919 H   0  0  0  0  0  0  0  0  0  0  0  0
   10.4293    6.6270    7.2415 H   0  0  0  0  0  0  0  0  0  0  0  0
   11.3211    4.7248    7.3524 H   0  0  0  0  0  0  0  0  0  0  0  0
   12.2192    1.1841    5.1464 H   0  0  0  0  0  0  0  0  0  0  0  0
   11.2691    2.2762    3.1455 H   0  0  0  0  0  0  0  0  0  0  0  0
   13.9410    3.8900   -0.5208 H   0  0  0  0  0  0  0  0  0  0  0  0
   12.9086    2.5135   -0.9708 H   0  0  0  0  0  0  0  0  0  0  0  0
   13.9257    2.4314    0.4869 H   0  0  0  0  0  0  0  0  0  0  0  0
   11.6635    8.9414   -0.1755 H   0  0  0  0  0  0  0  0  0  0  0  0
    9.9255    9.2912   -0.2885 H   0  0  0  0  0  0  0  0  0  0  0  0
   10.6897    8.1981   -1.4636 H   0  0  0  0  0  0  0  0  0  0  0  0
    5.6283    3.8229    1.9627 H   0  0  0  0  0  0  0  0  0  0  0  0
    6.3986    2.2273    2.0841 H   0  0  0  0  0  0  0  0  0  0  0  0
    6.3620    3.0794    0.5269 H   0  0  0  0  0  0  0  0  0  0  0  0
   10.0717    9.7597    7.2457 H   0  0  0  0  0  0  0  0  0  0  0  0
    9.2431    8.5487    8.2183 H   0  0  0  0  0  0  0  0  0  0  0  0
    8.3172    9.6463    7.1769 H   0  0  0  0  0  0  0  0  0  0  0  0
   12.3524    1.1978    7.6481 H   0  0  0  0  0  0  0  0  0  0  0  0
   12.0143    2.6878    8.5491 H   0  0  0  0  0  0  0  0  0  0  0  0
   13.5307    2.5044    7.6740 H   0  0  0  0  0  0  0  0  0  0  0  0
  1  2  1  0  0  0  0
  1  3  1  0  0  0  0
  1  4  1  0  0  0  0
  3 12  1  0  0  0  0
  4 13  1  0  0  0  0
  5  1  1  0  0  0  0
  6  1  1  0  0  0  0
  7  1  1  0  0  0  0
  8  3  1  0  0  0  0
  8  9  1  0  0  0  0
  9 10  2  0  0  0  0
 10 11  1  0  0  0  0
 10 24  1  0  0  0  0
 11 28  1  0  0  0  0
 12 11  2  0  0  0  0
 13 12  1  1  0  0  0
 13 14  1  0  0  0  0
 14 29  1  0  0  0  0
 15 14  2  0  0  0  0
 15 25  1  0  0  0  0
 16 15  1  0  0  0  0
 17  4  1  0  0  0  0
 17 16  2  0  0  0  0
 18  5  1  0  0  0  0
 19 34  1  0  0  0  0
 19 18  1  0  0  0  0
 20  6  1  0  0  0  0
 21 36  1  0  0  0  0
 21 35  1  0  0  0  0
 21 20  1  0  0  0  0
 22  7  1  0  0  0  0
 23 22  1  0  0  0  0
 23 38  1  0  0  0  0
 23 39  1  0  0  0  0
 24 42  1  0  0  0  0
 25 46  1  0  0  0  0
 25 45  1  0  0  0  0
 26  8  1  0  0  0  0
 27  9  1  0  0  0  0
 30 16  1  0  0  0  0
 31 17  1  0  0  0  0
 32 19  1  0  0  0  0
 33 19  1  0  0  0  0
 37 21  1  0  0  0  0
 40 23  1  0  0  0  0
 41 24  1  0  0  0  0
 43 24  1  0  0  0  0
 44 25  1  0  0  0  0
M  END
$$$$
