CSD_code = QEWFIH | q = 0 | S = 0 | Stoichiometry = C17H12BrN3Pd | MND = 4
 OpenBabel04212202083D

 34 38  0  0  0  0  0  0  0  0999 V2000
    8.2985    2.0696   10.7602 Pd  0  0  0  0  0  0  0  0  0  0  0  0
    6.1861    1.7981    9.7659 Br  0  0  0  0  0  0  0  0  0  0  0  0
    9.2322    0.3915    9.8723 N   0  0  0  0  0  0  0  0  0  0  0  0
   10.1757    2.1999   11.6067 N   0  0  0  0  0  0  0  0  0  0  0  0
    9.7100    3.8134    8.7848 N   0  0  0  0  0  2  0  0  0  0  0  0
    7.6564    3.7965   11.4923 C   0  0  0  0  0  0  0  0  0  0  0  0
    8.2034    4.7756   10.6427 C   0  0  0  0  0  0  0  0  0  0  0  0
    7.9759    6.1347   10.8408 C   0  0  0  0  0  0  0  0  0  0  0  0
    7.1861    6.5171   11.9094 C   0  0  0  0  0  0  0  0  0  0  0  0
    6.6330    5.5628   12.7519 C   0  0  0  0  0  0  0  0  0  0  0  0
    6.8567    4.2072   12.5464 C   0  0  0  0  0  0  0  0  0  0  0  0
    9.0100    4.2310    9.6033 C   0  0  0  0  0  0  0  0  0  0  0  0
   10.5570    0.3703   10.1020 C   0  0  0  0  0  0  0  0  0  0  0  0
   11.3583   -0.6377    9.5646 C   0  0  0  0  0  0  0  0  0  0  0  0
   10.7832   -1.6110    8.7678 C   0  0  0  0  0  0  0  0  0  0  0  0
    9.4188   -1.5614    8.5271 C   0  0  0  0  0  0  0  0  0  0  0  0
    8.6813   -0.5420    9.1067 C   0  0  0  0  0  0  0  0  0  0  0  0
   11.0842    1.4402   10.9629 C   0  0  0  0  0  0  0  0  0  0  0  0
   12.4504    1.6744   11.1200 C   0  0  0  0  0  0  0  0  0  0  0  0
   12.8815    2.6785   11.9657 C   0  0  0  0  0  0  0  0  0  0  0  0
   11.9334    3.4225   12.6539 C   0  0  0  0  0  0  0  0  0  0  0  0
   10.5954    3.1514   12.4375 C   0  0  0  0  0  0  0  0  0  0  0  0
    8.4040    6.8645   10.1686 H   0  0  0  0  0  0  0  0  0  0  0  0
    6.9904    7.5649   12.0832 H   0  0  0  0  0  0  0  0  0  0  0  0
    6.0091    5.8783   13.5760 H   0  0  0  0  0  0  0  0  0  0  0  0
    6.3960    3.4761   13.2013 H   0  0  0  0  0  0  0  0  0  0  0  0
   12.4152   -0.6702    9.7716 H   0  0  0  0  0  0  0  0  0  0  0  0
   11.3916   -2.3953    8.3437 H   0  0  0  0  0  0  0  0  0  0  0  0
    8.9318   -2.2963    7.9073 H   0  0  0  0  0  0  0  0  0  0  0  0
    7.6105   -0.4682    8.9509 H   0  0  0  0  0  0  0  0  0  0  0  0
   13.1704    1.0920   10.5696 H   0  0  0  0  0  0  0  0  0  0  0  0
   13.9352    2.8770   12.0868 H   0  0  0  0  0  0  0  0  0  0  0  0
   12.2230    4.2059   13.3353 H   0  0  0  0  0  0  0  0  0  0  0  0
    9.8274    3.7182   12.9515 H   0  0  0  0  0  0  0  0  0  0  0  0
  1  6  1  0  0  0  0
  1  4  1  0  0  0  0
  2  1  1  0  0  0  0
  3 13  1  0  0  0  0
  3  1  1  0  0  0  0
  4 22  1  0  0  0  0
  5 12  2  0  0  0  0
  6 11  1  0  0  0  0
  7  8  1  0  0  0  0
  7  6  2  0  0  0  0
  8  9  2  0  0  0  0
  9 24  1  0  0  0  0
  9 10  1  0  0  0  0
 10 25  1  0  0  0  0
 11 10  2  0  0  0  0
 11 26  1  0  0  0  0
 12  7  1  0  0  0  0
 12  1  1  0  0  0  0
 13 18  2  0  0  0  0
 14 27  1  0  0  0  0
 14 13  1  0  0  0  0
 15 14  2  0  0  0  0
 16 15  1  0  0  0  0
 16 17  2  0  0  0  0
 17  3  1  0  0  0  0
 18 19  1  0  0  0  0
 18  4  1  0  0  0  0
 19 20  2  0  0  0  0
 20 32  1  0  0  0  0
 20 21  1  0  0  0  0
 21 33  1  0  0  0  0
 22 21  2  0  0  0  0
 22 34  1  0  0  0  0
 23  8  1  0  0  0  0
 28 15  1  0  0  0  0
 29 16  1  0  0  0  0
 30 17  1  0  0  0  0
 31 19  1  0  0  0  0
M  END
$$$$
