CSD_code = QEWFON | q = 0 | S = 0 | Stoichiometry = C29H28BrOPPd | MND = 4
 OpenBabel04212202083D

 61 65  0  0  0  0  0  0  0  0999 V2000
    9.2074    2.8609    8.1765 Pd  0  0  1  0  0  0  0  0  0  0  0  0
   10.5763    4.8677    7.9093 Br  0  0  0  0  0  0  0  0  0  0  0  0
    7.2542    3.8887    7.9022 P   0  0  0  0  0  4  0  0  0  0  0  0
   10.9859    1.7657    8.3799 O   0  0  0  0  0  0  0  0  0  0  0  0
    8.4339    1.0495    8.7301 C   0  0  0  0  0  0  0  0  0  0  0  0
    9.4718    0.1347    9.0439 C   0  0  0  0  0  0  0  0  0  0  0  0
    9.1902   -1.1463    9.5316 C   0  0  0  0  0  0  0  0  0  0  0  0
    7.8842   -1.5405    9.7173 C   0  0  0  0  0  0  0  0  0  0  0  0
    6.8543   -0.6609    9.4097 C   0  0  0  0  0  0  0  0  0  0  0  0
    7.1279    0.6070    8.9262 C   0  0  0  0  0  0  0  0  0  0  0  0
   10.8220    0.6195    8.8051 C   0  0  0  0  0  0  0  0  0  0  0  0
   12.0212   -0.2505    9.0544 C   0  0  0  0  0  0  0  0  0  0  0  0
    6.2289    3.1741    6.5646 C   0  0  0  0  0  0  0  0  0  0  0  0
    5.0340    3.7221    6.0821 C   0  0  0  0  0  0  0  0  0  0  0  0
    4.3832    3.0696    5.0393 C   0  0  0  0  0  0  0  0  0  0  0  0
    4.8944    1.9210    4.4651 C   0  0  0  0  0  0  0  0  0  0  0  0
    6.0983    1.4059    4.9159 C   0  0  0  0  0  0  0  0  0  0  0  0
    6.7571    2.0372    5.9517 C   0  0  0  0  0  0  0  0  0  0  0  0
    4.4462    5.0003    6.5977 C   0  0  0  0  0  0  0  0  0  0  0  0
    7.3142    5.6526    7.4471 C   0  0  0  0  0  0  0  0  0  0  0  0
    7.8573    6.0163    6.2086 C   0  0  0  0  0  0  0  0  0  0  0  0
    7.9318    7.3666    5.8928 C   0  0  0  0  0  0  0  0  0  0  0  0
    7.4906    8.3380    6.7723 C   0  0  0  0  0  0  0  0  0  0  0  0
    6.9600    7.9712    7.9969 C   0  0  0  0  0  0  0  0  0  0  0  0
    6.8745    6.6339    8.3319 C   0  0  0  0  0  0  0  0  0  0  0  0
    8.3494    4.9993    5.2270 C   0  0  0  0  0  0  0  0  0  0  0  0
    6.2675    3.7985    9.4356 C   0  0  0  0  0  0  0  0  0  0  0  0
    6.8888    4.0801   10.6628 C   0  0  0  0  0  0  0  0  0  0  0  0
    6.1481    3.9446   11.8304 C   0  0  0  0  0  0  0  0  0  0  0  0
    4.8330    3.5168   11.8054 C   0  0  0  0  0  0  0  0  0  0  0  0
    4.2385    3.1956   10.5980 C   0  0  0  0  0  0  0  0  0  0  0  0
    4.9559    3.3291    9.4239 C   0  0  0  0  0  0  0  0  0  0  0  0
    8.3254    4.4889   10.7387 C   0  0  0  0  0  0  0  0  0  0  0  0
    9.9977   -1.8242    9.7667 H   0  0  0  0  0  0  0  0  0  0  0  0
    7.6616   -2.5269   10.0967 H   0  0  0  0  0  0  0  0  0  0  0  0
    5.8270   -0.9685    9.5470 H   0  0  0  0  0  0  0  0  0  0  0  0
    6.2940    1.2552    8.6882 H   0  0  0  0  0  0  0  0  0  0  0  0
   11.9627   -1.1512    8.4459 H   0  0  0  0  0  0  0  0  0  0  0  0
   12.0576   -0.5438   10.1021 H   0  0  0  0  0  0  0  0  0  0  0  0
   12.9254    0.2990    8.8022 H   0  0  0  0  0  0  0  0  0  0  0  0
    3.4559    3.4828    4.6679 H   0  0  0  0  0  0  0  0  0  0  0  0
    4.3623    1.4381    3.6591 H   0  0  0  0  0  0  0  0  0  0  0  0
    6.5213    0.5235    4.4603 H   0  0  0  0  0  0  0  0  0  0  0  0
    7.7192    1.6513    6.2959 H   0  0  0  0  0  0  0  0  0  0  0  0
    4.8122    5.8357    5.9990 H   0  0  0  0  0  0  0  0  0  0  0  0
    4.7163    5.1895    7.6319 H   0  0  0  0  0  0  0  0  0  0  0  0
    3.3611    4.9794    6.5138 H   0  0  0  0  0  0  0  0  0  0  0  0
    8.3556    7.6587    4.9431 H   0  0  0  0  0  0  0  0  0  0  0  0
    7.5678    9.3814    6.5058 H   0  0  0  0  0  0  0  0  0  0  0  0
    6.6199    8.7232    8.6931 H   0  0  0  0  0  0  0  0  0  0  0  0
    6.4547    6.3477    9.2871 H   0  0  0  0  0  0  0  0  0  0  0  0
    7.5326    4.6482    4.5940 H   0  0  0  0  0  0  0  0  0  0  0  0
    8.7853    4.1294    5.7378 H   0  0  0  0  0  0  0  0  0  0  0  0
    9.1157    5.4366    4.5910 H   0  0  0  0  0  0  0  0  0  0  0  0
    6.6167    4.1703   12.7777 H   0  0  0  0  0  0  0  0  0  0  0  0
    4.2791    3.4205   12.7273 H   0  0  0  0  0  0  0  0  0  0  0  0
    3.2202    2.8375   10.5679 H   0  0  0  0  0  0  0  0  0  0  0  0
    4.4919    3.0516    8.4885 H   0  0  0  0  0  0  0  0  0  0  0  0
    8.5876    4.7945   11.7495 H   0  0  0  0  0  0  0  0  0  0  0  0
    8.5447    5.3164   10.0589 H   0  0  0  0  0  0  0  0  0  0  0  0
    8.9784    3.6316   10.4636 H   0  0  0  0  0  0  0  0  0  0  0  0
  1  2  1  1  0  0  0
  1  4  1  0  0  0  0
  1  5  2  0  0  0  0
  3  1  1  0  0  0  0
  3 27  1  0  0  0  0
  4 11  1  0  0  0  0
  5 10  1  0  0  0  0
  5  6  1  0  0  0  0
  6  7  1  0  0  0  0
  7  8  2  0  0  0  0
  7 34  1  0  0  0  0
  8 35  1  0  0  0  0
  9 36  1  0  0  0  0
  9  8  1  0  0  0  0
 10  9  2  0  0  0  0
 11  6  2  0  0  0  0
 11 12  1  0  0  0  0
 12 39  1  0  0  0  0
 13  3  1  0  0  0  0
 14 13  1  0  0  0  0
 14 19  1  0  0  0  0
 15 14  2  0  0  0  0
 16 17  2  0  0  0  0
 16 15  1  0  0  0  0
 17 18  1  0  0  0  0
 18 44  1  0  0  0  0
 18 13  2  0  0  0  0
 19 46  1  0  0  0  0
 20  3  1  0  0  0  0
 20 25  1  0  0  0  0
 21 20  2  0  0  0  0
 22 21  1  0  0  0  0
 22 23  2  0  0  0  0
 23 24  1  0  0  0  0
 24 25  2  0  0  0  0
 24 50  1  0  0  0  0
 25 51  1  0  0  0  0
 26 53  1  0  0  0  0
 26 21  1  0  0  0  0
 27 28  1  0  0  0  0
 28 33  1  0  0  0  0
 28 29  2  0  0  0  0
 29 55  1  0  0  0  0
 30 29  1  0  0  0  0
 30 56  1  0  0  0  0
 31 30  2  0  0  0  0
 32 27  2  0  0  0  0
 32 31  1  0  0  0  0
 33 59  1  0  0  0  0
 37 10  1  0  0  0  0
 38 12  1  0  0  0  0
 40 12  1  0  0  0  0
 41 15  1  0  0  0  0
 42 16  1  0  0  0  0
 43 17  1  0  0  0  0
 45 19  1  0  0  0  0
 47 19  1  0  0  0  0
 48 22  1  0  0  0  0
 49 23  1  0  0  0  0
 52 26  1  0  0  0  0
 54 26  1  0  0  0  0
 57 31  1  0  0  0  0
 58 32  1  0  0  0  0
 60 33  1  0  0  0  0
 61 33  1  0  0  0  0
M  END
$$$$
