CSD_code = QEWMAH | q = 0 | S = 0 | Stoichiometry = C17H22Cl2F3N3Pd | MND = 4
 OpenBabel04212202083D

 48 50  0  0  0  0  0  0  0  0999 V2000
    0.6608    3.2104    7.7450 Pd  0  0  0  0  0  0  0  0  0  0  0  0
   -0.3983    4.4642    9.2230 Cl  0  0  0  0  0  0  0  0  0  0  0  0
    0.9215    5.0453    6.5272 Cl  0  0  0  0  0  0  0  0  0  0  0  0
    2.0226    0.1583    2.6876 F   0  0  0  0  0  0  0  0  0  0  0  0
    3.9987    0.7952    3.2406 F   0  0  0  0  0  0  0  0  0  0  0  0
    3.3500   -1.2086    3.6902 F   0  0  0  0  0  0  0  0  0  0  0  0
    0.6459    1.5466    8.9520 N   0  0  0  0  0  0  0  0  0  0  0  0
    1.5669    1.8485    6.4802 N   0  0  0  0  0  0  0  0  0  0  0  0
    1.9752    1.7546    5.2299 N   0  0  0  0  0  0  0  0  0  0  0  0
    0.1860    1.4743   10.1986 C   0  0  0  0  0  0  0  0  0  0  0  0
   -0.3432    2.3497   10.5591 H   0  0  0  0  0  0  0  0  0  0  0  0
    0.3654    0.3541   10.9917 C   0  0  0  0  0  0  0  0  0  0  0  0
   -0.0269    0.3396   11.9953 H   0  0  0  0  0  0  0  0  0  0  0  0
    1.0533   -0.7365   10.4757 C   0  0  0  0  0  0  0  0  0  0  0  0
    1.2151   -1.6211   11.0717 H   0  0  0  0  0  0  0  0  0  0  0  0
    1.5320   -0.6673    9.1806 C   0  0  0  0  0  0  0  0  0  0  0  0
    2.0750   -1.4873    8.7395 H   0  0  0  0  0  0  0  0  0  0  0  0
    1.3108    0.4912    8.4392 C   0  0  0  0  0  0  0  0  0  0  0  0
    1.7520    0.6568    7.0705 C   0  0  0  0  0  0  0  0  0  0  0  0
    2.3166   -0.2342    6.1457 C   0  0  0  0  0  0  0  0  0  0  0  0
    2.5933   -1.2580    6.2856 H   0  0  0  0  0  0  0  0  0  0  0  0
    2.4331    0.5037    4.9833 C   0  0  0  0  0  0  0  0  0  0  0  0
    2.9500    0.0648    3.6568 C   0  0  0  0  0  0  0  0  0  0  0  0
    1.7546    2.8374    4.3070 C   0  0  0  0  0  0  0  0  0  0  0  0
    2.3574    2.6845    3.4121 H   0  0  0  0  0  0  0  0  0  0  0  0
    2.0471    3.7685    4.8074 H   0  0  0  0  0  0  0  0  0  0  0  0
    0.2631    2.9259    3.9646 C   0  0  0  0  0  0  0  0  0  0  0  0
   -0.3012    3.0134    4.9058 H   0  0  0  0  0  0  0  0  0  0  0  0
   -0.0550    2.0186    3.4448 H   0  0  0  0  0  0  0  0  0  0  0  0
   -0.0144    4.1526    3.1035 C   0  0  0  0  0  0  0  0  0  0  0  0
    0.5989    4.1090    2.2006 H   0  0  0  0  0  0  0  0  0  0  0  0
    0.2676    5.0420    3.6678 H   0  0  0  0  0  0  0  0  0  0  0  0
   -1.4858    4.2459    2.7100 C   0  0  0  0  0  0  0  0  0  0  0  0
   -1.7811    3.3361    2.1811 H   0  0  0  0  0  0  0  0  0  0  0  0
   -2.0950    4.3201    3.6128 H   0  0  0  0  0  0  0  0  0  0  0  0
   -1.7513    5.4558    1.8180 C   0  0  0  0  0  0  0  0  0  0  0  0
   -1.1075    5.4009    0.9367 H   0  0  0  0  0  0  0  0  0  0  0  0
   -1.4901    6.3657    2.3617 H   0  0  0  0  0  0  0  0  0  0  0  0
   -3.2081    5.5332    1.3690 C   0  0  0  0  0  0  0  0  0  0  0  0
   -3.4693    4.6191    0.8298 H   0  0  0  0  0  0  0  0  0  0  0  0
   -3.8551    5.5950    2.2469 H   0  0  0  0  0  0  0  0  0  0  0  0
   -3.4640    6.7382    0.4672 C   0  0  0  0  0  0  0  0  0  0  0  0
   -2.7999    6.6869   -0.3990 H   0  0  0  0  0  0  0  0  0  0  0  0
   -3.2239    7.6532    1.0131 H   0  0  0  0  0  0  0  0  0  0  0  0
   -4.9103    6.7964   -0.0085 C   0  0  0  0  0  0  0  0  0  0  0  0
   -5.0695    7.6633   -0.6458 H   0  0  0  0  0  0  0  0  0  0  0  0
   -5.5885    6.8644    0.8393 H   0  0  0  0  0  0  0  0  0  0  0  0
   -5.1618    5.9028   -0.5760 H   0  0  0  0  0  0  0  0  0  0  0  0
  1  7  1  0  0  0  0
  1  2  1  0  0  0  0
  3  1  1  0  0  0  0
  4 23  1  0  0  0  0
  5 23  1  0  0  0  0
  7 10  1  0  0  0  0
  8 19  1  0  0  0  0
  8  1  1  0  0  0  0
  9  8  1  0  0  0  0
 10 11  1  0  0  0  0
 10 12  2  0  0  0  0
 12 13  1  0  0  0  0
 14 12  1  0  0  0  0
 14 15  1  0  0  0  0
 16 14  2  0  0  0  0
 17 16  1  0  0  0  0
 18  7  1  0  0  0  0
 18 16  1  0  0  0  0
 19 18  2  0  0  0  0
 20 21  1  0  0  0  0
 20 19  1  0  0  0  0
 22  9  1  0  0  0  0
 22 20  2  0  0  0  0
 23  6  1  0  0  0  0
 23 22  1  0  0  0  0
 24 26  1  0  0  0  0
 24  9  1  0  0  0  0
 25 24  1  0  0  0  0
 27 24  1  0  0  0  0
 27 28  1  0  0  0  0
 29 27  1  0  0  0  0
 30 32  1  0  0  0  0
 30 27  1  0  0  0  0
 31 30  1  0  0  0  0
 33 30  1  0  0  0  0
 33 35  1  0  0  0  0
 34 33  1  0  0  0  0
 36 38  1  0  0  0  0
 36 33  1  0  0  0  0
 37 36  1  0  0  0  0
 39 36  1  0  0  0  0
 39 41  1  0  0  0  0
 40 39  1  0  0  0  0
 42 44  1  0  0  0  0
 42 39  1  0  0  0  0
 43 42  1  0  0  0  0
 45 42  1  0  0  0  0
 45 47  1  0  0  0  0
 46 45  1  0  0  0  0
 48 45  1  0  0  0  0
M  END
$$$$
