CSD_code = QEWNIS | q = 0 | S = 0 | Stoichiometry = C33H29Cl2N2O2PRu | MND = 6
 OpenBabel04212202083D

 70 75  0  0  1  0  0  0  0  0999 V2000
    1.0297    4.6021    3.8277 Ru  0  0  0  0  0  0  0  0  0  0  0  0
    0.8803    6.1481    2.0464 P   0  0  0  0  0  4  0  0  0  0  0  0
    2.8690    5.7251    4.8428 Cl  0  0  0  0  0  0  0  0  0  0  0  0
   -0.4735    3.2075    2.6322 Cl  0  0  0  0  0  0  0  0  0  0  0  0
   -0.8566    5.9411    5.4555 O   0  0  0  0  0  1  0  0  0  0  0  0
    2.4221    3.7881    2.6801 O   0  0  0  0  0  0  0  0  0  0  0  0
   -0.1037    5.3825    4.7662 N   0  0  0  0  0  2  0  0  0  0  0  0
    1.3564    3.0463    5.1572 N   0  0  0  0  0  0  0  0  0  0  0  0
    3.4266    3.0562    3.0159 C   0  0  0  0  0  0  0  0  0  0  0  0
    4.4904    2.8843    2.0977 C   0  0  0  0  0  0  0  0  0  0  0  0
    4.4066    3.3815    1.1433 H   0  0  0  0  0  0  0  0  0  0  0  0
    5.5894    2.1311    2.4133 C   0  0  0  0  0  0  0  0  0  0  0  0
    6.3944    2.0351    1.6988 H   0  0  0  0  0  0  0  0  0  0  0  0
    5.6832    1.4838    3.6486 C   0  0  0  0  0  0  0  0  0  0  0  0
    6.5569    0.8973    3.8873 H   0  0  0  0  0  0  0  0  0  0  0  0
    4.6501    1.5893    4.5420 C   0  0  0  0  0  0  0  0  0  0  0  0
    4.6982    1.0768    5.4930 H   0  0  0  0  0  0  0  0  0  0  0  0
    3.5102    2.3634    4.2601 C   0  0  0  0  0  0  0  0  0  0  0  0
    2.4358    2.3501    5.1931 C   0  0  0  0  0  3  0  0  0  0  0  0
    2.5407    1.6227    6.0019 H   0  0  0  0  0  0  0  0  0  0  0  0
    0.3592    2.8006    6.2040 C   0  0  2  0  0  0  0  0  0  0  0  0
   -0.5997    3.1879    5.8286 H   0  0  0  0  0  0  0  0  0  0  0  0
    0.7639    3.5956    7.4468 C   0  0  0  0  0  0  0  0  0  0  0  0
    1.6942    3.2141    7.8619 H   0  0  0  0  0  0  0  0  0  0  0  0
   -0.0193    3.5471    8.1986 H   0  0  0  0  0  0  0  0  0  0  0  0
    0.9259    4.6394    7.1759 H   0  0  0  0  0  0  0  0  0  0  0  0
    0.1669    1.3112    6.4206 C   0  0  0  0  0  0  0  0  0  0  0  0
   -0.2701    0.5602    5.3321 C   0  0  0  0  0  0  0  0  0  0  0  0
   -0.4661    1.0562    4.3916 H   0  0  0  0  0  0  0  0  0  0  0  0
   -0.4533   -0.8042    5.4483 C   0  0  0  0  0  0  0  0  0  0  0  0
   -0.7907   -1.3739    4.5955 H   0  0  0  0  0  0  0  0  0  0  0  0
   -0.2089   -1.4371    6.6563 C   0  0  0  0  0  0  0  0  0  0  0  0
   -0.3529   -2.5033    6.7501 H   0  0  0  0  0  0  0  0  0  0  0  0
    0.2164   -0.6960    7.7435 C   0  0  0  0  0  0  0  0  0  0  0  0
    0.4043   -1.1816    8.6900 H   0  0  0  0  0  0  0  0  0  0  0  0
    0.4066    0.6718    7.6282 C   0  0  0  0  0  0  0  0  0  0  0  0
    0.7376    1.2298    8.4902 H   0  0  0  0  0  0  0  0  0  0  0  0
    1.7227    5.5443    0.5680 C   0  0  0  0  0  0  0  0  0  0  0  0
    1.0136    4.8583   -0.4133 C   0  0  0  0  0  0  0  0  0  0  0  0
   -0.0526    4.7151   -0.3040 H   0  0  0  0  0  0  0  0  0  0  0  0
    1.6825    4.3520   -1.5132 C   0  0  0  0  0  0  0  0  0  0  0  0
    1.1343    3.8167   -2.2743 H   0  0  0  0  0  0  0  0  0  0  0  0
    3.0519    4.5232   -1.6355 C   0  0  0  0  0  0  0  0  0  0  0  0
    3.5699    4.1291   -2.4975 H   0  0  0  0  0  0  0  0  0  0  0  0
    3.7628    5.1834   -0.6449 C   0  0  0  0  0  0  0  0  0  0  0  0
    4.8336    5.3005   -0.7336 H   0  0  0  0  0  0  0  0  0  0  0  0
    3.1053    5.6834    0.4644 C   0  0  0  0  0  0  0  0  0  0  0  0
    3.6554    6.1673    1.2613 H   0  0  0  0  0  0  0  0  0  0  0  0
    1.5603    7.8050    2.3665 C   0  0  0  0  0  0  0  0  0  0  0  0
    2.2049    8.5591    1.3914 C   0  0  0  0  0  0  0  0  0  0  0  0
    2.3788    8.1474    0.4069 H   0  0  0  0  0  0  0  0  0  0  0  0
    2.6416    9.8384    1.6857 C   0  0  0  0  0  0  0  0  0  0  0  0
    3.1495   10.4164    0.9274 H   0  0  0  0  0  0  0  0  0  0  0  0
    2.4336   10.3756    2.9450 C   0  0  0  0  0  0  0  0  0  0  0  0
    2.7838   11.3718    3.1709 H   0  0  0  0  0  0  0  0  0  0  0  0
    1.7790    9.6333    3.9141 C   0  0  0  0  0  0  0  0  0  0  0  0
    1.6154   10.0481    4.8971 H   0  0  0  0  0  0  0  0  0  0  0  0
    1.3408    8.3546    3.6261 C   0  0  0  0  0  0  0  0  0  0  0  0
    0.8414    7.7697    4.3879 H   0  0  0  0  0  0  0  0  0  0  0  0
   -0.7850    6.5983    1.4621 C   0  0  0  0  0  0  0  0  0  0  0  0
   -0.8934    7.4376    0.3550 C   0  0  0  0  0  0  0  0  0  0  0  0
   -0.0004    7.7735   -0.1533 H   0  0  0  0  0  0  0  0  0  0  0  0
   -2.1378    7.8342   -0.0937 C   0  0  0  0  0  0  0  0  0  0  0  0
   -2.2173    8.4809   -0.9550 H   0  0  0  0  0  0  0  0  0  0  0  0
   -3.2820    7.4032    0.5606 C   0  0  0  0  0  0  0  0  0  0  0  0
   -4.2538    7.7148    0.2076 H   0  0  0  0  0  0  0  0  0  0  0  0
   -3.1777    6.5714    1.6615 C   0  0  0  0  0  0  0  0  0  0  0  0
   -4.0667    6.2297    2.1696 H   0  0  0  0  0  0  0  0  0  0  0  0
   -1.9327    6.1692    2.1156 C   0  0  0  0  0  0  0  0  0  0  0  0
   -1.8591    5.4953    2.9587 H   0  0  0  0  0  0  0  0  0  0  0  0
  1  7  1  0  0  0  0
  1  3  1  0  0  0  0
  1  8  1  0  0  0  0
  2 49  1  0  0  0  0
  2  1  1  0  0  0  0
  4  1  1  0  0  0  0
  6  9  1  0  0  0  0
  6  1  1  0  0  0  0
  7  5  1  0  0  0  0
  8 19  1  0  0  0  0
  8 21  1  0  0  0  0
  9 18  1  0  0  0  0
 10 12  1  0  0  0  0
 10  9  2  0  0  0  0
 11 10  1  0  0  0  0
 12 14  2  0  0  0  0
 13 12  1  0  0  0  0
 14 15  1  0  0  0  0
 14 16  1  0  0  0  0
 16 17  1  0  0  0  0
 18 16  2  0  0  0  0
 18 19  1  0  0  0  0
 19 20  1  0  0  0  0
 21 22  1  6  0  0  0
 21 27  1  0  0  0  0
 21 23  1  0  0  0  0
 23 24  1  0  0  0  0
 23 25  1  0  0  0  0
 26 23  1  0  0  0  0
 27 36  1  0  0  0  0
 28 30  1  0  0  0  0
 28 27  2  0  0  0  0
 29 28  1  0  0  0  0
 30 32  2  0  0  0  0
 31 30  1  0  0  0  0
 32 33  1  0  0  0  0
 32 34  1  0  0  0  0
 34 35  1  0  0  0  0
 36 34  2  0  0  0  0
 36 37  1  0  0  0  0
 38  2  1  0  0  0  0
 39 40  1  0  0  0  0
 39 38  2  0  0  0  0
 41 39  1  0  0  0  0
 42 41  1  0  0  0  0
 43 41  2  0  0  0  0
 43 45  1  0  0  0  0
 44 43  1  0  0  0  0
 45 47  2  0  0  0  0
 46 45  1  0  0  0  0
 47 38  1  0  0  0  0
 47 48  1  0  0  0  0
 49 58  1  0  0  0  0
 50 52  1  0  0  0  0
 50 49  2  0  0  0  0
 51 50  1  0  0  0  0
 52 54  2  0  0  0  0
 53 52  1  0  0  0  0
 54 55  1  0  0  0  0
 54 56  1  0  0  0  0
 56 57  1  0  0  0  0
 58 56  2  0  0  0  0
 58 59  1  0  0  0  0
 60  2  1  0  0  0  0
 60 69  1  0  0  0  0
 61 60  2  0  0  0  0
 62 61  1  0  0  0  0
 63 61  1  0  0  0  0
 63 65  2  0  0  0  0
 64 63  1  0  0  0  0
 65 67  1  0  0  0  0
 66 65  1  0  0  0  0
 67 69  2  0  0  0  0
 67 68  1  0  0  0  0
 69 70  1  0  0  0  0
M  END
$$$$
