CSD_code = QEWNOY | q = -1 | S = 0 | Stoichiometry = C20H32Cl3N2O3Ru(1-) | MND = 6
 OpenBabel04212202083D

 61 62  0  0  1  0  0  0  0  0999 V2000
    1.7038    7.0885    2.8157 Ru  0  0  0  0  0  0  0  0  0  0  0  0
    0.7158    5.0439    2.1116 Cl  0  0  0  0  0  0  0  0  0  0  0  0
    3.1914    5.9063    4.2236 Cl  0  0  0  0  0  0  0  0  0  0  0  0
    2.8932    9.1436    3.1785 Cl  0  0  0  0  0  0  0  0  0  0  0  0
    0.0898    7.3394    5.1185 O   0  0  0  0  0  1  0  0  0  0  0  0
    3.0381    6.7441    1.4318 O   0  0  0  0  0  0  0  0  0  0  0  0
    0.5156   10.8203    2.2006 O   0  0  0  0  0  0  0  0  0  0  0  0
    1.4100   10.4651    2.3893 H   0  0  0  0  0  0  0  0  0  0  0  0
    0.7122    7.2679    4.1365 N   0  0  0  0  0  2  0  0  0  0  0  0
    0.6038    8.1240    1.3225 N   0  0  0  0  0  0  0  0  0  0  0  0
    3.2066    7.0621    0.2095 C   0  0  0  0  0  0  0  0  0  0  0  0
    4.3717    6.6248   -0.5048 C   0  0  0  0  0  0  0  0  0  0  0  0
    4.5187    7.0104   -1.8112 C   0  0  0  0  0  0  0  0  0  0  0  0
    5.3951    6.6876   -2.3488 H   0  0  0  0  0  0  0  0  0  0  0  0
    3.5905    7.8113   -2.5055 C   0  0  0  0  0  0  0  0  0  0  0  0
    2.4719    8.2166   -1.8283 C   0  0  0  0  0  0  0  0  0  0  0  0
    1.7192    8.8274   -2.3031 H   0  0  0  0  0  0  0  0  0  0  0  0
    2.2511    7.8590   -0.4841 C   0  0  0  0  0  0  0  0  0  0  0  0
    1.0552    8.3192    0.1298 C   0  0  0  0  0  3  0  0  0  0  0  0
    0.4315    8.9238   -0.5372 H   0  0  0  0  0  0  0  0  0  0  0  0
    5.3916    5.7572    0.2191 C   0  0  0  0  0  0  0  0  0  0  0  0
    6.5718    5.3645   -0.6779 C   0  0  0  0  0  0  0  0  0  0  0  0
    7.2595    4.7421   -0.1078 H   0  0  0  0  0  0  0  0  0  0  0  0
    7.1189    6.2422   -1.0181 H   0  0  0  0  0  0  0  0  0  0  0  0
    6.2385    4.7908   -1.5411 H   0  0  0  0  0  0  0  0  0  0  0  0
    5.9479    6.5289    1.4238 C   0  0  0  0  0  0  0  0  0  0  0  0
    5.1634    6.7350    2.1462 H   0  0  0  0  0  0  0  0  0  0  0  0
    6.3824    7.4751    1.1029 H   0  0  0  0  0  0  0  0  0  0  0  0
    6.7157    5.9407    1.9231 H   0  0  0  0  0  0  0  0  0  0  0  0
    4.7092    4.4673    0.6957 C   0  0  0  0  0  0  0  0  0  0  0  0
    3.9154    4.6875    1.4038 H   0  0  0  0  0  0  0  0  0  0  0  0
    5.4325    3.8233    1.1927 H   0  0  0  0  0  0  0  0  0  0  0  0
    4.2802    3.9287   -0.1487 H   0  0  0  0  0  0  0  0  0  0  0  0
    3.8759    8.1773   -3.9549 C   0  0  0  0  0  0  0  0  0  0  0  0
    5.2016    8.9481   -4.0306 C   0  0  0  0  0  0  0  0  0  0  0  0
    6.0309    8.3444   -3.6727 H   0  0  0  0  0  0  0  0  0  0  0  0
    5.1463    9.8454   -3.4179 H   0  0  0  0  0  0  0  0  0  0  0  0
    5.4115    9.2413   -5.0584 H   0  0  0  0  0  0  0  0  0  0  0  0
    3.9728    6.8939   -4.7920 C   0  0  0  0  0  0  0  0  0  0  0  0
    4.1623    7.1361   -5.8368 H   0  0  0  0  0  0  0  0  0  0  0  0
    3.0410    6.3358   -4.7284 H   0  0  0  0  0  0  0  0  0  0  0  0
    4.7758    6.2525   -4.4397 H   0  0  0  0  0  0  0  0  0  0  0  0
    2.7810    9.0589   -4.5625 C   0  0  0  0  0  0  0  0  0  0  0  0
    3.0346    9.2977   -5.5946 H   0  0  0  0  0  0  0  0  0  0  0  0
    2.6852    9.9926   -4.0134 H   0  0  0  0  0  0  0  0  0  0  0  0
    1.8223    8.5453   -4.5609 H   0  0  0  0  0  0  0  0  0  0  0  0
   -0.6589    8.7550    1.6525 C   0  0  2  0  0  0  0  0  0  0  0  0
   -1.0413    9.2544    0.7468 H   0  0  0  0  0  0  0  0  0  0  0  0
   -0.4176    9.8931    2.6763 C   0  0  0  0  0  0  0  0  0  0  0  0
   -1.3539   10.4418    2.8103 H   0  0  0  0  0  0  0  0  0  0  0  0
   -0.1061    9.4838    3.6449 H   0  0  0  0  0  0  0  0  0  0  0  0
   -1.7053    7.7056    2.0755 C   0  0  0  0  0  0  0  0  0  0  0  0
   -1.2753    7.0616    2.8488 H   0  0  0  0  0  0  0  0  0  0  0  0
   -2.0369    6.8190    0.8751 C   0  0  0  0  0  0  0  0  0  0  0  0
   -2.4388    7.4119    0.0542 H   0  0  0  0  0  0  0  0  0  0  0  0
   -2.7723    6.0696    1.1568 H   0  0  0  0  0  0  0  0  0  0  0  0
   -1.1446    6.2968    0.5399 H   0  0  0  0  0  0  0  0  0  0  0  0
   -2.9762    8.3506    2.6232 C   0  0  0  0  0  0  0  0  0  0  0  0
   -2.7909    8.8438    3.5731 H   0  0  0  0  0  0  0  0  0  0  0  0
   -3.7308    7.5836    2.7831 H   0  0  0  0  0  0  0  0  0  0  0  0
   -3.3720    9.0796    1.9179 H   0  0  0  0  0  0  0  0  0  0  0  0
  1  4  1  0  0  0  0
  1  9  1  0  0  0  0
  1  3  1  0  0  0  0
  2  1  1  0  0  0  0
  6  1  1  0  0  0  0
  7  8  1  0  0  0  0
  7 49  1  0  0  0  0
  9  5  1  0  0  0  0
 10 47  1  0  0  0  0
 10  1  1  0  0  0  0
 11  6  1  0  0  0  0
 12 11  2  0  0  0  0
 12 21  1  0  0  0  0
 13 12  1  0  0  0  0
 14 13  1  0  0  0  0
 15 16  1  0  0  0  0
 15 13  2  0  0  0  0
 16 18  2  0  0  0  0
 17 16  1  0  0  0  0
 18 19  1  0  0  0  0
 18 11  1  0  0  0  0
 19 10  1  0  0  0  0
 20 19  1  0  0  0  0
 21 30  1  0  0  0  0
 21 26  1  0  0  0  0
 22 23  1  0  0  0  0
 22 21  1  0  0  0  0
 24 22  1  0  0  0  0
 25 22  1  0  0  0  0
 26 29  1  0  0  0  0
 26 27  1  0  0  0  0
 28 26  1  0  0  0  0
 30 32  1  0  0  0  0
 30 31  1  0  0  0  0
 33 30  1  0  0  0  0
 34 15  1  0  0  0  0
 35 34  1  0  0  0  0
 35 36  1  0  0  0  0
 35 37  1  0  0  0  0
 38 35  1  0  0  0  0
 39 41  1  0  0  0  0
 39 42  1  0  0  0  0
 39 34  1  0  0  0  0
 40 39  1  0  0  0  0
 43 46  1  0  0  0  0
 43 45  1  0  0  0  0
 43 34  1  0  0  0  0
 44 43  1  0  0  0  0
 47 48  1  6  0  0  0
 47 52  1  0  0  0  0
 47 49  1  0  0  0  0
 49 50  1  0  0  0  0
 49 51  1  0  0  0  0
 52 58  1  0  0  0  0
 52 53  1  0  0  0  0
 54 56  1  0  0  0  0
 54 52  1  0  0  0  0
 55 54  1  0  0  0  0
 57 54  1  0  0  0  0
 58 60  1  0  0  0  0
 58 59  1  0  0  0  0
 61 58  1  0  0  0  0
M  END
$$$$
