CSD_code = QEWPUD | q = 0 | S = 0 | Stoichiometry = C27H30Cl2Zr | MND = 12
 OpenBabel04212202083D

 60 64  0  0  1  0  0  0  0  0999 V2000
    1.6479    6.5133   15.2908 Zr  0  0  0  0  0  0  0  0  0  0  0  0
    2.0023    6.3104   17.5793 Cl  0  0  0  0  0  0  0  0  0  0  0  0
    0.2312    8.3413   15.5329 Cl  0  0  0  0  0  0  0  0  0  0  0  0
    3.3627    6.0285   13.6269 C   0  0  1  0  0  3  0  0  0  0  0  0
    3.0954    7.4213   13.5914 C   0  0  2  0  0  0  0  0  0  0  0  0
    3.5953    8.0420   14.7708 C   0  0  1  0  0  3  0  0  0  0  0  0
    4.2114    7.0098   15.5549 C   0  0  0  0  0  0  0  0  0  0  0  0
    4.9569    7.0024   16.7514 C   0  0  0  0  0  0  0  0  0  0  0  0
    5.3958    5.8124   17.2726 C   0  0  0  0  0  0  0  0  0  0  0  0
    5.1305    4.5873   16.6387 C   0  0  0  0  0  0  0  0  0  0  0  0
    4.4540    4.5449   15.4473 C   0  0  0  0  0  0  0  0  0  0  0  0
    4.0025    5.7498   14.8702 C   0  0  0  0  0  0  0  0  0  0  0  0
    2.6621    4.9842   12.7901 C   0  0  0  0  0  0  0  0  0  0  0  0
    3.6695    9.5353   15.0298 C   0  0  0  0  0  0  0  0  0  0  0  0
    2.7757   10.2957   14.0412 C   0  0  0  0  0  0  0  0  0  0  0  0
    3.1964    9.8527   16.4580 C   0  0  0  0  0  0  0  0  0  0  0  0
    5.1230   10.0023   14.8450 C   0  0  0  0  0  0  0  0  0  0  0  0
    1.3380    4.8766   13.5092 C   0  0  1  0  0  3  0  0  0  0  0  0
    1.1340    4.2198   14.7499 C   0  0  2  0  0  0  0  0  0  0  0  0
   -0.0798    4.6672   15.3430 C   0  0  1  0  0  3  0  0  0  0  0  0
   -0.6631    5.6123   14.4338 C   0  0  0  0  0  0  0  0  0  0  0  0
   -1.8865    6.3113   14.4008 C   0  0  0  0  0  0  0  0  0  0  0  0
   -2.1416    7.1876   13.3773 C   0  0  0  0  0  0  0  0  0  0  0  0
   -1.2130    7.4082   12.3467 C   0  0  0  0  0  0  0  0  0  0  0  0
   -0.0298    6.7175   12.3069 C   0  0  0  0  0  0  0  0  0  0  0  0
    0.2584    5.7900   13.3293 C   0  0  0  0  0  0  0  0  0  0  0  0
   -0.7359    4.0788   16.5782 C   0  0  0  0  0  0  0  0  0  0  0  0
    0.2759    3.2397   17.3704 C   0  0  0  0  0  0  0  0  0  0  0  0
   -1.2628    5.2010   17.4891 C   0  0  0  0  0  0  0  0  0  0  0  0
   -1.8995    3.1731   16.1416 C   0  0  0  0  0  0  0  0  0  0  0  0
    2.6849    7.9453   12.7343 H   0  0  0  0  0  0  0  0  0  0  0  0
    5.1982    7.9216   17.2633 H   0  0  0  0  0  0  0  0  0  0  0  0
    5.9629    5.8106   18.1910 H   0  0  0  0  0  0  0  0  0  0  0  0
    5.4844    3.6739   17.0927 H   0  0  0  0  0  0  0  0  0  0  0  0
    4.3105    3.6033   14.9311 H   0  0  0  0  0  0  0  0  0  0  0  0
    3.2077    4.0370   12.7918 H   0  0  0  0  0  0  0  0  0  0  0  0
    2.5307    5.3091   11.7548 H   0  0  0  0  0  0  0  0  0  0  0  0
    1.7452    9.9463   14.1072 H   0  0  0  0  0  0  0  0  0  0  0  0
    3.1333   10.1782   13.0202 H   0  0  0  0  0  0  0  0  0  0  0  0
    2.7917   11.3574   14.2768 H   0  0  0  0  0  0  0  0  0  0  0  0
    3.9019    9.4974   17.2031 H   0  0  0  0  0  0  0  0  0  0  0  0
    2.2270    9.3898   16.6545 H   0  0  0  0  0  0  0  0  0  0  0  0
    3.0953   10.9291   16.5822 H   0  0  0  0  0  0  0  0  0  0  0  0
    5.4553    9.8069   13.8277 H   0  0  0  0  0  0  0  0  0  0  0  0
    5.7893    9.4783   15.5247 H   0  0  0  0  0  0  0  0  0  0  0  0
    5.2007   11.0702   15.0362 H   0  0  0  0  0  0  0  0  0  0  0  0
    1.7483    3.4063   15.1214 H   0  0  0  0  0  0  0  0  0  0  0  0
   -2.6332    6.1627   15.1658 H   0  0  0  0  0  0  0  0  0  0  0  0
   -3.0782    7.7238   13.3567 H   0  0  0  0  0  0  0  0  0  0  0  0
   -1.4500    8.1201   11.5703 H   0  0  0  0  0  0  0  0  0  0  0  0
    0.6541    6.8471   11.4768 H   0  0  0  0  0  0  0  0  0  0  0  0
    1.1441    3.8404   17.6432 H   0  0  0  0  0  0  0  0  0  0  0  0
    0.6007    2.3737   16.7972 H   0  0  0  0  0  0  0  0  0  0  0  0
   -0.1878    2.8747   18.2842 H   0  0  0  0  0  0  0  0  0  0  0  0
   -2.1674    5.6487   17.0887 H   0  0  0  0  0  0  0  0  0  0  0  0
   -0.5131    5.9867   17.6101 H   0  0  0  0  0  0  0  0  0  0  0  0
   -1.5003    4.7985   18.4717 H   0  0  0  0  0  0  0  0  0  0  0  0
   -1.5302    2.3523   15.5304 H   0  0  0  0  0  0  0  0  0  0  0  0
   -2.6255    3.7307   15.5560 H   0  0  0  0  0  0  0  0  0  0  0  0
   -2.3997    2.7586   17.0138 H   0  0  0  0  0  0  0  0  0  0  0  0
  1  3  1  0  0  0  0
  1  2  1  0  0  0  0
  4 12  1  1  0  0  0
  5 31  1  6  0  0  0
  5  4  1  0  0  0  0
  5  6  1  0  0  0  0
  5  1  1  0  0  0  0
  6 14  1  6  0  0  0
  6  7  1  0  0  0  0
  7  8  1  0  0  0  0
  8 32  1  0  0  0  0
  8  9  2  0  0  0  0
  9 33  1  0  0  0  0
 10 34  1  0  0  0  0
 10  9  1  0  0  0  0
 11 10  2  0  0  0  0
 12 11  1  0  0  0  0
 12  7  2  0  0  0  0
 13 36  1  0  0  0  0
 13 18  1  0  0  0  0
 13  4  1  0  0  0  0
 14 16  1  0  0  0  0
 15 38  1  0  0  0  0
 15 40  1  0  0  0  0
 15 14  1  0  0  0  0
 16 43  1  0  0  0  0
 16 42  1  0  0  0  0
 16 41  1  0  0  0  0
 17 14  1  0  0  0  0
 17 46  1  0  0  0  0
 17 45  1  0  0  0  0
 18 26  1  1  0  0  0
 18 19  1  0  0  0  0
 19 47  1  1  0  0  0
 19  1  1  0  0  0  0
 19 20  1  0  0  0  0
 20 27  1  6  0  0  0
 21 20  1  0  0  0  0
 22 21  1  0  0  0  0
 22 48  1  0  0  0  0
 23 22  2  0  0  0  0
 24 23  1  0  0  0  0
 25 24  2  0  0  0  0
 25 26  1  0  0  0  0
 26 21  2  0  0  0  0
 27 28  1  0  0  0  0
 27 29  1  0  0  0  0
 28 52  1  0  0  0  0
 28 54  1  0  0  0  0
 29 56  1  0  0  0  0
 29 57  1  0  0  0  0
 30 27  1  0  0  0  0
 30 60  1  0  0  0  0
 35 11  1  0  0  0  0
 37 13  1  0  0  0  0
 39 15  1  0  0  0  0
 44 17  1  0  0  0  0
 49 23  1  0  0  0  0
 50 24  1  0  0  0  0
 51 25  1  0  0  0  0
 53 28  1  0  0  0  0
 55 29  1  0  0  0  0
 58 30  1  0  0  0  0
 59 30  1  0  0  0  0
M  END
$$$$
