CSD_code = QEXJOV | q = 0 | S = 0 | Stoichiometry = C34H31CuIN2P | MND = 4
 OpenBabel04212202083D

 70 75  0  0  0  0  0  0  0  0999 V2000
    5.9871   13.6067   17.6920 Cu  0  0  2  0  0  0  0  0  0  0  0  0
    4.0112   14.8546   16.8399 I   0  0  0  0  0  0  0  0  0  0  0  0
    6.8751   14.8575   19.3098 P   0  0  0  0  0  4  0  0  0  0  0  0
    7.0773   12.9530   16.1910 N   0  0  0  0  0  0  0  0  0  0  0  0
    5.9994   11.7087   18.2661 N   0  0  0  0  0  0  0  0  0  0  0  0
    7.1676   11.6551   16.2492 C   0  0  0  0  0  0  0  0  0  0  0  0
    6.6709   11.0079   17.3985 C   0  0  0  0  0  0  0  0  0  0  0  0
    5.4231   11.1315   19.3795 C   0  0  0  0  0  0  0  0  0  0  0  0
    5.4076   11.8291   20.5881 C   0  0  0  0  0  0  0  0  0  0  0  0
    4.7922   11.2968   21.6999 C   0  0  0  0  0  0  0  0  0  0  0  0
    4.1578   10.0606   21.6444 C   0  0  0  0  0  0  0  0  0  0  0  0
    4.1638    9.3713   20.4363 C   0  0  0  0  0  0  0  0  0  0  0  0
    4.7896    9.8861   19.3208 C   0  0  0  0  0  0  0  0  0  0  0  0
    3.4578    9.4955   22.8411 C   0  0  0  0  0  0  0  0  0  0  0  0
    7.4149   13.6847   15.0689 C   0  0  0  0  0  0  0  0  0  0  0  0
    7.8175   15.0105   15.2546 C   0  0  0  0  0  0  0  0  0  0  0  0
    8.1324   15.8044   14.1763 C   0  0  0  0  0  0  0  0  0  0  0  0
    8.0400   15.3128   12.8764 C   0  0  0  0  0  0  0  0  0  0  0  0
    7.6245   13.9989   12.6929 C   0  0  0  0  0  0  0  0  0  0  0  0
    7.3190   13.1881   13.7664 C   0  0  0  0  0  0  0  0  0  0  0  0
    8.3478   16.1967   11.7093 C   0  0  0  0  0  0  0  0  0  0  0  0
    7.7000   16.3357   18.6440 C   0  0  0  0  0  0  0  0  0  0  0  0
    6.8675   17.2950   18.0662 C   0  0  0  0  0  0  0  0  0  0  0  0
    7.4143   18.4087   17.4600 C   0  0  0  0  0  0  0  0  0  0  0  0
    8.7907   18.5727   17.4220 C   0  0  0  0  0  0  0  0  0  0  0  0
    9.6187   17.6205   17.9927 C   0  0  0  0  0  0  0  0  0  0  0  0
    9.0803   16.4992   18.5997 C   0  0  0  0  0  0  0  0  0  0  0  0
    8.1851   14.0450   20.2752 C   0  0  0  0  0  0  0  0  0  0  0  0
    9.0870   13.2794   19.5376 C   0  0  0  0  0  0  0  0  0  0  0  0
   10.0872   12.5734   20.1766 C   0  0  0  0  0  0  0  0  0  0  0  0
   10.1809   12.6116   21.5593 C   0  0  0  0  0  0  0  0  0  0  0  0
    9.2726   13.3528   22.2968 C   0  0  0  0  0  0  0  0  0  0  0  0
    8.2721   14.0676   21.6616 C   0  0  0  0  0  0  0  0  0  0  0  0
    5.7748   15.6277   20.5357 C   0  0  0  0  0  0  0  0  0  0  0  0
    4.4726   15.1573   20.6630 C   0  0  0  0  0  0  0  0  0  0  0  0
    3.6128   15.7429   21.5750 C   0  0  0  0  0  0  0  0  0  0  0  0
    4.0490   16.7967   22.3596 C   0  0  0  0  0  0  0  0  0  0  0  0
    5.3449   17.2732   22.2292 C   0  0  0  0  0  0  0  0  0  0  0  0
    6.2080   16.6973   21.3171 C   0  0  0  0  0  0  0  0  0  0  0  0
    7.6312   11.0653   15.4619 H   0  0  0  0  0  0  0  0  0  0  0  0
    6.8734    9.9493   17.5486 H   0  0  0  0  0  0  0  0  0  0  0  0
    5.9116   12.7844   20.6483 H   0  0  0  0  0  0  0  0  0  0  0  0
    4.8023   11.8533   22.6264 H   0  0  0  0  0  0  0  0  0  0  0  0
    3.6647    8.4149   20.3686 H   0  0  0  0  0  0  0  0  0  0  0  0
    4.7530    9.3503   18.3829 H   0  0  0  0  0  0  0  0  0  0  0  0
    3.8355    9.9399   23.7587 H   0  0  0  0  0  0  0  0  0  0  0  0
    2.3889    9.7025   22.7789 H   0  0  0  0  0  0  0  0  0  0  0  0
    3.5858    8.4162   22.8909 H   0  0  0  0  0  0  0  0  0  0  0  0
    7.8800   15.3994   16.2605 H   0  0  0  0  0  0  0  0  0  0  0  0
    8.4423   16.8262   14.3417 H   0  0  0  0  0  0  0  0  0  0  0  0
    7.5284   13.6066   11.6904 H   0  0  0  0  0  0  0  0  0  0  0  0
    6.9617   12.1826   13.5963 H   0  0  0  0  0  0  0  0  0  0  0  0
    7.5284   16.8980   11.5521 H   0  0  0  0  0  0  0  0  0  0  0  0
    9.2505   16.7766   11.8922 H   0  0  0  0  0  0  0  0  0  0  0  0
    8.4784   15.6151   10.8004 H   0  0  0  0  0  0  0  0  0  0  0  0
    5.7954   17.1535   18.0849 H   0  0  0  0  0  0  0  0  0  0  0  0
    6.7656   19.1455   17.0111 H   0  0  0  0  0  0  0  0  0  0  0  0
    9.2189   19.4432   16.9472 H   0  0  0  0  0  0  0  0  0  0  0  0
   10.6914   17.7481   17.9650 H   0  0  0  0  0  0  0  0  0  0  0  0
    9.7326   15.7563   19.0384 H   0  0  0  0  0  0  0  0  0  0  0  0
    8.9888   13.2435   18.4578 H   0  0  0  0  0  0  0  0  0  0  0  0
   10.7889   11.9871   19.6010 H   0  0  0  0  0  0  0  0  0  0  0  0
   10.9579   12.0550   22.0621 H   0  0  0  0  0  0  0  0  0  0  0  0
    9.3411   13.3721   23.3747 H   0  0  0  0  0  0  0  0  0  0  0  0
    7.5591   14.6382   22.2407 H   0  0  0  0  0  0  0  0  0  0  0  0
    4.1311   14.3445   20.0372 H   0  0  0  0  0  0  0  0  0  0  0  0
    2.6001   15.3803   21.6646 H   0  0  0  0  0  0  0  0  0  0  0  0
    3.3771   17.2563   23.0693 H   0  0  0  0  0  0  0  0  0  0  0  0
    5.6810   18.1013   22.8363 H   0  0  0  0  0  0  0  0  0  0  0  0
    7.2154   17.0756   21.2019 H   0  0  0  0  0  0  0  0  0  0  0  0
  1  2  1  6  0  0  0
  1  5  1  0  0  0  0
  1  3  1  0  0  0  0
  3 28  1  0  0  0  0
  3 34  1  0  0  0  0
  4  6  1  0  0  0  0
  4  1  1  0  0  0  0
  5  8  1  0  0  0  0
  6  7  2  0  0  0  0
  7 41  1  0  0  0  0
  7  5  1  0  0  0  0
  8  9  1  0  0  0  0
  9 42  1  0  0  0  0
  9 10  2  0  0  0  0
 10 43  1  0  0  0  0
 11 10  1  0  0  0  0
 11 14  1  0  0  0  0
 12 11  2  0  0  0  0
 13  8  2  0  0  0  0
 13 12  1  0  0  0  0
 14 48  1  0  0  0  0
 14 46  1  0  0  0  0
 15 16  1  0  0  0  0
 15  4  1  0  0  0  0
 16 49  1  0  0  0  0
 17 50  1  0  0  0  0
 17 16  2  0  0  0  0
 18 17  1  0  0  0  0
 19 18  2  0  0  0  0
 19 20  1  0  0  0  0
 20 15  2  0  0  0  0
 21 54  1  0  0  0  0
 21 18  1  0  0  0  0
 22  3  1  0  0  0  0
 23 56  1  0  0  0  0
 23 22  2  0  0  0  0
 24 23  1  0  0  0  0
 25 24  2  0  0  0  0
 25 26  1  0  0  0  0
 26 27  2  0  0  0  0
 27 22  1  0  0  0  0
 27 60  1  0  0  0  0
 28 33  1  0  0  0  0
 29 30  1  0  0  0  0
 29 28  2  0  0  0  0
 30 31  2  0  0  0  0
 31 63  1  0  0  0  0
 31 32  1  0  0  0  0
 32 64  1  0  0  0  0
 33 65  1  0  0  0  0
 33 32  2  0  0  0  0
 34 35  2  0  0  0  0
 34 39  1  0  0  0  0
 35 36  1  0  0  0  0
 36 67  1  0  0  0  0
 36 37  2  0  0  0  0
 37 68  1  0  0  0  0
 38 37  1  0  0  0  0
 38 69  1  0  0  0  0
 39 38  2  0  0  0  0
 40  6  1  0  0  0  0
 44 12  1  0  0  0  0
 45 13  1  0  0  0  0
 47 14  1  0  0  0  0
 51 19  1  0  0  0  0
 52 20  1  0  0  0  0
 53 21  1  0  0  0  0
 55 21  1  0  0  0  0
 57 24  1  0  0  0  0
 58 25  1  0  0  0  0
 59 26  1  0  0  0  0
 61 29  1  0  0  0  0
 62 30  1  0  0  0  0
 66 35  1  0  0  0  0
 70 39  1  0  0  0  0
M  END
$$$$
