CSD_code = QEYJIN | q = 0 | S = 0 | Stoichiometry = C22H32BCl2N8V | MND = 6
 OpenBabel04212202083D

 66 71  0  0  1  0  0  0  0  0999 V2000
    0.7223    0.0107   -2.3730 V   0  0  0  0  0  0  0  0  0  0  0  0
   -0.5545    1.7507   -3.1435 Cl  0  0  0  0  0  0  0  0  0  0  0  0
   -0.8202   -1.2929   -2.0565 Cl  0  0  0  0  0  0  0  0  0  0  0  0
    1.0192   -0.6473   -4.2913 N   0  0  0  0  0  0  0  0  0  0  0  0
    2.2525   -0.9749   -4.6986 N   0  0  1  0  0  0  0  0  0  0  0  0
    2.1386   -1.3619   -1.7292 N   0  0  0  0  0  0  0  0  0  0  0  0
    3.2037   -1.6037   -2.5007 N   0  0  2  0  0  0  0  0  0  0  0  0
    2.3902    1.2231   -2.6701 N   0  0  0  0  0  0  0  0  0  0  0  0
    3.4351    0.7016   -3.3345 N   0  0  2  0  0  0  0  0  0  0  0  0
    0.6371    0.8109   -0.5126 N   0  0  0  0  0  0  0  0  0  0  0  0
    0.2333    2.3123    3.3804 N   0  0  0  0  0  0  0  0  0  0  0  0
    2.2168   -1.4377   -5.9631 C   0  0  1  0  0  3  0  0  0  0  0  0
    0.8976   -1.4140   -6.3707 C   0  0  0  0  0  0  0  0  0  0  0  0
    0.1739   -0.9062   -5.2858 C   0  0  0  0  0  0  0  0  0  0  0  0
    3.4175   -1.8760   -6.7231 C   0  0  0  0  0  0  0  0  0  0  0  0
   -1.3003   -0.7274   -5.2163 C   0  0  0  0  0  0  0  0  0  0  0  0
    3.9561   -2.5830   -1.9657 C   0  0  1  0  0  3  0  0  0  0  0  0
    3.3348   -2.9841   -0.7985 C   0  0  0  0  0  0  0  0  0  0  0  0
    2.1919   -2.1849   -0.6860 C   0  0  0  0  0  0  0  0  0  0  0  0
    5.2145   -3.0936   -2.5706 C   0  0  0  0  0  0  0  0  0  0  0  0
    1.1986   -2.2325    0.4227 C   0  0  0  0  0  0  0  0  0  0  0  0
    4.3752    1.6392   -3.5447 C   0  0  2  0  0  3  0  0  0  0  0  0
    3.9155    2.8145   -2.9816 C   0  0  0  0  0  0  0  0  0  0  0  0
    2.6630    2.5099   -2.4416 C   0  0  0  0  0  0  0  0  0  0  0  0
    5.6549    1.3974   -4.2618 C   0  0  0  0  0  0  0  0  0  0  0  0
    1.7899    3.4732   -1.7173 C   0  0  0  0  0  0  0  0  0  0  0  0
    1.6892    0.9829    0.2895 C   0  0  0  0  0  3  0  0  0  0  0  0
    1.6133    1.4744    1.5726 C   0  0  0  0  0  0  0  0  0  0  0  0
    0.3651    1.8304    2.1182 C   0  0  0  0  0  0  0  0  0  0  0  0
   -0.7356    1.6482    1.2608 C   0  0  0  0  0  0  0  0  0  0  0  0
   -0.5521    1.1543   -0.0097 C   0  0  0  0  0  0  0  0  0  0  0  0
    1.3943    2.5008    4.2152 C   0  0  0  0  0  0  0  0  0  0  0  0
   -1.0624    2.7155    3.8718 C   0  0  0  0  0  0  0  0  0  0  0  0
    3.4436   -0.7711   -3.7654 B   0  0  2  0  0  0  0  0  0  0  0  0
    3.9263   -2.6883   -6.2066 H   0  0  0  0  0  0  0  0  0  0  0  0
    3.1156   -2.2199   -7.7088 H   0  0  0  0  0  0  0  0  0  0  0  0
    4.1229   -1.0545   -6.8383 H   0  0  0  0  0  0  0  0  0  0  0  0
    0.5069   -1.7170   -7.3214 H   0  0  0  0  0  0  0  0  0  0  0  0
   -1.5500    0.2313   -4.7644 H   0  0  0  0  0  0  0  0  0  0  0  0
   -1.7241   -0.7801   -6.2166 H   0  0  0  0  0  0  0  0  0  0  0  0
   -1.7463   -1.5150   -4.6055 H   0  0  0  0  0  0  0  0  0  0  0  0
    6.2364    0.6215   -3.7668 H   0  0  0  0  0  0  0  0  0  0  0  0
    5.4665    1.0777   -5.2851 H   0  0  0  0  0  0  0  0  0  0  0  0
    6.2362    2.3154   -4.2820 H   0  0  0  0  0  0  0  0  0  0  0  0
    4.4105    3.7647   -2.9677 H   0  0  0  0  0  0  0  0  0  0  0  0
    2.0433    4.4850   -2.0265 H   0  0  0  0  0  0  0  0  0  0  0  0
    0.7423    3.2814   -1.9431 H   0  0  0  0  0  0  0  0  0  0  0  0
    1.9362    3.3964   -0.6388 H   0  0  0  0  0  0  0  0  0  0  0  0
    5.6136   -3.8948   -1.9543 H   0  0  0  0  0  0  0  0  0  0  0  0
    5.0308   -3.4773   -3.5725 H   0  0  0  0  0  0  0  0  0  0  0  0
    5.9582   -2.3016   -2.6440 H   0  0  0  0  0  0  0  0  0  0  0  0
    3.6569   -3.7502   -0.1220 H   0  0  0  0  0  0  0  0  0  0  0  0
    1.5090   -1.5846    1.2440 H   0  0  0  0  0  0  0  0  0  0  0  0
    0.2185   -1.9106    0.0766 H   0  0  0  0  0  0  0  0  0  0  0  0
    1.1269   -3.2505    0.8012 H   0  0  0  0  0  0  0  0  0  0  0  0
    2.6567    0.7101   -0.1158 H   0  0  0  0  0  0  0  0  0  0  0  0
    2.5230    1.5821    2.1394 H   0  0  0  0  0  0  0  0  0  0  0  0
   -1.7349    1.8938    1.5760 H   0  0  0  0  0  0  0  0  0  0  0  0
   -1.4030    1.0397   -0.6695 H   0  0  0  0  0  0  0  0  0  0  0  0
    1.9314    1.5587    4.3551 H   0  0  0  0  0  0  0  0  0  0  0  0
    2.0819    3.2345    3.7824 H   0  0  0  0  0  0  0  0  0  0  0  0
    1.0848    2.8604    5.1930 H   0  0  0  0  0  0  0  0  0  0  0  0
   -0.9649    3.0958    4.8852 H   0  0  0  0  0  0  0  0  0  0  0  0
   -1.4927    3.5055    3.2495 H   0  0  0  0  0  0  0  0  0  0  0  0
   -1.7541    1.8687    3.8898 H   0  0  0  0  0  0  0  0  0  0  0  0
    4.4609   -1.0623   -4.2843 H   0  0  0  0  0  0  0  0  0  0  0  0
  1  3  1  0  0  0  0
  1  6  1  0  0  0  0
  1 10  1  0  0  0  0
  2  1  1  0  0  0  0
  4  1  1  0  0  0  0
  5  4  1  6  0  0  0
  5 34  1  0  0  0  0
  6 19  1  0  0  0  0
  7 17  1  0  0  0  0
  7  6  1  1  0  0  0
  8 24  1  0  0  0  0
  8  1  1  0  0  0  0
  9  8  1  6  0  0  0
 10 31  1  0  0  0  0
 10 27  1  0  0  0  0
 11 33  1  0  0  0  0
 11 32  1  0  0  0  0
 12 15  1  6  0  0  0
 12  5  1  0  0  0  0
 13 12  1  0  0  0  0
 13 14  2  0  0  0  0
 14 16  1  0  0  0  0
 14  4  1  0  0  0  0
 15 35  1  0  0  0  0
 16 39  1  0  0  0  0
 16 41  1  0  0  0  0
 17 20  1  6  0  0  0
 17 18  1  0  0  0  0
 18 19  2  0  0  0  0
 18 52  1  0  0  0  0
 19 21  1  0  0  0  0
 20 49  1  0  0  0  0
 21 55  1  0  0  0  0
 21 53  1  0  0  0  0
 22 25  1  6  0  0  0
 22  9  1  0  0  0  0
 22 23  1  0  0  0  0
 23 45  1  0  0  0  0
 23 24  2  0  0  0  0
 24 26  1  0  0  0  0
 25 42  1  0  0  0  0
 26 48  1  0  0  0  0
 27 28  1  0  0  0  0
 28 29  2  0  0  0  0
 28 57  1  0  0  0  0
 29 11  1  0  0  0  0
 30 58  1  0  0  0  0
 30 29  1  0  0  0  0
 31 30  2  0  0  0  0
 32 60  1  0  0  0  0
 32 62  1  0  0  0  0
 33 65  1  0  0  0  0
 33 63  1  0  0  0  0
 34 66  1  6  0  0  0
 34  9  1  0  0  0  0
 34  7  1  0  0  0  0
 36 15  1  0  0  0  0
 37 15  1  0  0  0  0
 38 13  1  0  0  0  0
 40 16  1  0  0  0  0
 43 25  1  0  0  0  0
 44 25  1  0  0  0  0
 46 26  1  0  0  0  0
 47 26  1  0  0  0  0
 50 20  1  0  0  0  0
 51 20  1  0  0  0  0
 54 21  1  0  0  0  0
 56 27  1  0  0  0  0
 59 31  1  0  0  0  0
 61 32  1  0  0  0  0
 64 33  1  0  0  0  0
M  END
$$$$
