CSD_code = QEYJEJ | q = 0 | S = 0 | Stoichiometry = C15H22BCl3HfN6 | MND = 6
 OpenBabel04212202083D

 48 52  0  0  1  0  0  0  0  0999 V2000
   -3.3341   -7.1736   -7.2600 Hf  0  0  0  0  0  0  0  0  0  0  0  0
   -2.1082   -8.8654   -8.3228 Cl  0  0  0  0  0  0  0  0  0  0  0  0
   -5.0241   -7.2034   -8.8845 Cl  0  0  0  0  0  0  0  0  0  0  0  0
   -2.1509   -5.4636   -8.3426 Cl  0  0  0  0  0  0  0  0  0  0  0  0
   -4.4376   -5.7215   -6.0828 N   0  0  0  0  0  0  0  0  0  0  0  0
   -4.5632   -5.9277   -4.7485 N   0  0  1  0  0  0  0  0  0  0  0  0
   -1.9346   -7.1467   -5.6006 N   0  0  0  0  0  0  0  0  0  0  0  0
   -2.4251   -7.1436   -4.3365 N   0  0  2  0  0  0  0  0  0  0  0  0
   -4.3991   -8.6395   -6.0649 N   0  0  0  0  0  0  0  0  0  0  0  0
   -4.5291   -8.4213   -4.7331 N   0  0  2  0  0  0  0  0  0  0  0  0
   -5.2751   -4.9258   -4.2007 C   0  0  1  0  0  3  0  0  0  0  0  0
   -5.6177   -4.0487   -5.2147 C   0  0  0  0  0  0  0  0  0  0  0  0
   -5.0733   -4.5830   -6.3834 C   0  0  0  0  0  0  0  0  0  0  0  0
   -5.6056   -4.8316   -2.7557 C   0  0  0  0  0  0  0  0  0  0  0  0
   -5.1463   -4.0398   -7.7612 C   0  0  0  0  0  0  0  0  0  0  0  0
   -1.4075   -7.1258   -3.4562 C   0  0  2  0  0  3  0  0  0  0  0  0
   -0.2265   -7.1173   -4.1772 C   0  0  0  0  0  0  0  0  0  0  0  0
   -0.5989   -7.1311   -5.5222 C   0  0  0  0  0  0  0  0  0  0  0  0
   -1.5827   -7.1184   -1.9811 C   0  0  0  0  0  0  0  0  0  0  0  0
    0.2790   -7.1317   -6.7171 C   0  0  0  0  0  0  0  0  0  0  0  0
   -5.2117   -9.4365   -4.1727 C   0  0  1  0  0  3  0  0  0  0  0  0
   -5.5304  -10.3348   -5.1760 C   0  0  0  0  0  0  0  0  0  0  0  0
   -5.0022   -9.7991   -6.3515 C   0  0  0  0  0  0  0  0  0  0  0  0
   -5.5341   -9.5252   -2.7254 C   0  0  0  0  0  0  0  0  0  0  0  0
   -5.0569  -10.3620   -7.7222 C   0  0  0  0  0  0  0  0  0  0  0  0
   -3.9405   -7.1621   -4.0744 B   0  0  2  0  0  0  0  0  0  0  0  0
   -2.1192   -8.0063   -1.6525 H   0  0  0  0  0  0  0  0  0  0  0  0
   -0.6079   -7.0996   -1.5025 H   0  0  0  0  0  0  0  0  0  0  0  0
   -2.1475   -6.2439   -1.6642 H   0  0  0  0  0  0  0  0  0  0  0  0
    0.7696   -7.1033   -3.7856 H   0  0  0  0  0  0  0  0  0  0  0  0
    0.0995   -8.0240   -7.3179 H   0  0  0  0  0  0  0  0  0  0  0  0
    1.3214   -7.1092   -6.4107 H   0  0  0  0  0  0  0  0  0  0  0  0
    0.0683   -6.2637   -7.3428 H   0  0  0  0  0  0  0  0  0  0  0  0
   -6.0936  -10.4368   -2.5358 H   0  0  0  0  0  0  0  0  0  0  0  0
   -4.6241   -9.5404   -2.1287 H   0  0  0  0  0  0  0  0  0  0  0  0
   -6.1324   -8.6727   -2.4103 H   0  0  0  0  0  0  0  0  0  0  0  0
   -6.0716  -11.2525   -5.0727 H   0  0  0  0  0  0  0  0  0  0  0  0
   -5.5991  -11.3037   -7.7144 H   0  0  0  0  0  0  0  0  0  0  0  0
   -5.5535   -9.6655   -8.3986 H   0  0  0  0  0  0  0  0  0  0  0  0
   -4.0486  -10.5300   -8.1024 H   0  0  0  0  0  0  0  0  0  0  0  0
   -6.1944   -5.6900   -2.4386 H   0  0  0  0  0  0  0  0  0  0  0  0
   -4.6996   -4.8005   -2.1539 H   0  0  0  0  0  0  0  0  0  0  0  0
   -6.1787   -3.9267   -2.5755 H   0  0  0  0  0  0  0  0  0  0  0  0
   -6.1840   -3.1449   -5.1229 H   0  0  0  0  0  0  0  0  0  0  0  0
   -5.6417   -4.7515   -8.4227 H   0  0  0  0  0  0  0  0  0  0  0  0
   -5.6996   -3.1045   -7.7615 H   0  0  0  0  0  0  0  0  0  0  0  0
   -4.1438   -3.8659   -8.1537 H   0  0  0  0  0  0  0  0  0  0  0  0
   -4.1610   -7.1581   -2.9191 H   0  0  0  0  0  0  0  0  0  0  0  0
  1  5  1  0  0  0  0
  1  9  1  0  0  0  0
  1  7  1  0  0  0  0
  2  1  1  0  0  0  0
  3  1  1  0  0  0  0
  4  1  1  0  0  0  0
  6  5  1  6  0  0  0
  6 11  1  0  0  0  0
  6 26  1  0  0  0  0
  7 18  1  0  0  0  0
  8  7  1  1  0  0  0
  8 26  1  0  0  0  0
  8 16  1  0  0  0  0
 10  9  1  6  0  0  0
 10 21  1  0  0  0  0
 10 26  1  0  0  0  0
 11 14  1  6  0  0  0
 12 44  1  0  0  0  0
 12 11  1  0  0  0  0
 13  5  1  0  0  0  0
 13 12  2  0  0  0  0
 14 43  1  0  0  0  0
 14 41  1  0  0  0  0
 14 42  1  0  0  0  0
 15 13  1  0  0  0  0
 16 19  1  1  0  0  0
 17 30  1  0  0  0  0
 17 16  1  0  0  0  0
 18 17  2  0  0  0  0
 19 29  1  0  0  0  0
 19 27  1  0  0  0  0
 19 28  1  0  0  0  0
 20 32  1  0  0  0  0
 20 18  1  0  0  0  0
 21 24  1  1  0  0  0
 22 37  1  0  0  0  0
 22 21  1  0  0  0  0
 23  9  1  0  0  0  0
 23 22  2  0  0  0  0
 24 34  1  0  0  0  0
 24 36  1  0  0  0  0
 24 35  1  0  0  0  0
 25 38  1  0  0  0  0
 25 23  1  0  0  0  0
 26 48  1  1  0  0  0
 31 20  1  0  0  0  0
 33 20  1  0  0  0  0
 39 25  1  0  0  0  0
 40 25  1  0  0  0  0
 45 15  1  0  0  0  0
 46 15  1  0  0  0  0
 47 15  1  0  0  0  0
M  END
$$$$
