CSD_code = QEZFOT | q = 0 | S = 0 | Stoichiometry = C26H26BrN3Pd | MND = 4
 OpenBabel04212202083D

 57 62  0  0  0  0  0  0  0  0999 V2000
    4.7856    7.4341    2.4811 Pd  0  0  2  0  0  0  0  0  0  0  0  0
    6.2576    6.2906    4.0698 Br  0  0  0  0  0  0  0  0  0  0  0  0
    4.5599    5.8333    1.1930 N   0  0  0  0  0  0  0  0  0  0  0  0
    4.1465    9.2766    4.6770 N   0  0  0  0  0  0  0  0  0  0  0  0
    4.6083   10.4154    5.3042 C   0  0  0  0  0  0  0  0  0  0  0  0
    5.9958   12.6731    6.0534 C   0  0  0  0  0  0  0  0  0  0  0  0
    6.5249   13.5602    6.3661 H   0  0  0  0  0  0  0  0  0  0  0  0
    4.9265    9.0056    3.6163 C   0  0  0  0  0  3  0  0  0  0  0  0
    3.2245    7.4685    0.1116 C   0  0  0  0  0  0  0  0  0  0  0  0
    4.8218    3.6387    0.2997 C   0  0  0  0  0  0  0  0  0  0  0  0
    5.2704    2.6641    0.4106 H   0  0  0  0  0  0  0  0  0  0  0  0
    4.8863   12.2509    6.7785 C   0  0  0  0  0  0  0  0  0  0  0  0
    4.5730   12.8173    7.6420 H   0  0  0  0  0  0  0  0  0  0  0  0
    2.3820    7.8435   -0.9569 C   0  0  0  0  0  0  0  0  0  0  0  0
    5.8897    9.9399    3.5377 N   0  0  0  0  0  0  0  0  0  0  0  0
    5.7342   10.8437    4.5683 C   0  0  0  0  0  0  0  0  0  0  0  0
    4.0088    3.9324   -0.7694 C   0  0  0  0  0  0  0  0  0  0  0  0
    3.7953    3.1947   -1.5298 H   0  0  0  0  0  0  0  0  0  0  0  0
    5.0731    4.6193    1.2618 C   0  0  0  0  0  0  0  0  0  0  0  0
    5.7127    4.3965    2.1083 H   0  0  0  0  0  0  0  0  0  0  0  0
    3.7576    6.1441    0.1489 C   0  0  0  0  0  0  0  0  0  0  0  0
    2.0877    6.8848   -1.9694 C   0  0  0  0  0  0  0  0  0  0  0  0
    1.4405    7.1870   -2.7811 H   0  0  0  0  0  0  0  0  0  0  0  0
    4.1778   11.1207    6.4182 C   0  0  0  0  0  0  0  0  0  0  0  0
    3.3228   10.8086    6.9950 H   0  0  0  0  0  0  0  0  0  0  0  0
    6.4363   11.9801    4.9421 C   0  0  0  0  0  0  0  0  0  0  0  0
    7.2998   12.3221    4.3956 H   0  0  0  0  0  0  0  0  0  0  0  0
    3.4502    5.2150   -0.8679 C   0  0  0  0  0  0  0  0  0  0  0  0
    2.5961    5.6290   -1.9298 C   0  0  0  0  0  0  0  0  0  0  0  0
    2.3654    4.9112   -2.7041 H   0  0  0  0  0  0  0  0  0  0  0  0
    6.9425    9.8708    2.5354 C   0  0  0  0  0  0  0  0  0  0  0  0
    6.6988    8.9726    1.9206 H   0  0  0  0  0  0  0  0  0  0  0  0
    3.3505    7.7637    6.4309 C   0  0  0  0  0  0  0  0  0  0  0  0
    4.3082    7.2478    6.3987 H   0  0  0  0  0  0  0  0  0  0  0  0
    2.5772    7.0398    6.6725 H   0  0  0  0  0  0  0  0  0  0  0  0
    3.3843    8.5136    7.2166 H   0  0  0  0  0  0  0  0  0  0  0  0
    3.0589    8.3941    5.0719 C   0  0  0  0  0  0  0  0  0  0  0  0
    3.0490    7.5853    4.3041 H   0  0  0  0  0  0  0  0  0  0  0  0
    3.5694    8.3554    1.1595 C   0  0  0  0  0  0  0  0  0  0  0  0
    3.0366    9.6316    1.0930 C   0  0  0  0  0  0  0  0  0  0  0  0
    3.2589   10.3647    1.8619 H   0  0  0  0  0  0  0  0  0  0  0  0
    1.7185    9.1215    5.0197 C   0  0  0  0  0  0  0  0  0  0  0  0
    1.6695    9.9164    5.7589 H   0  0  0  0  0  0  0  0  0  0  0  0
    0.9142    8.4179    5.2159 H   0  0  0  0  0  0  0  0  0  0  0  0
    1.5666    9.5515    4.0318 H   0  0  0  0  0  0  0  0  0  0  0  0
    8.2975    9.6451    3.2005 C   0  0  0  0  0  0  0  0  0  0  0  0
    8.5778   10.4888    3.8252 H   0  0  0  0  0  0  0  0  0  0  0  0
    9.0604    9.5055    2.4396 H   0  0  0  0  0  0  0  0  0  0  0  0
    8.2587    8.7501    3.8185 H   0  0  0  0  0  0  0  0  0  0  0  0
    1.8726    9.1495   -0.9701 C   0  0  0  0  0  0  0  0  0  0  0  0
    1.2254    9.4594   -1.7783 H   0  0  0  0  0  0  0  0  0  0  0  0
    2.1997   10.0203    0.0406 C   0  0  0  0  0  0  0  0  0  0  0  0
    1.8055   11.0278    0.0281 H   0  0  0  0  0  0  0  0  0  0  0  0
    6.9131   11.0962    1.6264 C   0  0  0  0  0  0  0  0  0  0  0  0
    5.9262   11.2055    1.1811 H   0  0  0  0  0  0  0  0  0  0  0  0
    7.6394   10.9748    0.8276 H   0  0  0  0  0  0  0  0  0  0  0  0
    7.1520   12.0029    2.1753 H   0  0  0  0  0  0  0  0  0  0  0  0
  1  8  1  0  0  0  0
  1  2  1  1  0  0  0
  3 19  1  0  0  0  0
  3  1  1  0  0  0  0
  4 37  1  0  0  0  0
  4  5  1  0  0  0  0
  5 24  1  0  0  0  0
  6  7  1  0  0  0  0
  6 12  1  0  0  0  0
  8  4  1  0  0  0  0
  9 21  2  0  0  0  0
  9 39  1  0  0  0  0
 10 11  1  0  0  0  0
 10 19  2  0  0  0  0
 12 13  1  0  0  0  0
 14  9  1  0  0  0  0
 15  8  1  0  0  0  0
 15 16  1  0  0  0  0
 16 26  1  0  0  0  0
 16  5  2  0  0  0  0
 17 10  1  0  0  0  0
 18 17  1  0  0  0  0
 19 20  1  0  0  0  0
 21  3  1  0  0  0  0
 22 29  2  0  0  0  0
 22 14  1  0  0  0  0
 23 22  1  0  0  0  0
 24 12  2  0  0  0  0
 24 25  1  0  0  0  0
 26  6  2  0  0  0  0
 27 26  1  0  0  0  0
 28 17  2  0  0  0  0
 28 21  1  0  0  0  0
 29 28  1  0  0  0  0
 30 29  1  0  0  0  0
 31 46  1  0  0  0  0
 31 15  1  0  0  0  0
 32 31  1  0  0  0  0
 33 35  1  0  0  0  0
 33 36  1  0  0  0  0
 34 33  1  0  0  0  0
 37 33  1  0  0  0  0
 38 37  1  0  0  0  0
 39  1  2  0  0  0  0
 40 39  1  0  0  0  0
 40 41  1  0  0  0  0
 42 37  1  0  0  0  0
 42 44  1  0  0  0  0
 42 43  1  0  0  0  0
 45 42  1  0  0  0  0
 46 49  1  0  0  0  0
 46 47  1  0  0  0  0
 48 46  1  0  0  0  0
 50 14  2  0  0  0  0
 50 52  1  0  0  0  0
 51 50  1  0  0  0  0
 52 40  2  0  0  0  0
 53 52  1  0  0  0  0
 54 57  1  0  0  0  0
 54 31  1  0  0  0  0
 55 54  1  0  0  0  0
 56 54  1  0  0  0  0
M  END
$$$$
