CSD_code = QEZPUI | q = 0 | S = 0 | Stoichiometry = C11H8Br3HgN3O | MND = 3
 OpenBabel04212202083D

 27 27  0  0  0  0  0  0  0  0999 V2000
   -1.5404    3.3298   11.5696 C   0  0  0  0  0  0  0  0  0  0  0  0
   -2.5946    3.3298   11.3325 H   0  0  0  0  0  0  0  0  0  0  0  0
   -0.5704    3.3298   10.5745 C   0  0  0  0  0  0  0  0  0  0  0  0
   -0.8363    3.3298    9.5265 H   0  0  0  0  0  0  0  0  0  0  0  0
    1.0534    3.3298   12.1681 C   0  0  0  0  0  0  0  0  0  0  0  0
    2.1013    3.3298   12.4395 H   0  0  0  0  0  0  0  0  0  0  0  0
    0.0714    3.3298   13.1585 C   0  0  0  0  0  0  0  0  0  0  0  0
    0.4647    3.3298   14.6117 C   0  0  0  0  0  0  0  0  0  0  0  0
   -0.6856    3.3298   16.8095 C   0  0  0  0  0  0  0  0  0  0  0  0
   -1.9507    3.3298   17.3958 C   0  0  0  0  0  0  0  0  0  0  0  0
   -2.8379    3.3298   16.7799 H   0  0  0  0  0  0  0  0  0  0  0  0
   -2.0587    3.3298   18.7726 C   0  0  0  0  0  0  0  0  0  0  0  0
   -0.9386    3.3298   19.5866 C   0  0  0  0  0  0  0  0  0  0  0  0
   -1.0438    3.3298   20.6599 H   0  0  0  0  0  0  0  0  0  0  0  0
    0.3119    3.3298   18.9923 C   0  0  0  0  0  0  0  0  0  0  0  0
    1.1937    3.3298   19.6140 H   0  0  0  0  0  0  0  0  0  0  0  0
    0.4501    3.3298   17.6162 C   0  0  0  0  0  0  0  0  0  0  0  0
    1.4266    3.3298   17.1623 H   0  0  0  0  0  0  0  0  0  0  0  0
   -1.2221    3.3298   12.8508 N   0  0  0  0  0  0  0  0  0  0  0  0
    0.7282    3.3298   10.8783 N   0  0  0  0  0  0  0  0  0  0  0  0
   -0.6246    3.3298   15.4175 N   0  0  0  0  0  0  0  0  0  0  0  0
   -1.5131    3.3298   14.9252 H   0  0  0  0  0  0  0  0  0  0  0  0
    1.6262    3.3298   14.9538 O   0  0  0  0  0  0  0  0  0  0  0  0
    2.5002    3.3298    9.0317 Hg  0  0  0  0  0  0  0  0  0  0  0  0
   -3.7942    3.3298   19.5598 Br  0  0  0  0  0  0  0  0  0  0  0  0
    4.4685    3.3298   10.4498 Br  0  0  0  0  0  0  0  0  0  0  0  0
    0.9163    3.3298    7.1773 Br  0  0  0  0  0  0  0  0  0  0  0  0
  1 19  1  0  0  0  0
  2  1  1  0  0  0  0
  3 20  1  0  0  0  0
  3  1  2  0  0  0  0
  4  3  1  0  0  0  0
  5  6  1  0  0  0  0
  5  7  1  0  0  0  0
  7  8  1  0  0  0  0
  8 23  2  0  0  0  0
  8 21  1  0  0  0  0
  9 10  2  0  0  0  0
  9 17  1  0  0  0  0
 10 12  1  0  0  0  0
 11 10  1  0  0  0  0
 12 25  1  0  0  0  0
 12 13  2  0  0  0  0
 13 14  1  0  0  0  0
 15 13  1  0  0  0  0
 15 16  1  0  0  0  0
 17 15  2  0  0  0  0
 18 17  1  0  0  0  0
 19  7  2  0  0  0  0
 20  5  2  0  0  0  0
 21  9  1  0  0  0  0
 22 21  1  0  0  0  0
 24 26  1  0  0  0  0
 27 24  1  0  0  0  0
M  END
$$$$
