CSD_code = QIBFOW | q = 0 | S = 0 | Stoichiometry = C6H13Cl3N2Zn | MND = 4
 OpenBabel04212202083D

 25 26  0  0  1  0  0  0  0  0999 V2000
   -2.2074  -11.3420   -1.8283 Zn  0  0  0  0  0  0  0  0  0  0  0  0
   -3.4788   -9.9635   -3.1158 Cl  0  0  0  0  0  0  0  0  0  0  0  0
   -0.3942  -12.3639   -2.7461 Cl  0  0  0  0  0  0  0  0  0  0  0  0
   -2.4018  -11.2433    0.4360 Cl  0  0  0  0  0  0  0  0  0  0  0  0
   -0.6321   -7.1302   -0.8552 C   0  0  0  0  0  0  0  0  0  0  0  0
   -1.0045   -6.3105   -1.4723 H   0  0  0  0  0  0  0  0  0  0  0  0
   -0.5590   -6.7845    0.1774 H   0  0  0  0  0  0  0  0  0  0  0  0
   -1.5245   -8.3822   -0.9743 C   0  0  0  0  0  0  0  0  0  0  0  0
   -1.8724   -8.7294   -0.0002 H   0  0  0  0  0  0  0  0  0  0  0  0
   -2.4025   -8.1937   -1.5948 H   0  0  0  0  0  0  0  0  0  0  0  0
    0.3445   -9.8374   -0.7412 C   0  0  0  0  0  0  0  0  0  0  0  0
    0.8684  -10.6602   -1.2301 H   0  0  0  0  0  0  0  0  0  0  0  0
   -0.0602  -10.2119    0.2008 H   0  0  0  0  0  0  0  0  0  0  0  0
   -0.3012   -9.0658   -2.8983 C   0  0  0  0  0  0  0  0  0  0  0  0
   -1.1735   -8.8091   -3.5016 H   0  0  0  0  0  0  0  0  0  0  0  0
    0.1780   -9.9331   -3.3561 H   0  0  0  0  0  0  0  0  0  0  0  0
    0.6759   -7.8804   -2.7638 C   0  0  0  0  0  0  0  0  0  0  0  0
    1.6837   -8.1515   -3.0833 H   0  0  0  0  0  0  0  0  0  0  0  0
    0.3453   -7.0180   -3.3455 H   0  0  0  0  0  0  0  0  0  0  0  0
   -0.7723   -9.4605   -1.5853 N   0  0  1  0  0  4  0  0  0  0  0  0
    1.2630   -8.6183   -0.5217 C   0  0  0  0  0  0  0  0  0  0  0  0
    1.2804   -8.3110    0.5255 H   0  0  0  0  0  0  0  0  0  0  0  0
    2.2860   -8.8218   -0.8430 H   0  0  0  0  0  0  0  0  0  0  0  0
    0.7260   -7.4953   -1.3309 N   0  0  2  0  0  4  0  0  0  0  0  0
    1.3426   -6.6866   -1.2261 H   0  0  0  0  0  0  0  0  0  0  0  0
  1  4  1  0  0  0  0
  2  1  1  0  0  0  0
  3  1  1  0  0  0  0
  5  7  1  0  0  0  0
  6  5  1  0  0  0  0
  8  5  1  0  0  0  0
  8  9  1  0  0  0  0
 10  8  1  0  0  0  0
 11 21  1  0  0  0  0
 11 13  1  0  0  0  0
 12 11  1  0  0  0  0
 14 17  1  0  0  0  0
 14 20  1  0  0  0  0
 15 14  1  0  0  0  0
 16 14  1  0  0  0  0
 17 24  1  0  0  0  0
 18 17  1  0  0  0  0
 19 17  1  0  0  0  0
 20  1  1  6  0  0  0
 20  8  1  0  0  0  0
 20 11  1  0  0  0  0
 21 22  1  0  0  0  0
 23 21  1  0  0  0  0
 24 25  1  1  0  0  0
 24  5  1  0  0  0  0
 24 21  1  0  0  0  0
M  END
$$$$
