CSD_code = QIBFEO | q = 0 | S = 0 | Stoichiometry = C19H26BrTa | MND = 13
 OpenBabel04212202083D

 47 47  0  0  0  0  0  0  0  0999 V2000
    4.5803    3.8729    4.8230 Ta  0  0  0  0  0  0  0  0  0  0  0  0
    6.9827    3.6360    3.7372 Br  0  0  0  0  0  0  0  0  0  0  0  0
    4.7165    0.9718    3.8802 C   0  0  0  0  0  0  0  0  0  0  0  0
    4.5067    0.8038    5.2560 C   0  0  0  0  0  3  0  0  0  0  0  0
    3.1565    1.1111    5.5302 C   0  0  0  0  0  0  0  0  0  0  0  0
    2.5475    1.4832    4.3322 C   0  0  0  0  0  0  0  0  0  0  0  0
    3.5067    1.4014    3.2910 C   0  0  0  0  0  0  0  0  0  0  0  0
    3.2584    1.6945    1.8233 C   0  0  0  0  0  0  0  0  0  0  0  0
    1.9291    1.0727    1.3667 C   0  0  0  0  0  0  0  0  0  0  0  0
    4.3618    1.0796    0.9545 C   0  0  0  0  0  0  0  0  0  0  0  0
    3.2270    3.2195    1.7109 C   0  0  0  0  0  0  0  0  0  0  0  0
    2.0920    3.9368    2.0955 C   0  0  0  0  0  0  0  0  0  0  0  0
    2.0784    5.3237    2.1173 C   0  0  0  0  0  0  0  0  0  0  0  0
    3.2305    6.0183    1.7616 C   0  0  0  0  0  0  0  0  0  0  0  0
    4.3644    5.3386    1.3449 C   0  0  0  0  0  0  0  0  0  0  0  0
    4.3479    3.9449    1.3176 C   0  0  0  0  0  0  0  0  0  0  0  0
    0.8398    6.0795    2.4985 C   0  0  0  0  0  0  0  0  0  0  0  0
    5.5986    6.0706    0.9116 C   0  0  0  0  0  0  0  0  0  0  0  0
    2.9575    5.0665    5.8564 C   0  0  0  0  0  0  0  0  0  0  0  0
    1.5633    4.4355    5.8831 C   0  0  0  0  0  0  0  0  0  0  0  0
    0.5470    5.3459    6.5699 C   0  0  0  0  0  0  0  0  0  0  0  0
    5.6265    0.7180    3.3649 H   0  0  0  0  0  0  0  0  0  0  0  0
    5.2213    0.4046    5.9588 H   0  0  0  0  0  0  0  0  0  0  0  0
    2.6681    1.0067    6.4855 H   0  0  0  0  0  0  0  0  0  0  0  0
    1.5033    1.7182    4.2204 H   0  0  0  0  0  0  0  0  0  0  0  0
    2.0066   -0.0116    1.4008 H   0  0  0  0  0  0  0  0  0  0  0  0
    1.7101    1.3751    0.3445 H   0  0  0  0  0  0  0  0  0  0  0  0
    1.0958    1.3607    1.9982 H   0  0  0  0  0  0  0  0  0  0  0  0
    5.3523    1.4035    1.2570 H   0  0  0  0  0  0  0  0  0  0  0  0
    4.2087    1.3499   -0.0884 H   0  0  0  0  0  0  0  0  0  0  0  0
    4.3260   -0.0042    1.0397 H   0  0  0  0  0  0  0  0  0  0  0  0
    1.1884    3.4137    2.3676 H   0  0  0  0  0  0  0  0  0  0  0  0
    3.2264    7.0997    1.7804 H   0  0  0  0  0  0  0  0  0  0  0  0
    5.2375    3.4444    0.9699 H   0  0  0  0  0  0  0  0  0  0  0  0
    0.4637    6.6369    1.6409 H   0  0  0  0  0  0  0  0  0  0  0  0
    1.0555    6.7965    3.2892 H   0  0  0  0  0  0  0  0  0  0  0  0
    0.0562    5.4078    2.8402 H   0  0  0  0  0  0  0  0  0  0  0  0
    5.7642    5.9250   -0.1556 H   0  0  0  0  0  0  0  0  0  0  0  0
    6.4729    5.6874    1.4365 H   0  0  0  0  0  0  0  0  0  0  0  0
    5.5094    7.1370    1.1044 H   0  0  0  0  0  0  0  0  0  0  0  0
    3.2388    5.2762    6.8969 H   0  0  0  0  0  0  0  0  0  0  0  0
    2.8585    6.0542    5.3861 H   0  0  0  0  0  0  0  0  0  0  0  0
    1.6011    3.4808    6.4125 H   0  0  0  0  0  0  0  0  0  0  0  0
    1.2314    4.2397    4.8617 H   0  0  0  0  0  0  0  0  0  0  0  0
    0.8454    5.5461    7.5971 H   0  0  0  0  0  0  0  0  0  0  0  0
   -0.4359    4.8798    6.5836 H   0  0  0  0  0  0  0  0  0  0  0  0
    0.4684    6.2967    6.0462 H   0  0  0  0  0  0  0  0  0  0  0  0
  1 19  1  0  0  0  0
  2  1  1  0  0  0  0
  3  4  1  0  0  0  0
  4  5  1  0  0  0  0
  4 23  1  0  0  0  0
  5 24  1  0  0  0  0
  6  5  2  0  0  0  0
  7  3  2  0  0  0  0
  7  6  1  0  0  0  0
  8  7  1  0  0  0  0
  9 26  1  0  0  0  0
  9  8  1  0  0  0  0
  9 28  1  0  0  0  0
 10 31  1  0  0  0  0
 10 29  1  0  0  0  0
 10  8  1  0  0  0  0
 11  8  1  0  0  0  0
 11 12  1  0  0  0  0
 12 13  2  0  0  0  0
 12 32  1  0  0  0  0
 13 17  1  0  0  0  0
 14 33  1  0  0  0  0
 14 13  1  0  0  0  0
 15 14  2  0  0  0  0
 16 15  1  0  0  0  0
 16 11  2  0  0  0  0
 17 37  1  0  0  0  0
 17 36  1  0  0  0  0
 18 40  1  0  0  0  0
 18 15  1  0  0  0  0
 18 39  1  0  0  0  0
 19 20  1  0  0  0  0
 19 41  1  0  0  0  0
 20 43  1  0  0  0  0
 20 21  1  0  0  0  0
 21 46  1  0  0  0  0
 21 45  1  0  0  0  0
 22  3  1  0  0  0  0
 25  6  1  0  0  0  0
 27  9  1  0  0  0  0
 30 10  1  0  0  0  0
 34 16  1  0  0  0  0
 35 17  1  0  0  0  0
 38 18  1  0  0  0  0
 42 19  1  0  0  0  0
 44 20  1  0  0  0  0
 47 21  1  0  0  0  0
M  END
$$$$
