CSD_code = QIBLUJ | q = 0 | S = 0 | Stoichiometry = C26H26Cl2NO3PPd | MND = 4
 OpenBabel04212202083D

 60 65  0  0  1  0  0  0  0  0999 V2000
    7.5564    8.5827    3.1222 Pd  0  0  0  0  0  0  0  0  0  0  0  0
    8.3105    7.7963    5.1311 P   0  0  0  0  0  4  0  0  0  0  0  0
    6.0182    9.7840    4.1900 Cl  0  0  0  0  0  0  0  0  0  0  0  0
    6.6288    9.1238    1.1291 Cl  0  0  0  0  0  0  0  0  0  0  0  0
    8.9488    7.4602    2.0672 N   0  0  1  0  0  0  0  0  0  0  0  0
    8.4302    6.4142    1.2008 C   0  0  0  0  0  0  0  0  0  0  0  0
    9.7054    5.8147    0.5749 C   0  0  0  0  0  0  0  0  0  0  0  0
   10.7664    6.5917    1.1388 O   0  0  0  0  0  0  0  0  0  0  0  0
   10.2135    7.5084    1.9386 C   0  0  1  0  0  3  0  0  0  0  0  0
   11.1721    8.5069    2.5216 C   0  0  1  0  0  0  0  0  0  0  0  0
   11.4618    9.4756    1.5383 O   0  0  0  0  0  0  0  0  0  0  0  0
   11.2425   10.7783    2.1009 C   0  0  0  0  0  0  0  0  0  0  0  0
   11.3142   10.5803    3.4967 O   0  0  0  0  0  0  0  0  0  0  0  0
   10.6708    9.3488    3.7270 C   0  0  2  0  0  0  0  0  0  0  0  0
    9.8795   11.3269    1.6612 C   0  0  0  0  0  0  0  0  0  0  0  0
   12.3784   11.6979    1.6693 C   0  0  0  0  0  0  0  0  0  0  0  0
   10.9841    8.7581    5.0661 C   0  0  0  0  0  0  0  0  0  0  0  0
   12.2435    8.9353    5.6250 C   0  0  0  0  0  0  0  0  0  0  0  0
   12.5430    8.4068    6.8669 C   0  0  0  0  0  0  0  0  0  0  0  0
   11.5815    7.6928    7.5652 C   0  0  0  0  0  0  0  0  0  0  0  0
   10.3247    7.5149    7.0196 C   0  0  0  0  0  0  0  0  0  0  0  0
   10.0118    8.0374    5.7653 C   0  0  0  0  0  0  0  0  0  0  0  0
    7.3439    8.0595    6.6469 C   0  0  0  0  0  0  0  0  0  0  0  0
    7.3380    9.3581    7.1515 C   0  0  0  0  0  0  0  0  0  0  0  0
    6.5982    9.6568    8.2782 C   0  0  0  0  0  0  0  0  0  0  0  0
    5.8585    8.6645    8.9036 C   0  0  0  0  0  0  0  0  0  0  0  0
    5.8610    7.3745    8.4012 C   0  0  0  0  0  0  0  0  0  0  0  0
    6.5991    7.0667    7.2712 C   0  0  0  0  0  0  0  0  0  0  0  0
    8.1738    6.0044    4.8354 C   0  0  0  0  0  0  0  0  0  0  0  0
    9.1604    5.0610    5.0878 C   0  0  0  0  0  0  0  0  0  0  0  0
    8.9433    3.7333    4.7539 C   0  0  0  0  0  0  0  0  0  0  0  0
    7.7473    3.3434    4.1754 C   0  0  0  0  0  0  0  0  0  0  0  0
    6.7609    4.2842    3.9123 C   0  0  0  0  0  0  0  0  0  0  0  0
    6.9765    5.6132    4.2272 C   0  0  0  0  0  0  0  0  0  0  0  0
    7.8591    5.6911    1.7911 H   0  0  0  0  0  0  0  0  0  0  0  0
    7.7624    6.8830    0.4694 H   0  0  0  0  0  0  0  0  0  0  0  0
    9.7411    5.9213   -0.5114 H   0  0  0  0  0  0  0  0  0  0  0  0
    9.8669    4.7681    0.8460 H   0  0  0  0  0  0  0  0  0  0  0  0
   12.1013    7.9728    2.7796 H   0  0  0  0  0  0  0  0  0  0  0  0
    9.5732    9.5026    3.6436 H   0  0  0  0  0  0  0  0  0  0  0  0
    9.0591   10.6287    1.8794 H   0  0  0  0  0  0  0  0  0  0  0  0
    9.6879   12.2636    2.1780 H   0  0  0  0  0  0  0  0  0  0  0  0
    9.8918   11.4979    0.5893 H   0  0  0  0  0  0  0  0  0  0  0  0
   13.3217   11.3072    2.0405 H   0  0  0  0  0  0  0  0  0  0  0  0
   12.4107   11.7409    0.5857 H   0  0  0  0  0  0  0  0  0  0  0  0
   12.2156   12.6908    2.0757 H   0  0  0  0  0  0  0  0  0  0  0  0
   12.9732    9.5134    5.0794 H   0  0  0  0  0  0  0  0  0  0  0  0
   13.5226    8.5574    7.2944 H   0  0  0  0  0  0  0  0  0  0  0  0
   11.8084    7.2837    8.5384 H   0  0  0  0  0  0  0  0  0  0  0  0
    9.5653    6.9763    7.5701 H   0  0  0  0  0  0  0  0  0  0  0  0
    7.9035   10.1260    6.6393 H   0  0  0  0  0  0  0  0  0  0  0  0
    6.5869   10.6648    8.6645 H   0  0  0  0  0  0  0  0  0  0  0  0
    5.2727    8.8994    9.7798 H   0  0  0  0  0  0  0  0  0  0  0  0
    5.2809    6.6031    8.8865 H   0  0  0  0  0  0  0  0  0  0  0  0
    6.5926    6.0591    6.8786 H   0  0  0  0  0  0  0  0  0  0  0  0
   10.0960    5.3618    5.5376 H   0  0  0  0  0  0  0  0  0  0  0  0
    9.7130    3.0010    4.9487 H   0  0  0  0  0  0  0  0  0  0  0  0
    7.5834    2.3065    3.9227 H   0  0  0  0  0  0  0  0  0  0  0  0
    5.8321    3.9802    3.4526 H   0  0  0  0  0  0  0  0  0  0  0  0
    6.2169    6.3716    4.0046 H   0  0  0  0  0  0  0  0  0  0  0  0
  1  3  1  0  0  0  0
  1  2  1  0  0  0  0
  2 22  1  0  0  0  0
  2 23  1  0  0  0  0
  4  1  1  0  0  0  0
  5  6  1  6  0  0  0
  5  1  1  0  0  0  0
  6 35  1  0  0  0  0
  7 38  1  0  0  0  0
  7  8  1  0  0  0  0
  7  6  1  0  0  0  0
  9  8  1  6  0  0  0
  9  5  1  0  0  0  0
  9 10  1  0  0  0  0
 10 39  1  1  0  0  0
 10 14  1  0  0  0  0
 11 12  1  0  0  0  0
 11 10  1  0  0  0  0
 12 13  1  0  0  0  0
 13 14  1  0  0  0  0
 14 40  1  6  0  0  0
 14 17  1  0  0  0  0
 15 41  1  0  0  0  0
 15 12  1  0  0  0  0
 15 42  1  0  0  0  0
 16 44  1  0  0  0  0
 16 46  1  0  0  0  0
 16 12  1  0  0  0  0
 17 18  2  0  0  0  0
 17 22  1  0  0  0  0
 18 19  1  0  0  0  0
 19 48  1  0  0  0  0
 19 20  2  0  0  0  0
 20 49  1  0  0  0  0
 21 20  1  0  0  0  0
 21 50  1  0  0  0  0
 22 21  2  0  0  0  0
 23 24  2  0  0  0  0
 23 28  1  0  0  0  0
 24 25  1  0  0  0  0
 25 52  1  0  0  0  0
 25 26  2  0  0  0  0
 26 53  1  0  0  0  0
 27 54  1  0  0  0  0
 27 26  1  0  0  0  0
 28 27  2  0  0  0  0
 29 30  1  0  0  0  0
 29  2  1  0  0  0  0
 30 56  1  0  0  0  0
 31 57  1  0  0  0  0
 31 30  2  0  0  0  0
 32 31  1  0  0  0  0
 33 32  2  0  0  0  0
 33 34  1  0  0  0  0
 34 29  2  0  0  0  0
 36  6  1  0  0  0  0
 37  7  1  0  0  0  0
 43 15  1  0  0  0  0
 45 16  1  0  0  0  0
 47 18  1  0  0  0  0
 51 24  1  0  0  0  0
 55 28  1  0  0  0  0
 58 32  1  0  0  0  0
 59 33  1  0  0  0  0
 60 34  1  0  0  0  0
M  END
$$$$
