CSD_code = QICDEN | q = 0 | S = 0 | Stoichiometry = C20H27BrN2O3Pd | MND = 4
 OpenBabel04212202083D

 54 56  0  0  1  0  0  0  0  0999 V2000
   -0.6249    4.8067   11.3377 Pd  0  0  2  0  0  0  0  0  0  0  0  0
   -1.8615    3.6608   10.1013 N   0  0  0  0  0  4  0  0  0  0  0  0
   -1.9827    4.1684    9.2068 H   0  0  0  0  0  0  0  0  0  0  0  0
   -1.2749    2.8416    9.9025 H   0  0  0  0  0  0  0  0  0  0  0  0
    0.7208    5.6555   12.4903 N   0  0  0  0  0  0  0  0  0  0  0  0
   -0.3427    2.7844   12.7047 Br  0  0  0  0  0  0  0  0  0  0  0  0
   -0.9231    6.6224   10.2979 C   0  0  2  0  0  0  0  0  0  0  0  0
   -0.2844    7.3988   10.7261 H   0  0  0  0  0  0  0  0  0  0  0  0
   -2.4093    6.9697   10.3554 C   0  0  0  0  0  0  0  0  0  0  0  0
   -2.5438    8.0471   10.2215 H   0  0  0  0  0  0  0  0  0  0  0  0
   -2.9197    6.4599    9.5376 H   0  0  0  0  0  0  0  0  0  0  0  0
   -2.9210    6.5487   11.7131 C   0  0  0  0  0  0  0  0  0  0  0  0
   -3.5185    5.3107   11.9698 C   0  0  0  0  0  0  0  0  0  0  0  0
   -3.7147    4.9203   13.2981 C   0  0  0  0  0  0  0  0  0  0  0  0
   -4.1468    3.9489   13.4827 H   0  0  0  0  0  0  0  0  0  0  0  0
   -3.3941    5.7400   14.3650 C   0  0  0  0  0  0  0  0  0  0  0  0
   -2.9304    7.0462   14.0978 C   0  0  0  0  0  0  0  0  0  0  0  0
   -2.6855    7.4140   12.7865 C   0  0  0  0  0  0  0  0  0  0  0  0
   -2.2827    8.3918   12.5675 H   0  0  0  0  0  0  0  0  0  0  0  0
   -3.7760    4.0527   15.9844 C   0  0  0  0  0  0  0  0  0  0  0  0
   -4.7896    3.7603   15.6898 H   0  0  0  0  0  0  0  0  0  0  0  0
   -3.6831    3.9746   17.0664 H   0  0  0  0  0  0  0  0  0  0  0  0
   -3.0496    3.3873   15.5074 H   0  0  0  0  0  0  0  0  0  0  0  0
   -3.5146    5.4015   15.6769 O   0  0  0  0  0  0  0  0  0  0  0  0
   -2.3432    9.1775   14.9746 C   0  0  0  0  0  0  0  0  0  0  0  0
   -1.3539    9.2522   14.5073 H   0  0  0  0  0  0  0  0  0  0  0  0
   -2.3064    9.6346   15.9623 H   0  0  0  0  0  0  0  0  0  0  0  0
   -3.0742    9.7102   14.3572 H   0  0  0  0  0  0  0  0  0  0  0  0
   -2.7204    7.8424   15.1891 O   0  0  0  0  0  0  0  0  0  0  0  0
   -4.0624    4.4031   10.8914 C   0  0  0  0  0  0  0  0  0  0  0  0
   -4.2151    4.9581    9.9648 H   0  0  0  0  0  0  0  0  0  0  0  0
   -5.0332    4.0236   11.2174 H   0  0  0  0  0  0  0  0  0  0  0  0
   -3.1529    3.2048   10.6099 C   0  0  0  0  0  0  0  0  0  0  0  0
   -2.9892    2.6393   11.5340 H   0  0  0  0  0  0  0  0  0  0  0  0
   -3.6429    2.5425    9.8818 H   0  0  0  0  0  0  0  0  0  0  0  0
   -0.4065    5.9731    9.1321 C   0  0  0  0  0  0  0  0  0  0  0  0
   -1.1123    5.4203    8.2661 O   0  0  0  0  0  0  0  0  0  0  0  0
    1.1114    5.9833    8.9351 C   0  0  0  0  0  0  0  0  0  0  0  0
    1.4922    4.9576    8.9549 H   0  0  0  0  0  0  0  0  0  0  0  0
    1.6224    6.5902    9.6811 H   0  0  0  0  0  0  0  0  0  0  0  0
    1.3212    6.3817    7.9436 H   0  0  0  0  0  0  0  0  0  0  0  0
    1.9792    5.2683   12.2686 C   0  0  0  0  0  3  0  0  0  0  0  0
    2.1659    4.6982   11.3594 H   0  0  0  0  0  0  0  0  0  0  0  0
    3.0043    5.5411   13.1500 C   0  0  0  0  0  0  0  0  0  0  0  0
    4.0052    5.2043   12.9288 H   0  0  0  0  0  0  0  0  0  0  0  0
    2.7368    6.2314   14.3316 C   0  0  0  0  0  0  0  0  0  0  0  0
    1.4175    6.6086   14.5543 C   0  0  0  0  0  0  0  0  0  0  0  0
    1.1369    7.1269   15.4580 H   0  0  0  0  0  0  0  0  0  0  0  0
    0.4462    6.3025   13.6183 C   0  0  0  0  0  0  0  0  0  0  0  0
   -0.5914    6.5689   13.7810 H   0  0  0  0  0  0  0  0  0  0  0  0
    3.8195    6.5172   15.3173 C   0  0  0  0  0  0  0  0  0  0  0  0
    4.7054    6.8999   14.8142 H   0  0  0  0  0  0  0  0  0  0  0  0
    4.1002    5.5963   15.8282 H   0  0  0  0  0  0  0  0  0  0  0  0
    3.4909    7.2370   16.0620 H   0  0  0  0  0  0  0  0  0  0  0  0
  1  5  1  0  0  0  0
  1  6  1  1  0  0  0
  2 33  1  0  0  0  0
  2  1  1  0  0  0  0
  3  2  1  0  0  0  0
  4  2  1  0  0  0  0
  5 49  1  0  0  0  0
  7  9  1  0  0  0  0
  7  8  1  1  0  0  0
  7  1  1  0  0  0  0
  9 12  1  0  0  0  0
 10  9  1  0  0  0  0
 11  9  1  0  0  0  0
 12 13  2  0  0  0  0
 12 18  1  0  0  0  0
 13 14  1  0  0  0  0
 14 15  1  0  0  0  0
 14 16  2  0  0  0  0
 16 24  1  0  0  0  0
 17 16  1  0  0  0  0
 17 29  1  0  0  0  0
 18 17  2  0  0  0  0
 19 18  1  0  0  0  0
 20 22  1  0  0  0  0
 21 20  1  0  0  0  0
 23 20  1  0  0  0  0
 24 20  1  0  0  0  0
 25 29  1  0  0  0  0
 25 27  1  0  0  0  0
 26 25  1  0  0  0  0
 28 25  1  0  0  0  0
 30 32  1  0  0  0  0
 30 13  1  0  0  0  0
 31 30  1  0  0  0  0
 33 30  1  0  0  0  0
 33 34  1  0  0  0  0
 35 33  1  0  0  0  0
 36  7  1  0  0  0  0
 37 36  2  0  0  0  0
 38 39  1  0  0  0  0
 38 36  1  0  0  0  0
 38 40  1  0  0  0  0
 41 38  1  0  0  0  0
 42  5  1  0  0  0  0
 42 44  1  0  0  0  0
 43 42  1  0  0  0  0
 44 46  2  0  0  0  0
 45 44  1  0  0  0  0
 46 47  1  0  0  0  0
 46 51  1  0  0  0  0
 47 48  1  0  0  0  0
 49 50  1  0  0  0  0
 49 47  2  0  0  0  0
 51 53  1  0  0  0  0
 51 54  1  0  0  0  0
 52 51  1  0  0  0  0
M  END
$$$$
