CSD_code = QICSUR | q = 0 | S = 0 | Stoichiometry = C24H20ClN2O4Re | MND = 6
 OpenBabel04212202083D

 52 56  0  0  0  0  0  0  0  0999 V2000
    9.0522    8.4425    7.3605 Re  0  0  0  0  0  0  0  0  0  0  0  0
    9.1809    9.3281    9.4845 Cl  0  0  0  0  0  0  0  0  0  0  0  0
    6.8969    8.3475    7.4651 N   0  0  0  0  0  0  0  0  0  0  0  0
    8.9319    5.8443    5.8276 C   0  0  0  0  0  0  0  0  0  0  0  0
    8.9948    9.8755    6.5203 O   0  0  0  0  0  1  0  0  0  0  0  0
    8.9525    7.0710    5.5517 O   0  0  0  0  0  0  0  0  0  0  0  0
   11.2177    8.3591    7.1601 N   0  0  0  0  0  0  0  0  0  0  0  0
    8.8548    5.5601    7.4169 C   0  0  0  0  0  0  0  0  0  0  0  0
    9.0762    6.7799    7.9902 O   0  0  0  0  0  0  0  0  0  0  0  0
    9.8936    4.5211    7.7509 C   0  0  0  0  0  0  0  0  0  0  0  0
    8.9552    4.8970    5.0744 O   0  0  0  0  0  0  0  0  0  0  0  0
   11.0570    4.8747    8.4207 C   0  0  0  0  0  0  0  0  0  0  0  0
   11.1917    5.8955    8.7524 H   0  0  0  0  0  0  0  0  0  0  0  0
   12.0292    3.9258    8.6788 C   0  0  0  0  0  0  0  0  0  0  0  0
   12.9291    4.2111    9.2051 H   0  0  0  0  0  0  0  0  0  0  0  0
   11.8483    2.6182    8.2636 C   0  0  0  0  0  0  0  0  0  0  0  0
   12.6092    1.8775    8.4613 H   0  0  0  0  0  0  0  0  0  0  0  0
   10.6876    2.2626    7.5958 C   0  0  0  0  0  0  0  0  0  0  0  0
   10.5433    1.2427    7.2713 H   0  0  0  0  0  0  0  0  0  0  0  0
    9.7095    3.2056    7.3414 C   0  0  0  0  0  0  0  0  0  0  0  0
    8.8089    2.9337    6.8140 H   0  0  0  0  0  0  0  0  0  0  0  0
    7.4560    5.0867    7.7936 C   0  0  0  0  0  0  0  0  0  0  0  0
    6.4166    4.9932    6.8794 C   0  0  0  0  0  0  0  0  0  0  0  0
    6.5909    5.1933    5.8337 H   0  0  0  0  0  0  0  0  0  0  0  0
    5.1518    4.6224    7.3052 C   0  0  0  0  0  0  0  0  0  0  0  0
    4.3507    4.5435    6.5847 H   0  0  0  0  0  0  0  0  0  0  0  0
    4.9131    4.3531    8.6412 C   0  0  0  0  0  0  0  0  0  0  0  0
    3.9247    4.0646    8.9677 H   0  0  0  0  0  0  0  0  0  0  0  0
    5.9475    4.4500    9.5572 C   0  0  0  0  0  0  0  0  0  0  0  0
    5.7703    4.2375   10.6013 H   0  0  0  0  0  0  0  0  0  0  0  0
    7.2123    4.8150    9.1359 C   0  0  0  0  0  0  0  0  0  0  0  0
    8.0228    4.8941    9.8467 H   0  0  0  0  0  0  0  0  0  0  0  0
    6.2692    7.9858    8.5815 C   0  0  0  0  0  3  0  0  0  0  0  0
    6.8759    7.8970    9.4729 H   0  0  0  0  0  0  0  0  0  0  0  0
    4.9060    7.7540    8.6198 C   0  0  0  0  0  0  0  0  0  0  0  0
    4.4389    7.4630    9.5465 H   0  0  0  0  0  0  0  0  0  0  0  0
    4.1690    7.8980    7.4557 C   0  0  0  0  0  0  0  0  0  0  0  0
    3.1054    7.7146    7.4499 H   0  0  0  0  0  0  0  0  0  0  0  0
    4.8280    8.2876    6.2994 C   0  0  0  0  0  0  0  0  0  0  0  0
    4.2961    8.4191    5.3710 H   0  0  0  0  0  0  0  0  0  0  0  0
    6.1928    8.5045    6.3462 C   0  0  0  0  0  0  0  0  0  0  0  0
    6.7547    8.8044    5.4723 H   0  0  0  0  0  0  0  0  0  0  0  0
   11.7277    8.2561    5.9352 C   0  0  0  0  0  3  0  0  0  0  0  0
   11.0233    8.3264    5.1179 H   0  0  0  0  0  0  0  0  0  0  0  0
   13.0784    8.0516    5.7156 C   0  0  0  0  0  0  0  0  0  0  0  0
   13.4496    7.9651    4.7073 H   0  0  0  0  0  0  0  0  0  0  0  0
   13.9300    7.9551    6.8053 C   0  0  0  0  0  0  0  0  0  0  0  0
   14.9874    7.7879    6.6663 H   0  0  0  0  0  0  0  0  0  0  0  0
   13.3937    8.0830    8.0766 C   0  0  0  0  0  0  0  0  0  0  0  0
   14.0162    8.0265    8.9553 H   0  0  0  0  0  0  0  0  0  0  0  0
   12.0308    8.2833    8.2113 C   0  0  0  0  0  0  0  0  0  0  0  0
   11.5737    8.4101    9.1851 H   0  0  0  0  0  0  0  0  0  0  0  0
  1  3  1  0  0  0  0
  1  9  1  0  0  0  0
  1  2  1  0  0  0  0
  3 33  1  0  0  0  0
  4  8  1  0  0  0  0
  5  1  1  0  0  0  0
  6  4  1  0  0  0  0
  6  1  1  0  0  0  0
  7  1  1  0  0  0  0
  7 51  1  0  0  0  0
  8 10  1  0  0  0  0
  8 22  1  0  0  0  0
  8  9  1  0  0  0  0
 10 12  1  0  0  0  0
 11  4  2  0  0  0  0
 12 14  2  0  0  0  0
 12 13  1  0  0  0  0
 14 15  1  0  0  0  0
 16 17  1  0  0  0  0
 16 14  1  0  0  0  0
 18 16  2  0  0  0  0
 19 18  1  0  0  0  0
 20 18  1  0  0  0  0
 20 10  2  0  0  0  0
 21 20  1  0  0  0  0
 22 31  1  0  0  0  0
 23 25  1  0  0  0  0
 23 22  2  0  0  0  0
 24 23  1  0  0  0  0
 25 27  2  0  0  0  0
 26 25  1  0  0  0  0
 27 28  1  0  0  0  0
 27 29  1  0  0  0  0
 29 30  1  0  0  0  0
 31 29  2  0  0  0  0
 31 32  1  0  0  0  0
 33 35  1  0  0  0  0
 33 34  1  0  0  0  0
 35 36  1  0  0  0  0
 37 35  2  0  0  0  0
 38 37  1  0  0  0  0
 39 41  2  0  0  0  0
 39 37  1  0  0  0  0
 40 39  1  0  0  0  0
 41  3  1  0  0  0  0
 42 41  1  0  0  0  0
 43  7  1  0  0  0  0
 44 43  1  0  0  0  0
 45 43  1  0  0  0  0
 45 47  2  0  0  0  0
 46 45  1  0  0  0  0
 47 49  1  0  0  0  0
 48 47  1  0  0  0  0
 49 51  2  0  0  0  0
 49 50  1  0  0  0  0
 51 52  1  0  0  0  0
M  END
$$$$
