CSD_code = QICZEK | q = 0 | S = 0 | Stoichiometry = C22H31Cl2N2ORhS | MND = 8
 OpenBabel04212202083D

 60 59  0  0  1  0  0  0  0  0999 V2000
    1.9278   23.7044   11.4725 Rh  0  0  0  0  0  0  0  0  0  0  0  0
    2.7646   21.4474   11.2896 S   0  0  0  0  0  0  0  0  0  0  0  0
    3.5523   24.0199   13.0697 Cl  0  0  0  0  0 15  0  0  0  0  0  0
    3.4555   24.4673    9.8526 Cl  0  0  0  0  0 15  0  0  0  0  0  0
    2.9646   19.6499    9.3885 N   0  0  0  0  0  0  0  0  0  0  0  0
    2.5358   21.8600    8.6946 N   0  0  0  0  0  0  0  0  0  0  0  0
    2.8563   22.8251    8.9556 H   0  0  0  0  0  0  0  0  0  0  0  0
   -0.1743   23.1656   11.0903 C   0  0  0  0  0  0  0  0  0  0  0  0
    0.0602   23.3612   12.5075 C   0  0  2  0  0  0  0  0  0  0  0  0
    2.7382   20.9294    9.6804 C   0  0  0  0  0  0  0  0  0  0  0  0
    0.3948   24.7339   12.7156 C   0  0  1  0  0  3  0  0  0  0  0  0
    0.5150   25.3496   11.4322 C   0  0  2  0  0  0  0  0  0  0  0  0
    0.1050   24.3859   10.4309 C   0  0  0  0  0  0  0  0  0  0  0  0
    1.6861   21.7399    7.6200 C   0  0  0  0  0  0  0  0  0  0  0  0
    0.5657   25.3986   14.0416 C   0  0  0  0  0  0  0  0  0  0  0  0
   -0.1406   24.9841   14.7583 H   0  0  0  0  0  0  0  0  0  0  0  0
    1.5756   25.2376   14.4234 H   0  0  0  0  0  0  0  0  0  0  0  0
    0.3994   26.4696   13.9535 H   0  0  0  0  0  0  0  0  0  0  0  0
   -0.7635   21.9323   10.4846 C   0  0  0  0  0  0  0  0  0  0  0  0
   -0.4599   21.0431   11.0332 H   0  0  0  0  0  0  0  0  0  0  0  0
   -1.8524   22.0001   10.5261 H   0  0  0  0  0  0  0  0  0  0  0  0
   -0.4706   21.8080    9.4446 H   0  0  0  0  0  0  0  0  0  0  0  0
    0.7637   26.7998   11.1679 C   0  0  0  0  0  0  0  0  0  0  0  0
    1.2227   26.9390   10.1913 H   0  0  0  0  0  0  0  0  0  0  0  0
   -0.1840   27.3426   11.1828 H   0  0  0  0  0  0  0  0  0  0  0  0
    1.4214   27.2241   11.9233 H   0  0  0  0  0  0  0  0  0  0  0  0
   -0.2483   22.3804   13.5928 C   0  0  0  0  0  0  0  0  0  0  0  0
    0.4115   22.5356   14.4434 H   0  0  0  0  0  0  0  0  0  0  0  0
   -1.2813   22.5093   13.9229 H   0  0  0  0  0  0  0  0  0  0  0  0
   -0.1244   21.3578   13.2443 H   0  0  0  0  0  0  0  0  0  0  0  0
    0.9574   20.7753    7.4685 O   0  0  0  0  0  0  0  0  0  0  0  0
    1.7000   22.8852    6.6799 C   0  0  0  0  0  0  0  0  0  0  0  0
    3.3176   19.1916    8.0529 C   0  0  0  0  0  0  0  0  0  0  0  0
    2.4724   19.3466    7.3761 H   0  0  0  0  0  0  0  0  0  0  0  0
    3.4955   18.1181    8.1244 H   0  0  0  0  0  0  0  0  0  0  0  0
   -0.1148   24.7129    8.9892 C   0  0  0  0  0  0  0  0  0  0  0  0
    0.7871   25.1260    8.5383 H   0  0  0  0  0  0  0  0  0  0  0  0
   -0.4072   23.8304    8.4268 H   0  0  0  0  0  0  0  0  0  0  0  0
   -0.9072   25.4578    8.9050 H   0  0  0  0  0  0  0  0  0  0  0  0
    2.7558   23.7899    6.5904 C   0  0  0  0  0  0  0  0  0  0  0  0
    3.6213   23.7018    7.2268 H   0  0  0  0  0  0  0  0  0  0  0  0
    0.6040   23.0220    5.8279 C   0  0  0  0  0  0  0  0  0  0  0  0
   -0.1972   22.3008    5.8977 H   0  0  0  0  0  0  0  0  0  0  0  0
    3.0639   18.6746   10.4573 C   0  0  0  0  0  0  0  0  0  0  0  0
    2.6753   17.7252   10.0804 H   0  0  0  0  0  0  0  0  0  0  0  0
    2.4327   19.0078   11.2832 H   0  0  0  0  0  0  0  0  0  0  0  0
    4.5704   19.8705    7.5055 C   0  0  0  0  0  0  0  0  0  0  0  0
    4.8428   19.4078    6.5606 H   0  0  0  0  0  0  0  0  0  0  0  0
    4.4080   20.9302    7.3319 H   0  0  0  0  0  0  0  0  0  0  0  0
    5.3992   19.7597    8.2005 H   0  0  0  0  0  0  0  0  0  0  0  0
    2.6939   24.8246    5.6742 C   0  0  0  0  0  0  0  0  0  0  0  0
    3.5122   25.5255    5.6102 H   0  0  0  0  0  0  0  0  0  0  0  0
    0.5471   24.0610    4.9204 C   0  0  0  0  0  0  0  0  0  0  0  0
   -0.3094   24.1646    4.2710 H   0  0  0  0  0  0  0  0  0  0  0  0
    4.4959   18.5048   10.9541 C   0  0  0  0  0  0  0  0  0  0  0  0
    4.5160   17.7891   11.7707 H   0  0  0  0  0  0  0  0  0  0  0  0
    5.1437   18.1424   10.1597 H   0  0  0  0  0  0  0  0  0  0  0  0
    4.8766   19.4549   11.3180 H   0  0  0  0  0  0  0  0  0  0  0  0
    1.5927   24.9675    4.8455 C   0  0  0  0  0  0  0  0  0  0  0  0
    1.5513   25.7822    4.1376 H   0  0  0  0  0  0  0  0  0  0  0  0
  1  9  1  0  0  0  0
  5 10  1  0  0  0  0
  5 44  1  0  0  0  0
  6  7  1  0  0  0  0
  6 10  1  0  0  0  0
  8  9  1  0  0  0  0
  9 11  1  0  0  0  0
  9 27  1  1  0  0  0
 10  2  2  0  0  0  0
 11 15  1  1  0  0  0
 12 23  1  6  0  0  0
 12  1  1  0  0  0  0
 12 11  1  0  0  0  0
 13  8  2  0  0  0  0
 13 12  1  0  0  0  0
 14  6  1  0  0  0  0
 15 17  1  0  0  0  0
 15 16  1  0  0  0  0
 18 15  1  0  0  0  0
 19 21  1  0  0  0  0
 19 20  1  0  0  0  0
 19  8  1  0  0  0  0
 22 19  1  0  0  0  0
 23 25  1  0  0  0  0
 23 26  1  0  0  0  0
 24 23  1  0  0  0  0
 27 29  1  0  0  0  0
 27 28  1  0  0  0  0
 30 27  1  0  0  0  0
 31 14  2  0  0  0  0
 32 14  1  0  0  0  0
 33 35  1  0  0  0  0
 33  5  1  0  0  0  0
 34 33  1  0  0  0  0
 36 13  1  0  0  0  0
 37 36  1  0  0  0  0
 38 36  1  0  0  0  0
 39 36  1  0  0  0  0
 40 32  1  0  0  0  0
 40 41  1  0  0  0  0
 42 43  1  0  0  0  0
 42 32  2  0  0  0  0
 44 55  1  0  0  0  0
 44 46  1  0  0  0  0
 45 44  1  0  0  0  0
 47 33  1  0  0  0  0
 47 50  1  0  0  0  0
 48 47  1  0  0  0  0
 49 47  1  0  0  0  0
 51 40  2  0  0  0  0
 52 51  1  0  0  0  0
 53 42  1  0  0  0  0
 54 53  1  0  0  0  0
 55 58  1  0  0  0  0
 55 56  1  0  0  0  0
 57 55  1  0  0  0  0
 59 53  2  0  0  0  0
 59 51  1  0  0  0  0
 60 59  1  0  0  0  0
M  END
$$$$
