CSD_code = QIDCAK | q = 1 | S = 0 | Stoichiometry = C22H22ClN2O4Ru(1+) | MND = 9
 OpenBabel04212202083D

 52 54  0  0  1  0  0  0  0  0999 V2000
    0.0291    8.5680    8.8596 Ru  0  0  0  0  0  0  0  0  0  0  0  0
    0.3310    8.8991    6.5605 C   0  0  0  0  0  0  0  0  0  0  0  0
    0.0444    9.7249    5.9165 H   0  0  0  0  0  0  0  0  0  0  0  0
    1.5989    8.8831    7.1395 C   0  0  0  0  0  0  0  0  0  0  0  0
    2.3036    9.6778    6.9177 H   0  0  0  0  0  0  0  0  0  0  0  0
   -0.1201    6.6891    7.4428 C   0  0  0  0  0  0  0  0  0  0  0  0
   -0.7130    5.7819    7.4703 H   0  0  0  0  0  0  0  0  0  0  0  0
   -0.5568    7.7863    6.6891 C   0  0  0  0  0  0  0  0  0  0  0  0
   -1.8534    7.7612    5.9162 C   0  0  0  0  0  0  0  0  0  0  0  0
   -2.0460    8.7725    5.5443 H   0  0  0  0  0  0  0  0  0  0  0  0
   -1.7004    6.8215    4.7145 C   0  0  0  0  0  0  0  0  0  0  0  0
   -0.8672    7.1289    4.0869 H   0  0  0  0  0  0  0  0  0  0  0  0
   -2.6067    6.8454    4.1165 H   0  0  0  0  0  0  0  0  0  0  0  0
   -1.5300    5.7977    5.0392 H   0  0  0  0  0  0  0  0  0  0  0  0
    1.1322    6.7058    8.1072 C   0  0  1  0  0  0  0  0  0  0  0  0
    1.4669    5.8175    8.6334 H   0  0  0  0  0  0  0  0  0  0  0  0
   -3.0399    7.3529    6.7919 C   0  0  0  0  0  0  0  0  0  0  0  0
   -2.9669    6.3125    7.1031 H   0  0  0  0  0  0  0  0  0  0  0  0
   -3.9610    7.4665    6.2276 H   0  0  0  0  0  0  0  0  0  0  0  0
   -3.0929    8.0027    7.6655 H   0  0  0  0  0  0  0  0  0  0  0  0
    3.4073    7.7493    8.5042 C   0  0  0  0  0  0  0  0  0  0  0  0
    3.7684    8.7424    8.7655 H   0  0  0  0  0  0  0  0  0  0  0  0
    4.0775    7.3457    7.7432 H   0  0  0  0  0  0  0  0  0  0  0  0
    3.4677    7.1048    9.3786 H   0  0  0  0  0  0  0  0  0  0  0  0
    2.0170    7.7939    7.9537 C   0  0  1  0  0  3  0  0  0  0  0  0
   -1.7247   10.1089    8.8966 Cl  0  0  0  0  0 15  0  0  0  0  0  0
    0.8241    9.6957   10.2542 N   0  0  0  0  0  0  0  0  0  0  0  0
   -0.8591    7.8658   10.4776 N   0  0  0  0  0  0  0  0  0  0  0  0
    1.7031   10.6539    9.9969 C   0  0  0  0  0  3  0  0  0  0  0  0
    2.0144   10.8018    8.9703 H   0  0  0  0  0  0  0  0  0  0  0  0
   -4.3541    5.4649   10.4204 O   0  0  0  0  0  0  0  0  0  0  0  0
   -4.3013    6.2744    9.8943 H   0  0  0  0  0  0  0  0  0  0  0  0
    3.9176   12.2239    9.5115 O   0  0  0  0  0  0  0  0  0  0  0  0
   -2.5180    6.5358   11.5596 C   0  0  0  0  0  0  0  0  0  0  0  0
    3.2931   12.4558   10.5075 C   0  0  0  0  0  0  0  0  0  0  0  0
   -0.5941    8.4773   11.6586 C   0  0  2  0  0  3  0  0  0  0  0  0
   -1.8140    6.9398   10.4361 C   0  0  0  0  0  0  0  0  0  0  0  0
   -2.0122    6.4984    9.4664 H   0  0  0  0  0  0  0  0  0  0  0  0
   -3.5491    5.4347   11.4840 C   0  0  0  0  0  0  0  0  0  0  0  0
   -2.2029    7.1096   12.7933 C   0  0  0  0  0  0  0  0  0  0  0  0
   -2.7190    6.7807   13.6814 H   0  0  0  0  0  0  0  0  0  0  0  0
    2.2335   11.4867   10.9727 C   0  0  0  0  0  0  0  0  0  0  0  0
   -1.2464    8.1031   12.8344 C   0  0  0  0  0  0  0  0  0  0  0  0
   -1.0078    8.5921   13.7640 H   0  0  0  0  0  0  0  0  0  0  0  0
    0.8779   10.3363   12.5649 C   0  0  0  0  0  0  0  0  0  0  0  0
    0.5244   10.1882   13.5718 H   0  0  0  0  0  0  0  0  0  0  0  0
    0.3948    9.5345   11.5319 C   0  0  0  0  0  0  0  0  0  0  0  0
    1.8103   11.3201   12.2926 C   0  0  0  0  0  0  0  0  0  0  0  0
    2.2056   11.9207   13.0983 H   0  0  0  0  0  0  0  0  0  0  0  0
   -3.6099    4.5841   12.3173 O   0  0  0  0  0  0  0  0  0  0  0  0
    3.4972   13.5385   11.2425 O   0  0  0  0  0  0  0  0  0  0  0  0
    2.8916   13.6505   11.9876 H   0  0  0  0  0  0  0  0  0  0  0  0
  1 27  1  0  0  0  0
  1 28  1  0  0  0  0
  2  8  1  0  0  0  0
  2  4  2  0  0  0  0
  3  2  1  0  0  0  0
  4 25  1  0  0  0  0
  5  4  1  0  0  0  0
  6  7  1  0  0  0  0
  6 15  1  0  0  0  0
  8  6  2  0  0  0  0
  9  8  1  0  0  0  0
  9 17  1  0  0  0  0
 10  9  1  0  0  0  0
 11 14  1  0  0  0  0
 11  9  1  0  0  0  0
 12 11  1  0  0  0  0
 13 11  1  0  0  0  0
 15 16  1  1  0  0  0
 15  1  1  0  0  0  0
 17 18  1  0  0  0  0
 17 20  1  0  0  0  0
 19 17  1  0  0  0  0
 21 22  1  0  0  0  0
 21 24  1  0  0  0  0
 23 21  1  0  0  0  0
 25 15  1  0  0  0  0
 25 21  1  6  0  0  0
 27 47  1  0  0  0  0
 28 36  1  0  0  0  0
 29 27  1  0  0  0  0
 29 42  1  0  0  0  0
 30 29  1  0  0  0  0
 31 39  1  0  0  0  0
 32 31  1  0  0  0  0
 33 35  2  0  0  0  0
 34 40  1  0  0  0  0
 35 42  1  0  0  0  0
 35 51  1  0  0  0  0
 36 47  1  6  0  0  0
 36 43  1  0  0  0  0
 37 28  1  0  0  0  0
 37 34  2  0  0  0  0
 38 37  1  0  0  0  0
 39 34  1  0  0  0  0
 39 50  2  0  0  0  0
 40 43  2  0  0  0  0
 40 41  1  0  0  0  0
 42 48  2  0  0  0  0
 43 44  1  0  0  0  0
 45 46  1  0  0  0  0
 47 45  2  0  0  0  0
 48 45  1  0  0  0  0
 48 49  1  0  0  0  0
 51 52  1  0  0  0  0
M  END
$$$$
