CSD_code = QIDFOA | q = 0 | S = 0 | Stoichiometry = C18H28Br2P2Pt | MND = 4
 OpenBabel04212202083D

 51 54  0  0  1  0  0  0  0  0999 V2000
    1.9396    6.4785   18.2369 Pt  0  0  0  0  0  0  0  0  0  0  0  0
    4.1095    7.3771   18.7978 Br  0  0  0  0  0  0  0  0  0  0  0  0
    1.5642    5.4598   20.3943 Br  0  0  0  0  0  0  0  0  0  0  0  0
   -0.1325    5.8249   17.6082 P   0  0  1  0  0  4  0  0  0  0  0  0
    2.2154    7.2439   16.1245 P   0  0  1  0  0  4  0  0  0  0  0  0
   -0.3729    6.2812   15.8561 C   0  0  0  0  0  0  0  0  0  0  0  0
   -1.5597    6.0277   15.1767 C   0  0  0  0  0  0  0  0  0  0  0  0
   -2.3877    5.5602   15.6900 H   0  0  0  0  0  0  0  0  0  0  0  0
   -1.6918    6.3731   13.8441 C   0  0  0  0  0  0  0  0  0  0  0  0
   -2.6161    6.1712   13.3237 H   0  0  0  0  0  0  0  0  0  0  0  0
   -0.6371    6.9746   13.1760 C   0  0  0  0  0  0  0  0  0  0  0  0
   -0.7388    7.2412   12.1346 H   0  0  0  0  0  0  0  0  0  0  0  0
    0.5453    7.2373   13.8436 C   0  0  0  0  0  0  0  0  0  0  0  0
    1.3627    7.7058   13.3146 H   0  0  0  0  0  0  0  0  0  0  0  0
    0.6870    6.8996   15.1853 C   0  0  0  0  0  0  0  0  0  0  0  0
   -0.3821    3.1766   16.5919 C   0  0  0  0  0  0  0  0  0  0  0  0
   -0.6068    2.1372   16.8240 H   0  0  0  0  0  0  0  0  0  0  0  0
    0.6638    3.2410   16.2931 H   0  0  0  0  0  0  0  0  0  0  0  0
   -0.9986    3.4811   15.7481 H   0  0  0  0  0  0  0  0  0  0  0  0
   -0.6344    4.0475   17.8139 C   0  0  2  0  0  0  0  0  0  0  0  0
   -0.0012    3.6878   18.6369 H   0  0  0  0  0  0  0  0  0  0  0  0
   -2.0830    4.0824   18.3105 C   0  0  0  0  0  0  0  0  0  0  0  0
   -2.7732    4.1841   17.4694 H   0  0  0  0  0  0  0  0  0  0  0  0
   -2.3290    3.1582   18.8343 H   0  0  0  0  0  0  0  0  0  0  0  0
   -2.1959    5.2911   19.2346 C   0  0  0  0  0  0  0  0  0  0  0  0
   -1.5927    5.1209   20.1289 H   0  0  0  0  0  0  0  0  0  0  0  0
   -3.2267    5.4702   19.5431 H   0  0  0  0  0  0  0  0  0  0  0  0
   -1.6365    6.4949   18.4709 C   0  0  1  0  0  0  0  0  0  0  0  0
   -2.3448    6.8019   17.6898 H   0  0  0  0  0  0  0  0  0  0  0  0
   -1.3090    7.6948   19.3491 C   0  0  0  0  0  0  0  0  0  0  0  0
   -2.2104    8.0775   19.8240 H   0  0  0  0  0  0  0  0  0  0  0  0
   -0.8677    8.4944   18.7526 H   0  0  0  0  0  0  0  0  0  0  0  0
   -0.6055    7.4152   20.1313 H   0  0  0  0  0  0  0  0  0  0  0  0
    1.4770    9.9536   15.6548 C   0  0  0  0  0  0  0  0  0  0  0  0
    1.8157   10.9867   15.6050 H   0  0  0  0  0  0  0  0  0  0  0  0
    0.7851    9.8613   16.4916 H   0  0  0  0  0  0  0  0  0  0  0  0
    0.9375    9.7241   14.7377 H   0  0  0  0  0  0  0  0  0  0  0  0
    2.6670    9.0259   15.8524 C   0  0  2  0  0  0  0  0  0  0  0  0
    3.1835    9.3119   16.7793 H   0  0  0  0  0  0  0  0  0  0  0  0
    3.6960    9.0228   14.7179 C   0  0  0  0  0  0  0  0  0  0  0  0
    3.1947    8.9984   13.7471 H   0  0  0  0  0  0  0  0  0  0  0  0
    4.3078    9.9247   14.7553 H   0  0  0  0  0  0  0  0  0  0  0  0
    4.5447    7.7690   14.9055 C   0  0  0  0  0  0  0  0  0  0  0  0
    5.1316    7.8631   15.8215 H   0  0  0  0  0  0  0  0  0  0  0  0
    5.2301    7.6150   14.0711 H   0  0  0  0  0  0  0  0  0  0  0  0
    3.5791    6.5885   15.0449 C   0  0  1  0  0  0  0  0  0  0  0  0
    3.1326    6.3554   14.0690 H   0  0  0  0  0  0  0  0  0  0  0  0
    4.2120    5.3285   15.6195 C   0  0  0  0  0  0  0  0  0  0  0  0
    4.9906    4.9561   14.9564 H   0  0  0  0  0  0  0  0  0  0  0  0
    3.4611    4.5469   15.7424 H   0  0  0  0  0  0  0  0  0  0  0  0
    4.6616    5.5348   16.5891 H   0  0  0  0  0  0  0  0  0  0  0  0
  1  2  1  0  0  0  0
  1  3  1  0  0  0  0
  4  6  1  6  0  0  0
  4 20  1  0  0  0  0
  4  1  1  0  0  0  0
  4 28  1  0  0  0  0
  5 15  1  6  0  0  0
  5  1  1  0  0  0  0
  7  8  1  0  0  0  0
  7  6  2  0  0  0  0
  9  7  1  0  0  0  0
 10  9  1  0  0  0  0
 11 13  1  0  0  0  0
 11  9  2  0  0  0  0
 12 11  1  0  0  0  0
 13 15  2  0  0  0  0
 14 13  1  0  0  0  0
 15  6  1  0  0  0  0
 16 17  1  0  0  0  0
 16 20  1  0  0  0  0
 18 16  1  0  0  0  0
 19 16  1  0  0  0  0
 20 22  1  0  0  0  0
 20 21  1  1  0  0  0
 22 24  1  0  0  0  0
 22 25  1  0  0  0  0
 23 22  1  0  0  0  0
 25 27  1  0  0  0  0
 25 26  1  0  0  0  0
 28 29  1  6  0  0  0
 28 25  1  0  0  0  0
 28 30  1  0  0  0  0
 30 31  1  0  0  0  0
 30 33  1  0  0  0  0
 32 30  1  0  0  0  0
 34 38  1  0  0  0  0
 34 36  1  0  0  0  0
 35 34  1  0  0  0  0
 37 34  1  0  0  0  0
 38  5  1  0  0  0  0
 38 39  1  1  0  0  0
 40 42  1  0  0  0  0
 40 43  1  0  0  0  0
 40 38  1  0  0  0  0
 41 40  1  0  0  0  0
 43 46  1  0  0  0  0
 43 44  1  0  0  0  0
 45 43  1  0  0  0  0
 46 47  1  6  0  0  0
 46 48  1  0  0  0  0
 46  5  1  0  0  0  0
 48 50  1  0  0  0  0
 48 51  1  0  0  0  0
 49 48  1  0  0  0  0
M  END
$$$$
