CSD_code = QIDGUI | q = 1 | S = 0 | Stoichiometry = C24H31ClIrN4O2(1+) | MND = 8
 OpenBabel04212202083D

 63 66  0  0  1  0  0  0  0  0999 V2000
    1.4916    8.4170   12.6021 Ir  0  0  0  0  0  0  0  0  0  0  0  0
    2.5938   10.1402   13.5289 Cl  0  0  0  0  0  0  0  0  0  0  0  0
    1.6422    6.9651   15.0271 O   0  0  0  0  0  0  0  0  0  0  0  0
    1.3205   10.5882   10.4465 O   0  0  0  0  0  0  0  0  0  0  0  0
    0.1347    8.2462   14.0301 N   0  0  0  0  0  0  0  0  0  0  0  0
    0.0193    9.7517   12.0852 N   0  0  0  0  0  0  0  0  0  0  0  0
   -2.5982    7.7266   17.0782 N   0  0  0  0  0  0  0  0  0  0  0  0
   -2.8865   12.6059   11.2851 N   0  0  0  0  0  0  0  0  0  0  0  0
    1.0986    6.7305   11.1534 C   0  0  2  0  0  0  0  0  0  0  0  0
    1.7103    6.0625   12.2410 C   0  0  0  0  0  0  0  0  0  0  0  0
    3.0590    6.5737   12.3882 C   0  0  0  0  0  0  0  0  0  0  0  0
    3.2768    7.5443   11.3767 C   0  0  0  0  0  0  0  0  0  0  0  0
    2.1129    7.5766   10.5371 C   0  0  0  0  0  0  0  0  0  0  0  0
   -0.2055    6.3780   10.5158 C   0  0  0  0  0  0  0  0  0  0  0  0
    1.1751    4.8920   12.9793 C   0  0  0  0  0  0  0  0  0  0  0  0
    4.0331    6.0636   13.3731 C   0  0  0  0  0  0  0  0  0  0  0  0
    4.5541    8.2501   11.0688 C   0  0  0  0  0  0  0  0  0  0  0  0
    2.0187    8.2273    9.2342 C   0  0  0  0  0  0  0  0  0  0  0  0
    0.5029    7.4545   15.0908 C   0  0  0  0  0  0  0  0  0  0  0  0
   -0.4470    7.2709   16.1230 C   0  0  0  0  0  0  0  0  0  0  0  0
   -1.6868    7.9025   16.0929 C   0  0  0  0  0  0  0  0  0  0  0  0
   -1.9629    8.7706   14.9945 C   0  0  0  0  0  0  0  0  0  0  0  0
   -1.0332    8.9268   14.0020 C   0  0  0  0  0  0  0  0  0  0  0  0
   -1.0787    9.8509   12.8692 C   0  0  0  0  0  0  0  0  0  0  0  0
   -2.0663   10.7713   12.6277 C   0  0  0  0  0  0  0  0  0  0  0  0
   -1.9354   11.6853   11.5475 C   0  0  0  0  0  0  0  0  0  0  0  0
   -0.7751   11.5863   10.7800 C   0  0  0  0  0  0  0  0  0  0  0  0
    0.2403   10.6391   11.0620 C   0  0  0  0  0  0  0  0  0  0  0  0
   -2.2714    6.9252   18.2331 C   0  0  0  0  0  0  0  0  0  0  0  0
   -3.8914    8.3631   17.0200 C   0  0  0  0  0  0  0  0  0  0  0  0
   -4.0967   12.6618   12.0691 C   0  0  0  0  0  0  0  0  0  0  0  0
   -2.7008   13.5624   10.2191 C   0  0  0  0  0  0  0  0  0  0  0  0
   -0.9168    6.0162   11.2540 H   0  0  0  0  0  0  0  0  0  0  0  0
   -0.6371    7.2385   10.0101 H   0  0  0  0  0  0  0  0  0  0  0  0
   -0.0510    5.5884    9.7786 H   0  0  0  0  0  0  0  0  0  0  0  0
    1.5500    3.9803   12.5097 H   0  0  0  0  0  0  0  0  0  0  0  0
    1.5093    4.9060   14.0133 H   0  0  0  0  0  0  0  0  0  0  0  0
    0.0888    4.8659   12.9530 H   0  0  0  0  0  0  0  0  0  0  0  0
    4.1721    4.9908   13.2359 H   0  0  0  0  0  0  0  0  0  0  0  0
    4.9927    6.5644   13.2885 H   0  0  0  0  0  0  0  0  0  0  0  0
    3.6352    6.2109   14.3788 H   0  0  0  0  0  0  0  0  0  0  0  0
    4.3537    9.2206   10.6199 H   0  0  0  0  0  0  0  0  0  0  0  0
    5.1458    8.4026   11.9678 H   0  0  0  0  0  0  0  0  0  0  0  0
    5.1438    7.6583   10.3663 H   0  0  0  0  0  0  0  0  0  0  0  0
    2.9807    8.2673    8.7301 H   0  0  0  0  0  0  0  0  0  0  0  0
    1.2607    7.7807    8.5976 H   0  0  0  0  0  0  0  0  0  0  0  0
    1.7297    9.2894    9.4218 H   0  0  0  0  0  0  0  0  0  0  0  0
   -0.1368    6.6416   16.9376 H   0  0  0  0  0  0  0  0  0  0  0  0
   -2.8734    9.3380   14.9540 H   0  0  0  0  0  0  0  0  0  0  0  0
   -2.9169   10.8017   13.2822 H   0  0  0  0  0  0  0  0  0  0  0  0
   -0.5487   12.2700    9.9810 H   0  0  0  0  0  0  0  0  0  0  0  0
   -1.3750    7.3052   18.7283 H   0  0  0  0  0  0  0  0  0  0  0  0
   -3.0918    6.9560   18.9442 H   0  0  0  0  0  0  0  0  0  0  0  0
   -2.0997    5.8836   17.9504 H   0  0  0  0  0  0  0  0  0  0  0  0
   -4.4059    8.1152   16.0890 H   0  0  0  0  0  0  0  0  0  0  0  0
   -4.5053    8.0133   17.8452 H   0  0  0  0  0  0  0  0  0  0  0  0
   -3.8035    9.4506   17.0987 H   0  0  0  0  0  0  0  0  0  0  0  0
   -3.8800   12.9180   13.1098 H   0  0  0  0  0  0  0  0  0  0  0  0
   -4.7579   13.4223   11.6638 H   0  0  0  0  0  0  0  0  0  0  0  0
   -4.6243   11.7055   12.0417 H   0  0  0  0  0  0  0  0  0  0  0  0
   -2.6493   13.0631    9.2484 H   0  0  0  0  0  0  0  0  0  0  0  0
   -3.5358   14.2568   10.2023 H   0  0  0  0  0  0  0  0  0  0  0  0
   -1.7834   14.1359   10.3679 H   0  0  0  0  0  0  0  0  0  0  0  0
  1  2  1  0  0  0  0
  1  5  1  0  0  0  0
  3 19  2  0  0  0  0
  4 28  2  0  0  0  0
  5 19  1  0  0  0  0
  6  1  1  0  0  0  0
  6 24  1  0  0  0  0
  7 29  1  0  0  0  0
  8 26  1  0  0  0  0
  8 31  1  0  0  0  0
  9 14  1  6  0  0  0
  9 10  1  0  0  0  0
  9  1  1  0  0  0  0
 10 11  2  0  0  0  0
 10 15  1  0  0  0  0
 11 16  1  0  0  0  0
 12 11  1  0  0  0  0
 13  9  1  0  0  0  0
 13 12  2  0  0  0  0
 14 33  1  0  0  0  0
 15 37  1  0  0  0  0
 16 41  1  0  0  0  0
 17 12  1  0  0  0  0
 17 43  1  0  0  0  0
 18 47  1  0  0  0  0
 18 13  1  0  0  0  0
 19 20  1  0  0  0  0
 20 48  1  0  0  0  0
 21 20  2  0  0  0  0
 21  7  1  0  0  0  0
 22 21  1  0  0  0  0
 23  5  1  0  0  0  0
 23 22  2  0  0  0  0
 24 23  1  0  0  0  0
 25 24  2  0  0  0  0
 25 50  1  0  0  0  0
 26 25  1  0  0  0  0
 27 28  1  0  0  0  0
 27 26  2  0  0  0  0
 28  6  1  0  0  0  0
 29 52  1  0  0  0  0
 29 53  1  0  0  0  0
 30  7  1  0  0  0  0
 30 57  1  0  0  0  0
 30 56  1  0  0  0  0
 31 58  1  0  0  0  0
 32 63  1  0  0  0  0
 32  8  1  0  0  0  0
 34 14  1  0  0  0  0
 35 14  1  0  0  0  0
 36 15  1  0  0  0  0
 38 15  1  0  0  0  0
 39 16  1  0  0  0  0
 40 16  1  0  0  0  0
 42 17  1  0  0  0  0
 44 17  1  0  0  0  0
 45 18  1  0  0  0  0
 46 18  1  0  0  0  0
 49 22  1  0  0  0  0
 51 27  1  0  0  0  0
 54 29  1  0  0  0  0
 55 30  1  0  0  0  0
 59 31  1  0  0  0  0
 60 31  1  0  0  0  0
 61 32  1  0  0  0  0
 62 32  1  0  0  0  0
M  END
$$$$
