CSD_code = QIDKUL | q = 0 | S = 0 | Stoichiometry = C23H20ClN6O8Rh | MND = 6
 OpenBabel04212202083D

 59 61  0  0  1  0  0  0  0  0999 V2000
    8.0796   -0.1810   14.8785 Rh  0  0  0  0  0  0  0  0  0  0  0  0
    8.6595   -2.1694   13.9171 Cl  0  0  0  0  0 15  0  0  0  0  0  0
    3.6559    1.4258   15.0927 O   0  0  0  0  0  0  0  0  0  0  0  0
    1.8168    0.5087   15.7430 O   0  0  0  0  0  0  0  0  0  0  0  0
    2.5634   -3.0956   18.8581 O   0  0  0  0  0  0  0  0  0  0  0  0
    4.2585   -4.3931   18.5911 O   0  0  0  0  0  0  0  0  0  0  0  0
    5.8155    3.3296   12.6330 O   0  0  0  0  0  0  0  0  0  0  0  0
    6.2635    4.3344   10.7795 O   0  0  0  0  0  0  0  0  0  0  0  0
   10.9584    4.1598    9.6867 O   0  0  0  0  0  0  0  0  0  0  0  0
   12.1026    2.4110   10.1982 O   0  0  0  0  0  0  0  0  0  0  0  0
    5.2708   -0.3798   13.8830 N   0  0  0  0  0  0  0  0  0  0  0  0
    6.5289    0.7097   12.5046 N   0  0  0  0  0  0  0  0  0  0  0  0
    2.9987    0.4886   15.4935 N   0  0  0  0  0  0  0  0  0  0  0  0
    3.5763   -3.4392   18.2927 N   0  0  0  0  0  0  0  0  0  0  0  0
    6.4666    3.4940   11.6235 N   0  0  0  0  0  0  0  0  0  0  0  0
   11.0800    3.0580   10.1715 N   0  0  0  0  0  0  0  0  0  0  0  0
    6.5555    0.0020   13.6649 C   0  0  1  0  0  3  0  0  0  0  0  0
    5.2424    0.7623   12.0107 C   0  0  0  0  0  0  0  0  0  0  0  0
    4.9913    1.2343   11.0832 H   0  0  0  0  0  0  0  0  0  0  0  0
    4.4586    0.0840   12.8697 C   0  0  0  0  0  0  0  0  0  0  0  0
    3.4112   -0.1310   12.8171 H   0  0  0  0  0  0  0  0  0  0  0  0
    4.8565   -1.1054   15.0031 C   0  0  0  0  0  0  0  0  0  0  0  0
    3.7094   -0.7500   15.7345 C   0  0  0  0  0  0  0  0  0  0  0  0
    3.2766   -1.5277   16.7975 C   0  0  0  0  0  0  0  0  0  0  0  0
    2.3859   -1.2511   17.3445 H   0  0  0  0  0  0  0  0  0  0  0  0
    4.0130   -2.6404   17.1674 C   0  0  0  0  0  0  0  0  0  0  0  0
    5.1740   -2.9882   16.4796 C   0  0  0  0  0  0  0  0  0  0  0  0
    5.7312   -3.8582   16.7919 H   0  0  0  0  0  0  0  0  0  0  0  0
    5.5814   -2.2336   15.3991 C   0  0  0  0  0  0  0  0  0  0  0  0
    6.4562   -2.5241   14.8319 H   0  0  0  0  0  0  0  0  0  0  0  0
    7.6540    1.3204   11.9471 C   0  0  0  0  0  0  0  0  0  0  0  0
    7.6156    2.6311   11.4398 C   0  0  0  0  0  0  0  0  0  0  0  0
    8.7299    3.1906   10.8335 C   0  0  0  0  0  0  0  0  0  0  0  0
    8.6837    4.1945   10.4347 H   0  0  0  0  0  0  0  0  0  0  0  0
    9.9069    2.4636   10.7746 C   0  0  0  0  0  0  0  0  0  0  0  0
    9.9764    1.1757   11.3023 C   0  0  0  0  0  0  0  0  0  0  0  0
   10.9066    0.6314   11.2423 H   0  0  0  0  0  0  0  0  0  0  0  0
    8.8548    0.6065   11.8685 C   0  0  0  0  0  0  0  0  0  0  0  0
    8.8873   -0.4130   12.2315 H   0  0  0  0  0  0  0  0  0  0  0  0
    7.1458    1.1738   16.2469 C   0  0  2  0  0  0  0  0  0  0  0  0
    6.0821    1.2743   16.0337 H   0  0  0  0  0  0  0  0  0  0  0  0
    8.0111    1.9019   15.4388 C   0  0  0  0  0  3  0  0  0  0  0  0
    7.5490    2.4781   14.6388 H   0  0  0  0  0  0  0  0  0  0  0  0
    9.3557    2.4293   15.8908 C   0  0  0  0  0  0  0  0  0  0  0  0
    9.3078    2.6516   16.9571 H   0  0  0  0  0  0  0  0  0  0  0  0
    9.5558    3.3712   15.3769 H   0  0  0  0  0  0  0  0  0  0  0  0
   10.5106    1.4544   15.5921 C   0  0  0  0  0  0  0  0  0  0  0  0
   10.8937    1.6551   14.5878 H   0  0  0  0  0  0  0  0  0  0  0  0
   11.3352    1.6268   16.2912 H   0  0  0  0  0  0  0  0  0  0  0  0
   10.1090    0.0002   15.6550 C   0  0  0  0  0  3  0  0  0  0  0  0
   10.7279   -0.6515   15.0383 H   0  0  0  0  0  0  0  0  0  0  0  0
    9.3430   -0.5787   16.6372 C   0  0  0  0  0  3  0  0  0  0  0  0
    9.3666   -1.6649   16.7263 H   0  0  0  0  0  0  0  0  0  0  0  0
    8.8413    0.1521   17.8612 C   0  0  0  0  0  0  0  0  0  0  0  0
    9.5414    0.9477   18.1158 H   0  0  0  0  0  0  0  0  0  0  0  0
    8.8206   -0.5418   18.7035 H   0  0  0  0  0  0  0  0  0  0  0  0
    7.4250    0.7212   17.6597 C   0  0  0  0  0  0  0  0  0  0  0  0
    6.6931   -0.0508   17.9165 H   0  0  0  0  0  0  0  0  0  0  0  0
    7.2579    1.5612   18.3418 H   0  0  0  0  0  0  0  0  0  0  0  0
  1 40  1  0  0  0  0
  3 13  2  0  0  0  0
  8 15  2  0  0  0  0
  9 16  2  0  0  0  0
 11 22  1  0  0  0  0
 12 17  1  0  0  0  0
 13 23  1  0  0  0  0
 13  4  2  0  0  0  0
 14  6  2  0  0  0  0
 14  5  2  0  0  0  0
 15  7  2  0  0  0  0
 16 10  2  0  0  0  0
 16 35  1  0  0  0  0
 17 11  1  0  0  0  0
 17  1  1  1  0  0  0
 18 12  1  0  0  0  0
 18 20  2  0  0  0  0
 19 18  1  0  0  0  0
 20 11  1  0  0  0  0
 21 20  1  0  0  0  0
 22 29  2  0  0  0  0
 22 23  1  0  0  0  0
 23 24  2  0  0  0  0
 24 26  1  0  0  0  0
 24 25  1  0  0  0  0
 26 14  1  0  0  0  0
 27 28  1  0  0  0  0
 27 26  2  0  0  0  0
 29 27  1  0  0  0  0
 30 29  1  0  0  0  0
 31 12  1  0  0  0  0
 32 15  1  0  0  0  0
 32 31  2  0  0  0  0
 33 32  1  0  0  0  0
 34 33  1  0  0  0  0
 35 33  2  0  0  0  0
 35 36  1  0  0  0  0
 36 38  2  0  0  0  0
 37 36  1  0  0  0  0
 38 31  1  0  0  0  0
 38 39  1  0  0  0  0
 40 41  1  6  0  0  0
 40 57  1  0  0  0  0
 42 44  1  0  0  0  0
 42 40  1  0  0  0  0
 43 42  1  0  0  0  0
 44 45  1  0  0  0  0
 46 44  1  0  0  0  0
 47 50  1  0  0  0  0
 47 44  1  0  0  0  0
 47 49  1  0  0  0  0
 48 47  1  0  0  0  0
 50 52  1  0  0  0  0
 51 50  1  0  0  0  0
 52 53  1  0  0  0  0
 52 54  1  0  0  0  0
 54 55  1  0  0  0  0
 54 56  1  0  0  0  0
 57 54  1  0  0  0  0
 57 58  1  0  0  0  0
 57 59  1  0  0  0  0
M  END
$$$$
