CSD_code = QIDMIC | q = 0 | S = 0 | Stoichiometry = C23H27Br2N5Zn | MND = 4
 OpenBabel04212202083D

 58 62  0  0  1  0  0  0  0  0999 V2000
   11.3521    2.6677    9.2801 Br  0  0  0  0  0  0  0  0  0  0  0  0
   10.3553    5.4603    6.3365 Br  0  0  0  0  0  0  0  0  0  0  0  0
    9.7567    3.7656    7.8967 Zn  0  0  0  0  0  0  0  0  0  0  0  0
    8.5480    4.9038    9.3051 N   0  0  0  0  0  0  0  0  0  0  0  0
    8.7959    1.9682    7.2109 N   0  0  0  0  0  0  0  0  0  0  0  0
    7.3550    4.2200    6.9090 N   0  0  0  0  0  0  0  0  0  0  0  0
    9.2477    0.6847    7.0151 C   0  0  0  0  0  0  0  0  0  0  0  0
    7.4949    1.8904    7.3381 C   0  0  2  0  0  3  0  0  0  0  0  0
    8.0733    7.2311   11.9845 C   0  0  0  0  0  0  0  0  0  0  0  0
    7.4492    8.0944   12.1586 H   0  0  0  0  0  0  0  0  0  0  0  0
    7.2573    6.6760    9.6588 N   0  0  0  0  0  0  0  0  0  0  0  0
   10.5305    0.1925    6.8091 C   0  0  0  0  0  0  0  0  0  0  0  0
   11.3850    0.8483    6.7989 H   0  0  0  0  0  0  0  0  0  0  0  0
    7.0346    0.6212    7.2510 N   0  0  0  0  0  0  0  0  0  0  0  0
   10.6619   -1.1687    6.6354 C   0  0  0  0  0  0  0  0  0  0  0  0
   11.6437   -1.5877    6.4794 H   0  0  0  0  0  0  0  0  0  0  0  0
    7.6133    5.6809    8.8128 C   0  0  1  0  0  3  0  0  0  0  0  0
    8.8335    5.3927   10.5638 C   0  0  0  0  0  0  0  0  0  0  0  0
    8.2770   -1.5492    6.8564 C   0  0  0  0  0  0  0  0  0  0  0  0
    7.4280   -2.2157    6.8700 H   0  0  0  0  0  0  0  0  0  0  0  0
    8.1366   -0.1818    7.0338 C   0  0  0  0  0  0  0  0  0  0  0  0
    9.5582   -2.0234    6.6589 C   0  0  0  0  0  0  0  0  0  0  0  0
    9.7112   -3.0827    6.5182 H   0  0  0  0  0  0  0  0  0  0  0  0
    5.6694    0.1665    7.3308 C   0  0  0  0  0  0  0  0  0  0  0  0
    5.1102    0.8388    7.9866 H   0  0  0  0  0  0  0  0  0  0  0  0
    5.6765   -0.8265    7.7879 H   0  0  0  0  0  0  0  0  0  0  0  0
    8.0173    6.5172   10.7980 C   0  0  0  0  0  0  0  0  0  0  0  0
    7.2602    4.1627    5.4513 C   0  0  0  0  0  0  0  0  0  0  0  0
    7.7157    3.2252    5.1234 H   0  0  0  0  0  0  0  0  0  0  0  0
    7.8711    4.9785    5.0527 H   0  0  0  0  0  0  0  0  0  0  0  0
    5.8658    4.2667    4.9084 C   0  0  0  0  0  0  0  0  0  0  0  0
    5.2833    5.1119    5.2529 H   0  0  0  0  0  0  0  0  0  0  0  0
    8.9679    6.7875   12.9371 C   0  0  0  0  0  0  0  0  0  0  0  0
    9.0456    7.3164   13.8750 H   0  0  0  0  0  0  0  0  0  0  0  0
    6.6609    3.1090    7.5346 C   0  0  0  0  0  0  0  0  0  0  0  0
    5.6492    2.9645    7.1203 H   0  0  0  0  0  0  0  0  0  0  0  0
    6.5721    3.3051    8.6087 H   0  0  0  0  0  0  0  0  0  0  0  0
    6.2764    7.7098    9.4470 C   0  0  0  0  0  0  0  0  0  0  0  0
    6.2014    7.9135    8.3764 H   0  0  0  0  0  0  0  0  0  0  0  0
    6.6366    8.6160    9.9408 H   0  0  0  0  0  0  0  0  0  0  0  0
    5.0196    0.1020    5.9506 C   0  0  0  0  0  0  0  0  0  0  0  0
    4.9818    1.0899    5.4961 H   0  0  0  0  0  0  0  0  0  0  0  0
    4.0065   -0.2811    6.0365 H   0  0  0  0  0  0  0  0  0  0  0  0
    5.5879   -0.5568    5.2985 H   0  0  0  0  0  0  0  0  0  0  0  0
    9.7744    5.6704   12.7154 C   0  0  0  0  0  0  0  0  0  0  0  0
   10.4600    5.3586   13.4881 H   0  0  0  0  0  0  0  0  0  0  0  0
    7.0065    5.5110    7.4611 C   0  0  0  0  0  0  0  0  0  0  0  0
    5.9156    5.6676    7.5274 H   0  0  0  0  0  0  0  0  0  0  0  0
    7.4271    6.2791    6.8016 H   0  0  0  0  0  0  0  0  0  0  0  0
    5.3473    3.4138    4.0441 C   0  0  0  0  0  0  0  0  0  0  0  0
    5.9157    2.5774    3.6691 H   0  0  0  0  0  0  0  0  0  0  0  0
    4.3517    3.5282    3.6492 H   0  0  0  0  0  0  0  0  0  0  0  0
    9.7243    4.9549   11.5376 C   0  0  0  0  0  0  0  0  0  0  0  0
   10.3570    4.0983   11.3784 H   0  0  0  0  0  0  0  0  0  0  0  0
    4.9159    7.3142   10.0174 C   0  0  0  0  0  0  0  0  0  0  0  0
    4.5352    6.4202    9.5277 H   0  0  0  0  0  0  0  0  0  0  0  0
    4.2035    8.1206    9.8684 H   0  0  0  0  0  0  0  0  0  0  0  0
    4.9978    7.1124   11.0828 H   0  0  0  0  0  0  0  0  0  0  0  0
  2  3  1  0  0  0  0
  3  1  1  0  0  0  0
  3  4  1  0  0  0  0
  4 18  1  0  0  0  0
  5  3  1  0  0  0  0
  6 47  1  0  0  0  0
  6 35  1  0  0  0  0
  7 21  1  0  0  0  0
  7  5  1  0  0  0  0
  8  5  1  6  0  0  0
  8 35  1  0  0  0  0
  9 10  1  0  0  0  0
  9 33  1  0  0  0  0
 11 27  1  0  0  0  0
 12  7  2  0  0  0  0
 13 12  1  0  0  0  0
 14 24  1  0  0  0  0
 14  8  1  0  0  0  0
 15 22  2  0  0  0  0
 15 12  1  0  0  0  0
 16 15  1  0  0  0  0
 17 47  1  6  0  0  0
 17  4  1  0  0  0  0
 17 11  1  0  0  0  0
 18 27  1  0  0  0  0
 18 53  2  0  0  0  0
 19 20  1  0  0  0  0
 19 21  2  0  0  0  0
 21 14  1  0  0  0  0
 22 19  1  0  0  0  0
 23 22  1  0  0  0  0
 24 26  1  0  0  0  0
 24 25  1  0  0  0  0
 27  9  2  0  0  0  0
 28  6  1  0  0  0  0
 29 28  1  0  0  0  0
 30 28  1  0  0  0  0
 31 32  1  0  0  0  0
 31 28  1  0  0  0  0
 33 34  1  0  0  0  0
 35 37  1  0  0  0  0
 36 35  1  0  0  0  0
 38 11  1  0  0  0  0
 38 40  1  0  0  0  0
 38 55  1  0  0  0  0
 39 38  1  0  0  0  0
 41 43  1  0  0  0  0
 41 24  1  0  0  0  0
 42 41  1  0  0  0  0
 44 41  1  0  0  0  0
 45 33  2  0  0  0  0
 45 46  1  0  0  0  0
 47 48  1  0  0  0  0
 49 47  1  0  0  0  0
 50 31  2  0  0  0  0
 51 50  1  0  0  0  0
 52 50  1  0  0  0  0
 53 45  1  0  0  0  0
 54 53  1  0  0  0  0
 55 58  1  0  0  0  0
 56 55  1  0  0  0  0
 57 55  1  0  0  0  0
M  END
$$$$
