CSD_code = QIDQOK | q = 0 | S = 0 | Stoichiometry = C24H33BrP2Pt | MND = 4
 OpenBabel04212202083D

 61 65  0  0  1  0  0  0  0  0999 V2000
    7.3204   -0.0004   15.0330 Pt  0  0  2  0  0  0  0  0  0  0  0  0
    6.1979   -1.2985   16.7167 Br  0  0  0  0  0  0  0  0  0  0  0  0
    5.3321    1.0005   14.3170 P   0  0  2  0  0  4  0  0  0  0  0  0
    8.2490    0.9973   13.2293 P   0  0  1  0  0  4  0  0  0  0  0  0
    5.6882    2.5569   16.6092 C   0  0  0  0  0  0  0  0  0  0  0  0
    5.2981    3.2858   17.3180 H   0  0  0  0  0  0  0  0  0  0  0  0
    6.6056    2.9579   16.1732 H   0  0  0  0  0  0  0  0  0  0  0  0
    5.9301    1.6460   17.1576 H   0  0  0  0  0  0  0  0  0  0  0  0
    4.6707    2.2646   15.5140 C   0  0  2  0  0  0  0  0  0  0  0  0
    4.4621    3.1860   14.9538 H   0  0  0  0  0  0  0  0  0  0  0  0
    3.3584    1.6581   16.0145 C   0  0  0  0  0  0  0  0  0  0  0  0
    3.5782    0.8517   16.7182 H   0  0  0  0  0  0  0  0  0  0  0  0
    2.7495    2.4056   16.5254 H   0  0  0  0  0  0  0  0  0  0  0  0
    2.6485    1.0831   14.7927 C   0  0  0  0  0  0  0  0  0  0  0  0
    2.3241    1.8910   14.1320 H   0  0  0  0  0  0  0  0  0  0  0  0
    1.7654    0.5093   15.0773 H   0  0  0  0  0  0  0  0  0  0  0  0
    3.6700    0.1864   14.0881 C   0  0  1  0  0  0  0  0  0  0  0  0
    3.7716   -0.7343   14.6827 H   0  0  0  0  0  0  0  0  0  0  0  0
    3.3294   -0.2074   12.6583 C   0  0  0  0  0  0  0  0  0  0  0  0
    2.4062   -0.7842   12.6415 H   0  0  0  0  0  0  0  0  0  0  0  0
    4.1237   -0.8236   12.2384 H   0  0  0  0  0  0  0  0  0  0  0  0
    3.2004    0.6635   12.0191 H   0  0  0  0  0  0  0  0  0  0  0  0
    9.7422    3.4460   13.3953 C   0  0  0  0  0  0  0  0  0  0  0  0
   10.7214    3.8859   13.5763 H   0  0  0  0  0  0  0  0  0  0  0  0
    9.0845    3.7255   14.2174 H   0  0  0  0  0  0  0  0  0  0  0  0
    9.3404    3.8729   12.4793 H   0  0  0  0  0  0  0  0  0  0  0  0
    9.8609    1.9309   13.3128 C   0  0  2  0  0  0  0  0  0  0  0  0
   10.2999    1.5708   14.2545 H   0  0  0  0  0  0  0  0  0  0  0  0
   10.7204    1.3919   12.1655 C   0  0  0  0  0  0  0  0  0  0  0  0
   10.4970    1.9195   11.2350 H   0  0  0  0  0  0  0  0  0  0  0  0
   11.7805    1.5313   12.3820 H   0  0  0  0  0  0  0  0  0  0  0  0
   10.3680   -0.0859   12.0227 C   0  0  0  0  0  0  0  0  0  0  0  0
   10.6843   -0.6236   12.9203 H   0  0  0  0  0  0  0  0  0  0  0  0
   10.8557   -0.5383   11.1578 H   0  0  0  0  0  0  0  0  0  0  0  0
    8.8451   -0.1547   11.8990 C   0  0  1  0  0  0  0  0  0  0  0  0
    8.5413    0.2520   10.9256 H   0  0  0  0  0  0  0  0  0  0  0  0
    8.2473   -1.5424   12.0792 C   0  0  0  0  0  0  0  0  0  0  0  0
    8.6903   -2.2525   11.3830 H   0  0  0  0  0  0  0  0  0  0  0  0
    7.1716   -1.5139   11.9054 H   0  0  0  0  0  0  0  0  0  0  0  0
    8.4222   -1.8952   13.0964 H   0  0  0  0  0  0  0  0  0  0  0  0
    9.1199   -0.5506   15.7811 C   0  0  0  0  0  0  0  0  0  0  0  0
    9.8271    0.4328   16.4709 C   0  0  0  0  0  0  0  0  0  0  0  0
    9.4040    1.4298   16.5792 H   0  0  0  0  0  0  0  0  0  0  0  0
   11.0598    0.1622   17.0412 C   0  0  0  0  0  0  0  0  0  0  0  0
   11.5889    0.9394   17.5761 H   0  0  0  0  0  0  0  0  0  0  0  0
   11.6128   -1.1014   16.9257 C   0  0  0  0  0  0  0  0  0  0  0  0
   12.5771   -1.3149   17.3645 H   0  0  0  0  0  0  0  0  0  0  0  0
   10.9159   -2.0927   16.2584 C   0  0  0  0  0  0  0  0  0  0  0  0
   11.3324   -3.0874   16.1790 H   0  0  0  0  0  0  0  0  0  0  0  0
    9.6783   -1.8210   15.6971 C   0  0  0  0  0  0  0  0  0  0  0  0
    9.1409   -2.6254   15.2077 H   0  0  0  0  0  0  0  0  0  0  0  0
    5.6941    2.0308   12.8491 C   0  0  0  0  0  0  0  0  0  0  0  0
    4.7401    2.8200   12.2163 C   0  0  0  0  0  0  0  0  0  0  0  0
    3.7352    2.8691   12.6101 H   0  0  0  0  0  0  0  0  0  0  0  0
    5.0675    3.5517   11.0894 C   0  0  0  0  0  0  0  0  0  0  0  0
    4.3184    4.1608   10.6052 H   0  0  0  0  0  0  0  0  0  0  0  0
    6.3538    3.4968   10.5764 C   0  0  0  0  0  0  0  0  0  0  0  0
    6.6059    4.0552    9.6870 H   0  0  0  0  0  0  0  0  0  0  0  0
    7.3170    2.7309   11.2072 C   0  0  0  0  0  0  0  0  0  0  0  0
    8.3168    2.6891   10.7989 H   0  0  0  0  0  0  0  0  0  0  0  0
    7.0033    2.0075   12.3532 C   0  0  0  0  0  0  0  0  0  0  0  0
  1 41  1  0  0  0  0
  1  2  1  6  0  0  0
  3 52  1  6  0  0  0
  3  1  1  0  0  0  0
  3  9  1  0  0  0  0
  4 61  1  6  0  0  0
  4 27  1  0  0  0  0
  4  1  1  0  0  0  0
  5  8  1  0  0  0  0
  5  6  1  0  0  0  0
  7  5  1  0  0  0  0
  9 10  1  6  0  0  0
  9 11  1  0  0  0  0
  9  5  1  0  0  0  0
 11 13  1  0  0  0  0
 11 12  1  0  0  0  0
 14 16  1  0  0  0  0
 14 11  1  0  0  0  0
 15 14  1  0  0  0  0
 17  3  1  0  0  0  0
 17 18  1  1  0  0  0
 17 14  1  0  0  0  0
 19 17  1  0  0  0  0
 20 19  1  0  0  0  0
 21 19  1  0  0  0  0
 22 19  1  0  0  0  0
 23 24  1  0  0  0  0
 23 25  1  0  0  0  0
 26 23  1  0  0  0  0
 27 23  1  0  0  0  0
 27 28  1  1  0  0  0
 29 31  1  0  0  0  0
 29 27  1  0  0  0  0
 30 29  1  0  0  0  0
 32 29  1  0  0  0  0
 32 33  1  0  0  0  0
 34 32  1  0  0  0  0
 35 36  1  6  0  0  0
 35 32  1  0  0  0  0
 35 37  1  0  0  0  0
 35  4  1  0  0  0  0
 37 40  1  0  0  0  0
 38 37  1  0  0  0  0
 39 37  1  0  0  0  0
 41 42  1  0  0  0  0
 42 43  1  0  0  0  0
 42 44  2  0  0  0  0
 44 45  1  0  0  0  0
 46 44  1  0  0  0  0
 46 47  1  0  0  0  0
 48 46  2  0  0  0  0
 49 48  1  0  0  0  0
 50 41  2  0  0  0  0
 50 48  1  0  0  0  0
 51 50  1  0  0  0  0
 53 54  1  0  0  0  0
 53 52  2  0  0  0  0
 55 53  1  0  0  0  0
 56 55  1  0  0  0  0
 57 55  2  0  0  0  0
 57 59  1  0  0  0  0
 58 57  1  0  0  0  0
 59 61  2  0  0  0  0
 60 59  1  0  0  0  0
 61 52  1  0  0  0  0
M  END
$$$$
