CSD_code = QIFWAF | q = 0 | S = 0 | Stoichiometry = C16H22I2N4OPt | MND = 4
 OpenBabel04212202083D

 46 48  0  0  1  0  0  0  0  0999 V2000
    5.8172   10.4927    5.5204 C   0  0  0  0  0  0  0  0  0  0  0  0
    4.5615    9.9839    7.2762 C   0  0  0  0  0  0  0  0  0  0  0  0
    4.2039   10.0511    8.2826 H   0  0  0  0  0  0  0  0  0  0  0  0
    4.1979    9.1699    6.2578 C   0  0  0  0  0  0  0  0  0  0  0  0
    3.4583    8.3977    6.2105 H   0  0  0  0  0  0  0  0  0  0  0  0
    6.2430   11.8219    7.5523 C   0  0  0  0  0  0  0  0  0  0  0  0
    5.5662   12.6699    7.7030 H   0  0  0  0  0  0  0  0  0  0  0  0
    7.0896   12.1566    6.9295 H   0  0  0  0  0  0  0  0  0  0  0  0
    6.7358   11.2921    8.8722 C   0  0  0  0  0  0  0  0  0  0  0  0
    6.2868   11.8331   10.0684 C   0  0  0  0  0  0  0  0  0  0  0  0
    5.5895   12.6591   10.0565 H   0  0  0  0  0  0  0  0  0  0  0  0
    6.7326   11.3225   11.2755 C   0  0  0  0  0  0  0  0  0  0  0  0
    6.3804   11.7514   12.2020 H   0  0  0  0  0  0  0  0  0  0  0  0
    7.6237   10.2635   11.2941 C   0  0  0  0  0  0  0  0  0  0  0  0
    7.9686    9.8642   12.2362 H   0  0  0  0  0  0  0  0  0  0  0  0
    8.0732    9.7187   10.1026 C   0  0  0  0  0  0  0  0  0  0  0  0
    8.7708    8.8950   10.1107 H   0  0  0  0  0  0  0  0  0  0  0  0
    7.6327   10.2308    8.8963 C   0  0  0  0  0  0  0  0  0  0  0  0
    7.9895    9.8081    7.9692 H   0  0  0  0  0  0  0  0  0  0  0  0
    4.9405    8.8837    3.8849 C   0  0  0  0  0  0  0  0  0  0  0  0
    5.6247    9.4303    3.2250 H   0  0  0  0  0  0  0  0  0  0  0  0
    3.9320    8.9283    3.4722 H   0  0  0  0  0  0  0  0  0  0  0  0
    5.2634    7.8428    3.9447 H   0  0  0  0  0  0  0  0  0  0  0  0
    8.3097   12.9869    1.8468 C   0  0  1  0  0  0  0  0  0  0  0  0
    7.2319   13.0050    1.6569 H   0  0  0  0  0  0  0  0  0  0  0  0
    8.8737   14.4154    1.9754 C   0  0  0  0  0  0  0  0  0  0  0  0
    9.2262   14.8051    1.0220 H   0  0  0  0  0  0  0  0  0  0  0  0
    8.1008   15.0809    2.3637 H   0  0  0  0  0  0  0  0  0  0  0  0
    9.9887   14.2477    3.0035 C   0  0  0  0  0  0  0  0  0  0  0  0
   10.8739   13.8115    2.5374 H   0  0  0  0  0  0  0  0  0  0  0  0
   10.2647   15.1823    3.4862 H   0  0  0  0  0  0  0  0  0  0  0  0
    9.3540   13.2528    3.9705 C   0  0  0  0  0  0  0  0  0  0  0  0
   10.0811   12.7332    4.5975 H   0  0  0  0  0  0  0  0  0  0  0  0
    8.6395   13.7824    4.6153 H   0  0  0  0  0  0  0  0  0  0  0  0
    8.9973   12.2409    0.7011 C   0  0  0  0  0  0  0  0  0  0  0  0
    5.5603   10.7916    6.8022 N   0  0  0  0  0  0  0  0  0  0  0  0
    4.9806    9.5000    5.1827 N   0  0  0  0  0  0  0  0  0  0  0  0
    8.6255   12.2979    3.1122 N   0  0  0  0  0  4  0  0  0  0  0  0
    9.2973   11.5624    2.8347 H   0  0  0  0  0  0  0  0  0  0  0  0
    8.6017   12.6219   -0.5285 N   0  0  0  0  0  0  0  0  0  0  0  0
    9.0094   12.1752   -1.3332 H   0  0  0  0  0  0  0  0  0  0  0  0
    7.8697   13.2953   -0.6678 H   0  0  0  0  0  0  0  0  0  0  0  0
    9.8389   11.3935    0.9021 O   0  0  0  0  0  0  0  0  0  0  0  0
    5.3960   13.2791    3.9268 I   0  0  0  0  0  0  0  0  0  0  0  0
    8.8518    9.4527    4.9086 I   0  0  0  0  0  0  0  0  0  0  0  0
    7.1480   11.3609    4.3447 Pt  0  0  0  0  0  0  0  0  0  0  0  0
  1 36  1  0  0  0  0
  2  3  1  0  0  0  0
  4  2  2  0  0  0  0
  5  4  1  0  0  0  0
  6  7  1  0  0  0  0
  6  9  1  0  0  0  0
  8  6  1  0  0  0  0
  9 18  2  0  0  0  0
  9 10  1  0  0  0  0
 10 12  2  0  0  0  0
 11 10  1  0  0  0  0
 12 14  1  0  0  0  0
 12 13  1  0  0  0  0
 14 15  1  0  0  0  0
 16 17  1  0  0  0  0
 16 14  2  0  0  0  0
 18 16  1  0  0  0  0
 19 18  1  0  0  0  0
 20 23  1  0  0  0  0
 20 37  1  0  0  0  0
 21 20  1  0  0  0  0
 22 20  1  0  0  0  0
 24 25  1  6  0  0  0
 24 26  1  0  0  0  0
 24 38  1  0  0  0  0
 26 28  1  0  0  0  0
 26 29  1  0  0  0  0
 27 26  1  0  0  0  0
 29 31  1  0  0  0  0
 29 32  1  0  0  0  0
 30 29  1  0  0  0  0
 32 33  1  0  0  0  0
 32 34  1  0  0  0  0
 35 43  2  0  0  0  0
 35 24  1  0  0  0  0
 36  2  1  0  0  0  0
 36  6  1  0  0  0  0
 37  1  1  0  0  0  0
 37  4  1  0  0  0  0
 38 32  1  0  0  0  0
 38 46  1  0  0  0  0
 39 38  1  0  0  0  0
 40 35  1  0  0  0  0
 41 40  1  0  0  0  0
 42 40  1  0  0  0  0
 44 46  1  0  0  0  0
 46 45  1  0  0  0  0
 46  1  2  0  0  0  0
M  END
$$$$
