CSD_code = QIGCUG | q = 0 | S = 0 | Stoichiometry = C20H42Cl2P2Pd | MND = 4
 OpenBabel04212202083D

 67 68  0  0  1  0  0  0  0  0999 V2000
    4.2602    7.0520    8.1782 Pd  0  0  0  0  0  0  0  0  0  0  0  0
    3.1621    5.0777    7.9401 Cl  0  0  0  0  0  0  0  0  0  0  0  0
    5.5116    8.9733    8.2830 Cl  0  0  0  0  0  0  0  0  0  0  0  0
    3.4498    7.5391    6.0607 P   0  0  2  0  0  4  0  0  0  0  0  0
    4.9674    6.6348   10.3638 P   0  0  1  0  0  4  0  0  0  0  0  0
    2.1047    8.8359    6.3657 C   0  0  0  0  0  0  0  0  0  0  0  0
    1.3060    8.3013    7.5621 C   0  0  0  0  0  0  0  0  0  0  0  0
    1.9795    8.1427    8.4264 H   0  0  0  0  0  0  0  0  0  0  0  0
    0.8241    7.3540    7.3236 H   0  0  0  0  0  0  0  0  0  0  0  0
    0.5382    9.0158    7.8574 H   0  0  0  0  0  0  0  0  0  0  0  0
    1.1925    9.1105    5.1718 C   0  0  0  0  0  0  0  0  0  0  0  0
    0.4951    9.9061    5.4342 H   0  0  0  0  0  0  0  0  0  0  0  0
    0.6080    8.2410    4.8899 H   0  0  0  0  0  0  0  0  0  0  0  0
    1.7661    9.4455    4.3098 H   0  0  0  0  0  0  0  0  0  0  0  0
    2.7697   10.1529    6.7716 C   0  0  0  0  0  0  0  0  0  0  0  0
    2.0049   10.8785    7.0470 H   0  0  0  0  0  0  0  0  0  0  0  0
    3.3558   10.5746    5.9574 H   0  0  0  0  0  0  0  0  0  0  0  0
    3.4268   10.0129    7.6280 H   0  0  0  0  0  0  0  0  0  0  0  0
    2.7847    6.1585    4.9857 C   0  0  2  0  0  0  0  0  0  0  0  0
    3.5094    5.3522    5.1803 H   0  0  0  0  0  0  0  0  0  0  0  0
    2.9859    6.6303    3.5467 C   0  0  0  0  0  0  0  0  0  0  0  0
    2.8985    5.7903    2.8548 H   0  0  0  0  0  0  0  0  0  0  0  0
    2.2298    7.3674    3.2750 H   0  0  0  0  0  0  0  0  0  0  0  0
    4.3742    7.2473    3.4926 C   0  0  0  0  0  0  0  0  0  0  0  0
    4.5487    7.7705    2.5511 H   0  0  0  0  0  0  0  0  0  0  0  0
    5.1203    6.4536    3.5795 H   0  0  0  0  0  0  0  0  0  0  0  0
    4.5230    8.2097    4.6784 C   0  0  2  0  0  0  0  0  0  0  0  0
    4.1374    9.1957    4.4016 H   0  0  0  0  0  0  0  0  0  0  0  0
    1.3988    5.5793    5.2385 C   0  0  0  0  0  0  0  0  0  0  0  0
    0.6059    6.2820    4.9993 H   0  0  0  0  0  0  0  0  0  0  0  0
    1.2968    5.2598    6.2718 H   0  0  0  0  0  0  0  0  0  0  0  0
    1.2666    4.7028    4.6046 H   0  0  0  0  0  0  0  0  0  0  0  0
    5.9824    8.3387    5.1013 C   0  0  0  0  0  0  0  0  0  0  0  0
    6.3218    7.4055    5.5595 H   0  0  0  0  0  0  0  0  0  0  0  0
    6.1102    9.1398    5.8249 H   0  0  0  0  0  0  0  0  0  0  0  0
    6.6102    8.5491    4.2363 H   0  0  0  0  0  0  0  0  0  0  0  0
    6.7777    6.2051   10.2477 C   0  0  2  0  0  0  0  0  0  0  0  0
    6.9636    5.3311   10.8823 H   0  0  0  0  0  0  0  0  0  0  0  0
    7.5349    7.4072   10.8226 C   0  0  0  0  0  0  0  0  0  0  0  0
    8.5351    7.1183   11.1503 H   0  0  0  0  0  0  0  0  0  0  0  0
    7.6329    8.1759   10.0537 H   0  0  0  0  0  0  0  0  0  0  0  0
    6.6987    7.9609   11.9724 C   0  0  0  0  0  0  0  0  0  0  0  0
    7.0989    8.9120   12.3285 H   0  0  0  0  0  0  0  0  0  0  0  0
    6.6912    7.2632   12.8111 H   0  0  0  0  0  0  0  0  0  0  0  0
    5.2927    8.1571   11.4021 C   0  0  2  0  0  0  0  0  0  0  0  0
    5.3719    8.9443   10.6410 H   0  0  0  0  0  0  0  0  0  0  0  0
    7.1474    5.8569    8.8057 C   0  0  0  0  0  0  0  0  0  0  0  0
    7.0278    6.7372    8.1633 H   0  0  0  0  0  0  0  0  0  0  0  0
    6.5008    5.0535    8.4337 H   0  0  0  0  0  0  0  0  0  0  0  0
    8.1835    5.5263    8.7372 H   0  0  0  0  0  0  0  0  0  0  0  0
    4.2331    8.6226   12.3906 C   0  0  0  0  0  0  0  0  0  0  0  0
    4.1368    7.9671   13.2519 H   0  0  0  0  0  0  0  0  0  0  0  0
    3.2656    8.6995   11.8960 H   0  0  0  0  0  0  0  0  0  0  0  0
    4.5009    9.6129   12.7583 H   0  0  0  0  0  0  0  0  0  0  0  0
    4.2410    5.2511   11.4313 C   0  0  0  0  0  0  0  0  0  0  0  0
    4.8092    5.1889   12.8481 C   0  0  0  0  0  0  0  0  0  0  0  0
    4.5669    6.0708   13.4316 H   0  0  0  0  0  0  0  0  0  0  0  0
    5.8894    5.0586   12.8406 H   0  0  0  0  0  0  0  0  0  0  0  0
    4.3774    4.3280   13.3585 H   0  0  0  0  0  0  0  0  0  0  0  0
    2.7315    5.4969   11.4672 C   0  0  0  0  0  0  0  0  0  0  0  0
    2.3399    5.5503   10.4503 H   0  0  0  0  0  0  0  0  0  0  0  0
    2.4967    6.4268   11.9823 H   0  0  0  0  0  0  0  0  0  0  0  0
    2.2257    4.6819   11.9831 H   0  0  0  0  0  0  0  0  0  0  0  0
    4.5259    3.9085   10.7526 C   0  0  0  0  0  0  0  0  0  0  0  0
    3.9908    3.1182   11.2774 H   0  0  0  0  0  0  0  0  0  0  0  0
    5.5861    3.6643   10.7739 H   0  0  0  0  0  0  0  0  0  0  0  0
    4.1860    3.9120    9.7209 H   0  0  0  0  0  0  0  0  0  0  0  0
  1  3  1  0  0  0  0
  1  5  1  0  0  0  0
  2  1  1  0  0  0  0
  4  6  1  1  0  0  0
  4  1  1  0  0  0  0
  5 45  1  0  0  0  0
  5 55  1  1  0  0  0
  6 15  1  0  0  0  0
  6  7  1  0  0  0  0
  7 10  1  0  0  0  0
  7  8  1  0  0  0  0
  9  7  1  0  0  0  0
 11 12  1  0  0  0  0
 11  6  1  0  0  0  0
 13 11  1  0  0  0  0
 14 11  1  0  0  0  0
 15 16  1  0  0  0  0
 15 18  1  0  0  0  0
 17 15  1  0  0  0  0
 19 20  1  1  0  0  0
 19 29  1  0  0  0  0
 19  4  1  0  0  0  0
 21 19  1  0  0  0  0
 22 21  1  0  0  0  0
 23 21  1  0  0  0  0
 24 21  1  0  0  0  0
 24 26  1  0  0  0  0
 24 27  1  0  0  0  0
 25 24  1  0  0  0  0
 27 28  1  6  0  0  0
 27 33  1  0  0  0  0
 27  4  1  0  0  0  0
 29 31  1  0  0  0  0
 30 29  1  0  0  0  0
 32 29  1  0  0  0  0
 33 34  1  0  0  0  0
 33 35  1  0  0  0  0
 36 33  1  0  0  0  0
 37  5  1  0  0  0  0
 37 39  1  0  0  0  0
 37 38  1  1  0  0  0
 39 40  1  0  0  0  0
 39 42  1  0  0  0  0
 41 39  1  0  0  0  0
 42 43  1  0  0  0  0
 42 44  1  0  0  0  0
 45 46  1  6  0  0  0
 45 42  1  0  0  0  0
 45 51  1  0  0  0  0
 47 37  1  0  0  0  0
 48 47  1  0  0  0  0
 49 47  1  0  0  0  0
 50 47  1  0  0  0  0
 51 54  1  0  0  0  0
 51 52  1  0  0  0  0
 53 51  1  0  0  0  0
 55 60  1  0  0  0  0
 55 56  1  0  0  0  0
 56 59  1  0  0  0  0
 56 57  1  0  0  0  0
 58 56  1  0  0  0  0
 60 62  1  0  0  0  0
 60 63  1  0  0  0  0
 61 60  1  0  0  0  0
 64 66  1  0  0  0  0
 64 65  1  0  0  0  0
 64 55  1  0  0  0  0
 67 64  1  0  0  0  0
M  END
$$$$
