CSD_code = QIGCOA | q = 0 | S = 0 | Stoichiometry = C18H38Cl2P2Pd | MND = 4
 OpenBabel04212202083D

 61 62  0  0  1  0  0  0  0  0999 V2000
    8.3483    0.4242   14.0773 Pd  0  0  0  0  0  0  0  0  0  0  0  0
    7.5201    2.5561   13.8557 Cl  0  0  0  0  0  0  0  0  0  0  0  0
    9.2004   -1.6706   14.3023 Cl  0  0  0  0  0  0  0  0  0  0  0  0
    7.5571   -0.1357   12.0205 P   0  0  2  0  0  4  0  0  0  0  0  0
    9.1618    0.9895   16.1268 P   0  0  2  0  0  4  0  0  0  0  0  0
    5.6923   -0.1586   12.0606 C   0  0  0  0  0  0  0  0  0  0  0  0
    5.3272   -0.9188   11.3596 H   0  0  0  0  0  0  0  0  0  0  0  0
    5.3437   -0.5728   13.4943 C   0  0  0  0  0  0  0  0  0  0  0  0
    5.6542    0.2241   14.1843 H   0  0  0  0  0  0  0  0  0  0  0  0
    5.8604   -1.4980   13.7675 H   0  0  0  0  0  0  0  0  0  0  0  0
    4.2715   -0.7270   13.6089 H   0  0  0  0  0  0  0  0  0  0  0  0
    5.0654    1.1878   11.7160 C   0  0  0  0  0  0  0  0  0  0  0  0
    4.0026    1.1697   11.9531 H   0  0  0  0  0  0  0  0  0  0  0  0
    5.1695    1.4133   10.6568 H   0  0  0  0  0  0  0  0  0  0  0  0
    5.5324    1.9832   12.2946 H   0  0  0  0  0  0  0  0  0  0  0  0
    8.0074   -1.7084   11.1491 C   0  0  2  0  0  0  0  0  0  0  0  0
    9.0919   -1.8146   11.2900 H   0  0  0  0  0  0  0  0  0  0  0  0
    7.7209   -1.3802    9.6846 C   0  0  0  0  0  0  0  0  0  0  0  0
    8.1095   -2.1573    9.0240 H   0  0  0  0  0  0  0  0  0  0  0  0
    6.6421   -1.3131    9.5233 H   0  0  0  0  0  0  0  0  0  0  0  0
    8.3783   -0.0325    9.3992 C   0  0  0  0  0  0  0  0  0  0  0  0
    7.9924    0.4051    8.4777 H   0  0  0  0  0  0  0  0  0  0  0  0
    9.4521   -0.1840    9.2713 H   0  0  0  0  0  0  0  0  0  0  0  0
    8.1432    0.9090   10.5960 C   0  0  2  0  0  0  0  0  0  0  0  0
    7.3920    1.6676   10.3646 H   0  0  0  0  0  0  0  0  0  0  0  0
    7.3368   -2.9770   11.6527 C   0  0  0  0  0  0  0  0  0  0  0  0
    6.2554   -2.9338   11.5413 H   0  0  0  0  0  0  0  0  0  0  0  0
    7.5820   -3.1351   12.7007 H   0  0  0  0  0  0  0  0  0  0  0  0
    7.7008   -3.8333   11.0868 H   0  0  0  0  0  0  0  0  0  0  0  0
    9.4309    1.6076   11.0392 C   0  0  0  0  0  0  0  0  0  0  0  0
   10.1399    0.8723   11.4361 H   0  0  0  0  0  0  0  0  0  0  0  0
    9.2086    2.3416   11.8155 H   0  0  0  0  0  0  0  0  0  0  0  0
    9.8996    2.1255   10.2037 H   0  0  0  0  0  0  0  0  0  0  0  0
   10.2726    2.4574   15.8396 C   0  0  0  0  0  0  0  0  0  0  0  0
    9.5618    3.2183   15.4832 H   0  0  0  0  0  0  0  0  0  0  0  0
   11.2093    2.1051   14.6795 C   0  0  0  0  0  0  0  0  0  0  0  0
   11.6498    3.0063   14.2558 H   0  0  0  0  0  0  0  0  0  0  0  0
   10.6464    1.5872   13.8832 H   0  0  0  0  0  0  0  0  0  0  0  0
   12.0134    1.4508   15.0099 H   0  0  0  0  0  0  0  0  0  0  0  0
   11.0273    3.0292   17.0330 C   0  0  0  0  0  0  0  0  0  0  0  0
   11.7928    2.3446   17.3895 H   0  0  0  0  0  0  0  0  0  0  0  0
   10.3521    3.2618   17.8538 H   0  0  0  0  0  0  0  0  0  0  0  0
   11.5210    3.9534   16.7343 H   0  0  0  0  0  0  0  0  0  0  0  0
    9.9699   -0.2648   17.2299 C   0  0  2  0  0  0  0  0  0  0  0  0
    9.3581   -1.1664   17.0774 H   0  0  0  0  0  0  0  0  0  0  0  0
    9.7275    0.2482   18.6478 C   0  0  0  0  0  0  0  0  0  0  0  0
    9.9246   -0.5356   19.3819 H   0  0  0  0  0  0  0  0  0  0  0  0
   10.3884    1.0869   18.8683 H   0  0  0  0  0  0  0  0  0  0  0  0
    8.2684    0.6908   18.6990 C   0  0  0  0  0  0  0  0  0  0  0  0
    7.6332   -0.1978   18.7163 H   0  0  0  0  0  0  0  0  0  0  0  0
    8.0584    1.2694   19.5997 H   0  0  0  0  0  0  0  0  0  0  0  0
    7.9445    1.5084   17.4369 C   0  0  2  0  0  0  0  0  0  0  0  0
    8.0689    2.5802   17.6238 H   0  0  0  0  0  0  0  0  0  0  0  0
   11.4104   -0.6270   16.9048 C   0  0  0  0  0  0  0  0  0  0  0  0
   12.0863    0.2061   17.0810 H   0  0  0  0  0  0  0  0  0  0  0  0
   11.4857   -0.9378   15.8642 H   0  0  0  0  0  0  0  0  0  0  0  0
   11.7302   -1.4593   17.5302 H   0  0  0  0  0  0  0  0  0  0  0  0
    6.5251    1.2448   16.9350 C   0  0  0  0  0  0  0  0  0  0  0  0
    6.4467    0.2126   16.5737 H   0  0  0  0  0  0  0  0  0  0  0  0
    6.2836    1.9242   16.1179 H   0  0  0  0  0  0  0  0  0  0  0  0
    5.7971    1.3917   17.7317 H   0  0  0  0  0  0  0  0  0  0  0  0
  1  3  1  0  0  0  0
  1  5  1  0  0  0  0
  2  1  1  0  0  0  0
  4  6  1  1  0  0  0
  4  1  1  0  0  0  0
  5 34  1  6  0  0  0
  5 44  1  0  0  0  0
  5 52  1  0  0  0  0
  6  8  1  0  0  0  0
  7  6  1  0  0  0  0
  8 11  1  0  0  0  0
  8 10  1  0  0  0  0
  8  9  1  0  0  0  0
 12 13  1  0  0  0  0
 12  6  1  0  0  0  0
 12 15  1  0  0  0  0
 14 12  1  0  0  0  0
 16 17  1  1  0  0  0
 16 26  1  0  0  0  0
 16  4  1  0  0  0  0
 18 16  1  0  0  0  0
 19 18  1  0  0  0  0
 20 18  1  0  0  0  0
 21 18  1  0  0  0  0
 21 24  1  0  0  0  0
 22 21  1  0  0  0  0
 23 21  1  0  0  0  0
 24 25  1  6  0  0  0
 24 30  1  0  0  0  0
 24  4  1  0  0  0  0
 26 28  1  0  0  0  0
 27 26  1  0  0  0  0
 29 26  1  0  0  0  0
 30 31  1  0  0  0  0
 30 32  1  0  0  0  0
 33 30  1  0  0  0  0
 34 40  1  0  0  0  0
 35 34  1  0  0  0  0
 36 39  1  0  0  0  0
 36 34  1  0  0  0  0
 37 36  1  0  0  0  0
 38 36  1  0  0  0  0
 40 41  1  0  0  0  0
 40 42  1  0  0  0  0
 43 40  1  0  0  0  0
 44 45  1  6  0  0  0
 44 46  1  0  0  0  0
 46 49  1  0  0  0  0
 46 48  1  0  0  0  0
 46 47  1  0  0  0  0
 49 50  1  0  0  0  0
 49 51  1  0  0  0  0
 52 53  1  1  0  0  0
 52 49  1  0  0  0  0
 54 55  1  0  0  0  0
 54 44  1  0  0  0  0
 54 57  1  0  0  0  0
 56 54  1  0  0  0  0
 58 52  1  0  0  0  0
 58 61  1  0  0  0  0
 59 58  1  0  0  0  0
 60 58  1  0  0  0  0
M  END
$$$$
