CSD_code = QIGNUP | q = 0 | S = 0 | Stoichiometry = C15H27ClN2Pd | MND = 5
 OpenBabel04212202083D

 46 45  0  0  1  0  0  0  0  0999 V2000
    0.8176    4.2582    2.9830 Pd  0  0  0  0  0  0  0  0  0  0  0  0
    2.3234    2.5034    3.1393 Cl  0  0  0  0  0 15  0  0  0  0  0  0
    3.3040    5.7773    3.8310 N   0  0  0  0  0  0  0  0  0  0  0  0
    2.2445    5.0361    5.5625 N   0  0  0  0  0  0  0  0  0  0  0  0
    2.1398    5.2074    4.2239 C   0  0  2  0  0  3  0  0  0  0  0  0
    4.1241    5.9519    4.9171 C   0  0  0  0  0  0  0  0  0  0  0  0
    5.1029    6.3767    4.8559 H   0  0  0  0  0  0  0  0  0  0  0  0
    3.4644    5.4904    5.9957 C   0  0  0  0  0  0  0  0  0  0  0  0
    3.7813    5.4518    7.0157 H   0  0  0  0  0  0  0  0  0  0  0  0
    3.8122    6.0468    2.4785 C   0  0  0  0  0  0  0  0  0  0  0  0
    2.7172    5.9660    1.4153 C   0  0  0  0  0  0  0  0  0  0  0  0
    3.1416    6.2430    0.4526 H   0  0  0  0  0  0  0  0  0  0  0  0
    1.9079    6.6606    1.6511 H   0  0  0  0  0  0  0  0  0  0  0  0
    2.3367    4.9330    1.3330 H   0  0  0  0  0  0  0  0  0  0  0  0
    4.8756    4.9850    2.1768 C   0  0  0  0  0  0  0  0  0  0  0  0
    5.2498    5.1046    1.1638 H   0  0  0  0  0  0  0  0  0  0  0  0
    4.4305    3.9957    2.2766 H   0  0  0  0  0  0  0  0  0  0  0  0
    5.7125    5.0559    2.8671 H   0  0  0  0  0  0  0  0  0  0  0  0
    4.4074    7.4614    2.4483 C   0  0  0  0  0  0  0  0  0  0  0  0
    4.6849    7.7168    1.4293 H   0  0  0  0  0  0  0  0  0  0  0  0
    5.2989    7.5439    3.0629 H   0  0  0  0  0  0  0  0  0  0  0  0
    3.6748    8.1857    2.7986 H   0  0  0  0  0  0  0  0  0  0  0  0
    1.3463    4.3355    6.4891 C   0  0  0  0  0  0  0  0  0  0  0  0
    2.0195    3.0080    6.8552 C   0  0  0  0  0  0  0  0  0  0  0  0
    1.3648    2.4167    7.4895 H   0  0  0  0  0  0  0  0  0  0  0  0
    2.9574    3.1705    7.3800 H   0  0  0  0  0  0  0  0  0  0  0  0
    2.2277    2.4505    5.9428 H   0  0  0  0  0  0  0  0  0  0  0  0
   -0.0151    4.0423    5.8603 C   0  0  0  0  0  0  0  0  0  0  0  0
   -0.6685    3.6117    6.6160 H   0  0  0  0  0  0  0  0  0  0  0  0
    0.0932    3.3080    5.0444 H   0  0  0  0  0  0  0  0  0  0  0  0
   -0.4678    4.9656    5.4907 H   0  0  0  0  0  0  0  0  0  0  0  0
    1.1291    5.2155    7.7272 C   0  0  0  0  0  0  0  0  0  0  0  0
    0.4031    4.7453    8.3848 H   0  0  0  0  0  0  0  0  0  0  0  0
    0.7484    6.1914    7.4329 H   0  0  0  0  0  0  0  0  0  0  0  0
    2.0447    5.3574    8.2935 H   0  0  0  0  0  0  0  0  0  0  0  0
   -0.7402    5.5958    2.5035 C   0  0  0  0  0  3  0  0  0  0  0  0
   -0.4030    6.1273    1.6155 H   0  0  0  0  0  0  0  0  0  0  0  0
   -1.2714    6.2297    3.2067 H   0  0  0  0  0  0  0  0  0  0  0  0
   -1.1866    4.2620    2.3434 C   0  0  0  0  0  0  0  0  0  0  0  0
   -0.4520    3.4277    1.4927 C   0  0  0  0  0  3  0  0  0  0  0  0
   -0.0033    3.8442    0.5856 H   0  0  0  0  0  0  0  0  0  0  0  0
   -0.7416    2.3836    1.4102 H   0  0  0  0  0  0  0  0  0  0  0  0
   -2.2566    3.6798    3.2296 C   0  0  0  0  0  0  0  0  0  0  0  0
   -2.4586    4.3154    4.0907 H   0  0  0  0  0  0  0  0  0  0  0  0
   -1.9878    2.6792    3.5739 H   0  0  0  0  0  0  0  0  0  0  0  0
   -3.1772    3.5961    2.6487 H   0  0  0  0  0  0  0  0  0  0  0  0
  3  5  1  0  0  0  0
  3  6  1  0  0  0  0
  4  8  1  0  0  0  0
  4 23  1  0  0  0  0
  5  1  1  6  0  0  0
  5  4  1  0  0  0  0
  6  8  2  0  0  0  0
  7  6  1  0  0  0  0
  8  9  1  0  0  0  0
 10  3  1  0  0  0  0
 11 13  1  0  0  0  0
 11 10  1  0  0  0  0
 12 11  1  0  0  0  0
 14 11  1  0  0  0  0
 15 17  1  0  0  0  0
 15 10  1  0  0  0  0
 15 18  1  0  0  0  0
 16 15  1  0  0  0  0
 19 10  1  0  0  0  0
 19 22  1  0  0  0  0
 19 21  1  0  0  0  0
 20 19  1  0  0  0  0
 23 24  1  0  0  0  0
 23 32  1  0  0  0  0
 24 26  1  0  0  0  0
 24 25  1  0  0  0  0
 27 24  1  0  0  0  0
 28 23  1  0  0  0  0
 28 29  1  0  0  0  0
 30 28  1  0  0  0  0
 31 28  1  0  0  0  0
 32 35  1  0  0  0  0
 32 33  1  0  0  0  0
 34 32  1  0  0  0  0
 36 38  1  0  0  0  0
 37 36  1  0  0  0  0
 39 36  1  0  0  0  0
 39  1  1  0  0  0  0
 39 43  1  0  0  0  0
 40 39  1  0  0  0  0
 41 40  1  0  0  0  0
 42 40  1  0  0  0  0
 43 45  1  0  0  0  0
 43 44  1  0  0  0  0
 46 43  1  0  0  0  0
M  END
$$$$
