CSD_code = QIGPON | q = 0 | S = 0 | Stoichiometry = C26H28ClN2Rh | MND = 6
 OpenBabel04212202083D

 58 60  0  0  1  0  0  0  0  0999 V2000
    2.7548    8.3475    1.6941 Rh  0  0  0  0  0  0  0  0  0  0  0  0
    4.5839    9.0172    0.5366 Cl  0  0  0  0  0 15  0  0  0  0  0  0
    3.4068   10.3763    3.7166 N   0  0  0  0  0  0  0  0  0  0  0  0
    4.2089    8.2592    4.1639 N   0  0  0  0  0  0  0  0  0  0  0  0
    4.7720   10.0555    5.6734 C   0  0  0  0  0  0  0  0  0  0  0  0
    5.5797   10.5350    6.6882 C   0  0  0  0  0  0  0  0  0  0  0  0
    6.0392    9.8312    7.3673 H   0  0  0  0  0  0  0  0  0  0  0  0
    5.7848   11.8934    6.8460 C   0  0  0  0  0  0  0  0  0  0  0  0
    6.4050   12.2649    7.6466 H   0  0  0  0  0  0  0  0  0  0  0  0
    5.1793   12.7631    5.9582 C   0  0  0  0  0  0  0  0  0  0  0  0
    5.3249   13.8284    6.0603 H   0  0  0  0  0  0  0  0  0  0  0  0
    4.3921   12.2901    4.9249 C   0  0  0  0  0  0  0  0  0  0  0  0
    3.9654   13.0125    4.2548 H   0  0  0  0  0  0  0  0  0  0  0  0
    4.1674   10.9228    4.7561 C   0  0  0  0  0  0  0  0  0  0  0  0
    3.5390    9.0708    3.3471 C   0  0  1  0  0  3  0  0  0  0  0  0
    4.5103    8.5893    5.5405 C   0  0  0  0  0  0  0  0  0  0  0  0
    5.3850    8.0183    5.8657 H   0  0  0  0  0  0  0  0  0  0  0  0
    3.6565    8.2942    6.1772 H   0  0  0  0  0  0  0  0  0  0  0  0
    4.6242    6.9336    3.7467 C   0  0  0  0  0  0  0  0  0  0  0  0
    4.2698    6.8036    2.7097 H   0  0  0  0  0  0  0  0  0  0  0  0
    4.1630    6.1836    4.4017 H   0  0  0  0  0  0  0  0  0  0  0  0
    6.1252    6.8168    3.7811 C   0  0  0  0  0  0  0  0  0  0  0  0
    6.8862    7.6302    2.9492 C   0  0  0  0  0  0  0  0  0  0  0  0
    6.3865    8.3031    2.2670 H   0  0  0  0  0  0  0  0  0  0  0  0
    8.2663    7.5606    2.9856 C   0  0  0  0  0  0  0  0  0  0  0  0
    8.8512    8.1926    2.3344 H   0  0  0  0  0  0  0  0  0  0  0  0
    8.8978    6.6808    3.8503 C   0  0  0  0  0  0  0  0  0  0  0  0
    9.9764    6.6275    3.8781 H   0  0  0  0  0  0  0  0  0  0  0  0
    8.1443    5.8660    4.6770 C   0  0  0  0  0  0  0  0  0  0  0  0
    8.6320    5.1762    5.3507 H   0  0  0  0  0  0  0  0  0  0  0  0
    6.7617    5.9363    4.6451 C   0  0  0  0  0  0  0  0  0  0  0  0
    6.1753    5.2976    5.2928 H   0  0  0  0  0  0  0  0  0  0  0  0
    2.5606   11.2110    2.8560 C   0  0  0  0  0  0  0  0  0  0  0  0
    2.0334   10.4714    2.2243 H   0  0  0  0  0  0  0  0  0  0  0  0
    1.4977   11.9573    3.6611 C   0  0  0  0  0  0  0  0  0  0  0  0
    0.9569   11.2555    4.2939 H   0  0  0  0  0  0  0  0  0  0  0  0
    0.7911   12.4225    2.9773 H   0  0  0  0  0  0  0  0  0  0  0  0
    1.9123   12.7333    4.2965 H   0  0  0  0  0  0  0  0  0  0  0  0
    3.3462   12.0803    1.8725 C   0  0  0  0  0  0  0  0  0  0  0  0
    4.0172   11.4376    1.3052 H   0  0  0  0  0  0  0  0  0  0  0  0
    3.9343   12.8623    2.3388 H   0  0  0  0  0  0  0  0  0  0  0  0
    2.6493   12.5473    1.1798 H   0  0  0  0  0  0  0  0  0  0  0  0
    1.2852    6.9843    2.4535 C   0  0  1  0  0  3  0  0  0  0  0  0
    0.7005    8.0634    2.2529 C   0  0  0  0  0  2  0  0  0  0  0  0
   -0.2227    8.9280    1.4965 C   0  0  0  0  0  0  0  0  0  0  0  0
   -0.3372    9.9219    1.9316 H   0  0  0  0  0  0  0  0  0  0  0  0
   -1.2062    8.4493    1.4667 H   0  0  0  0  0  0  0  0  0  0  0  0
    0.3632    9.0430    0.0350 C   0  0  0  0  0  0  0  0  0  0  0  0
   -0.4349    8.9247   -0.7018 H   0  0  0  0  0  0  0  0  0  0  0  0
    0.8275   10.0222   -0.1095 H   0  0  0  0  0  0  0  0  0  0  0  0
    1.3532    7.9701   -0.1001 C   0  0  0  0  0  0  0  0  0  0  0  0
    1.9162    6.9034    0.0957 C   0  0  0  0  0  0  0  0  0  0  0  0
    2.2006    5.5832    0.6641 C   0  0  0  0  0  0  0  0  0  0  0  0
    3.2772    5.3982    0.7063 H   0  0  0  0  0  0  0  0  0  0  0  0
    1.7380    4.7988    0.0600 H   0  0  0  0  0  0  0  0  0  0  0  0
    1.5887    5.5812    2.1200 C   0  0  0  0  0  0  0  0  0  0  0  0
    0.6567    5.0076    2.1315 H   0  0  0  0  0  0  0  0  0  0  0  0
    2.2884    5.1149    2.8150 H   0  0  0  0  0  0  0  0  0  0  0  0
  3 14  1  0  0  0  0
  4 16  1  0  0  0  0
  5  6  1  0  0  0  0
  6  8  2  0  0  0  0
  6  7  1  0  0  0  0
  8  9  1  0  0  0  0
 10 11  1  0  0  0  0
 10  8  1  0  0  0  0
 12 10  2  0  0  0  0
 13 12  1  0  0  0  0
 14 12  1  0  0  0  0
 14  5  2  0  0  0  0
 15  1  1  1  0  0  0
 15  3  1  0  0  0  0
 15  4  1  0  0  0  0
 16  5  1  0  0  0  0
 16 17  1  0  0  0  0
 16 18  1  0  0  0  0
 19 22  1  0  0  0  0
 19  4  1  0  0  0  0
 19 21  1  0  0  0  0
 20 19  1  0  0  0  0
 22 31  1  0  0  0  0
 23 25  1  0  0  0  0
 23 22  2  0  0  0  0
 24 23  1  0  0  0  0
 25 27  2  0  0  0  0
 26 25  1  0  0  0  0
 27 28  1  0  0  0  0
 27 29  1  0  0  0  0
 29 30  1  0  0  0  0
 31 29  2  0  0  0  0
 31 32  1  0  0  0  0
 33 35  1  0  0  0  0
 33  3  1  0  0  0  0
 34 33  1  0  0  0  0
 35 36  1  0  0  0  0
 35 38  1  0  0  0  0
 37 35  1  0  0  0  0
 39 41  1  0  0  0  0
 39 33  1  0  0  0  0
 40 39  1  0  0  0  0
 42 39  1  0  0  0  0
 43  1  1  6  0  0  0
 44 43  1  0  0  0  0
 45 46  1  0  0  0  0
 45 44  1  0  0  0  0
 47 45  1  0  0  0  0
 48 45  1  0  0  0  0
 49 48  1  0  0  0  0
 50 48  1  0  0  0  0
 51 48  1  0  0  0  0
 51 52  3  0  0  0  0
 52 53  1  0  0  0  0
 53 54  1  0  0  0  0
 53 56  1  0  0  0  0
 55 53  1  0  0  0  0
 56 57  1  0  0  0  0
 56 43  1  0  0  0  0
 56 58  1  0  0  0  0
M  END
$$$$
