CSD_code = QIGVAF | q = 0 | S = 0 | Stoichiometry = C22H28BrFeN3O3 | MND = 6
 OpenBabel04212202083D

 58 62  0  0  1  0  0  0  0  0999 V2000
    2.6340    5.4803    1.3580 Br  0  0  0  0  0  0  0  0  0  0  0  0
    0.3798    7.1045    2.5551 C   0  0  0  0  0  0  0  0  0  0  0  0
   -0.6092    7.2726    1.5776 C   0  0  0  0  0  0  0  0  0  0  0  0
   -1.0507    8.5404    1.2129 C   0  0  0  0  0  0  0  0  0  0  0  0
   -1.8109    8.6535    0.4538 H   0  0  0  0  0  0  0  0  0  0  0  0
   -0.4943    9.6515    1.8304 C   0  0  0  0  0  0  0  0  0  0  0  0
   -0.8326   10.6379    1.5493 H   0  0  0  0  0  0  0  0  0  0  0  0
    0.4974    9.5210    2.7922 C   0  0  0  0  0  0  0  0  0  0  0  0
    0.9355   10.3933    3.2549 H   0  0  0  0  0  0  0  0  0  0  0  0
    0.9300    8.2478    3.1485 C   0  0  0  0  0  0  0  0  0  0  0  0
   -1.0130    5.9888    1.0595 C   0  0  1  0  0  3  0  0  0  0  0  0
   -2.0101    4.3844   -0.1054 C   0  0  0  0  0  0  0  0  0  0  0  0
   -1.7508    4.1934   -1.1504 H   0  0  0  0  0  0  0  0  0  0  0  0
   -3.0350    4.0521    0.0797 H   0  0  0  0  0  0  0  0  0  0  0  0
   -0.9887    3.7548    0.8812 C   0  0  0  0  0  0  0  0  0  0  0  0
   -1.6609    2.8651    1.9278 C   0  0  0  0  0  0  0  0  0  0  0  0
   -0.9246    2.5735    2.6735 H   0  0  0  0  0  0  0  0  0  0  0  0
   -2.0734    1.9748    1.4596 H   0  0  0  0  0  0  0  0  0  0  0  0
   -2.4591    3.4065    2.4317 H   0  0  0  0  0  0  0  0  0  0  0  0
    0.1237    2.9941    0.1610 C   0  0  0  0  0  0  0  0  0  0  0  0
    0.6294    3.6414   -0.5520 H   0  0  0  0  0  0  0  0  0  0  0  0
   -0.2843    2.1310   -0.3595 H   0  0  0  0  0  0  0  0  0  0  0  0
    0.8604    2.6632    0.8886 H   0  0  0  0  0  0  0  0  0  0  0  0
    1.9549    7.8698    4.0900 C   0  0  2  0  0  3  0  0  0  0  0  0
    3.5813    7.9273    5.5989 C   0  0  0  0  0  0  0  0  0  0  0  0
    3.4175    8.1413    6.6584 H   0  0  0  0  0  0  0  0  0  0  0  0
    4.6001    8.2148    5.3248 H   0  0  0  0  0  0  0  0  0  0  0  0
    3.2645    6.4521    5.2294 C   0  0  0  0  0  0  0  0  0  0  0  0
    2.7252    5.6558    6.4185 C   0  0  0  0  0  0  0  0  0  0  0  0
    1.8789    6.1705    6.8691 H   0  0  0  0  0  0  0  0  0  0  0  0
    3.5016    5.5210    7.1674 H   0  0  0  0  0  0  0  0  0  0  0  0
    2.3856    4.6827    6.0708 H   0  0  0  0  0  0  0  0  0  0  0  0
    4.4604    5.7388    4.6008 C   0  0  0  0  0  0  0  0  0  0  0  0
    4.1546    4.7487    4.2724 H   0  0  0  0  0  0  0  0  0  0  0  0
    5.2682    5.6471    5.3229 H   0  0  0  0  0  0  0  0  0  0  0  0
    4.8145    6.2835    3.7284 H   0  0  0  0  0  0  0  0  0  0  0  0
   -0.2300    5.3903    4.2170 C   0  0  0  0  0  2  0  0  0  0  0  0
    1.6579    3.6869    3.4126 C   0  0  0  0  0  2  0  0  0  0  0  0
    2.8249    1.4026    3.6298 C   0  0  0  0  0  0  0  0  0  0  0  0
    1.7903    0.2843    3.4688 C   0  0  0  0  0  0  0  0  0  0  0  0
    1.0432    0.3391    4.2581 H   0  0  0  0  0  0  0  0  0  0  0  0
    2.2826   -0.6833    3.5201 H   0  0  0  0  0  0  0  0  0  0  0  0
    1.2870    0.3687    2.5079 H   0  0  0  0  0  0  0  0  0  0  0  0
    3.8537    1.3633    2.4957 C   0  0  0  0  0  0  0  0  0  0  0  0
    3.3603    1.4468    1.5303 H   0  0  0  0  0  0  0  0  0  0  0  0
    4.4071    0.4284    2.5303 H   0  0  0  0  0  0  0  0  0  0  0  0
    4.5511    2.1927    2.5856 H   0  0  0  0  0  0  0  0  0  0  0  0
    3.5139    1.3109    4.9950 C   0  0  0  0  0  0  0  0  0  0  0  0
    4.2369    2.1156    5.1093 H   0  0  0  0  0  0  0  0  0  0  0  0
    4.0338    0.3606    5.0820 H   0  0  0  0  0  0  0  0  0  0  0  0
    2.7823    1.3840    5.7972 H   0  0  0  0  0  0  0  0  0  0  0  0
    1.0123    5.3618    3.0168 Fe  0  0  0  0  0  0  0  0  0  0  0  0
   -0.4394    4.9330    1.5343 N   0  0  1  0  0  0  0  0  0  0  0  0
    2.2088    6.6121    4.2415 N   0  0  2  0  0  0  0  0  0  0  0  0
    2.1518    2.6392    3.5578 N   0  0  0  0  0  2  0  0  0  0  0  0
   -1.9445    5.7906    0.1239 O   0  0  0  0  0  0  0  0  0  0  0  0
    2.6711    8.7155    4.8343 O   0  0  0  0  0  0  0  0  0  0  0  0
   -1.0756    5.4686    4.9924 O   0  0  0  0  0  1  0  0  0  0  0  0
  1 52  1  0  0  0  0
  2 52  1  0  0  0  0
  2 10  1  0  0  0  0
  3  2  2  0  0  0  0
  4  3  1  0  0  0  0
  4  6  2  0  0  0  0
  5  4  1  0  0  0  0
  6  8  1  0  0  0  0
  7  6  1  0  0  0  0
  8 10  2  0  0  0  0
  8  9  1  0  0  0  0
 11 56  1  1  0  0  0
 11 53  1  0  0  0  0
 11  3  1  0  0  0  0
 12 14  1  0  0  0  0
 12 56  1  0  0  0  0
 12 15  1  0  0  0  0
 13 12  1  0  0  0  0
 15 16  1  0  0  0  0
 16 19  1  0  0  0  0
 16 17  1  0  0  0  0
 18 16  1  0  0  0  0
 20 15  1  0  0  0  0
 20 23  1  0  0  0  0
 21 20  1  0  0  0  0
 22 20  1  0  0  0  0
 24 10  1  1  0  0  0
 24 54  1  0  0  0  0
 24 57  1  0  0  0  0
 25 26  1  0  0  0  0
 27 25  1  0  0  0  0
 28 25  1  0  0  0  0
 28 29  1  0  0  0  0
 29 30  1  0  0  0  0
 29 31  1  0  0  0  0
 32 29  1  0  0  0  0
 33 28  1  0  0  0  0
 33 35  1  0  0  0  0
 34 33  1  0  0  0  0
 36 33  1  0  0  0  0
 37 58  1  0  0  0  0
 38 55  1  0  0  0  0
 39 48  1  0  0  0  0
 40 42  1  0  0  0  0
 40 39  1  0  0  0  0
 40 41  1  0  0  0  0
 43 40  1  0  0  0  0
 44 46  1  0  0  0  0
 44 47  1  0  0  0  0
 44 39  1  0  0  0  0
 45 44  1  0  0  0  0
 48 50  1  0  0  0  0
 48 49  1  0  0  0  0
 48 51  1  0  0  0  0
 52 38  1  0  0  0  0
 52 37  1  0  0  0  0
 52 54  1  0  0  0  0
 53 15  1  6  0  0  0
 53 52  1  0  0  0  0
 54 28  1  6  0  0  0
 55 39  1  0  0  0  0
 57 25  1  0  0  0  0
M  END
$$$$
