CSD_code = QIGZAJ | q = 0 | S = 0 | Stoichiometry = C30H36Cl2Zr | MND = 12
 OpenBabel04212202083D

 69 73  0  0  1  0  0  0  0  0999 V2000
    2.1758   -2.7262    2.6850 Zr  0  0  0  0  0  0  0  0  0  0  0  0
    3.7042   -4.4835    2.7157 Cl  0  0  0  0  0  0  0  0  0  0  0  0
    3.8167   -1.2375    3.4050 Cl  0  0  0  0  0  0  0  0  0  0  0  0
    2.8934   -3.7589   -0.7578 C   0  0  0  0  0  0  0  0  0  0  0  0
    2.5028   -3.4143   -2.2047 C   0  0  0  0  0  0  0  0  0  0  0  0
    1.4356   -3.5591   -2.3559 H   0  0  0  0  0  0  0  0  0  0  0  0
    3.0428   -4.0508   -2.9017 H   0  0  0  0  0  0  0  0  0  0  0  0
    2.7404   -2.3765   -2.4255 H   0  0  0  0  0  0  0  0  0  0  0  0
    4.4006   -3.5409   -0.5715 C   0  0  0  0  0  0  0  0  0  0  0  0
    4.6946   -2.5495   -0.9084 H   0  0  0  0  0  0  0  0  0  0  0  0
    4.9577   -4.2712   -1.1540 H   0  0  0  0  0  0  0  0  0  0  0  0
    4.6761   -3.6513    0.4780 H   0  0  0  0  0  0  0  0  0  0  0  0
    2.5470   -5.2265   -0.4741 C   0  0  0  0  0  0  0  0  0  0  0  0
    2.7015   -5.4586    0.5803 H   0  0  0  0  0  0  0  0  0  0  0  0
    3.1835   -5.8779   -1.0685 H   0  0  0  0  0  0  0  0  0  0  0  0
    1.5135   -5.4411   -0.7378 H   0  0  0  0  0  0  0  0  0  0  0  0
    2.1227   -2.8462    0.1720 C   0  0  0  0  0  0  0  0  0  0  0  0
    2.4712   -1.5190    0.5202 C   0  0  0  0  0  0  0  0  0  0  0  0
    3.3548   -0.9821    0.1974 H   0  0  0  0  0  0  0  0  0  0  0  0
    1.4067   -0.9296    1.2514 C   0  0  0  0  0  0  0  0  0  0  0  0
    1.4730    0.5100    1.6917 C   0  0  0  0  0  0  0  0  0  0  0  0
    0.6049    1.0722    1.3482 H   0  0  0  0  0  0  0  0  0  0  0  0
    2.3609    0.9680    1.2561 H   0  0  0  0  0  0  0  0  0  0  0  0
    1.5620    0.6049    2.7769 H   0  0  0  0  0  0  0  0  0  0  0  0
    0.3593   -1.8962    1.3501 C   0  0  1  0  0  0  0  0  0  0  0  0
    0.8292   -3.0802    0.7005 C   0  0  0  0  0  0  0  0  0  0  0  0
    0.2445   -3.9646    0.4917 H   0  0  0  0  0  0  0  0  0  0  0  0
   -0.7854   -1.9414    2.3718 C   0  0  0  0  0  0  0  0  0  0  0  0
   -1.9696   -2.8066    1.8999 C   0  0  0  0  0  0  0  0  0  0  0  0
   -2.6307   -2.2108    1.2742 H   0  0  0  0  0  0  0  0  0  0  0  0
   -2.5368   -3.1550    2.7600 H   0  0  0  0  0  0  0  0  0  0  0  0
   -1.6675   -3.6621    1.3095 H   0  0  0  0  0  0  0  0  0  0  0  0
   -1.3921   -0.5641    2.6639 C   0  0  0  0  0  0  0  0  0  0  0  0
   -1.9050   -0.2022    1.7745 H   0  0  0  0  0  0  0  0  0  0  0  0
   -0.6517    0.1723    2.9359 H   0  0  0  0  0  0  0  0  0  0  0  0
   -2.1197   -0.6510    3.4684 H   0  0  0  0  0  0  0  0  0  0  0  0
   -0.0466   -2.5589    3.5755 C   0  0  2  0  0  0  0  0  0  0  0  0
    0.7469   -1.8532    4.5557 C   0  0  0  0  0  0  0  0  0  0  0  0
    0.7860   -0.5210    5.0315 C   0  0  0  0  0  0  0  0  0  0  0  0
    0.0859    0.2236    4.6883 H   0  0  0  0  0  0  0  0  0  0  0  0
    1.6825   -0.1609    6.0095 C   0  0  0  0  0  0  0  0  0  0  0  0
    1.6987    0.8634    6.3524 H   0  0  0  0  0  0  0  0  0  0  0  0
    2.5658   -1.0799    6.5883 C   0  0  0  0  0  0  0  0  0  0  0  0
    3.2602   -0.7481    7.3442 H   0  0  0  0  0  0  0  0  0  0  0  0
    2.5219   -2.4015    6.2146 C   0  0  0  0  0  0  0  0  0  0  0  0
    3.1649   -3.1336    6.6850 H   0  0  0  0  0  0  0  0  0  0  0  0
    1.6225   -2.7997    5.2192 C   0  0  0  0  0  0  0  0  0  0  0  0
    1.3421   -4.1032    4.6897 C   0  0  0  0  0  0  0  0  0  0  0  0
    1.8704   -5.3496    5.0338 C   0  0  0  0  0  0  0  0  0  0  0  0
    2.5974   -5.3994    5.8321 H   0  0  0  0  0  0  0  0  0  0  0  0
    1.4815   -6.4898    4.3567 C   0  0  0  0  0  0  0  0  0  0  0  0
    0.5100   -6.3500    3.3512 C   0  0  0  0  0  0  0  0  0  0  0  0
    0.1713   -7.2232    2.8178 H   0  0  0  0  0  0  0  0  0  0  0  0
   -0.0636   -5.1446    3.0150 C   0  0  0  0  0  0  0  0  0  0  0  0
   -0.8613   -5.1564    2.2890 H   0  0  0  0  0  0  0  0  0  0  0  0
    0.3286   -3.9537    3.6687 C   0  0  0  0  0  0  0  0  0  0  0  0
    2.0987   -7.8297    4.7231 C   0  0  0  0  0  0  0  0  0  0  0  0
    3.6266   -7.7178    4.6198 C   0  0  0  0  0  0  0  0  0  0  0  0
    3.9095   -7.3445    3.6383 H   0  0  0  0  0  0  0  0  0  0  0  0
    4.0863   -8.6922    4.7706 H   0  0  0  0  0  0  0  0  0  0  0  0
    4.0268   -7.0371    5.3654 H   0  0  0  0  0  0  0  0  0  0  0  0
    1.6962   -8.1871    6.1611 C   0  0  0  0  0  0  0  0  0  0  0  0
    2.0285   -7.4271    6.8630 H   0  0  0  0  0  0  0  0  0  0  0  0
    2.1409   -9.1372    6.4494 H   0  0  0  0  0  0  0  0  0  0  0  0
    0.6142   -8.2734    6.2401 H   0  0  0  0  0  0  0  0  0  0  0  0
    1.6426   -8.9619    3.7989 C   0  0  0  0  0  0  0  0  0  0  0  0
    0.5695   -9.1242    3.8715 H   0  0  0  0  0  0  0  0  0  0  0  0
    2.1385   -9.8860    4.0888 H   0  0  0  0  0  0  0  0  0  0  0  0
    1.9061   -8.7481    2.7657 H   0  0  0  0  0  0  0  0  0  0  0  0
  1  2  1  0  0  0  0
  1  3  1  0  0  0  0
  1 37  1  0  0  0  0
  4  9  1  0  0  0  0
  4 13  1  0  0  0  0
  4 17  1  0  0  0  0
  5  4  1  0  0  0  0
  6  5  1  0  0  0  0
  7  5  1  0  0  0  0
  8  5  1  0  0  0  0
  9 12  1  0  0  0  0
 10  9  1  0  0  0  0
 11  9  1  0  0  0  0
 13 14  1  0  0  0  0
 15 13  1  0  0  0  0
 16 13  1  0  0  0  0
 17 18  1  0  0  0  0
 17 26  2  0  0  0  0
 18 20  2  0  0  0  0
 19 18  1  0  0  0  0
 20 25  1  0  0  0  0
 20 21  1  0  0  0  0
 21 24  1  0  0  0  0
 22 21  1  0  0  0  0
 23 21  1  0  0  0  0
 25 26  1  6  0  0  0
 25 28  1  0  0  0  0
 25  1  1  0  0  0  0
 27 26  1  0  0  0  0
 28 33  1  0  0  0  0
 28 37  1  0  0  0  0
 29 28  1  0  0  0  0
 29 31  1  0  0  0  0
 30 29  1  0  0  0  0
 32 29  1  0  0  0  0
 33 35  1  0  0  0  0
 33 36  1  0  0  0  0
 34 33  1  0  0  0  0
 37 56  1  1  0  0  0
 37 38  1  0  0  0  0
 38 39  2  0  0  0  0
 38 47  1  0  0  0  0
 39 41  1  0  0  0  0
 40 39  1  0  0  0  0
 41 42  1  0  0  0  0
 41 43  2  0  0  0  0
 43 44  1  0  0  0  0
 45 43  1  0  0  0  0
 45 46  1  0  0  0  0
 47 45  2  0  0  0  0
 48 49  1  0  0  0  0
 48 47  1  0  0  0  0
 49 50  1  0  0  0  0
 51 57  1  0  0  0  0
 51 49  2  0  0  0  0
 52 51  1  0  0  0  0
 53 52  1  0  0  0  0
 54 52  2  0  0  0  0
 54 56  1  0  0  0  0
 55 54  1  0  0  0  0
 56 48  2  0  0  0  0
 57 62  1  0  0  0  0
 58 57  1  0  0  0  0
 58 60  1  0  0  0  0
 58 61  1  0  0  0  0
 59 58  1  0  0  0  0
 62 65  1  0  0  0  0
 62 64  1  0  0  0  0
 62 63  1  0  0  0  0
 66 67  1  0  0  0  0
 66 68  1  0  0  0  0
 66 57  1  0  0  0  0
 69 66  1  0  0  0  0
M  END
$$$$
