CSD_code = QIHJOJ | q = 0 | S = 0 | Stoichiometry = C28H25AsCl2N2Pd | MND = 4
 OpenBabel04212202083D

 59 62  0  0  0  0  0  0  0  0999 V2000
    2.2307    5.7921    4.9894 Pd  0  0  0  0  0  0  0  0  0  0  0  0
    0.4727    5.3679    6.4554 As  0  0  0  0  0  0  0  0  0  0  0  0
    3.4098    4.4103    6.3271 Cl  0  0  0  0  0  0  0  0  0  0  0  0
    3.9952    6.1487    3.6203 Cl  0  0  0  0  0  0  0  0  0  0  0  0
    1.1197    7.0501    3.8715 N   0  0  0  0  0  0  0  0  0  0  0  0
    0.6480    6.1564    8.2173 C   0  0  0  0  0  0  0  0  0  0  0  0
   -1.2813    6.0359    5.9108 C   0  0  0  0  0  0  0  0  0  0  0  0
    1.0140    8.3391    4.2675 C   0  0  0  0  0  0  0  0  0  0  0  0
    1.8320    8.7916    5.3253 C   0  0  0  0  0  0  0  0  0  0  0  0
    2.5798    8.1017    5.7401 H   0  0  0  0  0  0  0  0  0  0  0  0
    0.3850    6.5909    2.8756 C   0  0  0  0  0  0  0  0  0  0  0  0
    0.1408    3.4730    6.7075 C   0  0  0  0  0  0  0  0  0  0  0  0
    1.9018    6.6295    8.5891 C   0  0  0  0  0  0  0  0  0  0  0  0
    2.7381    6.5123    7.8996 H   0  0  0  0  0  0  0  0  0  0  0  0
   -0.5228    7.4096    2.2062 C   0  0  0  0  0  0  0  0  0  0  0  0
   -1.1042    7.0029    1.3928 H   0  0  0  0  0  0  0  0  0  0  0  0
   -0.4293    6.3085    9.0850 C   0  0  0  0  0  0  0  0  0  0  0  0
   -1.4165    5.9743    8.7789 H   0  0  0  0  0  0  0  0  0  0  0  0
   -0.6970    8.7323    2.5810 C   0  0  0  0  0  0  0  0  0  0  0  0
    2.0836    7.2226    9.8266 C   0  0  0  0  0  0  0  0  0  0  0  0
    3.0604    7.5826   10.1151 H   0  0  0  0  0  0  0  0  0  0  0  0
   -1.6360    9.5043    1.9709 N   0  0  0  0  0  0  0  0  0  0  0  0
    1.7181   10.0734    5.7897 C   0  0  0  0  0  0  0  0  0  0  0  0
    2.3444   10.4168    6.5990 H   0  0  0  0  0  0  0  0  0  0  0  0
   -0.2497    0.7347    6.9002 C   0  0  0  0  0  0  0  0  0  0  0  0
   -0.3978   -0.3323    6.9807 H   0  0  0  0  0  0  0  0  0  0  0  0
    0.0035   10.5423    4.1695 C   0  0  0  0  0  3  0  0  0  0  0  0
   -0.7003   11.2394    3.7385 H   0  0  0  0  0  0  0  0  0  0  0  0
   -2.1736    5.2400    5.1996 C   0  0  0  0  0  0  0  0  0  0  0  0
   -1.9727    4.1762    5.1025 H   0  0  0  0  0  0  0  0  0  0  0  0
    1.0116    7.3540   10.6940 C   0  0  0  0  0  0  0  0  0  0  0  0
    1.1520    7.8142   11.6612 H   0  0  0  0  0  0  0  0  0  0  0  0
    0.6458    2.6226    5.7288 C   0  0  0  0  0  0  0  0  0  0  0  0
    1.2348    3.0455    4.9098 H   0  0  0  0  0  0  0  0  0  0  0  0
   -3.5600    7.1472    4.7594 C   0  0  0  0  0  0  0  0  0  0  0  0
   -4.4413    7.5789    4.3087 H   0  0  0  0  0  0  0  0  0  0  0  0
    0.0925    9.2319    3.6628 C   0  0  0  0  0  0  0  0  0  0  0  0
    0.4494    1.2566    5.8235 C   0  0  0  0  0  0  0  0  0  0  0  0
    0.8492    0.5977    5.0666 H   0  0  0  0  0  0  0  0  0  0  0  0
   -1.5445    7.3982    6.0318 C   0  0  0  0  0  0  0  0  0  0  0  0
   -0.8478    8.0237    6.5842 H   0  0  0  0  0  0  0  0  0  0  0  0
    0.5569    5.1460    2.5273 C   0  0  0  0  0  0  0  0  0  0  0  0
    1.6227    4.8759    2.6079 H   0  0  0  0  0  0  0  0  0  0  0  0
    0.2040    4.9351    1.5213 H   0  0  0  0  0  0  0  0  0  0  0  0
   -0.0178    4.5349    3.2358 H   0  0  0  0  0  0  0  0  0  0  0  0
   -0.5552    2.9445    7.7870 C   0  0  0  0  0  0  0  0  0  0  0  0
   -0.9319    3.6051    8.5605 H   0  0  0  0  0  0  0  0  0  0  0  0
   -2.6775    7.9501    5.4642 C   0  0  0  0  0  0  0  0  0  0  0  0
   -2.8701    9.0085    5.5649 H   0  0  0  0  0  0  0  0  0  0  0  0
   -0.2445    6.9026   10.3212 C   0  0  0  0  0  0  0  0  0  0  0  0
   -1.0818    7.0160   10.9952 H   0  0  0  0  0  0  0  0  0  0  0  0
   -3.3103    5.7909    4.6337 C   0  0  0  0  0  0  0  0  0  0  0  0
   -4.0001    5.1627    4.0886 H   0  0  0  0  0  0  0  0  0  0  0  0
    0.7902   10.9506    5.2134 C   0  0  0  0  0  0  0  0  0  0  0  0
    0.7049   11.9580    5.5919 H   0  0  0  0  0  0  0  0  0  0  0  0
   -0.7474    1.5763    7.8814 C   0  0  0  0  0  0  0  0  0  0  0  0
   -1.2808    1.1646    8.7263 H   0  0  0  0  0  0  0  0  0  0  0  0
   -2.0430    9.1581    1.1192 H   0  0  0  0  0  0  0  0  0  0  0  0
   -1.5947   10.5024    2.0744 H   0  0  0  0  0  0  0  0  0  0  0  0
  1  3  1  0  0  0  0
  2 12  1  0  0  0  0
  2  6  1  0  0  0  0
  4  1  1  0  0  0  0
  5  8  1  0  0  0  0
  5  1  1  0  0  0  0
  6 13  2  0  0  0  0
  6 17  1  0  0  0  0
  7 40  1  0  0  0  0
  7  2  1  0  0  0  0
  8  9  2  0  0  0  0
  9 10  1  0  0  0  0
  9 23  1  0  0  0  0
 11  5  1  0  0  0  0
 12 46  1  0  0  0  0
 13 20  1  0  0  0  0
 14 13  1  0  0  0  0
 15 19  1  0  0  0  0
 15 11  2  0  0  0  0
 16 15  1  0  0  0  0
 17 50  2  0  0  0  0
 18 17  1  0  0  0  0
 19 37  2  0  0  0  0
 20 21  1  0  0  0  0
 20 31  2  0  0  0  0
 22 59  1  0  0  0  0
 22 19  1  0  0  0  0
 23 24  1  0  0  0  0
 25 26  1  0  0  0  0
 25 56  1  0  0  0  0
 27 54  1  0  0  0  0
 28 27  1  0  0  0  0
 29  7  2  0  0  0  0
 30 29  1  0  0  0  0
 31 32  1  0  0  0  0
 33 38  1  0  0  0  0
 33 12  2  0  0  0  0
 34 33  1  0  0  0  0
 35 48  1  0  0  0  0
 36 35  1  0  0  0  0
 37 27  1  0  0  0  0
 37  8  1  0  0  0  0
 38 25  2  0  0  0  0
 39 38  1  0  0  0  0
 40 41  1  0  0  0  0
 42 43  1  0  0  0  0
 42 11  1  0  0  0  0
 42 45  1  0  0  0  0
 44 42  1  0  0  0  0
 46 56  2  0  0  0  0
 46 47  1  0  0  0  0
 48 49  1  0  0  0  0
 48 40  2  0  0  0  0
 50 31  1  0  0  0  0
 50 51  1  0  0  0  0
 52 35  2  0  0  0  0
 52 29  1  0  0  0  0
 53 52  1  0  0  0  0
 54 55  1  0  0  0  0
 54 23  2  0  0  0  0
 56 57  1  0  0  0  0
 58 22  1  0  0  0  0
M  END
$$$$
