CSD_code = QIHLEA | q = 0 | S = 0 | Stoichiometry = C24H22Cl3N2PPd | MND = 4
 OpenBabel04212202083D

 53 56  0  0  0  0  0  0  0  0999 V2000
    1.5485    0.5276    2.0629 Pd  0  0  0  0  0  0  0  0  0  0  0  0
    2.4829    1.3652    0.1584 Cl  0  0  0  0  0  0  0  0  0  0  0  0
    1.3565    2.5791    3.0459 Cl  0  0  0  0  0  0  0  0  0  0  0  0
    2.2696   -5.5164    0.1934 Cl  0  0  0  0  0  0  0  0  0  0  0  0
    0.3738   -0.1063    3.8753 P   0  0  0  0  0  4  0  0  0  0  0  0
    2.8875   -1.8986    1.2344 N   0  0  0  0  0  0  0  0  0  0  0  0
    3.0418   -3.1690    0.9084 N   0  0  0  0  0  2  0  0  0  0  0  0
    1.7115   -1.2537    1.2881 C   0  0  0  0  0  0  0  0  0  0  0  0
    0.5913   -1.9933    0.8244 C   0  0  0  0  0  0  0  0  0  0  0  0
   -0.3704   -1.4970    0.7694 H   0  0  0  0  0  0  0  0  0  0  0  0
    0.7167   -3.2983    0.4351 C   0  0  0  0  0  0  0  0  0  0  0  0
   -0.1086   -3.8838    0.0659 H   0  0  0  0  0  0  0  0  0  0  0  0
    2.0031   -3.8632    0.5486 C   0  0  0  0  0  0  0  0  0  0  0  0
    4.1475   -1.2064    1.4684 C   0  0  0  0  0  0  0  0  0  0  0  0
    4.1637   -0.3308    0.8021 H   0  0  0  0  0  0  0  0  0  0  0  0
    4.9330   -1.9119    1.1919 H   0  0  0  0  0  0  0  0  0  0  0  0
    4.3312   -0.7349    2.9104 C   0  0  0  0  0  0  0  0  0  0  0  0
    3.6308    0.0901    3.1451 H   0  0  0  0  0  0  0  0  0  0  0  0
    5.3426   -0.3539    3.0232 H   0  0  0  0  0  0  0  0  0  0  0  0
    4.1889   -1.5550    3.6123 H   0  0  0  0  0  0  0  0  0  0  0  0
   -0.0752   -1.8767    3.8276 C   0  0  0  0  0  0  0  0  0  0  0  0
   -1.3242   -2.3446    3.4397 C   0  0  0  0  0  0  0  0  0  0  0  0
   -2.1299   -1.6443    3.2654 H   0  0  0  0  0  0  0  0  0  0  0  0
   -1.5364   -3.7042    3.2820 C   0  0  0  0  0  0  0  0  0  0  0  0
   -2.5110   -4.0629    2.9849 H   0  0  0  0  0  0  0  0  0  0  0  0
   -0.5053   -4.6020    3.4990 C   0  0  0  0  0  0  0  0  0  0  0  0
   -0.6722   -5.6603    3.3668 H   0  0  0  0  0  0  0  0  0  0  0  0
    0.7439   -4.1418    3.8894 C   0  0  0  0  0  0  0  0  0  0  0  0
    1.5485   -4.8412    4.0625 H   0  0  0  0  0  0  0  0  0  0  0  0
    0.9564   -2.7875    4.0491 C   0  0  0  0  0  0  0  0  0  0  0  0
    1.9267   -2.4123    4.3525 H   0  0  0  0  0  0  0  0  0  0  0  0
   -1.2284    0.7398    3.7299 C   0  0  0  0  0  0  0  0  0  0  0  0
   -2.0669    0.9852    4.8103 C   0  0  0  0  0  0  0  0  0  0  0  0
   -1.7696    0.6859    5.8052 H   0  0  0  0  0  0  0  0  0  0  0  0
   -3.2733    1.6342    4.6098 C   0  0  0  0  0  0  0  0  0  0  0  0
   -3.9201    1.8333    5.4517 H   0  0  0  0  0  0  0  0  0  0  0  0
   -3.6467    2.0363    3.3385 C   0  0  0  0  0  0  0  0  0  0  0  0
   -4.5860    2.5478    3.1891 H   0  0  0  0  0  0  0  0  0  0  0  0
   -2.8092    1.7993    2.2588 C   0  0  0  0  0  0  0  0  0  0  0  0
   -3.0948    2.1291    1.2708 H   0  0  0  0  0  0  0  0  0  0  0  0
   -1.6009    1.1565    2.4509 C   0  0  0  0  0  0  0  0  0  0  0  0
   -0.9160    1.0029    1.6040 H   0  0  0  0  0  0  0  0  0  0  0  0
    0.9126    0.0780    5.5985 C   0  0  0  0  0  0  0  0  0  0  0  0
    1.9338    0.9669    5.9150 C   0  0  0  0  0  0  0  0  0  0  0  0
    2.3842    1.5578    5.1281 H   0  0  0  0  0  0  0  0  0  0  0  0
    2.3419    1.1081    7.2296 C   0  0  0  0  0  0  0  0  0  0  0  0
    3.1320    1.8021    7.4738 H   0  0  0  0  0  0  0  0  0  0  0  0
    1.7378    0.3637    8.2292 C   0  0  0  0  0  0  0  0  0  0  0  0
    2.0547    0.4772    9.2554 H   0  0  0  0  0  0  0  0  0  0  0  0
    0.7270   -0.5313    7.9146 C   0  0  0  0  0  0  0  0  0  0  0  0
    0.2588   -1.1155    8.6935 H   0  0  0  0  0  0  0  0  0  0  0  0
    0.3153   -0.6807    6.6036 C   0  0  0  0  0  0  0  0  0  0  0  0
   -0.4620   -1.3912    6.3547 H   0  0  0  0  0  0  0  0  0  0  0  0
  1  3  1  0  0  0  0
  1  5  1  0  0  0  0
  2  1  1  0  0  0  0
  4 13  1  0  0  0  0
  5 43  1  0  0  0  0
  6  8  1  0  0  0  0
  6 14  1  0  0  0  0
  7  6  1  0  0  0  0
  8  1  1  0  0  0  0
  9  8  2  0  0  0  0
 10  9  1  0  0  0  0
 11 13  2  0  0  0  0
 11  9  1  0  0  0  0
 12 11  1  0  0  0  0
 13  7  1  0  0  0  0
 14 17  1  0  0  0  0
 15 14  1  0  0  0  0
 16 14  1  0  0  0  0
 17 19  1  0  0  0  0
 17 18  1  0  0  0  0
 17 20  1  0  0  0  0
 21  5  1  0  0  0  0
 21 30  1  0  0  0  0
 22 21  2  0  0  0  0
 23 22  1  0  0  0  0
 24 22  1  0  0  0  0
 24 26  2  0  0  0  0
 25 24  1  0  0  0  0
 26 28  1  0  0  0  0
 27 26  1  0  0  0  0
 28 30  2  0  0  0  0
 28 29  1  0  0  0  0
 30 31  1  0  0  0  0
 32  5  1  0  0  0  0
 32 33  1  0  0  0  0
 33 34  1  0  0  0  0
 35 33  2  0  0  0  0
 35 36  1  0  0  0  0
 37 35  1  0  0  0  0
 38 37  1  0  0  0  0
 39 41  1  0  0  0  0
 39 37  2  0  0  0  0
 40 39  1  0  0  0  0
 41 32  2  0  0  0  0
 42 41  1  0  0  0  0
 43 44  2  0  0  0  0
 43 52  1  0  0  0  0
 44 46  1  0  0  0  0
 45 44  1  0  0  0  0
 46 47  1  0  0  0  0
 46 48  2  0  0  0  0
 48 49  1  0  0  0  0
 50 48  1  0  0  0  0
 50 51  1  0  0  0  0
 52 50  2  0  0  0  0
 53 52  1  0  0  0  0
M  END
$$$$
