CSD_code = QIJDEV | q = 0 | S = 0 | Stoichiometry = C28H29Br2FeNP2 | MND = 5
 OpenBabel04212202083D

 63 68  0  0  0  0  0  0  0  0999 V2000
   -2.2053    7.9613    0.6086 Br  0  0  0  0  0  0  0  0  0  0  0  0
   -2.8072    8.3068    3.9224 Br  0  0  0  0  0  0  0  0  0  0  0  0
   -1.0555    7.6880    2.5281 Fe  0  0  0  0  0  0  0  0  0  0  0  0
    0.2166    9.3243    3.0902 P   0  0  0  0  0  4  0  0  0  0  0  0
   -0.4777    6.0828    3.8407 P   0  0  0  0  0  4  0  0  0  0  0  0
    0.6742    7.0734    1.3502 N   0  0  0  0  0  4  0  0  0  0  0  0
    0.2594    6.5491    0.5782 H   0  0  0  0  0  0  0  0  0  0  0  0
   -1.6870    4.7278    4.0342 C   0  0  0  0  0  0  0  0  0  0  0  0
    1.6698    9.2521    1.9176 C   0  0  0  0  0  0  0  0  0  0  0  0
    1.8901   10.2381    1.5034 H   0  0  0  0  0  0  0  0  0  0  0  0
    2.5437    8.9106    2.4768 H   0  0  0  0  0  0  0  0  0  0  0  0
    0.1931    6.2077    5.5235 C   0  0  0  0  0  0  0  0  0  0  0  0
   -0.5515   10.9334    2.6921 C   0  0  0  0  0  0  0  0  0  0  0  0
    1.3319    8.2624    0.8011 C   0  0  0  0  0  0  0  0  0  0  0  0
    0.6360    8.7229    0.0957 H   0  0  0  0  0  0  0  0  0  0  0  0
    2.2423    7.9860    0.2495 H   0  0  0  0  0  0  0  0  0  0  0  0
    0.8189    5.1621    2.8663 C   0  0  0  0  0  0  0  0  0  0  0  0
    1.4687    4.5611    3.5048 H   0  0  0  0  0  0  0  0  0  0  0  0
    0.2824    4.4914    2.1864 H   0  0  0  0  0  0  0  0  0  0  0  0
    1.5998    6.1982    2.0719 C   0  0  0  0  0  0  0  0  0  0  0  0
    2.1696    6.8193    2.7671 H   0  0  0  0  0  0  0  0  0  0  0  0
    2.3048    5.7175    1.3784 H   0  0  0  0  0  0  0  0  0  0  0  0
    0.9828    9.7114    4.6975 C   0  0  0  0  0  0  0  0  0  0  0  0
   -0.7241    6.3269    6.5673 C   0  0  0  0  0  0  0  0  0  0  0  0
   -1.7830    6.2811    6.3488 H   0  0  0  0  0  0  0  0  0  0  0  0
   -1.1132   11.7111    3.7005 C   0  0  0  0  0  0  0  0  0  0  0  0
   -1.0307   11.3988    4.7318 H   0  0  0  0  0  0  0  0  0  0  0  0
    1.9971   10.2859    7.2183 C   0  0  0  0  0  0  0  0  0  0  0  0
    2.3965   10.5067    8.1972 H   0  0  0  0  0  0  0  0  0  0  0  0
    2.2349   10.3022    4.8288 C   0  0  0  0  0  0  0  0  0  0  0  0
    2.8136   10.5630    3.9544 H   0  0  0  0  0  0  0  0  0  0  0  0
   -1.4711    3.6741    4.9177 C   0  0  0  0  0  0  0  0  0  0  0  0
   -0.5975    3.6764    5.5554 H   0  0  0  0  0  0  0  0  0  0  0  0
   -2.8071    4.7190    3.2115 C   0  0  0  0  0  0  0  0  0  0  0  0
   -2.9778    5.5382    2.5226 H   0  0  0  0  0  0  0  0  0  0  0  0
   -0.2813    6.5035    7.8633 C   0  0  0  0  0  0  0  0  0  0  0  0
   -0.9964    6.5832    8.6688 H   0  0  0  0  0  0  0  0  0  0  0  0
    0.2362    9.4290    5.8387 C   0  0  0  0  0  0  0  0  0  0  0  0
   -0.7445    8.9862    5.7372 H   0  0  0  0  0  0  0  0  0  0  0  0
    2.7401   10.5780    6.0866 C   0  0  0  0  0  0  0  0  0  0  0  0
    3.7159   11.0321    6.1829 H   0  0  0  0  0  0  0  0  0  0  0  0
    0.7389    9.7218    7.0924 C   0  0  0  0  0  0  0  0  0  0  0  0
    0.1474    9.5086    7.9699 H   0  0  0  0  0  0  0  0  0  0  0  0
    1.0770    6.5840    8.1281 C   0  0  0  0  0  0  0  0  0  0  0  0
    1.4247    6.7210    9.1414 H   0  0  0  0  0  0  0  0  0  0  0  0
   -0.7048   11.3207    1.3634 C   0  0  0  0  0  0  0  0  0  0  0  0
   -0.3148   10.7046    0.5651 H   0  0  0  0  0  0  0  0  0  0  0  0
   -3.7141    3.6771    3.2811 C   0  0  0  0  0  0  0  0  0  0  0  0
   -4.5881    3.6814    2.6474 H   0  0  0  0  0  0  0  0  0  0  0  0
    1.5530    6.3183    5.7918 C   0  0  0  0  0  0  0  0  0  0  0  0
    2.2763    6.2572    4.9905 H   0  0  0  0  0  0  0  0  0  0  0  0
   -1.9181   13.2673    2.0605 C   0  0  0  0  0  0  0  0  0  0  0  0
   -2.4531   14.1724    1.8141 H   0  0  0  0  0  0  0  0  0  0  0  0
   -3.5019    2.6365    4.1692 C   0  0  0  0  0  0  0  0  0  0  0  0
   -4.2121    1.8251    4.2299 H   0  0  0  0  0  0  0  0  0  0  0  0
   -1.7877   12.8751    3.3825 C   0  0  0  0  0  0  0  0  0  0  0  0
   -2.2236   13.4710    4.1704 H   0  0  0  0  0  0  0  0  0  0  0  0
   -1.3775   12.4869    1.0521 C   0  0  0  0  0  0  0  0  0  0  0  0
   -1.4932   12.7785    0.0184 H   0  0  0  0  0  0  0  0  0  0  0  0
   -2.3798    2.6350    4.9836 C   0  0  0  0  0  0  0  0  0  0  0  0
   -2.2132    1.8209    5.6740 H   0  0  0  0  0  0  0  0  0  0  0  0
    1.9905    6.4982    7.0912 C   0  0  0  0  0  0  0  0  0  0  0  0
    3.0491    6.5741    7.2945 H   0  0  0  0  0  0  0  0  0  0  0  0
  1  3  1  0  0  0  0
  3  4  1  0  0  0  0
  3  5  1  0  0  0  0
  3  2  1  0  0  0  0
  4 23  1  0  0  0  0
  5  8  1  0  0  0  0
  5 12  1  0  0  0  0
  6 20  1  0  0  0  0
  6  3  1  0  0  0  0
  7  6  1  0  0  0  0
  8 32  1  0  0  0  0
  9 11  1  0  0  0  0
  9  4  1  0  0  0  0
 10  9  1  0  0  0  0
 12 50  2  0  0  0  0
 12 24  1  0  0  0  0
 13  4  1  0  0  0  0
 13 26  1  0  0  0  0
 14  6  1  0  0  0  0
 14  9  1  0  0  0  0
 15 14  1  0  0  0  0
 16 14  1  0  0  0  0
 17 18  1  0  0  0  0
 17  5  1  0  0  0  0
 19 17  1  0  0  0  0
 20 21  1  0  0  0  0
 20 17  1  0  0  0  0
 22 20  1  0  0  0  0
 23 30  2  0  0  0  0
 23 38  1  0  0  0  0
 24 36  2  0  0  0  0
 25 24  1  0  0  0  0
 26 27  1  0  0  0  0
 28 29  1  0  0  0  0
 30 40  1  0  0  0  0
 31 30  1  0  0  0  0
 32 60  2  0  0  0  0
 32 33  1  0  0  0  0
 34 48  1  0  0  0  0
 34  8  2  0  0  0  0
 35 34  1  0  0  0  0
 36 44  1  0  0  0  0
 36 37  1  0  0  0  0
 38 42  2  0  0  0  0
 39 38  1  0  0  0  0
 40 41  1  0  0  0  0
 40 28  2  0  0  0  0
 42 28  1  0  0  0  0
 42 43  1  0  0  0  0
 44 45  1  0  0  0  0
 46 13  2  0  0  0  0
 47 46  1  0  0  0  0
 48 54  2  0  0  0  0
 49 48  1  0  0  0  0
 50 62  1  0  0  0  0
 51 50  1  0  0  0  0
 52 56  1  0  0  0  0
 53 52  1  0  0  0  0
 54 55  1  0  0  0  0
 54 60  1  0  0  0  0
 56 26  2  0  0  0  0
 56 57  1  0  0  0  0
 58 46  1  0  0  0  0
 58 52  2  0  0  0  0
 59 58  1  0  0  0  0
 60 61  1  0  0  0  0
 62 63  1  0  0  0  0
 62 44  2  0  0  0  0
M  END
$$$$
