CSD_code = QIJREI | q = 0 | S = 0 | Stoichiometry = C26H34I2N2O4Zn | MND = 4
 OpenBabel04212202083D

 69 72  0  0  0  0  0  0  0  0999 V2000
   12.8550    3.1126    2.2161 Zn  0  0  0  0  0  0  0  0  0  0  0  0
   10.5475    2.8380    1.2324 I   0  0  0  0  0  0  0  0  0  0  0  0
   14.9985    1.8073    2.2438 I   0  0  0  0  0  0  0  0  0  0  0  0
   16.1991    5.6513    2.1732 N   0  0  0  0  0  4  0  0  0  0  0  0
   15.4933    4.9325    1.9692 H   0  0  0  0  0  0  0  0  0  0  0  0
    9.7349    4.0336    4.8888 N   0  0  0  0  0  4  0  0  0  0  0  0
   10.4311    3.5024    4.3450 H   0  0  0  0  0  0  0  0  0  0  0  0
   13.6485    4.9930    1.8707 O   0  0  0  0  0  0  0  0  0  0  0  0
   10.3925    8.2846    2.9737 O   0  0  0  0  0  0  0  0  0  0  0  0
   12.2265    3.6301    4.1377 O   0  0  0  0  0  0  0  0  0  0  0  0
   15.5805    6.5270    5.5673 O   0  0  0  0  0  0  0  0  0  0  0  0
   14.3640    7.1500    2.5272 C   0  0  0  0  0  0  0  0  0  0  0  0
   13.3408    6.1721    2.2369 C   0  0  0  0  0  0  0  0  0  0  0  0
   11.9927    6.5770    2.3768 C   0  0  0  0  0  0  0  0  0  0  0  0
   11.2363    5.8445    2.1463 H   0  0  0  0  0  0  0  0  0  0  0  0
   11.6548    7.8393    2.7946 C   0  0  0  0  0  0  0  0  0  0  0  0
   12.6673    8.7924    3.0741 C   0  0  0  0  0  0  0  0  0  0  0  0
   12.3630    9.7766    3.3899 H   0  0  0  0  0  0  0  0  0  0  0  0
   13.9726    8.4495    2.9289 C   0  0  0  0  0  0  0  0  0  0  0  0
   14.7497    9.1743    3.1291 H   0  0  0  0  0  0  0  0  0  0  0  0
    9.3207    7.4154    2.6841 C   0  0  0  0  0  0  0  0  0  0  0  0
    9.3351    7.0937    1.6392 H   0  0  0  0  0  0  0  0  0  0  0  0
    8.4150    7.9889    2.8731 H   0  0  0  0  0  0  0  0  0  0  0  0
    9.3380    6.5360    3.3343 H   0  0  0  0  0  0  0  0  0  0  0  0
   15.7222    6.8270    2.4770 C   0  0  0  0  0  0  0  0  0  0  0  0
   16.4439    7.6035    2.7156 H   0  0  0  0  0  0  0  0  0  0  0  0
   17.5853    5.2809    2.2042 C   0  0  0  0  0  0  0  0  0  0  0  0
   18.1765    6.2036    2.2216 H   0  0  0  0  0  0  0  0  0  0  0  0
   17.9351    4.4295    3.4347 C   0  0  0  0  0  0  0  0  0  0  0  0
   18.0708    5.0340    4.3299 H   0  0  0  0  0  0  0  0  0  0  0  0
   17.1411    3.7058    3.6128 H   0  0  0  0  0  0  0  0  0  0  0  0
   19.1907    3.6934    2.9880 C   0  0  0  0  0  0  0  0  0  0  0  0
   20.0448    4.3736    2.9852 H   0  0  0  0  0  0  0  0  0  0  0  0
   19.4220    2.8456    3.6281 H   0  0  0  0  0  0  0  0  0  0  0  0
   18.8395    3.2629    1.5641 C   0  0  0  0  0  0  0  0  0  0  0  0
   18.2503    2.3476    1.6014 H   0  0  0  0  0  0  0  0  0  0  0  0
   19.7248    3.0783    0.9594 H   0  0  0  0  0  0  0  0  0  0  0  0
   17.9832    4.4073    0.9985 C   0  0  0  0  0  0  0  0  0  0  0  0
   18.5308    4.9969    0.2644 H   0  0  0  0  0  0  0  0  0  0  0  0
   17.0932    4.0114    0.5125 H   0  0  0  0  0  0  0  0  0  0  0  0
   11.5637    5.4438    5.5095 C   0  0  0  0  0  0  0  0  0  0  0  0
   12.5601    4.6472    4.8250 C   0  0  0  0  0  0  0  0  0  0  0  0
   13.9032    5.0552    4.9532 C   0  0  0  0  0  0  0  0  0  0  0  0
   14.6749    4.4572    4.4945 H   0  0  0  0  0  0  0  0  0  0  0  0
   14.2619    6.2179    5.5949 C   0  0  0  0  0  0  0  0  0  0  0  0
   13.2749    7.0152    6.2185 C   0  0  0  0  0  0  0  0  0  0  0  0
   13.5419    7.9274    6.7254 H   0  0  0  0  0  0  0  0  0  0  0  0
   11.9736    6.6144    6.1847 C   0  0  0  0  0  0  0  0  0  0  0  0
   11.2165    7.2103    6.6744 H   0  0  0  0  0  0  0  0  0  0  0  0
   16.0213    7.7133    6.1863 C   0  0  0  0  0  0  0  0  0  0  0  0
   15.5544    8.5958    5.7383 H   0  0  0  0  0  0  0  0  0  0  0  0
   17.0971    7.7486    6.0204 H   0  0  0  0  0  0  0  0  0  0  0  0
   15.8259    7.7029    7.2625 H   0  0  0  0  0  0  0  0  0  0  0  0
   10.2176    5.0674    5.5246 C   0  0  0  0  0  0  0  0  0  0  0  0
    9.5202    5.6615    6.1103 H   0  0  0  0  0  0  0  0  0  0  0  0
    8.3741    3.5742    4.9303 C   0  0  0  0  0  0  0  0  0  0  0  0
    7.8965    4.0219    5.8090 H   0  0  0  0  0  0  0  0  0  0  0  0
    7.5769    3.9447    3.6549 C   0  0  0  0  0  0  0  0  0  0  0  0
    6.8534    4.7277    3.8779 H   0  0  0  0  0  0  0  0  0  0  0  0
    8.2454    4.3115    2.8789 H   0  0  0  0  0  0  0  0  0  0  0  0
    6.8878    2.6535    3.1932 C   0  0  0  0  0  0  0  0  0  0  0  0
    7.4506    2.2174    2.3688 H   0  0  0  0  0  0  0  0  0  0  0  0
    5.8699    2.8341    2.8555 H   0  0  0  0  0  0  0  0  0  0  0  0
    6.9436    1.7233    4.4030 C   0  0  0  0  0  0  0  0  0  0  0  0
    6.1502    1.9670    5.1119 H   0  0  0  0  0  0  0  0  0  0  0  0
    6.8512    0.6759    4.1258 H   0  0  0  0  0  0  0  0  0  0  0  0
    8.3036    2.0454    5.0096 C   0  0  0  0  0  0  0  0  0  0  0  0
    9.0876    1.6184    4.3836 H   0  0  0  0  0  0  0  0  0  0  0  0
    8.4235    1.6762    6.0270 H   0  0  0  0  0  0  0  0  0  0  0  0
  1  3  1  0  0  0  0
  1 10  1  0  0  0  0
  2  1  1  0  0  0  0
  4 27  1  0  0  0  0
  4 25  2  0  0  0  0
  5  4  1  0  0  0  0
  6 56  1  0  0  0  0
  6 54  2  0  0  0  0
  7  6  1  0  0  0  0
  8  1  1  0  0  0  0
  8 13  1  0  0  0  0
 10 42  1  0  0  0  0
 11 45  1  0  0  0  0
 11 50  1  0  0  0  0
 12 19  1  0  0  0  0
 13 14  1  0  0  0  0
 13 12  2  0  0  0  0
 14 16  2  0  0  0  0
 15 14  1  0  0  0  0
 16  9  1  0  0  0  0
 16 17  1  0  0  0  0
 17 18  1  0  0  0  0
 19 17  2  0  0  0  0
 19 20  1  0  0  0  0
 21 23  1  0  0  0  0
 21  9  1  0  0  0  0
 21 24  1  0  0  0  0
 22 21  1  0  0  0  0
 25 12  1  0  0  0  0
 25 26  1  0  0  0  0
 27 28  1  0  0  0  0
 27 29  1  0  0  0  0
 29 31  1  0  0  0  0
 29 30  1  0  0  0  0
 32 29  1  0  0  0  0
 32 34  1  0  0  0  0
 33 32  1  0  0  0  0
 35 36  1  0  0  0  0
 35 32  1  0  0  0  0
 37 35  1  0  0  0  0
 38 35  1  0  0  0  0
 38 27  1  0  0  0  0
 39 38  1  0  0  0  0
 40 38  1  0  0  0  0
 41 54  1  0  0  0  0
 41 48  1  0  0  0  0
 42 43  1  0  0  0  0
 42 41  2  0  0  0  0
 43 45  2  0  0  0  0
 44 43  1  0  0  0  0
 45 46  1  0  0  0  0
 46 47  1  0  0  0  0
 48 46  2  0  0  0  0
 48 49  1  0  0  0  0
 50 53  1  0  0  0  0
 51 50  1  0  0  0  0
 52 50  1  0  0  0  0
 54 55  1  0  0  0  0
 56 67  1  0  0  0  0
 56 57  1  0  0  0  0
 58 59  1  0  0  0  0
 58 56  1  0  0  0  0
 60 58  1  0  0  0  0
 61 58  1  0  0  0  0
 61 64  1  0  0  0  0
 62 61  1  0  0  0  0
 63 61  1  0  0  0  0
 64 67  1  0  0  0  0
 64 65  1  0  0  0  0
 66 64  1  0  0  0  0
 67 69  1  0  0  0  0
 68 67  1  0  0  0  0
M  END
$$$$
