CSD_code = QILFAS | q = 0 | S = 0 | Stoichiometry = C10H22Cl2N2Pt | MND = 4
 OpenBabel04212202083D

 37 38  0  0  0  0  0  0  0  0999 V2000
    4.2147    8.7534    8.9651 Pt  0  0  0  0  0  0  0  0  0  0  0  0
    5.5376   10.3377    8.0812 Cl  0  0  0  0  0  0  0  0  0  0  0  0
    5.4982    7.2650    8.0929 N   0  0  0  0  0  4  0  0  0  0  0  0
    5.5220    7.3930    6.6293 C   0  0  0  0  0  0  0  0  0  0  0  0
    6.3930    6.3144    5.9890 C   0  0  0  0  0  0  0  0  0  0  0  0
    7.8112    6.3955    6.5476 C   0  0  0  0  0  0  0  0  0  0  0  0
    7.7707    6.2833    8.0693 C   0  0  0  0  0  0  0  0  0  0  0  0
    6.8564    7.3633    8.6439 C   0  0  0  0  0  0  0  0  0  0  0  0
    5.1558    6.3245    8.3053 H   0  0  0  0  0  0  0  0  0  0  0  0
    4.4950    7.3295    6.2569 H   0  0  0  0  0  0  0  0  0  0  0  0
    5.9122    8.3860    6.3955 H   0  0  0  0  0  0  0  0  0  0  0  0
    5.9723    5.3249    6.1946 H   0  0  0  0  0  0  0  0  0  0  0  0
    6.4031    6.4532    4.9077 H   0  0  0  0  0  0  0  0  0  0  0  0
    8.2526    7.3538    6.2696 H   0  0  0  0  0  0  0  0  0  0  0  0
    8.4302    5.6019    6.1258 H   0  0  0  0  0  0  0  0  0  0  0  0
    7.4024    5.2929    8.3556 H   0  0  0  0  0  0  0  0  0  0  0  0
    8.7719    6.3984    8.4848 H   0  0  0  0  0  0  0  0  0  0  0  0
    6.7983    7.2780    9.7333 H   0  0  0  0  0  0  0  0  0  0  0  0
    7.2374    8.3565    8.3958 H   0  0  0  0  0  0  0  0  0  0  0  0
    2.8910   10.3372    9.8496 Cl  0  0  0  0  0  0  0  0  0  0  0  0
    2.9309    7.2652    9.8376 N   0  0  0  0  0  4  0  0  0  0  0  0
    2.9070    7.3931   11.3012 C   0  0  0  0  0  0  0  0  0  0  0  0
    2.0360    6.3145   11.9415 C   0  0  0  0  0  0  0  0  0  0  0  0
    0.6179    6.3955   11.3829 C   0  0  0  0  0  0  0  0  0  0  0  0
    0.6584    6.2833    9.8612 C   0  0  0  0  0  0  0  0  0  0  0  0
    1.5726    7.3634    9.2866 C   0  0  0  0  0  0  0  0  0  0  0  0
    3.2733    6.3246    9.6252 H   0  0  0  0  0  0  0  0  0  0  0  0
    1.6307    7.2780    8.1972 H   0  0  0  0  0  0  0  0  0  0  0  0
    1.1915    8.3565    9.5347 H   0  0  0  0  0  0  0  0  0  0  0  0
    1.0267    5.2930    9.5749 H   0  0  0  0  0  0  0  0  0  0  0  0
   -0.3429    6.3984    9.4457 H   0  0  0  0  0  0  0  0  0  0  0  0
    0.1764    7.3538   11.6609 H   0  0  0  0  0  0  0  0  0  0  0  0
   -0.0012    5.6019   11.8047 H   0  0  0  0  0  0  0  0  0  0  0  0
    2.4568    5.3250   11.7359 H   0  0  0  0  0  0  0  0  0  0  0  0
    2.0259    6.4532   13.0228 H   0  0  0  0  0  0  0  0  0  0  0  0
    3.9340    7.3296   11.6736 H   0  0  0  0  0  0  0  0  0  0  0  0
    2.5168    8.3861   11.5350 H   0  0  0  0  0  0  0  0  0  0  0  0
  1 21  1  0  0  0  0
  1 20  1  0  0  0  0
  2  1  1  0  0  0  0
  3  9  1  0  0  0  0
  3  8  1  0  0  0  0
  3  1  1  0  0  0  0
  4  3  1  0  0  0  0
  5 12  1  0  0  0  0
  5  6  1  0  0  0  0
  5  4  1  0  0  0  0
  6  7  1  0  0  0  0
  7 16  1  0  0  0  0
  7 17  1  0  0  0  0
  7  8  1  0  0  0  0
  8 18  1  0  0  0  0
 10  4  1  0  0  0  0
 11  4  1  0  0  0  0
 13  5  1  0  0  0  0
 14  6  1  0  0  0  0
 15  6  1  0  0  0  0
 19  8  1  0  0  0  0
 21 22  1  0  0  0  0
 22 37  1  0  0  0  0
 22 36  1  0  0  0  0
 22 23  1  0  0  0  0
 23 35  1  0  0  0  0
 24 32  1  0  0  0  0
 24 33  1  0  0  0  0
 24 23  1  0  0  0  0
 25 24  1  0  0  0  0
 26 29  1  0  0  0  0
 26 21  1  0  0  0  0
 26 25  1  0  0  0  0
 27 21  1  0  0  0  0
 28 26  1  0  0  0  0
 30 25  1  0  0  0  0
 31 25  1  0  0  0  0
 34 23  1  0  0  0  0
M  END
$$$$
