CSD_code = QILGIB | q = 1 | S = 0 | Stoichiometry = C24H30As2ClN4Ru(1+) | MND = 6
 OpenBabel04212202083D

 62 65  0  0  1  0  0  0  0  0999 V2000
    2.1321    6.4197    4.0503 Ru  0  0  1  0  0  0  0  0  0  0  0  0
    4.4667    6.2834    3.6225 Cl  0  0  0  0  0  0  0  0  0  0  0  0
    0.0824    6.5184    4.4476 N   0  0  0  0  0  0  0  0  0  0  0  0
    2.9289    6.3139    6.3505 As  0  0  0  0  0  0  0  0  0  0  0  0
   -0.8902    5.7688    3.8593 C   0  0  0  0  0  0  0  0  0  0  0  0
    2.3707    3.9894    4.0501 As  0  0  0  0  0  0  0  0  0  0  0  0
   -2.1034    6.1366    4.3644 C   0  0  0  0  0  0  0  0  0  0  0  0
   -1.8640    7.1224    5.2708 N   0  0  0  0  0  0  0  0  0  0  0  0
   -0.5351    7.3225    5.2922 C   0  0  0  0  0  3  0  0  0  0  0  0
   -2.8542    7.8009    6.0601 C   0  0  0  0  0  0  0  0  0  0  0  0
    1.8304    6.5441    7.9784 C   0  0  0  0  0  0  0  0  0  0  0  0
    4.5042    7.3334    6.9017 C   0  0  0  0  0  0  0  0  0  0  0  0
    0.9193    2.6521    4.1380 C   0  0  0  0  0  0  0  0  0  0  0  0
    3.4969    3.1184    2.7093 C   0  0  0  0  0  0  0  0  0  0  0  0
    2.3227    8.3772    3.8783 N   0  0  0  0  0  0  0  0  0  0  0  0
    2.4194    9.2809    4.8525 C   0  0  0  0  0  3  0  0  0  0  0  0
    2.8344   10.5802    4.6457 C   0  0  0  0  0  0  0  0  0  0  0  0
    3.1805   10.9737    3.3578 C   0  0  0  0  0  0  0  0  0  0  0  0
    3.0537   10.0561    2.3336 C   0  0  0  0  0  0  0  0  0  0  0  0
    2.6117    8.7633    2.6133 C   0  0  0  0  0  0  0  0  0  0  0  0
    1.8838    6.5758    2.0958 N   0  0  0  0  0  0  0  0  0  0  0  0
    2.3586    7.7432    1.6023 C   0  0  1  0  0  3  0  0  0  0  0  0
    2.5192    7.9378    0.2307 C   0  0  0  0  0  0  0  0  0  0  0  0
    2.1691    6.9326   -0.6492 C   0  0  0  0  0  0  0  0  0  0  0  0
    1.6402    5.7552   -0.1329 C   0  0  0  0  0  0  0  0  0  0  0  0
    1.5239    5.6249    1.2359 C   0  0  0  0  0  0  0  0  0  0  0  0
    3.5616    4.4961    6.6485 C   0  0  0  0  0  0  0  0  0  0  0  0
    3.3301    3.5198    5.6799 C   0  0  0  0  0  0  0  0  0  0  0  0
    3.7998    2.2267    5.8891 C   0  0  0  0  0  0  0  0  0  0  0  0
    4.4932    1.9022    7.0409 C   0  0  0  0  0  0  0  0  0  0  0  0
    4.7227    2.8722    8.0032 C   0  0  0  0  0  0  0  0  0  0  0  0
    4.2573    4.1594    7.8058 C   0  0  0  0  0  0  0  0  0  0  0  0
   -0.6663    5.0228    3.1201 H   0  0  0  0  0  0  0  0  0  0  0  0
   -3.0894    5.7792    4.1517 H   0  0  0  0  0  0  0  0  0  0  0  0
   -0.0552    8.0493    5.9216 H   0  0  0  0  0  0  0  0  0  0  0  0
   -3.6209    8.2301    5.4141 H   0  0  0  0  0  0  0  0  0  0  0  0
   -2.3832    8.5983    6.6311 H   0  0  0  0  0  0  0  0  0  0  0  0
   -3.3321    7.1037    6.7506 H   0  0  0  0  0  0  0  0  0  0  0  0
    0.9147    5.9569    7.8910 H   0  0  0  0  0  0  0  0  0  0  0  0
    1.5649    7.5948    8.1219 H   0  0  0  0  0  0  0  0  0  0  0  0
    2.3833    6.2054    8.8566 H   0  0  0  0  0  0  0  0  0  0  0  0
    5.3316    7.0607    6.2451 H   0  0  0  0  0  0  0  0  0  0  0  0
    4.7686    7.1023    7.9367 H   0  0  0  0  0  0  0  0  0  0  0  0
    4.3316    8.4084    6.8132 H   0  0  0  0  0  0  0  0  0  0  0  0
    0.3900    2.5898    3.1836 H   0  0  0  0  0  0  0  0  0  0  0  0
    0.2068    2.9290    4.9168 H   0  0  0  0  0  0  0  0  0  0  0  0
    1.3307    1.6677    4.3691 H   0  0  0  0  0  0  0  0  0  0  0  0
    3.0936    3.2583    1.7037 H   0  0  0  0  0  0  0  0  0  0  0  0
    3.5746    2.0472    2.9120 H   0  0  0  0  0  0  0  0  0  0  0  0
    4.4891    3.5694    2.7504 H   0  0  0  0  0  0  0  0  0  0  0  0
    2.1594    8.9369    5.8525 H   0  0  0  0  0  0  0  0  0  0  0  0
    2.9017   11.2653    5.4752 H   0  0  0  0  0  0  0  0  0  0  0  0
    3.5366   11.9720    3.1618 H   0  0  0  0  0  0  0  0  0  0  0  0
    3.3086   10.3336    1.3246 H   0  0  0  0  0  0  0  0  0  0  0  0
    2.9258    8.8637   -0.1402 H   0  0  0  0  0  0  0  0  0  0  0  0
    2.3003    7.0607   -1.7113 H   0  0  0  0  0  0  0  0  0  0  0  0
    1.3381    4.9483   -0.7805 H   0  0  0  0  0  0  0  0  0  0  0  0
    1.1288    4.7083    1.6705 H   0  0  0  0  0  0  0  0  0  0  0  0
    3.6250    1.4631    5.1384 H   0  0  0  0  0  0  0  0  0  0  0  0
    4.8571    0.8964    7.1875 H   0  0  0  0  0  0  0  0  0  0  0  0
    5.2662    2.6256    8.9029 H   0  0  0  0  0  0  0  0  0  0  0  0
    4.4416    4.9159    8.5615 H   0  0  0  0  0  0  0  0  0  0  0  0
  1  2  1  1  0  0  0
  1  3  1  0  0  0  0
  3  9  1  0  0  0  0
  4 27  1  0  0  0  0
  4 12  1  0  0  0  0
  4 11  1  0  0  0  0
  5  7  2  0  0  0  0
  5  3  1  0  0  0  0
  6 13  1  0  0  0  0
  6 28  1  0  0  0  0
  7  8  1  0  0  0  0
  8  9  1  0  0  0  0
  8 10  1  0  0  0  0
  9 35  1  0  0  0  0
 10 37  1  0  0  0  0
 10 38  1  0  0  0  0
 11 40  1  0  0  0  0
 11 41  1  0  0  0  0
 12 43  1  0  0  0  0
 13 47  1  0  0  0  0
 13 46  1  0  0  0  0
 14 50  1  0  0  0  0
 14 49  1  0  0  0  0
 14  6  1  0  0  0  0
 15  1  1  0  0  0  0
 15 16  1  0  0  0  0
 16 51  1  0  0  0  0
 17 16  1  0  0  0  0
 17 52  1  0  0  0  0
 18 17  2  0  0  0  0
 19 20  2  0  0  0  0
 19 18  1  0  0  0  0
 20 15  1  0  0  0  0
 21  1  1  0  0  0  0
 22 23  1  6  0  0  0
 22 21  1  0  0  0  0
 22 20  1  0  0  0  0
 24 25  1  0  0  0  0
 24 23  2  0  0  0  0
 25 26  2  0  0  0  0
 26 58  1  0  0  0  0
 26 21  1  0  0  0  0
 27 32  1  0  0  0  0
 28 29  1  0  0  0  0
 28 27  2  0  0  0  0
 29 30  2  0  0  0  0
 30 60  1  0  0  0  0
 30 31  1  0  0  0  0
 31 61  1  0  0  0  0
 32 31  2  0  0  0  0
 32 62  1  0  0  0  0
 33  5  1  0  0  0  0
 34  7  1  0  0  0  0
 36 10  1  0  0  0  0
 39 11  1  0  0  0  0
 42 12  1  0  0  0  0
 44 12  1  0  0  0  0
 45 13  1  0  0  0  0
 48 14  1  0  0  0  0
 53 18  1  0  0  0  0
 54 19  1  0  0  0  0
 55 23  1  0  0  0  0
 56 24  1  0  0  0  0
 57 25  1  0  0  0  0
 59 29  1  0  0  0  0
M  END
$$$$
