CSD_code = QILRAE | q = 0 | S = 0 | Stoichiometry = C10H10Cl2F5MoNO3 | MND = 6
 OpenBabel04212202083D

 32 31  0  0  0  0  0  0  0  0999 V2000
    3.5749    3.2135    0.8298 Mo  0  0  0  0  0  0  0  0  0  0  0  0
    2.7474    1.3460    1.8453 Cl  0  0  0  0  0  0  0  0  0  0  0  0
    5.2173    4.8110    0.7705 Cl  0  0  0  0  0  0  0  0  0  0  0  0
    3.7888    2.5368   -0.7786 N   0  0  0  0  0  2  0  0  0  0  0  0
    1.3489    1.6275   -1.4244 F   0  0  0  0  0  0  0  0  0  0  0  0
    0.7930    0.7437   -3.9740 F   0  0  0  0  0  0  0  0  0  0  0  0
    2.7430    0.8076   -5.8794 F   0  0  0  0  0  0  0  0  0  0  0  0
    5.2335    1.7226   -5.2481 F   0  0  0  0  0  0  0  0  0  0  0  0
    5.7819    2.5656   -2.7086 F   0  0  0  0  0  0  0  0  0  0  0  0
    3.9316    3.6875    3.1996 O   0  0  0  0  0  0  0  0  0  0  0  0
    5.5732    2.0582    1.6983 O   0  0  0  0  0  0  0  0  0  0  0  0
    2.2751    4.2154    0.8807 O   0  0  0  0  0  1  0  0  0  0  0  0
    2.7443    3.9241    3.9395 C   0  0  0  0  0  0  0  0  0  0  0  0
    4.8131    2.7840    3.8419 C   0  0  0  0  0  0  0  0  0  0  0  0
    6.0239    2.5861    2.9370 C   0  0  0  0  0  0  0  0  0  0  0  0
    6.6427    1.8401    0.7876 C   0  0  0  0  0  0  0  0  0  0  0  0
    3.5640    2.1335   -2.0199 C   0  0  0  0  0  0  0  0  0  0  0  0
    2.2859    1.6536   -2.3854 C   0  0  0  0  0  0  0  0  0  0  0  0
    2.0084    1.2027   -3.6623 C   0  0  0  0  0  0  0  0  0  0  0  0
    3.0050    1.2338   -4.6388 C   0  0  0  0  0  0  0  0  0  0  0  0
    4.2759    1.7034   -4.3151 C   0  0  0  0  0  0  0  0  0  0  0  0
    4.5492    2.1334   -3.0275 C   0  0  0  0  0  0  0  0  0  0  0  0
    2.9910    4.3823    4.9035 H   0  0  0  0  0  0  0  0  0  0  0  0
    2.1408    4.6091    3.3424 H   0  0  0  0  0  0  0  0  0  0  0  0
    2.1911    2.9915    4.1008 H   0  0  0  0  0  0  0  0  0  0  0  0
    4.3068    1.8193    4.0075 H   0  0  0  0  0  0  0  0  0  0  0  0
    5.1342    3.2041    4.8061 H   0  0  0  0  0  0  0  0  0  0  0  0
    6.7235    1.8777    3.4029 H   0  0  0  0  0  0  0  0  0  0  0  0
    6.5273    3.5506    2.7683 H   0  0  0  0  0  0  0  0  0  0  0  0
    6.2130    1.3881   -0.1059 H   0  0  0  0  0  0  0  0  0  0  0  0
    7.3728    1.1552    1.2320 H   0  0  0  0  0  0  0  0  0  0  0  0
    7.1298    2.7847    0.5221 H   0  0  0  0  0  0  0  0  0  0  0  0
  1 12  1  0  0  0  0
  1  2  1  0  0  0  0
  3  1  1  0  0  0  0
  4  1  1  0  0  0  0
  6 19  1  0  0  0  0
  7 20  1  0  0  0  0
  8 21  1  0  0  0  0
 10 14  1  0  0  0  0
 10 13  1  0  0  0  0
 11 15  1  0  0  0  0
 13 25  1  0  0  0  0
 13 23  1  0  0  0  0
 14 26  1  0  0  0  0
 14 27  1  0  0  0  0
 15 28  1  0  0  0  0
 15 14  1  0  0  0  0
 16 31  1  0  0  0  0
 16 11  1  0  0  0  0
 17  4  1  0  0  0  0
 18 17  1  0  0  0  0
 18  5  1  0  0  0  0
 19 18  2  0  0  0  0
 20 21  2  0  0  0  0
 20 19  1  0  0  0  0
 21 22  1  0  0  0  0
 22  9  1  0  0  0  0
 22 17  2  0  0  0  0
 24 13  1  0  0  0  0
 29 15  1  0  0  0  0
 30 16  1  0  0  0  0
 32 16  1  0  0  0  0
M  END
$$$$
