CSD_code = QIPDEA | q = 0 | S = 0 | Stoichiometry = C16H16Br2CdN4 | MND = 4
 OpenBabel04212202083D

 39 42  0  0  1  0  0  0  0  0999 V2000
    3.1940   14.1474   10.6357 N   0  0  0  0  0  0  0  0  0  0  0  0
    4.7694   13.3629   11.9737 N   0  0  0  0  0  0  0  0  0  0  0  0
    5.6846   13.0905   12.2925 H   0  0  0  0  0  0  0  0  0  0  0  0
   -0.0372   14.8051    8.4787 N   0  0  0  0  0  0  0  0  0  0  0  0
   -1.8910   13.8716    7.7164 N   0  0  0  0  0  0  0  0  0  0  0  0
   -2.5481   13.1512    7.4666 H   0  0  0  0  0  0  0  0  0  0  0  0
    2.9511   13.0520    7.1439 Br  0  0  0  0  0  0  0  0  0  0  0  0
    3.3708   17.1682    8.4654 Br  0  0  0  0  0  0  0  0  0  0  0  0
    3.5965   13.2626   12.6827 C   0  0  0  0  0  0  0  0  0  0  0  0
    3.2930   12.8011   13.9525 C   0  0  0  0  0  0  0  0  0  0  0  0
    4.0567   12.4157   14.6102 H   0  0  0  0  0  0  0  0  0  0  0  0
    1.9680   12.8599   14.3381 C   0  0  0  0  0  0  0  0  0  0  0  0
    1.6881   12.5110   15.3202 H   0  0  0  0  0  0  0  0  0  0  0  0
    0.9795   13.3647   13.4912 C   0  0  0  0  0  0  0  0  0  0  0  0
   -0.0409   13.3956   13.8423 H   0  0  0  0  0  0  0  0  0  0  0  0
    1.2752   13.8264   12.2251 C   0  0  0  0  0  0  0  0  0  0  0  0
    0.5135   14.2301   11.5722 H   0  0  0  0  0  0  0  0  0  0  0  0
    2.6030   13.7687   11.8184 C   0  0  0  0  0  0  0  0  0  0  0  0
    4.4760   13.8973   10.7596 C   0  0  1  0  0  3  0  0  0  0  0  0
    5.5026   14.1483    9.7248 C   0  0  0  0  0  0  0  0  0  0  0  0
    5.3173   13.5156    8.8538 H   0  0  0  0  0  0  0  0  0  0  0  0
    6.4974   13.9389   10.1091 H   0  0  0  0  0  0  0  0  0  0  0  0
    5.4567   15.1880    9.3943 H   0  0  0  0  0  0  0  0  0  0  0  0
   -0.8370   15.8012    7.9569 C   0  0  0  0  0  0  0  0  0  0  0  0
   -0.6331   17.1740    7.8699 C   0  0  0  0  0  0  0  0  0  0  0  0
    0.2707   17.6335    8.2428 H   0  0  0  0  0  0  0  0  0  0  0  0
   -1.6323   17.9230    7.2834 C   0  0  0  0  0  0  0  0  0  0  0  0
   -1.5068   18.9911    7.1942 H   0  0  0  0  0  0  0  0  0  0  0  0
   -2.8033   17.3377    6.7979 C   0  0  0  0  0  0  0  0  0  0  0  0
   -3.5550   17.9663    6.3454 H   0  0  0  0  0  0  0  0  0  0  0  0
   -3.0225   15.9766    6.8800 C   0  0  0  0  0  0  0  0  0  0  0  0
   -3.9265   15.5238    6.5029 H   0  0  0  0  0  0  0  0  0  0  0  0
   -2.0230   15.2181    7.4660 C   0  0  0  0  0  0  0  0  0  0  0  0
   -0.6872   13.6784    8.3145 C   0  0  1  0  0  3  0  0  0  0  0  0
   -0.1994   12.3370    8.7074 C   0  0  0  0  0  0  0  0  0  0  0  0
    0.4915   12.4162    9.5453 H   0  0  0  0  0  0  0  0  0  0  0  0
    0.3430   11.8840    7.8749 H   0  0  0  0  0  0  0  0  0  0  0  0
   -1.0302   11.6886    8.9771 H   0  0  0  0  0  0  0  0  0  0  0  0
    2.2765   14.9470    8.6415 Cd  0  0  0  0  0  0  0  0  0  0  0  0
  1 19  1  0  0  0  0
  1 18  1  0  0  0  0
  2  3  1  0  0  0  0
  2  9  1  0  0  0  0
  4 39  1  0  0  0  0
  5 34  1  0  0  0  0
  6  5  1  0  0  0  0
  7 39  1  0  0  0  0
  8 39  1  0  0  0  0
  9 10  1  0  0  0  0
 10 12  2  0  0  0  0
 10 11  1  0  0  0  0
 12 13  1  0  0  0  0
 14 15  1  0  0  0  0
 14 12  1  0  0  0  0
 16 14  2  0  0  0  0
 17 16  1  0  0  0  0
 18 16  1  0  0  0  0
 18  9  2  0  0  0  0
 19 20  1  6  0  0  0
 19  2  1  0  0  0  0
 20 22  1  0  0  0  0
 21 20  1  0  0  0  0
 23 20  1  0  0  0  0
 24  4  1  0  0  0  0
 25 24  1  0  0  0  0
 25 26  1  0  0  0  0
 27 25  2  0  0  0  0
 28 27  1  0  0  0  0
 29 31  2  0  0  0  0
 29 27  1  0  0  0  0
 30 29  1  0  0  0  0
 31 33  1  0  0  0  0
 32 31  1  0  0  0  0
 33  5  1  0  0  0  0
 33 24  2  0  0  0  0
 34  4  1  0  0  0  0
 34 35  1  6  0  0  0
 35 38  1  0  0  0  0
 35 36  1  0  0  0  0
 37 35  1  0  0  0  0
 39  1  1  0  0  0  0
M  END
$$$$
