CSD_code = QIQDOJ | q = 0 | S = 0 | Stoichiometry = C28H27Cl2NO2P2Pt | MND = 4
 OpenBabel04212202083D

 63 67  0  0  1  0  0  0  0  0999 V2000
  -15.6143   17.0801   12.0407 Pt  0  0  0  0  0  0  0  0  0  0  0  0
  -17.7434   17.8603   11.9604 Cl  0  0  0  0  0  0  0  0  0  0  0  0
  -14.9069   18.9502   13.1274 Cl  0  0  0  0  0  0  0  0  0  0  0  0
  -15.9703   15.1281   10.8943 P   0  0  0  0  0  4  0  0  0  0  0  0
  -14.3086   14.6559   11.1054 N   0  0  0  0  0  0  0  0  0  0  0  0
  -13.5882   16.0349   11.8621 P   0  0  0  0  0  4  0  0  0  0  0  0
  -13.5106   13.7456   10.3136 C   0  0  2  0  0  0  0  0  0  0  0  0
  -12.5292   13.6574   10.8012 H   0  0  0  0  0  0  0  0  0  0  0  0
  -13.2498   14.3334    8.9282 C   0  0  0  0  0  0  0  0  0  0  0  0
  -13.7718   15.3331    8.5133 O   0  0  0  0  0  0  0  0  0  0  0  0
  -12.3578   13.6179    8.2497 O   0  0  0  0  0  0  0  0  0  0  0  0
  -12.0215   14.1145    6.9577 C   0  0  0  0  0  0  0  0  0  0  0  0
  -11.2513   13.4533    6.5703 H   0  0  0  0  0  0  0  0  0  0  0  0
  -11.6515   15.1386    7.0377 H   0  0  0  0  0  0  0  0  0  0  0  0
  -12.9001   14.1063    6.3103 H   0  0  0  0  0  0  0  0  0  0  0  0
  -14.1271   12.3533   10.2021 C   0  0  0  0  0  0  0  0  0  0  0  0
  -14.2189   11.9030   11.1872 H   0  0  0  0  0  0  0  0  0  0  0  0
  -13.4952   11.7244    9.5804 H   0  0  0  0  0  0  0  0  0  0  0  0
  -15.1172   12.4135    9.7598 H   0  0  0  0  0  0  0  0  0  0  0  0
  -16.4272   15.2801    9.1429 C   0  0  0  0  0  0  0  0  0  0  0  0
  -16.7334   14.2146    8.3036 C   0  0  0  0  0  0  0  0  0  0  0  0
  -16.7293   13.1994    8.6768 H   0  0  0  0  0  0  0  0  0  0  0  0
  -17.0620   14.4545    6.9819 C   0  0  0  0  0  0  0  0  0  0  0  0
  -17.2960   13.6249    6.3300 H   0  0  0  0  0  0  0  0  0  0  0  0
  -17.0958   15.7511    6.4943 C   0  0  0  0  0  0  0  0  0  0  0  0
  -17.3530   15.9290    5.4604 H   0  0  0  0  0  0  0  0  0  0  0  0
  -16.8105   16.8161    7.3330 C   0  0  0  0  0  0  0  0  0  0  0  0
  -16.8504   17.8273    6.9576 H   0  0  0  0  0  0  0  0  0  0  0  0
  -16.4793   16.5813    8.6533 C   0  0  0  0  0  0  0  0  0  0  0  0
  -16.2702   17.4038    9.3303 H   0  0  0  0  0  0  0  0  0  0  0  0
  -16.9241   13.7254   11.5273 C   0  0  0  0  0  0  0  0  0  0  0  0
  -16.4563   13.0079   12.6250 C   0  0  0  0  0  0  0  0  0  0  0  0
  -15.4857   13.2471   13.0360 H   0  0  0  0  0  0  0  0  0  0  0  0
  -17.2354   12.0185   13.1929 C   0  0  0  0  0  0  0  0  0  0  0  0
  -16.8650   11.4586   14.0392 H   0  0  0  0  0  0  0  0  0  0  0  0
  -18.5000   11.7573   12.6885 C   0  0  0  0  0  0  0  0  0  0  0  0
  -19.1104   10.9866   13.1349 H   0  0  0  0  0  0  0  0  0  0  0  0
  -18.9906   12.5028   11.6287 C   0  0  0  0  0  0  0  0  0  0  0  0
  -19.9871   12.3199   11.2550 H   0  0  0  0  0  0  0  0  0  0  0  0
  -18.2124   13.4910   11.0535 C   0  0  0  0  0  0  0  0  0  0  0  0
  -18.6026   14.0914   10.2439 H   0  0  0  0  0  0  0  0  0  0  0  0
  -12.4464   16.7526   10.6454 C   0  0  0  0  0  0  0  0  0  0  0  0
  -12.9207   17.8360    9.9153 C   0  0  0  0  0  0  0  0  0  0  0  0
  -13.8955   18.2465   10.1632 H   0  0  0  0  0  0  0  0  0  0  0  0
  -12.1511   18.3800    8.9048 C   0  0  0  0  0  0  0  0  0  0  0  0
  -12.5195   19.2201    8.3361 H   0  0  0  0  0  0  0  0  0  0  0  0
  -10.9056   17.8419    8.6223 C   0  0  0  0  0  0  0  0  0  0  0  0
  -10.3040   18.2595    7.8281 H   0  0  0  0  0  0  0  0  0  0  0  0
  -10.4225   16.7731    9.3614 C   0  0  0  0  0  0  0  0  0  0  0  0
   -9.4462   16.3627    9.1458 H   0  0  0  0  0  0  0  0  0  0  0  0
  -11.1876   16.2271   10.3763 C   0  0  0  0  0  0  0  0  0  0  0  0
  -10.8038   15.4012   10.9611 H   0  0  0  0  0  0  0  0  0  0  0  0
  -12.4739   15.3474   13.1140 C   0  0  0  0  0  0  0  0  0  0  0  0
  -11.6001   16.2581   13.7064 C   0  0  0  0  0  0  0  0  0  0  0  0
  -11.5950   17.2820   13.3563 H   0  0  0  0  0  0  0  0  0  0  0  0
  -10.7668   15.8531   14.7305 C   0  0  0  0  0  0  0  0  0  0  0  0
  -10.0908   16.5598   15.1877 H   0  0  0  0  0  0  0  0  0  0  0  0
  -10.8061   14.5403   15.1765 C   0  0  0  0  0  0  0  0  0  0  0  0
  -10.1555   14.2229   15.9776 H   0  0  0  0  0  0  0  0  0  0  0  0
  -11.6880   13.6381   14.6047 C   0  0  0  0  0  0  0  0  0  0  0  0
  -11.7257   12.6191   14.9615 H   0  0  0  0  0  0  0  0  0  0  0  0
  -12.5292   14.0400   13.5820 C   0  0  0  0  0  0  0  0  0  0  0  0
  -13.2272   13.3394   13.1468 H   0  0  0  0  0  0  0  0  0  0  0  0
  1  3  1  0  0  0  0
  2  1  1  0  0  0  0
  4  5  1  0  0  0  0
  4 31  1  0  0  0  0
  4  1  1  0  0  0  0
  5  6  1  0  0  0  0
  6  1  1  0  0  0  0
  6 53  1  0  0  0  0
  7  8  1  1  0  0  0
  7  5  1  0  0  0  0
  9  7  1  0  0  0  0
 10  9  2  0  0  0  0
 11  9  1  0  0  0  0
 12 14  1  0  0  0  0
 12 11  1  0  0  0  0
 13 12  1  0  0  0  0
 15 12  1  0  0  0  0
 16  7  1  0  0  0  0
 16 17  1  0  0  0  0
 18 16  1  0  0  0  0
 19 16  1  0  0  0  0
 20  4  1  0  0  0  0
 21 22  1  0  0  0  0
 21 20  2  0  0  0  0
 23 21  1  0  0  0  0
 24 23  1  0  0  0  0
 25 23  2  0  0  0  0
 25 27  1  0  0  0  0
 26 25  1  0  0  0  0
 27 29  2  0  0  0  0
 28 27  1  0  0  0  0
 29 20  1  0  0  0  0
 29 30  1  0  0  0  0
 31 32  1  0  0  0  0
 32 33  1  0  0  0  0
 32 34  2  0  0  0  0
 34 35  1  0  0  0  0
 36 37  1  0  0  0  0
 36 34  1  0  0  0  0
 38 36  2  0  0  0  0
 39 38  1  0  0  0  0
 40 31  2  0  0  0  0
 40 38  1  0  0  0  0
 41 40  1  0  0  0  0
 42  6  1  0  0  0  0
 43 44  1  0  0  0  0
 43 42  2  0  0  0  0
 45 43  1  0  0  0  0
 46 45  1  0  0  0  0
 47 45  2  0  0  0  0
 47 49  1  0  0  0  0
 48 47  1  0  0  0  0
 49 51  2  0  0  0  0
 50 49  1  0  0  0  0
 51 42  1  0  0  0  0
 51 52  1  0  0  0  0
 53 62  2  0  0  0  0
 53 54  1  0  0  0  0
 54 56  2  0  0  0  0
 55 54  1  0  0  0  0
 56 58  1  0  0  0  0
 56 57  1  0  0  0  0
 58 59  1  0  0  0  0
 60 61  1  0  0  0  0
 60 58  2  0  0  0  0
 62 60  1  0  0  0  0
 63 62  1  0  0  0  0
M  END
$$$$
