CSD_code = QIQDIF | q = 0 | S = 0 | Stoichiometry = C24H16F6N4SiZn | MND = 6
 OpenBabel04212202083D

 52 58  0  0  0  0  0  0  0  0999 V2000
    8.1587    4.0726   11.5656 Zn  0  0  0  0  0  0  0  0  0  0  0  0
    7.7036    5.4726   10.0987 N   0  0  0  0  0  0  0  0  0  0  0  0
    8.4550    2.9133   13.2393 N   0  0  0  0  0  0  0  0  0  0  0  0
    9.8141    3.7918   10.2361 N   0  0  0  0  0  0  0  0  0  0  0  0
    9.3283    5.3946   12.7605 N   0  0  0  0  0  0  0  0  0  0  0  0
    8.3099    5.1210    8.9555 C   0  0  0  0  0  0  0  0  0  0  0  0
    6.6676    6.2765   10.0531 C   0  0  0  0  0  0  0  0  0  0  0  0
    6.2075    6.5295   10.9951 H   0  0  0  0  0  0  0  0  0  0  0  0
    8.7913    3.6666   14.2932 C   0  0  0  0  0  0  0  0  0  0  0  0
    6.1612    6.7911    8.8530 C   0  0  0  0  0  0  0  0  0  0  0  0
    5.3018    7.4418    8.8753 H   0  0  0  0  0  0  0  0  0  0  0  0
    7.8763    5.5851    7.6952 C   0  0  0  0  0  0  0  0  0  0  0  0
    6.7636    6.4443    7.6698 C   0  0  0  0  0  0  0  0  0  0  0  0
    6.3969    6.8121    6.7220 H   0  0  0  0  0  0  0  0  0  0  0  0
    8.5561    5.1623    6.5169 C   0  0  0  0  0  0  0  0  0  0  0  0
    8.2022    5.5309    5.5652 H   0  0  0  0  0  0  0  0  0  0  0  0
    9.6078    4.3117    6.5846 C   0  0  0  0  0  0  0  0  0  0  0  0
   10.1145    3.9832    5.6890 H   0  0  0  0  0  0  0  0  0  0  0  0
   10.0684    3.8159    7.8378 C   0  0  0  0  0  0  0  0  0  0  0  0
   11.1383    2.9135    7.9558 C   0  0  0  0  0  0  0  0  0  0  0  0
   11.6479    2.5716    7.0663 H   0  0  0  0  0  0  0  0  0  0  0  0
   11.5108    2.4759    9.2032 C   0  0  0  0  0  0  0  0  0  0  0  0
   12.3227    1.7772    9.3306 H   0  0  0  0  0  0  0  0  0  0  0  0
   10.8132    2.9474   10.3198 C   0  0  0  0  0  0  0  0  0  0  0  0
   11.0807    2.6224   11.3155 H   0  0  0  0  0  0  0  0  0  0  0  0
    9.4278    4.2250    9.0291 C   0  0  0  0  0  0  0  0  0  0  0  0
    7.9504    1.7183   13.4393 C   0  0  0  0  0  0  0  0  0  0  0  0
    7.6618    1.1772   12.5502 H   0  0  0  0  0  0  0  0  0  0  0  0
    7.7714    1.1824   14.7185 C   0  0  0  0  0  0  0  0  0  0  0  0
    7.3434    0.1988   14.8310 H   0  0  0  0  0  0  0  0  0  0  0  0
    8.1230    1.9329   15.8144 C   0  0  0  0  0  0  0  0  0  0  0  0
    7.9813    1.5593   16.8182 H   0  0  0  0  0  0  0  0  0  0  0  0
    8.6492    3.2209   15.6232 C   0  0  0  0  0  0  0  0  0  0  0  0
    8.9910    4.0972   16.6923 C   0  0  0  0  0  0  0  0  0  0  0  0
    8.8624    3.7407   17.7034 H   0  0  0  0  0  0  0  0  0  0  0  0
    9.4320    5.3548   16.4502 C   0  0  0  0  0  0  0  0  0  0  0  0
    9.6650    6.0258   17.2636 H   0  0  0  0  0  0  0  0  0  0  0  0
    9.5725    5.8415   15.1192 C   0  0  0  0  0  0  0  0  0  0  0  0
    9.9805    7.1495   14.8139 C   0  0  0  0  0  0  0  0  0  0  0  0
   10.2081    7.8383   15.6143 H   0  0  0  0  0  0  0  0  0  0  0  0
   10.0627    7.5350   13.4981 C   0  0  0  0  0  0  0  0  0  0  0  0
   10.3604    8.5355   13.2277 H   0  0  0  0  0  0  0  0  0  0  0  0
    9.7175    6.6190   12.5013 C   0  0  0  0  0  0  0  0  0  0  0  0
    9.7481    6.9001   11.4583 H   0  0  0  0  0  0  0  0  0  0  0  0
    9.2580    4.9950   14.0356 C   0  0  0  0  0  0  0  0  0  0  0  0
    5.8716    5.9586   13.8863 Si  0  0  0  0  0  0  0  0  0  0  0  0
    7.3398    2.7916   10.6770 F   0  0  0  0  0  0  0  0  0  0  0  0
    6.5149    4.8743   12.7065 F   0  0  0  0  0  0  0  0  0  0  0  0
    7.0051    7.0267   13.4377 F   0  0  0  0  0  0  0  0  0  0  0  0
    5.2988    6.9551   15.0357 F   0  0  0  0  0  0  0  0  0  0  0  0
    6.2359    4.8381   14.9937 F   0  0  0  0  0  0  0  0  0  0  0  0
    4.5319    6.0431   13.0063 F   0  0  0  0  0  0  0  0  0  0  0  0
  1  5  1  0  0  0  0
  1  3  1  0  0  0  0
  2  1  1  0  0  0  0
  3 27  1  0  0  0  0
  3  9  1  0  0  0  0
  4 24  1  0  0  0  0
  4  1  1  0  0  0  0
  5 45  1  0  0  0  0
  6 26  2  0  0  0  0
  6  2  1  0  0  0  0
  7  2  1  0  0  0  0
  7  8  1  0  0  0  0
  9 33  1  0  0  0  0
 10 11  1  0  0  0  0
 10  7  2  0  0  0  0
 12  6  1  0  0  0  0
 13 12  2  0  0  0  0
 13 10  1  0  0  0  0
 14 13  1  0  0  0  0
 15 17  2  0  0  0  0
 15 12  1  0  0  0  0
 16 15  1  0  0  0  0
 17 19  1  0  0  0  0
 18 17  1  0  0  0  0
 19 20  2  0  0  0  0
 19 26  1  0  0  0  0
 20 22  1  0  0  0  0
 21 20  1  0  0  0  0
 22 23  1  0  0  0  0
 22 24  2  0  0  0  0
 24 25  1  0  0  0  0
 26  4  1  0  0  0  0
 27 29  2  0  0  0  0
 28 27  1  0  0  0  0
 29 30  1  0  0  0  0
 29 31  1  0  0  0  0
 31 32  1  0  0  0  0
 33 31  2  0  0  0  0
 33 34  1  0  0  0  0
 34 35  1  0  0  0  0
 36 34  2  0  0  0  0
 36 37  1  0  0  0  0
 38 36  1  0  0  0  0
 39 38  2  0  0  0  0
 39 40  1  0  0  0  0
 41 39  1  0  0  0  0
 42 41  1  0  0  0  0
 43  5  1  0  0  0  0
 43 41  2  0  0  0  0
 44 43  1  0  0  0  0
 45  9  2  0  0  0  0
 45 38  1  0  0  0  0
 46 51  1  0  0  0  0
 46 50  1  0  0  0  0
 47  1  1  0  0  0  0
 48 46  1  0  0  0  0
 49 46  1  0  0  0  0
 52 46  1  0  0  0  0
M  END
$$$$
