CSD_code = QIRJUY | q = 0 | S = 0 | Stoichiometry = C13H12Cl2N2Zn | MND = 4
 OpenBabel04212202083D

 30 32  0  0  0  0  0  0  0  0999 V2000
    2.6197    7.2973    0.3366 Zn  0  0  0  0  0  0  0  0  0  0  0  0
    3.1322    9.2561   -0.4882 Cl  0  0  0  0  0  0  0  0  0  0  0  0
    1.7080    6.6531    2.2493 Cl  0  0  0  0  0  0  0  0  0  0  0  0
    1.3694    6.1746   -0.9793 N   0  0  0  0  0  0  0  0  0  0  0  0
    3.7983    5.5109    0.0547 N   0  0  0  0  0  0  0  0  0  0  0  0
    1.7167    4.8855   -0.8983 C   0  0  0  0  0  0  0  0  0  0  0  0
    0.8790    3.8731   -1.3671 C   0  0  0  0  0  0  0  0  0  0  0  0
    1.1826    2.8409   -1.2849 H   0  0  0  0  0  0  0  0  0  0  0  0
   -0.3388    4.2175   -1.9273 C   0  0  0  0  0  0  0  0  0  0  0  0
   -1.0096    3.4540   -2.2914 H   0  0  0  0  0  0  0  0  0  0  0  0
   -0.6812    5.5586   -2.0092 C   0  0  0  0  0  0  0  0  0  0  0  0
   -1.6200    5.8700   -2.4379 H   0  0  0  0  0  0  0  0  0  0  0  0
    0.2096    6.5033   -1.5177 C   0  0  0  0  0  0  0  0  0  0  0  0
   -0.0121    7.5608   -1.5574 H   0  0  0  0  0  0  0  0  0  0  0  0
    2.9992    4.5814   -0.2935 C   0  0  0  0  0  0  0  0  0  0  0  0
    3.2475    3.5264   -0.1644 H   0  0  0  0  0  0  0  0  0  0  0  0
    4.9871    5.2412    0.7200 C   0  0  0  0  0  0  0  0  0  0  0  0
    5.0213    4.3068    1.7576 C   0  0  0  0  0  0  0  0  0  0  0  0
    4.1079    3.8072    2.0447 H   0  0  0  0  0  0  0  0  0  0  0  0
    6.1874    4.0956    2.4648 C   0  0  0  0  0  0  0  0  0  0  0  0
    6.2000    3.3907    3.2819 H   0  0  0  0  0  0  0  0  0  0  0  0
    7.3325    4.7994    2.1284 C   0  0  0  0  0  0  0  0  0  0  0  0
    8.2474    4.6380    2.6780 H   0  0  0  0  0  0  0  0  0  0  0  0
    7.3021    5.7199    1.0943 C   0  0  0  0  0  0  0  0  0  0  0  0
    8.1984    6.2663    0.8399 H   0  0  0  0  0  0  0  0  0  0  0  0
    6.1404    5.9671    0.3781 C   0  0  0  0  0  0  0  0  0  0  0  0
    6.1195    6.9407   -0.7531 C   0  0  0  0  0  0  0  0  0  0  0  0
    5.8523    6.4443   -1.6852 H   0  0  0  0  0  0  0  0  0  0  0  0
    7.0913    7.4111   -0.8732 H   0  0  0  0  0  0  0  0  0  0  0  0
    5.3749    7.7174   -0.5745 H   0  0  0  0  0  0  0  0  0  0  0  0
  1  3  1  0  0  0  0
  2  1  1  0  0  0  0
  4  6  1  0  0  0  0
  4  1  1  0  0  0  0
  5  1  1  0  0  0  0
  5 17  1  0  0  0  0
  6 15  2  0  0  0  0
  7  8  1  0  0  0  0
  7  6  1  0  0  0  0
  9  7  2  0  0  0  0
 10  9  1  0  0  0  0
 11  9  1  0  0  0  0
 11 13  2  0  0  0  0
 12 11  1  0  0  0  0
 13  4  1  0  0  0  0
 14 13  1  0  0  0  0
 15 16  1  0  0  0  0
 15  5  1  0  0  0  0
 17 18  1  0  0  0  0
 18 19  1  0  0  0  0
 18 20  2  0  0  0  0
 20 21  1  0  0  0  0
 22 20  1  0  0  0  0
 22 23  1  0  0  0  0
 24 22  2  0  0  0  0
 25 24  1  0  0  0  0
 26 17  2  0  0  0  0
 26 24  1  0  0  0  0
 27 30  1  0  0  0  0
 27 26  1  0  0  0  0
 28 27  1  0  0  0  0
 29 27  1  0  0  0  0
M  END
$$$$
