CSD_code = QIRKEJ | q = 0 | S = 0 | Stoichiometry = C14H12Br2N2O2Zn | MND = 4
 OpenBabel04212202083D

 33 35  0  0  0  0  0  0  0  0999 V2000
    3.6955    0.7205    0.8898 Br  0  0  0  0  0  0  0  0  0  0  0  0
    8.0635    1.7730    0.9558 Br  0  0  0  0  0  0  0  0  0  0  0  0
    5.8849    1.2203    1.6063 Zn  0  0  0  0  0  0  0  0  0  0  0  0
    6.2376   -6.5620    3.0620 O   0  0  0  0  0  0  0  0  0  0  0  0
    7.8702   -5.9884    1.6363 O   0  0  0  0  0  0  0  0  0  0  0  0
    5.4781    2.4811    3.3276 N   0  0  0  0  0  0  0  0  0  0  0  0
    6.0280   -0.1831    3.2614 N   0  0  0  0  0  0  0  0  0  0  0  0
    5.3585    1.7577    4.4480 C   0  0  0  0  0  0  0  0  0  0  0  0
    4.9809    2.3389    5.6582 C   0  0  0  0  0  0  0  0  0  0  0  0
    4.8920    1.7285    6.5433 H   0  0  0  0  0  0  0  0  0  0  0  0
    4.7244    3.6985    5.6973 C   0  0  0  0  0  0  0  0  0  0  0  0
    4.4282    4.1737    6.6200 H   0  0  0  0  0  0  0  0  0  0  0  0
    4.8550    4.4355    4.5305 C   0  0  0  0  0  0  0  0  0  0  0  0
    4.6659    5.4964    4.5141 H   0  0  0  0  0  0  0  0  0  0  0  0
    5.2353    3.7788    3.3684 C   0  0  0  0  0  0  0  0  0  0  0  0
    5.3497    4.3161    2.4365 H   0  0  0  0  0  0  0  0  0  0  0  0
    5.6350    0.3371    4.3567 C   0  0  0  0  0  0  0  0  0  0  0  0
    5.5090   -0.2501    5.2672 H   0  0  0  0  0  0  0  0  0  0  0  0
    6.2418   -1.5466    3.1176 C   0  0  0  0  0  0  0  0  0  0  0  0
    5.4170   -2.4951    3.7300 C   0  0  0  0  0  0  0  0  0  0  0  0
    4.5738   -2.1729    4.3229 H   0  0  0  0  0  0  0  0  0  0  0  0
    5.6421   -3.8368    3.5132 C   0  0  0  0  0  0  0  0  0  0  0  0
    5.0096   -4.5858    3.9651 H   0  0  0  0  0  0  0  0  0  0  0  0
    6.6904   -4.2538    2.6949 C   0  0  0  0  0  0  0  0  0  0  0  0
    7.5076   -3.3083    2.0786 C   0  0  0  0  0  0  0  0  0  0  0  0
    8.3122   -3.6330    1.4387 H   0  0  0  0  0  0  0  0  0  0  0  0
    7.2797   -1.9637    2.2795 C   0  0  0  0  0  0  0  0  0  0  0  0
    7.9175   -1.2271    1.8134 H   0  0  0  0  0  0  0  0  0  0  0  0
    6.8877   -5.7146    2.5015 C   0  0  0  0  0  0  0  0  0  0  0  0
    8.1150   -7.3657    1.3911 C   0  0  0  0  0  0  0  0  0  0  0  0
    8.8979   -7.4057    0.6384 H   0  0  0  0  0  0  0  0  0  0  0  0
    7.2073   -7.8532    1.0297 H   0  0  0  0  0  0  0  0  0  0  0  0
    8.4378   -7.8622    2.3086 H   0  0  0  0  0  0  0  0  0  0  0  0
  1  3  1  0  0  0  0
  2  3  1  0  0  0  0
  3  7  1  0  0  0  0
  3  6  1  0  0  0  0
  5 29  1  0  0  0  0
  6 15  1  0  0  0  0
  6  8  1  0  0  0  0
  7 17  1  0  0  0  0
  8  9  1  0  0  0  0
  9 11  2  0  0  0  0
  9 10  1  0  0  0  0
 11 12  1  0  0  0  0
 13 11  1  0  0  0  0
 14 13  1  0  0  0  0
 15 13  2  0  0  0  0
 16 15  1  0  0  0  0
 17  8  2  0  0  0  0
 17 18  1  0  0  0  0
 19  7  1  0  0  0  0
 19 20  1  0  0  0  0
 20 21  1  0  0  0  0
 22 20  2  0  0  0  0
 22 23  1  0  0  0  0
 24 22  1  0  0  0  0
 25 27  1  0  0  0  0
 25 24  2  0  0  0  0
 26 25  1  0  0  0  0
 27 19  2  0  0  0  0
 28 27  1  0  0  0  0
 29 24  1  0  0  0  0
 29  4  2  0  0  0  0
 30  5  1  0  0  0  0
 30 33  1  0  0  0  0
 31 30  1  0  0  0  0
 32 30  1  0  0  0  0
M  END
$$$$
