CSD_code = QIRRAK | q = 1 | S = 0 | Stoichiometry = C12H8AuCl2N2(1+) | MND = 4
 OpenBabel04212202083D

 25 28  0  0  0  0  0  0  0  0999 V2000
    3.4657    0.1970    1.7358 Au  0  0  0  0  0  0  0  0  0  0  0  0
    2.7533   -1.9105    1.5993 Cl  0  0  0  0  0  0  0  0  0  0  0  0
    5.5712   -0.5296    1.8002 Cl  0  0  0  0  0  0  0  0  0  0  0  0
    3.9809    2.2023    1.8575 N   0  0  0  0  0  0  0  0  0  0  0  0
    1.5610    1.0162    1.6854 N   0  0  0  0  0  0  0  0  0  0  0  0
    0.5612    4.5683    1.8017 C   0  0  0  0  0  0  0  0  0  0  0  0
   -0.3414    5.1594    1.7847 H   0  0  0  0  0  0  0  0  0  0  0  0
    0.4028    0.3947    1.6027 C   0  0  0  0  0  0  0  0  0  0  0  0
    0.4398   -0.6855    1.5539 H   0  0  0  0  0  0  0  0  0  0  0  0
    5.3644    4.1201    2.0171 C   0  0  0  0  0  0  0  0  0  0  0  0
    6.3655    4.5147    2.0860 H   0  0  0  0  0  0  0  0  0  0  0  0
    1.7775    5.1644    1.8878 C   0  0  0  0  0  0  0  0  0  0  0  0
    1.8612    6.2390    1.9406 H   0  0  0  0  0  0  0  0  0  0  0  0
    2.9779    4.3957    1.9114 C   0  0  0  0  0  0  0  0  0  0  0  0
    2.8832    2.9898    1.8409 C   0  0  0  0  0  0  0  0  0  0  0  0
   -0.7941    2.4707    1.6430 C   0  0  0  0  0  0  0  0  0  0  0  0
   -1.7145    3.0351    1.6266 H   0  0  0  0  0  0  0  0  0  0  0  0
    0.4361    3.1499    1.7312 C   0  0  0  0  0  0  0  0  0  0  0  0
   -0.8055    1.0962    1.5795 C   0  0  0  0  0  0  0  0  0  0  0  0
   -1.7307    0.5467    1.5118 H   0  0  0  0  0  0  0  0  0  0  0  0
    1.6083    2.3649    1.7503 C   0  0  0  0  0  0  0  0  0  0  0  0
    5.1816    2.7368    1.9421 C   0  0  0  0  0  0  0  0  0  0  0  0
    6.0149    2.0469    1.9501 H   0  0  0  0  0  0  0  0  0  0  0  0
    4.2683    4.9518    2.0019 C   0  0  0  0  0  0  0  0  0  0  0  0
    4.3838    6.0239    2.0588 H   0  0  0  0  0  0  0  0  0  0  0  0
  1  3  1  0  0  0  0
  1  4  1  0  0  0  0
  2  1  1  0  0  0  0
  4 22  1  0  0  0  0
  5  1  1  0  0  0  0
  5 21  1  0  0  0  0
  6 12  2  0  0  0  0
  7  6  1  0  0  0  0
  8  5  1  0  0  0  0
  9  8  1  0  0  0  0
 10 11  1  0  0  0  0
 12 14  1  0  0  0  0
 12 13  1  0  0  0  0
 14 24  2  0  0  0  0
 15  4  1  0  0  0  0
 15 14  1  0  0  0  0
 16 18  2  0  0  0  0
 17 16  1  0  0  0  0
 18 21  1  0  0  0  0
 18  6  1  0  0  0  0
 19  8  2  0  0  0  0
 19 16  1  0  0  0  0
 20 19  1  0  0  0  0
 21 15  2  0  0  0  0
 22 23  1  0  0  0  0
 22 10  2  0  0  0  0
 24 10  1  0  0  0  0
 24 25  1  0  0  0  0
M  END
$$$$
