CSD_code = QIRTIU | q = 0 | S = 0 | Stoichiometry = C23H27Cl2IrS2 | MND = 8
 OpenBabel04212202083D

 55 55  0  0  1  0  0  0  0  0999 V2000
    3.0453    6.6334    5.8129 Ir  0  0  0  0  0  0  0  0  0  0  0  0
    0.8744    6.2264    5.0646 Cl  0  0  0  0  0 15  0  0  0  0  0  0
    2.1407    7.5197    7.7849 Cl  0  0  0  0  0 15  0  0  0  0  0  0
    2.8790    4.3354    6.7513 S   0  0  0  0  0  0  0  0  0  0  0  0
    0.9686    2.7128    8.4134 S   0  0  0  0  0  0  0  0  0  0  0  0
    1.3800    4.3571    7.8096 C   0  0  0  0  0  0  0  0  0  0  0  0
    0.5732    4.7733    7.2084 H   0  0  0  0  0  0  0  0  0  0  0  0
    1.5731    4.9850    8.6762 H   0  0  0  0  0  0  0  0  0  0  0  0
    5.2459    6.5933    5.4188 C   0  0  0  0  0  0  0  0  0  0  0  0
    4.5241    6.2800    4.2009 C   0  0  2  0  0  0  0  0  0  0  0  0
    3.7652    7.4174    3.8312 C   0  0  1  0  0  3  0  0  0  0  0  0
    3.9079    8.3992    4.8768 C   0  0  2  0  0  0  0  0  0  0  0  0
    4.8869    7.8987    5.8199 C   0  0  0  0  0  0  0  0  0  0  0  0
    3.4002    9.8039    4.8444 C   0  0  0  0  0  0  0  0  0  0  0  0
    4.0886   10.4319    4.2750 H   0  0  0  0  0  0  0  0  0  0  0  0
    2.4188    9.8539    4.3784 H   0  0  0  0  0  0  0  0  0  0  0  0
    3.3221   10.2036    5.8525 H   0  0  0  0  0  0  0  0  0  0  0  0
    2.9905    7.5677    2.5650 C   0  0  0  0  0  0  0  0  0  0  0  0
    3.6354    7.3587    1.7116 H   0  0  0  0  0  0  0  0  0  0  0  0
    2.1541    6.8693    2.5391 H   0  0  0  0  0  0  0  0  0  0  0  0
    2.5941    8.5747    2.4710 H   0  0  0  0  0  0  0  0  0  0  0  0
    4.7114    5.0578    3.3652 C   0  0  0  0  0  0  0  0  0  0  0  0
    5.5640    5.1887    2.6963 H   0  0  0  0  0  0  0  0  0  0  0  0
    4.8961    4.1832    3.9852 H   0  0  0  0  0  0  0  0  0  0  0  0
    3.8261    4.8715    2.7624 H   0  0  0  0  0  0  0  0  0  0  0  0
    6.3207    5.7462    6.0143 C   0  0  0  0  0  0  0  0  0  0  0  0
    7.2789    6.0075    5.5615 H   0  0  0  0  0  0  0  0  0  0  0  0
    6.3982    5.8972    7.0888 H   0  0  0  0  0  0  0  0  0  0  0  0
    6.1374    4.6900    5.8308 H   0  0  0  0  0  0  0  0  0  0  0  0
    5.4458    8.6844    6.9587 C   0  0  0  0  0  0  0  0  0  0  0  0
    5.9666    9.5650    6.5822 H   0  0  0  0  0  0  0  0  0  0  0  0
    4.6455    9.0182    7.6182 H   0  0  0  0  0  0  0  0  0  0  0  0
    6.1418    8.0862    7.5402 H   0  0  0  0  0  0  0  0  0  0  0  0
    4.1356    4.1678    8.0166 C   0  0  0  0  0  0  0  0  0  0  0  0
    4.8928    3.0064    8.0175 C   0  0  0  0  0  0  0  0  0  0  0  0
    4.7031    2.2436    7.2777 H   0  0  0  0  0  0  0  0  0  0  0  0
    5.8774    2.8385    8.9756 C   0  0  0  0  0  0  0  0  0  0  0  0
    6.4686    1.9352    8.9835 H   0  0  0  0  0  0  0  0  0  0  0  0
    6.0978    3.8246    9.9232 C   0  0  0  0  0  0  0  0  0  0  0  0
    6.8649    3.6911   10.6713 H   0  0  0  0  0  0  0  0  0  0  0  0
    5.3349    4.9816    9.9133 C   0  0  0  0  0  0  0  0  0  0  0  0
    5.5058    5.7510   10.6511 H   0  0  0  0  0  0  0  0  0  0  0  0
    4.3502    5.1624    8.9576 C   0  0  0  0  0  0  0  0  0  0  0  0
    3.7613    6.0685    8.9342 H   0  0  0  0  0  0  0  0  0  0  0  0
    0.3599    1.8698    6.9729 C   0  0  0  0  0  0  0  0  0  0  0  0
    0.2950    2.4328    5.7079 C   0  0  0  0  0  0  0  0  0  0  0  0
    0.6085    3.4459    5.5124 H   0  0  0  0  0  0  0  0  0  0  0  0
   -0.1958    1.6763    4.6561 C   0  0  0  0  0  0  0  0  0  0  0  0
   -0.2482    2.1222    3.6743 H   0  0  0  0  0  0  0  0  0  0  0  0
   -0.6173    0.3738    4.8536 C   0  0  0  0  0  0  0  0  0  0  0  0
   -0.9995   -0.2053    4.0264 H   0  0  0  0  0  0  0  0  0  0  0  0
   -0.5483   -0.1834    6.1211 C   0  0  0  0  0  0  0  0  0  0  0  0
   -0.8761   -1.1988    6.2879 H   0  0  0  0  0  0  0  0  0  0  0  0
   -0.0607    0.5591    7.1777 C   0  0  0  0  0  0  0  0  0  0  0  0
   -0.0026    0.1375    8.1699 H   0  0  0  0  0  0  0  0  0  0  0  0
  4  6  1  0  0  0  0
  4 34  1  0  0  0  0
  6  5  1  0  0  0  0
  6  8  1  0  0  0  0
  7  6  1  0  0  0  0
  9 13  2  0  0  0  0
  9 26  1  0  0  0  0
 10 22  1  6  0  0  0
 10  9  1  0  0  0  0
 10  1  1  0  0  0  0
 11 18  1  6  0  0  0
 11 10  1  0  0  0  0
 11 12  1  0  0  0  0
 12 14  1  1  0  0  0
 12  1  1  0  0  0  0
 12 13  1  0  0  0  0
 13 30  1  0  0  0  0
 14 17  1  0  0  0  0
 15 14  1  0  0  0  0
 16 14  1  0  0  0  0
 19 18  1  0  0  0  0
 20 18  1  0  0  0  0
 21 18  1  0  0  0  0
 22 24  1  0  0  0  0
 23 22  1  0  0  0  0
 25 22  1  0  0  0  0
 26 28  1  0  0  0  0
 27 26  1  0  0  0  0
 29 26  1  0  0  0  0
 30 33  1  0  0  0  0
 30 32  1  0  0  0  0
 31 30  1  0  0  0  0
 34 35  2  0  0  0  0
 34 43  1  0  0  0  0
 35 37  1  0  0  0  0
 36 35  1  0  0  0  0
 37 38  1  0  0  0  0
 37 39  2  0  0  0  0
 39 40  1  0  0  0  0
 41 39  1  0  0  0  0
 41 42  1  0  0  0  0
 43 41  2  0  0  0  0
 44 43  1  0  0  0  0
 45 54  1  0  0  0  0
 45  5  1  0  0  0  0
 46 45  2  0  0  0  0
 47 46  1  0  0  0  0
 48 50  2  0  0  0  0
 48 46  1  0  0  0  0
 49 48  1  0  0  0  0
 50 52  1  0  0  0  0
 51 50  1  0  0  0  0
 52 53  1  0  0  0  0
 52 54  2  0  0  0  0
 54 55  1  0  0  0  0
M  END
$$$$
