CSD_code = QIRWOF | q = 1 | S = 0 | Stoichiometry = C14H26ClCrN4(1+) | MND = 5
 OpenBabel04212202083D

 46 49  0  0  1  0  0  0  0  0999 V2000
    0.9525   12.9989   26.3277 C   0  0  0  0  0  3  0  0  0  0  0  0
   -0.1191   12.8700   26.3862 H   0  0  0  0  0  0  0  0  0  0  0  0
    1.7704   12.5838   27.3547 C   0  0  0  0  0  0  0  0  0  0  0  0
    1.3378   12.1081   28.2193 H   0  0  0  0  0  0  0  0  0  0  0  0
    3.1431   12.7912   27.2662 C   0  0  0  0  0  0  0  0  0  0  0  0
    3.8082   12.4762   28.0518 H   0  0  0  0  0  0  0  0  0  0  0  0
    3.6276   13.4348   26.1343 C   0  0  0  0  0  0  0  0  0  0  0  0
    4.6803   13.6388   26.0185 H   0  0  0  0  0  0  0  0  0  0  0  0
    2.7438   13.8267   25.1505 C   0  0  0  0  0  0  0  0  0  0  0  0
    3.1392   14.5548   23.9024 C   0  0  0  0  0  0  0  0  0  0  0  0
    3.0663   15.6293   24.0878 H   0  0  0  0  0  0  0  0  0  0  0  0
    4.1719   14.3309   23.6075 H   0  0  0  0  0  0  0  0  0  0  0  0
    2.1789   15.1601   21.7719 C   0  0  0  0  0  0  0  0  0  0  0  0
    3.2002   15.4439   21.4869 H   0  0  0  0  0  0  0  0  0  0  0  0
    1.7012   14.7115   20.9004 H   0  0  0  0  0  0  0  0  0  0  0  0
    1.3870   16.3891   22.2054 C   0  0  0  0  0  0  0  0  0  0  0  0
    1.2218   17.0556   21.3510 H   0  0  0  0  0  0  0  0  0  0  0  0
    1.9519   16.9498   22.9527 H   0  0  0  0  0  0  0  0  0  0  0  0
   -0.9320   15.9064   21.7806 C   0  0  0  0  0  0  0  0  0  0  0  0
   -1.8404   15.4816   22.2075 H   0  0  0  0  0  0  0  0  0  0  0  0
   -0.6119   15.2971   20.9363 H   0  0  0  0  0  0  0  0  0  0  0  0
   -1.1575   16.9135   21.4107 H   0  0  0  0  0  0  0  0  0  0  0  0
   -0.2890   16.8838   23.8557 C   0  0  0  0  0  0  0  0  0  0  0  0
   -0.3142   17.9127   23.4797 H   0  0  0  0  0  0  0  0  0  0  0  0
    0.4086   16.8254   24.6936 H   0  0  0  0  0  0  0  0  0  0  0  0
   -1.2835   16.6225   24.2151 H   0  0  0  0  0  0  0  0  0  0  0  0
    2.5076   12.8428   22.3667 C   0  0  0  0  0  0  0  0  0  0  0  0
    3.3185   12.8803   21.6286 H   0  0  0  0  0  0  0  0  0  0  0  0
    2.8527   12.2496   23.2158 H   0  0  0  0  0  0  0  0  0  0  0  0
    1.2711   12.1919   21.7642 C   0  0  0  0  0  0  0  0  0  0  0  0
    1.4875   11.1509   21.4971 H   0  0  0  0  0  0  0  0  0  0  0  0
    0.9851   12.7142   20.8493 H   0  0  0  0  0  0  0  0  0  0  0  0
   -1.1131   12.2200   22.0018 C   0  0  0  0  0  0  0  0  0  0  0  0
   -1.1955   13.0509   21.3044 H   0  0  0  0  0  0  0  0  0  0  0  0
   -1.9318   12.2851   22.7154 H   0  0  0  0  0  0  0  0  0  0  0  0
   -1.2059   11.2831   21.4427 H   0  0  0  0  0  0  0  0  0  0  0  0
    0.1989   11.1578   23.6544 C   0  0  0  0  0  0  0  0  0  0  0  0
    0.0553   10.2073   23.1287 H   0  0  0  0  0  0  0  0  0  0  0  0
   -0.6019   11.2722   24.3840 H   0  0  0  0  0  0  0  0  0  0  0  0
    1.1517   11.1211   24.1807 H   0  0  0  0  0  0  0  0  0  0  0  0
   -1.8460   14.1021   24.6288 Cl  0  0  0  0  0  0  0  0  0  0  0  0
    0.2122   14.0963   23.8166 Cr  0  0  0  0  0  0  0  0  0  0  0  0
    1.4123   13.6038   25.2131 N   0  0  0  0  0  0  0  0  0  0  0  0
    2.1753   14.1838   22.8611 N   0  0  1  0  0  4  0  0  0  0  0  0
    0.1186   15.9460   22.8015 N   0  0  0  0  0  4  0  0  0  0  0  0
    0.1615   12.2846   22.7187 N   0  0  0  0  0  4  0  0  0  0  0  0
  1  2  1  0  0  0  0
  1  3  1  0  0  0  0
  3  4  1  0  0  0  0
  5  3  2  0  0  0  0
  5  6  1  0  0  0  0
  7  5  1  0  0  0  0
  8  7  1  0  0  0  0
  9 43  1  0  0  0  0
  9  7  2  0  0  0  0
 10 11  1  0  0  0  0
 10  9  1  0  0  0  0
 12 10  1  0  0  0  0
 13 16  1  0  0  0  0
 14 13  1  0  0  0  0
 15 13  1  0  0  0  0
 16 45  1  0  0  0  0
 16 18  1  0  0  0  0
 17 16  1  0  0  0  0
 19 20  1  0  0  0  0
 19 45  1  0  0  0  0
 21 19  1  0  0  0  0
 22 19  1  0  0  0  0
 23 26  1  0  0  0  0
 23 25  1  0  0  0  0
 24 23  1  0  0  0  0
 27 44  1  0  0  0  0
 27 29  1  0  0  0  0
 28 27  1  0  0  0  0
 30 27  1  0  0  0  0
 30 46  1  0  0  0  0
 31 30  1  0  0  0  0
 32 30  1  0  0  0  0
 33 35  1  0  0  0  0
 33 46  1  0  0  0  0
 34 33  1  0  0  0  0
 36 33  1  0  0  0  0
 37 40  1  0  0  0  0
 37 39  1  0  0  0  0
 38 37  1  0  0  0  0
 42 41  1  0  0  0  0
 42 43  1  0  0  0  0
 43  1  1  0  0  0  0
 44 13  1  6  0  0  0
 44 42  1  0  0  0  0
 44 10  1  0  0  0  0
 45 42  1  0  0  0  0
 45 23  1  0  0  0  0
 46 37  1  0  0  0  0
 46 42  1  0  0  0  0
M  END
$$$$
