CSD_code = QIRWIZ | q = 1 | S = 0 | Stoichiometry = C12H30ClCrN4(1+) | MND = 5
 OpenBabel04212202083D

 48 50  0  0  0  0  0  0  0  0999 V2000
    4.2459    8.6318    0.6916 C   0  0  0  0  0  0  0  0  0  0  0  0
    4.4222   10.1301    0.9088 C   0  0  0  0  0  0  0  0  0  0  0  0
    2.1466   10.9053    0.9519 C   0  0  0  0  0  0  0  0  0  0  0  0
    1.3251   11.1727    1.6155 H   0  0  0  0  0  0  0  0  0  0  0  0
    1.8711   10.0347    0.3611 H   0  0  0  0  0  0  0  0  0  0  0  0
    2.3234   11.7403    0.2633 H   0  0  0  0  0  0  0  0  0  0  0  0
    3.7235   11.8868    2.3938 C   0  0  0  0  0  0  0  0  0  0  0  0
    3.9035   12.6678    1.6467 H   0  0  0  0  0  0  0  0  0  0  0  0
    4.6298   11.7603    2.9807 H   0  0  0  0  0  0  0  0  0  0  0  0
    2.9216   12.2124    3.0544 H   0  0  0  0  0  0  0  0  0  0  0  0
    1.4406   10.5249    4.5422 Cl  0  0  0  0  0  0  0  0  0  0  0  0
    2.7384    9.2271    3.2443 Cr  0  0  0  0  0  0  0  0  0  0  0  0
    5.1244    8.2187    0.1795 H   0  0  0  0  0  0  0  0  0  0  0  0
    3.3835    8.4640    0.0482 H   0  0  0  0  0  0  0  0  0  0  0  0
    5.3717   10.3260    1.4110 H   0  0  0  0  0  0  0  0  0  0  0  0
    4.4507   10.6463   -0.0592 H   0  0  0  0  0  0  0  0  0  0  0  0
    4.0101    7.9554    1.9727 N   0  0  0  0  0  4  0  0  0  0  0  0
    3.3360   10.6251    1.7573 N   0  0  0  0  0  4  0  0  0  0  0  0
    5.0309    9.8189    4.9225 C   0  0  0  0  0  0  0  0  0  0  0  0
    4.3673   10.6404    5.1900 H   0  0  0  0  0  0  0  0  0  0  0  0
    5.6217   10.0944    4.0519 H   0  0  0  0  0  0  0  0  0  0  0  0
    5.7194    9.6421    5.7575 H   0  0  0  0  0  0  0  0  0  0  0  0
    3.5889    8.2420    5.9041 C   0  0  0  0  0  0  0  0  0  0  0  0
    4.3361    8.0620    6.6850 H   0  0  0  0  0  0  0  0  0  0  0  0
    3.0020    7.3357    5.7775 H   0  0  0  0  0  0  0  0  0  0  0  0
    2.9284    9.0439    6.2296 H   0  0  0  0  0  0  0  0  0  0  0  0
    4.2254    8.6295    4.6423 N   0  0  0  0  0  4  0  0  0  0  0  0
    5.2911    7.7196    2.6490 C   0  0  0  0  0  0  0  0  0  0  0  0
    5.0739    7.5433    4.1473 C   0  0  0  0  0  0  0  0  0  0  0  0
    5.8033    6.8411    2.2359 H   0  0  0  0  0  0  0  0  0  0  0  0
    5.9345    8.5820    2.4813 H   0  0  0  0  0  0  0  0  0  0  0  0
    4.5717    6.5938    4.3432 H   0  0  0  0  0  0  0  0  0  0  0  0
    6.0419    7.5148    4.6636 H   0  0  0  0  0  0  0  0  0  0  0  0
    1.0603    6.9346    3.8361 C   0  0  0  0  0  0  0  0  0  0  0  0
    0.7928    7.5982    4.6577 H   0  0  0  0  0  0  0  0  0  0  0  0
    1.9308    6.3438    4.1116 H   0  0  0  0  0  0  0  0  0  0  0  0
    0.2253    6.2460    3.6594 H   0  0  0  0  0  0  0  0  0  0  0  0
    0.0786    8.3766    2.2593 C   0  0  0  0  0  0  0  0  0  0  0  0
   -0.7023    7.6294    2.0792 H   0  0  0  0  0  0  0  0  0  0  0  0
    0.2052    8.9635    1.3529 H   0  0  0  0  0  0  0  0  0  0  0  0
   -0.2469    9.0371    3.0611 H   0  0  0  0  0  0  0  0  0  0  0  0
    1.3404    7.7400    2.6467 N   0  0  0  0  0  4  0  0  0  0  0  0
    3.3337    6.6744    1.7368 C   0  0  0  0  0  0  0  0  0  0  0  0
    1.8354    6.8916    1.5605 C   0  0  0  0  0  0  0  0  0  0  0  0
    3.7468    6.1622    0.8583 H   0  0  0  0  0  0  0  0  0  0  0  0
    3.5015    6.0310    2.5993 H   0  0  0  0  0  0  0  0  0  0  0  0
    1.6395    7.3938    0.6111 H   0  0  0  0  0  0  0  0  0  0  0  0
    1.3192    5.9236    1.5320 H   0  0  0  0  0  0  0  0  0  0  0  0
  1  2  1  0  0  0  0
  1 17  1  0  0  0  0
  2 15  1  0  0  0  0
  2 18  1  0  0  0  0
  3  4  1  0  0  0  0
  3 18  1  0  0  0  0
  5  3  1  0  0  0  0
  6  3  1  0  0  0  0
  7  9  1  0  0  0  0
  7 10  1  0  0  0  0
  8  7  1  0  0  0  0
 12 11  1  0  0  0  0
 12 27  1  0  0  0  0
 13  1  1  0  0  0  0
 14  1  1  0  0  0  0
 16  2  1  0  0  0  0
 17 28  1  0  0  0  0
 17 12  1  0  0  0  0
 18  7  1  0  0  0  0
 18 12  1  0  0  0  0
 19 20  1  0  0  0  0
 19 22  1  0  0  0  0
 21 19  1  0  0  0  0
 23 26  1  0  0  0  0
 23 24  1  0  0  0  0
 25 23  1  0  0  0  0
 27 19  1  0  0  0  0
 27 23  1  0  0  0  0
 28 29  1  0  0  0  0
 29 32  1  0  0  0  0
 29 27  1  0  0  0  0
 29 33  1  0  0  0  0
 30 28  1  0  0  0  0
 31 28  1  0  0  0  0
 34 36  1  0  0  0  0
 34 35  1  0  0  0  0
 37 34  1  0  0  0  0
 38 42  1  0  0  0  0
 38 41  1  0  0  0  0
 39 38  1  0  0  0  0
 40 38  1  0  0  0  0
 42 12  1  0  0  0  0
 42 34  1  0  0  0  0
 43 17  1  0  0  0  0
 43 46  1  0  0  0  0
 44 43  1  0  0  0  0
 44 42  1  0  0  0  0
 45 43  1  0  0  0  0
 47 44  1  0  0  0  0
 48 44  1  0  0  0  0
M  END
$$$$
