CSD_code = QISDAA | q = 0 | S = 0 | Stoichiometry = C25H33Cl2N3OPd | MND = 4
 OpenBabel04212202083D

 65 68  0  0  0  0  0  0  0  0999 V2000
    4.2517    3.3018    2.6081 Pd  0  0  0  0  0  0  0  0  0  0  0  0
    2.6059    3.7390    0.7453 H   0  0  0  0  0  0  0  0  0  0  0  0
    4.8441    4.8167    0.9809 Cl  0  0  0  0  0  0  0  0  0  0  0  0
    3.5083    1.8018    4.1718 Cl  0  0  0  0  0  0  0  0  0  0  0  0
   -0.3165    2.5468    1.1188 O   0  0  0  0  0  0  0  0  0  0  0  0
    6.8061    2.4672    3.8457 N   0  0  0  0  0  0  0  0  0  0  0  0
    6.5471    4.6032    3.9442 N   0  0  0  0  0  0  0  0  0  0  0  0
    2.4288    3.1732    1.5873 N   0  0  0  0  0  4  0  0  0  0  0  0
    5.9657    3.4659    3.5243 C   0  0  0  0  0  0  0  0  0  0  0  0
    7.9168    2.9776    4.4687 C   0  0  0  0  0  0  0  0  0  0  0  0
    8.7276    2.3570    4.7904 H   0  0  0  0  0  0  0  0  0  0  0  0
    7.7554    4.3193    4.5282 C   0  0  0  0  0  0  0  0  0  0  0  0
    8.3794    5.0799    4.9501 H   0  0  0  0  0  0  0  0  0  0  0  0
    6.0184    5.9078    3.7352 C   0  0  0  0  0  0  0  0  0  0  0  0
    6.7001    6.7848    2.8873 C   0  0  0  0  0  0  0  0  0  0  0  0
    6.1756    8.0509    2.6897 C   0  0  0  0  0  0  0  0  0  0  0  0
    6.6881    8.7335    2.0274 H   0  0  0  0  0  0  0  0  0  0  0  0
    4.9940    8.4533    3.2976 C   0  0  0  0  0  0  0  0  0  0  0  0
    4.3299    7.5562    4.1182 C   0  0  0  0  0  0  0  0  0  0  0  0
    3.4012    7.8506    4.5864 H   0  0  0  0  0  0  0  0  0  0  0  0
    4.8211    6.2782    4.3496 C   0  0  0  0  0  0  0  0  0  0  0  0
    4.0667    5.3289    5.2326 C   0  0  0  0  0  0  0  0  0  0  0  0
    3.5288    4.5839    4.6189 H   0  0  0  0  0  0  0  0  0  0  0  0
    3.3355    5.8658    5.8318 H   0  0  0  0  0  0  0  0  0  0  0  0
    4.7387    4.7878    5.8988 H   0  0  0  0  0  0  0  0  0  0  0  0
    7.9311    6.3481    2.1528 C   0  0  0  0  0  0  0  0  0  0  0  0
    8.7721    6.1912    2.8268 H   0  0  0  0  0  0  0  0  0  0  0  0
    8.2145    7.0971    1.4187 H   0  0  0  0  0  0  0  0  0  0  0  0
    7.7302    5.4138    1.6295 H   0  0  0  0  0  0  0  0  0  0  0  0
    4.4396    9.8204    3.0375 C   0  0  0  0  0  0  0  0  0  0  0  0
    5.2287   10.5689    3.0719 H   0  0  0  0  0  0  0  0  0  0  0  0
    3.6758   10.0778    3.7668 H   0  0  0  0  0  0  0  0  0  0  0  0
    3.9911    9.8540    2.0446 H   0  0  0  0  0  0  0  0  0  0  0  0
    6.5475    1.0837    3.6347 C   0  0  0  0  0  0  0  0  0  0  0  0
    6.4310    0.5879    2.3356 C   0  0  0  0  0  0  0  0  0  0  0  0
    6.1816   -0.7680    2.1664 C   0  0  0  0  0  0  0  0  0  0  0  0
    6.0850   -1.1584    1.1632 H   0  0  0  0  0  0  0  0  0  0  0  0
    6.0425   -1.6220    3.2473 C   0  0  0  0  0  0  0  0  0  0  0  0
    6.1454   -1.0959    4.5285 C   0  0  0  0  0  0  0  0  0  0  0  0
    6.0093   -1.7481    5.3789 H   0  0  0  0  0  0  0  0  0  0  0  0
    6.3879    0.2494    4.7451 C   0  0  0  0  0  0  0  0  0  0  0  0
    6.3936    0.8063    6.1359 C   0  0  0  0  0  0  0  0  0  0  0  0
    7.3600    1.2291    6.4055 H   0  0  0  0  0  0  0  0  0  0  0  0
    6.1462    0.0282    6.8525 H   0  0  0  0  0  0  0  0  0  0  0  0
    5.6415    1.5917    6.2078 H   0  0  0  0  0  0  0  0  0  0  0  0
    6.5462    1.4829    1.1370 C   0  0  0  0  0  0  0  0  0  0  0  0
    5.5925    2.0214    0.9762 H   0  0  0  0  0  0  0  0  0  0  0  0
    6.7580    0.8986    0.2446 H   0  0  0  0  0  0  0  0  0  0  0  0
    7.3334    2.2262    1.2658 H   0  0  0  0  0  0  0  0  0  0  0  0
    5.7776   -3.0837    3.0541 C   0  0  0  0  0  0  0  0  0  0  0  0
    5.5991   -3.3135    2.0071 H   0  0  0  0  0  0  0  0  0  0  0  0
    4.9088   -3.3903    3.6335 H   0  0  0  0  0  0  0  0  0  0  0  0
    6.6303   -3.6693    3.3970 H   0  0  0  0  0  0  0  0  0  0  0  0
    1.3534    3.8158    2.3495 C   0  0  0  0  0  0  0  0  0  0  0  0
    1.6566    4.8382    2.6116 H   0  0  0  0  0  0  0  0  0  0  0  0
    1.1898    3.2324    3.2636 H   0  0  0  0  0  0  0  0  0  0  0  0
    0.0648    3.8448    1.5196 C   0  0  0  0  0  0  0  0  0  0  0  0
   -0.7684    4.2371    2.1048 H   0  0  0  0  0  0  0  0  0  0  0  0
    0.2118    4.4822    0.6309 H   0  0  0  0  0  0  0  0  0  0  0  0
    0.7020    1.9187    0.3711 C   0  0  0  0  0  0  0  0  0  0  0  0
    0.8755    2.4769   -0.5650 H   0  0  0  0  0  0  0  0  0  0  0  0
    0.3278    0.9232    0.1275 H   0  0  0  0  0  0  0  0  0  0  0  0
    2.0075    1.8337    1.1691 C   0  0  0  0  0  0  0  0  0  0  0  0
    1.8530    1.2290    2.0693 H   0  0  0  0  0  0  0  0  0  0  0  0
    2.7956    1.3752    0.5606 H   0  0  0  0  0  0  0  0  0  0  0  0
  1  9  2  0  0  0  0
  1  4  1  0  0  0  0
  2  8  1  0  0  0  0
  3  1  1  0  0  0  0
  5 57  1  0  0  0  0
  6 10  1  0  0  0  0
  7 12  1  0  0  0  0
  8 54  1  0  0  0  0
  8  1  1  0  0  0  0
  9  6  1  0  0  0  0
  9  7  1  0  0  0  0
 10 12  2  0  0  0  0
 10 11  1  0  0  0  0
 12 13  1  0  0  0  0
 14  7  1  0  0  0  0
 14 21  1  0  0  0  0
 15 14  2  0  0  0  0
 16 15  1  0  0  0  0
 16 18  2  0  0  0  0
 17 16  1  0  0  0  0
 18 19  1  0  0  0  0
 19 21  2  0  0  0  0
 19 20  1  0  0  0  0
 21 22  1  0  0  0  0
 22 24  1  0  0  0  0
 22 25  1  0  0  0  0
 23 22  1  0  0  0  0
 26 27  1  0  0  0  0
 26 15  1  0  0  0  0
 28 26  1  0  0  0  0
 29 26  1  0  0  0  0
 30 31  1  0  0  0  0
 30 18  1  0  0  0  0
 30 32  1  0  0  0  0
 33 30  1  0  0  0  0
 34  6  1  0  0  0  0
 34 41  1  0  0  0  0
 35 34  2  0  0  0  0
 36 35  1  0  0  0  0
 36 38  2  0  0  0  0
 37 36  1  0  0  0  0
 38 39  1  0  0  0  0
 39 41  2  0  0  0  0
 39 40  1  0  0  0  0
 41 42  1  0  0  0  0
 42 45  1  0  0  0  0
 42 43  1  0  0  0  0
 42 44  1  0  0  0  0
 46 49  1  0  0  0  0
 46 35  1  0  0  0  0
 47 46  1  0  0  0  0
 48 46  1  0  0  0  0
 50 38  1  0  0  0  0
 50 53  1  0  0  0  0
 50 52  1  0  0  0  0
 51 50  1  0  0  0  0
 54 55  1  0  0  0  0
 54 56  1  0  0  0  0
 57 58  1  0  0  0  0
 57 54  1  0  0  0  0
 59 57  1  0  0  0  0
 60  5  1  0  0  0  0
 60 63  1  0  0  0  0
 61 60  1  0  0  0  0
 62 60  1  0  0  0  0
 63  8  1  0  0  0  0
 63 64  1  0  0  0  0
 65 63  1  0  0  0  0
M  END
$$$$
