CSD_code = QISMEK | q = 0 | S = 0 | Stoichiometry = C19H36ClNSiTi | MND = 8
 OpenBabel04212202083D

 59 60  0  0  1  0  0  0  0  0999 V2000
    4.7088    7.8070    2.1346 Ti  0  0  2  0  0  0  0  0  0  0  0  0
    5.1131    7.2165    0.0638 Cl  0  0  0  0  0  0  0  0  0  0  0  0
    4.4957    5.9936    4.3534 Si  0  0  0  0  0  0  0  0  0  0  0  0
    3.6090    6.4932    2.9405 N   0  0  0  0  0  0  0  0  0  0  0  0
    3.5637    9.4519    1.6357 C   0  0  0  0  0  0  0  0  0  0  0  0
    2.6563    9.9936    2.7407 C   0  0  0  0  0  0  0  0  0  0  0  0
    1.6220   10.9947    2.2052 C   0  0  0  0  0  0  0  0  0  0  0  0
    0.7379   11.5528    3.3142 C   0  0  0  0  0  0  0  0  0  0  0  0
    1.7907    6.5838    1.2889 C   0  0  0  0  0  0  0  0  0  0  0  0
    3.1890    4.5345    1.5287 C   0  0  0  0  0  0  0  0  0  0  0  0
    1.5706    5.1807    3.3358 C   0  0  0  0  0  0  0  0  0  0  0  0
    2.5653    5.7154    2.2944 C   0  0  0  0  0  0  0  0  0  0  0  0
    5.1292    4.1837    4.4888 C   0  0  0  0  0  0  0  0  0  0  0  0
    3.5613    6.2727    6.0087 C   0  0  0  0  0  0  0  0  0  0  0  0
    5.8676    7.2559    3.9935 C   0  0  2  0  0  0  0  0  0  0  0  0
    5.5879    8.6529    4.1096 C   0  0  0  0  0  0  0  0  0  0  0  0
    6.2978    9.3447    3.0970 C   0  0  0  0  0  0  0  0  0  0  0  0
    7.0072    8.3798    2.3274 C   0  0  0  0  0  0  0  0  0  0  0  0
    6.7452    7.1045    2.8775 C   0  0  0  0  0  0  0  0  0  0  0  0
    4.8876    9.2795    5.2820 C   0  0  0  0  0  0  0  0  0  0  0  0
    6.4744   10.8319    2.9811 C   0  0  0  0  0  0  0  0  0  0  0  0
    7.9614    8.6868    1.2096 C   0  0  0  0  0  0  0  0  0  0  0  0
    7.3563    5.8151    2.4077 C   0  0  0  0  0  0  0  0  0  0  0  0
    4.2185   10.2702    1.2873 H   0  0  0  0  0  0  0  0  0  0  0  0
    2.9263    9.1919    0.7721 H   0  0  0  0  0  0  0  0  0  0  0  0
    2.1200    9.1678    3.2294 H   0  0  0  0  0  0  0  0  0  0  0  0
    3.2547   10.5048    3.4999 H   0  0  0  0  0  0  0  0  0  0  0  0
    2.1449   11.8169    1.7097 H   0  0  0  0  0  0  0  0  0  0  0  0
    0.9962   10.5019    1.4564 H   0  0  0  0  0  0  0  0  0  0  0  0
    1.3390   12.0705    4.0592 H   0  0  0  0  0  0  0  0  0  0  0  0
    0.0130   12.2564    2.9108 H   0  0  0  0  0  0  0  0  0  0  0  0
    0.1963   10.7501    3.8108 H   0  0  0  0  0  0  0  0  0  0  0  0
    2.4560    6.9104    0.4864 H   0  0  0  0  0  0  0  0  0  0  0  0
    0.9797    6.0054    0.8497 H   0  0  0  0  0  0  0  0  0  0  0  0
    1.3646    7.4520    1.7908 H   0  0  0  0  0  0  0  0  0  0  0  0
    3.6352    3.8282    2.2227 H   0  0  0  0  0  0  0  0  0  0  0  0
    2.4308    4.0180    0.9443 H   0  0  0  0  0  0  0  0  0  0  0  0
    3.9610    4.9072    0.8537 H   0  0  0  0  0  0  0  0  0  0  0  0
    1.1676    6.0059    3.9180 H   0  0  0  0  0  0  0  0  0  0  0  0
    0.7514    4.6612    2.8446 H   0  0  0  0  0  0  0  0  0  0  0  0
    2.0653    4.4898    4.0116 H   0  0  0  0  0  0  0  0  0  0  0  0
    4.3156    3.5230    4.7725 H   0  0  0  0  0  0  0  0  0  0  0  0
    5.5517    3.8071    3.5641 H   0  0  0  0  0  0  0  0  0  0  0  0
    5.8890    4.1018    5.2600 H   0  0  0  0  0  0  0  0  0  0  0  0
    2.8173    7.0587    5.9380 H   0  0  0  0  0  0  0  0  0  0  0  0
    3.0489    5.3655    6.3105 H   0  0  0  0  0  0  0  0  0  0  0  0
    4.2483    6.5345    6.8058 H   0  0  0  0  0  0  0  0  0  0  0  0
    4.9861   10.3632    5.2619 H   0  0  0  0  0  0  0  0  0  0  0  0
    3.8289    9.0238    5.3079 H   0  0  0  0  0  0  0  0  0  0  0  0
    5.3388    8.9204    6.2078 H   0  0  0  0  0  0  0  0  0  0  0  0
    7.3288   11.1519    3.5835 H   0  0  0  0  0  0  0  0  0  0  0  0
    6.6676   11.1257    1.9499 H   0  0  0  0  0  0  0  0  0  0  0  0
    5.5948   11.3702    3.3312 H   0  0  0  0  0  0  0  0  0  0  0  0
    8.9505    8.9311    1.6072 H   0  0  0  0  0  0  0  0  0  0  0  0
    8.0607    7.8348    0.5376 H   0  0  0  0  0  0  0  0  0  0  0  0
    7.6148    9.5390    0.6234 H   0  0  0  0  0  0  0  0  0  0  0  0
    7.4636    5.1269    3.2436 H   0  0  0  0  0  0  0  0  0  0  0  0
    6.7422    5.3373    1.6376 H   0  0  0  0  0  0  0  0  0  0  0  0
    8.3453    5.9950    1.9858 H   0  0  0  0  0  0  0  0  0  0  0  0
  1  2  1  6  0  0  0
  1  4  1  0  0  0  0
  1 15  1  0  0  0  0
  3 13  1  0  0  0  0
  3 14  1  0  0  0  0
  4  3  1  0  0  0  0
  5  1  1  0  0  0  0
  5  6  1  0  0  0  0
  6 26  1  0  0  0  0
  6 27  1  0  0  0  0
  7  6  1  0  0  0  0
  7  8  1  0  0  0  0
  8 32  1  0  0  0  0
  8 30  1  0  0  0  0
  9 35  1  0  0  0  0
  9 12  1  0  0  0  0
 10 36  1  0  0  0  0
 10 12  1  0  0  0  0
 11 39  1  0  0  0  0
 11 41  1  0  0  0  0
 12  4  1  0  0  0  0
 12 11  1  0  0  0  0
 13 42  1  0  0  0  0
 13 44  1  0  0  0  0
 14 46  1  0  0  0  0
 14 47  1  0  0  0  0
 15 19  1  6  0  0  0
 15 16  1  0  0  0  0
 15  3  1  0  0  0  0
 16 20  1  0  0  0  0
 17 16  2  0  0  0  0
 18 19  2  0  0  0  0
 18 17  1  0  0  0  0
 20 49  1  0  0  0  0
 20 50  1  0  0  0  0
 21 17  1  0  0  0  0
 21 53  1  0  0  0  0
 21 51  1  0  0  0  0
 22 54  1  0  0  0  0
 22 18  1  0  0  0  0
 23 19  1  0  0  0  0
 23 57  1  0  0  0  0
 24  5  1  0  0  0  0
 25  5  1  0  0  0  0
 28  7  1  0  0  0  0
 29  7  1  0  0  0  0
 31  8  1  0  0  0  0
 33  9  1  0  0  0  0
 34  9  1  0  0  0  0
 37 10  1  0  0  0  0
 38 10  1  0  0  0  0
 40 11  1  0  0  0  0
 43 13  1  0  0  0  0
 45 14  1  0  0  0  0
 48 20  1  0  0  0  0
 52 21  1  0  0  0  0
 55 22  1  0  0  0  0
 56 22  1  0  0  0  0
 58 23  1  0  0  0  0
 59 23  1  0  0  0  0
M  END
$$$$
