CSD_code = QITWEX | q = 0 | S = 0 | Stoichiometry = C28H34Cl2P2Pt | MND = 4
 OpenBabel04212202083D

 67 70  0  0  0  0  0  0  0  0999 V2000
   12.2522    2.1913    2.7747 C   0  0  0  0  0  0  0  0  0  0  0  0
   12.4059    0.8476    2.7591 C   0  0  0  0  0  0  0  0  0  0  0  0
   11.2074    0.0913    2.3853 C   0  0  0  0  0  0  0  0  0  0  0  0
   10.1251    0.8576    2.1432 C   0  0  0  0  0  0  0  0  0  0  0  0
   13.2732    3.2277    3.1103 C   0  0  0  0  0  0  0  0  0  0  0  0
   13.6747    3.0729    4.1122 H   0  0  0  0  0  0  0  0  0  0  0  0
   12.8157    4.2145    3.0659 H   0  0  0  0  0  0  0  0  0  0  0  0
   14.1041    3.2001    2.4046 H   0  0  0  0  0  0  0  0  0  0  0  0
   13.6819    0.1393    3.0771 C   0  0  0  0  0  0  0  0  0  0  0  0
   14.4900    0.8478    3.2314 H   0  0  0  0  0  0  0  0  0  0  0  0
   13.9561   -0.5345    2.2666 H   0  0  0  0  0  0  0  0  0  0  0  0
   13.5674   -0.4567    3.9826 H   0  0  0  0  0  0  0  0  0  0  0  0
   11.2519   -1.3984    2.2789 C   0  0  0  0  0  0  0  0  0  0  0  0
   10.2555   -1.8060    2.1333 H   0  0  0  0  0  0  0  0  0  0  0  0
   11.6866   -1.8366    3.1761 H   0  0  0  0  0  0  0  0  0  0  0  0
   11.8687   -1.6959    1.4311 H   0  0  0  0  0  0  0  0  0  0  0  0
    8.7611    0.4494    1.6987 C   0  0  0  0  0  0  0  0  0  0  0  0
    8.7485    0.2604    0.6242 H   0  0  0  0  0  0  0  0  0  0  0  0
    8.0536    1.2518    1.9154 H   0  0  0  0  0  0  0  0  0  0  0  0
    8.4266   -0.4520    2.2090 H   0  0  0  0  0  0  0  0  0  0  0  0
   10.4860    3.1712    0.6573 C   0  0  0  0  0  0  0  0  0  0  0  0
   11.5188    2.9365   -0.2399 C   0  0  0  0  0  0  0  0  0  0  0  0
   12.4137    2.4292    0.0909 H   0  0  0  0  0  0  0  0  0  0  0  0
   11.3965    3.3681   -1.5490 C   0  0  0  0  0  0  0  0  0  0  0  0
   12.2034    3.1991   -2.2472 H   0  0  0  0  0  0  0  0  0  0  0  0
   10.2475    4.0211   -1.9639 C   0  0  0  0  0  0  0  0  0  0  0  0
   10.1611    4.3626   -2.9849 H   0  0  0  0  0  0  0  0  0  0  0  0
    9.2121    4.2454   -1.0698 C   0  0  0  0  0  0  0  0  0  0  0  0
    8.3195    4.7602   -1.3930 H   0  0  0  0  0  0  0  0  0  0  0  0
    9.3292    3.8207    0.2397 C   0  0  0  0  0  0  0  0  0  0  0  0
    8.5359    4.0121    0.9602 H   0  0  0  0  0  0  0  0  0  0  0  0
   10.5406    2.6057    2.3815 P   0  0  2  0  0  4  0  0  0  0  0  0
   10.6429    5.5688    2.7371 Cl  0  0  0  0  0  0  0  0  0  0  0  0
    9.1941    3.9846    3.5878 Pt  0  0  0  0  0  0  0  0  0  0  0  0
    6.1356    2.1914    4.4004 C   0  0  0  0  0  0  0  0  0  0  0  0
    5.9819    0.8477    4.4162 C   0  0  0  0  0  0  0  0  0  0  0  0
    7.1803    0.0914    4.7901 C   0  0  0  0  0  0  0  0  0  0  0  0
    8.2626    0.8578    5.0322 C   0  0  0  0  0  0  0  0  0  0  0  0
    5.1145    3.2275    4.0644 C   0  0  0  0  0  0  0  0  0  0  0  0
    4.7128    3.0719    3.0626 H   0  0  0  0  0  0  0  0  0  0  0  0
    5.5719    4.2145    4.1082 H   0  0  0  0  0  0  0  0  0  0  0  0
    4.2837    3.2002    4.7703 H   0  0  0  0  0  0  0  0  0  0  0  0
    4.7058    0.1394    4.0982 C   0  0  0  0  0  0  0  0  0  0  0  0
    3.8978    0.8480    3.9437 H   0  0  0  0  0  0  0  0  0  0  0  0
    4.4315   -0.5342    4.9088 H   0  0  0  0  0  0  0  0  0  0  0  0
    4.8203   -0.4568    3.1928 H   0  0  0  0  0  0  0  0  0  0  0  0
    7.1357   -1.3983    4.8966 C   0  0  0  0  0  0  0  0  0  0  0  0
    8.1320   -1.8060    5.0423 H   0  0  0  0  0  0  0  0  0  0  0  0
    6.7009   -1.8365    3.9994 H   0  0  0  0  0  0  0  0  0  0  0  0
    6.5188   -1.6958    5.7444 H   0  0  0  0  0  0  0  0  0  0  0  0
    9.6265    0.4494    5.4770 C   0  0  0  0  0  0  0  0  0  0  0  0
    9.6390    0.2606    6.5515 H   0  0  0  0  0  0  0  0  0  0  0  0
   10.3342    1.2517    5.2601 H   0  0  0  0  0  0  0  0  0  0  0  0
    9.9609   -0.4521    4.9669 H   0  0  0  0  0  0  0  0  0  0  0  0
    7.9012    3.1714    6.5181 C   0  0  0  0  0  0  0  0  0  0  0  0
    6.8678    2.9370    7.4148 C   0  0  0  0  0  0  0  0  0  0  0  0
    5.9730    2.4299    7.0835 H   0  0  0  0  0  0  0  0  0  0  0  0
    6.9897    3.3684    8.7240 C   0  0  0  0  0  0  0  0  0  0  0  0
    6.1823    3.1997    9.4218 H   0  0  0  0  0  0  0  0  0  0  0  0
    8.1387    4.0209    9.1395 C   0  0  0  0  0  0  0  0  0  0  0  0
    8.2247    4.3623   10.1606 H   0  0  0  0  0  0  0  0  0  0  0  0
    9.1746    4.2449    8.2460 C   0  0  0  0  0  0  0  0  0  0  0  0
   10.0673    4.7594    8.5697 H   0  0  0  0  0  0  0  0  0  0  0  0
    9.0580    3.8204    6.9363 C   0  0  0  0  0  0  0  0  0  0  0  0
    9.8518    4.0115    6.2163 H   0  0  0  0  0  0  0  0  0  0  0  0
    7.8471    2.6059    4.7939 P   0  0  1  0  0  4  0  0  0  0  0  0
    7.7471    5.5704    4.4391 Cl  0  0  0  0  0  0  0  0  0  0  0  0
  1  5  1  0  0  0  0
  2  1  2  0  0  0  0
  2  9  1  0  0  0  0
  3  2  1  0  0  0  0
  4 32  1  0  0  0  0
  4  3  2  0  0  0  0
  5  6  1  0  0  0  0
  7  5  1  0  0  0  0
  8  5  1  0  0  0  0
  9 10  1  0  0  0  0
  9 12  1  0  0  0  0
 11  9  1  0  0  0  0
 13  3  1  0  0  0  0
 13 15  1  0  0  0  0
 14 13  1  0  0  0  0
 16 13  1  0  0  0  0
 17 19  1  0  0  0  0
 17  4  1  0  0  0  0
 17 20  1  0  0  0  0
 18 17  1  0  0  0  0
 21 32  1  0  0  0  0
 22 23  1  0  0  0  0
 22 21  2  0  0  0  0
 24 22  1  0  0  0  0
 25 24  1  0  0  0  0
 26 24  2  0  0  0  0
 26 28  1  0  0  0  0
 27 26  1  0  0  0  0
 28 30  2  0  0  0  0
 29 28  1  0  0  0  0
 30 21  1  0  0  0  0
 30 31  1  0  0  0  0
 32  1  1  0  0  0  0
 32 34  1  1  0  0  0
 33 34  1  0  0  0  0
 34 67  1  0  0  0  0
 35 36  2  0  0  0  0
 35 66  1  0  0  0  0
 36 37  1  0  0  0  0
 37 47  1  0  0  0  0
 37 38  2  0  0  0  0
 38 51  1  0  0  0  0
 39 41  1  0  0  0  0
 39 35  1  0  0  0  0
 39 42  1  0  0  0  0
 40 39  1  0  0  0  0
 43 36  1  0  0  0  0
 43 45  1  0  0  0  0
 44 43  1  0  0  0  0
 46 43  1  0  0  0  0
 47 48  1  0  0  0  0
 47 50  1  0  0  0  0
 49 47  1  0  0  0  0
 51 52  1  0  0  0  0
 53 51  1  0  0  0  0
 54 51  1  0  0  0  0
 55 64  2  0  0  0  0
 55 56  1  0  0  0  0
 56 58  2  0  0  0  0
 57 56  1  0  0  0  0
 58 60  1  0  0  0  0
 58 59  1  0  0  0  0
 60 61  1  0  0  0  0
 62 63  1  0  0  0  0
 62 60  2  0  0  0  0
 64 62  1  0  0  0  0
 65 64  1  0  0  0  0
 66 34  1  6  0  0  0
 66 38  1  0  0  0  0
 66 55  1  0  0  0  0
M  END
$$$$
