CSD_code = QIVNUH | q = 0 | S = 0 | Stoichiometry = C20H28Cl2N2Pd | MND = 4
 OpenBabel04212202083D

 53 55  0  0  0  0  0  0  0  0999 V2000
    4.0549    6.6327    6.1792 Pd  0  0  0  0  0  0  0  0  0  0  0  0
    2.3862    6.6142    4.6837 Cl  0  0  0  0  0  0  0  0  0  0  0  0
    3.4418    4.6763    7.0825 Cl  0  0  0  0  0  0  0  0  0  0  0  0
    4.9053    8.3951    5.3196 N   0  0  0  0  0  4  0  0  0  0  0  0
    4.2365    9.0921    5.6501 H   0  0  0  0  0  0  0  0  0  0  0  0
    5.5726    6.9249    7.6567 N   0  0  0  0  0  4  0  0  0  0  0  0
    6.2624    6.2432    7.3374 H   0  0  0  0  0  0  0  0  0  0  0  0
    4.9472    8.4701    3.8853 C   0  0  0  0  0  0  0  0  0  0  0  0
    4.4006    9.5935    3.2554 C   0  0  0  0  0  0  0  0  0  0  0  0
    4.4476    9.6879    1.8745 C   0  0  0  0  0  0  0  0  0  0  0  0
    4.0197   10.5543    1.3911 H   0  0  0  0  0  0  0  0  0  0  0  0
    5.0253    8.6931    1.1010 C   0  0  0  0  0  0  0  0  0  0  0  0
    5.5366    7.5768    1.7427 C   0  0  0  0  0  0  0  0  0  0  0  0
    5.9603    6.7795    1.1492 H   0  0  0  0  0  0  0  0  0  0  0  0
    5.5037    7.4360    3.1233 C   0  0  0  0  0  0  0  0  0  0  0  0
    3.7287   10.6780    4.0509 C   0  0  0  0  0  0  0  0  0  0  0  0
    2.8450   10.2834    4.5556 H   0  0  0  0  0  0  0  0  0  0  0  0
    3.4006   11.4743    3.3885 H   0  0  0  0  0  0  0  0  0  0  0  0
    4.3982   11.1169    4.7928 H   0  0  0  0  0  0  0  0  0  0  0  0
    5.0531    8.7995   -0.3924 C   0  0  0  0  0  0  0  0  0  0  0  0
    4.1616    8.3316   -0.8105 H   0  0  0  0  0  0  0  0  0  0  0  0
    5.9228    8.2916   -0.8025 H   0  0  0  0  0  0  0  0  0  0  0  0
    5.0673    9.8399   -0.7083 H   0  0  0  0  0  0  0  0  0  0  0  0
    6.0116    6.1551    3.7236 C   0  0  0  0  0  0  0  0  0  0  0  0
    6.9826    6.2830    4.2075 H   0  0  0  0  0  0  0  0  0  0  0  0
    6.1311    5.4102    2.9409 H   0  0  0  0  0  0  0  0  0  0  0  0
    5.2825    5.7530    4.4609 H   0  0  0  0  0  0  0  0  0  0  0  0
    6.1993    8.6132    5.9771 C   0  0  0  0  0  0  0  0  0  0  0  0
    6.5369    9.6533    5.8554 H   0  0  0  0  0  0  0  0  0  0  0  0
    6.9435    7.9679    5.5025 H   0  0  0  0  0  0  0  0  0  0  0  0
    6.1039    8.2799    7.4677 C   0  0  0  0  0  0  0  0  0  0  0  0
    7.0962    8.3864    7.9308 H   0  0  0  0  0  0  0  0  0  0  0  0
    5.4330    8.9882    7.9609 H   0  0  0  0  0  0  0  0  0  0  0  0
    5.2297    6.6033    9.0144 C   0  0  0  0  0  0  0  0  0  0  0  0
    6.0557    5.7262    9.7265 C   0  0  0  0  0  0  0  0  0  0  0  0
    5.7465    5.4189   11.0405 C   0  0  0  0  0  0  0  0  0  0  0  0
    6.3828    4.7371   11.5863 H   0  0  0  0  0  0  0  0  0  0  0  0
    4.6355    5.9617   11.6686 C   0  0  0  0  0  0  0  0  0  0  0  0
    3.8166    6.8060   10.9380 C   0  0  0  0  0  0  0  0  0  0  0  0
    2.9295    7.2100   11.4043 H   0  0  0  0  0  0  0  0  0  0  0  0
    4.0830    7.1349    9.6154 C   0  0  0  0  0  0  0  0  0  0  0  0
    7.2474    5.0824    9.0741 C   0  0  0  0  0  0  0  0  0  0  0  0
    6.9257    4.4349    8.2564 H   0  0  0  0  0  0  0  0  0  0  0  0
    7.7751    4.4638    9.7949 H   0  0  0  0  0  0  0  0  0  0  0  0
    7.9531    5.8208    8.6895 H   0  0  0  0  0  0  0  0  0  0  0  0
    4.3105    5.6036   13.0858 C   0  0  0  0  0  0  0  0  0  0  0  0
    3.8123    4.6346   13.1157 H   0  0  0  0  0  0  0  0  0  0  0  0
    3.6468    6.3399   13.5319 H   0  0  0  0  0  0  0  0  0  0  0  0
    5.2158    5.5328   13.6850 H   0  0  0  0  0  0  0  0  0  0  0  0
    3.0928    7.9939    8.8800 C   0  0  0  0  0  0  0  0  0  0  0  0
    3.4577    9.0134    8.7355 H   0  0  0  0  0  0  0  0  0  0  0  0
    2.1701    8.0541    9.4517 H   0  0  0  0  0  0  0  0  0  0  0  0
    2.8465    7.5466    7.8918 H   0  0  0  0  0  0  0  0  0  0  0  0
  1  3  1  0  0  0  0
  1  6  1  0  0  0  0
  2  1  1  0  0  0  0
  4  5  1  0  0  0  0
  4 28  1  0  0  0  0
  4  1  1  0  0  0  0
  6 34  1  0  0  0  0
  7  6  1  0  0  0  0
  8  4  1  0  0  0  0
  9  8  1  0  0  0  0
  9 16  1  0  0  0  0
 10  9  2  0  0  0  0
 11 10  1  0  0  0  0
 12 13  2  0  0  0  0
 12 10  1  0  0  0  0
 13 15  1  0  0  0  0
 14 13  1  0  0  0  0
 15 24  1  0  0  0  0
 15  8  2  0  0  0  0
 16 17  1  0  0  0  0
 16 19  1  0  0  0  0
 18 16  1  0  0  0  0
 20 12  1  0  0  0  0
 21 20  1  0  0  0  0
 22 20  1  0  0  0  0
 23 20  1  0  0  0  0
 24 25  1  0  0  0  0
 24 27  1  0  0  0  0
 26 24  1  0  0  0  0
 28 31  1  0  0  0  0
 29 28  1  0  0  0  0
 30 28  1  0  0  0  0
 31  6  1  0  0  0  0
 31 32  1  0  0  0  0
 31 33  1  0  0  0  0
 34 41  2  0  0  0  0
 34 35  1  0  0  0  0
 35 36  2  0  0  0  0
 36 37  1  0  0  0  0
 36 38  1  0  0  0  0
 38 46  1  0  0  0  0
 39 40  1  0  0  0  0
 39 38  2  0  0  0  0
 41 39  1  0  0  0  0
 42 35  1  0  0  0  0
 42 44  1  0  0  0  0
 43 42  1  0  0  0  0
 45 42  1  0  0  0  0
 46 47  1  0  0  0  0
 46 48  1  0  0  0  0
 46 49  1  0  0  0  0
 50 52  1  0  0  0  0
 50 41  1  0  0  0  0
 51 50  1  0  0  0  0
 53 50  1  0  0  0  0
M  END
$$$$
