CSD_code = QIVWIC | q = 0 | S = 0 | Stoichiometry = C20H16HgI2N4 | MND = 4
 OpenBabel04212202083D

 43 45  0  0  0  0  0  0  0  0999 V2000
   15.6201    1.6376    2.2415 Hg  0  0  0  0  0  0  0  0  0  0  0  0
   13.1557    2.1707    2.9401 I   0  0  0  0  0  0  0  0  0  0  0  0
   17.8424    2.8911    1.6471 I   0  0  0  0  0  0  0  0  0  0  0  0
   13.5067   -1.4662    4.2919 N   0  0  0  0  0  0  0  0  0  0  0  0
   14.4445   -1.3732    3.3789 C   0  0  0  0  0  0  0  0  0  0  0  0
   15.8315   -1.3503    3.8822 C   0  0  0  0  0  0  0  0  0  0  0  0
   16.6177   -0.3284    3.5393 N   0  0  0  0  0  0  0  0  0  0  0  0
   17.8666   -0.3129    3.9921 C   0  0  0  0  0  0  0  0  0  0  0  0
   18.4736    0.5294    3.6874 H   0  0  0  0  0  0  0  0  0  0  0  0
   18.3881   -1.2980    4.8110 C   0  0  0  0  0  0  0  0  0  0  0  0
   19.4100   -1.2346    5.1485 H   0  0  0  0  0  0  0  0  0  0  0  0
   17.5648   -2.3464    5.1928 C   0  0  0  0  0  0  0  0  0  0  0  0
   17.9278   -3.1258    5.8462 H   0  0  0  0  0  0  0  0  0  0  0  0
   16.2658   -2.3730    4.7212 C   0  0  0  0  0  0  0  0  0  0  0  0
   15.5791   -3.1598    4.9900 H   0  0  0  0  0  0  0  0  0  0  0  0
   14.1224   -1.3948    1.9889 C   0  0  0  0  0  0  0  0  0  0  0  0
   15.1510   -1.4436    0.9270 C   0  0  0  0  0  0  0  0  0  0  0  0
   15.9010   -0.3620    0.7147 N   0  0  0  0  0  0  0  0  0  0  0  0
   16.8135   -0.4042   -0.2501 C   0  0  0  0  0  0  0  0  0  0  0  0
   17.4011    0.4931   -0.3917 H   0  0  0  0  0  0  0  0  0  0  0  0
   17.0217   -1.5153   -1.0468 C   0  0  0  0  0  0  0  0  0  0  0  0
   17.7778   -1.4949   -1.8149 H   0  0  0  0  0  0  0  0  0  0  0  0
   16.2338   -2.6368   -0.8384 C   0  0  0  0  0  0  0  0  0  0  0  0
   16.3574   -3.5210   -1.4459 H   0  0  0  0  0  0  0  0  0  0  0  0
   15.2807   -2.5990    0.1625 C   0  0  0  0  0  0  0  0  0  0  0  0
   14.6349   -3.4398    0.3604 H   0  0  0  0  0  0  0  0  0  0  0  0
   12.8792   -1.4847    1.5818 N   0  0  0  0  0  0  0  0  0  0  0  0
   11.9028   -1.4591    2.5051 C   0  0  0  0  0  0  0  0  0  0  0  0
   10.5535   -1.4396    2.1139 C   0  0  0  0  0  0  0  0  0  0  0  0
   10.3345   -1.4242    1.0574 H   0  0  0  0  0  0  0  0  0  0  0  0
    9.5527   -1.4083    3.0495 C   0  0  0  0  0  0  0  0  0  0  0  0
    8.1221   -1.3541    2.6196 C   0  0  0  0  0  0  0  0  0  0  0  0
    7.6494   -0.4471    2.9936 H   0  0  0  0  0  0  0  0  0  0  0  0
    7.5675   -2.2041    3.0151 H   0  0  0  0  0  0  0  0  0  0  0  0
    8.0466   -1.3619    1.5360 H   0  0  0  0  0  0  0  0  0  0  0  0
    9.8741   -1.4179    4.4369 C   0  0  0  0  0  0  0  0  0  0  0  0
    8.7784   -1.3760    5.4531 C   0  0  0  0  0  0  0  0  0  0  0  0
    8.1078   -2.2259    5.3329 H   0  0  0  0  0  0  0  0  0  0  0  0
    8.1880   -0.4686    5.3356 H   0  0  0  0  0  0  0  0  0  0  0  0
    9.1880   -1.3944    6.4591 H   0  0  0  0  0  0  0  0  0  0  0  0
   11.1841   -1.4547    4.8367 C   0  0  0  0  0  0  0  0  0  0  0  0
   11.4519   -1.4492    5.8820 H   0  0  0  0  0  0  0  0  0  0  0  0
   12.2245   -1.4620    3.8918 C   0  0  0  0  0  0  0  0  0  0  0  0
  1  2  1  0  0  0  0
  3  1  1  0  0  0  0
  5  6  1  0  0  0  0
  5  4  2  0  0  0  0
  6 14  1  0  0  0  0
  7  6  2  0  0  0  0
  7  8  1  0  0  0  0
  8 10  2  0  0  0  0
  9  8  1  0  0  0  0
 10 11  1  0  0  0  0
 10 12  1  0  0  0  0
 12 13  1  0  0  0  0
 14 15  1  0  0  0  0
 14 12  2  0  0  0  0
 16  5  1  0  0  0  0
 17 16  1  0  0  0  0
 18 17  1  0  0  0  0
 19 18  2  0  0  0  0
 20 19  1  0  0  0  0
 21 23  2  0  0  0  0
 21 19  1  0  0  0  0
 22 21  1  0  0  0  0
 23 25  1  0  0  0  0
 24 23  1  0  0  0  0
 25 26  1  0  0  0  0
 25 17  2  0  0  0  0
 27 16  2  0  0  0  0
 27 28  1  0  0  0  0
 28 43  1  0  0  0  0
 29 28  2  0  0  0  0
 29 31  1  0  0  0  0
 30 29  1  0  0  0  0
 31 36  2  0  0  0  0
 32 33  1  0  0  0  0
 32 34  1  0  0  0  0
 32 31  1  0  0  0  0
 35 32  1  0  0  0  0
 36 41  1  0  0  0  0
 36 37  1  0  0  0  0
 37 40  1  0  0  0  0
 38 37  1  0  0  0  0
 39 37  1  0  0  0  0
 41 42  1  0  0  0  0
 43  4  1  0  0  0  0
 43 41  2  0  0  0  0
M  END
$$$$
