CSD_code = QIWCOR | q = 0 | S = 0 | Stoichiometry = C16H28Cl2FeP2 | MND = 4
 OpenBabel04212202083D

 49 50  0  0  0  0  0  0  0  0999 V2000
   11.0347    6.7038   10.4944 C   0  0  0  0  0  0  0  0  0  0  0  0
   10.1512    6.7850   11.7377 C   0  0  0  0  0  0  0  0  0  0  0  0
   10.7239    7.1669   12.5810 H   0  0  0  0  0  0  0  0  0  0  0  0
    9.7599    5.8031   12.0029 H   0  0  0  0  0  0  0  0  0  0  0  0
    9.3158    7.4613   11.5577 H   0  0  0  0  0  0  0  0  0  0  0  0
   11.5875    8.0897   10.1620 C   0  0  0  0  0  0  0  0  0  0  0  0
   12.2030    8.4607   10.9796 H   0  0  0  0  0  0  0  0  0  0  0  0
   10.7668    8.7905   10.0077 H   0  0  0  0  0  0  0  0  0  0  0  0
   12.1959    8.0636    9.2591 H   0  0  0  0  0  0  0  0  0  0  0  0
   12.1739    5.7167   10.7280 C   0  0  0  0  0  0  0  0  0  0  0  0
   12.8505    5.6750    9.8776 H   0  0  0  0  0  0  0  0  0  0  0  0
   11.7934    4.7194   10.9371 H   0  0  0  0  0  0  0  0  0  0  0  0
   12.7499    6.0418   11.5939 H   0  0  0  0  0  0  0  0  0  0  0  0
   11.0472    5.7157    7.7243 C   0  0  0  0  0  0  0  0  0  0  0  0
   11.7242    4.9301    8.0528 H   0  0  0  0  0  0  0  0  0  0  0  0
   11.6156    6.5774    7.3759 H   0  0  0  0  0  0  0  0  0  0  0  0
   10.4358    5.3540    6.8965 H   0  0  0  0  0  0  0  0  0  0  0  0
    9.1319    4.6940    9.5865 C   0  0  0  0  0  0  0  0  0  0  0  0
    9.7876    3.4738    9.6861 C   0  0  0  0  0  0  0  0  0  0  0  0
   10.8110    3.3714    9.3581 H   0  0  0  0  0  0  0  0  0  0  0  0
    9.1291    2.3691   10.2013 C   0  0  0  0  0  0  0  0  0  0  0  0
    9.6441    1.4224   10.2734 H   0  0  0  0  0  0  0  0  0  0  0  0
    7.8199    2.4798   10.6374 C   0  0  0  0  0  0  0  0  0  0  0  0
    7.3176    1.6236   11.0631 H   0  0  0  0  0  0  0  0  0  0  0  0
    7.1465    3.6842   10.5143 C   0  0  0  0  0  0  0  0  0  0  0  0
    6.1234    3.7553   10.8523 H   0  0  0  0  0  0  0  0  0  0  0  0
    7.7860    4.7872    9.9651 C   0  0  0  0  0  0  0  0  0  0  0  0
    6.0122    6.6986   11.1375 C   0  0  0  0  0  0  0  0  0  0  0  0
    5.3801    5.8518   11.3974 H   0  0  0  0  0  0  0  0  0  0  0  0
    5.4100    7.5950   10.9931 H   0  0  0  0  0  0  0  0  0  0  0  0
    6.7213    6.8945   11.9422 H   0  0  0  0  0  0  0  0  0  0  0  0
    5.7175    6.0162    8.2797 C   0  0  0  0  0  0  0  0  0  0  0  0
    6.4674    5.3059    7.1539 C   0  0  0  0  0  0  0  0  0  0  0  0
    6.7791    4.3089    7.4621 H   0  0  0  0  0  0  0  0  0  0  0  0
    7.3574    5.8766    6.8788 H   0  0  0  0  0  0  0  0  0  0  0  0
    5.8331    5.2133    6.2741 H   0  0  0  0  0  0  0  0  0  0  0  0
    5.2446    7.3898    7.7981 C   0  0  0  0  0  0  0  0  0  0  0  0
    4.5392    7.2885    6.9748 H   0  0  0  0  0  0  0  0  0  0  0  0
    6.0971    7.9802    7.4470 H   0  0  0  0  0  0  0  0  0  0  0  0
    4.7578    7.9394    8.6028 H   0  0  0  0  0  0  0  0  0  0  0  0
    4.5272    5.1792    8.7340 C   0  0  0  0  0  0  0  0  0  0  0  0
    3.9688    5.6766    9.5236 H   0  0  0  0  0  0  0  0  0  0  0  0
    4.8450    4.1988    9.0802 H   0  0  0  0  0  0  0  0  0  0  0  0
    3.8532    5.0315    7.8905 H   0  0  0  0  0  0  0  0  0  0  0  0
    8.3779    7.7658    8.7134 Fe  0  0  0  0  0  0  0  0  0  0  0  0
    9.0937    8.3272    6.9296 Cl  0  0  0  0  0  0  0  0  0  0  0  0
    7.9971    9.2590   10.1206 Cl  0  0  0  0  0  0  0  0  0  0  0  0
    9.9018    6.2697    9.0474 P   0  0  1  0  0  4  0  0  0  0  0  0
    6.9933    6.4034    9.6189 P   0  0  2  0  0  4  0  0  0  0  0  0
  1 10  1  0  0  0  0
  1  2  1  0  0  0  0
  2  4  1  0  0  0  0
  2  3  1  0  0  0  0
  5  2  1  0  0  0  0
  6  1  1  0  0  0  0
  6  7  1  0  0  0  0
  8  6  1  0  0  0  0
  9  6  1  0  0  0  0
 10 12  1  0  0  0  0
 10 13  1  0  0  0  0
 11 10  1  0  0  0  0
 14 15  1  0  0  0  0
 16 14  1  0  0  0  0
 17 14  1  0  0  0  0
 18 19  2  0  0  0  0
 18 27  1  0  0  0  0
 19 21  1  0  0  0  0
 20 19  1  0  0  0  0
 21 22  1  0  0  0  0
 21 23  2  0  0  0  0
 23 24  1  0  0  0  0
 25 23  1  0  0  0  0
 25 26  1  0  0  0  0
 27 25  2  0  0  0  0
 28 29  1  0  0  0  0
 28 31  1  0  0  0  0
 30 28  1  0  0  0  0
 32 41  1  0  0  0  0
 33 34  1  0  0  0  0
 33 32  1  0  0  0  0
 35 33  1  0  0  0  0
 36 33  1  0  0  0  0
 37 32  1  0  0  0  0
 37 40  1  0  0  0  0
 38 37  1  0  0  0  0
 39 37  1  0  0  0  0
 41 43  1  0  0  0  0
 41 42  1  0  0  0  0
 44 41  1  0  0  0  0
 45 48  1  0  0  0  0
 45 49  1  0  0  0  0
 45 47  1  0  0  0  0
 46 45  1  0  0  0  0
 48 14  1  6  0  0  0
 48 18  1  0  0  0  0
 48  1  1  0  0  0  0
 49 32  1  6  0  0  0
 49 27  1  0  0  0  0
 49 28  1  0  0  0  0
M  END
$$$$
