CSD_code = QIWDOS | q = 0 | S = 0 | Stoichiometry = C27H30Cl2N2Pt | MND = 6
 OpenBabel04212202083D

 62 67  0  0  0  0  0  0  0  0999 V2000
   -0.2798    3.5082    9.5110 Pt  0  0  0  0  0  0  0  0  0  0  0  0
   -1.4964    4.7615   10.9910 Cl  0  0  0  0  0  0  0  0  0  0  0  0
   -0.3842    5.2049    7.7014 Cl  0  0  0  0  0  0  0  0  0  0  0  0
    1.0286    2.5956    8.2074 N   0  0  0  0  0  0  0  0  0  0  0  0
    1.5912    4.5828    9.9604 N   0  0  0  0  0  0  0  0  0  0  0  0
   -2.0289    2.6289    8.8392 C   0  0  0  0  0  0  0  0  0  0  0  0
   -2.8185    3.3778    8.9654 H   0  0  0  0  0  0  0  0  0  0  0  0
   -1.8629    2.5058    7.7611 H   0  0  0  0  0  0  0  0  0  0  0  0
   -2.5165    1.3020    9.4386 C   0  0  0  0  0  0  0  0  0  0  0  0
   -3.5771    0.7739    8.4539 C   0  0  0  0  0  0  0  0  0  0  0  0
   -3.1370    0.4995    7.4973 H   0  0  0  0  0  0  0  0  0  0  0  0
   -4.0983   -0.0852    8.8701 H   0  0  0  0  0  0  0  0  0  0  0  0
   -4.3118    1.5549    8.2709 H   0  0  0  0  0  0  0  0  0  0  0  0
   -3.2278    1.5338   10.7866 C   0  0  0  0  0  0  0  0  0  0  0  0
   -2.7717    2.3448   11.3432 H   0  0  0  0  0  0  0  0  0  0  0  0
   -4.2648    1.8080   10.6099 H   0  0  0  0  0  0  0  0  0  0  0  0
   -3.2098    0.6288   11.3900 H   0  0  0  0  0  0  0  0  0  0  0  0
   -1.3664    0.3171    9.6092 C   0  0  0  0  0  0  0  0  0  0  0  0
   -0.1977    0.6985   10.2991 C   0  0  0  0  0  0  0  0  0  0  0  0
    0.8750   -0.1917   10.3557 C   0  0  0  0  0  0  0  0  0  0  0  0
    1.7759    0.1127   10.8710 H   0  0  0  0  0  0  0  0  0  0  0  0
    0.8102   -1.4499    9.7905 C   0  0  0  0  0  0  0  0  0  0  0  0
    1.6553   -2.1199    9.8535 H   0  0  0  0  0  0  0  0  0  0  0  0
   -0.3530   -1.8424    9.1570 C   0  0  0  0  0  0  0  0  0  0  0  0
   -0.4342   -2.8283    8.7229 H   0  0  0  0  0  0  0  0  0  0  0  0
   -1.4202   -0.9629    9.0704 C   0  0  0  0  0  0  0  0  0  0  0  0
   -2.3078   -1.3022    8.5623 H   0  0  0  0  0  0  0  0  0  0  0  0
   -0.0550    2.0184   10.9434 C   0  0  0  0  0  0  0  0  0  0  0  0
    0.9435    2.1293   11.3787 H   0  0  0  0  0  0  0  0  0  0  0  0
   -0.7912    2.1681   11.7310 H   0  0  0  0  0  0  0  0  0  0  0  0
    0.7934    1.5749    7.4129 C   0  0  0  0  0  0  0  0  0  0  0  0
   -0.1104    1.0125    7.6017 H   0  0  0  0  0  0  0  0  0  0  0  0
    1.6373    1.1844    6.3698 C   0  0  0  0  0  0  0  0  0  0  0  0
    2.7772    1.9367    6.1214 C   0  0  0  0  0  0  0  0  0  0  0  0
    3.0506    3.0302    6.9770 C   0  0  0  0  0  0  0  0  0  0  0  0
    2.1572    3.3135    8.0312 C   0  0  0  0  0  0  0  0  0  0  0  0
    2.4318    4.3967    8.9290 C   0  0  0  0  0  0  0  0  0  0  0  0
    3.5459    5.2349    8.7237 C   0  0  0  0  0  0  0  0  0  0  0  0
    3.7366    6.3333    9.5970 C   0  0  0  0  0  0  0  0  0  0  0  0
    2.8249    6.5214   10.6264 C   0  0  0  0  0  0  0  0  0  0  0  0
    1.7787    5.5996   10.7659 C   0  0  0  0  0  0  0  0  0  0  0  0
    1.0588    5.7061   11.5684 H   0  0  0  0  0  0  0  0  0  0  0  0
    1.2571   -0.0176    5.5614 C   0  0  0  0  0  0  0  0  0  0  0  0
    0.3691   -0.4828    5.9802 H   0  0  0  0  0  0  0  0  0  0  0  0
    1.0465    0.2617    4.5300 H   0  0  0  0  0  0  0  0  0  0  0  0
    2.0600   -0.7527    5.5615 H   0  0  0  0  0  0  0  0  0  0  0  0
    3.7018    1.6261    4.9871 C   0  0  0  0  0  0  0  0  0  0  0  0
    4.7085    1.4385    5.3582 H   0  0  0  0  0  0  0  0  0  0  0  0
    3.3716    0.7552    4.4328 H   0  0  0  0  0  0  0  0  0  0  0  0
    3.7460    2.4717    4.3020 H   0  0  0  0  0  0  0  0  0  0  0  0
    4.1830    3.8803    6.8145 C   0  0  0  0  0  0  0  0  0  0  0  0
    4.8659    3.6836    6.0038 H   0  0  0  0  0  0  0  0  0  0  0  0
    4.4105    4.9358    7.6326 C   0  0  0  0  0  0  0  0  0  0  0  0
    5.2659    5.5680    7.4558 H   0  0  0  0  0  0  0  0  0  0  0  0
    4.8941    7.2578    9.3832 C   0  0  0  0  0  0  0  0  0  0  0  0
    5.8316    6.7034    9.4097 H   0  0  0  0  0  0  0  0  0  0  0  0
    4.8115    7.7378    8.4086 H   0  0  0  0  0  0  0  0  0  0  0  0
    4.9314    8.0307   10.1424 H   0  0  0  0  0  0  0  0  0  0  0  0
    2.9086    7.6611   11.5934 C   0  0  0  0  0  0  0  0  0  0  0  0
    2.0866    7.6113   12.3022 H   0  0  0  0  0  0  0  0  0  0  0  0
    3.8455    7.6333   12.1491 H   0  0  0  0  0  0  0  0  0  0  0  0
    2.8488    8.6134   11.0686 H   0  0  0  0  0  0  0  0  0  0  0  0
  1  5  1  0  0  0  0
  1 28  1  0  0  0  0
  1  2  1  0  0  0  0
  3  1  1  0  0  0  0
  4  1  1  0  0  0  0
  5 41  1  0  0  0  0
  6  7  1  0  0  0  0
  6  9  1  0  0  0  0
  6  1  1  0  0  0  0
  8  6  1  0  0  0  0
  9 18  1  0  0  0  0
  9 14  1  0  0  0  0
 10 12  1  0  0  0  0
 10  9  1  0  0  0  0
 11 10  1  0  0  0  0
 13 10  1  0  0  0  0
 14 15  1  0  0  0  0
 14 17  1  0  0  0  0
 16 14  1  0  0  0  0
 18 19  1  0  0  0  0
 19 20  2  0  0  0  0
 19 28  1  0  0  0  0
 20 21  1  0  0  0  0
 22 23  1  0  0  0  0
 22 20  1  0  0  0  0
 24 22  2  0  0  0  0
 25 24  1  0  0  0  0
 26 24  1  0  0  0  0
 26 18  2  0  0  0  0
 27 26  1  0  0  0  0
 28 29  1  0  0  0  0
 28 30  1  0  0  0  0
 31 32  1  0  0  0  0
 31  4  1  0  0  0  0
 33 31  2  0  0  0  0
 34 33  1  0  0  0  0
 34 35  2  0  0  0  0
 35 36  1  0  0  0  0
 36  4  1  0  0  0  0
 36 37  2  0  0  0  0
 37  5  1  0  0  0  0
 38 37  1  0  0  0  0
 38 39  2  0  0  0  0
 39 40  1  0  0  0  0
 40 41  2  0  0  0  0
 40 59  1  0  0  0  0
 41 42  1  0  0  0  0
 43 46  1  0  0  0  0
 43 44  1  0  0  0  0
 43 33  1  0  0  0  0
 45 43  1  0  0  0  0
 47 48  1  0  0  0  0
 47 34  1  0  0  0  0
 49 47  1  0  0  0  0
 50 47  1  0  0  0  0
 51 35  1  0  0  0  0
 51 53  2  0  0  0  0
 52 51  1  0  0  0  0
 53 38  1  0  0  0  0
 54 53  1  0  0  0  0
 55 56  1  0  0  0  0
 55 39  1  0  0  0  0
 55 58  1  0  0  0  0
 57 55  1  0  0  0  0
 59 61  1  0  0  0  0
 59 60  1  0  0  0  0
 62 59  1  0  0  0  0
M  END
$$$$
