CSD_code = QIWMOZ | q = 0 | S = 0 | Stoichiometry = C23H26ClIrN2O2 | MND = 4
 OpenBabel04212202093D

 55 57  0  0  0  0  0  0  0  0999 V2000
    2.9808    3.0473    1.4319 Ir  0  0  0  0  0  0  0  0  0  0  0  0
    4.9263    3.5050    0.3493 Cl  0  0  0  0  0  0  0  0  0  0  0  0
    3.4169    4.9085    3.7683 N   0  0  0  0  0  0  0  0  0  0  0  0
    3.8483    3.8212    3.1319 C   0  0  0  0  0  0  0  0  0  0  0  0
    4.9666    3.4074    3.7213 N   0  0  0  0  0  0  0  0  0  0  0  0
    4.2787    5.3189    4.8719 C   0  0  0  0  0  0  0  0  0  0  0  0
    3.7103    5.3711    5.8041 H   0  0  0  0  0  0  0  0  0  0  0  0
    4.6990    6.3104    4.6730 H   0  0  0  0  0  0  0  0  0  0  0  0
    5.3409    4.2181    4.8787 C   0  0  0  0  0  0  0  0  0  0  0  0
    6.3540    4.6088    4.7695 H   0  0  0  0  0  0  0  0  0  0  0  0
    5.3081    3.6025    5.7849 H   0  0  0  0  0  0  0  0  0  0  0  0
    5.7306    2.2644    3.3663 C   0  0  0  0  0  0  0  0  0  0  0  0
    6.9933    2.4265    2.7900 C   0  0  0  0  0  0  0  0  0  0  0  0
    7.7265    1.2941    2.4746 C   0  0  0  0  0  0  0  0  0  0  0  0
    8.6986    1.4111    2.0173 H   0  0  0  0  0  0  0  0  0  0  0  0
    7.2394    0.0170    2.7145 C   0  0  0  0  0  0  0  0  0  0  0  0
    5.9847   -0.1161    3.2868 C   0  0  0  0  0  0  0  0  0  0  0  0
    5.5878   -1.1031    3.4767 H   0  0  0  0  0  0  0  0  0  0  0  0
    5.2185    0.9909    3.6216 C   0  0  0  0  0  0  0  0  0  0  0  0
    3.8602    0.8053    4.2286 C   0  0  0  0  0  0  0  0  0  0  0  0
    3.0916    0.9541    3.4645 H   0  0  0  0  0  0  0  0  0  0  0  0
    3.6797    1.5205    5.0293 H   0  0  0  0  0  0  0  0  0  0  0  0
    3.7571   -0.2006    4.6275 H   0  0  0  0  0  0  0  0  0  0  0  0
    8.0588   -1.1824    2.3480 C   0  0  0  0  0  0  0  0  0  0  0  0
    9.0444   -1.1259    2.8077 H   0  0  0  0  0  0  0  0  0  0  0  0
    8.1977   -1.2251    1.2684 H   0  0  0  0  0  0  0  0  0  0  0  0
    7.5740   -2.1001    2.6703 H   0  0  0  0  0  0  0  0  0  0  0  0
    7.5530    3.7835    2.4891 C   0  0  0  0  0  0  0  0  0  0  0  0
    6.7623    4.4662    2.1880 H   0  0  0  0  0  0  0  0  0  0  0  0
    8.2693    3.7158    1.6745 H   0  0  0  0  0  0  0  0  0  0  0  0
    8.0719    4.1935    3.3578 H   0  0  0  0  0  0  0  0  0  0  0  0
    2.2361    5.6311    3.4501 C   0  0  0  0  0  0  0  0  0  0  0  0
    2.2547    6.5493    2.3966 C   0  0  0  0  0  0  0  0  0  0  0  0
    1.0944    7.2515    2.1120 C   0  0  0  0  0  0  0  0  0  0  0  0
    1.0963    7.9590    1.2954 H   0  0  0  0  0  0  0  0  0  0  0  0
   -0.0676    7.0653    2.8477 C   0  0  0  0  0  0  0  0  0  0  0  0
   -0.0564    6.1521    3.8907 C   0  0  0  0  0  0  0  0  0  0  0  0
   -0.9555    5.9924    4.4680 H   0  0  0  0  0  0  0  0  0  0  0  0
    1.0818    5.4250    4.2061 C   0  0  0  0  0  0  0  0  0  0  0  0
    1.0489    4.4395    5.3360 C   0  0  0  0  0  0  0  0  0  0  0  0
    1.7846    3.6517    5.1930 H   0  0  0  0  0  0  0  0  0  0  0  0
    0.0655    3.9818    5.4011 H   0  0  0  0  0  0  0  0  0  0  0  0
    1.2492    4.9396    6.2849 H   0  0  0  0  0  0  0  0  0  0  0  0
   -1.3030    7.8518    2.5334 C   0  0  0  0  0  0  0  0  0  0  0  0
   -1.3003    8.7884    3.0922 H   0  0  0  0  0  0  0  0  0  0  0  0
   -2.1961    7.2970    2.8097 H   0  0  0  0  0  0  0  0  0  0  0  0
   -1.3490    8.0923    1.4741 H   0  0  0  0  0  0  0  0  0  0  0  0
    3.4978    6.7622    1.5907 C   0  0  0  0  0  0  0  0  0  0  0  0
    3.3496    7.5504    0.8581 H   0  0  0  0  0  0  0  0  0  0  0  0
    3.7670    5.8467    1.0610 H   0  0  0  0  0  0  0  0  0  0  0  0
    4.3377    7.0341    2.2292 H   0  0  0  0  0  0  0  0  0  0  0  0
    0.3461    2.5441    2.7893 O   0  0  0  0  0  1  0  0  0  0  0  0
    1.3681    2.7329    2.2813 C   0  0  0  0  0  2  0  0  0  0  0  0
    2.3270    2.0295   -1.3265 O   0  0  0  0  0  1  0  0  0  0  0  0
    2.4703    2.3930   -0.2510 C   0  0  0  0  0  2  0  0  0  0  0  0
  1 53  1  0  0  0  0
  1  4  2  0  0  0  0
  2  1  1  0  0  0  0
  3  6  1  0  0  0  0
  4  5  1  0  0  0  0
  4  3  1  0  0  0  0
  5  9  1  0  0  0  0
  6  9  1  0  0  0  0
  6  7  1  0  0  0  0
  8  6  1  0  0  0  0
  9 11  1  0  0  0  0
 10  9  1  0  0  0  0
 12 19  1  0  0  0  0
 12  5  1  0  0  0  0
 13 12  2  0  0  0  0
 14 16  2  0  0  0  0
 14 13  1  0  0  0  0
 15 14  1  0  0  0  0
 16 17  1  0  0  0  0
 17 18  1  0  0  0  0
 17 19  2  0  0  0  0
 19 20  1  0  0  0  0
 20 23  1  0  0  0  0
 20 22  1  0  0  0  0
 21 20  1  0  0  0  0
 24 27  1  0  0  0  0
 24 16  1  0  0  0  0
 24 25  1  0  0  0  0
 26 24  1  0  0  0  0
 28 13  1  0  0  0  0
 28 31  1  0  0  0  0
 29 28  1  0  0  0  0
 30 28  1  0  0  0  0
 32  3  1  0  0  0  0
 32 39  1  0  0  0  0
 33 32  2  0  0  0  0
 34 33  1  0  0  0  0
 34 36  2  0  0  0  0
 35 34  1  0  0  0  0
 36 37  1  0  0  0  0
 37 39  2  0  0  0  0
 37 38  1  0  0  0  0
 39 40  1  0  0  0  0
 40 42  1  0  0  0  0
 40 43  1  0  0  0  0
 41 40  1  0  0  0  0
 44 46  1  0  0  0  0
 44 36  1  0  0  0  0
 44 45  1  0  0  0  0
 47 44  1  0  0  0  0
 48 51  1  0  0  0  0
 48 33  1  0  0  0  0
 49 48  1  0  0  0  0
 50 48  1  0  0  0  0
 53 52  1  0  0  0  0
 54 55  1  0  0  0  0
 55  1  1  0  0  0  0
M  END
$$$$
