CSD_code = QIWNIU | q = 0 | S = 0 | Stoichiometry = C17H24ClIrN2O2 | MND = 4
 OpenBabel04212202093D

 47 49  0  0  0  0  0  0  0  0999 V2000
    8.0276    3.1900    4.8641 Cl  0  0  0  0  0  0  0  0  0  0  0  0
    7.7607    5.0912    3.6388 Ir  0  0  0  0  0  0  0  0  0  0  0  0
    6.2231    3.1360    1.8575 N   0  0  0  0  0  0  0  0  0  0  0  0
    6.4130    2.1125    0.9707 C   0  0  0  0  0  0  0  0  0  0  0  0
    5.6195    1.4824    0.6273 H   0  0  0  0  0  0  0  0  0  0  0  0
    7.7326    2.0944    0.6689 C   0  0  0  0  0  0  0  0  0  0  0  0
    8.2812    1.4459    0.0184 H   0  0  0  0  0  0  0  0  0  0  0  0
    8.3157    3.1071    1.3789 N   0  0  0  0  0  0  0  0  0  0  0  0
    7.3918    3.7505    2.1155 C   0  0  0  0  0  0  0  0  0  0  0  0
    4.9710    3.4794    2.4961 C   0  0  0  0  0  0  0  0  0  0  0  0
    5.1773    4.3780    3.0997 H   0  0  0  0  0  0  0  0  0  0  0  0
    4.5171    2.3595    3.4337 C   0  0  0  0  0  0  0  0  0  0  0  0
    5.3071    2.1611    4.1603 H   0  0  0  0  0  0  0  0  0  0  0  0
    4.3430    1.4454    2.8608 H   0  0  0  0  0  0  0  0  0  0  0  0
    3.2335    2.7733    4.1457 C   0  0  0  0  0  0  0  0  0  0  0  0
    2.9005    1.9657    4.7996 H   0  0  0  0  0  0  0  0  0  0  0  0
    3.4338    3.6473    4.7687 H   0  0  0  0  0  0  0  0  0  0  0  0
    2.1425    3.1096    3.1330 C   0  0  0  0  0  0  0  0  0  0  0  0
    1.2367    3.4230    3.6546 H   0  0  0  0  0  0  0  0  0  0  0  0
    1.8997    2.2176    2.5502 H   0  0  0  0  0  0  0  0  0  0  0  0
    2.6068    4.2188    2.1930 C   0  0  0  0  0  0  0  0  0  0  0  0
    2.7949    5.1276    2.7681 H   0  0  0  0  0  0  0  0  0  0  0  0
    1.8274    4.4399    1.4616 H   0  0  0  0  0  0  0  0  0  0  0  0
    3.8864    3.8065    1.4706 C   0  0  0  0  0  0  0  0  0  0  0  0
    3.6848    2.9300    0.8506 H   0  0  0  0  0  0  0  0  0  0  0  0
    4.2297    4.6128    0.8187 H   0  0  0  0  0  0  0  0  0  0  0  0
    9.7291    3.4144    1.4074 C   0  0  0  0  0  0  0  0  0  0  0  0
    9.8293    4.3117    2.0393 H   0  0  0  0  0  0  0  0  0  0  0  0
   10.2668    3.7261    0.0114 C   0  0  0  0  0  0  0  0  0  0  0  0
    9.6930    4.5450   -0.4283 H   0  0  0  0  0  0  0  0  0  0  0  0
   10.1585    2.8504   -0.6326 H   0  0  0  0  0  0  0  0  0  0  0  0
   11.7424    4.1046    0.1050 C   0  0  0  0  0  0  0  0  0  0  0  0
   12.1314    4.3153   -0.8929 H   0  0  0  0  0  0  0  0  0  0  0  0
   11.8437    5.0124    0.7032 H   0  0  0  0  0  0  0  0  0  0  0  0
   12.5436    2.9778    0.7514 C   0  0  0  0  0  0  0  0  0  0  0  0
   13.5927    3.2682    0.8281 H   0  0  0  0  0  0  0  0  0  0  0  0
   12.4897    2.0864    0.1218 H   0  0  0  0  0  0  0  0  0  0  0  0
   11.9932    2.6545    2.1377 C   0  0  0  0  0  0  0  0  0  0  0  0
   12.5582    1.8335    2.5819 H   0  0  0  0  0  0  0  0  0  0  0  0
   12.1040    3.5262    2.7859 H   0  0  0  0  0  0  0  0  0  0  0  0
   10.5183    2.2753    2.0546 C   0  0  0  0  0  0  0  0  0  0  0  0
   10.1182    2.0867    3.0525 H   0  0  0  0  0  0  0  0  0  0  0  0
   10.4045    1.3636    1.4631 H   0  0  0  0  0  0  0  0  0  0  0  0
    8.1410    6.0208    5.2228 C   0  0  0  0  0  2  0  0  0  0  0  0
    8.3869    6.4513    6.2541 O   0  0  0  0  0  1  0  0  0  0  0  0
    7.5180    6.5715    2.5550 C   0  0  0  0  0  2  0  0  0  0  0  0
    7.3577    7.4749    1.8514 O   0  0  0  0  0  1  0  0  0  0  0  0
  2  1  1  0  0  0  0
  2 44  1  0  0  0  0
  3  9  1  0  0  0  0
  3 10  1  0  0  0  0
  4  3  1  0  0  0  0
  5  4  1  0  0  0  0
  6  4  2  0  0  0  0
  6  8  1  0  0  0  0
  7  6  1  0  0  0  0
  8 27  1  0  0  0  0
  8  9  1  0  0  0  0
  9  2  2  0  0  0  0
 10 11  1  0  0  0  0
 10 12  1  0  0  0  0
 12 15  1  0  0  0  0
 12 13  1  0  0  0  0
 14 12  1  0  0  0  0
 15 17  1  0  0  0  0
 15 16  1  0  0  0  0
 18 19  1  0  0  0  0
 18 15  1  0  0  0  0
 20 18  1  0  0  0  0
 21 22  1  0  0  0  0
 21 18  1  0  0  0  0
 23 21  1  0  0  0  0
 24 21  1  0  0  0  0
 24 10  1  0  0  0  0
 25 24  1  0  0  0  0
 26 24  1  0  0  0  0
 27 28  1  0  0  0  0
 27 41  1  0  0  0  0
 29 32  1  0  0  0  0
 29 27  1  0  0  0  0
 30 29  1  0  0  0  0
 31 29  1  0  0  0  0
 32 34  1  0  0  0  0
 32 35  1  0  0  0  0
 33 32  1  0  0  0  0
 35 36  1  0  0  0  0
 35 38  1  0  0  0  0
 37 35  1  0  0  0  0
 38 39  1  0  0  0  0
 38 40  1  0  0  0  0
 41 38  1  0  0  0  0
 41 42  1  0  0  0  0
 43 41  1  0  0  0  0
 44 45  1  0  0  0  0
 46  2  1  0  0  0  0
 47 46  1  0  0  0  0
M  END
$$$$
