CSD_code = QIWNUG | q = 0 | S = 0 | Stoichiometry = C19H32ClIrN2 | MND = 6
 OpenBabel04212202093D

 55 55  0  0  1  0  0  0  0  0999 V2000
   -6.5008   10.4249   14.3310 Ir  0  0  0  0  0  0  0  0  0  0  0  0
   -5.5229   10.1769   12.1878 Cl  0  0  0  0  0 15  0  0  0  0  0  0
   -3.8641    9.3835   15.5225 N   0  0  0  0  0  0  0  0  0  0  0  0
   -5.2920    7.7691   15.2578 N   0  0  0  0  0  0  0  0  0  0  0  0
   -5.1027    9.0962   15.0260 C   0  0  1  0  0  3  0  0  0  0  0  0
   -3.3227    8.2569   16.0868 C   0  0  0  0  0  0  0  0  0  0  0  0
   -2.3635    8.2269   16.5550 H   0  0  0  0  0  0  0  0  0  0  0  0
   -4.2116    7.2589   15.9331 C   0  0  0  0  0  0  0  0  0  0  0  0
   -4.1418    6.2431   16.2589 H   0  0  0  0  0  0  0  0  0  0  0  0
   -3.0099   10.5463   15.2235 C   0  0  0  0  0  0  0  0  0  0  0  0
   -1.9157   10.6773   16.2912 C   0  0  0  0  0  0  0  0  0  0  0  0
   -2.3411   10.6154   17.2908 H   0  0  0  0  0  0  0  0  0  0  0  0
   -1.4377   11.6476   16.1860 H   0  0  0  0  0  0  0  0  0  0  0  0
   -1.1424    9.9212   16.1820 H   0  0  0  0  0  0  0  0  0  0  0  0
   -2.3824   10.2873   13.8494 C   0  0  0  0  0  0  0  0  0  0  0  0
   -1.8404    9.3433   13.8463 H   0  0  0  0  0  0  0  0  0  0  0  0
   -1.6915   11.0860   13.5946 H   0  0  0  0  0  0  0  0  0  0  0  0
   -3.1633   10.2428   13.0933 H   0  0  0  0  0  0  0  0  0  0  0  0
   -3.7873   11.8569   15.1913 C   0  0  0  0  0  0  0  0  0  0  0  0
   -4.6219   11.7890   14.4929 H   0  0  0  0  0  0  0  0  0  0  0  0
   -3.1280   12.6525   14.8554 H   0  0  0  0  0  0  0  0  0  0  0  0
   -4.1607   12.1066   16.1796 H   0  0  0  0  0  0  0  0  0  0  0  0
   -6.3244    6.8414   14.7728 C   0  0  0  0  0  0  0  0  0  0  0  0
   -7.3521    7.5039   13.8633 C   0  0  0  0  0  0  0  0  0  0  0  0
   -7.9678    8.2079   14.4100 H   0  0  0  0  0  0  0  0  0  0  0  0
   -8.0013    6.7371   13.4474 H   0  0  0  0  0  0  0  0  0  0  0  0
   -6.8602    8.0149   13.0407 H   0  0  0  0  0  0  0  0  0  0  0  0
   -7.0353    6.2261   15.9835 C   0  0  0  0  0  0  0  0  0  0  0  0
   -6.3455    5.6776   16.6192 H   0  0  0  0  0  0  0  0  0  0  0  0
   -7.8064    5.5394   15.6463 H   0  0  0  0  0  0  0  0  0  0  0  0
   -7.5049    7.0044   16.5794 H   0  0  0  0  0  0  0  0  0  0  0  0
   -5.6179    5.7536   13.9488 C   0  0  0  0  0  0  0  0  0  0  0  0
   -5.0574    6.2166   13.1400 H   0  0  0  0  0  0  0  0  0  0  0  0
   -6.3571    5.0850   13.5160 H   0  0  0  0  0  0  0  0  0  0  0  0
   -4.9365    5.1561   14.5476 H   0  0  0  0  0  0  0  0  0  0  0  0
   -8.3102   11.1340   13.4084 C   0  0  0  0  0  3  0  0  0  0  0  0
   -8.2932   10.8002   12.3735 H   0  0  0  0  0  0  0  0  0  0  0  0
   -7.5466   12.2352   13.7464 C   0  0  0  0  0  3  0  0  0  0  0  0
   -6.9502   12.6954   12.9628 H   0  0  0  0  0  0  0  0  0  0  0  0
   -7.8845   13.1405   14.9094 C   0  0  0  0  0  0  0  0  0  0  0  0
   -7.5779   14.1603   14.6694 H   0  0  0  0  0  0  0  0  0  0  0  0
   -8.9677   13.1534   15.0431 H   0  0  0  0  0  0  0  0  0  0  0  0
   -7.1935   12.7063   16.2152 C   0  0  0  0  0  0  0  0  0  0  0  0
   -7.8207   12.9660   17.0759 H   0  0  0  0  0  0  0  0  0  0  0  0
   -6.2596   13.2612   16.3222 H   0  0  0  0  0  0  0  0  0  0  0  0
   -6.8713   11.2288   16.2591 C   0  0  1  0  0  0  0  0  0  0  0  0
   -6.0953   10.9901   16.9861 H   0  0  0  0  0  0  0  0  0  0  0  0
   -7.8137   10.2149   16.0013 C   0  0  0  0  0  3  0  0  0  0  0  0
   -7.6635    9.2832   16.5432 H   0  0  0  0  0  0  0  0  0  0  0  0
   -9.2678   10.5101   15.6855 C   0  0  0  0  0  0  0  0  0  0  0  0
   -9.8892    9.6935   16.0607 H   0  0  0  0  0  0  0  0  0  0  0  0
   -9.5690   11.4113   16.2228 H   0  0  0  0  0  0  0  0  0  0  0  0
   -9.5292   10.6791   14.1759 C   0  0  0  0  0  0  0  0  0  0  0  0
   -9.8569    9.7247   13.7587 H   0  0  0  0  0  0  0  0  0  0  0  0
  -10.3439   11.3938   14.0153 H   0  0  0  0  0  0  0  0  0  0  0  0
  1 46  1  0  0  0  0
  3  6  1  0  0  0  0
  4  8  1  0  0  0  0
  5  1  1  1  0  0  0
  5  4  1  0  0  0  0
  5  3  1  0  0  0  0
  6  7  1  0  0  0  0
  8  6  2  0  0  0  0
  8  9  1  0  0  0  0
 10  3  1  0  0  0  0
 10 11  1  0  0  0  0
 11 12  1  0  0  0  0
 13 11  1  0  0  0  0
 14 11  1  0  0  0  0
 15 10  1  0  0  0  0
 16 15  1  0  0  0  0
 17 15  1  0  0  0  0
 18 15  1  0  0  0  0
 19 10  1  0  0  0  0
 19 22  1  0  0  0  0
 20 19  1  0  0  0  0
 21 19  1  0  0  0  0
 23  4  1  0  0  0  0
 23 28  1  0  0  0  0
 24 25  1  0  0  0  0
 24 23  1  0  0  0  0
 26 24  1  0  0  0  0
 27 24  1  0  0  0  0
 28 31  1  0  0  0  0
 28 29  1  0  0  0  0
 30 28  1  0  0  0  0
 32 35  1  0  0  0  0
 32 23  1  0  0  0  0
 33 32  1  0  0  0  0
 34 32  1  0  0  0  0
 36 38  1  0  0  0  0
 36 53  1  0  0  0  0
 37 36  1  0  0  0  0
 38 40  1  0  0  0  0
 39 38  1  0  0  0  0
 40 42  1  0  0  0  0
 40 43  1  0  0  0  0
 41 40  1  0  0  0  0
 43 46  1  0  0  0  0
 43 45  1  0  0  0  0
 43 44  1  0  0  0  0
 46 47  1  1  0  0  0
 48 46  1  0  0  0  0
 48 49  1  0  0  0  0
 50 48  1  0  0  0  0
 50 51  1  0  0  0  0
 50 52  1  0  0  0  0
 53 50  1  0  0  0  0
 54 53  1  0  0  0  0
 55 53  1  0  0  0  0
M  END
$$$$
