CSD_code = QIWRUK | q = 0 | S = 0 | Stoichiometry = C8H6Cl2I2N4Zn | MND = 4
 OpenBabel04212202093D

 23 24  0  0  0  0  0  0  0  0999 V2000
    3.3997    6.6216   18.2321 Zn  0  0  0  0  0  0  0  0  0  0  0  0
    3.3739    7.4349   20.6039 I   0  0  0  0  0  0  0  0  0  0  0  0
   -0.1287    3.0419   18.2248 N   0  0  0  0  0  0  0  0  0  0  0  0
    0.2919    3.5899   17.1001 C   0  0  0  0  0  0  0  0  0  0  0  0
    1.2747    4.5832   17.0849 C   0  0  0  0  0  3  0  0  0  0  0  0
    1.6046    5.0328   16.1595 H   0  0  0  0  0  0  0  0  0  0  0  0
    1.8171    5.0045   18.2168 N   0  0  0  0  0  0  0  0  0  0  0  0
    1.3951    4.4550   19.3552 C   0  0  0  0  0  0  0  0  0  0  0  0
    1.8360    4.8125   20.2737 H   0  0  0  0  0  0  0  0  0  0  0  0
    0.4164    3.4722   19.3493 C   0  0  0  0  0  0  0  0  0  0  0  0
    0.0574    3.0179   20.2612 H   0  0  0  0  0  0  0  0  0  0  0  0
   -0.4068    3.0423   15.6426 Cl  0  0  0  0  0  0  0  0  0  0  0  0
    3.4255    7.4349   15.8607 I   0  0  0  0  0  0  0  0  0  0  0  0
    6.9282    3.0419   18.2396 N   0  0  0  0  0  0  0  0  0  0  0  0
    6.5075    3.5899   19.3643 C   0  0  0  0  0  0  0  0  0  0  0  0
    5.5247    4.5832   19.3795 C   0  0  0  0  0  3  0  0  0  0  0  0
    5.1948    5.0329   20.3048 H   0  0  0  0  0  0  0  0  0  0  0  0
    4.9823    5.0045   18.2476 N   0  0  0  0  0  0  0  0  0  0  0  0
    5.4044    4.4550   17.1092 C   0  0  0  0  0  0  0  0  0  0  0  0
    4.9635    4.8124   16.1907 H   0  0  0  0  0  0  0  0  0  0  0  0
    6.3831    3.4721   17.1151 C   0  0  0  0  0  0  0  0  0  0  0  0
    6.7421    3.0179   16.2032 H   0  0  0  0  0  0  0  0  0  0  0  0
    7.2062    3.0424   20.8218 Cl  0  0  0  0  0  0  0  0  0  0  0  0
  1 18  1  0  0  0  0
  1  2  1  0  0  0  0
  3 10  1  0  0  0  0
  4  3  2  0  0  0  0
  5  4  1  0  0  0  0
  5  7  1  0  0  0  0
  6  5  1  0  0  0  0
  7  1  1  0  0  0  0
  7  8  1  0  0  0  0
  8  9  1  0  0  0  0
 10  8  2  0  0  0  0
 10 11  1  0  0  0  0
 12  4  1  0  0  0  0
 13  1  1  0  0  0  0
 14 15  2  0  0  0  0
 15 16  1  0  0  0  0
 15 23  1  0  0  0  0
 16 17  1  0  0  0  0
 18 16  1  0  0  0  0
 19 21  2  0  0  0  0
 19 18  1  0  0  0  0
 20 19  1  0  0  0  0
 21 14  1  0  0  0  0
 22 21  1  0  0  0  0
M  END
$$$$
