CSD_code = QIWYUQ | q = 0 | S = 0 | Stoichiometry = C13H28Cl2NO3PPd | MND = 4
 OpenBabel04212202093D

 49 50  0  0  1  0  0  0  0  0999 V2000
    0.6781    0.3062   17.2952 Pd  0  0  0  0  0  0  0  0  0  0  0  0
    0.1550   -1.3232   15.8154 Cl  0  0  0  0  0  0  0  0  0  0  0  0
    1.5826   -1.2355   18.6418 Cl  0  0  0  0  0  0  0  0  0  0  0  0
    0.9765    1.6644   19.0211 P   0  0  0  0  0  4  0  0  0  0  0  0
    0.8438    3.2850   18.7415 O   0  0  0  0  0  0  0  0  0  0  0  0
    2.3058    1.6980   19.8736 O   0  0  0  0  0  0  0  0  0  0  0  0
   -0.1508    1.3678   20.0972 O   0  0  0  0  0  0  0  0  0  0  0  0
   -0.3078    1.8380   16.1053 N   0  0  1  0  0  4  0  0  0  0  0  0
   -0.1064    3.7346   17.8060 C   0  0  0  0  0  0  0  0  0  0  0  0
    0.0001    4.8247   17.7925 H   0  0  0  0  0  0  0  0  0  0  0  0
   -1.1178    3.4979   18.1515 H   0  0  0  0  0  0  0  0  0  0  0  0
    0.1275    3.2224   16.3710 C   0  0  1  0  0  0  0  0  0  0  0  0
   -0.4560    3.8914   15.7140 H   0  0  0  0  0  0  0  0  0  0  0  0
    1.6188    3.3585   16.0376 C   0  0  0  0  0  0  0  0  0  0  0  0
    2.1767    2.6573   16.6733 H   0  0  0  0  0  0  0  0  0  0  0  0
    1.9457    4.3720   16.2754 H   0  0  0  0  0  0  0  0  0  0  0  0
    1.9048    3.0185   14.5816 C   0  0  0  0  0  0  0  0  0  0  0  0
    1.4196    3.7441   13.9240 H   0  0  0  0  0  0  0  0  0  0  0  0
    2.9782    3.0588   14.3939 H   0  0  0  0  0  0  0  0  0  0  0  0
    1.3585    1.6251   14.3078 C   0  0  0  0  0  0  0  0  0  0  0  0
    1.8874    0.8823   14.9302 H   0  0  0  0  0  0  0  0  0  0  0  0
    1.4887    1.3464   13.2625 H   0  0  0  0  0  0  0  0  0  0  0  0
   -0.1205    1.5782   14.6672 C   0  0  0  0  0  0  0  0  0  0  0  0
   -0.6805    2.3211   14.0803 H   0  0  0  0  0  0  0  0  0  0  0  0
   -0.5039    0.5782   14.4530 H   0  0  0  0  0  0  0  0  0  0  0  0
   -1.7094    1.5958   16.4588 C   0  0  0  0  0  0  0  0  0  0  0  0
   -2.3735    2.3301   15.9832 H   0  0  0  0  0  0  0  0  0  0  0  0
   -1.8509    1.6288   17.5433 H   0  0  0  0  0  0  0  0  0  0  0  0
   -1.9803    0.5940   16.1132 H   0  0  0  0  0  0  0  0  0  0  0  0
    3.5711    1.4395   19.2401 C   0  0  0  0  0  0  0  0  0  0  0  0
    3.3836    0.9714   18.2551 H   0  0  0  0  0  0  0  0  0  0  0  0
    4.3105    2.7577   19.0607 C   0  0  0  0  0  0  0  0  0  0  0  0
    3.6894    3.4654   18.5175 H   0  0  0  0  0  0  0  0  0  0  0  0
    5.2330    2.5939   18.5108 H   0  0  0  0  0  0  0  0  0  0  0  0
    4.5466    3.1826   20.0333 H   0  0  0  0  0  0  0  0  0  0  0  0
    4.3316    0.4576   20.1173 C   0  0  0  0  0  0  0  0  0  0  0  0
    3.7733   -0.4728   20.1786 H   0  0  0  0  0  0  0  0  0  0  0  0
    4.4545    0.8685   21.1162 H   0  0  0  0  0  0  0  0  0  0  0  0
    5.3088    0.2583   19.6873 H   0  0  0  0  0  0  0  0  0  0  0  0
   -0.0601    1.6795   21.5019 C   0  0  0  0  0  0  0  0  0  0  0  0
    0.9942    1.8229   21.7566 H   0  0  0  0  0  0  0  0  0  0  0  0
   -0.8369    2.9589   21.7809 C   0  0  0  0  0  0  0  0  0  0  0  0
   -0.4052    3.7858   21.2221 H   0  0  0  0  0  0  0  0  0  0  0  0
   -0.7977    3.1901   22.8420 H   0  0  0  0  0  0  0  0  0  0  0  0
   -1.8761    2.8360   21.4838 H   0  0  0  0  0  0  0  0  0  0  0  0
   -0.6166    0.4813   22.2564 C   0  0  0  0  0  0  0  0  0  0  0  0
   -0.0650   -0.4125   21.9776 H   0  0  0  0  0  0  0  0  0  0  0  0
   -1.6634    0.3346   22.0022 H   0  0  0  0  0  0  0  0  0  0  0  0
   -0.5260    0.6392   23.3276 H   0  0  0  0  0  0  0  0  0  0  0  0
  1  3  1  0  0  0  0
  1  4  1  0  0  0  0
  2  1  1  0  0  0  0
  4  6  1  0  0  0  0
  4  7  1  0  0  0  0
  5  4  1  0  0  0  0
  7 40  1  0  0  0  0
  8 12  1  0  0  0  0
  8 26  1  1  0  0  0
  8  1  1  0  0  0  0
  9 11  1  0  0  0  0
  9  5  1  0  0  0  0
 10  9  1  0  0  0  0
 12 13  1  6  0  0  0
 12  9  1  0  0  0  0
 14 16  1  0  0  0  0
 14 12  1  0  0  0  0
 14 15  1  0  0  0  0
 17 14  1  0  0  0  0
 18 17  1  0  0  0  0
 19 17  1  0  0  0  0
 20 17  1  0  0  0  0
 20 23  1  0  0  0  0
 20 21  1  0  0  0  0
 22 20  1  0  0  0  0
 23  8  1  0  0  0  0
 24 23  1  0  0  0  0
 25 23  1  0  0  0  0
 26 28  1  0  0  0  0
 27 26  1  0  0  0  0
 29 26  1  0  0  0  0
 30  6  1  0  0  0  0
 30 36  1  0  0  0  0
 31 30  1  0  0  0  0
 32 30  1  0  0  0  0
 32 35  1  0  0  0  0
 33 32  1  0  0  0  0
 34 32  1  0  0  0  0
 36 37  1  0  0  0  0
 36 38  1  0  0  0  0
 39 36  1  0  0  0  0
 40 41  1  0  0  0  0
 40 42  1  0  0  0  0
 40 46  1  0  0  0  0
 42 44  1  0  0  0  0
 43 42  1  0  0  0  0
 45 42  1  0  0  0  0
 46 49  1  0  0  0  0
 47 46  1  0  0  0  0
 48 46  1  0  0  0  0
M  END
$$$$
