CSD_code = QIXCOR | q = 0 | S = 0 | Stoichiometry = C12H16Cl2FeN2O2 | MND = 5
 OpenBabel04212202093D

 35 36  0  0  1  0  0  0  0  0999 V2000
    3.0627    2.8019   18.3349 Fe  0  0  0  0  0  0  0  0  0  0  0  0
    1.1385    2.3460   18.7235 Cl  0  0  0  0  0  0  0  0  0  0  0  0
    5.0158    3.2272   18.1515 Cl  0  0  0  0  0  0  0  0  0  0  0  0
    3.1582    0.8242   16.9391 O   0  0  0  0  0  0  0  0  0  0  0  0
    1.9671   -0.4387   15.5363 O   0  0  0  0  0  0  0  0  0  0  0  0
    2.5547    5.1733   17.7150 N   0  0  0  0  0  0  0  0  0  0  0  0
    2.3872    3.1335   15.7719 N   0  0  0  0  0  0  0  0  0  0  0  0
    2.0953    5.4331   16.4926 C   0  0  0  0  0  0  0  0  0  0  0  0
    2.1752    6.6996   15.9279 C   0  0  0  0  0  0  0  0  0  0  0  0
    1.7915    6.8771   14.9343 H   0  0  0  0  0  0  0  0  0  0  0  0
    2.7516    7.7266   16.6577 C   0  0  0  0  0  0  0  0  0  0  0  0
    2.8266    8.7202   16.2411 H   0  0  0  0  0  0  0  0  0  0  0  0
    3.2309    7.4500   17.9274 C   0  0  0  0  0  0  0  0  0  0  0  0
    3.6893    8.2171   18.5307 H   0  0  0  0  0  0  0  0  0  0  0  0
    3.1073    6.1570   18.4101 C   0  0  0  0  0  0  0  0  0  0  0  0
    3.4637    5.8916   19.3957 H   0  0  0  0  0  0  0  0  0  0  0  0
    1.4762    4.2746   15.7575 C   0  0  0  0  0  0  0  0  0  0  0  0
    0.5754    3.9796   16.3040 H   0  0  0  0  0  0  0  0  0  0  0  0
    1.1957    4.5802   14.7393 H   0  0  0  0  0  0  0  0  0  0  0  0
    1.7825    1.9082   15.2672 C   0  0  1  0  0  0  0  0  0  0  0  0
    0.7126    1.8841   15.4907 H   0  0  0  0  0  0  0  0  0  0  0  0
    2.0597    1.8418   13.7430 C   0  0  0  0  0  0  0  0  0  0  0  0
    2.4120    0.8512   13.4630 H   0  0  0  0  0  0  0  0  0  0  0  0
    1.1491    2.0439   13.1814 H   0  0  0  0  0  0  0  0  0  0  0  0
    3.1243    2.9200   13.5010 C   0  0  0  0  0  0  0  0  0  0  0  0
    3.9659    2.5487   12.9211 H   0  0  0  0  0  0  0  0  0  0  0  0
    2.6993    3.7714   12.9686 H   0  0  0  0  0  0  0  0  0  0  0  0
    3.5563    3.3312   14.9169 C   0  0  0  0  0  0  0  0  0  0  0  0
    4.3494    2.6750   15.2802 H   0  0  0  0  0  0  0  0  0  0  0  0
    3.9074    4.3596   14.9830 H   0  0  0  0  0  0  0  0  0  0  0  0
    2.3898    0.7266   16.0083 C   0  0  1  0  0  3  0  0  0  0  0  0
    2.4378   -1.5981   16.2190 C   0  0  0  0  0  0  0  0  0  0  0  0
    2.1700   -1.5437   17.2752 H   0  0  0  0  0  0  0  0  0  0  0  0
    3.5233   -1.6728   16.1336 H   0  0  0  0  0  0  0  0  0  0  0  0
    1.9552   -2.4462   15.7410 H   0  0  0  0  0  0  0  0  0  0  0  0
  1  2  1  0  0  0  0
  3  1  1  0  0  0  0
  4  1  1  0  0  0  0
  5 32  1  0  0  0  0
  6 15  1  0  0  0  0
  8  6  2  0  0  0  0
  9  8  1  0  0  0  0
  9 11  2  0  0  0  0
 10  9  1  0  0  0  0
 11 13  1  0  0  0  0
 12 11  1  0  0  0  0
 13 15  2  0  0  0  0
 13 14  1  0  0  0  0
 15 16  1  0  0  0  0
 17  7  1  0  0  0  0
 17 18  1  0  0  0  0
 17  8  1  0  0  0  0
 19 17  1  0  0  0  0
 20 21  1  1  0  0  0
 20  7  1  0  0  0  0
 20 31  1  0  0  0  0
 22 20  1  0  0  0  0
 23 22  1  0  0  0  0
 24 22  1  0  0  0  0
 25 22  1  0  0  0  0
 25 28  1  0  0  0  0
 26 25  1  0  0  0  0
 27 25  1  0  0  0  0
 28 30  1  0  0  0  0
 28 29  1  0  0  0  0
 28  7  1  0  0  0  0
 31  5  1  1  0  0  0
 31  4  1  0  0  0  0
 32 33  1  0  0  0  0
 34 32  1  0  0  0  0
 35 32  1  0  0  0  0
M  END
$$$$
