CSD_code = QIXSAU | q = 0 | S = 0 | Stoichiometry = C18H12HgI2N6 | MND = 5
 OpenBabel04212202093D

 39 42  0  0  1  0  0  0  0  0999 V2000
    2.4172    8.4357    3.5912 C   0  0  1  0  0  3  0  0  0  0  0  0
    1.8325    8.3482    1.4207 C   0  0  0  0  0  0  0  0  0  0  0  0
    2.6076   10.2749    2.2945 C   0  0  0  0  0  0  0  0  0  0  0  0
    2.5589    7.7650    4.8894 C   0  0  0  0  0  0  0  0  0  0  0  0
    2.2408    6.4146    5.0045 C   0  0  0  0  0  0  0  0  0  0  0  0
    1.8902    5.8865    4.1326 H   0  0  0  0  0  0  0  0  0  0  0  0
    2.3887    5.8049    6.2388 C   0  0  0  0  0  0  0  0  0  0  0  0
    2.1511    4.7593    6.3658 H   0  0  0  0  0  0  0  0  0  0  0  0
    2.8478    6.5623    7.3041 C   0  0  0  0  0  0  0  0  0  0  0  0
    2.9807    6.1305    8.2833 H   0  0  0  0  0  0  0  0  0  0  0  0
    3.1374    7.9037    7.0920 C   0  0  0  0  0  0  0  0  0  0  0  0
    3.4983    8.5281    7.8997 H   0  0  0  0  0  0  0  0  0  0  0  0
    2.9705   11.6894    2.1314 C   0  0  0  0  0  0  0  0  0  0  0  0
    2.8717   12.2971    0.8833 C   0  0  0  0  0  0  0  0  0  0  0  0
    2.5247   11.7177    0.0437 H   0  0  0  0  0  0  0  0  0  0  0  0
    3.2258   13.6301    0.7640 C   0  0  0  0  0  0  0  0  0  0  0  0
    3.1603   14.1318   -0.1900 H   0  0  0  0  0  0  0  0  0  0  0  0
    3.6657   14.3040    1.8913 C   0  0  0  0  0  0  0  0  0  0  0  0
    3.9539   15.3421    1.8472 H   0  0  0  0  0  0  0  0  0  0  0  0
    3.7306   13.6141    3.0946 C   0  0  0  0  0  0  0  0  0  0  0  0
    4.0700   14.1048    3.9982 H   0  0  0  0  0  0  0  0  0  0  0  0
    1.3170    7.5930    0.2752 C   0  0  0  0  0  0  0  0  0  0  0  0
    1.1094    8.2247   -0.9513 C   0  0  0  0  0  0  0  0  0  0  0  0
    1.3303    9.2743   -1.0544 H   0  0  0  0  0  0  0  0  0  0  0  0
    0.6179    7.4714   -2.0039 C   0  0  0  0  0  0  0  0  0  0  0  0
    0.4432    7.9251   -2.9685 H   0  0  0  0  0  0  0  0  0  0  0  0
    0.3544    6.1272   -1.7952 C   0  0  0  0  0  0  0  0  0  0  0  0
   -0.0293    5.5043   -2.5880 H   0  0  0  0  0  0  0  0  0  0  0  0
    0.5971    5.5960   -0.5322 C   0  0  0  0  0  0  0  0  0  0  0  0
    0.4075    4.5521   -0.3202 H   0  0  0  0  0  0  0  0  0  0  0  0
    2.7601    9.7189    3.4937 N   0  0  0  0  0  0  0  0  0  0  0  0
    1.9542    7.7189    2.5817 N   0  0  0  0  0  0  0  0  0  0  0  0
    2.1492    9.6289    1.2341 N   0  0  0  0  0  0  0  0  0  0  0  0
    2.9969    8.4946    5.9180 N   0  0  0  0  0  0  0  0  0  0  0  0
    3.3922   12.3426    3.2160 N   0  0  0  0  0  0  0  0  0  0  0  0
    1.0634    6.3024    0.4745 N   0  0  0  0  0  0  0  0  0  0  0  0
    1.0949   11.8671    6.2945 I   0  0  0  0  0  0  0  0  0  0  0  0
    6.0240   10.8907    5.6253 I   0  0  0  0  0  0  0  0  0  0  0  0
    3.4213   11.0113    5.4594 Hg  0  0  0  0  0  0  0  0  0  0  0  0
  1  4  1  6  0  0  0
  2 32  2  0  0  0  0
  3 31  1  0  0  0  0
  4  5  2  0  0  0  0
  4 34  1  0  0  0  0
  5  7  1  0  0  0  0
  6  5  1  0  0  0  0
  7  8  1  0  0  0  0
  7  9  2  0  0  0  0
  9 10  1  0  0  0  0
 11  9  1  0  0  0  0
 11 12  1  0  0  0  0
 13  3  1  0  0  0  0
 13 35  1  0  0  0  0
 14 13  2  0  0  0  0
 15 14  1  0  0  0  0
 16 14  1  0  0  0  0
 16 18  2  0  0  0  0
 17 16  1  0  0  0  0
 18 20  1  0  0  0  0
 19 18  1  0  0  0  0
 20 35  2  0  0  0  0
 20 21  1  0  0  0  0
 22 36  1  0  0  0  0
 22  2  1  0  0  0  0
 23 22  2  0  0  0  0
 24 23  1  0  0  0  0
 25 27  2  0  0  0  0
 25 23  1  0  0  0  0
 26 25  1  0  0  0  0
 27 29  1  0  0  0  0
 28 27  1  0  0  0  0
 29 30  1  0  0  0  0
 29 36  2  0  0  0  0
 31  1  1  0  0  0  0
 31 39  1  0  0  0  0
 32  1  1  0  0  0  0
 33  2  1  0  0  0  0
 33  3  2  0  0  0  0
 34 11  2  0  0  0  0
 39 38  1  0  0  0  0
 39 37  1  0  0  0  0
M  END
$$$$
