CSD_code = QIYKOA | q = 0 | S = 0 | Stoichiometry = C19H25ClCoN7O5 | MND = 6
 OpenBabel04212202093D

 58 61  0  0  0  0  0  0  0  0999 V2000
   -3.4790   11.4910   10.7664 Co  0  0  0  0  0  0  0  0  0  0  0  0
   -5.5165   12.0443   10.2264 Cl  0  0  0  0  0  0  0  0  0  0  0  0
    2.6260    9.0216   12.9307 O   0  0  0  0  0  0  0  0  0  0  0  0
   -3.9907    8.7981    9.7109 O   0  0  0  0  0  0  0  0  0  0  0  0
   -4.2457    8.8317   10.7238 H   0  0  0  0  0  0  0  0  0  0  0  0
   -2.5173   13.7515    9.1540 O   0  0  0  0  0  0  0  0  0  0  0  0
   -2.6792   14.0656   10.1370 H   0  0  0  0  0  0  0  0  0  0  0  0
   -2.9305   14.0419   11.6307 O   0  0  0  0  0  1  0  0  0  0  0  0
   -4.3702    9.2951   12.1593 O   0  0  0  0  0  1  0  0  0  0  0  0
   -1.6579   11.0000   11.2700 N   0  0  0  0  0  0  0  0  0  0  0  0
    3.3509   10.3556   11.2373 N   0  0  0  0  0  0  0  0  0  0  0  0
    3.0306   11.1385   10.1779 N   0  0  0  0  0  0  0  0  0  0  0  0
   -3.5969   10.0583    9.4434 N   0  0  0  0  0  0  0  0  0  0  0  0
   -2.8818   12.4544    9.1742 N   0  0  0  0  0  0  0  0  0  0  0  0
   -3.4639   12.9147   11.9538 N   0  0  0  0  0  0  0  0  0  0  0  0
   -4.1748   10.5669   12.2154 N   0  0  0  0  0  0  0  0  0  0  0  0
   -1.3386    9.7350   11.5538 C   0  0  0  0  0  3  0  0  0  0  0  0
   -2.1455    9.0156   11.5990 H   0  0  0  0  0  0  0  0  0  0  0  0
   -0.0432    9.3308   11.8087 C   0  0  0  0  0  0  0  0  0  0  0  0
    0.1719    8.2999   12.0415 H   0  0  0  0  0  0  0  0  0  0  0  0
    0.9867   10.2661   11.7560 C   0  0  0  0  0  0  0  0  0  0  0  0
    0.6459   11.5903   11.5013 C   0  0  0  0  0  0  0  0  0  0  0  0
    1.3924   12.3659   11.4824 H   0  0  0  0  0  0  0  0  0  0  0  0
   -0.6785   11.9073   11.2680 C   0  0  0  0  0  0  0  0  0  0  0  0
   -0.9570   12.9370   11.0880 H   0  0  0  0  0  0  0  0  0  0  0  0
    2.3762    9.8143   12.0536 C   0  0  0  0  0  0  0  0  0  0  0  0
    4.7197   10.1570   11.3086 C   0  0  0  0  0  0  0  0  0  0  0  0
    5.2543   10.8500   10.2621 C   0  0  0  0  0  0  0  0  0  0  0  0
    6.2888   10.9325    9.9991 H   0  0  0  0  0  0  0  0  0  0  0  0
    4.1546   11.4445    9.5829 C   0  0  0  0  0  0  0  0  0  0  0  0
    4.2009   12.2991    8.3723 C   0  0  0  0  0  0  0  0  0  0  0  0
    3.1952   12.6044    8.0994 H   0  0  0  0  0  0  0  0  0  0  0  0
    4.6499   11.7517    7.5449 H   0  0  0  0  0  0  0  0  0  0  0  0
    4.8090   13.1825    8.5606 H   0  0  0  0  0  0  0  0  0  0  0  0
    5.3694    9.3445   12.3593 C   0  0  0  0  0  0  0  0  0  0  0  0
    6.4478    9.3743   12.2281 H   0  0  0  0  0  0  0  0  0  0  0  0
    5.0264    8.3118   12.3104 H   0  0  0  0  0  0  0  0  0  0  0  0
    5.1128    9.7203   13.3488 H   0  0  0  0  0  0  0  0  0  0  0  0
   -4.0208   12.6706   13.0983 C   0  0  0  0  0  0  0  0  0  0  0  0
   -4.4361   11.3015   13.2506 C   0  0  0  0  0  0  0  0  0  0  0  0
   -2.6525   12.3747    6.7307 C   0  0  0  0  0  0  0  0  0  0  0  0
   -2.3426   13.4099    6.8463 H   0  0  0  0  0  0  0  0  0  0  0  0
   -3.5445   12.3388    6.1076 H   0  0  0  0  0  0  0  0  0  0  0  0
   -1.8642   11.8124    6.2335 H   0  0  0  0  0  0  0  0  0  0  0  0
   -4.1751   13.7026   14.1663 C   0  0  0  0  0  0  0  0  0  0  0  0
   -3.7738   14.6460   13.8036 H   0  0  0  0  0  0  0  0  0  0  0  0
   -3.6426   13.4056   15.0688 H   0  0  0  0  0  0  0  0  0  0  0  0
   -5.2273   13.8313   14.4135 H   0  0  0  0  0  0  0  0  0  0  0  0
   -3.3584   10.4083    8.2274 C   0  0  0  0  0  0  0  0  0  0  0  0
   -2.9461   11.7923    8.0720 C   0  0  0  0  0  0  0  0  0  0  0  0
   -3.5068    9.5001    7.0536 C   0  0  0  0  0  0  0  0  0  0  0  0
   -3.8405    8.5230    7.3928 H   0  0  0  0  0  0  0  0  0  0  0  0
   -4.2404    9.9065    6.3598 H   0  0  0  0  0  0  0  0  0  0  0  0
   -2.5588    9.3963    6.5283 H   0  0  0  0  0  0  0  0  0  0  0  0
   -5.0667   10.7639   14.4926 C   0  0  0  0  0  0  0  0  0  0  0  0
   -5.2873    9.7092   14.3459 H   0  0  0  0  0  0  0  0  0  0  0  0
   -5.9906   11.2984   14.7054 H   0  0  0  0  0  0  0  0  0  0  0  0
   -4.3979   10.8779   15.3447 H   0  0  0  0  0  0  0  0  0  0  0  0
  1 10  1  0  0  0  0
  1 15  1  0  0  0  0
  1 16  1  0  0  0  0
  2  1  1  0  0  0  0
  4  5  1  0  0  0  0
  6 14  1  0  0  0  0
  6  7  1  0  0  0  0
  8 15  1  0  0  0  0
  9 16  1  0  0  0  0
 10 17  1  0  0  0  0
 11 27  1  0  0  0  0
 11 26  1  0  0  0  0
 12 11  1  0  0  0  0
 13  4  1  0  0  0  0
 13  1  1  0  0  0  0
 14  1  1  0  0  0  0
 15 39  1  0  0  0  0
 16 40  1  0  0  0  0
 17 18  1  0  0  0  0
 17 19  1  0  0  0  0
 19 20  1  0  0  0  0
 21 19  2  0  0  0  0
 21 26  1  0  0  0  0
 22 21  1  0  0  0  0
 23 22  1  0  0  0  0
 24 10  1  0  0  0  0
 24 22  2  0  0  0  0
 25 24  1  0  0  0  0
 26  3  2  0  0  0  0
 27 35  1  0  0  0  0
 28 27  2  0  0  0  0
 29 28  1  0  0  0  0
 30 12  2  0  0  0  0
 30 28  1  0  0  0  0
 31 34  1  0  0  0  0
 31 30  1  0  0  0  0
 32 31  1  0  0  0  0
 33 31  1  0  0  0  0
 35 38  1  0  0  0  0
 36 35  1  0  0  0  0
 37 35  1  0  0  0  0
 39 40  2  0  0  0  0
 39 45  1  0  0  0  0
 40 55  1  0  0  0  0
 41 42  1  0  0  0  0
 41 50  1  0  0  0  0
 43 41  1  0  0  0  0
 44 41  1  0  0  0  0
 45 48  1  0  0  0  0
 45 47  1  0  0  0  0
 46 45  1  0  0  0  0
 49 13  1  0  0  0  0
 50 49  2  0  0  0  0
 50 14  1  0  0  0  0
 51 52  1  0  0  0  0
 51 49  1  0  0  0  0
 53 51  1  0  0  0  0
 54 51  1  0  0  0  0
 55 57  1  0  0  0  0
 55 58  1  0  0  0  0
 56 55  1  0  0  0  0
M  END
$$$$
