CSD_code = QIYWAW | q = 0 | S = 0 | Stoichiometry = C5H8Cl2N2PdS | MND = 4
 OpenBabel04212202093D

 19 20  0  0  1  0  0  0  0  0999 V2000
    0.5548    4.1820    5.3380 Pd  0  0  0  0  0  0  0  0  0  0  0  0
    1.0308    6.0879    3.9877 S   0  0  2  0  0  3  0  0  0  0  0  0
   -0.0619    2.4169    6.5305 Cl  0  0  0  0  0  0  0  0  0  0  0  0
    2.0162    2.9502    4.2260 Cl  0  0  0  0  0  0  0  0  0  0  0  0
   -0.8763    5.3969    6.1941 N   0  0  0  0  0  0  0  0  0  0  0  0
   -1.0817    6.6072    5.6554 N   0  0  1  0  0  0  0  0  0  0  0  0
   -2.2597    7.1182    6.0765 C   0  0  0  0  0  3  0  0  0  0  0  0
   -2.8322    6.1863    6.9084 C   0  0  0  0  0  0  0  0  0  0  0  0
   -1.9264    5.1202    6.9476 C   0  0  0  0  0  0  0  0  0  0  0  0
   -0.0863    7.2645    4.8552 C   0  0  0  0  0  0  0  0  0  0  0  0
   -0.0857    5.4600    2.6922 C   0  0  0  0  0  0  0  0  0  0  0  0
   -2.5988    8.0845    5.7624 H   0  0  0  0  0  0  0  0  0  0  0  0
   -3.7718    6.2575    7.4144 H   0  0  0  0  0  0  0  0  0  0  0  0
   -1.9827    4.1828    7.4686 H   0  0  0  0  0  0  0  0  0  0  0  0
    0.5809    7.8666    5.4833 H   0  0  0  0  0  0  0  0  0  0  0  0
   -0.5716    7.9053    4.1154 H   0  0  0  0  0  0  0  0  0  0  0  0
    0.4775    4.6796    2.1807 H   0  0  0  0  0  0  0  0  0  0  0  0
   -0.3276    6.2629    2.0000 H   0  0  0  0  0  0  0  0  0  0  0  0
   -0.9902    5.0275    3.1308 H   0  0  0  0  0  0  0  0  0  0  0  0
  1  5  1  0  0  0  0
  1  3  1  0  0  0  0
  2 11  1  6  0  0  0
  2 10  1  0  0  0  0
  2  1  1  0  0  0  0
  4  1  1  0  0  0  0
  5  9  1  0  0  0  0
  6  7  1  1  0  0  0
  6  5  1  0  0  0  0
  7  8  1  0  0  0  0
  8  9  2  0  0  0  0
  8 13  1  0  0  0  0
  9 14  1  0  0  0  0
 10 15  1  0  0  0  0
 10  6  1  0  0  0  0
 11 19  1  0  0  0  0
 12  7  1  0  0  0  0
 16 10  1  0  0  0  0
 17 11  1  0  0  0  0
 18 11  1  0  0  0  0
M  END
$$$$
