CSD_code = QIZCAF | q = 0 | S = 0 | Stoichiometry = C16H13Cl2FeN5 | MND = 5
 OpenBabel04212202093D

 37 42  0  0  1  0  0  0  0  0999 V2000
    1.6875    3.6088    1.2889 Fe  0  0  0  0  0  0  0  0  0  0  0  0
    3.3274    4.8899    0.8834 Cl  0  0  0  0  0  0  0  0  0  0  0  0
    2.0235    2.4632   -0.4638 Cl  0  0  0  0  0  0  0  0  0  0  0  0
    1.6704    4.3252    3.1001 N   0  0  0  0  0  0  0  0  0  0  0  0
    0.5382    2.1712    1.9166 N   0  0  0  0  0  0  0  0  0  0  0  0
    0.1348    4.6621    0.8819 N   0  0  0  0  0  0  0  0  0  0  0  0
   -0.4755    2.4904    2.7273 N   0  0  2  0  0  0  0  0  0  0  0  0
   -0.6703    3.8802    3.0533 C   0  0  1  0  0  0  0  0  0  0  0  0
   -1.5396    3.9761    3.7100 H   0  0  0  0  0  0  0  0  0  0  0  0
    0.6465    4.8342    5.0022 C   0  0  0  0  0  3  0  0  0  0  0  0
   -0.1845    4.9251    5.6716 H   0  0  0  0  0  0  0  0  0  0  0  0
   -1.1526    1.3897    3.1232 C   0  0  0  0  0  3  0  0  0  0  0  0
   -1.9986    1.4515    3.7767 H   0  0  0  0  0  0  0  0  0  0  0  0
    2.5774    4.8050    3.9368 C   0  0  0  0  0  0  0  0  0  0  0  0
    3.5984    4.9070    3.6321 H   0  0  0  0  0  0  0  0  0  0  0  0
    0.5023    4.3465    3.7503 N   0  0  2  0  0  0  0  0  0  0  0  0
    0.9524    5.4338   -1.2632 C   0  0  0  0  0  0  0  0  0  0  0  0
    1.8509    4.8573   -1.1378 H   0  0  0  0  0  0  0  0  0  0  0  0
    0.5146    0.8543    1.7822 C   0  0  0  0  0  0  0  0  0  0  0  0
    1.2262    0.3584    1.1548 H   0  0  0  0  0  0  0  0  0  0  0  0
   -0.0364    5.4086   -0.2636 C   0  0  0  0  0  0  0  0  0  0  0  0
   -2.2286    6.1706    0.5053 C   0  0  0  0  0  0  0  0  0  0  0  0
   -3.1278    6.7477    0.3578 H   0  0  0  0  0  0  0  0  0  0  0  0
   -0.8589    4.6895    1.7827 C   0  0  0  0  0  0  0  0  0  0  0  0
   -2.0400    5.4186    1.6330 C   0  0  0  0  0  0  0  0  0  0  0  0
   -2.7878    5.3797    2.4106 H   0  0  0  0  0  0  0  0  0  0  0  0
   -1.2158    6.1819   -0.4756 C   0  0  0  0  0  0  0  0  0  0  0  0
    0.7898    6.1842   -2.4009 C   0  0  0  0  0  0  0  0  0  0  0  0
    1.5668    6.1843   -3.1492 H   0  0  0  0  0  0  0  0  0  0  0  0
   -0.5393    0.3145    2.5281 C   0  0  0  0  0  0  0  0  0  0  0  0
   -0.8094   -0.7170    2.6158 H   0  0  0  0  0  0  0  0  0  0  0  0
   -1.3505    6.9406   -1.6527 C   0  0  0  0  0  3  0  0  0  0  0  0
   -2.2533    7.5192   -1.7853 H   0  0  0  0  0  0  0  0  0  0  0  0
   -0.3644    6.9457   -2.6019 C   0  0  0  0  0  0  0  0  0  0  0  0
   -0.4756    7.5329   -3.5012 H   0  0  0  0  0  0  0  0  0  0  0  0
    1.9765    5.1414    5.1550 C   0  0  0  0  0  0  0  0  0  0  0  0
    2.4525    5.5525    6.0205 H   0  0  0  0  0  0  0  0  0  0  0  0
  1  5  1  0  0  0  0
  1  4  1  0  0  0  0
  2  1  1  0  0  0  0
  3  1  1  0  0  0  0
  4 16  1  0  0  0  0
  4 14  1  0  0  0  0
  5  7  1  0  0  0  0
  6  1  1  0  0  0  0
  6 24  1  0  0  0  0
  7  8  1  0  0  0  0
  7 12  1  1  0  0  0
  8  9  1  1  0  0  0
  8 16  1  0  0  0  0
 10 36  1  0  0  0  0
 10 11  1  0  0  0  0
 12 13  1  0  0  0  0
 14 36  2  0  0  0  0
 15 14  1  0  0  0  0
 16 10  1  6  0  0  0
 17 18  1  0  0  0  0
 17 21  2  0  0  0  0
 19  5  1  0  0  0  0
 19 30  2  0  0  0  0
 20 19  1  0  0  0  0
 21  6  1  0  0  0  0
 22 25  1  0  0  0  0
 23 22  1  0  0  0  0
 24  8  1  0  0  0  0
 25 24  2  0  0  0  0
 25 26  1  0  0  0  0
 27 21  1  0  0  0  0
 27 22  2  0  0  0  0
 28 17  1  0  0  0  0
 29 28  1  0  0  0  0
 30 31  1  0  0  0  0
 30 12  1  0  0  0  0
 32 27  1  0  0  0  0
 33 32  1  0  0  0  0
 34 28  2  0  0  0  0
 34 32  1  0  0  0  0
 35 34  1  0  0  0  0
 36 37  1  0  0  0  0
M  END
$$$$
