CSD_code = QIZTEA | q = 0 | S = 0 | Stoichiometry = C14H19AuClNO | MND = 2
 OpenBabel04212202093D

 37 37  0  0  0  0  0  0  0  0999 V2000
    4.6426    8.4508   11.7337 Au  0  0  0  0  0  0  0  0  0  0  0  0
    4.3739    9.9781   13.3033 Cl  0  0  0  0  0  0  0  0  0  0  0  0
    5.5739    2.6141    5.6163 O   0  0  0  0  0  0  0  0  0  0  0  0
    4.9809    6.3400    9.5849 N   0  0  0  0  0  2  0  0  0  0  0  0
    4.8619    7.1555   10.4067 C   0  0  0  0  0  0  0  0  0  0  0  0
    5.1201    5.4011    8.6205 C   0  0  0  0  0  0  0  0  0  0  0  0
    5.7727    5.7196    7.4261 C   0  0  0  0  0  0  0  0  0  0  0  0
    5.9043    4.7613    6.4516 C   0  0  0  0  0  0  0  0  0  0  0  0
    5.3924    3.4691    6.6384 C   0  0  0  0  0  0  0  0  0  0  0  0
    4.7458    3.1618    7.8373 C   0  0  0  0  0  0  0  0  0  0  0  0
    4.6107    4.1207    8.8206 C   0  0  0  0  0  0  0  0  0  0  0  0
    5.0648    1.2942    5.7092 C   0  0  0  0  0  0  0  0  0  0  0  0
    5.3805    0.5786    4.4009 C   0  0  0  0  0  0  0  0  0  0  0  0
    4.8387   -0.8481    4.3974 C   0  0  0  0  0  0  0  0  0  0  0  0
    5.1413   -1.5651    3.0839 C   0  0  0  0  0  0  0  0  0  0  0  0
    4.5875   -2.9878    3.0674 C   0  0  0  0  0  0  0  0  0  0  0  0
    4.8765   -3.6999    1.7481 C   0  0  0  0  0  0  0  0  0  0  0  0
    4.3151   -5.1162    1.7327 C   0  0  0  0  0  0  0  0  0  0  0  0
    6.1651    6.7142    7.2812 H   0  0  0  0  0  0  0  0  0  0  0  0
    6.4024    4.9815    5.5212 H   0  0  0  0  0  0  0  0  0  0  0  0
    4.3445    2.1770    8.0130 H   0  0  0  0  0  0  0  0  0  0  0  0
    4.1103    3.8845    9.7473 H   0  0  0  0  0  0  0  0  0  0  0  0
    3.9787    1.3213    5.8704 H   0  0  0  0  0  0  0  0  0  0  0  0
    5.5338    0.7679    6.5514 H   0  0  0  0  0  0  0  0  0  0  0  0
    6.4620    0.5686    4.2579 H   0  0  0  0  0  0  0  0  0  0  0  0
    4.9414    1.1460    3.5788 H   0  0  0  0  0  0  0  0  0  0  0  0
    5.2813   -1.4072    5.2251 H   0  0  0  0  0  0  0  0  0  0  0  0
    3.7577   -0.8254    4.5547 H   0  0  0  0  0  0  0  0  0  0  0  0
    6.2221   -1.5962    2.9300 H   0  0  0  0  0  0  0  0  0  0  0  0
    4.7063   -0.9998    2.2568 H   0  0  0  0  0  0  0  0  0  0  0  0
    5.0285   -3.5579    3.8885 H   0  0  0  0  0  0  0  0  0  0  0  0
    3.5075   -2.9571    3.2300 H   0  0  0  0  0  0  0  0  0  0  0  0
    5.9563   -3.7356    1.5870 H   0  0  0  0  0  0  0  0  0  0  0  0
    4.4387   -3.1276    0.9271 H   0  0  0  0  0  0  0  0  0  0  0  0
    3.2363   -5.1006    1.8723 H   0  0  0  0  0  0  0  0  0  0  0  0
    4.7543   -5.7098    2.5317 H   0  0  0  0  0  0  0  0  0  0  0  0
    4.5311   -5.6032    0.7848 H   0  0  0  0  0  0  0  0  0  0  0  0
  1  2  1  0  0  0  0
  3 12  1  0  0  0  0
  3  9  1  0  0  0  0
  4  5  1  0  0  0  0
  5  1  3  0  0  0  0
  6 11  1  0  0  0  0
  6  4  1  0  0  0  0
  7  6  2  0  0  0  0
  8  9  2  0  0  0  0
  8  7  1  0  0  0  0
  9 10  1  0  0  0  0
 10 21  1  0  0  0  0
 10 11  2  0  0  0  0
 11 22  1  0  0  0  0
 12 23  1  0  0  0  0
 12 24  1  0  0  0  0
 13 12  1  0  0  0  0
 14 13  1  0  0  0  0
 14 28  1  0  0  0  0
 14 27  1  0  0  0  0
 15 14  1  0  0  0  0
 16 15  1  0  0  0  0
 16 32  1  0  0  0  0
 16 31  1  0  0  0  0
 17 16  1  0  0  0  0
 18 17  1  0  0  0  0
 18 35  1  0  0  0  0
 18 36  1  0  0  0  0
 19  7  1  0  0  0  0
 20  8  1  0  0  0  0
 25 13  1  0  0  0  0
 26 13  1  0  0  0  0
 29 15  1  0  0  0  0
 30 15  1  0  0  0  0
 33 17  1  0  0  0  0
 34 17  1  0  0  0  0
 37 18  1  0  0  0  0
M  END
$$$$
