CSD_code = QOBFAR | q = 0 | S = 0 | Stoichiometry = C15H13AuBr3NO | MND = 4
 OpenBabel04212202093D

 34 36  0  0  1  0  0  0  0  0999 V2000
   14.6247   -0.1760    7.7615 Au  0  0  0  0  0  0  0  0  0  0  0  0
   13.3108    0.1408    5.7363 Br  0  0  0  0  0  0  0  0  0  0  0  0
   13.7380   -2.3853    8.1893 Br  0  0  0  0  0  0  0  0  0  0  0  0
   16.0814   -0.1335    9.7458 Br  0  0  0  0  0  0  0  0  0  0  0  0
   14.5817    2.9094    9.3713 O   0  0  0  0  0  0  0  0  0  0  0  0
   15.1365    2.3071    9.8917 H   0  0  0  0  0  0  0  0  0  0  0  0
   17.0850    3.1150    7.0325 N   0  0  0  0  0  0  0  0  0  0  0  0
   15.4550    1.6106    7.4559 C   0  0  0  0  0  0  0  0  0  0  0  0
   14.9848    2.9247    8.0366 C   0  0  1  0  0  0  0  0  0  0  0  0
   13.8057    3.4621    7.1999 C   0  0  0  0  0  0  0  0  0  0  0  0
   12.9623    2.7870    7.3129 H   0  0  0  0  0  0  0  0  0  0  0  0
   14.0678    3.5251    6.1474 H   0  0  0  0  0  0  0  0  0  0  0  0
   13.5231    4.4400    7.5777 H   0  0  0  0  0  0  0  0  0  0  0  0
   16.1881    3.8123    7.7649 C   0  0  2  0  0  3  0  0  0  0  0  0
   16.4302    5.1191    8.1132 C   0  0  0  0  0  0  0  0  0  0  0  0
   15.7092    5.6510    8.7122 H   0  0  0  0  0  0  0  0  0  0  0  0
   17.6175    5.7077    7.6928 C   0  0  0  0  0  0  0  0  0  0  0  0
   17.8451    6.7255    7.9661 H   0  0  0  0  0  0  0  0  0  0  0  0
   18.5061    4.9755    6.9123 C   0  0  0  0  0  0  0  0  0  0  0  0
   19.4243    5.4174    6.5614 H   0  0  0  0  0  0  0  0  0  0  0  0
   18.2170    3.6682    6.5850 C   0  0  0  0  0  0  0  0  0  0  0  0
   18.8651    3.0496    5.9824 H   0  0  0  0  0  0  0  0  0  0  0  0
   16.6457    1.7866    6.8547 C   0  0  2  0  0  3  0  0  0  0  0  0
   17.4819    0.7774    6.1968 C   0  0  0  0  0  0  0  0  0  0  0  0
   17.0043    0.0846    5.0883 C   0  0  0  0  0  0  0  0  0  0  0  0
   16.0413    0.3365    4.6702 H   0  0  0  0  0  0  0  0  0  0  0  0
   17.7683   -0.9205    4.5229 C   0  0  0  0  0  0  0  0  0  0  0  0
   17.3893   -1.4592    3.6681 H   0  0  0  0  0  0  0  0  0  0  0  0
   19.0053   -1.2396    5.0579 C   0  0  0  0  0  0  0  0  0  0  0  0
   19.5939   -2.0320    4.6215 H   0  0  0  0  0  0  0  0  0  0  0  0
   19.4842   -0.5496    6.1599 C   0  0  0  0  0  0  0  0  0  0  0  0
   20.4428   -0.8038    6.5860 H   0  0  0  0  0  0  0  0  0  0  0  0
   18.7288    0.4579    6.7305 C   0  0  0  0  0  0  0  0  0  0  0  0
   19.0844    0.9712    7.6133 H   0  0  0  0  0  0  0  0  0  0  0  0
  1  3  1  0  0  0  0
  1  4  1  0  0  0  0
  2  1  1  0  0  0  0
  5  6  1  0  0  0  0
  7 14  1  0  0  0  0
  8  1  2  0  0  0  0
  8  9  1  0  0  0  0
  9  5  1  1  0  0  0
 10 11  1  0  0  0  0
 10 13  1  0  0  0  0
 10  9  1  0  0  0  0
 12 10  1  0  0  0  0
 14  9  1  0  0  0  0
 14 15  1  6  0  0  0
 15 16  1  0  0  0  0
 17 18  1  0  0  0  0
 17 15  2  0  0  0  0
 19 17  1  0  0  0  0
 20 19  1  0  0  0  0
 21 19  2  0  0  0  0
 21  7  1  0  0  0  0
 22 21  1  0  0  0  0
 23 24  1  1  0  0  0
 23  7  1  0  0  0  0
 23  8  1  0  0  0  0
 24 33  1  0  0  0  0
 25 24  2  0  0  0  0
 26 25  1  0  0  0  0
 27 29  2  0  0  0  0
 27 25  1  0  0  0  0
 28 27  1  0  0  0  0
 29 31  1  0  0  0  0
 30 29  1  0  0  0  0
 31 32  1  0  0  0  0
 31 33  2  0  0  0  0
 33 34  1  0  0  0  0
M  END
$$$$
