CSD_code = QOBFIZ | q = 0 | S = 0 | Stoichiometry = C15H13AuCl3NO | MND = 4
 OpenBabel04212202093D

 34 36  0  0  1  0  0  0  0  0999 V2000
    9.6669    9.8162    7.8208 Au  0  0  0  0  0  0  0  0  0  0  0  0
   10.8729    9.6439    9.7612 Cl  0  0  0  0  0  0  0  0  0  0  0  0
    8.5551    9.6690    5.8557 Cl  0  0  0  0  0  0  0  0  0  0  0  0
    8.7583   11.8252    8.3300 Cl  0  0  0  0  0  0  0  0  0  0  0  0
    9.7683    6.7677    9.3933 O   0  0  0  0  0  0  0  0  0  0  0  0
   10.1552    7.5500    9.8314 H   0  0  0  0  0  0  0  0  0  0  0  0
   12.1721    6.5964    6.9765 N   0  0  0  0  0  0  0  0  0  0  0  0
   11.5359    4.5706    8.0278 C   0  0  0  0  0  0  0  0  0  0  0  0
   10.8290    4.0328    8.6381 H   0  0  0  0  0  0  0  0  0  0  0  0
   13.5694    4.7245    6.7603 C   0  0  0  0  0  0  0  0  0  0  0  0
   14.4692    4.2825    6.3645 H   0  0  0  0  0  0  0  0  0  0  0  0
   12.0072    9.7140    5.1431 C   0  0  0  0  0  0  0  0  0  0  0  0
   10.9929    9.5327    4.8228 H   0  0  0  0  0  0  0  0  0  0  0  0
   12.7665   10.7056    4.5484 C   0  0  0  0  0  0  0  0  0  0  0  0
   12.3364   11.3039    3.7601 H   0  0  0  0  0  0  0  0  0  0  0  0
   11.2921    5.8874    7.7161 C   0  0  2  0  0  3  0  0  0  0  0  0
   12.7035    3.9824    7.5569 C   0  0  0  0  0  0  0  0  0  0  0  0
   12.9324    2.9572    7.8002 H   0  0  0  0  0  0  0  0  0  0  0  0
   12.5530    8.9430    6.1658 C   0  0  0  0  0  0  0  0  0  0  0  0
    8.8940    6.2584    7.2282 C   0  0  0  0  0  0  0  0  0  0  0  0
    8.5795    5.3015    7.6340 H   0  0  0  0  0  0  0  0  0  0  0  0
    9.1440    6.1600    6.1755 H   0  0  0  0  0  0  0  0  0  0  0  0
    8.0832    6.9735    7.3310 H   0  0  0  0  0  0  0  0  0  0  0  0
   10.1020    6.7731    8.0408 C   0  0  1  0  0  0  0  0  0  0  0  0
   11.7333    7.9326    6.8380 C   0  0  2  0  0  3  0  0  0  0  0  0
   13.8606    9.1783    6.5869 C   0  0  0  0  0  0  0  0  0  0  0  0
   14.2738    8.6099    7.4088 H   0  0  0  0  0  0  0  0  0  0  0  0
   14.0668   10.9352    4.9668 C   0  0  0  0  0  0  0  0  0  0  0  0
   14.6541   11.7144    4.5050 H   0  0  0  0  0  0  0  0  0  0  0  0
   14.6113   10.1725    5.9870 C   0  0  0  0  0  0  0  0  0  0  0  0
   15.6197   10.3585    6.3250 H   0  0  0  0  0  0  0  0  0  0  0  0
   13.2806    6.0419    6.4748 C   0  0  0  0  0  0  0  0  0  0  0  0
   13.9113    6.6656    5.8592 H   0  0  0  0  0  0  0  0  0  0  0  0
   10.5527    8.0935    7.4633 C   0  0  0  0  0  0  0  0  0  0  0  0
  1  4  1  0  0  0  0
  1  2  1  0  0  0  0
  3  1  1  0  0  0  0
  5  6  1  0  0  0  0
  7 16  1  0  0  0  0
  8  9  1  0  0  0  0
 10 17  1  0  0  0  0
 11 10  1  0  0  0  0
 12 19  1  0  0  0  0
 13 12  1  0  0  0  0
 14 28  1  0  0  0  0
 14 12  2  0  0  0  0
 15 14  1  0  0  0  0
 16  8  1  6  0  0  0
 16 24  1  0  0  0  0
 17 18  1  0  0  0  0
 17  8  2  0  0  0  0
 19 26  2  0  0  0  0
 20 23  1  0  0  0  0
 20 21  1  0  0  0  0
 20 24  1  0  0  0  0
 22 20  1  0  0  0  0
 24  5  1  1  0  0  0
 25 19  1  1  0  0  0
 25  7  1  0  0  0  0
 25 34  1  0  0  0  0
 26 27  1  0  0  0  0
 28 30  2  0  0  0  0
 29 28  1  0  0  0  0
 30 31  1  0  0  0  0
 30 26  1  0  0  0  0
 32 10  2  0  0  0  0
 32  7  1  0  0  0  0
 33 32  1  0  0  0  0
 34  1  2  0  0  0  0
 34 24  1  0  0  0  0
M  END
$$$$
