CSD_code = QOBFEV | q = 0 | S = 0 | Stoichiometry = C12H17AuCl3NOSi | MND = 4
 OpenBabel04212202093D

 36 37  0  0  1  0  0  0  0  0999 V2000
    1.2702    5.5305   11.6024 Au  0  0  0  0  0  0  0  0  0  0  0  0
    2.8643    6.1927   10.1345 Cl  0  0  0  0  0  0  0  0  0  0  0  0
    1.7228    7.1799   13.0926 Cl  0  0  0  0  0  0  0  0  0  0  0  0
   -0.4186    4.5924   12.8361 Cl  0  0  0  0  0  0  0  0  0  0  0  0
    2.8663    2.1289   11.2896 Si  0  0  0  0  0  0  0  0  0  0  0  0
   -1.5439    4.5964    9.9531 O   0  0  0  0  0  0  0  0  0  0  0  0
   -1.5141    4.5343   10.9269 H   0  0  0  0  0  0  0  0  0  0  0  0
    0.6694    2.0751    9.3561 N   0  0  0  0  0  0  0  0  0  0  0  0
    0.0601    5.1250    8.2582 C   0  0  0  0  0  0  0  0  0  0  0  0
   -0.7568    5.1593    7.5432 H   0  0  0  0  0  0  0  0  0  0  0  0
    0.9756    4.7969    7.7739 H   0  0  0  0  0  0  0  0  0  0  0  0
    0.2172    6.1190    8.6663 H   0  0  0  0  0  0  0  0  0  0  0  0
   -0.3269    4.1773    9.4148 C   0  0  2  0  0  0  0  0  0  0  0  0
   -0.3793    2.7688    8.8635 C   0  0  1  0  0  3  0  0  0  0  0  0
   -1.2722    2.1914    7.9919 C   0  0  0  0  0  0  0  0  0  0  0  0
   -2.1093    2.7690    7.6354 H   0  0  0  0  0  0  0  0  0  0  0  0
   -1.0728    0.8690    7.6181 C   0  0  0  0  0  0  0  0  0  0  0  0
   -1.7635    0.3802    6.9500 H   0  0  0  0  0  0  0  0  0  0  0  0
    0.0317    0.1849    8.1133 C   0  0  0  0  0  0  0  0  0  0  0  0
    0.2189   -0.8374    7.8274 H   0  0  0  0  0  0  0  0  0  0  0  0
    0.8972    0.8118    8.9847 C   0  0  0  0  0  0  0  0  0  0  0  0
    1.7658    0.3239    9.3931 H   0  0  0  0  0  0  0  0  0  0  0  0
    1.4087    2.8486   10.2788 C   0  0  1  0  0  3  0  0  0  0  0  0
    0.8385    4.0644   10.3699 C   0  0  0  0  0  0  0  0  0  0  0  0
    4.1083    1.3862   10.0361 C   0  0  0  0  0  0  0  0  0  0  0  0
    4.0118    0.3087    9.9348 H   0  0  0  0  0  0  0  0  0  0  0  0
    5.1229    1.5776   10.3705 H   0  0  0  0  0  0  0  0  0  0  0  0
    4.0129    1.8285    9.0483 H   0  0  0  0  0  0  0  0  0  0  0  0
    2.0610    0.7979   12.3970 C   0  0  0  0  0  0  0  0  0  0  0  0
    1.5679    0.0061   11.8393 H   0  0  0  0  0  0  0  0  0  0  0  0
    1.3162    1.2503   13.0463 H   0  0  0  0  0  0  0  0  0  0  0  0
    2.8050    0.3299   13.0341 H   0  0  0  0  0  0  0  0  0  0  0  0
    3.7246    3.4448   12.3391 C   0  0  0  0  0  0  0  0  0  0  0  0
    4.5445    3.0101   12.9050 H   0  0  0  0  0  0  0  0  0  0  0  0
    3.0433    3.8977   13.0546 H   0  0  0  0  0  0  0  0  0  0  0  0
    4.1359    4.2394   11.7240 H   0  0  0  0  0  0  0  0  0  0  0  0
  1  4  1  0  0  0  0
  1  3  1  0  0  0  0
  2  1  1  0  0  0  0
  5 33  1  0  0  0  0
  5 29  1  0  0  0  0
  6  7  1  0  0  0  0
  8 23  1  0  0  0  0
  9 12  1  0  0  0  0
  9 13  1  0  0  0  0
 10  9  1  0  0  0  0
 11  9  1  0  0  0  0
 13  6  1  1  0  0  0
 13 24  1  0  0  0  0
 14 15  1  6  0  0  0
 14  8  1  0  0  0  0
 14 13  1  0  0  0  0
 16 15  1  0  0  0  0
 17 15  2  0  0  0  0
 17 19  1  0  0  0  0
 18 17  1  0  0  0  0
 19 21  2  0  0  0  0
 20 19  1  0  0  0  0
 21  8  1  0  0  0  0
 21 22  1  0  0  0  0
 23 24  1  0  0  0  0
 23  5  1  1  0  0  0
 24  1  2  0  0  0  0
 25 27  1  0  0  0  0
 25  5  1  0  0  0  0
 26 25  1  0  0  0  0
 28 25  1  0  0  0  0
 29 32  1  0  0  0  0
 29 31  1  0  0  0  0
 30 29  1  0  0  0  0
 33 34  1  0  0  0  0
 33 35  1  0  0  0  0
 36 33  1  0  0  0  0
M  END
$$$$
