CSD_code = QOBJOJ | q = -1 | S = 0 | Stoichiometry = C2H6Br3OPdS(1-) | MND = 4
 OpenBabel04212202093D

 14 13  0  0  0  0  0  0  0  0999 V2000
    0.9003   12.1525    8.7154 Pd  0  0  0  0  0  0  0  0  0  0  0  0
    1.1397   14.5210    8.2375 Br  0  0  0  0  0  0  0  0  0  0  0  0
   -0.4675   12.5728   10.5906 Br  0  0  0  0  0  0  0  0  0  0  0  0
    0.5037    9.7594    8.8359 Br  0  0  0  0  0  0  0  0  0  0  0  0
    2.4456   11.7707    7.1860 S   0  0  0  0  0  0  0  0  0  0  0  0
    3.6985   11.8387    7.9254 O   0  0  0  0  0  1  0  0  0  0  0  0
    2.5187   10.2087    6.2268 C   0  0  0  0  0  0  0  0  0  0  0  0
    2.6532   12.8545    5.7205 C   0  0  0  0  0  0  0  0  0  0  0  0
    1.6162   10.1291    5.6297 H   0  0  0  0  0  0  0  0  0  0  0  0
    2.5745    9.3809    6.9254 H   0  0  0  0  0  0  0  0  0  0  0  0
    3.4067   10.2378    5.6064 H   0  0  0  0  0  0  0  0  0  0  0  0
    3.5540   12.5487    5.2016 H   0  0  0  0  0  0  0  0  0  0  0  0
    2.7440   13.8811    6.0590 H   0  0  0  0  0  0  0  0  0  0  0  0
    1.7747   12.7434    5.0929 H   0  0  0  0  0  0  0  0  0  0  0  0
  1  4  1  0  0  0  0
  1  3  1  0  0  0  0
  2  1  1  0  0  0  0
  5  6  1  0  0  0  0
  5  1  1  0  0  0  0
  7 10  1  0  0  0  0
  7  5  1  0  0  0  0
  8 13  1  0  0  0  0
  8  5  1  0  0  0  0
  9  7  1  0  0  0  0
 11  7  1  0  0  0  0
 12  8  1  0  0  0  0
 14  8  1  0  0  0  0
M  END
$$$$
