CSD_code = QOBLUP | q = 1 | S = 0 | Stoichiometry = C34H23ClN7Ru(1+) | MND = 6
 OpenBabel04212202093D

 66 76  0  0  1  0  0  0  0  0999 V2000
    1.7081    7.2884    5.1275 Ru  0  0  0  0  0  0  0  0  0  0  0  0
    2.0417    8.4779    3.1386 Cl  0  0  0  0  0  0  0  0  0  0  0  0
    3.6350    7.6430    5.5862 N   0  0  0  0  0  0  0  0  0  0  0  0
    1.4969    8.9818    5.9205 N   0  0  0  0  0  0  0  0  0  0  0  0
   -0.2750    7.4997    4.8504 N   0  0  0  0  0  0  0  0  0  0  0  0
    1.9297    5.4854    4.2453 N   0  0  0  0  0  0  0  0  0  0  0  0
    1.4324    6.1052    6.7326 N   0  0  0  0  0  0  0  0  0  0  0  0
    1.6727    0.7577    5.5289 N   0  0  0  0  0  0  0  0  0  0  0  0
    1.2498    1.2574    7.6498 N   0  0  0  0  0  0  0  0  0  0  0  0
    1.0529    1.1280    8.6279 H   0  0  0  0  0  0  0  0  0  0  0  0
    4.7018    6.8845    5.3495 C   0  0  0  0  0  3  0  0  0  0  0  0
    4.5122    5.9130    4.9072 H   0  0  0  0  0  0  0  0  0  0  0  0
    5.9934    7.2895    5.6308 C   0  0  0  0  0  0  0  0  0  0  0  0
    6.8231    6.6385    5.4095 H   0  0  0  0  0  0  0  0  0  0  0  0
    6.1945    8.5451    6.1895 C   0  0  0  0  0  0  0  0  0  0  0  0
    7.1887    8.8954    6.4167 H   0  0  0  0  0  0  0  0  0  0  0  0
    5.0936    9.3417    6.4409 C   0  0  0  0  0  0  0  0  0  0  0  0
    5.2165   10.3236    6.8674 H   0  0  0  0  0  0  0  0  0  0  0  0
    3.8186    8.8748    6.1261 C   0  0  0  0  0  0  0  0  0  0  0  0
    2.5947    9.6549    6.3068 C   0  0  1  0  0  3  0  0  0  0  0  0
    2.4897   10.9671    6.7592 C   0  0  0  0  0  0  0  0  0  0  0  0
    3.3623   11.5166    7.0702 H   0  0  0  0  0  0  0  0  0  0  0  0
    1.2401   11.5702    6.7786 C   0  0  0  0  0  0  0  0  0  0  0  0
    1.1375   12.5861    7.1244 H   0  0  0  0  0  0  0  0  0  0  0  0
    0.1289   10.8799    6.3156 C   0  0  0  0  0  0  0  0  0  0  0  0
   -0.8338   11.3616    6.2813 H   0  0  0  0  0  0  0  0  0  0  0  0
    0.2887    9.5696    5.8738 C   0  0  0  0  0  0  0  0  0  0  0  0
   -0.7290    8.7062    5.2754 C   0  0  1  0  0  3  0  0  0  0  0  0
   -2.0637    9.0728    5.1118 C   0  0  0  0  0  0  0  0  0  0  0  0
   -2.4025   10.0364    5.4549 H   0  0  0  0  0  0  0  0  0  0  0  0
   -2.9419    8.2004    4.4974 C   0  0  0  0  0  0  0  0  0  0  0  0
   -3.9754    8.4726    4.3538 H   0  0  0  0  0  0  0  0  0  0  0  0
   -2.4633    6.9712    4.0625 C   0  0  0  0  0  0  0  0  0  0  0  0
   -3.1101    6.2632    3.5708 H   0  0  0  0  0  0  0  0  0  0  0  0
   -1.1292    6.6677    4.2610 C   0  0  0  0  0  0  0  0  0  0  0  0
   -0.7242    5.7195    3.9260 H   0  0  0  0  0  0  0  0  0  0  0  0
    2.1900    5.2227    2.9720 C   0  0  0  0  0  0  0  0  0  0  0  0
    2.3150    6.0835    2.3262 H   0  0  0  0  0  0  0  0  0  0  0  0
    2.2973    3.9245    2.4733 C   0  0  0  0  0  0  0  0  0  0  0  0
    2.5109    3.7810    1.4265 H   0  0  0  0  0  0  0  0  0  0  0  0
    2.1289    2.8468    3.3161 C   0  0  0  0  0  0  0  0  0  0  0  0
    2.2005    1.8271    2.9748 H   0  0  0  0  0  0  0  0  0  0  0  0
    1.8547    3.0975    4.6656 C   0  0  0  0  0  0  0  0  0  0  0  0
    1.7647    4.4394    5.0937 C   0  0  0  0  0  0  0  0  0  0  0  0
    1.4921    4.7806    6.4562 C   0  0  0  0  0  0  0  0  0  0  0  0
    1.2982    3.7863    7.4483 C   0  0  0  0  0  0  0  0  0  0  0  0
    1.0401    4.2116    8.7598 C   0  0  0  0  0  0  0  0  0  0  0  0
    0.8859    3.4945    9.5506 H   0  0  0  0  0  0  0  0  0  0  0  0
    0.9883    5.5648    9.0165 C   0  0  0  0  0  0  0  0  0  0  0  0
    0.7936    5.9299   10.0119 H   0  0  0  0  0  0  0  0  0  0  0  0
    1.1876    6.4762    7.9835 C   0  0  0  0  0  0  0  0  0  0  0  0
    1.1467    7.5407    8.1790 H   0  0  0  0  0  0  0  0  0  0  0  0
    1.6524    2.1016    5.6625 C   0  0  0  0  0  0  0  0  0  0  0  0
    1.3859    2.4479    6.9977 C   0  0  0  0  0  0  0  0  0  0  0  0
    1.4298    0.2622    6.7240 C   0  0  0  0  0  0  0  0  0  0  0  0
    1.3587   -1.1522    7.0181 C   0  0  0  0  0  0  0  0  0  0  0  0
    1.5581   -2.0589    5.9735 C   0  0  0  0  0  0  0  0  0  0  0  0
    1.7589   -1.6688    4.9889 H   0  0  0  0  0  0  0  0  0  0  0  0
    1.4967   -3.4174    6.2091 C   0  0  0  0  0  0  0  0  0  0  0  0
    1.6517   -4.1114    5.3974 H   0  0  0  0  0  0  0  0  0  0  0  0
    1.2363   -3.8911    7.4860 C   0  0  0  0  0  0  0  0  0  0  0  0
    1.1880   -4.9531    7.6706 H   0  0  0  0  0  0  0  0  0  0  0  0
    1.0375   -2.9990    8.5278 C   0  0  0  0  0  0  0  0  0  0  0  0
    0.8346   -3.3670    9.5221 H   0  0  0  0  0  0  0  0  0  0  0  0
    1.0971   -1.6374    8.3009 C   0  0  0  0  0  0  0  0  0  0  0  0
    0.9385   -0.9616    9.1292 H   0  0  0  0  0  0  0  0  0  0  0  0
  1  3  1  0  0  0  0
  1  4  1  0  0  0  0
  1  7  1  0  0  0  0
  2  1  1  0  0  0  0
  3 19  1  0  0  0  0
  4 20  1  0  0  0  0
  5  1  1  0  0  0  0
  5 28  1  0  0  0  0
  6 44  1  0  0  0  0
  6  1  1  0  0  0  0
  7 51  1  0  0  0  0
  8 53  1  0  0  0  0
  8 55  2  0  0  0  0
  9 10  1  0  0  0  0
 11  3  1  0  0  0  0
 11 13  1  0  0  0  0
 12 11  1  0  0  0  0
 13 15  2  0  0  0  0
 14 13  1  0  0  0  0
 15 16  1  0  0  0  0
 15 17  1  0  0  0  0
 17 18  1  0  0  0  0
 19 17  2  0  0  0  0
 20 19  1  6  0  0  0
 20 21  1  0  0  0  0
 21 23  2  0  0  0  0
 21 22  1  0  0  0  0
 23 24  1  0  0  0  0
 25 23  1  0  0  0  0
 26 25  1  0  0  0  0
 27  4  1  0  0  0  0
 27 25  2  0  0  0  0
 28 29  1  6  0  0  0
 28 27  1  0  0  0  0
 29 30  1  0  0  0  0
 31 29  2  0  0  0  0
 32 31  1  0  0  0  0
 33 35  2  0  0  0  0
 33 31  1  0  0  0  0
 34 33  1  0  0  0  0
 35  5  1  0  0  0  0
 36 35  1  0  0  0  0
 37  6  1  0  0  0  0
 38 37  1  0  0  0  0
 39 37  2  0  0  0  0
 39 41  1  0  0  0  0
 40 39  1  0  0  0  0
 41 43  2  0  0  0  0
 42 41  1  0  0  0  0
 43 44  1  0  0  0  0
 43 53  1  0  0  0  0
 44 45  2  0  0  0  0
 45  7  1  0  0  0  0
 45 46  1  0  0  0  0
 46 47  2  0  0  0  0
 47 49  1  0  0  0  0
 47 48  1  0  0  0  0
 49 50  1  0  0  0  0
 51 52  1  0  0  0  0
 51 49  2  0  0  0  0
 53 54  2  0  0  0  0
 54 46  1  0  0  0  0
 54  9  1  0  0  0  0
 55 56  1  0  0  0  0
 55  9  1  0  0  0  0
 56 65  1  0  0  0  0
 57 59  1  0  0  0  0
 57 56  2  0  0  0  0
 58 57  1  0  0  0  0
 59 61  2  0  0  0  0
 60 59  1  0  0  0  0
 61 62  1  0  0  0  0
 61 63  1  0  0  0  0
 63 64  1  0  0  0  0
 65 63  2  0  0  0  0
 65 66  1  0  0  0  0
M  END
$$$$
