CSD_code = QOBSUX | q = 0 | S = 0 | Stoichiometry = C10H19ClN2OZn | MND = 4
 OpenBabel04212202093D

 34 35  0  0  1  0  0  0  0  0999 V2000
    5.3863    3.0516    1.0942 Zn  0  0  1  0  0  0  0  0  0  0  0  0
    4.2695    1.2644    1.4992 Cl  0  0  0  0  0  0  0  0  0  0  0  0
    4.7060    4.8009    1.2842 O   0  0  0  0  0  0  0  0  0  0  0  0
    7.1870    3.3724    1.7223 N   0  0  2  0  0  0  0  0  0  0  0  0
    6.1080    2.7056   -0.9393 N   0  0  0  0  0  4  0  0  0  0  0  0
    7.6182    4.5584    2.0652 C   0  0  1  0  0  3  0  0  0  0  0  0
    6.7611    5.6710    2.1213 C   0  0  0  0  0  0  0  0  0  0  0  0
    7.1945    6.5912    2.4833 H   0  0  0  0  0  0  0  0  0  0  0  0
    5.4264    5.7405    1.7546 C   0  0  0  0  0  0  0  0  0  0  0  0
    9.0648    4.7963    2.4261 C   0  0  0  0  0  0  0  0  0  0  0  0
    9.3444    4.1847    3.2830 H   0  0  0  0  0  0  0  0  0  0  0  0
    9.2243    5.8389    2.6827 H   0  0  0  0  0  0  0  0  0  0  0  0
    9.7208    4.5403    1.5957 H   0  0  0  0  0  0  0  0  0  0  0  0
    4.7411    7.0826    1.9074 C   0  0  0  0  0  0  0  0  0  0  0  0
    3.7381    7.0254    1.4937 H   0  0  0  0  0  0  0  0  0  0  0  0
    5.3035    7.8616    1.3977 H   0  0  0  0  0  0  0  0  0  0  0  0
    4.6753    7.3435    2.9619 H   0  0  0  0  0  0  0  0  0  0  0  0
    8.0806    2.2595    1.4906 C   0  0  0  0  0  0  0  0  0  0  0  0
    7.5677    1.3507    1.8170 H   0  0  0  0  0  0  0  0  0  0  0  0
    9.0130    2.3499    2.0557 H   0  0  0  0  0  0  0  0  0  0  0  0
    8.4042    2.1324   -0.0046 C   0  0  0  0  0  0  0  0  0  0  0  0
    8.8379    3.0685   -0.3613 H   0  0  0  0  0  0  0  0  0  0  0  0
    9.1597    1.3524   -0.1231 H   0  0  0  0  0  0  0  0  0  0  0  0
    7.2090    1.7321   -0.8701 C   0  0  0  0  0  0  0  0  0  0  0  0
    7.5738    1.5313   -1.8908 H   0  0  0  0  0  0  0  0  0  0  0  0
    6.7895    0.8064   -0.4682 H   0  0  0  0  0  0  0  0  0  0  0  0
    6.5454    3.9481   -1.5704 C   0  0  0  0  0  0  0  0  0  0  0  0
    7.2788    4.4517   -0.9457 H   0  0  0  0  0  0  0  0  0  0  0  0
    5.6905    4.6127   -1.6786 H   0  0  0  0  0  0  0  0  0  0  0  0
    6.9797    3.7594   -2.5604 H   0  0  0  0  0  0  0  0  0  0  0  0
    5.0343    2.1219   -1.7457 C   0  0  0  0  0  0  0  0  0  0  0  0
    4.2072    2.8265   -1.8111 H   0  0  0  0  0  0  0  0  0  0  0  0
    4.6715    1.2141   -1.2682 H   0  0  0  0  0  0  0  0  0  0  0  0
    5.3848    1.8841   -2.7579 H   0  0  0  0  0  0  0  0  0  0  0  0
  1  3  1  0  0  0  0
  1  2  1  1  0  0  0
  1  4  1  0  0  0  0
  3  9  1  0  0  0  0
  4 18  1  6  0  0  0
  4  6  1  0  0  0  0
  5 24  1  0  0  0  0
  5  1  1  0  0  0  0
  6  7  1  0  0  0  0
  6 10  1  1  0  0  0
  7  8  1  0  0  0  0
  9 14  1  0  0  0  0
  9  7  2  0  0  0  0
 10 12  1  0  0  0  0
 10 11  1  0  0  0  0
 13 10  1  0  0  0  0
 14 17  1  0  0  0  0
 15 14  1  0  0  0  0
 16 14  1  0  0  0  0
 18 19  1  0  0  0  0
 18 20  1  0  0  0  0
 21 18  1  0  0  0  0
 22 21  1  0  0  0  0
 23 21  1  0  0  0  0
 24 26  1  0  0  0  0
 24 21  1  0  0  0  0
 25 24  1  0  0  0  0
 27 28  1  0  0  0  0
 27  5  1  0  0  0  0
 29 27  1  0  0  0  0
 30 27  1  0  0  0  0
 31 33  1  0  0  0  0
 31  5  1  0  0  0  0
 32 31  1  0  0  0  0
 34 31  1  0  0  0  0
M  END
$$$$
