CSD_code = QOCQEF | q = 0 | S = 0 | Stoichiometry = C29H32Cl2P2Pt | MND = 4
 OpenBabel04212202093D

 66 71  0  0  1  0  0  0  0  0999 V2000
   -0.5135   -0.3092    6.6819 Pt  0  0  0  0  0  0  0  0  0  0  0  0
    0.1384   -0.4233    4.5214 Cl  0  0  0  0  0  0  0  0  0  0  0  0
    1.6314   -0.0180    7.3487 Cl  0  0  0  0  0  0  0  0  0  0  0  0
   -1.2459   -0.1218    8.8488 P   0  0  1  0  0  4  0  0  0  0  0  0
   -2.8162   -0.4915    6.4349 P   0  0  2  0  0  4  0  0  0  0  0  0
   -2.1357    1.4915    9.0478 C   0  0  1  0  0  0  0  0  0  0  0  0
   -1.3809    2.1735    9.4627 H   0  0  0  0  0  0  0  0  0  0  0  0
   -3.4945    1.2128    6.8294 C   0  0  1  0  0  0  0  0  0  0  0  0
   -4.4480    1.0911    7.3566 H   0  0  0  0  0  0  0  0  0  0  0  0
   -2.5076    2.0339    7.6646 C   0  0  0  0  0  0  0  0  0  0  0  0
   -2.9261    3.0376    7.7908 H   0  0  0  0  0  0  0  0  0  0  0  0
   -1.5788    2.1310    7.0802 H   0  0  0  0  0  0  0  0  0  0  0  0
   -3.7189    1.9360    5.5002 C   0  0  0  0  0  0  0  0  0  0  0  0
   -3.9567    2.9840    5.6759 H   0  0  0  0  0  0  0  0  0  0  0  0
   -4.5348    1.4914    4.9374 H   0  0  0  0  0  0  0  0  0  0  0  0
   -2.8155    1.8846    4.8918 H   0  0  0  0  0  0  0  0  0  0  0  0
   -3.3042    1.3824   10.0204 C   0  0  0  0  0  0  0  0  0  0  0  0
   -3.7482    2.3624   10.1890 H   0  0  0  0  0  0  0  0  0  0  0  0
   -2.9616    0.9877   10.9758 H   0  0  0  0  0  0  0  0  0  0  0  0
   -4.0720    0.7145    9.6366 H   0  0  0  0  0  0  0  0  0  0  0  0
   -2.4845   -1.4286    8.9862 C   0  0  0  0  0  0  0  0  0  0  0  0
   -2.1377   -2.2671   10.0091 C   0  0  0  0  0  0  0  0  0  0  0  0
   -1.0344   -1.7686   10.8176 C   0  0  0  0  0  0  0  0  0  0  0  0
   -0.4887   -0.5909   10.4042 C   0  0  0  0  0  0  0  0  0  0  0  0
   -3.3664   -1.4861    7.8601 C   0  0  0  0  0  0  0  0  0  0  0  0
   -4.5313   -2.1297    7.5650 C   0  0  0  0  0  0  0  0  0  0  0  0
   -4.9392   -1.9881    6.1777 C   0  0  0  0  0  0  0  0  0  0  0  0
   -4.1581   -1.1696    5.4167 C   0  0  0  0  0  0  0  0  0  0  0  0
   -2.7078   -3.6206   10.2764 C   0  0  0  0  0  0  0  0  0  0  0  0
   -3.4407   -3.5894   11.0838 H   0  0  0  0  0  0  0  0  0  0  0  0
   -1.9161   -4.3040   10.5758 H   0  0  0  0  0  0  0  0  0  0  0  0
   -3.1814   -4.0125    9.3827 H   0  0  0  0  0  0  0  0  0  0  0  0
   -0.5680   -2.5083   12.0275 C   0  0  0  0  0  0  0  0  0  0  0  0
   -0.0531   -3.4239   11.7363 H   0  0  0  0  0  0  0  0  0  0  0  0
   -1.4116   -2.7829   12.6589 H   0  0  0  0  0  0  0  0  0  0  0  0
    0.1239   -1.8967   12.6010 H   0  0  0  0  0  0  0  0  0  0  0  0
    0.6789    0.0962   10.9640 C   0  0  0  0  0  0  0  0  0  0  0  0
    1.9272   -0.5202   10.9299 C   0  0  0  0  0  0  0  0  0  0  0  0
    2.0183   -1.5027   10.4925 H   0  0  0  0  0  0  0  0  0  0  0  0
    3.0418    0.1345   11.4181 C   0  0  0  0  0  0  0  0  0  0  0  0
    4.0071   -0.3475   11.3753 H   0  0  0  0  0  0  0  0  0  0  0  0
    2.9246    1.4067   11.9527 C   0  0  0  0  0  0  0  0  0  0  0  0
    3.7971    1.9183   12.3309 H   0  0  0  0  0  0  0  0  0  0  0  0
    1.6861    2.0233   11.9964 C   0  0  0  0  0  0  0  0  0  0  0  0
    1.5891    3.0153   12.4134 H   0  0  0  0  0  0  0  0  0  0  0  0
    0.5695    1.3747   11.5012 C   0  0  0  0  0  0  0  0  0  0  0  0
   -0.3990    1.8529   11.5503 H   0  0  0  0  0  0  0  0  0  0  0  0
   -5.4044   -2.8621    8.5323 C   0  0  0  0  0  0  0  0  0  0  0  0
   -5.3535   -3.9406    8.3823 H   0  0  0  0  0  0  0  0  0  0  0  0
   -6.4413   -2.5603    8.3884 H   0  0  0  0  0  0  0  0  0  0  0  0
   -5.1156   -2.6339    9.5533 H   0  0  0  0  0  0  0  0  0  0  0  0
   -6.0960   -2.7795    5.6589 C   0  0  0  0  0  0  0  0  0  0  0  0
   -6.0397   -2.8731    4.5777 H   0  0  0  0  0  0  0  0  0  0  0  0
   -7.0420   -2.3021    5.9173 H   0  0  0  0  0  0  0  0  0  0  0  0
   -6.0955   -3.7760    6.0962 H   0  0  0  0  0  0  0  0  0  0  0  0
   -4.2901   -0.8401    4.0072 C   0  0  0  0  0  0  0  0  0  0  0  0
   -5.5308   -0.6294    3.4005 C   0  0  0  0  0  0  0  0  0  0  0  0
   -6.4347   -0.6754    3.9892 H   0  0  0  0  0  0  0  0  0  0  0  0
   -5.6058   -0.3116    2.0575 C   0  0  0  0  0  0  0  0  0  0  0  0
   -6.5715   -0.1477    1.6010 H   0  0  0  0  0  0  0  0  0  0  0  0
   -4.4518   -0.1950    1.2998 C   0  0  0  0  0  0  0  0  0  0  0  0
   -4.5173    0.0504    0.2503 H   0  0  0  0  0  0  0  0  0  0  0  0
   -3.2155   -0.3782    1.8988 C   0  0  0  0  0  0  0  0  0  0  0  0
   -2.3097   -0.2734    1.3215 H   0  0  0  0  0  0  0  0  0  0  0  0
   -3.1326   -0.6893    3.2415 C   0  0  0  0  0  0  0  0  0  0  0  0
   -2.1651   -0.8287    3.7072 H   0  0  0  0  0  0  0  0  0  0  0  0
  1  3  1  0  0  0  0
  1  4  1  0  0  0  0
  2  1  1  0  0  0  0
  4 21  1  6  0  0  0
  4  6  1  0  0  0  0
  4 24  1  0  0  0  0
  5 28  1  6  0  0  0
  5  1  1  0  0  0  0
  5  8  1  0  0  0  0
  5 25  1  0  0  0  0
  6  7  1  1  0  0  0
  6 17  1  0  0  0  0
  8  9  1  1  0  0  0
  8 10  1  0  0  0  0
 10 11  1  0  0  0  0
 10  6  1  0  0  0  0
 12 10  1  0  0  0  0
 13 14  1  0  0  0  0
 13  8  1  0  0  0  0
 15 13  1  0  0  0  0
 16 13  1  0  0  0  0
 17 18  1  0  0  0  0
 17 19  1  0  0  0  0
 20 17  1  0  0  0  0
 21 22  2  0  0  0  0
 22 29  1  0  0  0  0
 22 23  1  0  0  0  0
 23 33  1  0  0  0  0
 24 23  2  0  0  0  0
 24 37  1  0  0  0  0
 25 21  1  0  0  0  0
 26 25  2  0  0  0  0
 26 48  1  0  0  0  0
 27 26  1  0  0  0  0
 28 27  2  0  0  0  0
 29 31  1  0  0  0  0
 29 30  1  0  0  0  0
 32 29  1  0  0  0  0
 33 36  1  0  0  0  0
 33 35  1  0  0  0  0
 34 33  1  0  0  0  0
 37 46  1  0  0  0  0
 38 37  2  0  0  0  0
 38 40  1  0  0  0  0
 39 38  1  0  0  0  0
 40 42  2  0  0  0  0
 41 40  1  0  0  0  0
 42 44  1  0  0  0  0
 42 43  1  0  0  0  0
 44 45  1  0  0  0  0
 46 47  1  0  0  0  0
 46 44  2  0  0  0  0
 48 51  1  0  0  0  0
 49 48  1  0  0  0  0
 50 48  1  0  0  0  0
 52 54  1  0  0  0  0
 52 55  1  0  0  0  0
 52 27  1  0  0  0  0
 53 52  1  0  0  0  0
 56 28  1  0  0  0  0
 57 58  1  0  0  0  0
 57 56  1  0  0  0  0
 59 57  2  0  0  0  0
 60 59  1  0  0  0  0
 61 63  2  0  0  0  0
 61 59  1  0  0  0  0
 62 61  1  0  0  0  0
 63 65  1  0  0  0  0
 64 63  1  0  0  0  0
 65 66  1  0  0  0  0
 65 56  2  0  0  0  0
M  END
$$$$
