CSD_code = QOCRAB | q = 0 | S = 0 | Stoichiometry = C16H18BCl2N7Os | MND = 6
 OpenBabel04212202093D

 45 50  0  0  1  0  0  0  0  0999 V2000
    7.7745    2.4780    4.6263 C   0  0  0  0  0  3  0  0  0  0  0  0
    8.6919    3.3338    4.0234 C   0  0  0  0  0  0  0  0  0  0  0  0
    8.0570    4.5597    3.9865 C   0  0  0  0  0  0  0  0  0  0  0  0
    2.9609    3.4655    3.5331 C   0  0  0  0  0  3  0  0  0  0  0  0
    2.7552    4.5653    2.7034 C   0  0  0  0  0  0  0  0  0  0  0  0
    3.7451    5.4601    3.0549 C   0  0  0  0  0  0  0  0  0  0  0  0
    4.9052    4.6332    8.1768 C   0  0  0  0  0  3  0  0  0  0  0  0
    5.1564    5.9876    8.3834 C   0  0  0  0  0  0  0  0  0  0  0  0
    5.4814    6.4786    7.1352 C   0  0  0  0  0  0  0  0  0  0  0  0
    2.0248    2.6384    6.8564 C   0  0  0  0  0  0  0  0  0  0  0  0
    0.9414    1.8720    7.3375 C   0  0  0  0  0  0  0  0  0  0  0  0
   -0.2835    2.4465    7.5850 C   0  0  0  0  0  0  0  0  0  0  0  0
   -0.4964    3.8062    7.3721 C   0  0  0  0  0  0  0  0  0  0  0  0
    0.5714    4.5748    6.9075 C   0  0  0  0  0  0  0  0  0  0  0  0
    1.8019    4.0175    6.6550 C   0  0  0  0  0  0  0  0  0  0  0  0
   -1.8257    4.4390    7.6317 C   0  0  0  0  0  0  0  0  0  0  0  0
    5.7276    5.4562    4.7491 B   0  0  1  0  0  0  0  0  0  0  0  0
    4.8005    0.7475    4.4566 Cl  0  0  0  0  0  0  0  0  0  0  0  0
    6.0428    1.5219    7.4823 Cl  0  0  0  0  0  0  0  0  0  0  0  0
    6.6719    3.1520    4.9263 N   0  0  1  0  0  0  0  0  0  0  0  0
    6.8441    4.4232    4.5353 N   0  0  0  0  0  0  0  0  0  0  0  0
    4.0009    3.7000    4.3230 N   0  0  1  0  0  0  0  0  0  0  0  0
    4.4792    4.9135    4.0335 N   0  0  0  0  0  0  0  0  0  0  0  0
    5.0678    4.3475    6.8914 N   0  0  2  0  0  0  0  0  0  0  0  0
    5.4184    5.4697    6.2558 N   0  0  0  0  0  0  0  0  0  0  0  0
    3.2140    2.0516    6.5995 N   0  0  0  0  0  0  0  0  0  0  0  0
    4.8756    2.5936    5.8253 Os  0  0  0  0  0  0  0  0  0  0  0  0
    7.8585    1.4322    4.8512 H   0  0  0  0  0  0  0  0  0  0  0  0
    9.6719    3.0929    3.6680 H   0  0  0  0  0  0  0  0  0  0  0  0
    8.3914    5.5046    3.6083 H   0  0  0  0  0  0  0  0  0  0  0  0
    2.4233    2.5383    3.5884 H   0  0  0  0  0  0  0  0  0  0  0  0
    1.9990    4.6852    1.9561 H   0  0  0  0  0  0  0  0  0  0  0  0
    3.9688    6.4350    2.6722 H   0  0  0  0  0  0  0  0  0  0  0  0
    4.6264    3.8716    8.8796 H   0  0  0  0  0  0  0  0  0  0  0  0
    5.1115    6.5254    9.3072 H   0  0  0  0  0  0  0  0  0  0  0  0
    5.7508    7.4680    6.8263 H   0  0  0  0  0  0  0  0  0  0  0  0
    1.0878    0.8142    7.5056 H   0  0  0  0  0  0  0  0  0  0  0  0
   -1.0946    1.8323    7.9490 H   0  0  0  0  0  0  0  0  0  0  0  0
    0.4246    5.6329    6.7429 H   0  0  0  0  0  0  0  0  0  0  0  0
    2.6075    4.6400    6.3016 H   0  0  0  0  0  0  0  0  0  0  0  0
   -2.5506    3.7031    7.9692 H   0  0  0  0  0  0  0  0  0  0  0  0
   -2.2036    4.9120    6.7258 H   0  0  0  0  0  0  0  0  0  0  0  0
   -1.7346    5.2134    8.3930 H   0  0  0  0  0  0  0  0  0  0  0  0
    6.0295    6.5261    4.3545 H   0  0  0  0  0  0  0  0  0  0  0  0
    3.1756    1.0498    6.8267 H   0  0  0  0  0  0  0  0  0  0  0  0
  1 28  1  0  0  0  0
  2  1  1  0  0  0  0
  3  2  2  0  0  0  0
  3 21  1  0  0  0  0
  4 31  1  0  0  0  0
  5  6  2  0  0  0  0
  5  4  1  0  0  0  0
  6 23  1  0  0  0  0
  7  8  1  0  0  0  0
  7 34  1  0  0  0  0
  8 35  1  0  0  0  0
  9  8  2  0  0  0  0
 10 11  1  0  0  0  0
 11 37  1  0  0  0  0
 11 12  2  0  0  0  0
 12 38  1  0  0  0  0
 13 12  1  0  0  0  0
 13 16  1  0  0  0  0
 14 13  2  0  0  0  0
 15 10  2  0  0  0  0
 15 14  1  0  0  0  0
 16 41  1  0  0  0  0
 16 43  1  0  0  0  0
 17 44  1  6  0  0  0
 17 25  1  0  0  0  0
 18 27  1  0  0  0  0
 20  1  1  6  0  0  0
 20 27  1  0  0  0  0
 21 17  1  0  0  0  0
 21 20  1  0  0  0  0
 22  4  1  1  0  0  0
 22 27  1  0  0  0  0
 23 22  1  0  0  0  0
 23 17  1  0  0  0  0
 24  7  1  6  0  0  0
 25 24  1  0  0  0  0
 25  9  1  0  0  0  0
 26 45  1  0  0  0  0
 26 10  1  0  0  0  0
 27 26  1  0  0  0  0
 27 24  1  0  0  0  0
 27 19  1  0  0  0  0
 29  2  1  0  0  0  0
 30  3  1  0  0  0  0
 32  5  1  0  0  0  0
 33  6  1  0  0  0  0
 36  9  1  0  0  0  0
 39 14  1  0  0  0  0
 40 15  1  0  0  0  0
 42 16  1  0  0  0  0
M  END
$$$$
