CSD_code = QOCSAC | q = 0 | S = 0 | Stoichiometry = C27H10B2Cl2F15N7Os | MND = 6
 OpenBabel04212202093D

 64 71  0  0  1  0  0  0  0  0999 V2000
   22.5174    4.1118    9.2656 C   0  0  0  0  0  3  0  0  0  0  0  0
   23.4417    4.5398   10.2132 C   0  0  0  0  0  0  0  0  0  0  0  0
   22.6954    4.7774   11.3514 C   0  0  0  0  0  0  0  0  0  0  0  0
   18.1216    6.3504    9.5709 C   0  0  0  0  0  3  0  0  0  0  0  0
   18.1238    7.3400   10.5486 C   0  0  0  0  0  0  0  0  0  0  0  0
   18.8195    6.7904   11.6077 C   0  0  0  0  0  0  0  0  0  0  0  0
   18.9187    1.3213   11.1083 C   0  0  0  0  0  3  0  0  0  0  0  0
   19.0555    1.0973   12.4739 C   0  0  0  0  0  0  0  0  0  0  0  0
   19.4580    2.3126   12.9943 C   0  0  0  0  0  0  0  0  0  0  0  0
   17.4726    2.6170    7.0860 C   0  0  0  0  0  0  0  0  0  0  0  0
   17.2980    3.4142    5.9507 C   0  0  0  0  0  0  0  0  0  0  0  0
   17.3678    2.8862    4.6683 C   0  0  0  0  0  0  0  0  0  0  0  0
   17.5972    1.5253    4.4916 C   0  0  0  0  0  0  0  0  0  0  0  0
   17.7279    0.6993    5.6050 C   0  0  0  0  0  0  0  0  0  0  0  0
   17.6524    1.2431    6.8796 C   0  0  0  0  0  0  0  0  0  0  0  0
   14.8929    3.3237    8.0623 C   0  0  0  0  0  0  0  0  0  0  0  0
   14.2948    2.1090    7.7481 C   0  0  0  0  0  0  0  0  0  0  0  0
   13.1556    2.0183    6.9548 C   0  0  0  0  0  0  0  0  0  0  0  0
   12.5822    3.1791    6.4460 C   0  0  0  0  0  0  0  0  0  0  0  0
   13.1618    4.4106    6.7332 C   0  0  0  0  0  0  0  0  0  0  0  0
   14.3022    4.4651    7.5297 C   0  0  0  0  0  0  0  0  0  0  0  0
   16.0450    3.7001   10.5111 C   0  0  0  0  0  0  0  0  0  0  0  0
   15.7850    4.9394   11.0843 C   0  0  0  0  0  0  0  0  0  0  0  0
   15.7569    5.1355   12.4625 C   0  0  0  0  0  0  0  0  0  0  0  0
   15.9346    4.0542   13.3169 C   0  0  0  0  0  0  0  0  0  0  0  0
   16.0894    2.7826   12.7759 C   0  0  0  0  0  0  0  0  0  0  0  0
   16.1316    2.6269   11.3944 C   0  0  0  0  0  0  0  0  0  0  0  0
   20.1651    4.6000   11.9847 B   0  0  1  0  0  0  0  0  0  0  0  0
   16.2221    3.4083    8.9509 B   0  0  0  0  0  0  0  0  0  0  0  0
   17.7379    0.4411    7.9445 F   0  0  0  0  0  0  0  0  0  0  0  0
   17.9113   -0.6109    5.4420 F   0  0  0  0  0  0  0  0  0  0  0  0
   17.6682    1.0117    3.2623 F   0  0  0  0  0  0  0  0  0  0  0  0
   17.1974    3.6776    3.6073 F   0  0  0  0  0  0  0  0  0  0  0  0
   17.0297    4.7167    6.1099 F   0  0  0  0  0  0  0  0  0  0  0  0
   15.5446    5.9990   10.3089 F   0  0  0  0  0  0  0  0  0  0  0  0
   15.5719    6.3606   12.9643 F   0  0  0  0  0  0  0  0  0  0  0  0
   15.9437    4.2311   14.6391 F   0  0  0  0  0  0  0  0  0  0  0  0
   16.2115    1.7251   13.5843 F   0  0  0  0  0  0  0  0  0  0  0  0
   16.2369    1.3882   10.9066 F   0  0  0  0  0  0  0  0  0  0  0  0
   14.8328    0.9763    8.2161 F   0  0  0  0  0  0  0  0  0  0  0  0
   12.6159    0.8289    6.6777 F   0  0  0  0  0  0  0  0  0  0  0  0
   11.4893    3.1108    5.6860 F   0  0  0  0  0  0  0  0  0  0  0  0
   12.6235    5.5296    6.2452 F   0  0  0  0  0  0  0  0  0  0  0  0
   14.8467    5.6602    7.7695 F   0  0  0  0  0  0  0  0  0  0  0  0
   20.3470    1.7352    8.1774 Cl  0  0  0  0  0  0  0  0  0  0  0  0
   19.8195    4.8431    7.2431 Cl  0  0  0  0  0  0  0  0  0  0  0  0
   21.3076    4.0993    9.8109 N   0  0  1  0  0  0  0  0  0  0  0  0
   21.4140    4.5045   11.0820 N   0  0  0  0  0  0  0  0  0  0  0  0
   18.7707    5.2820   10.0259 N   0  0  2  0  0  0  0  0  0  0  0  0
   19.2031    5.5536   11.2672 N   0  0  0  0  0  0  0  0  0  0  0  0
   19.2080    2.5927   10.8407 N   0  0  1  0  0  0  0  0  0  0  0  0
   19.5479    3.1954   11.9919 N   0  0  0  0  0  0  0  0  0  0  0  0
   17.4484    3.1344    8.3852 N   0  0  0  0  0  0  0  0  0  0  0  0
   19.4368    3.5917    9.0558 Os  0  0  0  0  0  0  0  0  0  0  0  0
   22.6709    3.8214    8.2444 H   0  0  0  0  0  0  0  0  0  0  0  0
   24.4969    4.6576   10.0852 H   0  0  0  0  0  0  0  0  0  0  0  0
   22.9988    5.1186   12.3200 H   0  0  0  0  0  0  0  0  0  0  0  0
   17.6748    6.3629    8.5949 H   0  0  0  0  0  0  0  0  0  0  0  0
   17.6728    8.3075   10.4906 H   0  0  0  0  0  0  0  0  0  0  0  0
   19.0584    7.2016   12.5671 H   0  0  0  0  0  0  0  0  0  0  0  0
   18.6219    0.6407   10.3333 H   0  0  0  0  0  0  0  0  0  0  0  0
   18.8807    0.1844   13.0023 H   0  0  0  0  0  0  0  0  0  0  0  0
   19.6820    2.5929   14.0033 H   0  0  0  0  0  0  0  0  0  0  0  0
   20.4331    4.9717   13.0685 H   0  0  0  0  0  0  0  0  0  0  0  0
  1  2  1  0  0  0  0
  2  3  2  0  0  0  0
  3 57  1  0  0  0  0
  4  5  1  0  0  0  0
  5  6  2  0  0  0  0
  6 60  1  0  0  0  0
  7  8  1  0  0  0  0
  8  9  2  0  0  0  0
  8 62  1  0  0  0  0
  9 63  1  0  0  0  0
 10 53  1  0  0  0  0
 11 34  1  0  0  0  0
 11 10  2  0  0  0  0
 12 11  1  0  0  0  0
 13 12  2  0  0  0  0
 13 14  1  0  0  0  0
 14 15  2  0  0  0  0
 15 10  1  0  0  0  0
 15 30  1  0  0  0  0
 16 29  1  0  0  0  0
 17 16  1  0  0  0  0
 17 40  1  0  0  0  0
 18 17  2  0  0  0  0
 19 20  2  0  0  0  0
 19 18  1  0  0  0  0
 20 21  1  0  0  0  0
 21 44  1  0  0  0  0
 21 16  2  0  0  0  0
 22 23  2  0  0  0  0
 22 27  1  0  0  0  0
 23 24  1  0  0  0  0
 24 36  1  0  0  0  0
 24 25  2  0  0  0  0
 25 37  1  0  0  0  0
 26 25  1  0  0  0  0
 26 38  1  0  0  0  0
 27 26  2  0  0  0  0
 28 52  1  0  0  0  0
 28 64  1  1  0  0  0
 29 22  1  0  0  0  0
 31 14  1  0  0  0  0
 32 13  1  0  0  0  0
 33 12  1  0  0  0  0
 35 23  1  0  0  0  0
 39 27  1  0  0  0  0
 41 18  1  0  0  0  0
 42 19  1  0  0  0  0
 43 20  1  0  0  0  0
 45 54  1  0  0  0  0
 46 54  1  0  0  0  0
 47  1  1  6  0  0  0
 47 48  1  0  0  0  0
 48  3  1  0  0  0  0
 48 28  1  0  0  0  0
 49  4  1  6  0  0  0
 49 50  1  0  0  0  0
 50  6  1  0  0  0  0
 50 28  1  0  0  0  0
 51  7  1  6  0  0  0
 51 52  1  0  0  0  0
 52  9  1  0  0  0  0
 53 29  1  0  0  0  0
 53 54  1  0  0  0  0
 54 47  1  0  0  0  0
 54 49  1  0  0  0  0
 54 51  1  0  0  0  0
 55  1  1  0  0  0  0
 56  2  1  0  0  0  0
 58  4  1  0  0  0  0
 59  5  1  0  0  0  0
 61  7  1  0  0  0  0
M  END
$$$$
