CSD_code = QOCZEN | q = -1 | S = 0 | Stoichiometry = C2H3Cl3NPt(1-) | MND = 4
 OpenBabel04212202093D

 10  9  0  0  0  0  0  0  0  0999 V2000
    8.9458    3.5013    1.7358 Pt  0  0  0  0  0  0  0  0  0  0  0  0
    9.0060    5.8233    1.6855 Cl  0  0  0  0  0  0  0  0  0  0  0  0
    8.9558    1.1758    1.6900 Cl  0  0  0  0  0  0  0  0  0  0  0  0
    7.6603    3.5164    3.5541 Cl  0  0  0  0  0  0  0  0  0  0  0  0
   10.6701    3.4337   -0.7111 C   0  0  0  0  0  2  0  0  0  0  0  0
   10.0067    3.4801    0.2334 N   0  0  0  0  0  2  0  0  0  0  0  0
   11.4986    3.3772   -1.8856 C   0  0  0  0  0  0  0  0  0  0  0  0
   10.8987    3.5922   -2.7707 H   0  0  0  0  0  0  0  0  0  0  0  0
   12.2983    4.1144   -1.8077 H   0  0  0  0  0  0  0  0  0  0  0  0
   11.9331    2.3813   -1.9795 H   0  0  0  0  0  0  0  0  0  0  0  0
  1  4  1  0  0  0  0
  2  1  1  0  0  0  0
  3  1  1  0  0  0  0
  5  6  1  0  0  0  0
  6  1  1  0  0  0  0
  7  9  1  0  0  0  0
  7  5  1  0  0  0  0
  8  7  1  0  0  0  0
 10  7  1  0  0  0  0
M  END
$$$$
