CSD_code = QODCAO | q = 1 | S = 0 | Stoichiometry = C24H16Cl2CoN4(1+) | MND = 6
 OpenBabel04212202093D

 47 54  0  0  0  0  0  0  0  0999 V2000
    4.2255    1.2556   11.9755 Co  0  0  0  0  0  0  0  0  0  0  0  0
    3.4528    1.8441   10.0329 Cl  0  0  0  0  0  0  0  0  0  0  0  0
    4.9639   -0.6452   11.2267 Cl  0  0  0  0  0  0  0  0  0  0  0  0
    2.6521    0.2899   12.4492 N   0  0  0  0  0  0  0  0  0  0  0  0
    4.8953    0.7097   13.7365 N   0  0  0  0  0  0  0  0  0  0  0  0
    3.5822    2.9861   12.6401 N   0  0  0  0  0  0  0  0  0  0  0  0
    5.7983    2.2102   11.4772 N   0  0  0  0  0  0  0  0  0  0  0  0
    1.5508    0.0772   11.7525 C   0  0  0  0  0  0  0  0  0  0  0  0
    1.4596    0.6023   10.8110 H   0  0  0  0  0  0  0  0  0  0  0  0
    0.5471   -0.7942   12.1862 C   0  0  0  0  0  0  0  0  0  0  0  0
   -0.3261   -0.9307   11.5685 H   0  0  0  0  0  0  0  0  0  0  0  0
    0.6879   -1.4707   13.3749 C   0  0  0  0  0  0  0  0  0  0  0  0
   -0.0691   -2.1565   13.7233 H   0  0  0  0  0  0  0  0  0  0  0  0
    1.8531   -1.2670   14.1340 C   0  0  0  0  0  0  0  0  0  0  0  0
    2.1326   -1.9214   15.3699 C   0  0  0  0  0  0  0  0  0  0  0  0
    1.3936   -2.6043   15.7598 H   0  0  0  0  0  0  0  0  0  0  0  0
    3.2959   -1.7077   16.0345 C   0  0  0  0  0  0  0  0  0  0  0  0
    3.5013   -2.2173   16.9632 H   0  0  0  0  0  0  0  0  0  0  0  0
    4.2861   -0.8180   15.5245 C   0  0  0  0  0  0  0  0  0  0  0  0
    5.5252   -0.5734   16.1388 C   0  0  0  0  0  0  0  0  0  0  0  0
    5.7780   -1.0727   17.0616 H   0  0  0  0  0  0  0  0  0  0  0  0
    6.4021    0.2991   15.5371 C   0  0  0  0  0  0  0  0  0  0  0  0
    7.3652    0.5077   15.9745 H   0  0  0  0  0  0  0  0  0  0  0  0
    6.0511    0.9211   14.3366 C   0  0  0  0  0  0  0  0  0  0  0  0
    6.7419    1.6027   13.8604 H   0  0  0  0  0  0  0  0  0  0  0  0
    4.0266   -0.1438   14.3145 C   0  0  0  0  0  0  0  0  0  0  0  0
    2.8079   -0.3701   13.6173 C   0  0  0  0  0  0  0  0  0  0  0  0
    2.4399    3.3395   13.1977 C   0  0  0  0  0  0  0  0  0  0  0  0
    1.7455    2.5512   13.4524 H   0  0  0  0  0  0  0  0  0  0  0  0
    2.1078    4.6713   13.4575 C   0  0  0  0  0  0  0  0  0  0  0  0
    1.1554    4.8965   13.9098 H   0  0  0  0  0  0  0  0  0  0  0  0
    2.9894    5.6743   13.1272 C   0  0  0  0  0  0  0  0  0  0  0  0
    2.7510    6.7110   13.3099 H   0  0  0  0  0  0  0  0  0  0  0  0
    4.2137    5.3295   12.5319 C   0  0  0  0  0  0  0  0  0  0  0  0
    5.2062    6.2700   12.1284 C   0  0  0  0  0  0  0  0  0  0  0  0
    5.0146    7.3172   12.3046 H   0  0  0  0  0  0  0  0  0  0  0  0
    6.3545    5.8676   11.5282 C   0  0  0  0  0  0  0  0  0  0  0  0
    7.0952    6.5885   11.2175 H   0  0  0  0  0  0  0  0  0  0  0  0
    6.6158    4.4885   11.2758 C   0  0  0  0  0  0  0  0  0  0  0  0
    7.7653    4.0054   10.6272 C   0  0  0  0  0  0  0  0  0  0  0  0
    8.5233    4.6953   10.2886 H   0  0  0  0  0  0  0  0  0  0  0  0
    7.8900    2.6511   10.4255 C   0  0  0  0  0  0  0  0  0  0  0  0
    8.7510    2.2406    9.9230 H   0  0  0  0  0  0  0  0  0  0  0  0
    6.8852    1.7822   10.8619 C   0  0  0  0  0  0  0  0  0  0  0  0
    6.9638    0.7162   10.6946 H   0  0  0  0  0  0  0  0  0  0  0  0
    5.6587    3.5380   11.6802 C   0  0  0  0  0  0  0  0  0  0  0  0
    4.4551    3.9589   12.3101 C   0  0  0  0  0  0  0  0  0  0  0  0
  1  4  1  0  0  0  0
  1  6  1  0  0  0  0
  1  5  1  0  0  0  0
  2  1  1  0  0  0  0
  3  1  1  0  0  0  0
  4 27  1  0  0  0  0
  5 26  1  0  0  0  0
  5 24  1  0  0  0  0
  6 28  1  0  0  0  0
  7 46  1  0  0  0  0
  7  1  1  0  0  0  0
  8 10  2  0  0  0  0
  8  4  1  0  0  0  0
  9  8  1  0  0  0  0
 10 12  1  0  0  0  0
 11 10  1  0  0  0  0
 12 13  1  0  0  0  0
 12 14  2  0  0  0  0
 14 15  1  0  0  0  0
 15 16  1  0  0  0  0
 15 17  2  0  0  0  0
 17 18  1  0  0  0  0
 19 17  1  0  0  0  0
 19 20  2  0  0  0  0
 20 21  1  0  0  0  0
 22 23  1  0  0  0  0
 22 20  1  0  0  0  0
 24 22  2  0  0  0  0
 25 24  1  0  0  0  0
 26 19  1  0  0  0  0
 27 14  1  0  0  0  0
 27 26  2  0  0  0  0
 28 29  1  0  0  0  0
 28 30  2  0  0  0  0
 30 31  1  0  0  0  0
 32 33  1  0  0  0  0
 32 30  1  0  0  0  0
 34 32  2  0  0  0  0
 35 36  1  0  0  0  0
 35 34  1  0  0  0  0
 37 35  2  0  0  0  0
 38 37  1  0  0  0  0
 39 37  1  0  0  0  0
 39 46  1  0  0  0  0
 40 39  2  0  0  0  0
 41 40  1  0  0  0  0
 42 40  1  0  0  0  0
 42 44  2  0  0  0  0
 43 42  1  0  0  0  0
 44  7  1  0  0  0  0
 45 44  1  0  0  0  0
 46 47  2  0  0  0  0
 47 34  1  0  0  0  0
 47  6  1  0  0  0  0
M  END
$$$$
