CSD_code = QODJOI | q = 0 | S = 0 | Stoichiometry = C24H23IN2O4Pd | MND = 4
 OpenBabel04212202093D

 55 58  0  0  1  0  0  0  0  0999 V2000
    5.8692   -5.6386   -6.3621 I   0  0  0  0  0  0  0  0  0  0  0  0
    3.3652   -5.1032   -6.2531 Pd  0  0  1  0  0  0  0  0  0  0  0  0
    2.8605   -6.5857   -8.5323 O   0  0  0  0  0  0  0  0  0  0  0  0
    3.7592   -8.5501   -7.8992 O   0  0  0  0  0  0  0  0  0  0  0  0
    2.0093  -10.1417   -4.9863 O   0  0  0  0  0  0  0  0  0  0  0  0
    1.2458   -9.1192   -6.8353 O   0  0  0  0  0  0  0  0  0  0  0  0
    3.5115   -2.9992   -6.3093 N   0  0  0  0  0  0  0  0  0  0  0  0
    1.3601   -4.5956   -6.5240 N   0  0  0  0  0  0  0  0  0  0  0  0
    2.9696   -7.0365   -6.2477 C   0  0  0  0  0  0  0  0  0  0  0  0
    3.1695   -7.3821   -7.6544 C   0  0  0  0  0  0  0  0  0  0  0  0
    4.0873   -8.8058   -9.2562 C   0  0  0  0  0  0  0  0  0  0  0  0
    2.3881   -7.7867   -5.2972 C   0  0  2  0  0  3  0  0  0  0  0  0
    1.8885   -9.1449   -5.6479 C   0  0  0  0  0  0  0  0  0  0  0  0
    0.8300  -10.3785   -7.3404 C   0  0  0  0  0  0  0  0  0  0  0  0
    2.1517   -7.2819   -3.9360 C   0  0  0  0  0  0  0  0  0  0  0  0
    2.8976   -6.2102   -3.4368 C   0  0  0  0  0  0  0  0  0  0  0  0
    2.6257   -5.6679   -2.1909 C   0  0  0  0  0  0  0  0  0  0  0  0
    1.6027   -6.2135   -1.4256 C   0  0  0  0  0  0  0  0  0  0  0  0
    0.8624   -7.2932   -1.8872 C   0  0  0  0  0  0  0  0  0  0  0  0
    1.1364   -7.8131   -3.1441 C   0  0  0  0  0  0  0  0  0  0  0  0
    3.4521   -4.5275   -1.6763 C   0  0  0  0  0  0  0  0  0  0  0  0
   -0.2405   -7.8755   -1.0550 C   0  0  0  0  0  0  0  0  0  0  0  0
    4.5608   -2.2465   -5.9965 C   0  0  0  0  0  0  0  0  0  0  0  0
    4.4944   -0.8662   -5.9132 C   0  0  0  0  0  0  0  0  0  0  0  0
    3.2800   -0.2424   -6.1564 C   0  0  0  0  0  0  0  0  0  0  0  0
    2.1853   -1.0227   -6.4809 C   0  0  0  0  0  0  0  0  0  0  0  0
    2.3304   -2.4074   -6.5592 C   0  0  0  0  0  0  0  0  0  0  0  0
    1.2138   -3.3065   -6.8835 C   0  0  0  0  0  0  0  0  0  0  0  0
    0.0626   -2.8603   -7.5315 C   0  0  0  0  0  0  0  0  0  0  0  0
   -0.9608   -3.7523   -7.7909 C   0  0  0  0  0  0  0  0  0  0  0  0
   -0.8098   -5.0696   -7.3850 C   0  0  0  0  0  0  0  0  0  0  0  0
    0.3683   -5.4471   -6.7643 C   0  0  0  0  0  0  0  0  0  0  0  0
    5.4943   -2.7661   -5.8137 H   0  0  0  0  0  0  0  0  0  0  0  0
    5.3754   -0.2991   -5.6604 H   0  0  0  0  0  0  0  0  0  0  0  0
    3.1853    0.8308   -6.0911 H   0  0  0  0  0  0  0  0  0  0  0  0
    1.2249   -0.5646   -6.6535 H   0  0  0  0  0  0  0  0  0  0  0  0
   -0.0169   -1.8345   -7.8537 H   0  0  0  0  0  0  0  0  0  0  0  0
   -1.8542   -3.4273   -8.3017 H   0  0  0  0  0  0  0  0  0  0  0  0
   -1.5836   -5.7998   -7.5575 H   0  0  0  0  0  0  0  0  0  0  0  0
    0.5170   -6.4719   -6.4493 H   0  0  0  0  0  0  0  0  0  0  0  0
    3.7576   -5.8249   -3.9956 H   0  0  0  0  0  0  0  0  0  0  0  0
    1.3873   -5.7978   -0.4510 H   0  0  0  0  0  0  0  0  0  0  0  0
    0.5532   -8.6461   -3.5069 H   0  0  0  0  0  0  0  0  0  0  0  0
    4.6316   -9.7467   -9.2645 H   0  0  0  0  0  0  0  0  0  0  0  0
    3.1791   -8.8772   -9.8592 H   0  0  0  0  0  0  0  0  0  0  0  0
    4.7108   -7.9992   -9.6481 H   0  0  0  0  0  0  0  0  0  0  0  0
    0.2166  -10.8999   -6.6021 H   0  0  0  0  0  0  0  0  0  0  0  0
    0.2562  -10.1730   -8.2408 H   0  0  0  0  0  0  0  0  0  0  0  0
    1.7012  -10.9943   -7.5725 H   0  0  0  0  0  0  0  0  0  0  0  0
    2.8690   -3.8864   -1.0182 H   0  0  0  0  0  0  0  0  0  0  0  0
    4.3013   -4.9114   -1.1099 H   0  0  0  0  0  0  0  0  0  0  0  0
    3.8411   -3.9321   -2.5017 H   0  0  0  0  0  0  0  0  0  0  0  0
   -0.0679   -7.6905    0.0025 H   0  0  0  0  0  0  0  0  0  0  0  0
   -1.1950   -7.4226   -1.3268 H   0  0  0  0  0  0  0  0  0  0  0  0
   -0.3183   -8.9477   -1.2181 H   0  0  0  0  0  0  0  0  0  0  0  0
  2  1  1  6  0  0  0
  2  9  2  0  0  0  0
  3 10  2  0  0  0  0
  4 10  1  0  0  0  0
  6 13  1  0  0  0  0
  7  2  1  0  0  0  0
  7 23  1  0  0  0  0
  8  2  1  0  0  0  0
 10  9  1  0  0  0  0
 11  4  1  0  0  0  0
 12  9  1  6  0  0  0
 12 15  1  0  0  0  0
 13 12  1  0  0  0  0
 13  5  2  0  0  0  0
 14  6  1  0  0  0  0
 14 47  1  0  0  0  0
 15 16  2  0  0  0  0
 15 20  1  0  0  0  0
 16 17  1  0  0  0  0
 17 21  1  0  0  0  0
 17 18  2  0  0  0  0
 18 42  1  0  0  0  0
 19 18  1  0  0  0  0
 19 22  1  0  0  0  0
 20 19  2  0  0  0  0
 21 51  1  0  0  0  0
 21 50  1  0  0  0  0
 22 53  1  0  0  0  0
 23 24  2  0  0  0  0
 23 33  1  0  0  0  0
 24 34  1  0  0  0  0
 25 35  1  0  0  0  0
 25 24  1  0  0  0  0
 26 25  2  0  0  0  0
 27 26  1  0  0  0  0
 27  7  1  0  0  0  0
 28 27  2  0  0  0  0
 28  8  1  0  0  0  0
 29 28  1  0  0  0  0
 30 29  2  0  0  0  0
 30 31  1  0  0  0  0
 31 32  2  0  0  0  0
 32  8  1  0  0  0  0
 32 40  1  0  0  0  0
 36 26  1  0  0  0  0
 37 29  1  0  0  0  0
 38 30  1  0  0  0  0
 39 31  1  0  0  0  0
 41 16  1  0  0  0  0
 43 20  1  0  0  0  0
 44 11  1  0  0  0  0
 45 11  1  0  0  0  0
 46 11  1  0  0  0  0
 48 14  1  0  0  0  0
 49 14  1  0  0  0  0
 52 21  1  0  0  0  0
 54 22  1  0  0  0  0
 55 22  1  0  0  0  0
M  END
$$$$
