CSD_code = QODLIH | q = 0 | S = 0 | Stoichiometry = C14H16Cl2N2OZn | MND = 4
 OpenBabel04212202093D

 36 38  0  0  0  0  0  0  0  0999 V2000
    5.6805    2.0121    6.5605 Zn  0  0  0  0  0  0  0  0  0  0  0  0
    5.1173    3.1204    8.3924 Cl  0  0  0  0  0  0  0  0  0  0  0  0
    6.8653    0.2436    6.0109 Cl  0  0  0  0  0  0  0  0  0  0  0  0
    3.8531    1.9801    5.4513 N   0  0  0  0  0  0  0  0  0  0  0  0
    5.9419    3.7388    5.1883 N   0  0  0  0  0  4  0  0  0  0  0  0
    9.9565    6.8175    7.5709 O   0  0  0  0  0  0  0  0  0  0  0  0
    2.9908    0.9856    5.2932 C   0  0  0  0  0  3  0  0  0  0  0  0
    3.2921    0.0307    5.7000 H   0  0  0  0  0  0  0  0  0  0  0  0
    1.7811    1.1499    4.6421 C   0  0  0  0  0  0  0  0  0  0  0  0
    1.1055    0.3177    4.5315 H   0  0  0  0  0  0  0  0  0  0  0  0
    1.4670    2.4046    4.1413 C   0  0  0  0  0  0  0  0  0  0  0  0
    0.5326    2.5757    3.6286 H   0  0  0  0  0  0  0  0  0  0  0  0
    2.3757    3.4361    4.3031 C   0  0  0  0  0  0  0  0  0  0  0  0
    2.1670    4.4238    3.9223 H   0  0  0  0  0  0  0  0  0  0  0  0
    3.5703    3.1858    4.9688 C   0  0  0  0  0  0  0  0  0  0  0  0
    4.5824    4.2699    5.2107 C   0  0  0  0  0  0  0  0  0  0  0  0
    4.4412    5.0722    4.4732 H   0  0  0  0  0  0  0  0  0  0  0  0
    4.3991    4.6615    6.2178 H   0  0  0  0  0  0  0  0  0  0  0  0
    6.3369    3.4097    3.8169 C   0  0  0  0  0  0  0  0  0  0  0  0
    6.3586    4.3089    3.1893 H   0  0  0  0  0  0  0  0  0  0  0  0
    5.6332    2.6945    3.3937 H   0  0  0  0  0  0  0  0  0  0  0  0
    7.3249    2.9564    3.8198 H   0  0  0  0  0  0  0  0  0  0  0  0
    6.9274    4.6013    5.7922 C   0  0  0  0  0  0  0  0  0  0  0  0
    6.7522    5.9635    5.9663 C   0  0  0  0  0  0  0  0  0  0  0  0
    5.8445    6.4564    5.6561 H   0  0  0  0  0  0  0  0  0  0  0  0
    7.7376    6.7364    6.5631 C   0  0  0  0  0  0  0  0  0  0  0  0
    7.5547    7.7911    6.6934 H   0  0  0  0  0  0  0  0  0  0  0  0
    8.9268    6.1559    6.9834 C   0  0  0  0  0  0  0  0  0  0  0  0
    9.1083    4.7830    6.7950 C   0  0  0  0  0  0  0  0  0  0  0  0
   10.0301    4.3350    7.1284 H   0  0  0  0  0  0  0  0  0  0  0  0
    8.1235    4.0216    6.2108 C   0  0  0  0  0  0  0  0  0  0  0  0
    8.2770    2.9584    6.0817 H   0  0  0  0  0  0  0  0  0  0  0  0
    9.8163    8.1948    7.8238 C   0  0  0  0  0  0  0  0  0  0  0  0
    9.6942    8.7641    6.8960 H   0  0  0  0  0  0  0  0  0  0  0  0
   10.7399    8.4997    8.3127 H   0  0  0  0  0  0  0  0  0  0  0  0
    8.9706    8.3964    8.4888 H   0  0  0  0  0  0  0  0  0  0  0  0
  1  2  1  0  0  0  0
  3  1  1  0  0  0  0
  4  1  1  0  0  0  0
  5 16  1  0  0  0  0
  5 23  1  0  0  0  0
  5  1  1  0  0  0  0
  6 33  1  0  0  0  0
  7  4  1  0  0  0  0
  7  8  1  0  0  0  0
  9  7  1  0  0  0  0
 10  9  1  0  0  0  0
 11 13  1  0  0  0  0
 11  9  2  0  0  0  0
 12 11  1  0  0  0  0
 13 15  2  0  0  0  0
 14 13  1  0  0  0  0
 15 16  1  0  0  0  0
 15  4  1  0  0  0  0
 16 18  1  0  0  0  0
 17 16  1  0  0  0  0
 19 22  1  0  0  0  0
 19  5  1  0  0  0  0
 20 19  1  0  0  0  0
 21 19  1  0  0  0  0
 23 24  2  0  0  0  0
 23 31  1  0  0  0  0
 24 26  1  0  0  0  0
 25 24  1  0  0  0  0
 26 27  1  0  0  0  0
 26 28  2  0  0  0  0
 28  6  1  0  0  0  0
 29 28  1  0  0  0  0
 29 30  1  0  0  0  0
 31 29  2  0  0  0  0
 32 31  1  0  0  0  0
 33 35  1  0  0  0  0
 33 36  1  0  0  0  0
 34 33  1  0  0  0  0
M  END
$$$$
