CSD_code = QODLED | q = 0 | S = 0 | Stoichiometry = C26H28Cl2N4O2Zn | MND = 6
 OpenBabel04212202093D

 63 68  0  0  0  0  0  0  0  0999 V2000
    2.9940    7.2985    6.1080 Zn  0  0  0  0  0  0  0  0  0  0  0  0
    4.5464    6.7583    4.4683 Cl  0  0  0  0  0  0  0  0  0  0  0  0
    3.9161    5.8561    7.4879 N   0  0  0  0  0  0  0  0  0  0  0  0
    4.6661    8.4262    7.1892 N   0  0  0  0  0  4  0  0  0  0  0  0
    5.4206    7.9663    6.6819 H   0  0  0  0  0  0  0  0  0  0  0  0
    4.9549   13.8779    6.0753 O   0  0  0  0  0  0  0  0  0  0  0  0
    3.8050    4.5365    7.4406 C   0  0  0  0  0  3  0  0  0  0  0  0
    3.3762    4.1293    6.5381 H   0  0  0  0  0  0  0  0  0  0  0  0
    4.2176    3.7133    8.4730 C   0  0  0  0  0  0  0  0  0  0  0  0
    4.0988    2.6448    8.3948 H   0  0  0  0  0  0  0  0  0  0  0  0
    4.7777    4.2963    9.5993 C   0  0  0  0  0  0  0  0  0  0  0  0
    5.1071    3.6907   10.4305 H   0  0  0  0  0  0  0  0  0  0  0  0
    4.9183    5.6717    9.6338 C   0  0  0  0  0  0  0  0  0  0  0  0
    5.3616    6.1643   10.4856 H   0  0  0  0  0  0  0  0  0  0  0  0
    4.4748    6.4239    8.5512 C   0  0  0  0  0  0  0  0  0  0  0  0
    4.5797    7.9201    8.5501 C   0  0  0  0  0  0  0  0  0  0  0  0
    3.6513    8.2963    8.9956 H   0  0  0  0  0  0  0  0  0  0  0  0
    5.4295    8.2452    9.1674 H   0  0  0  0  0  0  0  0  0  0  0  0
    4.7531    9.8215    6.9961 C   0  0  0  0  0  0  0  0  0  0  0  0
    4.1493   10.7391    7.8451 C   0  0  0  0  0  0  0  0  0  0  0  0
    3.6071   10.4090    8.7163 H   0  0  0  0  0  0  0  0  0  0  0  0
    4.1971   12.0981    7.5717 C   0  0  0  0  0  0  0  0  0  0  0  0
    3.7117   12.7768    8.2548 H   0  0  0  0  0  0  0  0  0  0  0  0
    4.8534   12.5647    6.4409 C   0  0  0  0  0  0  0  0  0  0  0  0
    5.4628   11.6436    5.5866 C   0  0  0  0  0  0  0  0  0  0  0  0
    5.9704   12.0128    4.7100 H   0  0  0  0  0  0  0  0  0  0  0  0
    5.4185   10.2966    5.8639 C   0  0  0  0  0  0  0  0  0  0  0  0
    5.8772    9.5914    5.1865 H   0  0  0  0  0  0  0  0  0  0  0  0
    4.3801   14.8497    6.9126 C   0  0  0  0  0  0  0  0  0  0  0  0
    3.2960   14.7194    6.9981 H   0  0  0  0  0  0  0  0  0  0  0  0
    4.5901   15.8080    6.4400 H   0  0  0  0  0  0  0  0  0  0  0  0
    4.8265   14.8352    7.9125 H   0  0  0  0  0  0  0  0  0  0  0  0
    1.4414    7.8387    7.7475 Cl  0  0  0  0  0  0  0  0  0  0  0  0
    2.0718    8.7409    4.7280 N   0  0  0  0  0  0  0  0  0  0  0  0
    1.3218    6.1708    5.0267 N   0  0  0  0  0  4  0  0  0  0  0  0
    0.5674    6.6307    5.5341 H   0  0  0  0  0  0  0  0  0  0  0  0
    1.0331    0.7191    6.1407 O   0  0  0  0  0  0  0  0  0  0  0  0
    2.1829   10.0605    4.7753 C   0  0  0  0  0  3  0  0  0  0  0  0
    2.6117   10.4677    5.6778 H   0  0  0  0  0  0  0  0  0  0  0  0
    1.7703   10.8837    3.7430 C   0  0  0  0  0  0  0  0  0  0  0  0
    1.8892   11.9522    3.8212 H   0  0  0  0  0  0  0  0  0  0  0  0
    1.2103   10.3007    2.6166 C   0  0  0  0  0  0  0  0  0  0  0  0
    0.8808   10.9063    1.7854 H   0  0  0  0  0  0  0  0  0  0  0  0
    1.0697    8.9253    2.5822 C   0  0  0  0  0  0  0  0  0  0  0  0
    0.6263    8.4327    1.7303 H   0  0  0  0  0  0  0  0  0  0  0  0
    1.5131    8.1731    3.6648 C   0  0  0  0  0  0  0  0  0  0  0  0
    1.4082    6.6769    3.6658 C   0  0  0  0  0  0  0  0  0  0  0  0
    2.3366    6.3007    3.2203 H   0  0  0  0  0  0  0  0  0  0  0  0
    0.5584    6.3518    3.0485 H   0  0  0  0  0  0  0  0  0  0  0  0
    1.2348    4.7756    5.2199 C   0  0  0  0  0  0  0  0  0  0  0  0
    1.8386    3.8579    4.3708 C   0  0  0  0  0  0  0  0  0  0  0  0
    2.3808    4.1880    3.4997 H   0  0  0  0  0  0  0  0  0  0  0  0
    1.7908    2.4989    4.6443 C   0  0  0  0  0  0  0  0  0  0  0  0
    2.2762    1.8202    3.9611 H   0  0  0  0  0  0  0  0  0  0  0  0
    1.1345    2.0323    5.7750 C   0  0  0  0  0  0  0  0  0  0  0  0
    0.5251    2.9534    6.6294 C   0  0  0  0  0  0  0  0  0  0  0  0
    0.0175    2.5842    7.5060 H   0  0  0  0  0  0  0  0  0  0  0  0
    0.5694    4.3004    6.3521 C   0  0  0  0  0  0  0  0  0  0  0  0
    0.1107    5.0056    7.0295 H   0  0  0  0  0  0  0  0  0  0  0  0
    1.6078   -0.2527    5.3034 C   0  0  0  0  0  0  0  0  0  0  0  0
    2.6919   -0.1225    5.2178 H   0  0  0  0  0  0  0  0  0  0  0  0
    1.3978   -1.2110    5.7760 H   0  0  0  0  0  0  0  0  0  0  0  0
    1.1614   -0.2382    4.3035 H   0  0  0  0  0  0  0  0  0  0  0  0
  1  4  1  0  0  0  0
  1  3  1  0  0  0  0
  1 33  1  0  0  0  0
  2  1  1  0  0  0  0
  3 15  1  0  0  0  0
  4 16  1  0  0  0  0
  5  4  1  0  0  0  0
  6 24  1  0  0  0  0
  6 29  1  0  0  0  0
  7  3  1  0  0  0  0
  7  9  1  0  0  0  0
  8  7  1  0  0  0  0
  9 11  2  0  0  0  0
 10  9  1  0  0  0  0
 11 13  1  0  0  0  0
 11 12  1  0  0  0  0
 13 14  1  0  0  0  0
 15 13  2  0  0  0  0
 16 15  1  0  0  0  0
 16 17  1  0  0  0  0
 16 18  1  0  0  0  0
 19  4  1  0  0  0  0
 19 20  1  0  0  0  0
 20 21  1  0  0  0  0
 22 20  2  0  0  0  0
 22 23  1  0  0  0  0
 24 22  1  0  0  0  0
 25 27  1  0  0  0  0
 25 24  2  0  0  0  0
 26 25  1  0  0  0  0
 27 19  2  0  0  0  0
 28 27  1  0  0  0  0
 29 30  1  0  0  0  0
 29 32  1  0  0  0  0
 31 29  1  0  0  0  0
 34 38  1  0  0  0  0
 34  1  1  0  0  0  0
 35 50  1  0  0  0  0
 35 36  1  0  0  0  0
 35  1  1  0  0  0  0
 38 39  1  0  0  0  0
 40 41  1  0  0  0  0
 40 38  1  0  0  0  0
 42 40  2  0  0  0  0
 43 42  1  0  0  0  0
 44 42  1  0  0  0  0
 44 46  2  0  0  0  0
 45 44  1  0  0  0  0
 46 47  1  0  0  0  0
 46 34  1  0  0  0  0
 47 35  1  0  0  0  0
 48 47  1  0  0  0  0
 49 47  1  0  0  0  0
 50 58  1  0  0  0  0
 51 53  1  0  0  0  0
 51 50  2  0  0  0  0
 52 51  1  0  0  0  0
 53 55  2  0  0  0  0
 54 53  1  0  0  0  0
 55 37  1  0  0  0  0
 55 56  1  0  0  0  0
 56 57  1  0  0  0  0
 58 56  2  0  0  0  0
 58 59  1  0  0  0  0
 60 62  1  0  0  0  0
 60 37  1  0  0  0  0
 61 60  1  0  0  0  0
 63 60  1  0  0  0  0
M  END
$$$$
