CSD_code = QODRAF | q = 0 | S = 0 | Stoichiometry = C30H14ClF7N2Pt | MND = 6
 OpenBabel04212202093D

 55 62  0  0  1  0  0  0  0  0999 V2000
    0.1551    2.2920    6.2534 C   0  0  0  0  0  0  0  0  0  0  0  0
    1.0377    2.6948    5.7737 H   0  0  0  0  0  0  0  0  0  0  0  0
   -0.6425    1.3637    5.5870 C   0  0  0  0  0  0  0  0  0  0  0  0
   -0.3714    1.0504    4.5914 H   0  0  0  0  0  0  0  0  0  0  0  0
   -1.7623    0.8619    6.2118 C   0  0  0  0  0  0  0  0  0  0  0  0
   -2.3993    0.1428    5.7181 H   0  0  0  0  0  0  0  0  0  0  0  0
   -2.0671    1.2858    7.5116 C   0  0  0  0  0  0  0  0  0  0  0  0
   -1.1996    2.2253    8.1130 C   0  0  0  0  0  0  0  0  0  0  0  0
   -3.1831    0.8161    8.2619 C   0  0  0  0  0  0  0  0  0  0  0  0
   -3.8518    0.1114    7.7904 H   0  0  0  0  0  0  0  0  0  0  0  0
   -3.3883    1.2273    9.5371 C   0  0  0  0  0  0  0  0  0  0  0  0
   -4.2293    0.8527   10.1023 H   0  0  0  0  0  0  0  0  0  0  0  0
   -2.5036    2.1394   10.1836 C   0  0  0  0  0  0  0  0  0  0  0  0
   -1.4132    2.6618    9.4523 C   0  0  0  0  0  0  0  0  0  0  0  0
   -2.6457    2.5227   11.5239 C   0  0  0  0  0  0  0  0  0  0  0  0
   -3.4768    2.1426   12.0991 H   0  0  0  0  0  0  0  0  0  0  0  0
   -1.7132    3.3490   12.1017 C   0  0  0  0  0  0  0  0  0  0  0  0
   -1.8056    3.6184   13.1434 H   0  0  0  0  0  0  0  0  0  0  0  0
   -0.6301    3.8527   11.3709 C   0  0  0  0  0  0  0  0  0  0  0  0
    0.0879    4.4719   11.8866 H   0  0  0  0  0  0  0  0  0  0  0  0
   -0.4860    3.5493   10.0366 C   0  0  1  0  0  3  0  0  0  0  0  0
    3.5591    3.7688    6.9600 C   0  0  0  0  0  3  0  0  0  0  0  0
    3.6492    2.8384    7.5066 H   0  0  0  0  0  0  0  0  0  0  0  0
    4.5761    4.2391    6.1464 C   0  0  0  0  0  0  0  0  0  0  0  0
    5.4844    3.6716    6.0295 H   0  0  0  0  0  0  0  0  0  0  0  0
    4.3967    5.4601    5.5160 C   0  0  0  0  0  0  0  0  0  0  0  0
    5.1770    5.8805    4.8996 H   0  0  0  0  0  0  0  0  0  0  0  0
    3.2023    6.1422    5.6765 C   0  0  0  0  0  0  0  0  0  0  0  0
    3.0585    7.0898    5.1876 H   0  0  0  0  0  0  0  0  0  0  0  0
    2.2062    5.5934    6.4837 C   0  0  0  0  0  0  0  0  0  0  0  0
    0.8643    6.1519    6.6910 C   0  0  0  0  0  0  0  0  0  0  0  0
    0.2949    7.1566    5.9046 C   0  0  0  0  0  0  0  0  0  0  0  0
   -1.0018    7.5946    6.0840 C   0  0  0  0  0  0  0  0  0  0  0  0
   -1.4108    8.3697    5.4572 H   0  0  0  0  0  0  0  0  0  0  0  0
   -1.7516    7.0011    7.0824 C   0  0  0  0  0  0  0  0  0  0  0  0
   -1.2351    6.0025    7.8906 C   0  0  0  0  0  0  0  0  0  0  0  0
   -1.8567    5.5848    8.6678 H   0  0  0  0  0  0  0  0  0  0  0  0
    0.0706    5.5808    7.7081 C   0  0  0  0  0  0  0  0  0  0  0  0
    1.9274    5.3654    9.9343 C   0  0  0  0  0  0  0  0  0  0  0  0
    3.3019    5.3109   10.1669 C   0  0  0  0  0  0  0  0  0  0  0  0
    3.9803    6.1985   10.9990 C   0  0  0  0  0  0  0  0  0  0  0  0
    3.2858    7.2091   11.6485 C   0  0  0  0  0  0  0  0  0  0  0  0
    1.9171    7.3130   11.4363 C   0  0  0  0  0  0  0  0  0  0  0  0
    1.2765    6.4089   10.5954 C   0  0  0  0  0  0  0  0  0  0  0  0
    2.0272    2.0547    9.5579 Cl  0  0  0  0  0  0  0  0  0  0  0  0
   -3.0219    7.3984    7.2581 F   0  0  0  0  0  0  0  0  0  0  0  0
    0.9917    7.7276    4.8997 F   0  0  0  0  0  0  0  0  0  0  0  0
    4.0561    4.3839    9.5569 F   0  0  0  0  0  0  0  0  0  0  0  0
    5.3043    6.0838   11.1616 F   0  0  0  0  0  0  0  0  0  0  0  0
    3.9204    8.0704   12.4494 F   0  0  0  0  0  0  0  0  0  0  0  0
    1.2178    8.2853   12.0356 F   0  0  0  0  0  0  0  0  0  0  0  0
   -0.0492    6.5836   10.4314 F   0  0  0  0  0  0  0  0  0  0  0  0
   -0.1191    2.7136    7.4725 N   0  0  0  0  0  0  0  0  0  0  0  0
    2.4280    4.4343    7.1289 N   0  0  0  0  0  0  0  0  0  0  0  0
    0.9577    4.0331    8.6955 Pt  0  0  0  0  0  0  0  0  0  0  0  0
  1 53  1  0  0  0  0
  2  1  1  0  0  0  0
  3  5  1  0  0  0  0
  3  1  2  0  0  0  0
  4  3  1  0  0  0  0
  5  7  2  0  0  0  0
  6  5  1  0  0  0  0
  7  8  1  0  0  0  0
  7  9  1  0  0  0  0
  8 14  2  0  0  0  0
  9 11  2  0  0  0  0
 10  9  1  0  0  0  0
 11 12  1  0  0  0  0
 11 13  1  0  0  0  0
 13 15  2  0  0  0  0
 14 13  1  0  0  0  0
 15 16  1  0  0  0  0
 15 17  1  0  0  0  0
 17 18  1  0  0  0  0
 19 20  1  0  0  0  0
 19 17  2  0  0  0  0
 21 14  1  1  0  0  0
 21 19  1  0  0  0  0
 22 54  1  0  0  0  0
 22 23  1  0  0  0  0
 24 22  1  0  0  0  0
 25 24  1  0  0  0  0
 26 28  1  0  0  0  0
 26 24  2  0  0  0  0
 27 26  1  0  0  0  0
 28 30  2  0  0  0  0
 29 28  1  0  0  0  0
 30 31  1  0  0  0  0
 30 54  1  0  0  0  0
 31 38  1  0  0  0  0
 32 33  1  0  0  0  0
 32 31  2  0  0  0  0
 33 35  2  0  0  0  0
 34 33  1  0  0  0  0
 35 46  1  0  0  0  0
 35 36  1  0  0  0  0
 36 37  1  0  0  0  0
 38 36  2  0  0  0  0
 38 55  1  0  0  0  0
 39 40  2  0  0  0  0
 39 44  1  0  0  0  0
 40 41  1  0  0  0  0
 41 49  1  0  0  0  0
 41 42  2  0  0  0  0
 42 50  1  0  0  0  0
 43 42  1  0  0  0  0
 43 51  1  0  0  0  0
 44 43  2  0  0  0  0
 47 32  1  0  0  0  0
 48 40  1  0  0  0  0
 52 44  1  0  0  0  0
 53  8  1  0  0  0  0
 53 55  1  0  0  0  0
 54 55  1  0  0  0  0
 55 45  1  0  0  0  0
 55 39  1  0  0  0  0
 55 21  1  0  0  0  0
M  END
$$$$
