CSD_code = QOFTUB | q = 0 | S = 0 | Stoichiometry = C31H27Cl2NP2Pt | MND = 4
 OpenBabel04212202093D

 64 69  0  0  0  0  0  0  0  0999 V2000
    5.9009    3.6093    4.5973 Pt  0  0  0  0  0  0  0  0  0  0  0  0
    4.9060    5.5234    6.5078 N   0  0  0  0  0  0  0  0  0  0  0  0
    6.4918    5.4292    5.8562 P   0  0  0  0  0  4  0  0  0  0  0  0
    4.0993    4.1141    5.9291 P   0  0  0  0  0  4  0  0  0  0  0  0
    7.8692    3.3737    3.4935 Cl  0  0  0  0  0  0  0  0  0  0  0  0
    4.9737    1.8835    3.4565 Cl  0  0  0  0  0  0  0  0  0  0  0  0
    4.4592    6.4304    7.5613 C   0  0  0  0  0  0  0  0  0  0  0  0
    5.3185    7.0524    7.8352 H   0  0  0  0  0  0  0  0  0  0  0  0
    4.1546    5.8576    8.4462 H   0  0  0  0  0  0  0  0  0  0  0  0
    3.3186    7.3027    7.1067 C   0  0  0  0  0  0  0  0  0  0  0  0
    2.0381    7.1237    7.6114 C   0  0  0  0  0  0  0  0  0  0  0  0
    1.8610    6.3803    8.3753 H   0  0  0  0  0  0  0  0  0  0  0  0
    0.9851    7.8956    7.1535 C   0  0  0  0  0  0  0  0  0  0  0  0
   -0.0067    7.7404    7.5512 H   0  0  0  0  0  0  0  0  0  0  0  0
    1.2031    8.8630    6.1888 C   0  0  0  0  0  0  0  0  0  0  0  0
    0.3815    9.4641    5.8294 H   0  0  0  0  0  0  0  0  0  0  0  0
    2.4806    9.0619    5.6931 C   0  0  0  0  0  0  0  0  0  0  0  0
    2.6611    9.8227    4.9481 H   0  0  0  0  0  0  0  0  0  0  0  0
    3.5308    8.2872    6.1492 C   0  0  0  0  0  0  0  0  0  0  0  0
    4.5249    8.4428    5.7576 H   0  0  0  0  0  0  0  0  0  0  0  0
    7.6341    5.4346    7.2595 C   0  0  0  0  0  0  0  0  0  0  0  0
    8.9470    5.8497    7.0457 C   0  0  0  0  0  0  0  0  0  0  0  0
    9.2308    6.2312    6.0744 H   0  0  0  0  0  0  0  0  0  0  0  0
    9.8741    5.7581    8.0665 C   0  0  0  0  0  0  0  0  0  0  0  0
   10.8904    6.0832    7.9011 H   0  0  0  0  0  0  0  0  0  0  0  0
    9.5025    5.2403    9.2977 C   0  0  0  0  0  0  0  0  0  0  0  0
   10.2281    5.1706   10.0942 H   0  0  0  0  0  0  0  0  0  0  0  0
    8.2062    4.7949    9.5024 C   0  0  0  0  0  0  0  0  0  0  0  0
    7.9229    4.3726   10.4553 H   0  0  0  0  0  0  0  0  0  0  0  0
    7.2747    4.8795    8.4842 C   0  0  0  0  0  0  0  0  0  0  0  0
    6.2696    4.5083    8.6325 H   0  0  0  0  0  0  0  0  0  0  0  0
    6.7172    7.0310    5.0345 C   0  0  0  0  0  0  0  0  0  0  0  0
    7.1598    8.1873    5.6686 C   0  0  0  0  0  0  0  0  0  0  0  0
    7.4628    8.1571    6.7064 H   0  0  0  0  0  0  0  0  0  0  0  0
    7.2144    9.3755    4.9608 C   0  0  0  0  0  0  0  0  0  0  0  0
    7.5573   10.2754    5.4501 H   0  0  0  0  0  0  0  0  0  0  0  0
    6.8294    9.4136    3.6295 C   0  0  0  0  0  0  0  0  0  0  0  0
    6.8762   10.3448    3.0846 H   0  0  0  0  0  0  0  0  0  0  0  0
    6.3929    8.2610    2.9945 C   0  0  0  0  0  0  0  0  0  0  0  0
    6.1028    8.2914    1.9550 H   0  0  0  0  0  0  0  0  0  0  0  0
    6.3383    7.0710    3.6957 C   0  0  0  0  0  0  0  0  0  0  0  0
    6.0189    6.1492    3.2165 H   0  0  0  0  0  0  0  0  0  0  0  0
    3.9061    3.1076    7.4284 C   0  0  0  0  0  0  0  0  0  0  0  0
    4.8415    2.0879    7.5863 C   0  0  0  0  0  0  0  0  0  0  0  0
    5.5501    1.8987    6.7830 H   0  0  0  0  0  0  0  0  0  0  0  0
    4.8541    1.3278    8.7410 C   0  0  0  0  0  0  0  0  0  0  0  0
    5.5758    0.5335    8.8579 H   0  0  0  0  0  0  0  0  0  0  0  0
    3.9365    1.5895    9.7467 C   0  0  0  0  0  0  0  0  0  0  0  0
    3.9427    0.9981   10.6504 H   0  0  0  0  0  0  0  0  0  0  0  0
    3.0066    2.6062    9.5959 C   0  0  0  0  0  0  0  0  0  0  0  0
    2.2927    2.8061   10.3820 H   0  0  0  0  0  0  0  0  0  0  0  0
    2.9868    3.3674    8.4399 C   0  0  0  0  0  0  0  0  0  0  0  0
    2.2538    4.1517    8.3165 H   0  0  0  0  0  0  0  0  0  0  0  0
    2.4603    4.6765    5.4117 C   0  0  0  0  0  0  0  0  0  0  0  0
    1.2953    3.9827    5.7176 C   0  0  0  0  0  0  0  0  0  0  0  0
    1.3390    3.0957    6.3334 H   0  0  0  0  0  0  0  0  0  0  0  0
    0.0833    4.4269    5.2185 C   0  0  0  0  0  0  0  0  0  0  0  0
   -0.8241    3.8950    5.4641 H   0  0  0  0  0  0  0  0  0  0  0  0
    0.0329    5.5417    4.3988 C   0  0  0  0  0  0  0  0  0  0  0  0
   -0.9161    5.8850    4.0145 H   0  0  0  0  0  0  0  0  0  0  0  0
    1.2009    6.2023    4.0489 C   0  0  0  0  0  0  0  0  0  0  0  0
    1.1644    7.0526    3.3846 H   0  0  0  0  0  0  0  0  0  0  0  0
    2.4127    5.7631    4.5415 C   0  0  0  0  0  0  0  0  0  0  0  0
    3.3353    6.2552    4.2622 H   0  0  0  0  0  0  0  0  0  0  0  0
  1  3  1  0  0  0  0
  1  4  1  0  0  0  0
  2  7  1  0  0  0  0
  3  2  1  0  0  0  0
  3 21  1  0  0  0  0
  4  2  1  0  0  0  0
  4 43  1  0  0  0  0
  5  1  1  0  0  0  0
  6  1  1  0  0  0  0
  7  8  1  0  0  0  0
  7  9  1  0  0  0  0
 10  7  1  0  0  0  0
 10 11  1  0  0  0  0
 11 12  1  0  0  0  0
 13 14  1  0  0  0  0
 13 11  2  0  0  0  0
 15 13  1  0  0  0  0
 16 15  1  0  0  0  0
 17 19  1  0  0  0  0
 17 15  2  0  0  0  0
 18 17  1  0  0  0  0
 19 10  2  0  0  0  0
 20 19  1  0  0  0  0
 21 30  1  0  0  0  0
 22 21  2  0  0  0  0
 22 24  1  0  0  0  0
 23 22  1  0  0  0  0
 24 26  2  0  0  0  0
 25 24  1  0  0  0  0
 26 28  1  0  0  0  0
 26 27  1  0  0  0  0
 28 29  1  0  0  0  0
 30 31  1  0  0  0  0
 30 28  2  0  0  0  0
 32 33  1  0  0  0  0
 32  3  1  0  0  0  0
 33 34  1  0  0  0  0
 35 36  1  0  0  0  0
 35 33  2  0  0  0  0
 37 35  1  0  0  0  0
 38 37  1  0  0  0  0
 39 37  2  0  0  0  0
 39 41  1  0  0  0  0
 40 39  1  0  0  0  0
 41 32  2  0  0  0  0
 42 41  1  0  0  0  0
 43 44  2  0  0  0  0
 43 52  1  0  0  0  0
 44 46  1  0  0  0  0
 45 44  1  0  0  0  0
 46 47  1  0  0  0  0
 46 48  2  0  0  0  0
 48 49  1  0  0  0  0
 50 48  1  0  0  0  0
 50 51  1  0  0  0  0
 52 50  2  0  0  0  0
 53 52  1  0  0  0  0
 54 55  1  0  0  0  0
 54  4  1  0  0  0  0
 55 56  1  0  0  0  0
 57 58  1  0  0  0  0
 57 55  2  0  0  0  0
 59 57  1  0  0  0  0
 60 59  1  0  0  0  0
 61 59  2  0  0  0  0
 61 63  1  0  0  0  0
 62 61  1  0  0  0  0
 63 54  2  0  0  0  0
 64 63  1  0  0  0  0
M  END
$$$$
