CSD_code = QOFTOU | q = 0 | S = 0 | Stoichiometry = C32H30Cl2S2SiZr | MND = 12
 OpenBabel04212202093D

 68 76  0  0  1  0  0  0  0  0999 V2000
    6.3381    3.9386    6.3581 Zr  0  0  0  0  0  0  0  0  0  0  0  0
    6.1371    2.0810    3.1916 S   0  0  0  0  0  0  0  0  0  0  0  0
    4.3089    6.6746    7.7400 S   0  0  0  0  0  0  0  0  0  0  0  0
    6.5330    3.8076    8.6854 Cl  0  0  0  0  0  0  0  0  0  0  0  0
    8.4919    3.1444    5.9100 Cl  0  0  0  0  0  0  0  0  0  0  0  0
    3.8241    4.9294    4.3463 Si  0  0  0  0  0  0  0  0  0  0  0  0
    7.0547    0.7891    3.9655 C   0  0  0  0  0  0  0  0  0  0  0  0
    6.7498    0.6276    5.2837 C   0  0  0  0  0  0  0  0  0  0  0  0
    4.9968    1.8683    6.8833 C   0  0  0  0  0  0  0  0  0  0  0  0
    4.9994    1.3196    7.8173 H   0  0  0  0  0  0  0  0  0  0  0  0
    4.1165    2.9258    6.5561 C   0  0  2  0  0  0  0  0  0  0  0  0
    4.2719    3.2844    5.1751 C   0  0  2  0  0  3  0  0  0  0  0  0
    5.7534    1.5650    5.7207 C   0  0  0  0  0  0  0  0  0  0  0  0
    5.3198    2.4459    4.6915 C   0  0  2  0  0  0  0  0  0  0  0  0
    8.0756    0.0813    3.1480 C   0  0  0  0  0  0  0  0  0  0  0  0
    8.8257   -0.3673    3.7958 H   0  0  0  0  0  0  0  0  0  0  0  0
    8.5641    0.7814    2.4722 H   0  0  0  0  0  0  0  0  0  0  0  0
    7.6190   -0.7039    2.5429 H   0  0  0  0  0  0  0  0  0  0  0  0
    7.3900   -0.3041    6.2164 C   0  0  0  0  0  0  0  0  0  0  0  0
    7.6324   -1.6329    5.8804 C   0  0  0  0  0  0  0  0  0  0  0  0
    7.3242   -2.0040    4.9145 H   0  0  0  0  0  0  0  0  0  0  0  0
    8.2365   -2.4841    6.7878 C   0  0  0  0  0  0  0  0  0  0  0  0
    8.4168   -3.5146    6.5177 H   0  0  0  0  0  0  0  0  0  0  0  0
    8.6065   -2.0205    8.0386 C   0  0  0  0  0  0  0  0  0  0  0  0
    9.0805   -2.6861    8.7449 H   0  0  0  0  0  0  0  0  0  0  0  0
    8.3642   -0.7001    8.3824 C   0  0  0  0  0  0  0  0  0  0  0  0
    8.6518   -0.3333    9.3567 H   0  0  0  0  0  0  0  0  0  0  0  0
    7.7560    0.1544    7.4827 C   0  0  0  0  0  0  0  0  0  0  0  0
    7.5876    1.1932    7.7526 H   0  0  0  0  0  0  0  0  0  0  0  0
    3.1134    3.4818    7.5269 C   0  0  0  0  0  0  0  0  0  0  0  0
    2.3555    2.7297    7.7547 H   0  0  0  0  0  0  0  0  0  0  0  0
    2.6118    4.3579    7.1261 H   0  0  0  0  0  0  0  0  0  0  0  0
    3.6062    3.7502    8.4657 H   0  0  0  0  0  0  0  0  0  0  0  0
    2.2072    5.7698    4.9032 C   0  0  0  0  0  0  0  0  0  0  0  0
    1.9244    6.5219    4.1746 H   0  0  0  0  0  0  0  0  0  0  0  0
    2.3022    6.2678    5.8622 H   0  0  0  0  0  0  0  0  0  0  0  0
    1.3921    5.0569    4.9674 H   0  0  0  0  0  0  0  0  0  0  0  0
    5.6703    7.0679    8.7897 C   0  0  0  0  0  0  0  0  0  0  0  0
    6.8813    6.8727    8.1963 C   0  0  0  0  0  0  0  0  0  0  0  0
    7.5625    6.0550    5.7389 C   0  0  0  0  0  0  0  0  0  0  0  0
    8.6360    6.1796    5.6659 H   0  0  0  0  0  0  0  0  0  0  0  0
    6.7064    5.6818    4.6768 C   0  0  2  0  0  0  0  0  0  0  0  0
    5.3358    5.8020    5.0856 C   0  0  2  0  0  3  0  0  0  0  0  0
    6.7457    6.3819    6.8533 C   0  0  0  0  0  0  0  0  0  0  0  0
    5.3923    6.2053    6.4528 C   0  0  2  0  0  0  0  0  0  0  0  0
    5.3689    7.4913   10.1831 C   0  0  0  0  0  0  0  0  0  0  0  0
    6.2281    7.3032   10.8234 H   0  0  0  0  0  0  0  0  0  0  0  0
    4.5139    6.9362   10.5655 H   0  0  0  0  0  0  0  0  0  0  0  0
    5.1242    8.5540   10.2266 H   0  0  0  0  0  0  0  0  0  0  0  0
    8.1944    7.0340    8.8269 C   0  0  0  0  0  0  0  0  0  0  0  0
    9.1634    6.0494    8.6282 C   0  0  0  0  0  0  0  0  0  0  0  0
    8.9289    5.1701    8.0348 H   0  0  0  0  0  0  0  0  0  0  0  0
   10.4093    6.1723    9.2132 C   0  0  0  0  0  0  0  0  0  0  0  0
   11.1493    5.4006    9.0607 H   0  0  0  0  0  0  0  0  0  0  0  0
   10.7099    7.2777    9.9929 C   0  0  0  0  0  0  0  0  0  0  0  0
   11.6851    7.3715   10.4472 H   0  0  0  0  0  0  0  0  0  0  0  0
    9.7565    8.2629   10.1853 C   0  0  0  0  0  0  0  0  0  0  0  0
    9.9884    9.1301   10.7865 H   0  0  0  0  0  0  0  0  0  0  0  0
    8.5056    8.1437    9.6074 C   0  0  0  0  0  0  0  0  0  0  0  0
    7.7726    8.9250    9.7405 H   0  0  0  0  0  0  0  0  0  0  0  0
    7.2135    5.3208    3.3092 C   0  0  0  0  0  0  0  0  0  0  0  0
    7.6671    6.1936    2.8355 H   0  0  0  0  0  0  0  0  0  0  0  0
    6.4132    4.9640    2.6673 H   0  0  0  0  0  0  0  0  0  0  0  0
    7.9832    4.5475    3.3847 H   0  0  0  0  0  0  0  0  0  0  0  0
    3.7672    4.7473    2.4505 C   0  0  0  0  0  0  0  0  0  0  0  0
    4.4175    3.9595    2.0851 H   0  0  0  0  0  0  0  0  0  0  0  0
    4.0399    5.6731    1.9553 H   0  0  0  0  0  0  0  0  0  0  0  0
    2.7564    4.5004    2.1441 H   0  0  0  0  0  0  0  0  0  0  0  0
  1 45  1  0  0  0  0
  1 11  1  0  0  0  0
  1  4  1  0  0  0  0
  2  7  1  0  0  0  0
  3 38  1  0  0  0  0
  5  1  1  0  0  0  0
  6 34  1  0  0  0  0
  7  8  2  0  0  0  0
  8 13  1  0  0  0  0
  8 19  1  0  0  0  0
  9 10  1  0  0  0  0
 11  9  1  0  0  0  0
 11 30  1  1  0  0  0
 12  6  1  1  0  0  0
 12 11  1  0  0  0  0
 13  9  2  0  0  0  0
 14  2  1  6  0  0  0
 14 12  1  0  0  0  0
 14 13  1  0  0  0  0
 14  1  1  0  0  0  0
 15 16  1  0  0  0  0
 15  7  1  0  0  0  0
 17 15  1  0  0  0  0
 18 15  1  0  0  0  0
 19 28  1  0  0  0  0
 20 19  2  0  0  0  0
 20 22  1  0  0  0  0
 21 20  1  0  0  0  0
 22 24  2  0  0  0  0
 23 22  1  0  0  0  0
 24 26  1  0  0  0  0
 24 25  1  0  0  0  0
 26 27  1  0  0  0  0
 28 29  1  0  0  0  0
 28 26  2  0  0  0  0
 30 31  1  0  0  0  0
 30 33  1  0  0  0  0
 32 30  1  0  0  0  0
 34 37  1  0  0  0  0
 34 36  1  0  0  0  0
 35 34  1  0  0  0  0
 38 46  1  0  0  0  0
 39 38  2  0  0  0  0
 39 50  1  0  0  0  0
 40 44  2  0  0  0  0
 41 40  1  0  0  0  0
 42 61  1  6  0  0  0
 42 43  1  0  0  0  0
 42 40  1  0  0  0  0
 42  1  1  0  0  0  0
 43  6  1  1  0  0  0
 43 45  1  0  0  0  0
 44 39  1  0  0  0  0
 45 44  1  1  0  0  0
 45  3  1  0  0  0  0
 46 49  1  0  0  0  0
 46 48  1  0  0  0  0
 46 47  1  0  0  0  0
 50 59  1  0  0  0  0
 51 50  2  0  0  0  0
 51 53  1  0  0  0  0
 52 51  1  0  0  0  0
 53 55  2  0  0  0  0
 54 53  1  0  0  0  0
 55 57  1  0  0  0  0
 55 56  1  0  0  0  0
 57 58  1  0  0  0  0
 59 60  1  0  0  0  0
 59 57  2  0  0  0  0
 61 64  1  0  0  0  0
 62 61  1  0  0  0  0
 63 61  1  0  0  0  0
 65  6  1  0  0  0  0
 66 65  1  0  0  0  0
 67 65  1  0  0  0  0
 68 65  1  0  0  0  0
M  END
$$$$
