CSD_code = QOFTOV | q = 0 | S = 0 | Stoichiometry = C30H26Cl2N2P2Pt | MND = 4
 OpenBabel04212202093D

 63 68  0  0  0  0  0  0  0  0999 V2000
    7.7416    3.4142    2.3398 Pt  0  0  0  0  0  0  0  0  0  0  0  0
    7.8657    5.3144    1.0618 P   0  0  0  0  0  4  0  0  0  0  0  0
    5.5813    4.0208    1.8517 P   0  0  0  0  0  4  0  0  0  0  0  0
    9.9669    3.1027    2.6399 Cl  0  0  0  0  0  0  0  0  0  0  0  0
    7.2504    1.6214    3.6296 Cl  0  0  0  0  0  0  0  0  0  0  0  0
    6.1546    5.4241    1.0335 N   0  0  0  0  0  0  0  0  0  0  0  0
    3.2012    6.7163    1.2901 N   0  0  0  0  0  0  0  0  0  0  0  0
    5.3634    6.3971    0.2907 C   0  0  0  0  0  0  0  0  0  0  0  0
    4.7516    5.8936   -0.4663 H   0  0  0  0  0  0  0  0  0  0  0  0
    6.0570    7.0813   -0.2064 H   0  0  0  0  0  0  0  0  0  0  0  0
    4.4519    7.1535    1.2190 C   0  0  0  0  0  0  0  0  0  0  0  0
    4.9152    8.2145    1.9893 C   0  0  0  0  0  0  0  0  0  0  0  0
    5.9396    8.5433    1.9027 H   0  0  0  0  0  0  0  0  0  0  0  0
    4.0383    8.8291    2.8662 C   0  0  0  0  0  0  0  0  0  0  0  0
    4.3672    9.6565    3.4778 H   0  0  0  0  0  0  0  0  0  0  0  0
    2.7350    8.3639    2.9457 C   0  0  0  0  0  0  0  0  0  0  0  0
    2.0212    8.8118    3.6184 H   0  0  0  0  0  0  0  0  0  0  0  0
    2.3698    7.3042    2.1319 C   0  0  0  0  0  0  0  0  0  0  0  0
    1.3653    6.9023    2.1493 H   0  0  0  0  0  0  0  0  0  0  0  0
    8.3951    5.4433   -0.6637 C   0  0  0  0  0  0  0  0  0  0  0  0
    7.6144    4.8995   -1.6800 C   0  0  0  0  0  0  0  0  0  0  0  0
    6.6519    4.4659   -1.4421 H   0  0  0  0  0  0  0  0  0  0  0  0
    8.0766    4.9073   -2.9828 C   0  0  0  0  0  0  0  0  0  0  0  0
    7.4667    4.4930   -3.7719 H   0  0  0  0  0  0  0  0  0  0  0  0
    9.3252    5.4344   -3.2738 C   0  0  0  0  0  0  0  0  0  0  0  0
    9.6851    5.4364   -4.2918 H   0  0  0  0  0  0  0  0  0  0  0  0
   10.1206    5.9420   -2.2583 C   0  0  0  0  0  0  0  0  0  0  0  0
   11.1020    6.3319   -2.4837 H   0  0  0  0  0  0  0  0  0  0  0  0
    9.6632    5.9411   -0.9538 C   0  0  0  0  0  0  0  0  0  0  0  0
   10.2839    6.3156   -0.1514 H   0  0  0  0  0  0  0  0  0  0  0  0
    8.3738    6.8719    1.8470 C   0  0  0  0  0  0  0  0  0  0  0  0
    8.4727    8.0892    1.1812 C   0  0  0  0  0  0  0  0  0  0  0  0
    8.3245    8.1381    0.1106 H   0  0  0  0  0  0  0  0  0  0  0  0
    8.7731    9.2368    1.8946 C   0  0  0  0  0  0  0  0  0  0  0  0
    8.8505   10.1834    1.3796 H   0  0  0  0  0  0  0  0  0  0  0  0
    8.9742    9.1743    3.2650 C   0  0  0  0  0  0  0  0  0  0  0  0
    9.2100   10.0741    3.8137 H   0  0  0  0  0  0  0  0  0  0  0  0
    8.8842    7.9610    3.9294 C   0  0  0  0  0  0  0  0  0  0  0  0
    9.0532    7.9123    4.9946 H   0  0  0  0  0  0  0  0  0  0  0  0
    8.5851    6.8116    3.2213 C   0  0  0  0  0  0  0  0  0  0  0  0
    8.5304    5.8452    3.7154 H   0  0  0  0  0  0  0  0  0  0  0  0
    4.5994    3.1578    0.5978 C   0  0  0  0  0  0  0  0  0  0  0  0
    3.3868    3.6453    0.1166 C   0  0  0  0  0  0  0  0  0  0  0  0
    2.9631    4.5478    0.5362 H   0  0  0  0  0  0  0  0  0  0  0  0
    2.7423    2.9647   -0.9018 C   0  0  0  0  0  0  0  0  0  0  0  0
    1.8020    3.3366   -1.2819 H   0  0  0  0  0  0  0  0  0  0  0  0
    3.2958    1.8100   -1.4341 C   0  0  0  0  0  0  0  0  0  0  0  0
    2.7818    1.2835   -2.2248 H   0  0  0  0  0  0  0  0  0  0  0  0
    4.5043    1.3281   -0.9557 C   0  0  0  0  0  0  0  0  0  0  0  0
    4.9323    0.4283   -1.3712 H   0  0  0  0  0  0  0  0  0  0  0  0
    5.1595    2.0039    0.0577 C   0  0  0  0  0  0  0  0  0  0  0  0
    6.1047    1.6457    0.4521 H   0  0  0  0  0  0  0  0  0  0  0  0
    4.4312    4.6181    3.1153 C   0  0  0  0  0  0  0  0  0  0  0  0
    4.8809    5.6286    3.9612 C   0  0  0  0  0  0  0  0  0  0  0  0
    5.8569    6.0662    3.7895 H   0  0  0  0  0  0  0  0  0  0  0  0
    4.0854    6.0662    5.0009 C   0  0  0  0  0  0  0  0  0  0  0  0
    4.4320    6.8564    5.6507 H   0  0  0  0  0  0  0  0  0  0  0  0
    2.8475    5.4800    5.2177 C   0  0  0  0  0  0  0  0  0  0  0  0
    2.2263    5.8198    6.0331 H   0  0  0  0  0  0  0  0  0  0  0  0
    2.4157    4.4472    4.4027 C   0  0  0  0  0  0  0  0  0  0  0  0
    1.4607    3.9776    4.5870 H   0  0  0  0  0  0  0  0  0  0  0  0
    3.2073    4.0065    3.3568 C   0  0  0  0  0  0  0  0  0  0  0  0
    2.8802    3.1891    2.7307 H   0  0  0  0  0  0  0  0  0  0  0  0
  1  4  1  0  0  0  0
  1  5  1  0  0  0  0
  2 31  1  0  0  0  0
  2  1  1  0  0  0  0
  3  1  1  0  0  0  0
  3 53  1  0  0  0  0
  6  2  1  0  0  0  0
  6  3  1  0  0  0  0
  7 18  1  0  0  0  0
  8  6  1  0  0  0  0
  8 11  1  0  0  0  0
  9  8  1  0  0  0  0
 10  8  1  0  0  0  0
 11  7  2  0  0  0  0
 11 12  1  0  0  0  0
 12 14  2  0  0  0  0
 13 12  1  0  0  0  0
 14 16  1  0  0  0  0
 14 15  1  0  0  0  0
 16 17  1  0  0  0  0
 18 19  1  0  0  0  0
 18 16  2  0  0  0  0
 20  2  1  0  0  0  0
 21 22  1  0  0  0  0
 21 20  2  0  0  0  0
 23 21  1  0  0  0  0
 24 23  1  0  0  0  0
 25 23  2  0  0  0  0
 25 27  1  0  0  0  0
 26 25  1  0  0  0  0
 27 29  2  0  0  0  0
 28 27  1  0  0  0  0
 29 20  1  0  0  0  0
 29 30  1  0  0  0  0
 31 40  1  0  0  0  0
 32 31  2  0  0  0  0
 32 34  1  0  0  0  0
 33 32  1  0  0  0  0
 34 36  2  0  0  0  0
 35 34  1  0  0  0  0
 36 37  1  0  0  0  0
 36 38  1  0  0  0  0
 38 39  1  0  0  0  0
 40 41  1  0  0  0  0
 40 38  2  0  0  0  0
 42  3  1  0  0  0  0
 43 44  1  0  0  0  0
 43 42  1  0  0  0  0
 45 43  2  0  0  0  0
 46 45  1  0  0  0  0
 47 49  2  0  0  0  0
 47 45  1  0  0  0  0
 48 47  1  0  0  0  0
 49 51  1  0  0  0  0
 50 49  1  0  0  0  0
 51 52  1  0  0  0  0
 51 42  2  0  0  0  0
 53 62  2  0  0  0  0
 53 54  1  0  0  0  0
 54 56  2  0  0  0  0
 55 54  1  0  0  0  0
 56 58  1  0  0  0  0
 56 57  1  0  0  0  0
 58 59  1  0  0  0  0
 60 61  1  0  0  0  0
 60 58  2  0  0  0  0
 62 60  1  0  0  0  0
 63 62  1  0  0  0  0
M  END
$$$$
