CSD_code = QOFTEL | q = 0 | S = 0 | Stoichiometry = C30H26Cl2N2P2Pd | MND = 4
 OpenBabel04212202093D

 63 68  0  0  0  0  0  0  0  0999 V2000
    7.9452    3.5888    8.8920 Pd  0  0  0  0  0  0  0  0  0  0  0  0
    6.6464    4.6429    7.3691 P   0  0  0  0  0  4  0  0  0  0  0  0
    9.2312    3.8450    7.0548 P   0  0  0  0  0  4  0  0  0  0  0  0
    6.5182    3.7172   10.6287 Cl  0  0  0  0  0  0  0  0  0  0  0  0
    9.4363    2.3278   10.0127 Cl  0  0  0  0  0  0  0  0  0  0  0  0
    7.9783    4.7320    6.2817 N   0  0  0  0  0  0  0  0  0  0  0  0
    9.2247    7.2476    5.4526 N   0  0  0  0  0  0  0  0  0  0  0  0
    7.9583    5.2663    4.9272 C   0  0  0  0  0  0  0  0  0  0  0  0
    7.0323    5.8419    4.8233 H   0  0  0  0  0  0  0  0  0  0  0  0
    7.9570    4.4649    4.1794 H   0  0  0  0  0  0  0  0  0  0  0  0
    9.1317    6.1750    4.6771 C   0  0  0  0  0  0  0  0  0  0  0  0
   10.0626    5.8964    3.6825 C   0  0  0  0  0  0  0  0  0  0  0  0
    9.9625    5.0099    3.0740 H   0  0  0  0  0  0  0  0  0  0  0  0
   11.1137    6.7784    3.4903 C   0  0  0  0  0  0  0  0  0  0  0  0
   11.8491    6.5928    2.7209 H   0  0  0  0  0  0  0  0  0  0  0  0
   11.2057    7.8967    4.3026 C   0  0  0  0  0  0  0  0  0  0  0  0
   12.0073    8.6085    4.1858 H   0  0  0  0  0  0  0  0  0  0  0  0
   10.2337    8.0784    5.2746 C   0  0  0  0  0  0  0  0  0  0  0  0
   10.2561    8.9306    5.9407 H   0  0  0  0  0  0  0  0  0  0  0  0
    5.5948    3.3656    6.5997 C   0  0  0  0  0  0  0  0  0  0  0  0
    5.6962    2.0767    7.1227 C   0  0  0  0  0  0  0  0  0  0  0  0
    6.3070    1.8975    8.0220 H   0  0  0  0  0  0  0  0  0  0  0  0
    5.0127    1.0332    6.5242 C   0  0  0  0  0  0  0  0  0  0  0  0
    5.0847    0.0364    6.9324 H   0  0  0  0  0  0  0  0  0  0  0  0
    4.2337    1.2703    5.4022 C   0  0  0  0  0  0  0  0  0  0  0  0
    3.7002    0.4561    4.9347 H   0  0  0  0  0  0  0  0  0  0  0  0
    4.1318    2.5505    4.8800 C   0  0  0  0  0  0  0  0  0  0  0  0
    3.5214    2.7315    4.0073 H   0  0  0  0  0  0  0  0  0  0  0  0
    4.8095    3.5996    5.4753 C   0  0  0  0  0  0  0  0  0  0  0  0
    4.7245    4.6014    5.0760 H   0  0  0  0  0  0  0  0  0  0  0  0
    5.7379    6.1938    7.2050 C   0  0  0  0  0  0  0  0  0  0  0  0
    6.4040    7.3955    6.9794 C   0  0  0  0  0  0  0  0  0  0  0  0
    7.4698    7.3966    6.7913 H   0  0  0  0  0  0  0  0  0  0  0  0
    5.6870    8.5787    6.9774 C   0  0  0  0  0  0  0  0  0  0  0  0
    6.1970    9.5117    6.7880 H   0  0  0  0  0  0  0  0  0  0  0  0
    4.3241    8.5723    7.2293 C   0  0  0  0  0  0  0  0  0  0  0  0
    3.7717    9.5003    7.2336 H   0  0  0  0  0  0  0  0  0  0  0  0
    3.6696    7.3784    7.4918 C   0  0  0  0  0  0  0  0  0  0  0  0
    2.6113    7.3769    7.7069 H   0  0  0  0  0  0  0  0  0  0  0  0
    4.3735    6.1892    7.4879 C   0  0  0  0  0  0  0  0  0  0  0  0
    3.8782    5.2532    7.7086 H   0  0  0  0  0  0  0  0  0  0  0  0
    9.8696    2.6856    5.8250 C   0  0  0  0  0  0  0  0  0  0  0  0
    8.9956    2.0862    4.9198 C   0  0  0  0  0  0  0  0  0  0  0  0
    7.9476    2.3585    4.9235 H   0  0  0  0  0  0  0  0  0  0  0  0
    9.4607    1.1256    4.0416 C   0  0  0  0  0  0  0  0  0  0  0  0
    8.7834    0.6719    3.3328 H   0  0  0  0  0  0  0  0  0  0  0  0
   10.7897    0.7332    4.0817 C   0  0  0  0  0  0  0  0  0  0  0  0
   11.1510   -0.0169    3.3942 H   0  0  0  0  0  0  0  0  0  0  0  0
   11.6463    1.2796    5.0243 C   0  0  0  0  0  0  0  0  0  0  0  0
   12.6711    0.9442    5.0815 H   0  0  0  0  0  0  0  0  0  0  0  0
   11.1890    2.2448    5.9024 C   0  0  0  0  0  0  0  0  0  0  0  0
   11.8410    2.6464    6.6650 H   0  0  0  0  0  0  0  0  0  0  0  0
   10.5220    5.0846    7.3914 C   0  0  0  0  0  0  0  0  0  0  0  0
   11.6171    5.3643    6.5826 C   0  0  0  0  0  0  0  0  0  0  0  0
   11.7777    4.8064    5.6711 H   0  0  0  0  0  0  0  0  0  0  0  0
   12.4987    6.3675    6.9439 C   0  0  0  0  0  0  0  0  0  0  0  0
   13.3513    6.5808    6.3154 H   0  0  0  0  0  0  0  0  0  0  0  0
   12.2930    7.0953    8.1044 C   0  0  0  0  0  0  0  0  0  0  0  0
   12.9863    7.8764    8.3792 H   0  0  0  0  0  0  0  0  0  0  0  0
   11.2055    6.8164    8.9174 C   0  0  0  0  0  0  0  0  0  0  0  0
   11.0516    7.3765    9.8274 H   0  0  0  0  0  0  0  0  0  0  0  0
   10.3254    5.8100    8.5672 C   0  0  0  0  0  0  0  0  0  0  0  0
    9.4756    5.5651    9.2241 H   0  0  0  0  0  0  0  0  0  0  0  0
  1  5  1  0  0  0  0
  1  4  1  0  0  0  0
  2  1  1  0  0  0  0
  3 53  1  0  0  0  0
  3  1  1  0  0  0  0
  6  3  1  0  0  0  0
  6  2  1  0  0  0  0
  8  6  1  0  0  0  0
  9  8  1  0  0  0  0
 10  8  1  0  0  0  0
 11  8  1  0  0  0  0
 11  7  2  0  0  0  0
 12 11  1  0  0  0  0
 13 12  1  0  0  0  0
 14 12  2  0  0  0  0
 14 16  1  0  0  0  0
 15 14  1  0  0  0  0
 16 18  2  0  0  0  0
 17 16  1  0  0  0  0
 18  7  1  0  0  0  0
 18 19  1  0  0  0  0
 20 21  1  0  0  0  0
 20  2  1  0  0  0  0
 21 22  1  0  0  0  0
 23 24  1  0  0  0  0
 23 21  2  0  0  0  0
 25 23  1  0  0  0  0
 26 25  1  0  0  0  0
 27 25  2  0  0  0  0
 27 29  1  0  0  0  0
 28 27  1  0  0  0  0
 29 20  2  0  0  0  0
 30 29  1  0  0  0  0
 31  2  1  0  0  0  0
 31 40  1  0  0  0  0
 32 31  2  0  0  0  0
 33 32  1  0  0  0  0
 34 32  1  0  0  0  0
 34 36  2  0  0  0  0
 35 34  1  0  0  0  0
 36 37  1  0  0  0  0
 36 38  1  0  0  0  0
 38 39  1  0  0  0  0
 40 38  2  0  0  0  0
 40 41  1  0  0  0  0
 42 51  1  0  0  0  0
 42  3  1  0  0  0  0
 43 44  1  0  0  0  0
 43 42  2  0  0  0  0
 45 47  2  0  0  0  0
 45 43  1  0  0  0  0
 46 45  1  0  0  0  0
 47 49  1  0  0  0  0
 48 47  1  0  0  0  0
 49 50  1  0  0  0  0
 49 51  2  0  0  0  0
 51 52  1  0  0  0  0
 53 62  1  0  0  0  0
 54 56  1  0  0  0  0
 54 53  2  0  0  0  0
 55 54  1  0  0  0  0
 56 58  2  0  0  0  0
 57 56  1  0  0  0  0
 58 59  1  0  0  0  0
 58 60  1  0  0  0  0
 60 61  1  0  0  0  0
 62 60  2  0  0  0  0
 62 63  1  0  0  0  0
M  END
$$$$
