CSD_code = QOGBAQ | q = 0 | S = 0 | Stoichiometry = C10H14Cl2N4OPt | MND = 4
 OpenBabel04212202093D

 32 34  0  0  0  0  0  0  0  0999 V2000
   -0.0009   13.0246    2.6776 C   0  0  0  0  0  3  0  0  0  0  0  0
   -0.3633   12.5110    3.5461 H   0  0  0  0  0  0  0  0  0  0  0  0
    1.2053   13.6840    1.0278 C   0  0  0  0  0  0  0  0  0  0  0  0
    2.0611   13.7129    0.3829 H   0  0  0  0  0  0  0  0  0  0  0  0
    0.0164   14.3459    0.9446 C   0  0  0  0  0  0  0  0  0  0  0  0
   -0.3430   15.0618    0.2347 H   0  0  0  0  0  0  0  0  0  0  0  0
   -1.9946   14.4651    2.4436 C   0  0  0  0  0  0  0  0  0  0  0  0
   -2.5421   14.8788    1.5948 H   0  0  0  0  0  0  0  0  0  0  0  0
   -2.5853   13.6746    2.9116 H   0  0  0  0  0  0  0  0  0  0  0  0
   -1.7321   15.5690    3.4773 C   0  0  0  0  0  0  0  0  0  0  0  0
   -2.6752   16.0648    3.7475 H   0  0  0  0  0  0  0  0  0  0  0  0
   -1.0540   16.3208    3.0466 H   0  0  0  0  0  0  0  0  0  0  0  0
   -0.4729   15.8817    5.4587 C   0  0  0  0  0  0  0  0  0  0  0  0
   -1.1769   16.6096    5.8875 H   0  0  0  0  0  0  0  0  0  0  0  0
    0.2850   16.4390    4.8877 H   0  0  0  0  0  0  0  0  0  0  0  0
    0.1868   15.0928    6.5955 C   0  0  0  0  0  0  0  0  0  0  0  0
    0.8389   15.7677    7.1609 H   0  0  0  0  0  0  0  0  0  0  0  0
   -0.5848   14.7054    7.2642 H   0  0  0  0  0  0  0  0  0  0  0  0
    1.7195   13.9321    4.9995 C   0  0  0  0  0  3  0  0  0  0  0  0
    1.9642   14.7906    4.4062 H   0  0  0  0  0  0  0  0  0  0  0  0
    1.6617   11.9279    5.7655 C   0  0  0  0  0  0  0  0  0  0  0  0
    1.9024   10.8846    5.8200 H   0  0  0  0  0  0  0  0  0  0  0  0
    0.8900   12.6949    6.5871 C   0  0  0  0  0  0  0  0  0  0  0  0
    0.3305   12.4417    7.4636 H   0  0  0  0  0  0  0  0  0  0  0  0
   -0.7470   13.9149    1.9929 N   0  0  0  0  0  0  0  0  0  0  0  0
    1.1809   12.8737    2.1213 N   0  0  0  0  0  0  0  0  0  0  0  0
    0.9317   13.9673    6.0943 N   0  0  0  0  0  0  0  0  0  0  0  0
    2.1597   12.7142    4.7749 N   0  0  0  0  0  0  0  0  0  0  0  0
   -1.1414   14.9755    4.6118 O   0  0  0  0  0  0  0  0  0  0  0  0
    4.5992   11.0965    3.9896 Cl  0  0  0  0  0  0  0  0  0  0  0  0
    3.4444   11.2251    0.9780 Cl  0  0  0  0  0  0  0  0  0  0  0  0
    2.8235   11.9951    2.9799 Pt  0  0  0  0  0  0  0  0  0  0  0  0
  1  2  1  0  0  0  0
  3 26  1  0  0  0  0
  4  3  1  0  0  0  0
  5  3  2  0  0  0  0
  5 25  1  0  0  0  0
  6  5  1  0  0  0  0
  7  9  1  0  0  0  0
  7 10  1  0  0  0  0
  8  7  1  0  0  0  0
 10 11  1  0  0  0  0
 10 29  1  0  0  0  0
 12 10  1  0  0  0  0
 13 14  1  0  0  0  0
 13 16  1  0  0  0  0
 15 13  1  0  0  0  0
 16 17  1  0  0  0  0
 16 18  1  0  0  0  0
 19 27  1  0  0  0  0
 20 19  1  0  0  0  0
 21 22  1  0  0  0  0
 21 23  2  0  0  0  0
 23 24  1  0  0  0  0
 25  7  1  0  0  0  0
 25  1  1  0  0  0  0
 26  1  1  0  0  0  0
 26 32  1  0  0  0  0
 27 23  1  0  0  0  0
 27 16  1  0  0  0  0
 28 19  1  0  0  0  0
 28 21  1  0  0  0  0
 29 13  1  0  0  0  0
 31 32  1  0  0  0  0
 32 30  1  0  0  0  0
 32 28  1  0  0  0  0
M  END
$$$$
