CSD_code = QOGBEU | q = 0 | S = 0 | Stoichiometry = C14H22Cl2N4O3Pt | MND = 4
 OpenBabel04212202093D

 46 48  0  0  0  0  0  0  0  0999 V2000
    9.2631   10.7132    6.0547 Pt  0  0  0  0  0  0  0  0  0  0  0  0
   10.7772    9.0626    5.9634 Cl  0  0  0  0  0  0  0  0  0  0  0  0
    8.2828    9.9987    4.1656 Cl  0  0  0  0  0  0  0  0  0  0  0  0
   10.4887   10.5658    8.8197 C   0  0  0  0  0  0  0  0  0  0  0  0
   10.2766    9.5154    8.8311 H   0  0  0  0  0  0  0  0  0  0  0  0
    7.3676   12.8606    7.2375 C   0  0  0  0  0  0  0  0  0  0  0  0
    7.6645   12.6181    8.2379 H   0  0  0  0  0  0  0  0  0  0  0  0
    9.1366   17.6970    7.1245 O   0  0  0  0  0  0  0  0  0  0  0  0
    9.5159   14.9842    9.4564 O   0  0  0  0  0  0  0  0  0  0  0  0
    6.9262   16.4831    5.2942 O   0  0  0  0  0  0  0  0  0  0  0  0
    6.4607   13.7877    6.8182 C   0  0  0  0  0  0  0  0  0  0  0  0
    5.8543   14.4778    7.3659 H   0  0  0  0  0  0  0  0  0  0  0  0
   10.5794   12.5590    8.0239 C   0  0  0  0  0  3  0  0  0  0  0  0
   10.4774   13.4106    7.3812 H   0  0  0  0  0  0  0  0  0  0  0  0
    7.3125   12.7670    5.0922 C   0  0  0  0  0  3  0  0  0  0  0  0
    7.4901   12.4522    4.0821 H   0  0  0  0  0  0  0  0  0  0  0  0
    8.1233   18.2831    6.3469 C   0  0  0  0  0  0  0  0  0  0  0  0
    8.4932   19.2828    6.1093 H   0  0  0  0  0  0  0  0  0  0  0  0
    7.1910   18.3633    6.9223 H   0  0  0  0  0  0  0  0  0  0  0  0
   11.6230   13.7929    9.9001 C   0  0  0  0  0  0  0  0  0  0  0  0
   12.1828   14.4091    9.1919 H   0  0  0  0  0  0  0  0  0  0  0  0
   12.2818   13.5137   10.7243 H   0  0  0  0  0  0  0  0  0  0  0  0
   11.1661   12.6051    9.2355 N   0  0  0  0  0  0  0  0  0  0  0  0
    6.4281   13.7125    5.4584 N   0  0  0  0  0  0  0  0  0  0  0  0
    7.8261   17.5393    5.0407 C   0  0  0  0  0  0  0  0  0  0  0  0
    7.3826   18.2390    4.3168 H   0  0  0  0  0  0  0  0  0  0  0  0
    8.7642   17.1508    4.6185 H   0  0  0  0  0  0  0  0  0  0  0  0
   11.1043   11.3444    9.7542 C   0  0  0  0  0  0  0  0  0  0  0  0
   11.5051   11.1040   10.7169 H   0  0  0  0  0  0  0  0  0  0  0  0
    6.5807   15.7532    4.1404 C   0  0  0  0  0  0  0  0  0  0  0  0
    7.4866   15.3758    3.6420 H   0  0  0  0  0  0  0  0  0  0  0  0
    6.0338   16.3906    3.4296 H   0  0  0  0  0  0  0  0  0  0  0  0
    8.7596   16.5111    7.7891 C   0  0  0  0  0  0  0  0  0  0  0  0
    8.5717   15.6942    7.0819 H   0  0  0  0  0  0  0  0  0  0  0  0
    7.8425   16.6705    8.3725 H   0  0  0  0  0  0  0  0  0  0  0  0
   10.4206   14.5862   10.4541 C   0  0  0  0  0  0  0  0  0  0  0  0
    9.8458   13.9412   11.1249 H   0  0  0  0  0  0  0  0  0  0  0  0
   10.7904   15.4530   11.0186 H   0  0  0  0  0  0  0  0  0  0  0  0
    7.8888   12.2311    6.1468 N   0  0  0  0  0  0  0  0  0  0  0  0
   10.1637   11.3420    7.7515 N   0  0  0  0  0  0  0  0  0  0  0  0
    9.9000   16.1321    8.7294 C   0  0  0  0  0  0  0  0  0  0  0  0
   10.8074   15.9550    8.1368 H   0  0  0  0  0  0  0  0  0  0  0  0
   10.0984   16.9703    9.4122 H   0  0  0  0  0  0  0  0  0  0  0  0
    5.6992   14.5776    4.5734 C   0  0  0  0  0  0  0  0  0  0  0  0
    4.8241   14.9612    5.1015 H   0  0  0  0  0  0  0  0  0  0  0  0
    5.3819   14.0152    3.6928 H   0  0  0  0  0  0  0  0  0  0  0  0
  1 39  1  0  0  0  0
  1 40  1  0  0  0  0
  2  1  1  0  0  0  0
  3  1  1  0  0  0  0
  4  5  1  0  0  0  0
  4 28  2  0  0  0  0
  6  7  1  0  0  0  0
  8 33  1  0  0  0  0
  9 36  1  0  0  0  0
 11  6  2  0  0  0  0
 11 12  1  0  0  0  0
 13 23  1  0  0  0  0
 14 13  1  0  0  0  0
 15 24  1  0  0  0  0
 15 39  1  0  0  0  0
 16 15  1  0  0  0  0
 17 19  1  0  0  0  0
 17  8  1  0  0  0  0
 18 17  1  0  0  0  0
 20 36  1  0  0  0  0
 20 22  1  0  0  0  0
 21 20  1  0  0  0  0
 23 28  1  0  0  0  0
 23 20  1  0  0  0  0
 24 11  1  0  0  0  0
 25 10  1  0  0  0  0
 25 17  1  0  0  0  0
 26 25  1  0  0  0  0
 27 25  1  0  0  0  0
 28 29  1  0  0  0  0
 30 44  1  0  0  0  0
 30 10  1  0  0  0  0
 31 30  1  0  0  0  0
 32 30  1  0  0  0  0
 33 35  1  0  0  0  0
 33 41  1  0  0  0  0
 34 33  1  0  0  0  0
 36 38  1  0  0  0  0
 36 37  1  0  0  0  0
 39  6  1  0  0  0  0
 40 13  1  0  0  0  0
 40  4  1  0  0  0  0
 41 43  1  0  0  0  0
 41  9  1  0  0  0  0
 42 41  1  0  0  0  0
 44 45  1  0  0  0  0
 44 24  1  0  0  0  0
 46 44  1  0  0  0  0
M  END
$$$$
