CSD_code = QOHHOM | q = 0 | S = 0 | Stoichiometry = C16H18Cl2N4O2Pd | MND = 4
 OpenBabel04212202093D

 43 46  0  0  1  0  0  0  0  0999 V2000
    8.1946    7.2843   -0.0947 Pd  0  0  0  0  0  0  0  0  0  0  0  0
    9.8050    7.5389   -1.6045 Cl  0  0  0  0  0  0  0  0  0  0  0  0
   10.9509    3.6928    0.3399 O   0  0  0  0  0  0  0  0  0  0  0  0
   11.3209    3.1834   -0.3911 H   0  0  0  0  0  0  0  0  0  0  0  0
    9.5542    6.8647    1.3522 N   0  0  0  0  0  0  0  0  0  0  0  0
    9.6140    5.5928    1.7735 N   0  0  0  0  0  0  0  0  0  0  0  0
   10.7719    4.1742    3.4592 C   0  0  0  0  0  0  0  0  0  0  0  0
    9.8446    3.6452    3.6768 H   0  0  0  0  0  0  0  0  0  0  0  0
   11.3144    4.3412    4.3851 H   0  0  0  0  0  0  0  0  0  0  0  0
   11.3766    3.5449    2.8071 H   0  0  0  0  0  0  0  0  0  0  0  0
   10.4950    5.4716    2.7964 C   0  0  2  0  0  3  0  0  0  0  0  0
   10.9873    6.7365    3.0360 C   0  0  0  0  0  0  0  0  0  0  0  0
   11.6998    7.0157    3.7845 H   0  0  0  0  0  0  0  0  0  0  0  0
   10.3702    7.5823    2.0974 C   0  0  0  0  0  0  0  0  0  0  0  0
   10.4902    9.0433    1.8597 C   0  0  0  0  0  0  0  0  0  0  0  0
    9.8108    9.3145    1.0398 H   0  0  0  0  0  0  0  0  0  0  0  0
   11.5072    9.3002    1.5706 H   0  0  0  0  0  0  0  0  0  0  0  0
   10.2308    9.6070    2.7543 H   0  0  0  0  0  0  0  0  0  0  0  0
    8.8963    4.6011    1.0675 C   0  0  0  0  0  0  0  0  0  0  0  0
    9.5988    3.6685    0.2939 C   0  0  0  0  0  0  0  0  0  0  0  0
    8.8846    2.7616   -0.4809 C   0  0  0  0  0  0  0  0  0  0  0  0
    9.4195    2.0653   -1.1101 H   0  0  0  0  0  0  0  0  0  0  0  0
    5.4380    3.6929    0.3397 O   0  0  0  0  0  0  0  0  0  0  0  0
    5.0681    3.1830   -0.3909 H   0  0  0  0  0  0  0  0  0  0  0  0
    6.8347    6.8648    1.3520 N   0  0  0  0  0  0  0  0  0  0  0  0
    6.7749    5.5930    1.7733 N   0  0  0  0  0  0  0  0  0  0  0  0
    5.6170    4.1742    3.4590 C   0  0  0  0  0  0  0  0  0  0  0  0
    6.5444    3.6453    3.6767 H   0  0  0  0  0  0  0  0  0  0  0  0
    5.0745    4.3411    4.3849 H   0  0  0  0  0  0  0  0  0  0  0  0
    5.0125    3.5449    2.8068 H   0  0  0  0  0  0  0  0  0  0  0  0
    5.8939    5.4717    2.7963 C   0  0  1  0  0  3  0  0  0  0  0  0
    5.4016    6.7366    3.0358 C   0  0  0  0  0  0  0  0  0  0  0  0
    4.6891    7.0157    3.7844 H   0  0  0  0  0  0  0  0  0  0  0  0
    6.0187    7.5824    2.0973 C   0  0  0  0  0  0  0  0  0  0  0  0
    5.8987    9.0434    1.8597 C   0  0  0  0  0  0  0  0  0  0  0  0
    6.5779    9.3147    1.0398 H   0  0  0  0  0  0  0  0  0  0  0  0
    4.8816    9.3002    1.5707 H   0  0  0  0  0  0  0  0  0  0  0  0
    6.1581    9.6071    2.7543 H   0  0  0  0  0  0  0  0  0  0  0  0
    7.4926    4.6011    1.0675 C   0  0  0  0  0  0  0  0  0  0  0  0
    6.7900    3.6685    0.2938 C   0  0  0  0  0  0  0  0  0  0  0  0
    7.5043    2.7616   -0.4809 C   0  0  0  0  0  0  0  0  0  0  0  0
    6.9694    2.0654   -1.1101 H   0  0  0  0  0  0  0  0  0  0  0  0
    6.5836    7.5396   -1.6038 Cl  0  0  0  0  0  0  0  0  0  0  0  0
  1 25  1  0  0  0  0
  1  5  1  0  0  0  0
  2  1  1  0  0  0  0
  4  3  1  0  0  0  0
  5  6  1  0  0  0  0
  5 14  1  0  0  0  0
  6 11  1  0  0  0  0
  7  8  1  0  0  0  0
  7  9  1  0  0  0  0
 10  7  1  0  0  0  0
 11 12  1  0  0  0  0
 11  7  1  1  0  0  0
 12 13  1  0  0  0  0
 14 12  2  0  0  0  0
 15 14  1  0  0  0  0
 15 18  1  0  0  0  0
 16 15  1  0  0  0  0
 17 15  1  0  0  0  0
 19  6  1  0  0  0  0
 20  3  1  0  0  0  0
 20 19  2  0  0  0  0
 21 20  1  0  0  0  0
 22 21  1  0  0  0  0
 24 23  1  0  0  0  0
 25 26  1  0  0  0  0
 25 34  1  0  0  0  0
 26 31  1  0  0  0  0
 27 28  1  0  0  0  0
 27 29  1  0  0  0  0
 30 27  1  0  0  0  0
 31 32  1  0  0  0  0
 31 27  1  1  0  0  0
 32 33  1  0  0  0  0
 34 32  2  0  0  0  0
 35 34  1  0  0  0  0
 35 38  1  0  0  0  0
 36 35  1  0  0  0  0
 37 35  1  0  0  0  0
 39 19  1  0  0  0  0
 39 26  1  0  0  0  0
 40 23  1  0  0  0  0
 40 39  2  0  0  0  0
 41 21  2  0  0  0  0
 41 40  1  0  0  0  0
 42 41  1  0  0  0  0
 43  1  1  0  0  0  0
M  END
$$$$
