CSD_code = QOHWEQ | q = 0 | S = 0 | Stoichiometry = C20H20Cl2FeN4O4S4 | MND = 6
 OpenBabel04212202093D

 55 60  0  0  1  0  0  0  0  0999 V2000
    6.7585    0.0000    9.3893 Fe  0  0  0  0  0  0  0  0  0  0  0  0
    7.5263    1.0443   11.1235 Cl  0  0  0  0  0  0  0  0  0  0  0  0
    9.8545   -3.4196    9.8888 S   0  0  0  0  0  0  0  0  0  0  0  0
    7.1552   -3.0345   11.0828 S   0  0  0  0  0  0  0  0  0  0  0  0
   11.6669   -0.9028    7.4996 O   0  0  0  0  0  0  0  0  0  0  0  0
    8.0070    0.9669    8.2339 O   0  0  0  0  0  0  0  0  0  0  0  0
    9.2711   -0.8229    8.6479 N   0  0  0  0  0  0  0  0  0  0  0  0
    8.2723   -1.2753    9.4559 N   0  0  2  0  0  0  0  0  0  0  0  0
   11.3561    0.2841    6.9015 C   0  0  0  0  0  0  0  0  0  0  0  0
   12.2657    0.8874    6.0435 C   0  0  0  0  0  0  0  0  0  0  0  0
   13.2158    0.4015    5.8615 H   0  0  0  0  0  0  0  0  0  0  0  0
   11.9753    2.0894    5.4240 C   0  0  0  0  0  0  0  0  0  0  0  0
   12.6995    2.5365    4.7604 H   0  0  0  0  0  0  0  0  0  0  0  0
   10.7580    2.7089    5.6601 C   0  0  0  0  0  0  0  0  0  0  0  0
   10.5236    3.6461    5.1803 H   0  0  0  0  0  0  0  0  0  0  0  0
    9.8479    2.1208    6.5107 C   0  0  0  0  0  0  0  0  0  0  0  0
    8.8944    2.5831    6.7100 H   0  0  0  0  0  0  0  0  0  0  0  0
   10.1179    0.9045    7.1484 C   0  0  0  0  0  0  0  0  0  0  0  0
    9.0802    0.3673    8.0265 C   0  0  2  0  0  3  0  0  0  0  0  0
    8.4082   -2.4014   10.0553 C   0  0  0  0  0  3  0  0  0  0  0  0
    9.0827   -4.8855   10.6403 C   0  0  0  0  0  0  0  0  0  0  0  0
    8.5034   -5.3937    9.8685 H   0  0  0  0  0  0  0  0  0  0  0  0
    9.8844   -5.5331   10.9924 H   0  0  0  0  0  0  0  0  0  0  0  0
    8.2045   -4.3877   11.7605 C   0  0  0  0  0  0  0  0  0  0  0  0
    8.7951   -3.9828   12.5830 H   0  0  0  0  0  0  0  0  0  0  0  0
    7.5382   -5.1634   12.1320 H   0  0  0  0  0  0  0  0  0  0  0  0
   12.5510   -1.1811    7.2270 H   0  0  0  0  0  0  0  0  0  0  0  0
   10.1112   -1.3807    8.5145 H   0  0  0  0  0  0  0  0  0  0  0  0
    5.9907   -1.0443    7.6550 Cl  0  0  0  0  0  0  0  0  0  0  0  0
    3.6624    3.4195    8.8895 S   0  0  0  0  0  0  0  0  0  0  0  0
    6.3617    3.0343    7.6954 S   0  0  0  0  0  0  0  0  0  0  0  0
    1.8502    0.9029   11.2792 O   0  0  0  0  0  0  0  0  0  0  0  0
    5.5100   -0.9668   10.5446 O   0  0  0  0  0  0  0  0  0  0  0  0
    4.2460    0.8230   10.1307 N   0  0  0  0  0  0  0  0  0  0  0  0
    5.2448    1.2753    9.3226 N   0  0  1  0  0  0  0  0  0  0  0  0
    2.1610   -0.2840   11.8773 C   0  0  0  0  0  0  0  0  0  0  0  0
    1.2515   -0.8872   12.7353 C   0  0  0  0  0  0  0  0  0  0  0  0
    0.3013   -0.4013   12.9173 H   0  0  0  0  0  0  0  0  0  0  0  0
    1.5418   -2.0892   13.3547 C   0  0  0  0  0  0  0  0  0  0  0  0
    0.8177   -2.5363   14.0183 H   0  0  0  0  0  0  0  0  0  0  0  0
    2.7591   -2.7088   13.1186 C   0  0  0  0  0  0  0  0  0  0  0  0
    2.9935   -3.6460   13.5983 H   0  0  0  0  0  0  0  0  0  0  0  0
    3.6692   -2.1206   12.2679 C   0  0  0  0  0  0  0  0  0  0  0  0
    4.6227   -2.5830   12.0686 H   0  0  0  0  0  0  0  0  0  0  0  0
    3.3992   -0.9043   11.6303 C   0  0  0  0  0  0  0  0  0  0  0  0
    4.4369   -0.3672   10.7522 C   0  0  1  0  0  3  0  0  0  0  0  0
    5.1087    2.4013    8.7231 C   0  0  0  0  0  3  0  0  0  0  0  0
    4.4341    4.8853    8.1376 C   0  0  0  0  0  0  0  0  0  0  0  0
    5.0135    5.3937    8.9094 H   0  0  0  0  0  0  0  0  0  0  0  0
    3.6324    5.5328    7.7854 H   0  0  0  0  0  0  0  0  0  0  0  0
    5.3123    4.3873    7.0175 C   0  0  0  0  0  0  0  0  0  0  0  0
    4.7216    3.9822    6.1951 H   0  0  0  0  0  0  0  0  0  0  0  0
    5.9785    5.1630    6.6458 H   0  0  0  0  0  0  0  0  0  0  0  0
    0.9662    1.1813   11.5518 H   0  0  0  0  0  0  0  0  0  0  0  0
    3.4059    1.3809   10.2641 H   0  0  0  0  0  0  0  0  0  0  0  0
  1  8  1  0  0  0  0
  1 33  1  0  0  0  0
  1  2  1  0  0  0  0
  3 20  1  0  0  0  0
  3 21  1  0  0  0  0
  4 24  1  0  0  0  0
  6  1  1  0  0  0  0
  7  8  1  0  0  0  0
  8 20  1  6  0  0  0
  9 18  1  0  0  0  0
  9  5  1  0  0  0  0
 10  9  2  0  0  0  0
 11 10  1  0  0  0  0
 12 14  2  0  0  0  0
 12 10  1  0  0  0  0
 13 12  1  0  0  0  0
 14 16  1  0  0  0  0
 15 14  1  0  0  0  0
 16 17  1  0  0  0  0
 16 18  2  0  0  0  0
 19 18  1  1  0  0  0
 19  6  1  0  0  0  0
 19  7  1  0  0  0  0
 20  4  1  0  0  0  0
 21 23  1  0  0  0  0
 21 24  1  0  0  0  0
 22 21  1  0  0  0  0
 24 26  1  0  0  0  0
 24 25  1  0  0  0  0
 27  5  1  0  0  0  0
 28  7  1  0  0  0  0
 29  1  1  0  0  0  0
 31 47  1  0  0  0  0
 32 54  1  0  0  0  0
 32 36  1  0  0  0  0
 33 46  1  0  0  0  0
 34 55  1  0  0  0  0
 34 46  1  0  0  0  0
 35 47  1  1  0  0  0
 35  1  1  0  0  0  0
 35 34  1  0  0  0  0
 36 37  1  0  0  0  0
 37 38  1  0  0  0  0
 37 39  2  0  0  0  0
 39 40  1  0  0  0  0
 41 39  1  0  0  0  0
 41 42  1  0  0  0  0
 43 41  2  0  0  0  0
 44 43  1  0  0  0  0
 45 36  2  0  0  0  0
 45 43  1  0  0  0  0
 46 45  1  6  0  0  0
 47 30  1  0  0  0  0
 48 30  1  0  0  0  0
 48 49  1  0  0  0  0
 50 48  1  0  0  0  0
 51 31  1  0  0  0  0
 51 48  1  0  0  0  0
 52 51  1  0  0  0  0
 53 51  1  0  0  0  0
M  END
$$$$
