CSD_code = QOJKUX | q = 0 | S = 0 | Stoichiometry = C19H30ClN3Zr | MND = 13
 OpenBabel04212202093D

 54 56  0  0  1  0  0  0  0  0999 V2000
    2.3701   17.0353    7.8473 Zr  0  0  0  0  0  0  0  0  0  0  0  0
    2.3527   17.1830   10.2713 Cl  0  0  0  0  0  0  0  0  0  0  0  0
    2.3965   14.9747    8.2669 N   0  0  0  0  0  0  0  0  0  0  0  0
    2.4470   13.1018    6.6935 N   0  0  0  0  0  0  0  0  0  0  0  0
    2.4530   15.4327    6.1081 N   0  0  0  0  0  0  0  0  0  0  0  0
    2.4182   14.4928    7.0273 C   0  0  2  0  0  3  0  0  0  0  0  0
    2.2012   14.1590    9.4519 C   0  0  0  0  0  0  0  0  0  0  0  0
    2.8583   14.5523   10.2387 H   0  0  0  0  0  0  0  0  0  0  0  0
    2.4716   13.1130    9.2784 H   0  0  0  0  0  0  0  0  0  0  0  0
    0.7507   14.2402    9.9392 C   0  0  0  0  0  0  0  0  0  0  0  0
    0.5221   15.2665   10.2215 H   0  0  0  0  0  0  0  0  0  0  0  0
    0.6163   13.6003   10.8084 H   0  0  0  0  0  0  0  0  0  0  0  0
    0.0635   13.9214    9.1566 H   0  0  0  0  0  0  0  0  0  0  0  0
    3.6601   12.3909    7.0477 C   0  0  0  0  0  0  0  0  0  0  0  0
    3.6374   11.9498    8.0539 H   0  0  0  0  0  0  0  0  0  0  0  0
    4.5062   13.0721    6.9882 H   0  0  0  0  0  0  0  0  0  0  0  0
    3.8088   11.5765    6.3332 H   0  0  0  0  0  0  0  0  0  0  0  0
    1.2384   12.3410    6.9341 C   0  0  0  0  0  0  0  0  0  0  0  0
    1.1834   11.9086    7.9427 H   0  0  0  0  0  0  0  0  0  0  0  0
    1.2004   11.5169    6.2153 H   0  0  0  0  0  0  0  0  0  0  0  0
    0.3716   12.9810    6.7808 H   0  0  0  0  0  0  0  0  0  0  0  0
    2.5197   15.1465    4.6698 C   0  0  0  0  0  0  0  0  0  0  0  0
    2.7810   16.4756    3.9408 C   0  0  0  0  0  0  0  0  0  0  0  0
    2.1371   17.2635    4.3205 H   0  0  0  0  0  0  0  0  0  0  0  0
    2.5931   16.3532    2.8761 H   0  0  0  0  0  0  0  0  0  0  0  0
    3.8168   16.7773    4.0680 H   0  0  0  0  0  0  0  0  0  0  0  0
    1.1886   14.5548    4.1773 C   0  0  0  0  0  0  0  0  0  0  0  0
    1.0426   13.5652    4.5959 H   0  0  0  0  0  0  0  0  0  0  0  0
    1.1952   14.4732    3.0928 H   0  0  0  0  0  0  0  0  0  0  0  0
    0.3546   15.1850    4.4761 H   0  0  0  0  0  0  0  0  0  0  0  0
    3.6583   14.1891    4.2796 C   0  0  0  0  0  0  0  0  0  0  0  0
    4.5849   14.4761    4.7714 H   0  0  0  0  0  0  0  0  0  0  0  0
    3.8120   14.2353    3.2036 H   0  0  0  0  0  0  0  0  0  0  0  0
    3.4205   13.1683    4.5511 H   0  0  0  0  0  0  0  0  0  0  0  0
    0.0029   17.6621    8.5436 C   0  0  0  0  0  0  0  0  0  0  0  0
   -0.3978   17.4652    9.5296 H   0  0  0  0  0  0  0  0  0  0  0  0
    0.6650   18.8462    8.1553 C   0  0  2  0  0  0  0  0  0  0  0  0
    0.8491   19.6997    8.7983 H   0  0  0  0  0  0  0  0  0  0  0  0
    0.8862   18.7822    6.7604 C   0  0  0  0  0  0  0  0  0  0  0  0
    1.2318   19.5980    6.1358 H   0  0  0  0  0  0  0  0  0  0  0  0
    0.3698   17.5552    6.2981 C   0  0  0  0  0  0  0  0  0  0  0  0
    0.2340   17.2787    5.2636 H   0  0  0  0  0  0  0  0  0  0  0  0
   -0.1542   16.8502    7.4031 C   0  0  0  0  0  0  0  0  0  0  0  0
   -0.7149   15.9242    7.3544 H   0  0  0  0  0  0  0  0  0  0  0  0
    4.9038   17.1049    8.2064 C   0  0  0  0  0  0  0  0  0  0  0  0
    5.4480   16.3460    8.7579 H   0  0  0  0  0  0  0  0  0  0  0  0
    4.4757   18.3451    8.7205 C   0  0  0  0  0  0  0  0  0  0  0  0
    4.6176   18.6896    9.7355 H   0  0  0  0  0  0  0  0  0  0  0  0
    3.9073   19.0865    7.6724 C   0  0  0  0  0  0  0  0  0  0  0  0
    3.5871   20.1202    7.7351 H   0  0  0  0  0  0  0  0  0  0  0  0
    4.0238   18.3253    6.4848 C   0  0  1  0  0  0  0  0  0  0  0  0
    3.8379   18.6971    5.4857 H   0  0  0  0  0  0  0  0  0  0  0  0
    4.6556   17.1044    6.8160 C   0  0  0  0  0  0  0  0  0  0  0  0
    5.0173   16.3614    6.1183 H   0  0  0  0  0  0  0  0  0  0  0  0
  1 37  1  0  0  0  0
  1  3  1  0  0  0  0
  1  2  1  0  0  0  0
  3  7  1  0  0  0  0
  4 18  1  0  0  0  0
  4 14  1  0  0  0  0
  5  6  1  0  0  0  0
  5  1  1  0  0  0  0
  6  4  1  1  0  0  0
  6  3  1  0  0  0  0
  7 10  1  0  0  0  0
  7  8  1  0  0  0  0
  9  7  1  0  0  0  0
 10 11  1  0  0  0  0
 10 12  1  0  0  0  0
 13 10  1  0  0  0  0
 14 15  1  0  0  0  0
 16 14  1  0  0  0  0
 17 14  1  0  0  0  0
 18 19  1  0  0  0  0
 20 18  1  0  0  0  0
 21 18  1  0  0  0  0
 22  5  1  0  0  0  0
 23 26  1  0  0  0  0
 23 24  1  0  0  0  0
 23 22  1  0  0  0  0
 25 23  1  0  0  0  0
 27 30  1  0  0  0  0
 27 28  1  0  0  0  0
 27 22  1  0  0  0  0
 29 27  1  0  0  0  0
 31 34  1  0  0  0  0
 31 22  1  0  0  0  0
 31 32  1  0  0  0  0
 33 31  1  0  0  0  0
 35 36  1  0  0  0  0
 37 35  1  0  0  0  0
 37 38  1  1  0  0  0
 39 37  1  0  0  0  0
 40 39  1  0  0  0  0
 41 39  2  0  0  0  0
 41 43  1  0  0  0  0
 42 41  1  0  0  0  0
 43 35  2  0  0  0  0
 44 43  1  0  0  0  0
 45 47  1  0  0  0  0
 45 46  1  0  0  0  0
 47 48  1  0  0  0  0
 49 50  1  0  0  0  0
 49 47  2  0  0  0  0
 51 52  1  6  0  0  0
 51 53  1  0  0  0  0
 51 49  1  0  0  0  0
 51  1  1  0  0  0  0
 53 45  2  0  0  0  0
 54 53  1  0  0  0  0
M  END
$$$$
