CSD_code = QOJSAK | q = 1 | S = 0 | Stoichiometry = C28H26ClN6Ru(1+) | MND = 6
 OpenBabel04212202093D

 62 69  0  0  1  0  0  0  0  0999 V2000
   12.5772   11.5391    5.1156 Ru  0  0  0  0  0  0  0  0  0  0  0  0
   12.8002   12.2987    7.3381 Cl  0  0  0  0  0  0  0  0  0  0  0  0
   12.4934   10.8998    3.0632 N   0  0  2  0  0  4  0  0  0  0  0  0
   11.3818   10.4388    0.3104 N   0  0  0  0  0  0  0  0  0  0  0  0
   14.4885   10.9266    4.9441 N   0  0  0  0  0  0  0  0  0  0  0  0
   13.3719   13.1942    4.2849 N   0  0  0  0  0  0  0  0  0  0  0  0
   11.8017    9.9275    5.9560 N   0  0  0  0  0  0  0  0  0  0  0  0
   10.7082   12.1544    5.2968 N   0  0  0  0  0  0  0  0  0  0  0  0
   11.2614   10.1703    2.7126 C   0  0  0  0  0  0  0  0  0  0  0  0
   11.2630    9.5808    1.3175 C   0  0  0  0  0  0  0  0  0  0  0  0
   11.1356    8.2121    1.1146 C   0  0  0  0  0  0  0  0  0  0  0  0
   11.1191    7.7311   -0.1862 C   0  0  0  0  0  0  0  0  0  0  0  0
   11.2377    8.6297   -1.2336 C   0  0  0  0  0  0  0  0  0  0  0  0
   11.3704    9.9758   -0.9267 C   0  0  0  0  0  0  0  0  0  0  0  0
   13.6605   10.0219    2.8716 C   0  0  0  0  0  0  0  0  0  0  0  0
   14.8199   10.4370    3.7382 C   0  0  2  0  0  3  0  0  0  0  0  0
   16.1383   10.2620    3.3520 C   0  0  0  0  0  0  0  0  0  0  0  0
   17.1522   10.5853    4.2420 C   0  0  0  0  0  0  0  0  0  0  0  0
   16.8026   11.0677    5.4944 C   0  0  0  0  0  0  0  0  0  0  0  0
   15.4643   11.2302    5.8027 C   0  0  0  0  0  0  0  0  0  0  0  0
   12.6257   12.1258    2.2568 C   0  0  0  0  0  0  0  0  0  0  0  0
   13.4709   13.1613    2.9466 C   0  0  1  0  0  3  0  0  0  0  0  0
   14.2452   14.0714    2.2448 C   0  0  0  0  0  0  0  0  0  0  0  0
   14.9283   15.0572    2.9411 C   0  0  0  0  0  0  0  0  0  0  0  0
   14.8046   15.0974    4.3220 C   0  0  0  0  0  0  0  0  0  0  0  0
   14.0248   14.1463    4.9543 C   0  0  0  0  0  0  0  0  0  0  0  0
   12.4605    8.8115    6.2709 C   0  0  0  0  0  3  0  0  0  0  0  0
   11.9153    7.8023    7.0396 C   0  0  0  0  0  0  0  0  0  0  0  0
   10.6180    7.9487    7.5156 C   0  0  0  0  0  0  0  0  0  0  0  0
    9.9263    9.1026    7.1999 C   0  0  0  0  0  0  0  0  0  0  0  0
   10.5395   10.0834    6.4222 C   0  0  0  0  0  0  0  0  0  0  0  0
    9.9172   11.3510    6.0467 C   0  0  1  0  0  3  0  0  0  0  0  0
    8.6322   11.7406    6.4206 C   0  0  0  0  0  0  0  0  0  0  0  0
    8.1519   12.9759    6.0295 C   0  0  0  0  0  0  0  0  0  0  0  0
    8.9734   13.7948    5.2648 C   0  0  0  0  0  0  0  0  0  0  0  0
   10.2344   13.3444    4.9268 C   0  0  0  0  0  0  0  0  0  0  0  0
   11.1203    9.3645    3.4399 H   0  0  0  0  0  0  0  0  0  0  0  0
   10.4193   10.8643    2.8020 H   0  0  0  0  0  0  0  0  0  0  0  0
   11.0404    7.5373    1.9521 H   0  0  0  0  0  0  0  0  0  0  0  0
   11.0150    6.6736   -0.3755 H   0  0  0  0  0  0  0  0  0  0  0  0
   11.2265    8.2983   -2.2590 H   0  0  0  0  0  0  0  0  0  0  0  0
   11.4699   10.7240   -1.7013 H   0  0  0  0  0  0  0  0  0  0  0  0
   13.9591    9.9843    1.8161 H   0  0  0  0  0  0  0  0  0  0  0  0
   13.3718    9.0069    3.1721 H   0  0  0  0  0  0  0  0  0  0  0  0
   16.3652    9.8727    2.3718 H   0  0  0  0  0  0  0  0  0  0  0  0
   18.1859   10.4575    3.9640 H   0  0  0  0  0  0  0  0  0  0  0  0
   17.5548   11.3196    6.2236 H   0  0  0  0  0  0  0  0  0  0  0  0
   15.1405   11.6094    6.7648 H   0  0  0  0  0  0  0  0  0  0  0  0
   13.0147   11.9026    1.2573 H   0  0  0  0  0  0  0  0  0  0  0  0
   11.6232   12.5468    2.1206 H   0  0  0  0  0  0  0  0  0  0  0  0
   14.3033   14.0102    1.1695 H   0  0  0  0  0  0  0  0  0  0  0  0
   15.5362   15.7769    2.4167 H   0  0  0  0  0  0  0  0  0  0  0  0
   15.3068   15.8521    4.9044 H   0  0  0  0  0  0  0  0  0  0  0  0
   13.9005   14.1325    6.0307 H   0  0  0  0  0  0  0  0  0  0  0  0
   13.4766    8.7323    5.9018 H   0  0  0  0  0  0  0  0  0  0  0  0
   12.4982    6.9260    7.2714 H   0  0  0  0  0  0  0  0  0  0  0  0
   10.1638    7.1854    8.1264 H   0  0  0  0  0  0  0  0  0  0  0  0
    8.9244    9.2494    7.5670 H   0  0  0  0  0  0  0  0  0  0  0  0
    8.0222   11.0905    7.0251 H   0  0  0  0  0  0  0  0  0  0  0  0
    7.1656   13.2992    6.3207 H   0  0  0  0  0  0  0  0  0  0  0  0
    8.6463   14.7709    4.9465 H   0  0  0  0  0  0  0  0  0  0  0  0
   10.9028   13.9700    4.3467 H   0  0  0  0  0  0  0  0  0  0  0  0
  1  8  1  0  0  0  0
  1  7  1  0  0  0  0
  1  2  1  0  0  0  0
  3  9  1  6  0  0  0
  3  1  1  0  0  0  0
  4 10  1  0  0  0  0
  5  1  1  0  0  0  0
  5 20  1  0  0  0  0
  6 26  1  0  0  0  0
  6  1  1  0  0  0  0
  7 27  1  0  0  0  0
  7 31  1  0  0  0  0
  8 32  1  0  0  0  0
  9 38  1  0  0  0  0
  9 37  1  0  0  0  0
 10  9  1  0  0  0  0
 11 10  2  0  0  0  0
 11 39  1  0  0  0  0
 12 11  1  0  0  0  0
 13 14  1  0  0  0  0
 13 12  2  0  0  0  0
 14  4  2  0  0  0  0
 15  3  1  0  0  0  0
 15 44  1  0  0  0  0
 15 16  1  0  0  0  0
 16 17  1  1  0  0  0
 16  5  1  0  0  0  0
 17 18  2  0  0  0  0
 18 19  1  0  0  0  0
 19 20  2  0  0  0  0
 19 47  1  0  0  0  0
 20 48  1  0  0  0  0
 21 22  1  0  0  0  0
 21  3  1  0  0  0  0
 22 23  1  6  0  0  0
 22  6  1  0  0  0  0
 23 24  2  0  0  0  0
 24 25  1  0  0  0  0
 25 53  1  0  0  0  0
 25 26  2  0  0  0  0
 26 54  1  0  0  0  0
 27 28  1  0  0  0  0
 28 56  1  0  0  0  0
 28 29  2  0  0  0  0
 29 57  1  0  0  0  0
 30 29  1  0  0  0  0
 30 58  1  0  0  0  0
 31 30  2  0  0  0  0
 32 33  1  1  0  0  0
 32 31  1  0  0  0  0
 33 59  1  0  0  0  0
 34 60  1  0  0  0  0
 34 33  2  0  0  0  0
 35 34  1  0  0  0  0
 36 35  2  0  0  0  0
 36  8  1  0  0  0  0
 40 12  1  0  0  0  0
 41 13  1  0  0  0  0
 42 14  1  0  0  0  0
 43 15  1  0  0  0  0
 45 17  1  0  0  0  0
 46 18  1  0  0  0  0
 49 21  1  0  0  0  0
 50 21  1  0  0  0  0
 51 23  1  0  0  0  0
 52 24  1  0  0  0  0
 55 27  1  0  0  0  0
 61 35  1  0  0  0  0
 62 36  1  0  0  0  0
M  END
$$$$
