CSD_code = QOKSEO | q = 0 | S = 0 | Stoichiometry = C24H24Cl2N2O2PRe | MND = 6
 OpenBabel04212202093D

 56 59  0  0  0  0  0  0  0  0999 V2000
    0.3819    0.6210    3.6300 Re  0  0  0  0  0  0  0  0  0  0  0  0
    1.0784   -1.1767    5.0650 P   0  0  0  0  0  4  0  0  0  0  0  0
   -0.5493   -1.1240    2.2599 Cl  0  0  0  0  0  0  0  0  0  0  0  0
    1.5439    2.3065    4.8644 Cl  0  0  0  0  0  0  0  0  0  0  0  0
    1.8043    0.5406    2.6071 O   0  0  0  0  0  0  0  0  0  0  0  0
   -1.0171    0.8234    4.4913 O   0  0  0  0  0  1  0  0  0  0  0  0
   -0.4067    2.3199    2.1307 N   0  0  0  0  0  0  0  0  0  0  0  0
   -1.4206    4.2415    0.4371 N   0  0  0  0  0  0  0  0  0  0  0  0
   -0.1399   -2.4923    5.3351 C   0  0  0  0  0  0  0  0  0  0  0  0
    0.2830   -3.7532    5.7460 C   0  0  0  0  0  0  0  0  0  0  0  0
    1.3384   -3.9650    5.8495 H   0  0  0  0  0  0  0  0  0  0  0  0
   -0.6527   -4.7356    6.0122 C   0  0  0  0  0  0  0  0  0  0  0  0
   -0.3260   -5.7176    6.3216 H   0  0  0  0  0  0  0  0  0  0  0  0
   -2.0050   -4.4616    5.8811 C   0  0  0  0  0  0  0  0  0  0  0  0
   -2.7313   -5.2345    6.0847 H   0  0  0  0  0  0  0  0  0  0  0  0
   -2.4252   -3.2003    5.4917 C   0  0  0  0  0  0  0  0  0  0  0  0
   -3.4787   -2.9873    5.3933 H   0  0  0  0  0  0  0  0  0  0  0  0
   -1.4965   -2.2108    5.2228 C   0  0  0  0  0  0  0  0  0  0  0  0
   -1.8097   -1.2228    4.9104 H   0  0  0  0  0  0  0  0  0  0  0  0
    2.5522   -1.9293    4.3456 C   0  0  0  0  0  0  0  0  0  0  0  0
    3.7951   -1.3423    4.5748 C   0  0  0  0  0  0  0  0  0  0  0  0
    3.8688   -0.4905    5.2383 H   0  0  0  0  0  0  0  0  0  0  0  0
    4.9180   -1.8432    3.9413 C   0  0  0  0  0  0  0  0  0  0  0  0
    5.8830   -1.3922    4.1209 H   0  0  0  0  0  0  0  0  0  0  0  0
    4.8036   -2.9147    3.0688 C   0  0  0  0  0  0  0  0  0  0  0  0
    5.6819   -3.3016    2.5736 H   0  0  0  0  0  0  0  0  0  0  0  0
    3.5626   -3.4789    2.8169 C   0  0  0  0  0  0  0  0  0  0  0  0
    3.4729   -4.2992    2.1202 H   0  0  0  0  0  0  0  0  0  0  0  0
    2.4332   -2.9854    3.4461 C   0  0  0  0  0  0  0  0  0  0  0  0
    1.4574   -3.3988    3.2324 H   0  0  0  0  0  0  0  0  0  0  0  0
    1.4648   -0.6956    6.7693 C   0  0  0  0  0  0  0  0  0  0  0  0
    0.6861    0.3030    7.3469 C   0  0  0  0  0  0  0  0  0  0  0  0
   -0.0688    0.7973    6.7483 H   0  0  0  0  0  0  0  0  0  0  0  0
    0.9033    0.6663    8.6630 C   0  0  0  0  0  0  0  0  0  0  0  0
    0.3105    1.4505    9.1083 H   0  0  0  0  0  0  0  0  0  0  0  0
    1.8857    0.0302    9.4052 C   0  0  0  0  0  0  0  0  0  0  0  0
    2.0604    0.3197   10.4308 H   0  0  0  0  0  0  0  0  0  0  0  0
    2.6468   -0.9776    8.8355 C   0  0  0  0  0  0  0  0  0  0  0  0
    3.4086   -1.4760    9.4171 H   0  0  0  0  0  0  0  0  0  0  0  0
    2.4374   -1.3479    7.5192 C   0  0  0  0  0  0  0  0  0  0  0  0
    3.0325   -2.1342    7.0754 H   0  0  0  0  0  0  0  0  0  0  0  0
   -1.0964    1.9749    1.0515 C   0  0  0  0  0  3  0  0  0  0  0  0
   -1.2422    0.9161    0.8778 H   0  0  0  0  0  0  0  0  0  0  0  0
   -1.6022    2.9531    0.2030 C   0  0  0  0  0  0  0  0  0  0  0  0
   -2.1643    2.6964   -0.6836 H   0  0  0  0  0  0  0  0  0  0  0  0
   -0.7374    4.5699    1.5200 C   0  0  0  0  0  0  0  0  0  0  0  0
   -0.5989    5.6258    1.7036 H   0  0  0  0  0  0  0  0  0  0  0  0
   -0.2206    3.6085    2.3817 C   0  0  0  0  0  0  0  0  0  0  0  0
    0.3451    3.8573    3.2708 H   0  0  0  0  0  0  0  0  0  0  0  0
    2.8564    0.6083    1.7443 C   0  0  0  0  0  0  0  0  0  0  0  0
    2.8987    1.6278    1.3211 H   0  0  0  0  0  0  0  0  0  0  0  0
    3.7923    0.4393    2.3041 H   0  0  0  0  0  0  0  0  0  0  0  0
    2.7330   -0.4183    0.6152 C   0  0  0  0  0  0  0  0  0  0  0  0
    2.7356   -1.4245    1.0284 H   0  0  0  0  0  0  0  0  0  0  0  0
    3.5644   -0.3094   -0.0757 H   0  0  0  0  0  0  0  0  0  0  0  0
    1.7962   -0.2714    0.0820 H   0  0  0  0  0  0  0  0  0  0  0  0
  1  6  1  0  0  0  0
  1  4  1  0  0  0  0
  1  2  1  0  0  0  0
  2  9  1  0  0  0  0
  2 31  1  0  0  0  0
  3  1  1  0  0  0  0
  5  1  1  0  0  0  0
  7 48  1  0  0  0  0
  7  1  1  0  0  0  0
  8 46  1  0  0  0  0
  9 10  1  0  0  0  0
 10 11  1  0  0  0  0
 10 12  2  0  0  0  0
 12 13  1  0  0  0  0
 14 12  1  0  0  0  0
 14 15  1  0  0  0  0
 16 14  2  0  0  0  0
 17 16  1  0  0  0  0
 18  9  2  0  0  0  0
 18 16  1  0  0  0  0
 19 18  1  0  0  0  0
 20 21  1  0  0  0  0
 20  2  1  0  0  0  0
 21 22  1  0  0  0  0
 23 24  1  0  0  0  0
 23 21  2  0  0  0  0
 25 23  1  0  0  0  0
 26 25  1  0  0  0  0
 27 25  2  0  0  0  0
 27 29  1  0  0  0  0
 28 27  1  0  0  0  0
 29 20  2  0  0  0  0
 30 29  1  0  0  0  0
 31 32  2  0  0  0  0
 31 40  1  0  0  0  0
 32 34  1  0  0  0  0
 33 32  1  0  0  0  0
 34 35  1  0  0  0  0
 34 36  2  0  0  0  0
 36 37  1  0  0  0  0
 38 36  1  0  0  0  0
 38 39  1  0  0  0  0
 40 38  2  0  0  0  0
 41 40  1  0  0  0  0
 42  7  1  0  0  0  0
 43 42  1  0  0  0  0
 44  8  2  0  0  0  0
 44 42  1  0  0  0  0
 45 44  1  0  0  0  0
 46 47  1  0  0  0  0
 46 48  2  0  0  0  0
 48 49  1  0  0  0  0
 50 52  1  0  0  0  0
 50  5  1  0  0  0  0
 51 50  1  0  0  0  0
 53 54  1  0  0  0  0
 53 50  1  0  0  0  0
 55 53  1  0  0  0  0
 56 53  1  0  0  0  0
M  END
$$$$
