CSD_code = QOKYAQ | q = 0 | S = 0 | Stoichiometry = C14H20CdI2N8S2 | MND = 4
 OpenBabel04212202093D

 47 48  0  0  0  0  0  0  0  0999 V2000
    5.7431    1.6451   -0.4672 Cd  0  0  0  0  0  0  0  0  0  0  0  0
    7.4497    3.2479    0.8956 I   0  0  0  0  0  0  0  0  0  0  0  0
    4.4589   -0.7265   -0.2086 I   0  0  0  0  0  0  0  0  0  0  0  0
    6.6257    1.4850   -3.2354 S   0  0  0  0  0  0  0  0  0  0  0  0
    3.8832    3.6105   -1.5315 S   0  0  0  0  0  0  0  0  0  0  0  0
    1.3091   -1.9928   -4.5943 N   0  0  0  0  0  0  0  0  0  0  0  0
    3.1345   -0.0964   -3.8905 N   0  0  0  0  0  0  0  0  0  0  0  0
    4.1151    0.7620   -3.5083 N   0  0  0  0  0  0  0  0  0  0  0  0
    5.6647   -0.6200   -4.4854 N   0  0  0  0  0  4  0  0  0  0  0  0
    8.7265    7.9229   -1.9764 N   0  0  0  0  0  0  0  0  0  0  0  0
    7.0426    5.7897   -2.1599 N   0  0  0  0  0  0  0  0  0  0  0  0
    6.1621    4.7556   -2.1611 N   0  0  0  0  0  0  0  0  0  0  0  0
    4.6250    6.0981   -1.1112 N   0  0  0  0  0  4  0  0  0  0  0  0
    0.2162   -2.7205   -4.8970 C   0  0  0  0  0  0  0  0  0  0  0  0
   -0.8935   -2.0333   -4.4634 C   0  0  0  0  0  0  0  0  0  0  0  0
   -0.4435   -0.8503   -3.8687 C   0  0  0  0  0  0  0  0  0  0  0  0
    0.9417   -0.8398   -3.9565 C   0  0  0  0  0  0  0  0  0  0  0  0
    1.9163    0.1229   -3.5281 C   0  0  0  0  0  0  0  0  0  0  0  0
    5.3941    0.4712   -3.7606 C   0  0  0  0  0  0  0  0  0  0  0  0
    9.7213    8.8280   -2.0600 C   0  0  0  0  0  0  0  0  0  0  0  0
   10.7863    8.2406   -2.7025 C   0  0  0  0  0  0  0  0  0  0  0  0
   10.4153    6.9270   -3.0058 C   0  0  0  0  0  0  0  0  0  0  0  0
    9.1197    6.7415   -2.5432 C   0  0  0  0  0  0  0  0  0  0  0  0
    8.2447    5.6049   -2.5903 C   0  0  0  0  0  0  0  0  0  0  0  0
    4.9634    4.8953   -1.5893 C   0  0  0  0  0  0  0  0  0  0  0  0
    1.4769    1.2883   -2.6960 C   0  0  0  0  0  0  0  0  0  0  0  0
    8.7669    4.3004   -3.1088 C   0  0  0  0  0  0  0  0  0  0  0  0
    0.2873   -3.6684   -5.3931 H   0  0  0  0  0  0  0  0  0  0  0  0
   -1.9130   -2.3478   -4.5618 H   0  0  0  0  0  0  0  0  0  0  0  0
   -1.0675   -0.0947   -3.4360 H   0  0  0  0  0  0  0  0  0  0  0  0
    9.6183    9.8200   -1.6661 H   0  0  0  0  0  0  0  0  0  0  0  0
   11.7266    8.7033   -2.9256 H   0  0  0  0  0  0  0  0  0  0  0  0
   11.0284    6.2084   -3.5112 H   0  0  0  0  0  0  0  0  0  0  0  0
    2.2677   -2.2448   -4.7624 H   0  0  0  0  0  0  0  0  0  0  0  0
    3.9051    1.6078   -2.9697 H   0  0  0  0  0  0  0  0  0  0  0  0
    6.6164   -0.9254   -4.5875 H   0  0  0  0  0  0  0  0  0  0  0  0
    4.8978   -1.2427   -4.6858 H   0  0  0  0  0  0  0  0  0  0  0  0
    1.7346    2.2330   -3.1756 H   0  0  0  0  0  0  0  0  0  0  0  0
    1.9751    1.2596   -1.7251 H   0  0  0  0  0  0  0  0  0  0  0  0
    0.4078    1.2617   -2.5282 H   0  0  0  0  0  0  0  0  0  0  0  0
    7.8293    8.0507   -1.5412 H   0  0  0  0  0  0  0  0  0  0  0  0
    6.4141    3.8401   -2.5457 H   0  0  0  0  0  0  0  0  0  0  0  0
    5.3464    6.8012   -1.0778 H   0  0  0  0  0  0  0  0  0  0  0  0
    3.7830    6.1988   -0.5726 H   0  0  0  0  0  0  0  0  0  0  0  0
    8.1764    3.9495   -3.9556 H   0  0  0  0  0  0  0  0  0  0  0  0
    8.7130    3.5416   -2.3261 H   0  0  0  0  0  0  0  0  0  0  0  0
    9.7998    4.3934   -3.4189 H   0  0  0  0  0  0  0  0  0  0  0  0
  1  3  1  0  0  0  0
  1  2  1  0  0  0  0
  4  1  1  0  0  0  0
  5  1  1  0  0  0  0
  6 17  1  0  0  0  0
  7 18  2  0  0  0  0
  7  8  1  0  0  0  0
  8 35  1  0  0  0  0
  9 19  2  0  0  0  0
 10 41  1  0  0  0  0
 12 11  1  0  0  0  0
 12 25  1  0  0  0  0
 13 43  1  0  0  0  0
 13 44  1  0  0  0  0
 14  6  1  0  0  0  0
 14 15  2  0  0  0  0
 15 16  1  0  0  0  0
 16 30  1  0  0  0  0
 17 16  2  0  0  0  0
 17 18  1  0  0  0  0
 18 26  1  0  0  0  0
 19  8  1  0  0  0  0
 19  4  1  0  0  0  0
 20 10  1  0  0  0  0
 20 31  1  0  0  0  0
 21 20  2  0  0  0  0
 22 21  1  0  0  0  0
 22 23  2  0  0  0  0
 23 10  1  0  0  0  0
 24 23  1  0  0  0  0
 24 11  2  0  0  0  0
 25  5  1  0  0  0  0
 25 13  2  0  0  0  0
 26 40  1  0  0  0  0
 26 39  1  0  0  0  0
 27 24  1  0  0  0  0
 27 46  1  0  0  0  0
 28 14  1  0  0  0  0
 29 15  1  0  0  0  0
 32 21  1  0  0  0  0
 33 22  1  0  0  0  0
 34  6  1  0  0  0  0
 36  9  1  0  0  0  0
 37  9  1  0  0  0  0
 38 26  1  0  0  0  0
 42 12  1  0  0  0  0
 45 27  1  0  0  0  0
 47 27  1  0  0  0  0
M  END
$$$$
