CSD_code = QOLXOG | q = 0 | S = 0 | Stoichiometry = C23H30BrFeN3 | MND = 4
 OpenBabel04212202093D

 58 60  0  0  1  0  0  0  0  0999 V2000
   11.5512    8.3916    1.1481 Br  0  0  0  0  0  0  0  0  0  0  0  0
    9.4741    8.1583    0.4559 Fe  0  0  0  0  0  0  0  0  0  0  0  0
    8.4485    8.7752   -1.0463 N   0  0  0  0  0  0  0  0  0  0  0  0
    7.7382    7.7774    1.2555 N   0  0  0  0  0  0  0  0  0  0  0  0
    9.4964    5.7528    1.0964 N   0  0  0  0  0  0  0  0  0  0  0  0
    6.6774    9.4637   -2.6065 C   0  0  0  0  0  0  0  0  0  0  0  0
    7.4452   10.0918   -3.0527 H   0  0  0  0  0  0  0  0  0  0  0  0
    5.7900   10.0614   -2.4091 H   0  0  0  0  0  0  0  0  0  0  0  0
    6.4057    8.6906   -3.3256 H   0  0  0  0  0  0  0  0  0  0  0  0
    7.1689    8.8241   -1.3316 C   0  0  1  0  0  3  0  0  0  0  0  0
    6.2212    8.2423   -0.4882 C   0  0  0  0  0  0  0  0  0  0  0  0
    6.5254    7.6811    0.7486 C   0  0  0  0  0  0  0  0  0  0  0  0
    5.4085    6.9941    1.4967 C   0  0  0  0  0  0  0  0  0  0  0  0
    9.4276    9.4123   -1.8296 C   0  0  0  0  0  0  0  0  0  0  0  0
    9.9804    8.7589   -2.9468 C   0  0  0  0  0  0  0  0  0  0  0  0
   10.9486    9.4112   -3.6918 C   0  0  0  0  0  0  0  0  0  0  0  0
   11.3547   10.6914   -3.3604 C   0  0  0  0  0  0  0  0  0  0  0  0
   10.8170   11.3270   -2.2574 C   0  0  0  0  0  0  0  0  0  0  0  0
    9.8635   10.7021   -1.4681 C   0  0  0  0  0  0  0  0  0  0  0  0
    9.5490    7.3442   -3.2514 C   0  0  0  0  0  0  0  0  0  0  0  0
   10.3754    6.3971   -2.3766 C   0  0  0  0  0  0  0  0  0  0  0  0
    9.6709    6.9653   -4.7257 C   0  0  0  0  0  0  0  0  0  0  0  0
    9.2873   11.3966   -0.2532 C   0  0  0  0  0  0  0  0  0  0  0  0
   10.3653   12.0814    0.5879 C   0  0  0  0  0  0  0  0  0  0  0  0
    8.2213   12.4074   -0.6840 C   0  0  0  0  0  0  0  0  0  0  0  0
    7.4036   11.9086   -1.1980 H   0  0  0  0  0  0  0  0  0  0  0  0
    8.6521   13.1473   -1.3560 H   0  0  0  0  0  0  0  0  0  0  0  0
    7.8182   12.9224    0.1854 H   0  0  0  0  0  0  0  0  0  0  0  0
    8.0776    7.0830    2.4833 C   0  0  0  0  0  0  0  0  0  0  0  0
    8.6633    5.7365    2.1379 C   0  0  0  0  0  0  0  0  0  0  0  0
    8.3693    4.5752    2.8371 C   0  0  0  0  0  0  0  0  0  0  0  0
    8.9784    3.3920    2.4511 C   0  0  0  0  0  0  0  0  0  0  0  0
    9.8579    3.4158    1.3806 C   0  0  0  0  0  0  0  0  0  0  0  0
   10.0816    4.6216    0.7360 C   0  0  0  0  0  0  0  0  0  0  0  0
   11.3919    8.9228   -4.5448 H   0  0  0  0  0  0  0  0  0  0  0  0
    5.1975    8.2238   -0.8249 H   0  0  0  0  0  0  0  0  0  0  0  0
    5.6655    5.9531    1.6923 H   0  0  0  0  0  0  0  0  0  0  0  0
   10.7652    4.6863   -0.0984 H   0  0  0  0  0  0  0  0  0  0  0  0
    4.4958    7.0192    0.9089 H   0  0  0  0  0  0  0  0  0  0  0  0
   12.1017   11.1911   -3.9591 H   0  0  0  0  0  0  0  0  0  0  0  0
    7.6854    4.6006    3.6720 H   0  0  0  0  0  0  0  0  0  0  0  0
    5.2155    7.4892    2.4486 H   0  0  0  0  0  0  0  0  0  0  0  0
    7.2339    6.9834    3.1708 H   0  0  0  0  0  0  0  0  0  0  0  0
    8.7735    2.4722    2.9788 H   0  0  0  0  0  0  0  0  0  0  0  0
    8.5005    7.2356   -2.9564 H   0  0  0  0  0  0  0  0  0  0  0  0
   11.1510   12.3213   -2.0055 H   0  0  0  0  0  0  0  0  0  0  0  0
    8.8575    7.6647    2.9982 H   0  0  0  0  0  0  0  0  0  0  0  0
   10.3615    2.5206    1.0524 H   0  0  0  0  0  0  0  0  0  0  0  0
   11.4352    6.5014   -2.5995 H   0  0  0  0  0  0  0  0  0  0  0  0
    8.8025   10.6346    0.3809 H   0  0  0  0  0  0  0  0  0  0  0  0
   10.0769    5.3648   -2.5470 H   0  0  0  0  0  0  0  0  0  0  0  0
   10.2108    6.6423   -1.3223 H   0  0  0  0  0  0  0  0  0  0  0  0
    9.9377   12.4172    1.5302 H   0  0  0  0  0  0  0  0  0  0  0  0
   11.1773   11.3921    0.8044 H   0  0  0  0  0  0  0  0  0  0  0  0
   10.7740   12.9499    0.0775 H   0  0  0  0  0  0  0  0  0  0  0  0
   10.7122    6.8703   -5.0238 H   0  0  0  0  0  0  0  0  0  0  0  0
    9.1862    6.0065   -4.8985 H   0  0  0  0  0  0  0  0  0  0  0  0
    9.1923    7.7110   -5.3568 H   0  0  0  0  0  0  0  0  0  0  0  0
  2  1  1  0  0  0  0
  2  4  1  0  0  0  0
  3  2  1  0  0  0  0
  4 29  1  0  0  0  0
  5 30  1  0  0  0  0
  6  8  1  0  0  0  0
  7  6  1  0  0  0  0
  9  6  1  0  0  0  0
 10  6  1  6  0  0  0
 10  3  1  0  0  0  0
 10 11  1  0  0  0  0
 11 12  2  0  0  0  0
 12  4  1  0  0  0  0
 12 13  1  0  0  0  0
 13 37  1  0  0  0  0
 13 42  1  0  0  0  0
 14 19  1  0  0  0  0
 14  3  1  0  0  0  0
 15 14  2  0  0  0  0
 16 17  2  0  0  0  0
 16 15  1  0  0  0  0
 17 18  1  0  0  0  0
 18 46  1  0  0  0  0
 18 19  2  0  0  0  0
 19 23  1  0  0  0  0
 20 45  1  0  0  0  0
 20 15  1  0  0  0  0
 20 21  1  0  0  0  0
 21 52  1  0  0  0  0
 22 20  1  0  0  0  0
 23 50  1  0  0  0  0
 23 24  1  0  0  0  0
 24 54  1  0  0  0  0
 24 53  1  0  0  0  0
 25 23  1  0  0  0  0
 25 28  1  0  0  0  0
 26 25  1  0  0  0  0
 27 25  1  0  0  0  0
 29 47  1  0  0  0  0
 29 43  1  0  0  0  0
 30 29  1  0  0  0  0
 30 31  2  0  0  0  0
 31 41  1  0  0  0  0
 32 31  1  0  0  0  0
 32 44  1  0  0  0  0
 33 32  2  0  0  0  0
 34  5  2  0  0  0  0
 34 33  1  0  0  0  0
 35 16  1  0  0  0  0
 36 11  1  0  0  0  0
 38 34  1  0  0  0  0
 39 13  1  0  0  0  0
 40 17  1  0  0  0  0
 48 33  1  0  0  0  0
 49 21  1  0  0  0  0
 51 21  1  0  0  0  0
 55 24  1  0  0  0  0
 56 22  1  0  0  0  0
 57 22  1  0  0  0  0
 58 22  1  0  0  0  0
M  END
$$$$
