CSD_code = QOMMAH | q = 0 | S = 0 | Stoichiometry = C21H27I2N5ORu | MND = 6
 OpenBabel04212202093D

 57 61  0  0  1  0  0  0  0  0999 V2000
   11.8601   12.4085    1.7638 Ru  0  0  0  0  0  0  0  0  0  0  0  0
   14.1334   12.1428    0.2653 I   0  0  0  0  0  0  0  0  0  0  0  0
    9.5197   12.5320    3.1592 I   0  0  0  0  0  0  0  0  0  0  0  0
   12.3403   15.3647    1.6540 O   0  0  0  0  0  1  0  0  0  0  0  0
   11.6814   10.4621    1.6842 N   0  0  0  0  0  0  0  0  0  0  0  0
   12.9019   10.5304    3.5757 N   0  0  0  0  0  0  0  0  0  0  0  0
   13.5322   12.3876    4.4757 N   0  0  0  0  0  0  0  0  0  0  0  0
   10.7417   12.1247    0.0427 N   0  0  0  0  0  0  0  0  0  0  0  0
   10.5134   10.8104   -0.2260 N   0  0  1  0  0  0  0  0  0  0  0  0
   11.0443    9.8806    0.6617 C   0  0  1  0  0  3  0  0  0  0  0  0
   10.9740    8.4949    0.5686 C   0  0  0  0  0  0  0  0  0  0  0  0
   10.4720    8.0076   -0.2449 H   0  0  0  0  0  0  0  0  0  0  0  0
   11.5825    7.7370    1.5601 C   0  0  0  0  0  0  0  0  0  0  0  0
   11.5389    6.6612    1.5048 H   0  0  0  0  0  0  0  0  0  0  0  0
   12.2498    8.3454    2.6117 C   0  0  0  0  0  0  0  0  0  0  0  0
   12.7324    7.7668    3.3803 H   0  0  0  0  0  0  0  0  0  0  0  0
   12.2794    9.7325    2.6315 C   0  0  0  0  0  0  0  0  0  0  0  0
   12.8610   11.8988    3.4254 C   0  0  1  0  0  3  0  0  0  0  0  0
   13.9851   11.3642    5.2736 C   0  0  0  0  0  0  0  0  0  0  0  0
   14.5489   11.5483    6.1648 H   0  0  0  0  0  0  0  0  0  0  0  0
   13.5991   10.1978    4.7146 C   0  0  0  0  0  0  0  0  0  0  0  0
   13.7612    9.1878    5.0271 H   0  0  0  0  0  0  0  0  0  0  0  0
   13.6652   13.7866    4.7978 C   0  0  0  0  0  0  0  0  0  0  0  0
   13.5476   14.3518    3.8707 H   0  0  0  0  0  0  0  0  0  0  0  0
   14.6679   13.9645    5.1964 H   0  0  0  0  0  0  0  0  0  0  0  0
   12.5999   14.2043    5.8152 C   0  0  0  0  0  0  0  0  0  0  0  0
   11.6167   13.9332    5.4291 H   0  0  0  0  0  0  0  0  0  0  0  0
   12.7577   13.6435    6.7403 H   0  0  0  0  0  0  0  0  0  0  0  0
   12.6373   15.6993    6.1301 C   0  0  0  0  0  0  0  0  0  0  0  0
   13.6458   15.9683    6.4557 H   0  0  0  0  0  0  0  0  0  0  0  0
   11.9600   15.8828    6.9669 H   0  0  0  0  0  0  0  0  0  0  0  0
   12.2299   16.6086    4.9691 C   0  0  0  0  0  0  0  0  0  0  0  0
   12.3309   17.6448    5.3021 H   0  0  0  0  0  0  0  0  0  0  0  0
   12.9121   16.4759    4.1276 H   0  0  0  0  0  0  0  0  0  0  0  0
   10.7958   16.3803    4.4985 C   0  0  0  0  0  0  0  0  0  0  0  0
   10.1148   16.4585    5.3490 H   0  0  0  0  0  0  0  0  0  0  0  0
   10.6957   15.3753    4.0875 H   0  0  0  0  0  0  0  0  0  0  0  0
   10.3792   17.3778    3.4211 C   0  0  0  0  0  0  0  0  0  0  0  0
   10.4271   18.3938    3.8210 H   0  0  0  0  0  0  0  0  0  0  0  0
   11.0819   17.3177    2.5876 H   0  0  0  0  0  0  0  0  0  0  0  0
    8.9704   17.0909    2.9169 C   0  0  0  0  0  0  0  0  0  0  0  0
    8.9047   16.0745    2.5351 H   0  0  0  0  0  0  0  0  0  0  0  0
    8.6970   17.7795    2.1204 H   0  0  0  0  0  0  0  0  0  0  0  0
    8.2478   17.1911    3.7236 H   0  0  0  0  0  0  0  0  0  0  0  0
    9.7609   10.6915   -1.3632 C   0  0  2  0  0  3  0  0  0  0  0  0
    9.5206   11.9697   -1.8023 C   0  0  0  0  0  0  0  0  0  0  0  0
    8.9600   12.2535   -2.6689 H   0  0  0  0  0  0  0  0  0  0  0  0
   10.1509   12.8389   -0.8926 C   0  0  0  0  0  0  0  0  0  0  0  0
    9.3044    9.4210   -1.9771 C   0  0  0  0  0  0  0  0  0  0  0  0
    8.7082    9.6584   -2.8545 H   0  0  0  0  0  0  0  0  0  0  0  0
    8.6844    8.8479   -1.2877 H   0  0  0  0  0  0  0  0  0  0  0  0
   10.1490    8.8094   -2.2949 H   0  0  0  0  0  0  0  0  0  0  0  0
   10.1936   14.3217   -0.8967 C   0  0  0  0  0  0  0  0  0  0  0  0
    9.8290   14.7107    0.0557 H   0  0  0  0  0  0  0  0  0  0  0  0
    9.5781   14.7146   -1.7005 H   0  0  0  0  0  0  0  0  0  0  0  0
   11.2192   14.6686   -1.0324 H   0  0  0  0  0  0  0  0  0  0  0  0
   12.1127   14.2428    1.7489 C   0  0  0  0  0  2  0  0  0  0  0  0
  1  3  1  0  0  0  0
  1 18  1  0  0  0  0
  2  1  1  0  0  0  0
  4 57  1  0  0  0  0
  5  1  1  0  0  0  0
  5 17  1  0  0  0  0
  6 21  1  0  0  0  0
  7 23  1  0  0  0  0
  7 19  1  0  0  0  0
  8  1  1  0  0  0  0
  9  8  1  1  0  0  0
  9 10  1  0  0  0  0
 10 11  1  6  0  0  0
 10  5  1  0  0  0  0
 11 13  2  0  0  0  0
 12 11  1  0  0  0  0
 13 15  1  0  0  0  0
 14 13  1  0  0  0  0
 15 17  2  0  0  0  0
 15 16  1  0  0  0  0
 17  6  1  0  0  0  0
 18  6  1  6  0  0  0
 18  7  1  0  0  0  0
 19 20  1  0  0  0  0
 21 22  1  0  0  0  0
 21 19  2  0  0  0  0
 23 25  1  0  0  0  0
 23 26  1  0  0  0  0
 24 23  1  0  0  0  0
 26 29  1  0  0  0  0
 26 28  1  0  0  0  0
 27 26  1  0  0  0  0
 29 30  1  0  0  0  0
 29 31  1  0  0  0  0
 32 33  1  0  0  0  0
 32 29  1  0  0  0  0
 34 32  1  0  0  0  0
 35 32  1  0  0  0  0
 35 36  1  0  0  0  0
 37 35  1  0  0  0  0
 38 39  1  0  0  0  0
 38 35  1  0  0  0  0
 40 38  1  0  0  0  0
 41 38  1  0  0  0  0
 41 44  1  0  0  0  0
 42 41  1  0  0  0  0
 43 41  1  0  0  0  0
 45 49  1  1  0  0  0
 45  9  1  0  0  0  0
 46 45  1  0  0  0  0
 46 48  2  0  0  0  0
 47 46  1  0  0  0  0
 48  8  1  0  0  0  0
 49 51  1  0  0  0  0
 50 49  1  0  0  0  0
 52 49  1  0  0  0  0
 53 48  1  0  0  0  0
 53 54  1  0  0  0  0
 55 53  1  0  0  0  0
 56 53  1  0  0  0  0
 57  1  1  0  0  0  0
M  END
$$$$
