CSD_code = QOMNUC | q = 0 | S = 0 | Stoichiometry = C25H29Br2N3OPt | MND = 4
 OpenBabel04212202093D

 61 65  0  0  1  0  0  0  0  0999 V2000
    2.2321    4.3608    5.5308 Br  0  0  0  0  0  0  0  0  0  0  0  0
    3.5377    1.6873    3.7300 Br  0  0  0  0  0  0  0  0  0  0  0  0
   -1.1236    1.8964    5.9384 C   0  0  1  0  0  3  0  0  0  0  0  0
   -2.4507    3.6632    6.1882 C   0  0  0  0  0  0  0  0  0  0  0  0
   -2.4925    4.2403    7.1138 H   0  0  0  0  0  0  0  0  0  0  0  0
   -3.4053    3.7465    5.6631 H   0  0  0  0  0  0  0  0  0  0  0  0
   -1.2410    4.0322    5.2950 C   0  0  2  0  0  0  0  0  0  0  0  0
   -0.6028    4.7934    5.7586 H   0  0  0  0  0  0  0  0  0  0  0  0
   -1.6241    4.5119    3.8830 C   0  0  0  0  0  0  0  0  0  0  0  0
   -2.2134    3.7216    3.3995 H   0  0  0  0  0  0  0  0  0  0  0  0
   -0.3775    4.7860    3.0465 C   0  0  0  0  0  0  0  0  0  0  0  0
    0.2014    5.5935    3.4879 H   0  0  0  0  0  0  0  0  0  0  0  0
   -0.6587    5.0670    2.0352 H   0  0  0  0  0  0  0  0  0  0  0  0
    0.2627    3.8984    2.9771 H   0  0  0  0  0  0  0  0  0  0  0  0
   -2.4582    5.7882    3.9725 C   0  0  0  0  0  0  0  0  0  0  0  0
   -3.3872    5.6364    4.5166 H   0  0  0  0  0  0  0  0  0  0  0  0
   -2.7036    6.1329    2.9713 H   0  0  0  0  0  0  0  0  0  0  0  0
   -1.8903    6.5689    4.4729 H   0  0  0  0  0  0  0  0  0  0  0  0
   -0.6658    0.4629    6.1051 C   0  0  0  0  0  0  0  0  0  0  0  0
    0.5838    0.4301    6.9994 C   0  0  0  0  0  0  0  0  0  0  0  0
    0.9434   -0.5918    7.0927 H   0  0  0  0  0  0  0  0  0  0  0  0
    0.3481    0.8183    7.9866 H   0  0  0  0  0  0  0  0  0  0  0  0
    1.3841    1.0424    6.5669 H   0  0  0  0  0  0  0  0  0  0  0  0
   -1.7818   -0.3616    6.7405 C   0  0  0  0  0  0  0  0  0  0  0  0
   -2.6688   -0.3738    6.1111 H   0  0  0  0  0  0  0  0  0  0  0  0
   -2.0524    0.0850    7.6931 H   0  0  0  0  0  0  0  0  0  0  0  0
   -1.4452   -1.3794    6.9199 H   0  0  0  0  0  0  0  0  0  0  0  0
    0.4879    0.6242    3.9157 C   0  0  0  0  0  0  0  0  0  0  0  0
   -0.8222   -1.1615    4.1615 C   0  0  0  0  0  0  0  0  0  0  0  0
   -1.4771   -1.8569    4.6400 H   0  0  0  0  0  0  0  0  0  0  0  0
   -0.3066   -1.1875    2.9109 C   0  0  0  0  0  0  0  0  0  0  0  0
   -0.4382   -1.8985    2.1219 H   0  0  0  0  0  0  0  0  0  0  0  0
    1.1210    0.3616    1.5446 C   0  0  0  0  0  0  0  0  0  0  0  0
    2.1072    0.7576    1.8150 H   0  0  0  0  0  0  0  0  0  0  0  0
    1.3328   -0.8097    0.6110 C   0  0  0  0  0  0  0  0  0  0  0  0
    2.4378   -1.6276    0.8178 C   0  0  0  0  0  0  0  0  0  0  0  0
    3.1281   -1.3950    1.6154 H   0  0  0  0  0  0  0  0  0  0  0  0
    2.6561   -2.7236    0.0032 C   0  0  0  0  0  0  0  0  0  0  0  0
    3.5183   -3.3518    0.1689 H   0  0  0  0  0  0  0  0  0  0  0  0
    1.7752   -3.0099   -1.0269 C   0  0  0  0  0  0  0  0  0  0  0  0
    1.9475   -3.8630   -1.6660 H   0  0  0  0  0  0  0  0  0  0  0  0
    0.6762   -2.1958   -1.2392 C   0  0  0  0  0  0  0  0  0  0  0  0
   -0.0111   -2.4121   -2.0438 H   0  0  0  0  0  0  0  0  0  0  0  0
    0.4527   -1.1002   -0.4225 C   0  0  0  0  0  0  0  0  0  0  0  0
   -0.4048   -0.4661   -0.5957 H   0  0  0  0  0  0  0  0  0  0  0  0
    0.3170    1.4843    0.9283 C   0  0  0  0  0  0  0  0  0  0  0  0
    0.9820    2.4684    0.2074 C   0  0  0  0  0  0  0  0  0  0  0  0
    2.0569    2.4259    0.1195 H   0  0  0  0  0  0  0  0  0  0  0  0
    0.2751    3.4971   -0.3879 C   0  0  0  0  0  0  0  0  0  0  0  0
    0.8019    4.2577   -0.9436 H   0  0  0  0  0  0  0  0  0  0  0  0
   -1.1032    3.5573   -0.2639 C   0  0  0  0  0  0  0  0  0  0  0  0
   -1.6560    4.3613   -0.7270 H   0  0  0  0  0  0  0  0  0  0  0  0
   -1.7710    2.5843    0.4590 C   0  0  0  0  0  0  0  0  0  0  0  0
   -2.8462    2.6265    0.5601 H   0  0  0  0  0  0  0  0  0  0  0  0
   -1.0655    1.5510    1.0505 C   0  0  0  0  0  0  0  0  0  0  0  0
   -1.6009    0.7924    1.6064 H   0  0  0  0  0  0  0  0  0  0  0  0
   -0.5046    2.7802    5.2610 N   0  0  1  0  0  0  0  0  0  0  0  0
   -0.3301   -0.0350    4.7716 N   0  0  0  0  0  0  0  0  0  0  0  0
    0.4933   -0.0865    2.7788 N   0  0  0  0  0  0  0  0  0  0  0  0
   -2.2599    2.2848    6.5239 O   0  0  0  0  0  0  0  0  0  0  0  0
    1.3601    2.3352    4.5054 Pt  0  0  0  0  0  0  0  0  0  0  0  0
  2 61  1  0  0  0  0
  3 19  1  0  0  0  0
  3 60  1  6  0  0  0
  4 60  1  0  0  0  0
  4  5  1  0  0  0  0
  6  4  1  0  0  0  0
  7  8  1  1  0  0  0
  7  4  1  0  0  0  0
  9 15  1  0  0  0  0
  9  7  1  0  0  0  0
 10  9  1  0  0  0  0
 11 12  1  0  0  0  0
 11  9  1  0  0  0  0
 13 11  1  0  0  0  0
 14 11  1  0  0  0  0
 15 18  1  0  0  0  0
 15 16  1  0  0  0  0
 17 15  1  0  0  0  0
 19 24  1  0  0  0  0
 19 20  1  0  0  0  0
 20 21  1  0  0  0  0
 20 22  1  0  0  0  0
 23 20  1  0  0  0  0
 24 27  1  0  0  0  0
 24 26  1  0  0  0  0
 25 24  1  0  0  0  0
 28 61  2  0  0  0  0
 28 58  1  0  0  0  0
 29 30  1  0  0  0  0
 29 58  1  0  0  0  0
 31 29  2  0  0  0  0
 32 31  1  0  0  0  0
 33 34  1  0  0  0  0
 33 59  1  0  0  0  0
 35 36  1  0  0  0  0
 35 33  1  0  0  0  0
 36 37  1  0  0  0  0
 38 39  1  0  0  0  0
 38 36  2  0  0  0  0
 40 38  1  0  0  0  0
 41 40  1  0  0  0  0
 42 40  2  0  0  0  0
 42 44  1  0  0  0  0
 43 42  1  0  0  0  0
 44 35  2  0  0  0  0
 45 44  1  0  0  0  0
 46 55  1  0  0  0  0
 46 33  1  0  0  0  0
 47 46  2  0  0  0  0
 48 47  1  0  0  0  0
 49 51  2  0  0  0  0
 49 47  1  0  0  0  0
 50 49  1  0  0  0  0
 51 53  1  0  0  0  0
 52 51  1  0  0  0  0
 53 54  1  0  0  0  0
 53 55  2  0  0  0  0
 55 56  1  0  0  0  0
 57 61  1  1  0  0  0
 57  7  1  0  0  0  0
 57  3  1  0  0  0  0
 58 19  1  0  0  0  0
 59 31  1  0  0  0  0
 59 28  1  0  0  0  0
 61  1  1  0  0  0  0
M  END
$$$$
