CSD_code = QOMTIV | q = 1 | S = 0 | Stoichiometry = C18H22ClN4O3Zn(1+) | MND = 5
 OpenBabel04212202093D

 49 53  0  0  1  0  0  0  0  0999 V2000
    7.9949    2.1240   -4.7154 Zn  0  0  0  0  0  0  0  0  0  0  0  0
    8.5514    2.0859   -6.7705 Cl  0  0  0  0  0  0  0  0  0  0  0  0
    7.4151    2.1078   -2.4978 N   0  0  1  0  0  4  0  0  0  0  0  0
    8.6595    2.2117   -1.7513 C   0  0  0  0  0  0  0  0  0  0  0  0
    8.5380    1.9074   -0.7024 H   0  0  0  0  0  0  0  0  0  0  0  0
    8.9770    3.2594   -1.7636 H   0  0  0  0  0  0  0  0  0  0  0  0
    9.7477    1.4012   -2.4094 C   0  0  2  0  0  3  0  0  0  0  0  0
   10.7981    0.8593   -1.6822 C   0  0  0  0  0  0  0  0  0  0  0  0
   10.8366    0.9818   -0.6110 H   0  0  0  0  0  0  0  0  0  0  0  0
   11.7933    0.1676   -2.3557 C   0  0  0  0  0  0  0  0  0  0  0  0
   12.6207   -0.2623   -1.8128 H   0  0  0  0  0  0  0  0  0  0  0  0
   11.7038    0.0397   -3.7336 C   0  0  0  0  0  0  0  0  0  0  0  0
   12.4576   -0.4864   -4.2957 H   0  0  0  0  0  0  0  0  0  0  0  0
   10.6208    0.6063   -4.3832 C   0  0  0  0  0  0  0  0  0  0  0  0
   10.4999    0.5444   -5.4556 H   0  0  0  0  0  0  0  0  0  0  0  0
    9.6687    1.2666   -3.7320 N   0  0  0  0  0  0  0  0  0  0  0  0
    6.5427    3.2624   -2.3219 C   0  0  0  0  0  0  0  0  0  0  0  0
    6.4587    3.5541   -1.2662 H   0  0  0  0  0  0  0  0  0  0  0  0
    5.5428    2.9993   -2.6875 H   0  0  0  0  0  0  0  0  0  0  0  0
    7.0009    4.4287   -3.1546 C   0  0  2  0  0  3  0  0  0  0  0  0
    6.7373    5.7395   -2.7798 C   0  0  0  0  0  0  0  0  0  0  0  0
    6.2329    5.9446   -1.8485 H   0  0  0  0  0  0  0  0  0  0  0  0
    7.1241    6.7695   -3.6217 C   0  0  0  0  0  0  0  0  0  0  0  0
    6.9287    7.7962   -3.3532 H   0  0  0  0  0  0  0  0  0  0  0  0
    7.7634    6.4562   -4.8125 C   0  0  0  0  0  0  0  0  0  0  0  0
    8.0779    7.2265   -5.4972 H   0  0  0  0  0  0  0  0  0  0  0  0
    7.9934    5.1252   -5.1102 C   0  0  0  0  0  0  0  0  0  0  0  0
    8.4864    4.8205   -6.0228 H   0  0  0  0  0  0  0  0  0  0  0  0
    7.6207    4.1408   -4.2969 N   0  0  0  0  0  0  0  0  0  0  0  0
    6.7167    0.8546   -2.2628 C   0  0  0  0  0  0  0  0  0  0  0  0
    6.0958    0.8839   -1.3575 H   0  0  0  0  0  0  0  0  0  0  0  0
    7.4514    0.0502   -2.1620 H   0  0  0  0  0  0  0  0  0  0  0  0
    5.8862    0.5669   -3.5034 C   0  0  1  0  0  3  0  0  0  0  0  0
    6.3076    0.8840   -4.6128 O   0  0  0  0  0  0  0  0  0  0  0  0
    4.7200   -0.0636   -3.3483 N   0  0  0  0  0  0  0  0  0  0  0  0
    4.3601   -0.2286   -2.4200 H   0  0  0  0  0  0  0  0  0  0  0  0
    3.7693   -0.0184   -4.4355 C   0  0  0  0  0  0  0  0  0  0  0  0
    2.8972   -0.6301   -4.2121 H   0  0  0  0  0  0  0  0  0  0  0  0
    4.2397   -0.3784   -5.3542 H   0  0  0  0  0  0  0  0  0  0  0  0
    3.3627    1.4502   -4.6534 C   0  0  0  0  0  0  0  0  0  0  0  0
    3.8309    2.3435   -3.9884 O   0  0  0  0  0  0  0  0  0  0  0  0
    2.4847    1.5698   -5.6120 O   0  0  0  0  0  0  0  0  0  0  0  0
    2.0316    2.8940   -5.9546 C   0  0  0  0  0  0  0  0  0  0  0  0
    2.8403    3.3993   -6.4924 H   0  0  0  0  0  0  0  0  0  0  0  0
    1.8293    3.4446   -5.0302 H   0  0  0  0  0  0  0  0  0  0  0  0
    0.7916    2.7638   -6.8161 C   0  0  0  0  0  0  0  0  0  0  0  0
    0.4523    3.7519   -7.1117 H   0  0  0  0  0  0  0  0  0  0  0  0
   -0.0032    2.2670   -6.2664 H   0  0  0  0  0  0  0  0  0  0  0  0
    1.0144    2.1846   -7.7074 H   0  0  0  0  0  0  0  0  0  0  0  0
  1 34  1  0  0  0  0
  1 29  1  0  0  0  0
  1 16  1  0  0  0  0
  1  3  1  0  0  0  0
  2  1  1  0  0  0  0
  3 17  1  1  0  0  0
  3 30  1  0  0  0  0
  3  4  1  0  0  0  0
  4  5  1  0  0  0  0
  6  4  1  0  0  0  0
  7  4  1  0  0  0  0
  7  8  1  6  0  0  0
  8  9  1  0  0  0  0
 10 11  1  0  0  0  0
 10  8  2  0  0  0  0
 12 10  1  0  0  0  0
 13 12  1  0  0  0  0
 14 12  2  0  0  0  0
 14 16  1  0  0  0  0
 15 14  1  0  0  0  0
 16  7  1  0  0  0  0
 17 18  1  0  0  0  0
 19 17  1  0  0  0  0
 20 21  1  6  0  0  0
 20 17  1  0  0  0  0
 21 22  1  0  0  0  0
 23 24  1  0  0  0  0
 23 21  2  0  0  0  0
 25 23  1  0  0  0  0
 26 25  1  0  0  0  0
 27 25  2  0  0  0  0
 27 29  1  0  0  0  0
 28 27  1  0  0  0  0
 29 20  1  0  0  0  0
 30 32  1  0  0  0  0
 30 31  1  0  0  0  0
 33 35  1  6  0  0  0
 33 30  1  0  0  0  0
 34 33  1  0  0  0  0
 35 36  1  0  0  0  0
 37 38  1  0  0  0  0
 37 35  1  0  0  0  0
 39 37  1  0  0  0  0
 40 37  1  0  0  0  0
 40 41  2  0  0  0  0
 42 40  1  0  0  0  0
 43 42  1  0  0  0  0
 43 45  1  0  0  0  0
 44 43  1  0  0  0  0
 46 48  1  0  0  0  0
 46 43  1  0  0  0  0
 47 46  1  0  0  0  0
 49 46  1  0  0  0  0
M  END
$$$$
