CSD_code = QONDAY | q = 0 | S = 0 | Stoichiometry = C36H24Cl2O4P2Pd | MND = 4
 OpenBabel04212202093D

 69 77  0  0  0  0  0  0  0  0999 V2000
   -0.4856   -1.5055    3.9334 Pd  0  0  0  0  0  0  0  0  0  0  0  0
    1.6451   -1.5848    4.6764 Cl  0  0  0  0  0  0  0  0  0  0  0  0
   -1.0737   -0.0317    5.5288 Cl  0  0  0  0  0  0  0  0  0  0  0  0
    0.2345   -3.1927    2.6145 P   0  0  0  0  0  4  0  0  0  0  0  0
   -2.5886   -1.5927    3.1615 P   0  0  0  0  0  4  0  0  0  0  0  0
    2.5560   -2.3271    1.6283 O   0  0  0  0  0  0  0  0  0  0  0  0
    0.0875   -5.8519    3.3637 O   0  0  0  0  0  0  0  0  0  0  0  0
   -5.2129   -1.0790    3.1022 O   0  0  0  0  0  0  0  0  0  0  0  0
   -3.5884   -1.2228    0.5900 O   0  0  0  0  0  0  0  0  0  0  0  0
   -1.9974   -3.9614    1.1030 C   0  0  0  0  0  0  0  0  0  0  0  0
   -0.6591   -3.6150    1.0808 C   0  0  0  0  0  0  0  0  0  0  0  0
   -0.0220   -3.3496   -0.1495 C   0  0  0  0  0  0  0  0  0  0  0  0
    1.0202   -3.0676   -0.1496 H   0  0  0  0  0  0  0  0  0  0  0  0
   -0.7032   -3.4433   -1.3268 C   0  0  0  0  0  0  0  0  0  0  0  0
   -0.2055   -3.2479   -2.2655 H   0  0  0  0  0  0  0  0  0  0  0  0
   -2.0745   -3.7714   -1.3400 C   0  0  0  0  0  0  0  0  0  0  0  0
   -2.8151   -3.8208   -2.5385 C   0  0  0  0  0  0  0  0  0  0  0  0
   -2.3052   -3.6148   -3.4686 H   0  0  0  0  0  0  0  0  0  0  0  0
   -4.1497   -4.1138   -2.5238 C   0  0  0  0  0  0  0  0  0  0  0  0
   -4.7121   -4.1455   -3.4453 H   0  0  0  0  0  0  0  0  0  0  0  0
   -4.8015   -4.3708   -1.3078 C   0  0  0  0  0  0  0  0  0  0  0  0
   -5.8584   -4.5923   -1.3097 H   0  0  0  0  0  0  0  0  0  0  0  0
   -4.1108   -4.3389   -0.1293 C   0  0  0  0  0  0  0  0  0  0  0  0
   -4.6179   -4.5277    0.8048 H   0  0  0  0  0  0  0  0  0  0  0  0
   -2.7304   -4.0421   -0.1106 C   0  0  0  0  0  0  0  0  0  0  0  0
   -2.6787   -4.3040    2.3719 C   0  0  0  0  0  0  0  0  0  0  0  0
   -3.0963   -3.3337    3.2603 C   0  0  0  0  0  0  0  0  0  0  0  0
   -3.7339   -3.6997    4.4669 C   0  0  0  0  0  0  0  0  0  0  0  0
   -4.0128   -2.9162    5.1602 H   0  0  0  0  0  0  0  0  0  0  0  0
   -3.9803   -5.0076    4.7577 C   0  0  0  0  0  0  0  0  0  0  0  0
   -4.4702   -5.2836    5.6799 H   0  0  0  0  0  0  0  0  0  0  0  0
   -3.5816   -6.0275    3.8676 C   0  0  0  0  0  0  0  0  0  0  0  0
   -3.8003   -7.3893    4.1582 C   0  0  0  0  0  0  0  0  0  0  0  0
   -4.3017   -7.6452    5.0803 H   0  0  0  0  0  0  0  0  0  0  0  0
   -3.3837   -8.3649    3.2968 C   0  0  0  0  0  0  0  0  0  0  0  0
   -3.5530   -9.4062    3.5273 H   0  0  0  0  0  0  0  0  0  0  0  0
   -2.7284   -8.0184    2.1059 C   0  0  0  0  0  0  0  0  0  0  0  0
   -2.3976   -8.7981    1.4359 H   0  0  0  0  0  0  0  0  0  0  0  0
   -2.5049   -6.7069    1.7923 C   0  0  0  0  0  0  0  0  0  0  0  0
   -1.9923   -6.4479    0.8782 H   0  0  0  0  0  0  0  0  0  0  0  0
   -2.9270   -5.6749    2.6584 C   0  0  0  0  0  0  0  0  0  0  0  0
    1.9647   -3.4035    2.1915 C   0  0  0  0  0  0  0  0  0  0  0  0
    2.8898   -4.3898    2.4111 C   0  0  0  0  0  0  0  0  0  0  0  0
    2.7101   -5.3508    2.8475 H   0  0  0  0  0  0  0  0  0  0  0  0
    4.1174   -3.8758    1.9405 C   0  0  0  0  0  0  0  0  0  0  0  0
    5.0666   -4.3708    1.9510 H   0  0  0  0  0  0  0  0  0  0  0  0
    3.8512   -2.6200    1.4835 C   0  0  0  0  0  0  0  0  0  0  0  0
    4.4809   -1.8694    1.0473 H   0  0  0  0  0  0  0  0  0  0  0  0
   -0.0555   -4.5625    3.7405 C   0  0  0  0  0  0  0  0  0  0  0  0
   -0.4591   -4.4901    5.0506 C   0  0  0  0  0  0  0  0  0  0  0  0
   -0.6375   -3.5801    5.6188 H   0  0  0  0  0  0  0  0  0  0  0  0
   -0.5633   -5.8259    5.4949 C   0  0  0  0  0  0  0  0  0  0  0  0
   -0.8492   -6.1616    6.4702 H   0  0  0  0  0  0  0  0  0  0  0  0
   -0.2217   -6.6034    4.4292 C   0  0  0  0  0  0  0  0  0  0  0  0
   -0.1648   -7.6678    4.3112 H   0  0  0  0  0  0  0  0  0  0  0  0
   -4.0605   -0.7348    3.7317 C   0  0  0  0  0  0  0  0  0  0  0  0
   -4.2944    0.2548    4.6477 C   0  0  0  0  0  0  0  0  0  0  0  0
   -3.5578    0.7029    5.2843 H   0  0  0  0  0  0  0  0  0  0  0  0
   -5.6793    0.5240    4.5738 C   0  0  0  0  0  0  0  0  0  0  0  0
   -6.2256    1.2414    5.1506 H   0  0  0  0  0  0  0  0  0  0  0  0
   -6.1786   -0.3128    3.6212 C   0  0  0  0  0  0  0  0  0  0  0  0
   -7.1721   -0.4512    3.2406 H   0  0  0  0  0  0  0  0  0  0  0  0
   -2.5441   -1.0963    1.4344 C   0  0  0  0  0  0  0  0  0  0  0  0
   -1.5029   -0.4524    0.8139 C   0  0  0  0  0  0  0  0  0  0  0  0
   -0.5518   -0.2102    1.2711 H   0  0  0  0  0  0  0  0  0  0  0  0
   -1.9417   -0.1908   -0.5014 C   0  0  0  0  0  0  0  0  0  0  0  0
   -1.3952    0.2971   -1.2819 H   0  0  0  0  0  0  0  0  0  0  0  0
   -3.2119   -0.6815   -0.5749 C   0  0  0  0  0  0  0  0  0  0  0  0
   -3.9221   -0.7069   -1.3781 H   0  0  0  0  0  0  0  0  0  0  0  0
  1  2  1  0  0  0  0
  1  3  1  0  0  0  0
  4 49  1  0  0  0  0
  4  1  1  0  0  0  0
  5 27  1  0  0  0  0
  5 56  1  0  0  0  0
  5  1  1  0  0  0  0
  6 42  1  0  0  0  0
  7 49  1  0  0  0  0
  7 54  1  0  0  0  0
  8 61  1  0  0  0  0
  8 56  1  0  0  0  0
  9 63  1  0  0  0  0
 10 26  1  0  0  0  0
 11 10  1  0  0  0  0
 11  4  1  0  0  0  0
 12 11  2  0  0  0  0
 13 12  1  0  0  0  0
 14 12  1  0  0  0  0
 15 14  1  0  0  0  0
 16 14  2  0  0  0  0
 16 25  1  0  0  0  0
 17 19  2  0  0  0  0
 17 16  1  0  0  0  0
 18 17  1  0  0  0  0
 19 21  1  0  0  0  0
 20 19  1  0  0  0  0
 21 23  2  0  0  0  0
 22 21  1  0  0  0  0
 23 25  1  0  0  0  0
 23 24  1  0  0  0  0
 25 10  2  0  0  0  0
 26 41  2  0  0  0  0
 26 27  1  0  0  0  0
 27 28  2  0  0  0  0
 28 30  1  0  0  0  0
 28 29  1  0  0  0  0
 30 31  1  0  0  0  0
 32 33  1  0  0  0  0
 32 30  2  0  0  0  0
 33 34  1  0  0  0  0
 35 36  1  0  0  0  0
 35 33  2  0  0  0  0
 37 35  1  0  0  0  0
 38 37  1  0  0  0  0
 39 37  2  0  0  0  0
 39 41  1  0  0  0  0
 40 39  1  0  0  0  0
 41 32  1  0  0  0  0
 42 43  2  0  0  0  0
 42  4  1  0  0  0  0
 43 44  1  0  0  0  0
 45 46  1  0  0  0  0
 45 43  1  0  0  0  0
 47  6  1  0  0  0  0
 47 45  2  0  0  0  0
 48 47  1  0  0  0  0
 49 50  2  0  0  0  0
 50 52  1  0  0  0  0
 50 51  1  0  0  0  0
 52 53  1  0  0  0  0
 54 52  2  0  0  0  0
 55 54  1  0  0  0  0
 56 57  2  0  0  0  0
 57 58  1  0  0  0  0
 59 57  1  0  0  0  0
 59 60  1  0  0  0  0
 61 59  2  0  0  0  0
 62 61  1  0  0  0  0
 63  5  1  0  0  0  0
 64 65  1  0  0  0  0
 64 63  2  0  0  0  0
 66 64  1  0  0  0  0
 67 66  1  0  0  0  0
 68 66  2  0  0  0  0
 68  9  1  0  0  0  0
 69 68  1  0  0  0  0
M  END
$$$$
