CSD_code = QONDOO | q = 0 | S = 0 | Stoichiometry = C26H38Br2FeP2 | MND = 4
 OpenBabel04212202093D

 69 71  0  0  0  0  0  0  0  0999 V2000
   13.9504   11.4303   -0.6462 C   0  0  0  0  0  0  0  0  0  0  0  0
   13.8371   10.6057    0.0425 H   0  0  0  0  0  0  0  0  0  0  0  0
   13.5052    8.3972    1.6730 Br  0  0  0  0  0  0  0  0  0  0  0  0
   11.6062   11.5681    1.3368 P   0  0  0  0  0  4  0  0  0  0  0  0
    9.4050    9.0091    1.0681 Br  0  0  0  0  0  0  0  0  0  0  0  0
   12.0251    8.9543   -1.3049 P   0  0  0  0  0  4  0  0  0  0  0  0
   14.2848   11.1592   -1.9073 C   0  0  0  0  0  0  0  0  0  0  0  0
   14.4686   11.9477   -2.6266 H   0  0  0  0  0  0  0  0  0  0  0  0
   11.6370    9.3642    0.8611 Fe  0  0  0  0  0  0  0  0  0  0  0  0
   12.8077   12.9106    0.9477 C   0  0  0  0  0  0  0  0  0  0  0  0
   13.7635   12.7440   -0.0612 C   0  0  0  0  0  0  0  0  0  0  0  0
   14.5632   13.8219   -0.4399 C   0  0  0  0  0  0  0  0  0  0  0  0
   15.3064   13.6787   -1.2100 H   0  0  0  0  0  0  0  0  0  0  0  0
   14.4388   15.0470    0.1825 C   0  0  0  0  0  0  0  0  0  0  0  0
   15.0672   15.8733   -0.1146 H   0  0  0  0  0  0  0  0  0  0  0  0
   13.5162   15.2062    1.2043 C   0  0  0  0  0  0  0  0  0  0  0  0
   13.4248   16.1558    1.7109 H   0  0  0  0  0  0  0  0  0  0  0  0
   12.7064   14.1491    1.5752 C   0  0  0  0  0  0  0  0  0  0  0  0
   11.9948   14.2975    2.3721 H   0  0  0  0  0  0  0  0  0  0  0  0
   13.7446    8.6983   -1.9608 C   0  0  0  0  0  0  0  0  0  0  0  0
   14.5553    9.7891   -2.3266 C   0  0  0  0  0  0  0  0  0  0  0  0
   15.7318    9.5720   -3.0411 C   0  0  0  0  0  0  0  0  0  0  0  0
   16.3159   10.4281   -3.3480 H   0  0  0  0  0  0  0  0  0  0  0  0
   16.1788    8.2961   -3.3176 C   0  0  0  0  0  0  0  0  0  0  0  0
   17.0980    8.1458   -3.8634 H   0  0  0  0  0  0  0  0  0  0  0  0
   11.7070   11.6479    3.2170 C   0  0  0  0  0  0  0  0  0  0  0  0
   11.2922   12.6111    3.5332 H   0  0  0  0  0  0  0  0  0  0  0  0
   10.0025   12.4801    0.8887 C   0  0  0  0  0  0  0  0  0  0  0  0
    9.3180   11.6722    0.6088 H   0  0  0  0  0  0  0  0  0  0  0  0
   10.8861   10.5297    3.8543 C   0  0  0  0  0  0  0  0  0  0  0  0
    9.8425   10.5677    3.5446 H   0  0  0  0  0  0  0  0  0  0  0  0
   10.9211   10.6123    4.9400 H   0  0  0  0  0  0  0  0  0  0  0  0
   11.2942    9.5498    3.5877 H   0  0  0  0  0  0  0  0  0  0  0  0
   13.1612   11.5609    3.6765 C   0  0  0  0  0  0  0  0  0  0  0  0
   13.6243   10.6336    3.3463 H   0  0  0  0  0  0  0  0  0  0  0  0
   13.2017   11.5846    4.7646 H   0  0  0  0  0  0  0  0  0  0  0  0
   13.7520   12.3910    3.2947 H   0  0  0  0  0  0  0  0  0  0  0  0
    9.3011   13.2844    1.9791 C   0  0  0  0  0  0  0  0  0  0  0  0
    9.8837   14.1452    2.2973 H   0  0  0  0  0  0  0  0  0  0  0  0
    9.0652   12.6695    2.8439 H   0  0  0  0  0  0  0  0  0  0  0  0
    8.3609   13.6579    1.5747 H   0  0  0  0  0  0  0  0  0  0  0  0
   10.2332   13.3434   -0.3522 C   0  0  0  0  0  0  0  0  0  0  0  0
   10.8652   12.8270   -1.0729 H   0  0  0  0  0  0  0  0  0  0  0  0
   10.7152   14.2831   -0.0910 H   0  0  0  0  0  0  0  0  0  0  0  0
    9.2801   13.5692   -0.8269 H   0  0  0  0  0  0  0  0  0  0  0  0
   11.2705    7.2727   -1.7282 C   0  0  0  0  0  0  0  0  0  0  0  0
   11.8152    6.9167   -2.6119 H   0  0  0  0  0  0  0  0  0  0  0  0
   11.4077   10.0949   -2.6630 C   0  0  0  0  0  0  0  0  0  0  0  0
   12.0323   10.9867   -2.5232 H   0  0  0  0  0  0  0  0  0  0  0  0
    9.7821    7.2732   -2.0691 C   0  0  0  0  0  0  0  0  0  0  0  0
    9.5901    7.6983   -3.0495 H   0  0  0  0  0  0  0  0  0  0  0  0
    9.1945    7.8091   -1.3301 H   0  0  0  0  0  0  0  0  0  0  0  0
    9.4300    6.2420   -2.0854 H   0  0  0  0  0  0  0  0  0  0  0  0
   11.5016    6.3142   -0.5547 C   0  0  0  0  0  0  0  0  0  0  0  0
   11.2622    5.2933   -0.8506 H   0  0  0  0  0  0  0  0  0  0  0  0
   10.8461    6.5751    0.2778 H   0  0  0  0  0  0  0  0  0  0  0  0
   12.5295    6.3288   -0.1941 H   0  0  0  0  0  0  0  0  0  0  0  0
   11.6476    9.5680   -4.0755 C   0  0  0  0  0  0  0  0  0  0  0  0
   11.3587   10.3330   -4.7951 H   0  0  0  0  0  0  0  0  0  0  0  0
   11.0568    8.6791   -4.2786 H   0  0  0  0  0  0  0  0  0  0  0  0
   12.6963    9.3280   -4.2376 H   0  0  0  0  0  0  0  0  0  0  0  0
    9.9551   10.5156   -2.4575 C   0  0  0  0  0  0  0  0  0  0  0  0
    9.7682   11.4635   -2.9590 H   0  0  0  0  0  0  0  0  0  0  0  0
    9.7383   10.6390   -1.3994 H   0  0  0  0  0  0  0  0  0  0  0  0
    9.2622    9.7860   -2.8620 H   0  0  0  0  0  0  0  0  0  0  0  0
   14.2440    7.4202   -2.2043 C   0  0  0  0  0  0  0  0  0  0  0  0
   13.7072    6.5447   -1.8813 H   0  0  0  0  0  0  0  0  0  0  0  0
   15.4462    7.2169   -2.8589 C   0  0  0  0  0  0  0  0  0  0  0  0
   15.7975    6.2092   -3.0234 H   0  0  0  0  0  0  0  0  0  0  0  0
  1 11  1  0  0  0  0
  1  2  1  0  0  0  0
  4 26  1  0  0  0  0
  6  9  1  0  0  0  0
  7  1  2  0  0  0  0
  8  7  1  0  0  0  0
  9  5  1  0  0  0  0
  9  4  1  0  0  0  0
  9  3  1  0  0  0  0
 10  4  1  0  0  0  0
 10 18  1  0  0  0  0
 11 10  2  0  0  0  0
 12 11  1  0  0  0  0
 12 14  2  0  0  0  0
 13 12  1  0  0  0  0
 14 16  1  0  0  0  0
 15 14  1  0  0  0  0
 16 18  2  0  0  0  0
 16 17  1  0  0  0  0
 18 19  1  0  0  0  0
 20  6  1  0  0  0  0
 21 20  2  0  0  0  0
 21  7  1  0  0  0  0
 22 21  1  0  0  0  0
 23 22  1  0  0  0  0
 24 22  2  0  0  0  0
 24 68  1  0  0  0  0
 25 24  1  0  0  0  0
 26 27  1  0  0  0  0
 26 34  1  0  0  0  0
 26 30  1  0  0  0  0
 28  4  1  0  0  0  0
 28 38  1  0  0  0  0
 29 28  1  0  0  0  0
 30 32  1  0  0  0  0
 31 30  1  0  0  0  0
 33 30  1  0  0  0  0
 34 36  1  0  0  0  0
 35 34  1  0  0  0  0
 37 34  1  0  0  0  0
 38 39  1  0  0  0  0
 38 40  1  0  0  0  0
 41 38  1  0  0  0  0
 42 44  1  0  0  0  0
 42 28  1  0  0  0  0
 43 42  1  0  0  0  0
 45 42  1  0  0  0  0
 46  6  1  0  0  0  0
 46 54  1  0  0  0  0
 47 46  1  0  0  0  0
 48 49  1  0  0  0  0
 48 62  1  0  0  0  0
 48  6  1  0  0  0  0
 50 46  1  0  0  0  0
 50 52  1  0  0  0  0
 51 50  1  0  0  0  0
 53 50  1  0  0  0  0
 54 57  1  0  0  0  0
 54 56  1  0  0  0  0
 55 54  1  0  0  0  0
 58 48  1  0  0  0  0
 59 58  1  0  0  0  0
 60 58  1  0  0  0  0
 61 58  1  0  0  0  0
 62 64  1  0  0  0  0
 63 62  1  0  0  0  0
 65 62  1  0  0  0  0
 66 20  1  0  0  0  0
 66 67  1  0  0  0  0
 68 66  2  0  0  0  0
 69 68  1  0  0  0  0
M  END
$$$$
