CSD_code = QONFEG | q = 0 | S = 0 | Stoichiometry = C26H38ClCoP2 | MND = 5
 OpenBabel04212202093D

 68 68  0  0  1  0  0  0  0  0999 V2000
    8.0756    5.5501   18.1683 Co  0  0  0  0  0  0  0  0  0  0  0  0
    5.9496    6.0878   18.1327 P   0  0  0  0  0  0  0  0  0  0  0  0
    8.1116    6.3738   19.9769 C   0  0  1  0  0  0  0  0  0  0  0  0
    9.0354    6.9115   20.1925 H   0  0  0  0  0  0  0  0  0  0  0  0
   10.1962    5.0033   18.0518 P   0  0  0  0  0  0  0  0  0  0  0  0
    8.0010    5.4181   16.0504 Cl  0  0  0  0  0 15  0  0  0  0  0  0
    9.4256    4.3406   20.5179 C   0  0  0  0  0  0  0  0  0  0  0  0
   11.8132    4.0643   20.2469 C   0  0  0  0  0  0  0  0  0  0  0  0
   12.7150    4.2036   19.6683 H   0  0  0  0  0  0  0  0  0  0  0  0
   10.5846    4.4652   19.7414 C   0  0  0  0  0  0  0  0  0  0  0  0
   10.7290    3.2880   22.2426 C   0  0  0  0  0  0  0  0  0  0  0  0
   10.7860    2.8097   23.2097 H   0  0  0  0  0  0  0  0  0  0  0  0
    9.5068    3.7200   21.7611 C   0  0  0  0  0  0  0  0  0  0  0  0
    8.6133    3.5956   22.3569 H   0  0  0  0  0  0  0  0  0  0  0  0
    4.4995    8.0313   21.4764 C   0  0  0  0  0  0  0  0  0  0  0  0
    3.5734    8.3991   21.8940 H   0  0  0  0  0  0  0  0  0  0  0  0
   11.8846    3.4841   21.5015 C   0  0  0  0  0  0  0  0  0  0  0  0
   12.8392    3.1674   21.8960 H   0  0  0  0  0  0  0  0  0  0  0  0
    5.6776    6.8331   19.7654 C   0  0  0  0  0  0  0  0  0  0  0  0
    6.8904    7.8180   21.5972 C   0  0  0  0  0  0  0  0  0  0  0  0
    7.8228    8.0110   22.1093 H   0  0  0  0  0  0  0  0  0  0  0  0
   10.4405    3.4368   17.0753 C   0  0  0  0  0  0  0  0  0  0  0  0
   10.1993    3.7204   16.0434 H   0  0  0  0  0  0  0  0  0  0  0  0
   11.6056    6.1064   17.5587 C   0  0  0  0  0  0  0  0  0  0  0  0
   12.5488    5.5929   17.7800 H   0  0  0  0  0  0  0  0  0  0  0  0
    9.3869    2.4439   17.5612 C   0  0  0  0  0  0  0  0  0  0  0  0
    9.3542    1.5695   16.9137 H   0  0  0  0  0  0  0  0  0  0  0  0
    8.4008    2.9164   17.5533 H   0  0  0  0  0  0  0  0  0  0  0  0
    9.6049    2.1171   18.5777 H   0  0  0  0  0  0  0  0  0  0  0  0
   11.8341    2.8256   17.1285 C   0  0  0  0  0  0  0  0  0  0  0  0
   11.8641    1.9433   16.4901 H   0  0  0  0  0  0  0  0  0  0  0  0
   12.0799    2.5142   18.1419 H   0  0  0  0  0  0  0  0  0  0  0  0
   12.5944    3.5190   16.7760 H   0  0  0  0  0  0  0  0  0  0  0  0
   11.5216    6.4299   16.0711 C   0  0  0  0  0  0  0  0  0  0  0  0
   11.7030    5.5454   15.4645 H   0  0  0  0  0  0  0  0  0  0  0  0
   12.2590    7.1862   15.8051 H   0  0  0  0  0  0  0  0  0  0  0  0
   10.5313    6.8099   15.8259 H   0  0  0  0  0  0  0  0  0  0  0  0
   11.5101    7.3732   18.4041 C   0  0  0  0  0  0  0  0  0  0  0  0
   12.3144    8.0642   18.1561 H   0  0  0  0  0  0  0  0  0  0  0  0
   11.5760    7.1333   19.4654 H   0  0  0  0  0  0  0  0  0  0  0  0
   10.5587    7.8719   18.2183 H   0  0  0  0  0  0  0  0  0  0  0  0
    4.5137    4.9387   17.8794 C   0  0  0  0  0  0  0  0  0  0  0  0
    3.5862    5.4800   18.1009 H   0  0  0  0  0  0  0  0  0  0  0  0
    5.6314    7.5222   16.9888 C   0  0  0  0  0  0  0  0  0  0  0  0
    5.8011    7.1116   15.9859 H   0  0  0  0  0  0  0  0  0  0  0  0
    6.7122    8.5630   17.2730 C   0  0  0  0  0  0  0  0  0  0  0  0
    7.6972    8.0886   17.2558 H   0  0  0  0  0  0  0  0  0  0  0  0
    6.5638    9.0149   18.2535 H   0  0  0  0  0  0  0  0  0  0  0  0
    6.6964    9.3497   16.5208 H   0  0  0  0  0  0  0  0  0  0  0  0
    4.2423    8.1416   17.0628 C   0  0  0  0  0  0  0  0  0  0  0  0
    4.1646    8.9386   16.3240 H   0  0  0  0  0  0  0  0  0  0  0  0
    4.0662    8.5768   18.0445 H   0  0  0  0  0  0  0  0  0  0  0  0
    3.4622    7.4135   16.8521 H   0  0  0  0  0  0  0  0  0  0  0  0
    4.4949    4.4335   16.4410 C   0  0  0  0  0  0  0  0  0  0  0  0
    4.2676    5.2370   15.7438 H   0  0  0  0  0  0  0  0  0  0  0  0
    3.7440    3.6533   16.3226 H   0  0  0  0  0  0  0  0  0  0  0  0
    5.4672    4.0218   16.1759 H   0  0  0  0  0  0  0  0  0  0  0  0
    4.6732    3.7857   18.8661 C   0  0  0  0  0  0  0  0  0  0  0  0
    3.8562    3.0732   18.7624 H   0  0  0  0  0  0  0  0  0  0  0  0
    4.6809    4.1552   19.8915 H   0  0  0  0  0  0  0  0  0  0  0  0
    5.6111    3.2633   18.6771 H   0  0  0  0  0  0  0  0  0  0  0  0
    4.4856    7.2995   20.3016 C   0  0  0  0  0  0  0  0  0  0  0  0
    3.5462    7.0936   19.8091 H   0  0  0  0  0  0  0  0  0  0  0  0
    5.7031    8.3123   22.1052 C   0  0  0  0  0  0  0  0  0  0  0  0
    5.7117    8.9073   23.0070 H   0  0  0  0  0  0  0  0  0  0  0  0
    6.8873    7.0476   20.4380 C   0  0  0  0  0  0  0  0  0  0  0  0
    8.1692    4.9570   20.0631 C   0  0  0  0  0  3  0  0  0  0  0  0
    7.2650    4.4540   20.4074 H   0  0  0  0  0  0  0  0  0  0  0  0
  1  3  1  0  0  0  0
  2 19  1  0  0  0  0
  3 67  1  0  0  0  0
  3  4  1  1  0  0  0
  3 66  1  0  0  0  0
  5 10  1  0  0  0  0
  7 13  1  0  0  0  0
  8 17  2  0  0  0  0
  9  8  1  0  0  0  0
 10  8  1  0  0  0  0
 10  7  2  0  0  0  0
 11 12  1  0  0  0  0
 13 11  2  0  0  0  0
 13 14  1  0  0  0  0
 15 16  1  0  0  0  0
 15 64  1  0  0  0  0
 17 18  1  0  0  0  0
 17 11  1  0  0  0  0
 19 62  1  0  0  0  0
 19 66  2  0  0  0  0
 20 64  2  0  0  0  0
 20 21  1  0  0  0  0
 22 30  1  0  0  0  0
 22 26  1  0  0  0  0
 22  5  1  0  0  0  0
 23 22  1  0  0  0  0
 24 25  1  0  0  0  0
 24  5  1  0  0  0  0
 24 38  1  0  0  0  0
 26 29  1  0  0  0  0
 27 26  1  0  0  0  0
 28 26  1  0  0  0  0
 30 32  1  0  0  0  0
 31 30  1  0  0  0  0
 33 30  1  0  0  0  0
 34 24  1  0  0  0  0
 35 34  1  0  0  0  0
 36 34  1  0  0  0  0
 37 34  1  0  0  0  0
 38 40  1  0  0  0  0
 39 38  1  0  0  0  0
 41 38  1  0  0  0  0
 42 43  1  0  0  0  0
 42  2  1  0  0  0  0
 42 58  1  0  0  0  0
 44 50  1  0  0  0  0
 44 46  1  0  0  0  0
 44  2  1  0  0  0  0
 45 44  1  0  0  0  0
 46 48  1  0  0  0  0
 47 46  1  0  0  0  0
 49 46  1  0  0  0  0
 50 52  1  0  0  0  0
 51 50  1  0  0  0  0
 53 50  1  0  0  0  0
 54 42  1  0  0  0  0
 55 54  1  0  0  0  0
 56 54  1  0  0  0  0
 57 54  1  0  0  0  0
 58 60  1  0  0  0  0
 59 58  1  0  0  0  0
 61 58  1  0  0  0  0
 62 15  2  0  0  0  0
 63 62  1  0  0  0  0
 64 65  1  0  0  0  0
 66 20  1  0  0  0  0
 67 68  1  0  0  0  0
 67  7  1  0  0  0  0
M  END
$$$$
