CSD_code = QONHEG | q = 0 | S = 0 | Stoichiometry = C31H34Cl3NbO | MND = 9
 OpenBabel04212202093D

 70 73  0  0  1  0  0  0  0  0999 V2000
   10.9089    5.8639    8.6282 Nb  0  0  0  0  0  0  0  0  0  0  0  0
    9.3796    5.5380    6.7900 Cl  0  0  0  0  0  0  0  0  0  0  0  0
    9.1677    6.6579    9.7914 Cl  0  0  0  0  0  0  0  0  0  0  0  0
   11.8455    5.1653   10.7061 Cl  0  0  0  0  0  0  0  0  0  0  0  0
   11.9970    4.7740    7.7728 O   0  0  0  0  0  0  0  0  0  0  0  0
   11.9153    8.7131    9.7042 C   0  0  0  0  0  3  0  0  0  0  0  0
   12.4228    7.7969    8.7577 C   0  0  0  0  0  3  0  0  0  0  0  0
   11.6040    7.9376    7.5584 C   0  0  2  0  0  0  0  0  0  0  0  0
   10.6439    8.9371    7.8424 C   0  0  0  0  0  0  0  0  0  0  0  0
   10.8394    9.3962    9.1412 C   0  0  0  0  0  0  0  0  0  0  0  0
   12.4458    3.7155    7.1181 C   0  0  0  0  0  0  0  0  0  0  0  0
   13.3528    3.8993    6.0592 C   0  0  0  0  0  0  0  0  0  0  0  0
   13.8063    2.7843    5.3549 C   0  0  0  0  0  0  0  0  0  0  0  0
   13.2560    1.5514    5.6945 C   0  0  0  0  0  0  0  0  0  0  0  0
   12.3386    1.3371    6.7181 C   0  0  0  0  0  0  0  0  0  0  0  0
   11.9596    2.4419    7.4825 C   0  0  0  0  0  0  0  0  0  0  0  0
   13.7215    5.3161    5.8230 C   0  0  0  0  0  0  0  0  0  0  0  0
   13.1228    6.0490    4.8031 C   0  0  0  0  0  0  0  0  0  0  0  0
   13.4883    7.3679    4.5876 C   0  0  0  0  0  0  0  0  0  0  0  0
   14.4305    7.9733    5.4035 C   0  0  0  0  0  0  0  0  0  0  0  0
   14.9832    7.2663    6.4590 C   0  0  0  0  0  0  0  0  0  0  0  0
   14.6226    5.9480    6.6768 C   0  0  0  0  0  0  0  0  0  0  0  0
   14.8221    2.8495    4.2142 C   0  0  0  0  0  0  0  0  0  0  0  0
   14.0761    3.1897    2.9163 C   0  0  0  0  0  0  0  0  0  0  0  0
   15.9159    3.8948    4.4667 C   0  0  0  0  0  0  0  0  0  0  0  0
   15.5351    1.5013    4.0177 C   0  0  0  0  0  0  0  0  0  0  0  0
   11.7753   -0.0640    6.9583 C   0  0  0  0  0  0  0  0  0  0  0  0
   12.1907   -1.0555    5.8621 C   0  0  0  0  0  0  0  0  0  0  0  0
   12.2836   -0.6199    8.2955 C   0  0  0  0  0  0  0  0  0  0  0  0
   10.2413   -0.0162    6.9640 C   0  0  0  0  0  0  0  0  0  0  0  0
   11.0924    2.4469    8.6892 C   0  0  0  0  0  0  0  0  0  0  0  0
   11.6325    2.1647    9.9402 C   0  0  0  0  0  0  0  0  0  0  0  0
   10.8481    2.2550   11.0786 C   0  0  0  0  0  0  0  0  0  0  0  0
    9.5292    2.6688   10.9898 C   0  0  0  0  0  0  0  0  0  0  0  0
    8.9861    2.9802    9.7535 C   0  0  0  0  0  0  0  0  0  0  0  0
    9.7590    2.8637    8.6033 C   0  0  0  0  0  0  0  0  0  0  0  0
   12.2984    8.8459   10.7026 H   0  0  0  0  0  0  0  0  0  0  0  0
   13.4422    7.4250    8.7610 H   0  0  0  0  0  0  0  0  0  0  0  0
   11.9502    7.7099    6.5560 H   0  0  0  0  0  0  0  0  0  0  0  0
    9.8798    9.2704    7.1592 H   0  0  0  0  0  0  0  0  0  0  0  0
   10.2383   10.1360    9.6398 H   0  0  0  0  0  0  0  0  0  0  0  0
   13.5677    0.7011    5.1217 H   0  0  0  0  0  0  0  0  0  0  0  0
   12.3690    5.5844    4.1840 H   0  0  0  0  0  0  0  0  0  0  0  0
   13.0328    7.9251    3.7820 H   0  0  0  0  0  0  0  0  0  0  0  0
   14.7207    8.9980    5.2278 H   0  0  0  0  0  0  0  0  0  0  0  0
   15.7009    7.7433    7.1103 H   0  0  0  0  0  0  0  0  0  0  0  0
   15.0592    5.3875    7.4928 H   0  0  0  0  0  0  0  0  0  0  0  0
   14.7611    3.1452    2.0724 H   0  0  0  0  0  0  0  0  0  0  0  0
   13.6556    4.1892    2.9626 H   0  0  0  0  0  0  0  0  0  0  0  0
   13.2683    2.4813    2.7454 H   0  0  0  0  0  0  0  0  0  0  0  0
   16.7085    3.7769    3.7308 H   0  0  0  0  0  0  0  0  0  0  0  0
   16.3479    3.7649    5.4561 H   0  0  0  0  0  0  0  0  0  0  0  0
   15.5382    4.9069    4.3801 H   0  0  0  0  0  0  0  0  0  0  0  0
   14.8774    0.7508    3.5876 H   0  0  0  0  0  0  0  0  0  0  0  0
   15.9335    1.1320    4.9598 H   0  0  0  0  0  0  0  0  0  0  0  0
   16.3650    1.6316    3.3269 H   0  0  0  0  0  0  0  0  0  0  0  0
   11.7016   -2.0098    6.0463 H   0  0  0  0  0  0  0  0  0  0  0  0
   13.2634   -1.2332    5.8673 H   0  0  0  0  0  0  0  0  0  0  0  0
   11.8825   -0.7091    4.8785 H   0  0  0  0  0  0  0  0  0  0  0  0
   12.0111   -1.6694    8.3838 H   0  0  0  0  0  0  0  0  0  0  0  0
   11.8486   -0.0870    9.1340 H   0  0  0  0  0  0  0  0  0  0  0  0
   13.3672   -0.5409    8.3520 H   0  0  0  0  0  0  0  0  0  0  0  0
    9.8754    0.4719    6.0634 H   0  0  0  0  0  0  0  0  0  0  0  0
    9.8622    0.5179    7.8282 H   0  0  0  0  0  0  0  0  0  0  0  0
    9.8418   -1.0276    6.9929 H   0  0  0  0  0  0  0  0  0  0  0  0
   12.6758    1.8946   10.0228 H   0  0  0  0  0  0  0  0  0  0  0  0
   11.2792    2.0255   12.0414 H   0  0  0  0  0  0  0  0  0  0  0  0
    8.9293    2.7583   11.8831 H   0  0  0  0  0  0  0  0  0  0  0  0
    7.9557    3.2995    9.6732 H   0  0  0  0  0  0  0  0  0  0  0  0
    9.3138    3.0301    7.6289 H   0  0  0  0  0  0  0  0  0  0  0  0
  1  3  1  0  0  0  0
  1  4  1  0  0  0  0
  2  1  1  0  0  0  0
  5  1  1  0  0  0  0
  6 37  1  0  0  0  0
  7 38  1  0  0  0  0
  7  6  1  0  0  0  0
  8 39  1  6  0  0  0
  8  9  1  0  0  0  0
  8  1  1  0  0  0  0
  8  7  1  0  0  0  0
  9 10  2  0  0  0  0
 10 41  1  0  0  0  0
 10  6  1  0  0  0  0
 11 16  1  0  0  0  0
 11  5  1  0  0  0  0
 12 11  2  0  0  0  0
 13 14  2  0  0  0  0
 13 12  1  0  0  0  0
 14 15  1  0  0  0  0
 15 27  1  0  0  0  0
 15 16  2  0  0  0  0
 16 31  1  0  0  0  0
 17 12  1  0  0  0  0
 17 22  1  0  0  0  0
 18 17  2  0  0  0  0
 19 18  1  0  0  0  0
 19 20  2  0  0  0  0
 20 21  1  0  0  0  0
 21 22  2  0  0  0  0
 21 46  1  0  0  0  0
 22 47  1  0  0  0  0
 23 25  1  0  0  0  0
 23 13  1  0  0  0  0
 24 49  1  0  0  0  0
 24 23  1  0  0  0  0
 25 52  1  0  0  0  0
 26 23  1  0  0  0  0
 26 55  1  0  0  0  0
 27 30  1  0  0  0  0
 27 29  1  0  0  0  0
 28 58  1  0  0  0  0
 28 57  1  0  0  0  0
 28 27  1  0  0  0  0
 29 62  1  0  0  0  0
 29 60  1  0  0  0  0
 29 61  1  0  0  0  0
 30 65  1  0  0  0  0
 30 64  1  0  0  0  0
 31 32  1  0  0  0  0
 32 66  1  0  0  0  0
 32 33  2  0  0  0  0
 33 67  1  0  0  0  0
 34 33  1  0  0  0  0
 34 68  1  0  0  0  0
 35 34  2  0  0  0  0
 36 31  2  0  0  0  0
 36 35  1  0  0  0  0
 40  9  1  0  0  0  0
 42 14  1  0  0  0  0
 43 18  1  0  0  0  0
 44 19  1  0  0  0  0
 45 20  1  0  0  0  0
 48 24  1  0  0  0  0
 50 24  1  0  0  0  0
 51 25  1  0  0  0  0
 53 25  1  0  0  0  0
 54 26  1  0  0  0  0
 56 26  1  0  0  0  0
 59 28  1  0  0  0  0
 63 30  1  0  0  0  0
 69 35  1  0  0  0  0
 70 36  1  0  0  0  0
M  END
$$$$
