CSD_code = QOPCUU | q = 0 | S = 0 | Stoichiometry = C12H20CuIN4 | MND = 3
 OpenBabel04212202093D

 38 39  0  0  1  0  0  0  0  0999 V2000
    0.7173    9.4858    4.3696 I   0  0  0  0  0  0  0  0  0  0  0  0
    2.2802    9.2790    2.4557 Cu  0  0  0  0  0  0  0  0  0  0  0  0
    3.1155   10.7576    1.3984 N   0  0  0  0  0  0  0  0  0  0  0  0
    2.7493   13.0676    1.1510 N   0  0  0  0  0  0  0  0  0  0  0  0
    3.5053   12.1850    3.1666 N   0  0  0  0  0  0  0  0  0  0  0  0
    2.7296    7.7702    1.2948 N   0  0  0  0  0  0  0  0  0  0  0  0
    3.0830   11.9578    1.8918 C   0  0  0  0  0  3  0  0  0  0  0  0
    3.3664   14.3525    1.3705 C   0  0  0  0  0  0  0  0  0  0  0  0
    2.6935   15.0628    1.8631 H   0  0  0  0  0  0  0  0  0  0  0  0
    3.6521   14.7736    0.4020 H   0  0  0  0  0  0  0  0  0  0  0  0
    4.2600   14.2292    1.9764 H   0  0  0  0  0  0  0  0  0  0  0  0
    1.5745   13.0861    0.3124 C   0  0  0  0  0  0  0  0  0  0  0  0
    1.0155   12.1619    0.4336 H   0  0  0  0  0  0  0  0  0  0  0  0
    1.8346   13.2170   -0.7429 H   0  0  0  0  0  0  0  0  0  0  0  0
    0.9245   13.9147    0.6111 H   0  0  0  0  0  0  0  0  0  0  0  0
    4.3215   11.2085    3.8486 C   0  0  0  0  0  0  0  0  0  0  0  0
    3.7250   10.5160    4.4483 H   0  0  0  0  0  0  0  0  0  0  0  0
    5.0068   11.7383    4.5134 H   0  0  0  0  0  0  0  0  0  0  0  0
    4.8923   10.6411    3.1174 H   0  0  0  0  0  0  0  0  0  0  0  0
    2.7530   13.0437    4.0578 C   0  0  0  0  0  0  0  0  0  0  0  0
    1.9773   13.5734    3.5135 H   0  0  0  0  0  0  0  0  0  0  0  0
    3.4162   13.7650    4.5409 H   0  0  0  0  0  0  0  0  0  0  0  0
    2.2689   12.4395    4.8299 H   0  0  0  0  0  0  0  0  0  0  0  0
    3.1752   10.5152   -0.0207 C   0  0  0  0  0  0  0  0  0  0  0  0
    3.7019   11.3370   -0.5230 H   0  0  0  0  0  0  0  0  0  0  0  0
    2.1750   10.4295   -0.4678 H   0  0  0  0  0  0  0  0  0  0  0  0
    3.9324    9.1959   -0.2677 C   0  0  0  0  0  0  0  0  0  0  0  0
    4.2671    9.1639   -1.3053 H   0  0  0  0  0  0  0  0  0  0  0  0
    4.8069    9.1795    0.3873 H   0  0  0  0  0  0  0  0  0  0  0  0
    3.0734    7.9989    0.0174 C   0  0  2  0  0  3  0  0  0  0  0  0
    2.6446    7.1670   -1.0067 C   0  0  0  0  0  0  0  0  0  0  0  0
    2.9321    7.3813   -2.0253 H   0  0  0  0  0  0  0  0  0  0  0  0
    1.8622    6.0606   -0.7142 C   0  0  0  0  0  0  0  0  0  0  0  0
    1.5258    5.4017   -1.5003 H   0  0  0  0  0  0  0  0  0  0  0  0
    1.5359    5.8148    0.6122 C   0  0  0  0  0  0  0  0  0  0  0  0
    0.9430    4.9597    0.8942 H   0  0  0  0  0  0  0  0  0  0  0  0
    1.9914    6.6918    1.5753 C   0  0  0  0  0  0  0  0  0  0  0  0
    1.7673    6.5316    2.6208 H   0  0  0  0  0  0  0  0  0  0  0  0
  2  1  1  0  0  0  0
  3  7  1  0  0  0  0
  3  2  1  0  0  0  0
  4  8  1  0  0  0  0
  4  7  1  0  0  0  0
  5 16  1  0  0  0  0
  5 20  1  0  0  0  0
  6 37  1  0  0  0  0
  6  2  1  0  0  0  0
  7  5  1  0  0  0  0
  8  9  1  0  0  0  0
  8 11  1  0  0  0  0
 10  8  1  0  0  0  0
 12 13  1  0  0  0  0
 12 15  1  0  0  0  0
 12  4  1  0  0  0  0
 14 12  1  0  0  0  0
 16 17  1  0  0  0  0
 16 18  1  0  0  0  0
 19 16  1  0  0  0  0
 20 22  1  0  0  0  0
 20 23  1  0  0  0  0
 21 20  1  0  0  0  0
 24  3  1  0  0  0  0
 25 24  1  0  0  0  0
 26 24  1  0  0  0  0
 27 24  1  0  0  0  0
 27 30  1  0  0  0  0
 27 29  1  0  0  0  0
 28 27  1  0  0  0  0
 30 31  1  6  0  0  0
 30  6  1  0  0  0  0
 31 33  2  0  0  0  0
 32 31  1  0  0  0  0
 33 35  1  0  0  0  0
 34 33  1  0  0  0  0
 35 36  1  0  0  0  0
 35 37  2  0  0  0  0
 37 38  1  0  0  0  0
M  END
$$$$
