CSD_code = QOPSIZ | q = 1 | S = 0 | Stoichiometry = C30H27ClN4OPRuS(1+) | MND = 6
 OpenBabel04212202093D

 66 72  0  0  0  0  0  0  0  0999 V2000
   11.0987   10.9400   13.6442 Ru  0  0  0  0  0  0  0  0  0  0  0  0
   11.4771   10.3099   15.9018 Cl  0  0  0  0  0  0  0  0  0  0  0  0
   10.5708    8.6428   13.0394 S   0  0  2  0  0  3  0  0  0  0  0  0
   10.6684   11.4973   11.4173 P   0  0  0  0  0  4  0  0  0  0  0  0
    9.2358   11.0508   14.1240 N   0  0  0  0  0  0  0  0  0  0  0  0
    9.6420   14.2373   15.4517 N   0  0  0  0  0  0  0  0  0  0  0  0
    8.8552    8.7671   13.5315 C   0  0  0  0  0  0  0  0  0  0  0  0
    8.0216    7.6719   13.4005 C   0  0  0  0  0  0  0  0  0  0  0  0
    8.4134    6.7449   13.0116 H   0  0  0  0  0  0  0  0  0  0  0  0
    6.6891    7.7750   13.7649 C   0  0  0  0  0  0  0  0  0  0  0  0
    6.0405    6.9192   13.6645 H   0  0  0  0  0  0  0  0  0  0  0  0
    6.1905    8.9748   14.2548 C   0  0  0  0  0  0  0  0  0  0  0  0
    5.1529    9.0499   14.5398 H   0  0  0  0  0  0  0  0  0  0  0  0
    7.0139   10.0734   14.3796 C   0  0  0  0  0  0  0  0  0  0  0  0
    6.6454   11.0143   14.7564 H   0  0  0  0  0  0  0  0  0  0  0  0
    8.3621    9.9853   14.0140 C   0  0  0  0  0  0  0  0  0  0  0  0
    8.7850   12.1047   14.7137 N   0  0  0  0  0  0  0  0  0  0  0  0
    9.7385   13.0378   14.8345 C   0  0  0  0  0  0  0  0  0  0  0  0
   10.9851   12.8556   14.3582 N   0  0  0  0  0  0  0  0  0  0  0  0
   11.6940   13.9534   14.6960 C   0  0  0  0  0  0  0  0  0  0  0  0
   12.7342   14.0628   14.4601 H   0  0  0  0  0  0  0  0  0  0  0  0
   10.8687   14.8174   15.3723 C   0  0  0  0  0  0  0  0  0  0  0  0
   11.0726   15.7772   15.8007 H   0  0  0  0  0  0  0  0  0  0  0  0
    8.4727   14.7670   16.0976 C   0  0  0  0  0  0  0  0  0  0  0  0
    7.6815   14.0227   16.0447 H   0  0  0  0  0  0  0  0  0  0  0  0
    8.1488   15.6829   15.6010 H   0  0  0  0  0  0  0  0  0  0  0  0
    8.6913   14.9904   17.1424 H   0  0  0  0  0  0  0  0  0  0  0  0
   11.1966    7.4903   14.2990 C   0  0  0  0  0  0  0  0  0  0  0  0
   12.2377    7.3039   14.0502 H   0  0  0  0  0  0  0  0  0  0  0  0
   10.6237    6.5703   14.2387 H   0  0  0  0  0  0  0  0  0  0  0  0
   11.1209    7.9494   15.2818 H   0  0  0  0  0  0  0  0  0  0  0  0
   14.1040   10.8781   13.6465 O   0  0  0  0  0  1  0  0  0  0  0  0
   11.6088   10.6538   10.1141 C   0  0  0  0  0  0  0  0  0  0  0  0
   11.3541   10.9896    8.7853 C   0  0  0  0  0  0  0  0  0  0  0  0
   10.5962   11.7247    8.5531 H   0  0  0  0  0  0  0  0  0  0  0  0
   12.5852    9.7129   10.4181 C   0  0  0  0  0  0  0  0  0  0  0  0
   12.7793    9.4550   11.4532 H   0  0  0  0  0  0  0  0  0  0  0  0
    8.9378   11.1064   11.0348 C   0  0  0  0  0  0  0  0  0  0  0  0
    7.9272   11.9455   11.5037 C   0  0  0  0  0  0  0  0  0  0  0  0
    8.1871   12.8784   11.9900 H   0  0  0  0  0  0  0  0  0  0  0  0
    6.6023   11.5849   11.3476 C   0  0  0  0  0  0  0  0  0  0  0  0
    5.8209   12.2412   11.6998 H   0  0  0  0  0  0  0  0  0  0  0  0
    8.6075    9.8928   10.4381 C   0  0  0  0  0  0  0  0  0  0  0  0
    9.3933    9.2360   10.0909 H   0  0  0  0  0  0  0  0  0  0  0  0
   10.9164   13.2410   10.9811 C   0  0  0  0  0  0  0  0  0  0  0  0
   12.1002   13.8165   11.4389 C   0  0  0  0  0  0  0  0  0  0  0  0
   12.7745   13.2153   12.0385 H   0  0  0  0  0  0  0  0  0  0  0  0
   12.4062   15.1245   11.1162 C   0  0  0  0  0  0  0  0  0  0  0  0
   13.3245   15.5689   11.4689 H   0  0  0  0  0  0  0  0  0  0  0  0
   10.0512   13.9775   10.1787 C   0  0  0  0  0  0  0  0  0  0  0  0
    9.1408   13.5328    9.8018 H   0  0  0  0  0  0  0  0  0  0  0  0
   12.9747   10.8788   13.5218 C   0  0  0  0  0  2  0  0  0  0  0  0
   13.0466    9.4431    8.0795 C   0  0  0  0  0  0  0  0  0  0  0  0
   13.6084    8.9735    7.2869 H   0  0  0  0  0  0  0  0  0  0  0  0
    7.2786    9.5368   10.2907 C   0  0  0  0  0  0  0  0  0  0  0  0
    7.0248    8.5981    9.8226 H   0  0  0  0  0  0  0  0  0  0  0  0
   11.5330   15.8634   10.3321 C   0  0  0  0  0  0  0  0  0  0  0  0
   11.7684   16.8860   10.0808 H   0  0  0  0  0  0  0  0  0  0  0  0
   13.3018    9.1092    9.3993 C   0  0  0  0  0  0  0  0  0  0  0  0
   14.0614    8.3801    9.6360 H   0  0  0  0  0  0  0  0  0  0  0  0
   12.0718   10.3812    7.7737 C   0  0  0  0  0  0  0  0  0  0  0  0
   11.8744   10.6406    6.7448 H   0  0  0  0  0  0  0  0  0  0  0  0
    6.2773   10.3802   10.7429 C   0  0  0  0  0  0  0  0  0  0  0  0
    5.2421   10.1001   10.6251 H   0  0  0  0  0  0  0  0  0  0  0  0
   10.3634   15.2887    9.8623 C   0  0  0  0  0  0  0  0  0  0  0  0
    9.6916   15.8616    9.2412 H   0  0  0  0  0  0  0  0  0  0  0  0
  1  5  1  0  0  0  0
  1 19  1  0  0  0  0
  1  2  1  0  0  0  0
  3  7  1  0  0  0  0
  3  1  1  0  0  0  0
  3 28  1  1  0  0  0
  4  1  1  0  0  0  0
  5 17  1  0  0  0  0
  6 24  1  0  0  0  0
  7 16  1  0  0  0  0
  8  7  2  0  0  0  0
  8 10  1  0  0  0  0
  9  8  1  0  0  0  0
 10 12  2  0  0  0  0
 11 10  1  0  0  0  0
 12 14  1  0  0  0  0
 12 13  1  0  0  0  0
 14 15  1  0  0  0  0
 16  5  1  0  0  0  0
 16 14  2  0  0  0  0
 17 18  2  0  0  0  0
 18  6  1  0  0  0  0
 19 20  1  0  0  0  0
 19 18  1  0  0  0  0
 20 22  2  0  0  0  0
 21 20  1  0  0  0  0
 22  6  1  0  0  0  0
 22 23  1  0  0  0  0
 24 27  1  0  0  0  0
 25 24  1  0  0  0  0
 26 24  1  0  0  0  0
 28 31  1  0  0  0  0
 29 28  1  0  0  0  0
 30 28  1  0  0  0  0
 33 36  1  0  0  0  0
 33  4  1  0  0  0  0
 34 33  2  0  0  0  0
 35 34  1  0  0  0  0
 36 37  1  0  0  0  0
 38  4  1  0  0  0  0
 38 39  1  0  0  0  0
 39 40  1  0  0  0  0
 41 39  2  0  0  0  0
 41 42  1  0  0  0  0
 43 38  2  0  0  0  0
 44 43  1  0  0  0  0
 45  4  1  0  0  0  0
 45 46  1  0  0  0  0
 46 47  1  0  0  0  0
 48 46  2  0  0  0  0
 48 49  1  0  0  0  0
 50 45  2  0  0  0  0
 51 50  1  0  0  0  0
 52  1  1  0  0  0  0
 52 32  1  0  0  0  0
 53 59  1  0  0  0  0
 54 53  1  0  0  0  0
 55 43  1  0  0  0  0
 55 63  2  0  0  0  0
 56 55  1  0  0  0  0
 57 48  1  0  0  0  0
 58 57  1  0  0  0  0
 59 60  1  0  0  0  0
 59 36  2  0  0  0  0
 61 53  2  0  0  0  0
 61 34  1  0  0  0  0
 62 61  1  0  0  0  0
 63 41  1  0  0  0  0
 64 63  1  0  0  0  0
 65 50  1  0  0  0  0
 65 57  2  0  0  0  0
 66 65  1  0  0  0  0
M  END
$$$$
