CSD_code = QOPXAU | q = 0 | S = 0 | Stoichiometry = C7H19Cl4NbSi2 | MND = 5
 OpenBabel04212202093D

 33 32  0  0  0  0  0  0  0  0999 V2000
    9.1278    1.9630    7.3577 Nb  0  0  0  0  0  0  0  0  0  0  0  0
    7.3549    0.6371    6.8398 Cl  0  0  0  0  0  0  0  0  0  0  0  0
    9.5671    0.7440    9.2377 Cl  0  0  0  0  0  0  0  0  0  0  0  0
   11.1382    1.3877    6.4347 Cl  0  0  0  0  0  0  0  0  0  0  0  0
    8.7010    3.3886    5.6518 Cl  0  0  0  0  0  0  0  0  0  0  0  0
    7.4300    4.8246    8.4848 Si  0  0  0  0  0  0  0  0  0  0  0  0
   10.7157    4.6075    8.6892 Si  0  0  0  0  0  0  0  0  0  0  0  0
    8.9946    3.7401    8.7427 C   0  0  0  0  0  0  0  0  0  0  0  0
    8.9089    3.3599    9.7667 H   0  0  0  0  0  0  0  0  0  0  0  0
    7.6164    6.2503    7.2303 C   0  0  0  0  0  0  0  0  0  0  0  0
    8.3780    6.9571    7.5413 H   0  0  0  0  0  0  0  0  0  0  0  0
    6.6808    6.7943    7.1455 H   0  0  0  0  0  0  0  0  0  0  0  0
    7.8763    5.8898    6.2416 H   0  0  0  0  0  0  0  0  0  0  0  0
    6.0001    3.6595    7.9713 C   0  0  0  0  0  0  0  0  0  0  0  0
    6.0208    2.7421    8.5606 H   0  0  0  0  0  0  0  0  0  0  0  0
    6.0705    3.3874    6.9200 H   0  0  0  0  0  0  0  0  0  0  0  0
    5.0313    4.1249    8.1239 H   0  0  0  0  0  0  0  0  0  0  0  0
    6.9732    5.5779   10.1820 C   0  0  0  0  0  0  0  0  0  0  0  0
    7.7524    6.2321   10.5549 H   0  0  0  0  0  0  0  0  0  0  0  0
    6.8034    4.8089   10.9284 H   0  0  0  0  0  0  0  0  0  0  0  0
    6.0638    6.1640   10.1053 H   0  0  0  0  0  0  0  0  0  0  0  0
   11.9952    3.3933    9.4325 C   0  0  0  0  0  0  0  0  0  0  0  0
   12.1383    2.5250    8.7921 H   0  0  0  0  0  0  0  0  0  0  0  0
   11.6731    3.0307   10.4050 H   0  0  0  0  0  0  0  0  0  0  0  0
   12.9623    3.8685    9.5656 H   0  0  0  0  0  0  0  0  0  0  0  0
   10.6757    6.1610    9.7992 C   0  0  0  0  0  0  0  0  0  0  0  0
    9.9951    6.9137    9.4193 H   0  0  0  0  0  0  0  0  0  0  0  0
   11.6623    6.6080    9.8525 H   0  0  0  0  0  0  0  0  0  0  0  0
   10.3726    5.9197   10.8119 H   0  0  0  0  0  0  0  0  0  0  0  0
   11.2551    5.1167    6.9287 C   0  0  0  0  0  0  0  0  0  0  0  0
   10.4831    5.6853    6.4213 H   0  0  0  0  0  0  0  0  0  0  0  0
   11.4799    4.2461    6.3158 H   0  0  0  0  0  0  0  0  0  0  0  0
   12.1478    5.7334    6.9650 H   0  0  0  0  0  0  0  0  0  0  0  0
  1  8  1  0  0  0  0
  1  3  1  0  0  0  0
  2  1  1  0  0  0  0
  4  1  1  0  0  0  0
  5  1  1  0  0  0  0
  6  8  1  0  0  0  0
  6 18  1  0  0  0  0
  7  8  1  0  0  0  0
  7 22  1  0  0  0  0
  7 26  1  0  0  0  0
  8  9  1  0  0  0  0
 10 11  1  0  0  0  0
 10  6  1  0  0  0  0
 12 10  1  0  0  0  0
 13 10  1  0  0  0  0
 14 17  1  0  0  0  0
 14  6  1  0  0  0  0
 14 15  1  0  0  0  0
 16 14  1  0  0  0  0
 18 19  1  0  0  0  0
 18 20  1  0  0  0  0
 21 18  1  0  0  0  0
 22 25  1  0  0  0  0
 22 24  1  0  0  0  0
 23 22  1  0  0  0  0
 26 28  1  0  0  0  0
 26 29  1  0  0  0  0
 27 26  1  0  0  0  0
 30 33  1  0  0  0  0
 30  7  1  0  0  0  0
 31 30  1  0  0  0  0
 32 30  1  0  0  0  0
M  END
$$$$
