CSD_code = QOPYEZ | q = 0 | S = 0 | Stoichiometry = C24H26Cl2HfSi | MND = 12
 OpenBabel04212202093D

 54 58  0  0  1  0  0  0  0  0999 V2000
    1.9753    2.2992    2.8186 Hf  0  0  0  0  0  0  0  0  0  0  0  0
    4.0759    2.3444    1.8867 Cl  0  0  0  0  0  0  0  0  0  0  0  0
    1.6662    4.5675    2.5995 Cl  0  0  0  0  0  0  0  0  0  0  0  0
    4.6626    2.7569    5.4164 Si  0  0  0  0  0  0  0  0  0  0  0  0
    0.3599   -0.1965    3.5707 C   0  0  0  0  0  0  0  0  0  0  0  0
    0.5645    0.5077    2.2162 C   0  0  0  0  0  0  0  0  0  0  0  0
   -0.0972    1.7364    1.8227 C   0  0  0  0  0  0  0  0  0  0  0  0
   -1.1987    2.4786    2.3182 C   0  0  0  0  0  0  0  0  0  0  0  0
   -1.7757    2.1404    3.1632 H   0  0  0  0  0  0  0  0  0  0  0  0
   -1.6061    3.6228    1.6735 C   0  0  0  0  0  0  0  0  0  0  0  0
   -2.4508    4.1703    2.0648 H   0  0  0  0  0  0  0  0  0  0  0  0
   -0.9695    4.0960    0.5210 C   0  0  0  0  0  0  0  0  0  0  0  0
   -1.3266    4.9964    0.0472 H   0  0  0  0  0  0  0  0  0  0  0  0
    0.0991    3.4103   -0.0063 C   0  0  0  0  0  0  0  0  0  0  0  0
    0.5889    3.7549   -0.9056 H   0  0  0  0  0  0  0  0  0  0  0  0
    0.5510    2.2514    0.6315 C   0  0  0  0  0  0  0  0  0  0  0  0
    1.5967    1.3407    0.2753 C   0  0  0  0  0  0  0  0  0  0  0  0
    2.4692    1.3555   -0.8142 C   0  0  0  0  0  0  0  0  0  0  0  0
    2.4183    2.1605   -1.5328 H   0  0  0  0  0  0  0  0  0  0  0  0
    3.3830    0.3386   -0.9568 C   0  0  0  0  0  0  0  0  0  0  0  0
    4.0695    0.3346   -1.7887 H   0  0  0  0  0  0  0  0  0  0  0  0
    3.4178   -0.7027   -0.0254 C   0  0  0  0  0  0  0  0  0  0  0  0
    4.1335   -1.5003   -0.1595 H   0  0  0  0  0  0  0  0  0  0  0  0
    2.5628   -0.7512    1.0508 C   0  0  0  0  0  0  0  0  0  0  0  0
    2.6185   -1.6064    1.7018 H   0  0  0  0  0  0  0  0  0  0  0  0
    1.6191    0.2793    1.2541 C   0  0  0  0  0  0  0  0  0  0  0  0
    0.9539   -1.6093    3.6339 C   0  0  0  0  0  0  0  0  0  0  0  0
    2.0354   -1.6079    3.5700 H   0  0  0  0  0  0  0  0  0  0  0  0
    0.5461   -2.2242    2.8352 H   0  0  0  0  0  0  0  0  0  0  0  0
    0.6900   -2.0643    4.5867 H   0  0  0  0  0  0  0  0  0  0  0  0
   -1.1247   -0.3438    3.9400 C   0  0  0  0  0  0  0  0  0  0  0  0
   -1.2312   -1.0442    4.7653 H   0  0  0  0  0  0  0  0  0  0  0  0
   -1.6795   -0.7296    3.0879 H   0  0  0  0  0  0  0  0  0  0  0  0
   -1.5780    0.5872    4.2552 H   0  0  0  0  0  0  0  0  0  0  0  0
    1.1255    0.7647    4.4748 C   0  0  1  0  0  3  0  0  0  0  0  0
    2.5490    0.8413    4.5038 C   0  0  2  0  0  0  0  0  0  0  0  0
    3.2473    0.0357    4.3145 H   0  0  0  0  0  0  0  0  0  0  0  0
    2.9283    2.1180    5.0236 C   0  0  1  0  0  3  0  0  0  0  0  0
    1.7256    2.8202    5.2900 C   0  0  0  0  0  0  0  0  0  0  0  0
    1.6621    3.7813    5.7796 H   0  0  0  0  0  0  0  0  0  0  0  0
    0.6322    2.0088    4.9417 C   0  0  0  0  0  0  0  0  0  0  0  0
   -0.3985    2.2585    5.1395 H   0  0  0  0  0  0  0  0  0  0  0  0
    5.9641    1.5120    4.7914 C   0  0  0  0  0  0  0  0  0  0  0  0
    5.8934    1.3693    3.7181 H   0  0  0  0  0  0  0  0  0  0  0  0
    5.8532    0.5437    5.2708 H   0  0  0  0  0  0  0  0  0  0  0  0
    6.9649    1.8689    5.0112 H   0  0  0  0  0  0  0  0  0  0  0  0
    4.8093    2.9121    7.3153 C   0  0  0  0  0  0  0  0  0  0  0  0
    5.7725    3.3289    7.5888 H   0  0  0  0  0  0  0  0  0  0  0  0
    4.7179    1.9478    7.8042 H   0  0  0  0  0  0  0  0  0  0  0  0
    4.0422    3.5609    7.7251 H   0  0  0  0  0  0  0  0  0  0  0  0
    4.8187    4.4839    4.6212 C   0  0  0  0  0  0  0  0  0  0  0  0
    4.3923    4.4989    3.6200 H   0  0  0  0  0  0  0  0  0  0  0  0
    5.8565    4.7908    4.5407 H   0  0  0  0  0  0  0  0  0  0  0  0
    4.3015    5.2368    5.2089 H   0  0  0  0  0  0  0  0  0  0  0  0
  1 36  1  0  0  0  0
  2  1  1  0  0  0  0
  3  1  1  0  0  0  0
  4 47  1  0  0  0  0
  5 27  1  0  0  0  0
  5 31  1  0  0  0  0
  5 35  1  0  0  0  0
  6  1  1  0  0  0  0
  6  5  1  0  0  0  0
  7  6  1  0  0  0  0
  7  8  1  0  0  0  0
  8  9  1  0  0  0  0
 10 11  1  0  0  0  0
 10  8  2  0  0  0  0
 12 10  1  0  0  0  0
 13 12  1  0  0  0  0
 14 12  2  0  0  0  0
 14 16  1  0  0  0  0
 15 14  1  0  0  0  0
 16  7  2  0  0  0  0
 17 16  1  0  0  0  0
 17 26  1  0  0  0  0
 18 17  2  0  0  0  0
 19 18  1  0  0  0  0
 20 18  1  0  0  0  0
 20 22  2  0  0  0  0
 21 20  1  0  0  0  0
 22 24  1  0  0  0  0
 23 22  1  0  0  0  0
 24 26  2  0  0  0  0
 24 25  1  0  0  0  0
 26  6  1  0  0  0  0
 27 30  1  0  0  0  0
 28 27  1  0  0  0  0
 29 27  1  0  0  0  0
 31 34  1  0  0  0  0
 31 32  1  0  0  0  0
 33 31  1  0  0  0  0
 35 36  1  0  0  0  0
 35 41  1  6  0  0  0
 36 37  1  6  0  0  0
 36 38  1  0  0  0  0
 38 39  1  0  0  0  0
 38  4  1  1  0  0  0
 39 40  1  0  0  0  0
 41 42  1  0  0  0  0
 41 39  2  0  0  0  0
 43 46  1  0  0  0  0
 43 45  1  0  0  0  0
 43  4  1  0  0  0  0
 44 43  1  0  0  0  0
 47 48  1  0  0  0  0
 47 50  1  0  0  0  0
 47 49  1  0  0  0  0
 51 54  1  0  0  0  0
 51  4  1  0  0  0  0
 52 51  1  0  0  0  0
 53 51  1  0  0  0  0
M  END
$$$$
