CSD_code = QOPZUR | q = 0 | S = 0 | Stoichiometry = C6H10AuCl | MND = 3
 OpenBabel04212202093D

 18 16  0  0  1  0  0  0  0  0999 V2000
    9.3454    0.7835    4.1377 Au  0  0  0  0  0  0  0  0  0  0  0  0
   10.6841   -0.9163    4.6887 Cl  0  0  0  0  0 15  0  0  0  0  0  0
   10.7039    3.9873    3.4798 C   0  0  0  0  0  0  0  0  0  0  0  0
   11.3009    3.1278    3.7780 H   0  0  0  0  0  0  0  0  0  0  0  0
   11.2440    4.8942    3.7396 H   0  0  0  0  0  0  0  0  0  0  0  0
   10.5727    3.9580    2.4005 H   0  0  0  0  0  0  0  0  0  0  0  0
    9.3491    3.9680    4.1863 C   0  0  0  0  0  0  0  0  0  0  0  0
    9.4976    3.9958    5.2690 H   0  0  0  0  0  0  0  0  0  0  0  0
    8.7642    4.8471    3.8980 H   0  0  0  0  0  0  0  0  0  0  0  0
    8.5654    2.7880    3.8409 C   0  0  0  0  0  2  0  0  0  0  0  0
    7.7129    1.9915    3.4459 C   0  0  2  0  0  3  0  0  0  0  0  0
    6.4831    1.4294    2.8950 C   0  0  0  0  0  0  0  0  0  0  0  0
    5.9984    0.8101    3.6543 H   0  0  0  0  0  0  0  0  0  0  0  0
    6.7278    0.7854    2.0466 H   0  0  0  0  0  0  0  0  0  0  0  0
    5.5436    2.5508    2.4509 C   0  0  0  0  0  0  0  0  0  0  0  0
    5.2879    3.1894    3.2930 H   0  0  0  0  0  0  0  0  0  0  0  0
    4.6295    2.1259    2.0447 H   0  0  0  0  0  0  0  0  0  0  0  0
    6.0150    3.1621    1.6852 H   0  0  0  0  0  0  0  0  0  0  0  0
  3  5  1  0  0  0  0
  3  4  1  0  0  0  0
  3  7  1  0  0  0  0
  6  3  1  0  0  0  0
  7  8  1  0  0  0  0
  9  7  1  0  0  0  0
 10  7  1  0  0  0  0
 11 10  1  0  0  0  0
 11  1  1  1  0  0  0
 12 11  1  0  0  0  0
 12 13  1  0  0  0  0
 14 12  1  0  0  0  0
 15 12  1  0  0  0  0
 15 16  1  0  0  0  0
 17 15  1  0  0  0  0
 18 15  1  0  0  0  0
M  END
$$$$
