CSD_code = QOQGIO | q = 0 | S = 0 | Stoichiometry = C29H29ClN5PZn | MND = 4
 OpenBabel04212202093D

 66 72  0  0  1  0  0  0  0  0999 V2000
    4.7478    2.5164   18.5854 C   0  0  2  0  0  3  0  0  0  0  0  0
    2.9445    1.6913   20.8581 C   0  0  0  0  0  0  0  0  0  0  0  0
    2.1354    0.9948   20.6420 H   0  0  0  0  0  0  0  0  0  0  0  0
    2.9115    1.9308   21.9191 H   0  0  0  0  0  0  0  0  0  0  0  0
    3.8938    1.2170   20.6241 H   0  0  0  0  0  0  0  0  0  0  0  0
    2.7861    2.9270   20.0511 C   0  0  1  0  0  3  0  0  0  0  0  0
    1.8215    3.9151   20.1309 C   0  0  0  0  0  0  0  0  0  0  0  0
    0.9960    3.9544   20.8118 H   0  0  0  0  0  0  0  0  0  0  0  0
    2.1488    4.8511   19.1470 C   0  0  0  0  0  0  0  0  0  0  0  0
    1.4453    6.1065   18.7832 C   0  0  0  0  0  0  0  0  0  0  0  0
    2.1127    6.7579   18.2239 H   0  0  0  0  0  0  0  0  0  0  0  0
    1.1016    6.6201   19.6781 H   0  0  0  0  0  0  0  0  0  0  0  0
    0.5777    5.8828   18.1625 H   0  0  0  0  0  0  0  0  0  0  0  0
    7.1966    1.3429   19.8709 C   0  0  0  0  0  0  0  0  0  0  0  0
    6.2022    0.9280   20.0151 H   0  0  0  0  0  0  0  0  0  0  0  0
    7.7462    1.3217   20.8089 H   0  0  0  0  0  0  0  0  0  0  0  0
    7.7244    0.7201   19.1484 H   0  0  0  0  0  0  0  0  0  0  0  0
    7.0934    2.7345   19.3661 C   0  0  1  0  0  3  0  0  0  0  0  0
    8.0382    3.7453   19.3391 C   0  0  0  0  0  0  0  0  0  0  0  0
    9.0396    3.7004   19.7155 H   0  0  0  0  0  0  0  0  0  0  0  0
    7.4174    4.8338   18.7211 C   0  0  0  0  0  0  0  0  0  0  0  0
    7.9674    6.1828   18.4344 C   0  0  0  0  0  0  0  0  0  0  0  0
    8.8119    6.1085   17.7507 H   0  0  0  0  0  0  0  0  0  0  0  0
    8.3163    6.6509   19.3533 H   0  0  0  0  0  0  0  0  0  0  0  0
    7.1996    6.8074   17.9842 H   0  0  0  0  0  0  0  0  0  0  0  0
    2.9549    1.4202   16.7170 C   0  0  0  0  0  0  0  0  0  0  0  0
    1.9850    1.9005   15.8462 C   0  0  0  0  0  0  0  0  0  0  0  0
    2.2213    2.7235   15.1857 H   0  0  0  0  0  0  0  0  0  0  0  0
    0.7265    1.3263   15.8343 C   0  0  0  0  0  0  0  0  0  0  0  0
   -0.0269    1.6963   15.1548 H   0  0  0  0  0  0  0  0  0  0  0  0
    0.4324    0.2819   16.6957 C   0  0  0  0  0  0  0  0  0  0  0  0
   -0.5506   -0.1653   16.6851 H   0  0  0  0  0  0  0  0  0  0  0  0
    1.3937   -0.1844   17.5791 C   0  0  0  0  0  0  0  0  0  0  0  0
    1.1574   -0.9915   18.2577 H   0  0  0  0  0  0  0  0  0  0  0  0
    2.6527    0.3860   17.5968 C   0  0  0  0  0  0  0  0  0  0  0  0
    3.4061    0.0495   18.2939 H   0  0  0  0  0  0  0  0  0  0  0  0
    5.9193    1.1207   16.4278 C   0  0  0  0  0  0  0  0  0  0  0  0
    5.7881   -0.2611   16.4093 C   0  0  0  0  0  0  0  0  0  0  0  0
    4.8210   -0.7138   16.5728 H   0  0  0  0  0  0  0  0  0  0  0  0
    6.8961   -1.0521   16.1626 C   0  0  0  0  0  0  0  0  0  0  0  0
    6.7941   -2.1274   16.1443 H   0  0  0  0  0  0  0  0  0  0  0  0
    8.1330   -0.4698   15.9378 C   0  0  0  0  0  0  0  0  0  0  0  0
    8.9952   -1.0922   15.7491 H   0  0  0  0  0  0  0  0  0  0  0  0
    8.2632    0.9097   15.9452 C   0  0  0  0  0  0  0  0  0  0  0  0
    9.2248    1.3653   15.7609 H   0  0  0  0  0  0  0  0  0  0  0  0
    7.1583    1.7043   16.1869 C   0  0  0  0  0  0  0  0  0  0  0  0
    7.2463    2.7828   16.1793 H   0  0  0  0  0  0  0  0  0  0  0  0
    4.7811    3.5488   14.5316 C   0  0  0  0  0  0  0  0  0  0  0  0
    5.0432    4.7290   13.8372 C   0  0  0  0  0  0  0  0  0  0  0  0
    5.1318    5.6555   14.3877 H   0  0  0  0  0  0  0  0  0  0  0  0
    5.1818    4.7132   12.4638 C   0  0  0  0  0  0  0  0  0  0  0  0
    5.3837    5.6363   11.9405 H   0  0  0  0  0  0  0  0  0  0  0  0
    5.0647    3.5267   11.7571 C   0  0  0  0  0  0  0  0  0  0  0  0
    5.1758    3.5182   10.6832 H   0  0  0  0  0  0  0  0  0  0  0  0
    4.7993    2.3518   12.4395 C   0  0  0  0  0  0  0  0  0  0  0  0
    4.6993    1.4200   11.9009 H   0  0  0  0  0  0  0  0  0  0  0  0
    4.6562    2.3608   13.8130 C   0  0  0  0  0  0  0  0  0  0  0  0
    4.4347    1.4408   14.3447 H   0  0  0  0  0  0  0  0  0  0  0  0
    4.5753    7.2099   16.8488 Cl  0  0  0  0  0  0  0  0  0  0  0  0
    3.2431    4.4472   18.5123 N   0  0  0  0  0  0  0  0  0  0  0  0
    3.6279    3.2767   19.0636 N   0  0  2  0  0  0  0  0  0  0  0  0
    6.1755    4.4954   18.3903 N   0  0  0  0  0  0  0  0  0  0  0  0
    5.9810    3.2221   18.7915 N   0  0  1  0  0  0  0  0  0  0  0  0
    4.6515    3.5978   15.9195 N   0  0  0  0  0  0  0  0  0  0  0  0
    4.5579    2.2577   16.8299 P   0  0  0  0  0  4  0  0  0  0  0  0
    4.6379    5.0954   17.2171 Zn  0  0  2  0  0  0  0  0  0  0  0  0
  1 65  1  6  0  0  0
  1 63  1  0  0  0  0
  1 61  1  0  0  0  0
  2  4  1  0  0  0  0
  3  2  1  0  0  0  0
  5  2  1  0  0  0  0
  6  7  1  0  0  0  0
  6  2  1  1  0  0  0
  7  8  1  0  0  0  0
  9  7  2  0  0  0  0
 10  9  1  0  0  0  0
 10 12  1  0  0  0  0
 11 10  1  0  0  0  0
 13 10  1  0  0  0  0
 14 15  1  0  0  0  0
 14 16  1  0  0  0  0
 17 14  1  0  0  0  0
 18 14  1  6  0  0  0
 19 18  1  0  0  0  0
 19 20  1  0  0  0  0
 21 19  2  0  0  0  0
 22 21  1  0  0  0  0
 22 24  1  0  0  0  0
 23 22  1  0  0  0  0
 25 22  1  0  0  0  0
 26 65  1  0  0  0  0
 26 35  1  0  0  0  0
 27 26  2  0  0  0  0
 28 27  1  0  0  0  0
 29 27  1  0  0  0  0
 29 31  2  0  0  0  0
 30 29  1  0  0  0  0
 31 33  1  0  0  0  0
 32 31  1  0  0  0  0
 33 35  2  0  0  0  0
 33 34  1  0  0  0  0
 35 36  1  0  0  0  0
 37 65  1  0  0  0  0
 38 37  1  0  0  0  0
 38 39  1  0  0  0  0
 40 38  2  0  0  0  0
 41 40  1  0  0  0  0
 42 44  2  0  0  0  0
 42 40  1  0  0  0  0
 43 42  1  0  0  0  0
 44 46  1  0  0  0  0
 45 44  1  0  0  0  0
 46 37  2  0  0  0  0
 47 46  1  0  0  0  0
 48 64  1  0  0  0  0
 49 50  1  0  0  0  0
 49 48  1  0  0  0  0
 51 49  2  0  0  0  0
 52 51  1  0  0  0  0
 53 55  2  0  0  0  0
 53 51  1  0  0  0  0
 54 53  1  0  0  0  0
 55 57  1  0  0  0  0
 56 55  1  0  0  0  0
 57 58  1  0  0  0  0
 57 48  2  0  0  0  0
 60  9  1  0  0  0  0
 61 60  1  6  0  0  0
 61  6  1  0  0  0  0
 62 21  1  0  0  0  0
 63 62  1  6  0  0  0
 63 18  1  0  0  0  0
 64 65  1  0  0  0  0
 64 66  1  0  0  0  0
 66 59  1  6  0  0  0
 66 62  1  0  0  0  0
 66 60  1  0  0  0  0
M  END
$$$$
