CSD_code = QORJOY | q = 0 | S = 0 | Stoichiometry = C9H27Cl3P3Rh | MND = 6
 OpenBabel04212202093D

 43 42  0  0  0  0  0  0  0  0999 V2000
    3.9193   12.9868    1.7665 Rh  0  0  0  0  0  0  0  0  0  0  0  0
    6.0111   13.9476    2.1535 Cl  0  0  0  0  0  0  0  0  0  0  0  0
    4.6859   12.1787   -0.2842 Cl  0  0  0  0  0  0  0  0  0  0  0  0
    4.6457   11.0217    2.7958 Cl  0  0  0  0  0  0  0  0  0  0  0  0
    2.0201   11.9000    1.0342 P   0  0  0  0  0  4  0  0  0  0  0  0
    3.3102   13.4331    3.9473 P   0  0  0  0  0  4  0  0  0  0  0  0
    3.5937   15.0673    0.8223 P   0  0  0  0  0  4  0  0  0  0  0  0
    1.5906   12.0006   -0.7438 C   0  0  0  0  0  0  0  0  0  0  0  0
    1.5758   13.0338   -1.0831 H   0  0  0  0  0  0  0  0  0  0  0  0
    0.6120   11.5468   -0.8996 H   0  0  0  0  0  0  0  0  0  0  0  0
    2.3492   11.4655   -1.3105 H   0  0  0  0  0  0  0  0  0  0  0  0
    0.3885   12.3389    1.7700 C   0  0  0  0  0  0  0  0  0  0  0  0
    0.4144   12.2110    2.8493 H   0  0  0  0  0  0  0  0  0  0  0  0
   -0.3831   11.6928    1.3537 H   0  0  0  0  0  0  0  0  0  0  0  0
    0.1496   13.3759    1.5432 H   0  0  0  0  0  0  0  0  0  0  0  0
    2.0415   10.0929    1.2558 C   0  0  0  0  0  0  0  0  0  0  0  0
    2.9298    9.7059    0.7577 H   0  0  0  0  0  0  0  0  0  0  0  0
    1.1425    9.6582    0.8184 H   0  0  0  0  0  0  0  0  0  0  0  0
    2.1116    9.8494    2.3144 H   0  0  0  0  0  0  0  0  0  0  0  0
    2.0479   14.7322    4.2871 C   0  0  0  0  0  0  0  0  0  0  0  0
    2.3577   15.6819    3.8586 H   0  0  0  0  0  0  0  0  0  0  0  0
    1.9285   14.8494    5.3633 H   0  0  0  0  0  0  0  0  0  0  0  0
    1.0948   14.4426    3.8493 H   0  0  0  0  0  0  0  0  0  0  0  0
    4.6777   13.9648    5.0249 C   0  0  0  0  0  0  0  0  0  0  0  0
    5.4535   13.2010    4.9807 H   0  0  0  0  0  0  0  0  0  0  0  0
    4.3175   14.0799    6.0475 H   0  0  0  0  0  0  0  0  0  0  0  0
    5.0982   14.8990    4.6570 H   0  0  0  0  0  0  0  0  0  0  0  0
    2.6185   12.0676    4.9538 C   0  0  0  0  0  0  0  0  0  0  0  0
    1.7840   11.5920    4.4437 H   0  0  0  0  0  0  0  0  0  0  0  0
    2.2858   12.4660    5.9120 H   0  0  0  0  0  0  0  0  0  0  0  0
    3.3973   11.3236    5.1045 H   0  0  0  0  0  0  0  0  0  0  0  0
    4.3292   15.2772   -0.8297 C   0  0  0  0  0  0  0  0  0  0  0  0
    5.3903   15.0417   -0.7550 H   0  0  0  0  0  0  0  0  0  0  0  0
    4.1923   16.3055   -1.1652 H   0  0  0  0  0  0  0  0  0  0  0  0
    3.8737   14.5795   -1.5301 H   0  0  0  0  0  0  0  0  0  0  0  0
    4.2934   16.5312    1.6734 C   0  0  0  0  0  0  0  0  0  0  0  0
    3.9824   16.5626    2.7150 H   0  0  0  0  0  0  0  0  0  0  0  0
    3.9579   17.4329    1.1616 H   0  0  0  0  0  0  0  0  0  0  0  0
    5.3783   16.4608    1.6414 H   0  0  0  0  0  0  0  0  0  0  0  0
    1.8757   15.6704    0.5386 C   0  0  0  0  0  0  0  0  0  0  0  0
    1.3258   14.9653   -0.0797 H   0  0  0  0  0  0  0  0  0  0  0  0
    1.9074   16.6357    0.0355 H   0  0  0  0  0  0  0  0  0  0  0  0
    1.3623   15.7786    1.4919 H   0  0  0  0  0  0  0  0  0  0  0  0
  1  2  1  0  0  0  0
  1  4  1  0  0  0  0
  1  6  1  0  0  0  0
  3  1  1  0  0  0  0
  5 16  1  0  0  0  0
  5  1  1  0  0  0  0
  5 12  1  0  0  0  0
  6 20  1  0  0  0  0
  6 28  1  0  0  0  0
  6 24  1  0  0  0  0
  7 36  1  0  0  0  0
  7  1  1  0  0  0  0
  8  5  1  0  0  0  0
  9  8  1  0  0  0  0
 10  8  1  0  0  0  0
 11  8  1  0  0  0  0
 12 13  1  0  0  0  0
 14 12  1  0  0  0  0
 15 12  1  0  0  0  0
 16 19  1  0  0  0  0
 17 16  1  0  0  0  0
 18 16  1  0  0  0  0
 20 22  1  0  0  0  0
 21 20  1  0  0  0  0
 23 20  1  0  0  0  0
 24 26  1  0  0  0  0
 25 24  1  0  0  0  0
 27 24  1  0  0  0  0
 28 31  1  0  0  0  0
 28 30  1  0  0  0  0
 29 28  1  0  0  0  0
 32 33  1  0  0  0  0
 32  7  1  0  0  0  0
 34 32  1  0  0  0  0
 35 32  1  0  0  0  0
 36 37  1  0  0  0  0
 38 36  1  0  0  0  0
 39 36  1  0  0  0  0
 40  7  1  0  0  0  0
 40 43  1  0  0  0  0
 41 40  1  0  0  0  0
 42 40  1  0  0  0  0
M  END
$$$$
