CSD_code = QOSGUB | q = 0 | S = 0 | Stoichiometry = C28H24Br2FeN2 | MND = 4
 OpenBabel04212202093D

 57 61  0  0  0  0  0  0  0  0999 V2000
    5.5411    3.7772    3.5882 Br  0  0  0  0  0  0  0  0  0  0  0  0
   10.0052    2.7736    3.4999 Br  0  0  0  0  0  0  0  0  0  0  0  0
    7.8277    3.5157    3.5908 Fe  0  0  0  0  0  0  0  0  0  0  0  0
    8.1404    4.6103    5.0636 N   0  0  0  0  0  0  0  0  0  0  0  0
    8.1181    5.0035    2.5125 N   0  0  0  0  0  0  0  0  0  0  0  0
    8.4300    4.2580    6.2713 C   0  0  0  0  0  3  0  0  0  0  0  0
    8.4783    2.8518    6.6549 C   0  0  0  0  0  0  0  0  0  0  0  0
    7.8481    1.8551    5.9015 C   0  0  0  0  0  0  0  0  0  0  0  0
    7.9566    0.5248    6.2529 C   0  0  0  0  0  0  0  0  0  0  0  0
    8.6954    0.1561    7.3656 C   0  0  0  0  0  0  0  0  0  0  0  0
    9.3121    1.1318    8.1322 C   0  0  0  0  0  0  0  0  0  0  0  0
    9.2040    2.4636    7.7867 C   0  0  0  0  0  0  0  0  0  0  0  0
    8.7713    5.2470    7.3264 C   0  0  0  0  0  0  0  0  0  0  0  0
    7.8439    5.5545    8.3144 C   0  0  0  0  0  0  0  0  0  0  0  0
    8.1665    6.4647    9.3054 C   0  0  0  0  0  0  0  0  0  0  0  0
    9.4139    7.0664    9.3189 C   0  0  0  0  0  0  0  0  0  0  0  0
   10.3422    6.7575    8.3383 C   0  0  0  0  0  0  0  0  0  0  0  0
   10.0244    5.8522    7.3418 C   0  0  0  0  0  0  0  0  0  0  0  0
    8.0808    6.0025    4.6778 C   0  0  0  0  0  0  0  0  0  0  0  0
    8.6900    6.0901    3.2783 C   0  0  0  0  0  0  0  0  0  0  0  0
    7.8640    5.1413    1.2542 C   0  0  0  0  0  3  0  0  0  0  0  0
    7.2739    4.0622    0.4716 C   0  0  0  0  0  0  0  0  0  0  0  0
    6.6439    4.3514   -0.7447 C   0  0  0  0  0  0  0  0  0  0  0  0
    6.0261    3.3566   -1.4747 C   0  0  0  0  0  0  0  0  0  0  0  0
    6.0263    2.0484   -1.0178 C   0  0  0  0  0  0  0  0  0  0  0  0
    6.6649    1.7401    0.1725 C   0  0  0  0  0  0  0  0  0  0  0  0
    7.2823    2.7323    0.9066 C   0  0  0  0  0  0  0  0  0  0  0  0
    8.1326    6.4182    0.5402 C   0  0  0  0  0  0  0  0  0  0  0  0
    9.3153    6.5716   -0.1723 C   0  0  0  0  0  0  0  0  0  0  0  0
    9.5686    7.7554   -0.8428 C   0  0  0  0  0  0  0  0  0  0  0  0
    8.6455    8.7870   -0.8066 C   0  0  0  0  0  0  0  0  0  0  0  0
    7.4652    8.6358   -0.0975 C   0  0  0  0  0  0  0  0  0  0  0  0
    7.2066    7.4558    0.5769 C   0  0  0  0  0  0  0  0  0  0  0  0
    7.2058    2.1176    5.0585 H   0  0  0  0  0  0  0  0  0  0  0  0
    7.4615   -0.2286    5.6584 H   0  0  0  0  0  0  0  0  0  0  0  0
    8.7858   -0.8853    7.6344 H   0  0  0  0  0  0  0  0  0  0  0  0
    9.8865    0.8516    9.0026 H   0  0  0  0  0  0  0  0  0  0  0  0
    9.7022    3.2137    8.3823 H   0  0  0  0  0  0  0  0  0  0  0  0
    6.8734    5.0807    8.2996 H   0  0  0  0  0  0  0  0  0  0  0  0
    7.4424    6.7023   10.0702 H   0  0  0  0  0  0  0  0  0  0  0  0
    9.6643    7.7737   10.0952 H   0  0  0  0  0  0  0  0  0  0  0  0
   11.3179    7.2200    8.3498 H   0  0  0  0  0  0  0  0  0  0  0  0
   10.7485    5.5973    6.5809 H   0  0  0  0  0  0  0  0  0  0  0  0
    8.5963    6.6618    5.3803 H   0  0  0  0  0  0  0  0  0  0  0  0
    7.0232    6.2878    4.6294 H   0  0  0  0  0  0  0  0  0  0  0  0
    8.5054    7.0674    2.8252 H   0  0  0  0  0  0  0  0  0  0  0  0
    9.7719    5.9237    3.3413 H   0  0  0  0  0  0  0  0  0  0  0  0
    6.6257    5.3686   -1.1057 H   0  0  0  0  0  0  0  0  0  0  0  0
    5.5363    3.6036   -2.4047 H   0  0  0  0  0  0  0  0  0  0  0  0
    5.5377    1.2724   -1.5869 H   0  0  0  0  0  0  0  0  0  0  0  0
    6.6834    0.7207    0.5279 H   0  0  0  0  0  0  0  0  0  0  0  0
    7.8288    2.4399    1.8062 H   0  0  0  0  0  0  0  0  0  0  0  0
   10.0310    5.7630   -0.1971 H   0  0  0  0  0  0  0  0  0  0  0  0
   10.4888    7.8708   -1.3957 H   0  0  0  0  0  0  0  0  0  0  0  0
    8.8446    9.7089   -1.3321 H   0  0  0  0  0  0  0  0  0  0  0  0
    6.7420    9.4372   -0.0704 H   0  0  0  0  0  0  0  0  0  0  0  0
    6.2850    7.3280    1.1268 H   0  0  0  0  0  0  0  0  0  0  0  0
  1  3  1  0  0  0  0
  2  3  1  0  0  0  0
  3  4  1  0  0  0  0
  4  6  1  0  0  0  0
  5 20  1  0  0  0  0
  5  3  1  0  0  0  0
  6  7  1  0  0  0  0
  6 13  1  0  0  0  0
  7 12  1  0  0  0  0
  8  9  1  0  0  0  0
  8  7  2  0  0  0  0
  9 10  2  0  0  0  0
 10 36  1  0  0  0  0
 10 11  1  0  0  0  0
 11 37  1  0  0  0  0
 12 11  2  0  0  0  0
 12 38  1  0  0  0  0
 13 18  2  0  0  0  0
 13 14  1  0  0  0  0
 14 15  2  0  0  0  0
 15 16  1  0  0  0  0
 15 40  1  0  0  0  0
 16 41  1  0  0  0  0
 17 42  1  0  0  0  0
 17 16  2  0  0  0  0
 18 17  1  0  0  0  0
 19  4  1  0  0  0  0
 19 44  1  0  0  0  0
 20 47  1  0  0  0  0
 20 19  1  0  0  0  0
 21  5  1  0  0  0  0
 22 27  1  0  0  0  0
 22 21  1  0  0  0  0
 23 22  2  0  0  0  0
 24 25  2  0  0  0  0
 24 23  1  0  0  0  0
 25 26  1  0  0  0  0
 26 51  1  0  0  0  0
 26 27  2  0  0  0  0
 27 52  1  0  0  0  0
 28 33  1  0  0  0  0
 28 21  1  0  0  0  0
 29 28  2  0  0  0  0
 30 31  2  0  0  0  0
 30 29  1  0  0  0  0
 31 32  1  0  0  0  0
 32 56  1  0  0  0  0
 32 33  2  0  0  0  0
 33 57  1  0  0  0  0
 34  8  1  0  0  0  0
 35  9  1  0  0  0  0
 39 14  1  0  0  0  0
 43 18  1  0  0  0  0
 45 19  1  0  0  0  0
 46 20  1  0  0  0  0
 48 23  1  0  0  0  0
 49 24  1  0  0  0  0
 50 25  1  0  0  0  0
 53 29  1  0  0  0  0
 54 30  1  0  0  0  0
 55 31  1  0  0  0  0
M  END
$$$$
