CSD_code = QOSJIS | q = 0 | S = 0 | Stoichiometry = C22H30ClN3Pd | MND = 4
 OpenBabel04212202093D

 57 60  0  0  0  0  0  0  0  0999 V2000
    2.5508    4.6258    2.6434 Pd  0  0  1  0  0  0  0  0  0  0  0  0
    2.1478    6.7663    3.5340 Cl  0  0  0  0  0  0  0  0  0  0  0  0
    2.9393    6.0583    0.1172 N   0  0  0  0  0  0  0  0  0  0  0  0
    4.7663    6.0039    1.3156 N   0  0  0  0  0  0  0  0  0  0  0  0
    1.5748    3.6075    4.1938 N   0  0  0  0  0  4  0  0  0  0  0  0
    3.4975    5.5664    1.2364 C   0  0  0  0  0  0  0  0  0  0  0  0
    3.8588    6.8447   -0.5441 C   0  0  0  0  0  0  0  0  0  0  0  0
    3.8020    7.5813   -1.7183 C   0  0  0  0  0  0  0  0  0  0  0  0
    2.9094    7.6258   -2.3203 H   0  0  0  0  0  0  0  0  0  0  0  0
    4.9345    8.2747   -2.1006 C   0  0  0  0  0  0  0  0  0  0  0  0
    4.9157    8.8569   -3.0092 H   0  0  0  0  0  0  0  0  0  0  0  0
    6.0966    8.2418   -1.3369 C   0  0  0  0  0  0  0  0  0  0  0  0
    6.9604    8.7994   -1.6651 H   0  0  0  0  0  0  0  0  0  0  0  0
    6.1674    7.5140   -0.1644 C   0  0  0  0  0  0  0  0  0  0  0  0
    7.0751    7.5082    0.4165 H   0  0  0  0  0  0  0  0  0  0  0  0
    5.0389    6.8106    0.2309 C   0  0  0  0  0  0  0  0  0  0  0  0
    1.5388    5.8267   -0.2008 C   0  0  0  0  0  0  0  0  0  0  0  0
    1.1744    5.1399    0.5987 H   0  0  0  0  0  0  0  0  0  0  0  0
    1.3877    5.1255   -1.5474 C   0  0  0  0  0  0  0  0  0  0  0  0
    1.7063    5.7627   -2.3676 H   0  0  0  0  0  0  0  0  0  0  0  0
    0.3461    4.8586   -1.7040 H   0  0  0  0  0  0  0  0  0  0  0  0
    1.9828    4.2148   -1.5593 H   0  0  0  0  0  0  0  0  0  0  0  0
    0.7556    7.1334   -0.1030 C   0  0  0  0  0  0  0  0  0  0  0  0
    0.8856    7.5554    0.8921 H   0  0  0  0  0  0  0  0  0  0  0  0
   -0.3021    6.9443   -0.2646 H   0  0  0  0  0  0  0  0  0  0  0  0
    1.0985    7.8574   -0.8376 H   0  0  0  0  0  0  0  0  0  0  0  0
    5.6031    5.7134    2.4694 C   0  0  0  0  0  0  0  0  0  0  0  0
    4.9903    5.0307    3.1005 H   0  0  0  0  0  0  0  0  0  0  0  0
    6.8787    4.9823    2.0611 C   0  0  0  0  0  0  0  0  0  0  0  0
    6.6312    4.0891    1.4920 H   0  0  0  0  0  0  0  0  0  0  0  0
    7.4254    4.6821    2.9509 H   0  0  0  0  0  0  0  0  0  0  0  0
    7.5249    5.6136    1.4578 H   0  0  0  0  0  0  0  0  0  0  0  0
    5.8659    6.9918    3.2615 C   0  0  0  0  0  0  0  0  0  0  0  0
    6.4206    7.7164    2.6712 H   0  0  0  0  0  0  0  0  0  0  0  0
    6.4340    6.7615    4.1586 H   0  0  0  0  0  0  0  0  0  0  0  0
    4.9145    7.4323    3.5546 H   0  0  0  0  0  0  0  0  0  0  0  0
    2.9497    2.7798    1.9842 C   0  0  0  0  0  0  0  0  0  0  0  0
    3.8502    2.3542    1.0100 C   0  0  0  0  0  0  0  0  0  0  0  0
    4.3759    3.0816    0.4000 H   0  0  0  0  0  0  0  0  0  0  0  0
    4.0878    1.0065    0.7821 C   0  0  0  0  0  0  0  0  0  0  0  0
    4.7886    0.7062    0.0149 H   0  0  0  0  0  0  0  0  0  0  0  0
    3.4358    0.0463    1.5338 C   0  0  0  0  0  0  0  0  0  0  0  0
    3.6249   -1.0036    1.3624 H   0  0  0  0  0  0  0  0  0  0  0  0
    2.5359    0.4398    2.5089 C   0  0  0  0  0  0  0  0  0  0  0  0
    2.0168   -0.3038    3.0997 H   0  0  0  0  0  0  0  0  0  0  0  0
    2.2949    1.7874    2.7285 C   0  0  0  0  0  0  0  0  0  0  0  0
    1.2721    2.2412    3.7417 C   0  0  0  0  0  0  0  0  0  0  0  0
    0.2874    2.2499    3.2561 H   0  0  0  0  0  0  0  0  0  0  0  0
    1.2145    1.5526    4.6003 H   0  0  0  0  0  0  0  0  0  0  0  0
    0.3805    4.2489    4.7356 C   0  0  0  0  0  0  0  0  0  0  0  0
   -0.3860    4.3157    3.9598 H   0  0  0  0  0  0  0  0  0  0  0  0
    0.6268    5.2614    5.0596 H   0  0  0  0  0  0  0  0  0  0  0  0
   -0.0201    3.6852    5.5903 H   0  0  0  0  0  0  0  0  0  0  0  0
    2.6243    3.5796    5.2156 C   0  0  0  0  0  0  0  0  0  0  0  0
    2.2712    3.0772    6.1289 H   0  0  0  0  0  0  0  0  0  0  0  0
    2.9128    4.6065    5.4676 H   0  0  0  0  0  0  0  0  0  0  0  0
    3.4982    3.0391    4.8335 H   0  0  0  0  0  0  0  0  0  0  0  0
  1  2  1  1  0  0  0
  1  5  1  0  0  0  0
  3  6  1  0  0  0  0
  4 27  1  0  0  0  0
  5 50  1  0  0  0  0
  5 54  1  0  0  0  0
  6  4  1  0  0  0  0
  6  1  2  0  0  0  0
  7  3  1  0  0  0  0
  7 16  1  0  0  0  0
  8  7  2  0  0  0  0
  9  8  1  0  0  0  0
 10  8  1  0  0  0  0
 10 12  2  0  0  0  0
 11 10  1  0  0  0  0
 12 14  1  0  0  0  0
 13 12  1  0  0  0  0
 14 16  2  0  0  0  0
 14 15  1  0  0  0  0
 16  4  1  0  0  0  0
 17 23  1  0  0  0  0
 17  3  1  0  0  0  0
 17 18  1  0  0  0  0
 19 17  1  0  0  0  0
 20 19  1  0  0  0  0
 21 19  1  0  0  0  0
 22 19  1  0  0  0  0
 23 24  1  0  0  0  0
 25 23  1  0  0  0  0
 26 23  1  0  0  0  0
 27 28  1  0  0  0  0
 27 33  1  0  0  0  0
 29 27  1  0  0  0  0
 29 31  1  0  0  0  0
 30 29  1  0  0  0  0
 32 29  1  0  0  0  0
 33 36  1  0  0  0  0
 33 35  1  0  0  0  0
 34 33  1  0  0  0  0
 37  1  1  0  0  0  0
 37 46  1  0  0  0  0
 38 37  2  0  0  0  0
 39 38  1  0  0  0  0
 40 38  1  0  0  0  0
 40 42  2  0  0  0  0
 41 40  1  0  0  0  0
 42 44  1  0  0  0  0
 43 42  1  0  0  0  0
 44 46  2  0  0  0  0
 44 45  1  0  0  0  0
 46 47  1  0  0  0  0
 47  5  1  0  0  0  0
 47 49  1  0  0  0  0
 48 47  1  0  0  0  0
 50 52  1  0  0  0  0
 50 53  1  0  0  0  0
 51 50  1  0  0  0  0
 54 56  1  0  0  0  0
 54 55  1  0  0  0  0
 57 54  1  0  0  0  0
M  END
$$$$
