CSD_code = QOSJOY | q = 0 | S = 0 | Stoichiometry = C16H23Cl2NTi | MND = 8
 OpenBabel04212202093D

 43 44  0  0  1  0  0  0  0  0999 V2000
    0.9764   -0.1691   15.1456 Ti  0  0  0  0  0  0  0  0  0  0  0  0
    0.2972    0.8741   16.9316 Cl  0  0  0  0  0  0  0  0  0  0  0  0
    0.4854   -2.1562   15.8744 Cl  0  0  0  0  0  0  0  0  0  0  0  0
   -0.4337    0.2396   13.9937 N   0  0  0  0  0  0  0  0  0  0  0  0
    2.8588   -0.9742   14.0890 C   0  0  0  0  0  0  0  0  0  0  0  0
    2.4303    0.2088   13.4180 C   0  0  0  0  0  0  0  0  0  0  0  0
    2.5347    1.2908   14.3424 C   0  0  2  0  0  0  0  0  0  0  0  0
    3.0388    0.7789   15.5736 C   0  0  0  0  0  0  0  0  0  0  0  0
    3.2260   -0.6187   15.4195 C   0  0  0  0  0  0  0  0  0  0  0  0
    3.0684   -2.3398   13.5004 C   0  0  0  0  0  0  0  0  0  0  0  0
    2.1096    0.3633   11.9579 C   0  0  0  0  0  0  0  0  0  0  0  0
    2.3128    2.7407   14.0293 C   0  0  0  0  0  0  0  0  0  0  0  0
    3.4497    1.6079   16.7532 C   0  0  0  0  0  0  0  0  0  0  0  0
    3.8178   -1.5576   16.4283 C   0  0  0  0  0  0  0  0  0  0  0  0
   -1.0358   -0.5006   13.0051 C   0  0  0  0  0  0  0  0  0  0  0  0
   -1.9026    0.2947   12.3034 C   0  0  0  0  0  0  0  0  0  0  0  0
   -1.8417    1.5966   12.8752 C   0  0  0  0  0  0  0  0  0  0  0  0
   -0.9334    1.5180   13.8977 C   0  0  0  0  0  0  0  0  0  0  0  0
   -0.7322   -1.9532   12.8273 C   0  0  0  0  0  0  0  0  0  0  0  0
   -2.6133    2.7922   12.4319 C   0  0  0  0  0  0  0  0  0  0  0  0
    2.7731   -2.3712   12.4534 H   0  0  0  0  0  0  0  0  0  0  0  0
    4.1252   -2.6070   13.5614 H   0  0  0  0  0  0  0  0  0  0  0  0
    2.4993   -3.0935   14.0491 H   0  0  0  0  0  0  0  0  0  0  0  0
    2.9343    0.8690   11.4506 H   0  0  0  0  0  0  0  0  0  0  0  0
    1.9577   -0.6024   11.4807 H   0  0  0  0  0  0  0  0  0  0  0  0
    1.2067    0.9577   11.8123 H   0  0  0  0  0  0  0  0  0  0  0  0
    1.8948    3.2639   14.8901 H   0  0  0  0  0  0  0  0  0  0  0  0
    3.2622    3.2181   13.7745 H   0  0  0  0  0  0  0  0  0  0  0  0
    1.6348    2.8576   13.1851 H   0  0  0  0  0  0  0  0  0  0  0  0
    4.4582    1.9989   16.5968 H   0  0  0  0  0  0  0  0  0  0  0  0
    2.7743    2.4509   16.8935 H   0  0  0  0  0  0  0  0  0  0  0  0
    3.4505    1.0169   17.6675 H   0  0  0  0  0  0  0  0  0  0  0  0
    3.6114   -1.2214   17.4440 H   0  0  0  0  0  0  0  0  0  0  0  0
    3.4075   -2.5598   16.3076 H   0  0  0  0  0  0  0  0  0  0  0  0
    4.9019   -1.6130   16.3014 H   0  0  0  0  0  0  0  0  0  0  0  0
   -2.5193   -0.0047   11.4776 H   0  0  0  0  0  0  0  0  0  0  0  0
   -0.6276    2.2891   14.5924 H   0  0  0  0  0  0  0  0  0  0  0  0
   -1.2383   -2.5466   13.5934 H   0  0  0  0  0  0  0  0  0  0  0  0
   -1.0811   -2.2846   11.8517 H   0  0  0  0  0  0  0  0  0  0  0  0
    0.3418   -2.1390   12.9119 H   0  0  0  0  0  0  0  0  0  0  0  0
   -2.3549    3.0560   11.4059 H   0  0  0  0  0  0  0  0  0  0  0  0
   -3.6830    2.5886   12.4633 H   0  0  0  0  0  0  0  0  0  0  0  0
   -2.4005    3.6427   13.0753 H   0  0  0  0  0  0  0  0  0  0  0  0
  1  3  1  0  0  0  0
  1  2  1  0  0  0  0
  4  1  1  0  0  0  0
  5  9  1  0  0  0  0
  6  5  2  0  0  0  0
  6  7  1  0  0  0  0
  7 12  1  6  0  0  0
  7  1  1  0  0  0  0
  7  8  1  0  0  0  0
  8 13  1  0  0  0  0
  9  8  2  0  0  0  0
  9 14  1  0  0  0  0
 10 22  1  0  0  0  0
 10 23  1  0  0  0  0
 10  5  1  0  0  0  0
 11  6  1  0  0  0  0
 12 27  1  0  0  0  0
 13 31  1  0  0  0  0
 13 32  1  0  0  0  0
 14 33  1  0  0  0  0
 15  4  1  0  0  0  0
 16 17  1  0  0  0  0
 16 15  2  0  0  0  0
 17 18  2  0  0  0  0
 18  4  1  0  0  0  0
 18 37  1  0  0  0  0
 19 40  1  0  0  0  0
 19 15  1  0  0  0  0
 19 38  1  0  0  0  0
 20 42  1  0  0  0  0
 20 17  1  0  0  0  0
 20 43  1  0  0  0  0
 21 10  1  0  0  0  0
 24 11  1  0  0  0  0
 25 11  1  0  0  0  0
 26 11  1  0  0  0  0
 28 12  1  0  0  0  0
 29 12  1  0  0  0  0
 30 13  1  0  0  0  0
 34 14  1  0  0  0  0
 35 14  1  0  0  0  0
 36 16  1  0  0  0  0
 39 19  1  0  0  0  0
 41 20  1  0  0  0  0
M  END
$$$$
