CSD_code = QOSKAL | q = 0 | S = 0 | Stoichiometry = C26H39ClN2Ti | MND = 8
 OpenBabel04212202093D

 69 71  0  0  1  0  0  0  0  0999 V2000
   10.1700    3.6301    4.3689 Ti  0  0  0  0  0  0  0  0  0  0  0  0
   12.0340    4.7902    4.3214 Cl  0  0  0  0  0  0  0  0  0  0  0  0
   10.1510    3.1324    2.5481 N   0  0  0  0  0  0  0  0  0  0  0  0
   10.7111    2.0102    5.1631 N   0  0  0  0  0  0  0  0  0  0  0  0
    7.8791    3.9529    4.6835 C   0  0  0  0  0  0  0  0  0  0  0  0
    8.4733    3.5885    5.9315 C   0  0  2  0  0  0  0  0  0  0  0  0
    9.3666    4.6247    6.3139 C   0  0  0  0  0  0  0  0  0  0  0  0
    9.3395    5.6195    5.3041 C   0  0  0  0  0  0  0  0  0  0  0  0
    8.4256    5.2106    4.2958 C   0  0  0  0  0  0  0  0  0  0  0  0
    6.6789    3.2590    4.0980 C   0  0  0  0  0  0  0  0  0  0  0  0
    8.0378    2.4414    6.7986 C   0  0  0  0  0  0  0  0  0  0  0  0
   10.1044    4.7233    7.6168 C   0  0  0  0  0  0  0  0  0  0  0  0
    9.9981    6.9654    5.3654 C   0  0  0  0  0  0  0  0  0  0  0  0
    8.0017    6.1044    3.1624 C   0  0  0  0  0  0  0  0  0  0  0  0
   11.1571    2.4646    1.8733 C   0  0  0  0  0  0  0  0  0  0  0  0
   10.7570    2.1916    0.5863 C   0  0  0  0  0  0  0  0  0  0  0  0
    9.4336    2.7050    0.4469 C   0  0  0  0  0  0  0  0  0  0  0  0
    9.1130    3.2640    1.6532 C   0  0  0  0  0  0  0  0  0  0  0  0
   12.4790    2.1378    2.4958 C   0  0  0  0  0  0  0  0  0  0  0  0
   11.5142    1.4486   -0.4675 C   0  0  0  0  0  0  0  0  0  0  0  0
   11.2981   -0.0613   -0.3395 C   0  0  0  0  0  0  0  0  0  0  0  0
    8.5804    2.6512   -0.7745 C   0  0  0  0  0  0  0  0  0  0  0  0
   10.2348    0.7255    5.0778 C   0  0  0  0  0  0  0  0  0  0  0  0
   10.8431   -0.0624    6.0293 C   0  0  0  0  0  0  0  0  0  0  0  0
   11.7409    0.7821    6.7478 C   0  0  0  0  0  0  0  0  0  0  0  0
   11.6272    2.0282    6.1885 C   0  0  0  0  0  0  0  0  0  0  0  0
    9.2369    0.3165    4.0392 C   0  0  0  0  0  0  0  0  0  0  0  0
   10.5808   -1.5085    6.2990 C   0  0  0  0  0  0  0  0  0  0  0  0
    9.4558   -1.6869    7.3214 C   0  0  0  0  0  0  0  0  0  0  0  0
   12.6341    0.3780    7.8715 C   0  0  0  0  0  0  0  0  0  0  0  0
    6.2437    3.8412    3.2878 H   0  0  0  0  0  0  0  0  0  0  0  0
    6.9166    2.2658    3.7137 H   0  0  0  0  0  0  0  0  0  0  0  0
    5.9154    3.1461    4.8703 H   0  0  0  0  0  0  0  0  0  0  0  0
    7.3378    2.7976    7.5590 H   0  0  0  0  0  0  0  0  0  0  0  0
    7.5387    1.6766    6.2074 H   0  0  0  0  0  0  0  0  0  0  0  0
    8.8839    1.9812    7.3091 H   0  0  0  0  0  0  0  0  0  0  0  0
   10.2101    3.7439    8.0813 H   0  0  0  0  0  0  0  0  0  0  0  0
   11.0977    5.1514    7.4733 H   0  0  0  0  0  0  0  0  0  0  0  0
    9.5574    5.3704    8.3071 H   0  0  0  0  0  0  0  0  0  0  0  0
   10.3047    7.2987    4.3741 H   0  0  0  0  0  0  0  0  0  0  0  0
    9.2988    7.7010    5.7729 H   0  0  0  0  0  0  0  0  0  0  0  0
   10.8781    6.9434    6.0054 H   0  0  0  0  0  0  0  0  0  0  0  0
    7.7617    7.0954    3.5523 H   0  0  0  0  0  0  0  0  0  0  0  0
    8.7956    6.2197    2.4195 H   0  0  0  0  0  0  0  0  0  0  0  0
    7.1149    5.7222    2.6596 H   0  0  0  0  0  0  0  0  0  0  0  0
    8.1902    3.7478    1.9209 H   0  0  0  0  0  0  0  0  0  0  0  0
   12.3562    1.6690    3.4759 H   0  0  0  0  0  0  0  0  0  0  0  0
   13.0215    1.4515    1.8504 H   0  0  0  0  0  0  0  0  0  0  0  0
   13.0848    3.0396    2.6197 H   0  0  0  0  0  0  0  0  0  0  0  0
   12.5809    1.6701   -0.3902 H   0  0  0  0  0  0  0  0  0  0  0  0
   11.1760    1.7770   -1.4523 H   0  0  0  0  0  0  0  0  0  0  0  0
   10.2417   -0.3011   -0.4370 H   0  0  0  0  0  0  0  0  0  0  0  0
   11.8474   -0.5954   -1.1122 H   0  0  0  0  0  0  0  0  0  0  0  0
   11.6367   -0.4102    0.6336 H   0  0  0  0  0  0  0  0  0  0  0  0
    9.0588    3.1781   -1.6005 H   0  0  0  0  0  0  0  0  0  0  0  0
    8.4161    1.6202   -1.0871 H   0  0  0  0  0  0  0  0  0  0  0  0
    7.6149    3.1142   -0.5825 H   0  0  0  0  0  0  0  0  0  0  0  0
   12.1755    2.9280    6.4334 H   0  0  0  0  0  0  0  0  0  0  0  0
    8.9779    1.1682    3.4065 H   0  0  0  0  0  0  0  0  0  0  0  0
    9.6546   -0.4656    3.4047 H   0  0  0  0  0  0  0  0  0  0  0  0
    8.3317   -0.0805    4.4997 H   0  0  0  0  0  0  0  0  0  0  0  0
   10.3036   -2.0106    5.3695 H   0  0  0  0  0  0  0  0  0  0  0  0
   11.4890   -1.9787    6.6814 H   0  0  0  0  0  0  0  0  0  0  0  0
    8.5352   -1.2391    6.9539 H   0  0  0  0  0  0  0  0  0  0  0  0
    9.2753   -2.7424    7.5140 H   0  0  0  0  0  0  0  0  0  0  0  0
    9.7169   -1.2043    8.2603 H   0  0  0  0  0  0  0  0  0  0  0  0
   13.3159   -0.4114    7.5550 H   0  0  0  0  0  0  0  0  0  0  0  0
   13.2222    1.2283    8.2092 H   0  0  0  0  0  0  0  0  0  0  0  0
   12.0540   -0.0010    8.7132 H   0  0  0  0  0  0  0  0  0  0  0  0
  1  4  1  0  0  0  0
  1  6  1  0  0  0  0
  2  1  1  0  0  0  0
  3  1  1  0  0  0  0
  4 26  1  0  0  0  0
  5  6  1  0  0  0  0
  6  7  1  0  0  0  0
  6 11  1  1  0  0  0
  7 12  1  0  0  0  0
  8 13  1  0  0  0  0
  8  7  2  0  0  0  0
  9  5  2  0  0  0  0
  9  8  1  0  0  0  0
 10  5  1  0  0  0  0
 10 33  1  0  0  0  0
 11 36  1  0  0  0  0
 11 34  1  0  0  0  0
 12 37  1  0  0  0  0
 12 39  1  0  0  0  0
 13 41  1  0  0  0  0
 13 42  1  0  0  0  0
 14 43  1  0  0  0  0
 14  9  1  0  0  0  0
 15 19  1  0  0  0  0
 15  3  1  0  0  0  0
 16 15  2  0  0  0  0
 17 16  1  0  0  0  0
 17 18  2  0  0  0  0
 18 46  1  0  0  0  0
 18  3  1  0  0  0  0
 19 49  1  0  0  0  0
 19 47  1  0  0  0  0
 20 50  1  0  0  0  0
 20 21  1  0  0  0  0
 20 16  1  0  0  0  0
 21 54  1  0  0  0  0
 22 57  1  0  0  0  0
 22 17  1  0  0  0  0
 23  4  1  0  0  0  0
 23 24  2  0  0  0  0
 24 28  1  0  0  0  0
 24 25  1  0  0  0  0
 25 30  1  0  0  0  0
 26 58  1  0  0  0  0
 26 25  2  0  0  0  0
 27 61  1  0  0  0  0
 27 23  1  0  0  0  0
 28 63  1  0  0  0  0
 28 29  1  0  0  0  0
 29 65  1  0  0  0  0
 29 66  1  0  0  0  0
 30 68  1  0  0  0  0
 30 69  1  0  0  0  0
 31 10  1  0  0  0  0
 32 10  1  0  0  0  0
 35 11  1  0  0  0  0
 38 12  1  0  0  0  0
 40 13  1  0  0  0  0
 44 14  1  0  0  0  0
 45 14  1  0  0  0  0
 48 19  1  0  0  0  0
 51 20  1  0  0  0  0
 52 21  1  0  0  0  0
 53 21  1  0  0  0  0
 55 22  1  0  0  0  0
 56 22  1  0  0  0  0
 59 27  1  0  0  0  0
 60 27  1  0  0  0  0
 62 28  1  0  0  0  0
 64 29  1  0  0  0  0
 67 30  1  0  0  0  0
M  END
$$$$
