CSD_code = QOSLEQ | q = 0 | S = 0 | Stoichiometry = C9H9Cl2NTi | MND = 8
 OpenBabel04212202093D

 22 23  0  0  1  0  0  0  0  0999 V2000
   15.4104    0.6486    2.0213 Ti  0  0  0  0  0  0  0  0  0  0  0  0
   15.7319   -1.2380    3.0199 Cl  0  0  0  0  0  0  0  0  0  0  0  0
   17.1918    0.7128    0.8018 Cl  0  0  0  0  0  0  0  0  0  0  0  0
   14.1560    0.1135    0.7466 N   0  0  0  0  0  0  0  0  0  0  0  0
   16.1614    2.1101    3.6558 C   0  0  0  0  0  0  0  0  0  0  0  0
   15.8376    2.8786    2.5158 C   0  0  0  0  0  0  0  0  0  0  0  0
   14.4540    2.7377    2.2706 C   0  0  0  0  0  0  0  0  0  0  0  0
   13.9184    1.8873    3.2720 C   0  0  2  0  0  0  0  0  0  0  0  0
   14.9749    1.5109    4.1313 C   0  0  0  0  0  0  0  0  0  0  0  0
   14.4640   -0.9650   -0.0552 C   0  0  0  0  0  0  0  0  0  0  0  0
   13.4173   -1.2457   -0.8857 C   0  0  0  0  0  0  0  0  0  0  0  0
   12.4008   -0.3022   -0.5939 C   0  0  0  0  0  0  0  0  0  0  0  0
   12.8855    0.5016    0.3985 C   0  0  0  0  0  0  0  0  0  0  0  0
   17.1278    2.0790    4.1445 H   0  0  0  0  0  0  0  0  0  0  0  0
   16.5095    3.5409    1.9831 H   0  0  0  0  0  0  0  0  0  0  0  0
   13.8874    3.3029    1.5405 H   0  0  0  0  0  0  0  0  0  0  0  0
   12.8683    1.6835    3.4438 H   0  0  0  0  0  0  0  0  0  0  0  0
   14.8721    0.9463    5.0504 H   0  0  0  0  0  0  0  0  0  0  0  0
   15.4213   -1.4664    0.0221 H   0  0  0  0  0  0  0  0  0  0  0  0
   13.3707   -2.0286   -1.6174 H   0  0  0  0  0  0  0  0  0  0  0  0
   11.4383   -0.2338   -1.0624 H   0  0  0  0  0  0  0  0  0  0  0  0
   12.3958    1.3329    0.8811 H   0  0  0  0  0  0  0  0  0  0  0  0
  1  2  1  0  0  0  0
  1  8  1  0  0  0  0
  3  1  1  0  0  0  0
  4  1  1  0  0  0  0
  5  9  2  0  0  0  0
  5 14  1  0  0  0  0
  6  5  1  0  0  0  0
  7  6  2  0  0  0  0
  7  8  1  0  0  0  0
  8 17  1  1  0  0  0
  8  9  1  0  0  0  0
  9 18  1  0  0  0  0
 10 19  1  0  0  0  0
 10  4  1  0  0  0  0
 11 12  1  0  0  0  0
 11 10  2  0  0  0  0
 12 13  2  0  0  0  0
 13  4  1  0  0  0  0
 13 22  1  0  0  0  0
 15  6  1  0  0  0  0
 16  7  1  0  0  0  0
 20 11  1  0  0  0  0
 21 12  1  0  0  0  0
M  END
$$$$
