CSD_code = QOSLAM | q = 0 | S = 0 | Stoichiometry = C11H13Cl2NTi | MND = 8
 OpenBabel04212202093D

 28 29  0  0  1  0  0  0  0  0999 V2000
    3.9093    4.7344    5.6431 Ti  0  0  0  0  0  0  0  0  0  0  0  0
    4.1495    3.9912    3.6226 Cl  0  0  0  0  0  0  0  0  0  0  0  0
    5.9060    4.4205    6.4190 Cl  0  0  0  0  0  0  0  0  0  0  0  0
    2.9664    3.3296    6.4424 N   0  0  0  0  0  0  0  0  0  0  0  0
    3.0150    6.6191    4.5684 C   0  0  0  0  0  0  0  0  0  0  0  0
    4.2626    6.9992    5.1038 C   0  0  0  0  0  0  0  0  0  0  0  0
    4.1854    6.8977    6.5080 C   0  0  0  0  0  0  0  0  0  0  0  0
    2.8973    6.4280    6.8450 C   0  0  1  0  0  0  0  0  0  0  0  0
    2.1695    6.2547    5.6387 C   0  0  0  0  0  0  0  0  0  0  0  0
    3.3345    1.9914    6.4330 C   0  0  0  0  0  0  0  0  0  0  0  0
    2.3957    1.2535    7.0978 C   0  0  0  0  0  0  0  0  0  0  0  0
    1.3862    2.1470    7.5529 C   0  0  0  0  0  0  0  0  0  0  0  0
    1.7713    3.3895    7.1347 C   0  0  0  0  0  0  0  0  0  0  0  0
    4.5813    1.4755    5.7897 C   0  0  0  0  0  0  0  0  0  0  0  0
    0.1673    1.7829    8.3268 C   0  0  0  0  0  0  0  0  0  0  0  0
    2.7218    6.6884    3.5278 H   0  0  0  0  0  0  0  0  0  0  0  0
    5.0973    7.4003    4.5426 H   0  0  0  0  0  0  0  0  0  0  0  0
    4.9450    7.2174    7.2112 H   0  0  0  0  0  0  0  0  0  0  0  0
    2.4980    6.3718    7.8506 H   0  0  0  0  0  0  0  0  0  0  0  0
    1.1110    6.0410    5.5513 H   0  0  0  0  0  0  0  0  0  0  0  0
    2.4140    0.1915    7.2504 H   0  0  0  0  0  0  0  0  0  0  0  0
    1.2480    4.3184    7.2974 H   0  0  0  0  0  0  0  0  0  0  0  0
    5.4735    1.8754    6.2769 H   0  0  0  0  0  0  0  0  0  0  0  0
    4.5969    0.3920    5.8826 H   0  0  0  0  0  0  0  0  0  0  0  0
    4.6213    1.7328    4.7286 H   0  0  0  0  0  0  0  0  0  0  0  0
   -0.4360    1.0670    7.7698 H   0  0  0  0  0  0  0  0  0  0  0  0
   -0.4360    2.6643    8.5306 H   0  0  0  0  0  0  0  0  0  0  0  0
    0.4438    1.3218    9.2746 H   0  0  0  0  0  0  0  0  0  0  0  0
  1  3  1  0  0  0  0
  1  4  1  0  0  0  0
  1  8  1  0  0  0  0
  2  1  1  0  0  0  0
  4 13  1  0  0  0  0
  5  6  1  0  0  0  0
  5  9  2  0  0  0  0
  6  7  2  0  0  0  0
  7  8  1  0  0  0  0
  7 18  1  0  0  0  0
  8 19  1  1  0  0  0
  9  8  1  0  0  0  0
 10  4  1  0  0  0  0
 10 11  2  0  0  0  0
 11 21  1  0  0  0  0
 11 12  1  0  0  0  0
 12 15  1  0  0  0  0
 13 22  1  0  0  0  0
 13 12  2  0  0  0  0
 14 24  1  0  0  0  0
 14 23  1  0  0  0  0
 14 10  1  0  0  0  0
 15 27  1  0  0  0  0
 15 28  1  0  0  0  0
 16  5  1  0  0  0  0
 17  6  1  0  0  0  0
 20  9  1  0  0  0  0
 25 14  1  0  0  0  0
 26 15  1  0  0  0  0
M  END
$$$$
