CSD_code = QOVRIC | q = 0 | S = 0 | Stoichiometry = C12H17IN2Pd | MND = 4
 OpenBabel04212202093D

 33 35  0  0  0  0  0  0  0  0999 V2000
    1.7998    0.9455    2.6377 I   0  0  0  0  0  0  0  0  0  0  0  0
    0.0179    1.8091    4.2387 Pd  0  0  1  0  0  0  0  0  0  0  0  0
   -1.5474    2.3496    5.4872 N   0  0  0  0  0  0  0  0  0  0  0  0
    1.4888    1.8122    6.0861 N   0  0  0  0  0  4  0  0  0  0  0  0
   -1.3885    2.0840    2.8241 C   0  0  0  0  0  0  0  0  0  0  0  0
   -1.3437    1.9704    1.4407 C   0  0  0  0  0  0  0  0  0  0  0  0
   -0.4423    1.6669    0.9292 H   0  0  0  0  0  0  0  0  0  0  0  0
   -2.4677    2.2417    0.6708 C   0  0  0  0  0  0  0  0  0  0  0  0
   -2.4040    2.1429   -0.4033 H   0  0  0  0  0  0  0  0  0  0  0  0
   -3.6634    2.6320    1.2558 C   0  0  0  0  0  0  0  0  0  0  0  0
   -4.5285    2.8363    0.6425 H   0  0  0  0  0  0  0  0  0  0  0  0
   -3.7372    2.7566    2.6263 C   0  0  0  0  0  0  0  0  0  0  0  0
   -4.6572    3.0607    3.1065 H   0  0  0  0  0  0  0  0  0  0  0  0
   -2.6107    2.4873    3.4083 C   0  0  0  0  0  0  0  0  0  0  0  0
   -2.6230    2.6017    4.8368 C   0  0  0  0  0  0  0  0  0  0  0  0
   -3.5391    2.8956    5.3573 H   0  0  0  0  0  0  0  0  0  0  0  0
   -1.5596    2.4301    6.9224 C   0  0  0  0  0  0  0  0  0  0  0  0
   -1.6906    1.4165    7.3286 H   0  0  0  0  0  0  0  0  0  0  0  0
   -2.4134    3.0383    7.2586 H   0  0  0  0  0  0  0  0  0  0  0  0
   -0.2593    3.0225    7.4669 C   0  0  0  0  0  0  0  0  0  0  0  0
   -0.4195    3.2958    8.5118 H   0  0  0  0  0  0  0  0  0  0  0  0
   -0.0220    3.9368    6.9172 H   0  0  0  0  0  0  0  0  0  0  0  0
    0.9029    2.0316    7.4140 C   0  0  0  0  0  0  0  0  0  0  0  0
    1.6951    2.3810    8.0994 H   0  0  0  0  0  0  0  0  0  0  0  0
    0.5445    1.0669    7.7898 H   0  0  0  0  0  0  0  0  0  0  0  0
    2.3798    0.6533    6.1983 C   0  0  0  0  0  0  0  0  0  0  0  0
    3.1003    0.7893    7.0167 H   0  0  0  0  0  0  0  0  0  0  0  0
    2.9332    0.5074    5.2733 H   0  0  0  0  0  0  0  0  0  0  0  0
    1.7919   -0.2462    6.3899 H   0  0  0  0  0  0  0  0  0  0  0  0
    2.2764    2.9885    5.6907 C   0  0  0  0  0  0  0  0  0  0  0  0
    2.9463    3.3078    6.5024 H   0  0  0  0  0  0  0  0  0  0  0  0
    1.6160    3.8248    5.4277 H   0  0  0  0  0  0  0  0  0  0  0  0
    2.8866    2.7505    4.8181 H   0  0  0  0  0  0  0  0  0  0  0  0
  2  1  1  1  0  0  0
  2  3  1  0  0  0  0
  2  4  1  0  0  0  0
  3 17  1  0  0  0  0
  4 26  1  0  0  0  0
  4 23  1  0  0  0  0
  5 14  1  0  0  0  0
  5  2  2  0  0  0  0
  6  5  1  0  0  0  0
  7  6  1  0  0  0  0
  8 10  1  0  0  0  0
  8  6  2  0  0  0  0
  9  8  1  0  0  0  0
 10 12  2  0  0  0  0
 11 10  1  0  0  0  0
 12 13  1  0  0  0  0
 12 14  1  0  0  0  0
 14 15  2  0  0  0  0
 15 16  1  0  0  0  0
 15  3  1  0  0  0  0
 17 19  1  0  0  0  0
 17 18  1  0  0  0  0
 17 20  1  0  0  0  0
 20 21  1  0  0  0  0
 22 20  1  0  0  0  0
 23 20  1  0  0  0  0
 23 25  1  0  0  0  0
 23 24  1  0  0  0  0
 26 29  1  0  0  0  0
 26 27  1  0  0  0  0
 28 26  1  0  0  0  0
 30  4  1  0  0  0  0
 30 31  1  0  0  0  0
 32 30  1  0  0  0  0
 33 30  1  0  0  0  0
M  END
$$$$
