CSD_code = QOWGAM | q = -1 | S = 0 | Stoichiometry = C17H17Cl2N2OSZn(1-) | MND = 4
 OpenBabel04212202093D

 41 44  0  0  1  0  0  0  0  0999 V2000
   20.2725    5.7541   15.5391 Zn  0  0  0  0  0  0  0  0  0  0  0  0
   21.4672    7.6343   15.5151 Cl  0  0  0  0  0  0  0  0  0  0  0  0
   20.1350    4.6114   17.4401 Cl  0  0  0  0  0  0  0  0  0  0  0  0
   16.3343    6.6556   13.3634 S   0  0  0  0  0  0  0  0  0  0  0  0
   20.5650    4.6549   13.9979 O   0  0  0  0  0  0  0  0  0  0  0  0
   18.3827    6.2655   14.8898 N   0  0  0  0  0  0  0  0  0  0  0  0
   20.3175    2.7951    9.6704 N   0  0  0  0  0  0  0  0  0  0  0  0
   17.9462    5.9566   13.7015 C   0  0  1  0  0  3  0  0  0  0  0  0
   17.5313    7.0470   15.6110 C   0  0  0  0  0  0  0  0  0  0  0  0
   16.3354    7.3761   14.9453 C   0  0  0  0  0  0  0  0  0  0  0  0
   15.3666    8.1605   15.5423 C   0  0  0  0  0  0  0  0  0  0  0  0
   14.4558    8.4014   15.0152 H   0  0  0  0  0  0  0  0  0  0  0  0
   15.6015    8.6221   16.8249 C   0  0  0  0  0  0  0  0  0  0  0  0
   14.8584    9.2375   17.3118 H   0  0  0  0  0  0  0  0  0  0  0  0
   16.7805    8.3033   17.4929 C   0  0  0  0  0  0  0  0  0  0  0  0
   16.9396    8.6763   18.4939 H   0  0  0  0  0  0  0  0  0  0  0  0
   17.7494    7.5198   16.9009 C   0  0  0  0  0  0  0  0  0  0  0  0
   18.6645    7.2634   17.4112 H   0  0  0  0  0  0  0  0  0  0  0  0
   18.5854    5.1640   12.7232 C   0  0  0  0  0  0  0  0  0  0  0  0
   19.8699    4.5526   12.9342 C   0  0  0  0  0  0  0  0  0  0  0  0
   20.3890    3.7644   11.8806 C   0  0  0  0  0  0  0  0  0  0  0  0
   21.3532    3.3347   12.0957 H   0  0  0  0  0  0  0  0  0  0  0  0
   19.7493    3.5576   10.6721 C   0  0  0  0  0  0  0  0  0  0  0  0
   18.4915    4.1845   10.4920 C   0  0  0  0  0  0  0  0  0  0  0  0
   17.9325    4.0696    9.5782 H   0  0  0  0  0  0  0  0  0  0  0  0
   17.9543    4.9487   11.4861 C   0  0  0  0  0  0  0  0  0  0  0  0
   16.9893    5.4119   11.3229 H   0  0  0  0  0  0  0  0  0  0  0  0
   19.6373    2.5748    8.4185 C   0  0  0  0  0  0  0  0  0  0  0  0
   20.3873    2.2932    7.6716 H   0  0  0  0  0  0  0  0  0  0  0  0
   19.1933    3.5169    8.0853 H   0  0  0  0  0  0  0  0  0  0  0  0
   18.5557    1.4897    8.4735 C   0  0  0  0  0  0  0  0  0  0  0  0
   18.9994    0.5140    8.6540 H   0  0  0  0  0  0  0  0  0  0  0  0
   18.0146    1.4535    7.5302 H   0  0  0  0  0  0  0  0  0  0  0  0
   17.8533    1.7013    9.2752 H   0  0  0  0  0  0  0  0  0  0  0  0
   21.4800    1.9812    9.9438 C   0  0  0  0  0  0  0  0  0  0  0  0
   22.2470    2.6026   10.4156 H   0  0  0  0  0  0  0  0  0  0  0  0
   21.8827    1.6386    8.9859 H   0  0  0  0  0  0  0  0  0  0  0  0
   21.1917    0.7697   10.8344 C   0  0  0  0  0  0  0  0  0  0  0  0
   20.7450    1.0930   11.7701 H   0  0  0  0  0  0  0  0  0  0  0  0
   22.1172    0.2417   11.0521 H   0  0  0  0  0  0  0  0  0  0  0  0
   20.5060    0.0822   10.3453 H   0  0  0  0  0  0  0  0  0  0  0  0
  1  3  1  0  0  0  0
  2  1  1  0  0  0  0
  4  8  1  0  0  0  0
  4 10  1  0  0  0  0
  5  1  1  0  0  0  0
  6  1  1  0  0  0  0
  6  9  1  0  0  0  0
  7 35  1  0  0  0  0
  7 23  1  0  0  0  0
  8 19  1  1  0  0  0
  8  6  1  0  0  0  0
  9 17  1  0  0  0  0
 10 11  1  0  0  0  0
 10  9  2  0  0  0  0
 11 13  2  0  0  0  0
 12 11  1  0  0  0  0
 13 14  1  0  0  0  0
 13 15  1  0  0  0  0
 15 16  1  0  0  0  0
 17 18  1  0  0  0  0
 17 15  2  0  0  0  0
 19 20  1  0  0  0  0
 20  5  1  0  0  0  0
 21 22  1  0  0  0  0
 21 20  2  0  0  0  0
 23 21  1  0  0  0  0
 24 23  2  0  0  0  0
 24 26  1  0  0  0  0
 25 24  1  0  0  0  0
 26 19  2  0  0  0  0
 27 26  1  0  0  0  0
 28 31  1  0  0  0  0
 28  7  1  0  0  0  0
 29 28  1  0  0  0  0
 30 28  1  0  0  0  0
 31 32  1  0  0  0  0
 31 34  1  0  0  0  0
 33 31  1  0  0  0  0
 35 36  1  0  0  0  0
 35 38  1  0  0  0  0
 37 35  1  0  0  0  0
 38 40  1  0  0  0  0
 38 39  1  0  0  0  0
 41 38  1  0  0  0  0
M  END
$$$$
