CSD_code = QOXGOZ | q = 0 | S = 0 | Stoichiometry = C4H7AuClN | MND = 2
 OpenBabel04212202093D

 14 13  0  0  0  0  0  0  0  0999 V2000
   11.2813    1.5547    0.5745 Au  0  0  0  0  0  0  0  0  0  0  0  0
    9.5281    1.5550   -0.7634 Cl  0  0  0  0  0  0  0  0  0  0  0  0
   12.7680    1.5550    1.7082 C   0  0  0  0  0  0  0  0  0  0  0  0
   13.6751    1.5549    2.4295 N   0  0  0  0  0  2  0  0  0  0  0  0
   14.8123    1.5549    3.2340 C   0  0  0  0  0  0  0  0  0  0  0  0
   14.7780    0.6647    3.8707 H   0  0  0  0  0  0  0  0  0  0  0  0
   14.7780    2.4451    3.8707 H   0  0  0  0  0  0  0  0  0  0  0  0
   17.3236    1.5549    3.2756 C   0  0  0  0  0  0  0  0  0  0  0  0
   18.2220    1.5549    2.6649 H   0  0  0  0  0  0  0  0  0  0  0  0
   17.3415    0.6722    3.9106 H   0  0  0  0  0  0  0  0  0  0  0  0
   17.3415    2.4376    3.9106 H   0  0  0  0  0  0  0  0  0  0  0  0
   16.0884    1.5549    2.3854 C   0  0  0  0  0  0  0  0  0  0  0  0
   16.0912    2.4378    1.7434 H   0  0  0  0  0  0  0  0  0  0  0  0
   16.0912    0.6720    1.7434 H   0  0  0  0  0  0  0  0  0  0  0  0
  1  3  3  0  0  0  0
  2  1  1  0  0  0  0
  3  4  1  0  0  0  0
  4  5  1  0  0  0  0
  5  7  1  0  0  0  0
  5  6  1  0  0  0  0
  8 11  1  0  0  0  0
  8 10  1  0  0  0  0
  9  8  1  0  0  0  0
 12  5  1  0  0  0  0
 12  8  1  0  0  0  0
 13 12  1  0  0  0  0
 14 12  1  0  0  0  0
M  END
$$$$
