CSD_code = QOXHEQ | q = 0 | S = 0 | Stoichiometry = C20H25BCl2N8Os | MND = 6
 OpenBabel04212202093D

 57 63  0  0  1  0  0  0  0  0999 V2000
    1.6355    3.7973    3.5078 C   0  0  0  0  0  3  0  0  0  0  0  0
    1.0533    3.1374    4.1220 H   0  0  0  0  0  0  0  0  0  0  0  0
    2.9685    4.1816    3.6267 C   0  0  0  0  0  0  0  0  0  0  0  0
    3.6708    3.8778    4.3748 H   0  0  0  0  0  0  0  0  0  0  0  0
    3.1818    5.0403    2.5668 C   0  0  0  0  0  0  0  0  0  0  0  0
    4.0629    5.5723    2.2694 H   0  0  0  0  0  0  0  0  0  0  0  0
   -1.4278    7.3983    1.6705 C   0  0  0  0  0  3  0  0  0  0  0  0
   -2.4117    7.2254    2.0637 H   0  0  0  0  0  0  0  0  0  0  0  0
   -0.7889    8.5983    1.3626 C   0  0  0  0  0  0  0  0  0  0  0  0
   -1.1823    9.5891    1.4554 H   0  0  0  0  0  0  0  0  0  0  0  0
    0.4625    8.2238    0.9191 C   0  0  0  0  0  0  0  0  0  0  0  0
    1.2876    8.8177    0.5823 H   0  0  0  0  0  0  0  0  0  0  0  0
    1.6949    4.6941   -1.6627 C   0  0  0  0  0  3  0  0  0  0  0  0
    2.5469    5.2141   -2.0507 H   0  0  0  0  0  0  0  0  0  0  0  0
    0.9213    3.6986   -2.2230 C   0  0  0  0  0  0  0  0  0  0  0  0
    1.0332    3.2447   -3.1856 H   0  0  0  0  0  0  0  0  0  0  0  0
   -0.0368    3.4085   -1.2532 C   0  0  0  0  0  0  0  0  0  0  0  0
   -0.8290    2.6841   -1.2653 H   0  0  0  0  0  0  0  0  0  0  0  0
   -3.6887    3.7810    0.9896 C   0  0  0  0  0  0  0  0  0  0  0  0
   -4.7935    3.9956    0.1352 C   0  0  0  0  0  0  0  0  0  0  0  0
   -4.6746    4.6537   -0.7163 H   0  0  0  0  0  0  0  0  0  0  0  0
   -5.9991    3.3831    0.3459 C   0  0  0  0  0  0  0  0  0  0  0  0
   -6.7943    3.5710   -0.3580 H   0  0  0  0  0  0  0  0  0  0  0  0
   -6.1934    2.4982    1.4275 C   0  0  0  0  0  0  0  0  0  0  0  0
   -5.0930    2.2946    2.2854 C   0  0  0  0  0  0  0  0  0  0  0  0
   -5.1956    1.6616    3.1516 H   0  0  0  0  0  0  0  0  0  0  0  0
   -3.8880    2.9082    2.0842 C   0  0  0  0  0  0  0  0  0  0  0  0
   -3.0785    2.7366    2.7733 H   0  0  0  0  0  0  0  0  0  0  0  0
   -8.5946    2.2393    0.9329 C   0  0  0  0  0  0  0  0  0  0  0  0
   -9.4407    2.1497    1.6246 H   0  0  0  0  0  0  0  0  0  0  0  0
   -8.5530    3.2747    0.5975 H   0  0  0  0  0  0  0  0  0  0  0  0
   -8.8059    1.2737   -0.2367 C   0  0  0  0  0  0  0  0  0  0  0  0
   -7.9626    1.3512   -0.9259 H   0  0  0  0  0  0  0  0  0  0  0  0
   -9.7166    1.5374   -0.7761 H   0  0  0  0  0  0  0  0  0  0  0  0
   -8.8971   -0.1513    0.3041 C   0  0  0  0  0  0  0  0  0  0  0  0
   -8.9715   -0.8631   -0.5196 H   0  0  0  0  0  0  0  0  0  0  0  0
   -9.7985   -0.2494    0.9142 H   0  0  0  0  0  0  0  0  0  0  0  0
   -7.6706   -0.4636    1.1579 C   0  0  0  0  0  0  0  0  0  0  0  0
   -6.7751   -0.4561    0.5328 H   0  0  0  0  0  0  0  0  0  0  0  0
   -7.7634   -1.4524    1.6083 H   0  0  0  0  0  0  0  0  0  0  0  0
   -7.5063    0.5880    2.2622 C   0  0  0  0  0  0  0  0  0  0  0  0
   -8.3824    0.5737    2.9199 H   0  0  0  0  0  0  0  0  0  0  0  0
   -6.6259    0.3583    2.8571 H   0  0  0  0  0  0  0  0  0  0  0  0
    1.7183    5.9613    0.6139 B   0  0  2  0  0  0  0  0  0  0  0  0
    2.6539    6.5698    0.2285 H   0  0  0  0  0  0  0  0  0  0  0  0
    1.0975    4.3888    2.4497 N   0  0  2  0  0  0  0  0  0  0  0  0
    2.0408    5.1473    1.8751 N   0  0  0  0  0  0  0  0  0  0  0  0
   -0.6076    6.3867    1.4213 N   0  0  1  0  0  0  0  0  0  0  0  0
    0.5424    6.8865    0.9642 N   0  0  0  0  0  0  0  0  0  0  0  0
    0.1589    4.1840   -0.1955 N   0  0  0  0  0  0  0  0  0  0  0  0
    1.2114    4.9667   -0.4428 N   0  0  2  0  0  0  0  0  0  0  0  0
   -2.5094    4.3897    0.7580 N   0  0  0  0  0  0  0  0  0  0  0  0
   -2.5844    4.9882   -0.0741 H   0  0  0  0  0  0  0  0  0  0  0  0
   -7.3994    1.9044    1.6724 N   0  0  0  0  0  0  0  0  0  0  0  0
   -0.7809    2.0412    1.7599 Cl  0  0  0  0  0  0  0  0  0  0  0  0
   -1.6863    4.7091    3.7228 Cl  0  0  0  0  0  0  0  0  0  0  0  0
   -0.8116    4.3449    1.6195 Os  0  0  0  0  0  0  0  0  0  0  0  0
  1  3  1  0  0  0  0
  1  2  1  0  0  0  0
  3  4  1  0  0  0  0
  5  3  2  0  0  0  0
  6  5  1  0  0  0  0
  7  8  1  0  0  0  0
  9 10  1  0  0  0  0
  9  7  1  0  0  0  0
 11 49  1  0  0  0  0
 11  9  2  0  0  0  0
 12 11  1  0  0  0  0
 14 13  1  0  0  0  0
 15 13  1  0  0  0  0
 15 17  2  0  0  0  0
 16 15  1  0  0  0  0
 17 50  1  0  0  0  0
 18 17  1  0  0  0  0
 19 27  1  0  0  0  0
 20 22  1  0  0  0  0
 20 19  2  0  0  0  0
 21 20  1  0  0  0  0
 22 24  2  0  0  0  0
 23 22  1  0  0  0  0
 24 54  1  0  0  0  0
 24 25  1  0  0  0  0
 25 26  1  0  0  0  0
 27 25  2  0  0  0  0
 27 28  1  0  0  0  0
 29 30  1  0  0  0  0
 29 54  1  0  0  0  0
 31 29  1  0  0  0  0
 32 35  1  0  0  0  0
 32 29  1  0  0  0  0
 33 32  1  0  0  0  0
 34 32  1  0  0  0  0
 35 37  1  0  0  0  0
 35 38  1  0  0  0  0
 36 35  1  0  0  0  0
 38 40  1  0  0  0  0
 38 41  1  0  0  0  0
 39 38  1  0  0  0  0
 41 43  1  0  0  0  0
 41 42  1  0  0  0  0
 44 45  1  6  0  0  0
 44 49  1  0  0  0  0
 44 47  1  0  0  0  0
 46  1  1  1  0  0  0
 47 46  1  0  0  0  0
 47  5  1  0  0  0  0
 48 57  1  0  0  0  0
 48  7  1  1  0  0  0
 49 48  1  0  0  0  0
 50 57  1  0  0  0  0
 51 13  1  1  0  0  0
 51 50  1  0  0  0  0
 51 44  1  0  0  0  0
 52 19  1  0  0  0  0
 52 57  1  0  0  0  0
 53 52  1  0  0  0  0
 54 41  1  0  0  0  0
 57 55  1  0  0  0  0
 57 46  1  0  0  0  0
 57 56  1  0  0  0  0
M  END
$$$$
