CSD_code = QOXKAQ | q = 0 | S = 0 | Stoichiometry = C28H27ClNNiOPS2 | MND = 4
 OpenBabel04212202093D

 62 66  0  0  1  0  0  0  0  0999 V2000
    8.7825    2.5282   -2.1905 Ni  0  0  1  0  0  0  0  0  0  0  0  0
    8.2435    0.7640   -3.4500 S   0  0  0  0  0  0  0  0  0  0  0  0
    8.1431    1.0481   -0.6075 S   0  0  0  0  0  0  0  0  0  0  0  0
    7.6934    0.1336   -1.9634 C   0  0  2  0  0  3  0  0  0  0  0  0
    6.9883   -0.9955   -1.8889 N   0  0  0  0  0  0  0  0  0  0  0  0
    6.6199   -1.7195   -3.0872 C   0  0  0  0  0  0  0  0  0  0  0  0
    7.7455   -2.6588   -3.5542 C   0  0  0  0  0  0  0  0  0  0  0  0
    8.0703   -3.6353   -2.5967 O   0  0  0  0  0  0  0  0  0  0  0  0
    6.4499   -1.4824   -0.6281 C   0  0  0  0  0  0  0  0  0  0  0  0
    4.9774   -1.1728   -0.5258 C   0  0  0  0  0  0  0  0  0  0  0  0
    4.0317   -2.1862   -0.6000 C   0  0  0  0  0  0  0  0  0  0  0  0
    2.6810   -1.8885   -0.5398 C   0  0  0  0  0  0  0  0  0  0  0  0
    2.2656   -0.5744   -0.4133 C   0  0  0  0  0  0  0  0  0  0  0  0
    3.2043    0.4416   -0.3414 C   0  0  0  0  0  0  0  0  0  0  0  0
    4.5535    0.1446   -0.3967 C   0  0  0  0  0  0  0  0  0  0  0  0
    9.5121    3.8422   -3.7302 P   0  0  0  0  0  4  0  0  0  0  0  0
    9.5744    3.1134   -5.4049 C   0  0  0  0  0  0  0  0  0  0  0  0
    8.3580    2.9599   -6.0657 C   0  0  0  0  0  0  0  0  0  0  0  0
    8.3124    2.3693   -7.3129 C   0  0  0  0  0  0  0  0  0  0  0  0
    9.4817    1.9173   -7.9055 C   0  0  0  0  0  0  0  0  0  0  0  0
   10.6913    2.0557   -7.2463 C   0  0  0  0  0  0  0  0  0  0  0  0
   10.7416    2.6468   -5.9954 C   0  0  0  0  0  0  0  0  0  0  0  0
   11.2710    4.0611   -3.3204 C   0  0  0  0  0  0  0  0  0  0  0  0
   11.8527    2.9989   -2.6306 C   0  0  0  0  0  0  0  0  0  0  0  0
   13.1874    3.0398   -2.2816 C   0  0  0  0  0  0  0  0  0  0  0  0
   13.9477    4.1507   -2.6156 C   0  0  0  0  0  0  0  0  0  0  0  0
   13.3695    5.2142   -3.2881 C   0  0  0  0  0  0  0  0  0  0  0  0
   12.0315    5.1753   -3.6437 C   0  0  0  0  0  0  0  0  0  0  0  0
    8.8594    5.4955   -4.1078 C   0  0  0  0  0  0  0  0  0  0  0  0
    7.9671    6.1249   -3.2490 C   0  0  0  0  0  0  0  0  0  0  0  0
    7.4818    7.3838   -3.5575 C   0  0  0  0  0  0  0  0  0  0  0  0
    7.8815    8.0174   -4.7220 C   0  0  0  0  0  0  0  0  0  0  0  0
    8.7619    7.3866   -5.5871 C   0  0  0  0  0  0  0  0  0  0  0  0
    9.2467    6.1272   -5.2879 C   0  0  0  0  0  0  0  0  0  0  0  0
    9.1853    4.1009   -0.9122 Cl  0  0  0  0  0  0  0  0  0  0  0  0
    6.4033   -1.0095   -3.8906 H   0  0  0  0  0  0  0  0  0  0  0  0
    5.7215   -2.2983   -2.8674 H   0  0  0  0  0  0  0  0  0  0  0  0
    7.4050   -3.2019   -4.4382 H   0  0  0  0  0  0  0  0  0  0  0  0
    8.6264   -2.0645   -3.8249 H   0  0  0  0  0  0  0  0  0  0  0  0
    8.5503   -3.2160   -1.8736 H   0  0  0  0  0  0  0  0  0  0  0  0
    6.9979   -0.9943    0.1826 H   0  0  0  0  0  0  0  0  0  0  0  0
    6.6139   -2.5622   -0.5760 H   0  0  0  0  0  0  0  0  0  0  0  0
    4.3521   -3.2146   -0.6959 H   0  0  0  0  0  0  0  0  0  0  0  0
    1.9531   -2.6846   -0.5943 H   0  0  0  0  0  0  0  0  0  0  0  0
    1.2120   -0.3419   -0.3691 H   0  0  0  0  0  0  0  0  0  0  0  0
    2.8848    1.4680   -0.2394 H   0  0  0  0  0  0  0  0  0  0  0  0
    5.2840    0.9371   -0.3329 H   0  0  0  0  0  0  0  0  0  0  0  0
    7.4516    3.3086   -5.5862 H   0  0  0  0  0  0  0  0  0  0  0  0
    7.3671    2.2542   -7.8228 H   0  0  0  0  0  0  0  0  0  0  0  0
    9.4478    1.4512   -8.8792 H   0  0  0  0  0  0  0  0  0  0  0  0
   11.6015    1.6981   -7.7058 H   0  0  0  0  0  0  0  0  0  0  0  0
   11.6864    2.7486   -5.4798 H   0  0  0  0  0  0  0  0  0  0  0  0
   11.2259    2.1440   -2.3551 H   0  0  0  0  0  0  0  0  0  0  0  0
   13.6349    2.2175   -1.7433 H   0  0  0  0  0  0  0  0  0  0  0  0
   14.9908    4.1916   -2.3390 H   0  0  0  0  0  0  0  0  0  0  0  0
   13.9629    6.0830   -3.5331 H   0  0  0  0  0  0  0  0  0  0  0  0
   11.5795    6.0120   -4.1559 H   0  0  0  0  0  0  0  0  0  0  0  0
    7.6665    5.6270   -2.3386 H   0  0  0  0  0  0  0  0  0  0  0  0
    6.7901    7.8711   -2.8866 H   0  0  0  0  0  0  0  0  0  0  0  0
    7.5041    9.0009   -4.9606 H   0  0  0  0  0  0  0  0  0  0  0  0
    9.0685    7.8761   -6.5002 H   0  0  0  0  0  0  0  0  0  0  0  0
    9.9170    5.6264   -5.9736 H   0  0  0  0  0  0  0  0  0  0  0  0
  1 35  1  6  0  0  0
  1  3  1  0  0  0  0
  2  1  1  0  0  0  0
  2  4  1  0  0  0  0
  4  5  1  1  0  0  0
  4  3  1  0  0  0  0
  5  9  1  0  0  0  0
  6 37  1  0  0  0  0
  6  5  1  0  0  0  0
  7  6  1  0  0  0  0
  7  8  1  0  0  0  0
  8 40  1  0  0  0  0
  9 42  1  0  0  0  0
  9 10  1  0  0  0  0
  9 41  1  0  0  0  0
 10 15  1  0  0  0  0
 11 12  1  0  0  0  0
 11 10  2  0  0  0  0
 12 13  2  0  0  0  0
 13 45  1  0  0  0  0
 13 14  1  0  0  0  0
 14 46  1  0  0  0  0
 15 14  2  0  0  0  0
 15 47  1  0  0  0  0
 16 23  1  0  0  0  0
 16  1  1  0  0  0  0
 17 16  1  0  0  0  0
 18 48  1  0  0  0  0
 18 17  2  0  0  0  0
 19 18  1  0  0  0  0
 20 19  2  0  0  0  0
 20 21  1  0  0  0  0
 21 22  2  0  0  0  0
 22 52  1  0  0  0  0
 22 17  1  0  0  0  0
 23 24  1  0  0  0  0
 24 53  1  0  0  0  0
 24 25  2  0  0  0  0
 25 54  1  0  0  0  0
 26 55  1  0  0  0  0
 26 25  1  0  0  0  0
 27 26  2  0  0  0  0
 28 23  2  0  0  0  0
 28 27  1  0  0  0  0
 29 16  1  0  0  0  0
 29 30  1  0  0  0  0
 30 58  1  0  0  0  0
 31 30  2  0  0  0  0
 31 59  1  0  0  0  0
 32 31  1  0  0  0  0
 33 34  1  0  0  0  0
 33 32  2  0  0  0  0
 34 29  2  0  0  0  0
 36  6  1  0  0  0  0
 38  7  1  0  0  0  0
 39  7  1  0  0  0  0
 43 11  1  0  0  0  0
 44 12  1  0  0  0  0
 49 19  1  0  0  0  0
 50 20  1  0  0  0  0
 51 21  1  0  0  0  0
 56 27  1  0  0  0  0
 57 28  1  0  0  0  0
 60 32  1  0  0  0  0
 61 33  1  0  0  0  0
 62 34  1  0  0  0  0
M  END
$$$$
