CSD_code = QOXKUL | q = 0 | S = 0 | Stoichiometry = C16H18Br2FeN4O | MND = 4
 OpenBabel04212202093D

 42 45  0  0  1  0  0  0  0  0999 V2000
    2.1643    4.8734   10.8455 Fe  0  0  0  0  0  0  0  0  0  0  0  0
    2.4954    2.6442   10.6199 Br  0  0  0  0  0  0  0  0  0  0  0  0
    2.6564    7.0864   10.8962 Br  0  0  0  0  0  0  0  0  0  0  0  0
    0.5591    5.0086    9.8081 N   0  0  0  0  0  0  0  0  0  0  0  0
   -1.2601    5.1179   11.5819 C   0  0  2  0  0  0  0  0  0  0  0  0
    0.5748    5.0397    8.4451 C   0  0  0  0  0  0  0  0  0  0  0  0
    1.4939    4.9566    7.8961 H   0  0  0  0  0  0  0  0  0  0  0  0
   -0.6989    5.1879    7.9903 C   0  0  0  0  0  0  0  0  0  0  0  0
   -1.0850    5.2593    6.9948 H   0  0  0  0  0  0  0  0  0  0  0  0
   -1.5049    5.2479    9.0854 N   0  0  0  0  0  0  0  0  0  0  0  0
   -2.9341    5.3885    9.0489 C   0  0  0  0  0  0  0  0  0  0  0  0
   -3.4177    4.4120    9.1305 H   0  0  0  0  0  0  0  0  0  0  0  0
   -3.2190    5.8502    8.1047 H   0  0  0  0  0  0  0  0  0  0  0  0
   -3.2655    6.0153    9.8746 H   0  0  0  0  0  0  0  0  0  0  0  0
   -0.7053    5.1327   10.1778 C   0  0  2  0  0  3  0  0  0  0  0  0
    1.1134    4.8242   12.4468 N   0  0  0  0  0  0  0  0  0  0  0  0
    1.6746    4.6761   13.6805 C   0  0  0  0  0  0  0  0  0  0  0  0
    2.7341    4.5470   13.7993 H   0  0  0  0  0  0  0  0  0  0  0  0
    0.6945    4.7285   14.6227 C   0  0  0  0  0  0  0  0  0  0  0  0
    0.7420    4.6578   15.6894 H   0  0  0  0  0  0  0  0  0  0  0  0
   -0.4807    4.9100   13.9606 N   0  0  0  0  0  0  0  0  0  0  0  0
   -1.7710    5.0051   14.5847 C   0  0  0  0  0  0  0  0  0  0  0  0
   -2.3824    5.7372   14.0617 H   0  0  0  0  0  0  0  0  0  0  0  0
   -1.6400    5.3143   15.6199 H   0  0  0  0  0  0  0  0  0  0  0  0
   -2.2807    4.0394   14.5614 H   0  0  0  0  0  0  0  0  0  0  0  0
   -0.1892    4.9612   12.6346 C   0  0  2  0  0  3  0  0  0  0  0  0
   -2.1674    3.8940   11.6869 C   0  0  0  0  0  0  0  0  0  0  0  0
   -3.5192    3.9921   11.9798 C   0  0  0  0  0  0  0  0  0  0  0  0
   -3.9609    4.9627   12.1419 H   0  0  0  0  0  0  0  0  0  0  0  0
   -4.2927    2.8462   12.0626 C   0  0  0  0  0  0  0  0  0  0  0  0
   -5.3449    2.9286   12.2913 H   0  0  0  0  0  0  0  0  0  0  0  0
   -3.7214    1.6028   11.8539 C   0  0  0  0  0  0  0  0  0  0  0  0
   -4.3271    0.7116   11.9191 H   0  0  0  0  0  0  0  0  0  0  0  0
   -2.3704    1.5045   11.5611 C   0  0  0  0  0  0  0  0  0  0  0  0
   -1.9165    0.5396   11.3968 H   0  0  0  0  0  0  0  0  0  0  0  0
   -1.5931    2.6450   11.4773 C   0  0  0  0  0  0  0  0  0  0  0  0
   -0.5398    2.5698   11.2493 H   0  0  0  0  0  0  0  0  0  0  0  0
   -2.0171    6.3035   11.8241 O   0  0  0  0  0  0  0  0  0  0  0  0
   -1.2548    7.4951   11.7469 C   0  0  0  0  0  0  0  0  0  0  0  0
   -0.4447    7.5033   12.4808 H   0  0  0  0  0  0  0  0  0  0  0  0
   -1.9493    8.3052   11.9576 H   0  0  0  0  0  0  0  0  0  0  0  0
   -0.8195    7.6311   10.7535 H   0  0  0  0  0  0  0  0  0  0  0  0
  1  3  1  0  0  0  0
  1 16  1  0  0  0  0
  2  1  1  0  0  0  0
  4 15  1  0  0  0  0
  4  1  1  0  0  0  0
  5 27  1  0  0  0  0
  5 38  1  1  0  0  0
  5 26  1  0  0  0  0
  6  4  1  0  0  0  0
  7  6  1  0  0  0  0
  8  6  2  0  0  0  0
  8 10  1  0  0  0  0
  9  8  1  0  0  0  0
 11 10  1  0  0  0  0
 11 12  1  0  0  0  0
 11 14  1  0  0  0  0
 13 11  1  0  0  0  0
 15 10  1  6  0  0  0
 15  5  1  0  0  0  0
 16 17  1  0  0  0  0
 17 18  1  0  0  0  0
 17 19  2  0  0  0  0
 19 20  1  0  0  0  0
 21 22  1  0  0  0  0
 21 19  1  0  0  0  0
 22 24  1  0  0  0  0
 23 22  1  0  0  0  0
 25 22  1  0  0  0  0
 26 16  1  6  0  0  0
 26 21  1  0  0  0  0
 27 28  1  0  0  0  0
 28 30  2  0  0  0  0
 28 29  1  0  0  0  0
 30 31  1  0  0  0  0
 32 33  1  0  0  0  0
 32 30  1  0  0  0  0
 34 32  2  0  0  0  0
 35 34  1  0  0  0  0
 36 34  1  0  0  0  0
 36 27  2  0  0  0  0
 37 36  1  0  0  0  0
 39 38  1  0  0  0  0
 39 41  1  0  0  0  0
 39 40  1  0  0  0  0
 42 39  1  0  0  0  0
M  END
$$$$
