CSD_code = QOXKOF | q = 0 | S = 0 | Stoichiometry = C16H18Cl2FeN4O | MND = 4
 OpenBabel04212202093D

 42 45  0  0  1  0  0  0  0  0999 V2000
   -2.0695    2.3062    8.4856 Fe  0  0  0  0  0  0  0  0  0  0  0  0
   -2.6120    0.2666    8.4713 Cl  0  0  0  0  0  0  0  0  0  0  0  0
   -2.0722    4.4176    8.6132 Cl  0  0  0  0  0  0  0  0  0  0  0  0
   -1.0180    2.2347    6.9029 N   0  0  0  0  0  0  0  0  0  0  0  0
    1.3515    1.9549    7.7811 C   0  0  2  0  0  0  0  0  0  0  0  0
   -1.5756    2.3536    5.6630 C   0  0  0  0  0  0  0  0  0  0  0  0
   -2.6358    2.4776    5.5407 H   0  0  0  0  0  0  0  0  0  0  0  0
   -0.5923    2.2816    4.7250 C   0  0  0  0  0  0  0  0  0  0  0  0
   -0.6352    2.3281    3.6564 H   0  0  0  0  0  0  0  0  0  0  0  0
    0.5819    2.1157    5.3933 N   0  0  0  0  0  0  0  0  0  0  0  0
    1.8763    2.0204    4.7776 C   0  0  0  0  0  0  0  0  0  0  0  0
    2.3743    2.9930    4.7801 H   0  0  0  0  0  0  0  0  0  0  0  0
    1.7549    1.6842    3.7491 H   0  0  0  0  0  0  0  0  0  0  0  0
    2.4938    1.3092    5.3228 H   0  0  0  0  0  0  0  0  0  0  0  0
    0.2865    2.0937    6.7204 C   0  0  2  0  0  3  0  0  0  0  0  0
   -0.4943    2.0761    9.5252 N   0  0  0  0  0  0  0  0  0  0  0  0
   -0.5321    2.0378   10.8888 C   0  0  0  0  0  0  0  0  0  0  0  0
   -1.4617    2.1214   11.4209 H   0  0  0  0  0  0  0  0  0  0  0  0
    0.7336    1.8816   11.3641 C   0  0  0  0  0  0  0  0  0  0  0  0
    1.1041    1.8035   12.3652 H   0  0  0  0  0  0  0  0  0  0  0  0
    1.5586    1.8220   10.2830 N   0  0  0  0  0  0  0  0  0  0  0  0
    2.9876    1.6862   10.3415 C   0  0  0  0  0  0  0  0  0  0  0  0
    3.3335    1.0583    9.5227 H   0  0  0  0  0  0  0  0  0  0  0  0
    3.2607    1.2294   11.2914 H   0  0  0  0  0  0  0  0  0  0  0  0
    3.4690    2.6640   10.2626 H   0  0  0  0  0  0  0  0  0  0  0  0
    0.7773    1.9460    9.1770 C   0  0  2  0  0  3  0  0  0  0  0  0
    2.2534    3.1825    7.6751 C   0  0  0  0  0  0  0  0  0  0  0  0
    1.6666    4.4290    7.8666 C   0  0  0  0  0  0  0  0  0  0  0  0
    0.6090    4.4976    8.0805 H   0  0  0  0  0  0  0  0  0  0  0  0
    2.4402    5.5723    7.7823 C   0  0  0  0  0  0  0  0  0  0  0  0
    1.9800    6.5366    7.9317 H   0  0  0  0  0  0  0  0  0  0  0  0
    3.7959    5.4799    7.5082 C   0  0  0  0  0  0  0  0  0  0  0  0
    4.3976    6.3741    7.4433 H   0  0  0  0  0  0  0  0  0  0  0  0
    4.3776    4.2387    7.3176 C   0  0  0  0  0  0  0  0  0  0  0  0
    5.4333    4.1606    7.1038 H   0  0  0  0  0  0  0  0  0  0  0  0
    3.6093    3.0890    7.4003 C   0  0  0  0  0  0  0  0  0  0  0  0
    4.0584    2.1195    7.2525 H   0  0  0  0  0  0  0  0  0  0  0  0
    2.1154    0.7688    7.5569 O   0  0  0  0  0  0  0  0  0  0  0  0
    1.3550   -0.4235    7.6399 C   0  0  0  0  0  0  0  0  0  0  0  0
    0.9110   -0.5488    8.6309 H   0  0  0  0  0  0  0  0  0  0  0  0
    2.0538   -1.2336    7.4418 H   0  0  0  0  0  0  0  0  0  0  0  0
    0.5488   -0.4381    6.9018 H   0  0  0  0  0  0  0  0  0  0  0  0
  1  3  1  0  0  0  0
  1 16  1  0  0  0  0
  2  1  1  0  0  0  0
  4  1  1  0  0  0  0
  5 38  1  6  0  0  0
  5 26  1  0  0  0  0
  6  4  1  0  0  0  0
  7  6  1  0  0  0  0
  8 10  1  0  0  0  0
  8  6  2  0  0  0  0
  9  8  1  0  0  0  0
 11 12  1  0  0  0  0
 11 14  1  0  0  0  0
 11 10  1  0  0  0  0
 13 11  1  0  0  0  0
 15 10  1  1  0  0  0
 15  4  1  0  0  0  0
 15  5  1  0  0  0  0
 16 17  1  0  0  0  0
 17 19  2  0  0  0  0
 17 18  1  0  0  0  0
 19 20  1  0  0  0  0
 21 22  1  0  0  0  0
 21 19  1  0  0  0  0
 22 24  1  0  0  0  0
 23 22  1  0  0  0  0
 25 22  1  0  0  0  0
 26 16  1  1  0  0  0
 26 21  1  0  0  0  0
 27  5  1  0  0  0  0
 27 28  1  0  0  0  0
 28 29  1  0  0  0  0
 30 28  2  0  0  0  0
 30 31  1  0  0  0  0
 32 30  1  0  0  0  0
 33 32  1  0  0  0  0
 34 36  1  0  0  0  0
 34 32  2  0  0  0  0
 35 34  1  0  0  0  0
 36 27  2  0  0  0  0
 37 36  1  0  0  0  0
 38 39  1  0  0  0  0
 39 40  1  0  0  0  0
 41 39  1  0  0  0  0
 42 39  1  0  0  0  0
M  END
$$$$
