CSD_code = QOZTUU | q = 0 | S = 0 | Stoichiometry = C27H12BF15IORe | MND = 6
 OpenBabel04212202093D

 58 60  0  0  0  0  0  0  0  0999 V2000
    3.4014    2.0996    4.0276 Re  0  0  0  0  0  0  0  0  0  0  0  0
    2.9805    3.4662    6.2557 I   0  0  0  0  0 15  0  0  0  0  0  0
    2.4878    3.0456    2.9295 O   0  0  0  0  0  0  0  0  0  0  0  0
    3.6749    2.2083    0.8846 F   0  0  0  0  0  0  0  0  0  0  0  0
    5.3160    2.8607   -1.1401 F   0  0  0  0  0  0  0  0  0  0  0  0
    5.0676    5.2979   -2.3804 F   0  0  0  0  0  0  0  0  0  0  0  0
    3.1649    7.0527   -1.5164 F   0  0  0  0  0  0  0  0  0  0  0  0
    1.5507    6.4099    0.5354 F   0  0  0  0  0  0  0  0  0  0  0  0
   -1.0652    4.9943    2.8403 F   0  0  0  0  0  0  0  0  0  0  0  0
   -1.4068    7.1782    4.3714 F   0  0  0  0  0  0  0  0  0  0  0  0
    0.7496    8.5354    5.3468 F   0  0  0  0  0  0  0  0  0  0  0  0
    3.2781    7.6493    4.7677 F   0  0  0  0  0  0  0  0  0  0  0  0
    3.6148    5.4452    3.2407 F   0  0  0  0  0  0  0  0  0  0  0  0
    0.5684    1.6293    3.6165 F   0  0  0  0  0  0  0  0  0  0  0  0
   -1.5705    0.1400    3.0053 F   0  0  0  0  0  0  0  0  0  0  0  0
   -3.0010    0.6350    0.7178 F   0  0  0  0  0  0  0  0  0  0  0  0
   -2.2005    2.6436   -0.9512 F   0  0  0  0  0  0  0  0  0  0  0  0
   -0.0423    4.1237   -0.3584 F   0  0  0  0  0  0  0  0  0  0  0  0
    6.2827    3.7088    4.6663 C   0  0  0  0  0  0  0  0  0  0  0  0
    6.3165    3.6325    5.7529 H   0  0  0  0  0  0  0  0  0  0  0  0
    5.8030    4.6530    4.4096 H   0  0  0  0  0  0  0  0  0  0  0  0
    7.2983    3.7035    4.2719 H   0  0  0  0  0  0  0  0  0  0  0  0
    5.5307    2.5966    4.0898 C   0  0  0  0  0  3  0  0  0  0  0  0
    5.3961    1.5518    3.3856 C   0  0  0  0  0  0  0  0  0  0  0  0
    5.9338    0.4871    2.5258 C   0  0  0  0  0  0  0  0  0  0  0  0
    6.7501   -0.0071    3.0635 H   0  0  0  0  0  0  0  0  0  0  0  0
    6.3490    0.9536    1.6282 H   0  0  0  0  0  0  0  0  0  0  0  0
    4.8730   -0.5407    2.1226 C   0  0  0  0  0  0  0  0  0  0  0  0
    4.1351   -0.0619    1.4794 H   0  0  0  0  0  0  0  0  0  0  0  0
    5.3442   -1.3493    1.5635 H   0  0  0  0  0  0  0  0  0  0  0  0
    4.1679   -1.1034    3.3573 C   0  0  0  0  0  0  0  0  0  0  0  0
    3.3925   -1.8125    3.0544 H   0  0  0  0  0  0  0  0  0  0  0  0
    4.8856   -1.6365    3.9905 H   0  0  0  0  0  0  0  0  0  0  0  0
    3.5323   -0.0470    4.1625 C   0  0  0  0  0  0  0  0  0  0  0  0
    2.8330    0.3248    5.1561 C   0  0  0  0  0  3  0  0  0  0  0  0
    1.9778    0.0345    6.3097 C   0  0  0  0  0  0  0  0  0  0  0  0
    1.7728   -1.0345    6.3531 H   0  0  0  0  0  0  0  0  0  0  0  0
    1.0378    0.5771    6.2164 H   0  0  0  0  0  0  0  0  0  0  0  0
    2.4568    0.3509    7.2358 H   0  0  0  0  0  0  0  0  0  0  0  0
    2.5449    4.2805    0.7701 C   0  0  0  0  0  0  0  0  0  0  0  0
    3.5233    3.4188    0.2981 C   0  0  0  0  0  0  0  0  0  0  0  0
    4.3789    3.7346   -0.7488 C   0  0  0  0  0  0  0  0  0  0  0  0
    4.2568    4.9692   -1.3738 C   0  0  0  0  0  0  0  0  0  0  0  0
    3.2846    5.8605   -0.9303 C   0  0  0  0  0  0  0  0  0  0  0  0
    2.4541    5.5109    0.1303 C   0  0  0  0  0  0  0  0  0  0  0  0
    1.2878    5.1732    2.9672 C   0  0  0  0  0  0  0  0  0  0  0  0
    0.0225    5.6364    3.2907 C   0  0  0  0  0  0  0  0  0  0  0  0
   -0.1710    6.7627    4.0864 C   0  0  0  0  0  0  0  0  0  0  0  0
    0.9257    7.4544    4.5883 C   0  0  0  0  0  0  0  0  0  0  0  0
    2.2089    7.0057    4.2930 C   0  0  0  0  0  0  0  0  0  0  0  0
    2.3610    5.8798    3.4969 C   0  0  0  0  0  0  0  0  0  0  0  0
    0.3311    2.9533    1.6579 C   0  0  0  0  0  0  0  0  0  0  0  0
   -0.1073    1.9184    2.4736 C   0  0  0  0  0  0  0  0  0  0  0  0
   -1.2138    1.1314    2.1815 C   0  0  0  0  0  0  0  0  0  0  0  0
   -1.9371    1.3788    1.0212 C   0  0  0  0  0  0  0  0  0  0  0  0
   -1.5267    2.4037    0.1750 C   0  0  0  0  0  0  0  0  0  0  0  0
   -0.4079    3.1644    0.4995 C   0  0  0  0  0  0  0  0  0  0  0  0
    1.6401    3.8463    2.0702 B   0  0  0  0  0  0  0  0  0  0  0  0
  1 34  1  0  0  0  0
  3  1  1  0  0  0  0
  5 42  1  0  0  0  0
  6 43  1  0  0  0  0
  7 44  1  0  0  0  0
  9 47  1  0  0  0  0
 13 51  1  0  0  0  0
 16 55  1  0  0  0  0
 17 56  1  0  0  0  0
 18 57  1  0  0  0  0
 19 20  1  0  0  0  0
 21 19  1  0  0  0  0
 22 19  1  0  0  0  0
 23 19  1  0  0  0  0
 24  1  1  0  0  0  0
 24 23  2  0  0  0  0
 25 26  1  0  0  0  0
 25 24  1  0  0  0  0
 27 25  1  0  0  0  0
 28 25  1  0  0  0  0
 28 31  1  0  0  0  0
 29 28  1  0  0  0  0
 30 28  1  0  0  0  0
 31 33  1  0  0  0  0
 31 34  1  0  0  0  0
 32 31  1  0  0  0  0
 34 35  2  0  0  0  0
 35 36  1  0  0  0  0
 36 37  1  0  0  0  0
 36 39  1  0  0  0  0
 38 36  1  0  0  0  0
 40 58  1  0  0  0  0
 41 40  1  0  0  0  0
 41  4  1  0  0  0  0
 42 41  2  0  0  0  0
 43 44  2  0  0  0  0
 43 42  1  0  0  0  0
 44 45  1  0  0  0  0
 45  8  1  0  0  0  0
 45 40  2  0  0  0  0
 46 47  2  0  0  0  0
 46 51  1  0  0  0  0
 47 48  1  0  0  0  0
 48 10  1  0  0  0  0
 48 49  2  0  0  0  0
 49 11  1  0  0  0  0
 50 49  1  0  0  0  0
 50 12  1  0  0  0  0
 51 50  2  0  0  0  0
 52 58  1  0  0  0  0
 52 53  1  0  0  0  0
 53 14  1  0  0  0  0
 54 53  2  0  0  0  0
 54 15  1  0  0  0  0
 55 54  1  0  0  0  0
 56 57  1  0  0  0  0
 56 55  2  0  0  0  0
 57 52  2  0  0  0  0
 58  3  1  0  0  0  0
 58 46  1  0  0  0  0
M  END
$$$$
