CSD_code = QOZWEJ | q = 0 | S = 0 | Stoichiometry = C29H24Cl2N3OPRu | MND = 6
 OpenBabel04212202093D

 61 66  0  0  1  0  0  0  0  0999 V2000
   -0.0772    1.4801   11.0892 Ru  0  0  0  0  0  0  0  0  0  0  0  0
    0.1716    3.4737   12.2806 P   0  0  0  0  0  4  0  0  0  0  0  0
    0.8691    2.7396    9.2545 Cl  0  0  0  0  0  0  0  0  0  0  0  0
   -0.9000   -0.0406   12.7222 Cl  0  0  0  0  0  0  0  0  0  0  0  0
    2.2883    0.0984    9.4777 N   0  0  0  0  0  0  0  0  0  0  0  0
    3.0308   -0.0114    8.8017 H   0  0  0  0  0  0  0  0  0  0  0  0
   -2.8267    2.2037   10.1773 O   0  0  0  0  0  1  0  0  0  0  0  0
    1.7902    0.8270   11.6532 N   0  0  0  0  0  0  0  0  0  0  0  0
   -0.0414   -0.1272    9.7954 N   0  0  0  0  0  0  0  0  0  0  0  0
   -0.3136    4.9417   11.3091 C   0  0  0  0  0  0  0  0  0  0  0  0
   -0.7701    3.8478   13.7955 C   0  0  0  0  0  0  0  0  0  0  0  0
    1.8958    3.8328   12.7674 C   0  0  0  0  0  0  0  0  0  0  0  0
   -1.7667    1.9809   10.5523 C   0  0  0  0  0  2  0  0  0  0  0  0
    2.1853    0.9667   12.9210 C   0  0  0  0  0  3  0  0  0  0  0  0
    1.4002    1.1777   13.6393 H   0  0  0  0  0  0  0  0  0  0  0  0
   -0.7516    5.1430   14.3129 C   0  0  0  0  0  0  0  0  0  0  0  0
   -0.1630    5.9069   13.8217 H   0  0  0  0  0  0  0  0  0  0  0  0
    2.2704    4.0421   14.0909 C   0  0  0  0  0  0  0  0  0  0  0  0
    1.5246    4.0362   14.8727 H   0  0  0  0  0  0  0  0  0  0  0  0
   -2.2436    4.4617   16.0627 C   0  0  0  0  0  0  0  0  0  0  0  0
   -2.8186    4.7032   16.9448 H   0  0  0  0  0  0  0  0  0  0  0  0
    0.5735    5.8501   10.7487 C   0  0  0  0  0  0  0  0  0  0  0  0
    1.6378    5.7313   10.8851 H   0  0  0  0  0  0  0  0  0  0  0  0
   -1.6844    5.1218   11.1308 C   0  0  0  0  0  0  0  0  0  0  0  0
   -2.3744    4.4224   11.5865 H   0  0  0  0  0  0  0  0  0  0  0  0
    2.8768    3.8117   11.7752 C   0  0  0  0  0  0  0  0  0  0  0  0
    2.5927    3.6124   10.7494 H   0  0  0  0  0  0  0  0  0  0  0  0
    4.4618    0.5675   12.3569 C   0  0  0  0  0  0  0  0  0  0  0  0
    5.5060    0.5014   12.6206 H   0  0  0  0  0  0  0  0  0  0  0  0
   -1.5333    2.8667   14.4144 C   0  0  0  0  0  0  0  0  0  0  0  0
   -1.5533    1.8653   14.0050 H   0  0  0  0  0  0  0  0  0  0  0  0
    1.0527   -0.3442    9.0569 C   0  0  2  0  0  3  0  0  0  0  0  0
    3.4971    0.8275   13.3229 C   0  0  0  0  0  0  0  0  0  0  0  0
    3.7601    0.9476   14.3602 H   0  0  0  0  0  0  0  0  0  0  0  0
    4.0557    0.3623   11.0566 C   0  0  0  0  0  0  0  0  0  0  0  0
    4.7650    0.1181   10.2806 H   0  0  0  0  0  0  0  0  0  0  0  0
   -1.2682    7.0816    9.8182 C   0  0  0  0  0  0  0  0  0  0  0  0
   -1.6364    7.9097    9.2306 H   0  0  0  0  0  0  0  0  0  0  0  0
    2.6930    0.4528   10.7435 C   0  0  0  0  0  0  0  0  0  0  0  0
    4.2030    4.0226   12.1028 C   0  0  0  0  0  0  0  0  0  0  0  0
    4.9552    4.0098   11.3271 H   0  0  0  0  0  0  0  0  0  0  0  0
   -2.2678    3.1776   15.5477 C   0  0  0  0  0  0  0  0  0  0  0  0
   -2.8621    2.4127   16.0248 H   0  0  0  0  0  0  0  0  0  0  0  0
    4.5680    4.2442   13.4209 C   0  0  0  0  0  0  0  0  0  0  0  0
    5.6050    4.4065   13.6764 H   0  0  0  0  0  0  0  0  0  0  0  0
   -2.1583    6.1846   10.3876 C   0  0  0  0  0  0  0  0  0  0  0  0
   -3.2218    6.3122   10.2488 H   0  0  0  0  0  0  0  0  0  0  0  0
    3.6005    4.2503   14.4113 C   0  0  0  0  0  0  0  0  0  0  0  0
    3.8822    4.4148   15.4414 H   0  0  0  0  0  0  0  0  0  0  0  0
   -0.2005   -1.6241    7.4593 C   0  0  0  0  0  0  0  0  0  0  0  0
   -0.2654   -2.1769    6.5351 H   0  0  0  0  0  0  0  0  0  0  0  0
    0.9951   -1.0697    7.8603 C   0  0  0  0  0  0  0  0  0  0  0  0
    1.8895   -1.1851    7.2672 H   0  0  0  0  0  0  0  0  0  0  0  0
   -1.1839   -0.7141    9.4265 C   0  0  0  0  0  0  0  0  0  0  0  0
   -2.0257   -0.5722   10.0940 H   0  0  0  0  0  0  0  0  0  0  0  0
    0.0925    6.9145   10.0052 C   0  0  0  0  0  0  0  0  0  0  0  0
    0.7887    7.6146    9.5664 H   0  0  0  0  0  0  0  0  0  0  0  0
   -1.4841    5.4444   15.4439 C   0  0  0  0  0  0  0  0  0  0  0  0
   -1.4679    6.4481   15.8436 H   0  0  0  0  0  0  0  0  0  0  0  0
   -1.3106   -1.4727    8.2824 C   0  0  0  0  0  0  0  0  0  0  0  0
   -2.2594   -1.9164    8.0314 H   0  0  0  0  0  0  0  0  0  0  0  0
  1  8  1  0  0  0  0
  1  2  1  0  0  0  0
  1  4  1  0  0  0  0
  2 12  1  0  0  0  0
  2 11  1  0  0  0  0
  3  1  1  0  0  0  0
  5 39  1  0  0  0  0
  6  5  1  0  0  0  0
  7 13  1  0  0  0  0
  8 14  1  0  0  0  0
  9  1  1  0  0  0  0
 10  2  1  0  0  0  0
 11 16  2  0  0  0  0
 11 30  1  0  0  0  0
 12 18  1  0  0  0  0
 13  1  1  0  0  0  0
 14 33  1  0  0  0  0
 14 15  1  0  0  0  0
 16 58  1  0  0  0  0
 17 16  1  0  0  0  0
 18 48  2  0  0  0  0
 18 19  1  0  0  0  0
 20 21  1  0  0  0  0
 22 23  1  0  0  0  0
 22 10  2  0  0  0  0
 24 10  1  0  0  0  0
 24 25  1  0  0  0  0
 26 40  1  0  0  0  0
 26 12  2  0  0  0  0
 27 26  1  0  0  0  0
 28 29  1  0  0  0  0
 28 33  2  0  0  0  0
 30 42  2  0  0  0  0
 31 30  1  0  0  0  0
 32 52  1  1  0  0  0
 32  5  1  0  0  0  0
 32  9  1  0  0  0  0
 33 34  1  0  0  0  0
 35 28  1  0  0  0  0
 36 35  1  0  0  0  0
 37 56  2  0  0  0  0
 37 46  1  0  0  0  0
 38 37  1  0  0  0  0
 39 35  2  0  0  0  0
 39  8  1  0  0  0  0
 40 44  2  0  0  0  0
 41 40  1  0  0  0  0
 42 43  1  0  0  0  0
 42 20  1  0  0  0  0
 44 45  1  0  0  0  0
 44 48  1  0  0  0  0
 46 24  2  0  0  0  0
 47 46  1  0  0  0  0
 48 49  1  0  0  0  0
 50 52  2  0  0  0  0
 50 60  1  0  0  0  0
 51 50  1  0  0  0  0
 53 52  1  0  0  0  0
 54  9  1  0  0  0  0
 54 55  1  0  0  0  0
 56 22  1  0  0  0  0
 57 56  1  0  0  0  0
 58 59  1  0  0  0  0
 58 20  2  0  0  0  0
 60 54  2  0  0  0  0
 61 60  1  0  0  0  0
M  END
$$$$
