CSD_code = QUDVIV | q = 0 | S = 0 | Stoichiometry = C26H30BrN3O6Pt | MND = 6
 OpenBabel04212202093D

 67 70  0  0  1  0  0  0  0  0999 V2000
   -1.4395   -1.3315   16.2466 Pt  0  0  0  0  0  0  0  0  0  0  0  0
    0.3151   -2.7983   17.4412 Br  0  0  0  0  0  0  0  0  0  0  0  0
   -1.4562    0.0822   17.7497 C   0  0  0  0  0  0  0  0  0  0  0  0
   -2.4690    0.1846   18.1490 H   0  0  0  0  0  0  0  0  0  0  0  0
   -1.1263    1.0710   17.4316 H   0  0  0  0  0  0  0  0  0  0  0  0
   -0.7947   -0.2570   18.5492 H   0  0  0  0  0  0  0  0  0  0  0  0
    0.0739   -0.2427   15.3772 C   0  0  0  0  0  0  0  0  0  0  0  0
   -0.2738    0.5863   14.7618 H   0  0  0  0  0  0  0  0  0  0  0  0
    0.6270   -0.9494   14.7525 H   0  0  0  0  0  0  0  0  0  0  0  0
    0.7612    0.1430   16.1316 H   0  0  0  0  0  0  0  0  0  0  0  0
   -1.5592   -2.9748   14.7444 N   0  0  0  0  0  0  0  0  0  0  0  0
   -1.1088   -2.9370   13.5044 C   0  0  0  0  0  3  0  0  0  0  0  0
   -0.4777   -2.1058   13.2201 H   0  0  0  0  0  0  0  0  0  0  0  0
   -1.4234   -3.9002   12.5522 C   0  0  0  0  0  0  0  0  0  0  0  0
   -2.2303   -4.9681   12.9340 C   0  0  0  0  0  0  0  0  0  0  0  0
   -2.5045   -5.7259   12.2176 H   0  0  0  0  0  0  0  0  0  0  0  0
   -2.6741   -5.0226   14.2390 C   0  0  0  0  0  0  0  0  0  0  0  0
   -3.3150   -5.8276   14.5598 H   0  0  0  0  0  0  0  0  0  0  0  0
   -2.3287   -4.0031   15.1285 C   0  0  0  0  0  0  0  0  0  0  0  0
   -2.8015   -3.9998   16.5164 C   0  0  1  0  0  3  0  0  0  0  0  0
   -3.1518   -5.1752   17.1816 C   0  0  0  0  0  0  0  0  0  0  0  0
   -3.0648   -6.1271   16.6844 H   0  0  0  0  0  0  0  0  0  0  0  0
   -3.5580   -5.1328   18.4987 C   0  0  0  0  0  0  0  0  0  0  0  0
   -3.8122   -6.0322   19.0336 H   0  0  0  0  0  0  0  0  0  0  0  0
   -3.6179   -3.8939   19.1387 C   0  0  0  0  0  0  0  0  0  0  0  0
   -3.2551   -2.7648   18.3993 C   0  0  0  0  0  0  0  0  0  0  0  0
   -3.2821   -1.7855   18.8601 H   0  0  0  0  0  0  0  0  0  0  0  0
   -2.8529   -2.8155   17.1442 N   0  0  0  0  0  0  0  0  0  0  0  0
   -0.9357   -3.6970   11.1602 C   0  0  0  0  0  0  0  0  0  0  0  0
   -0.1741   -2.8162   10.8493 O   0  0  0  0  0  0  0  0  0  0  0  0
   -1.4551   -4.5841   10.3180 O   0  0  0  0  0  0  0  0  0  0  0  0
   -1.1166   -4.4343    8.9332 C   0  0  0  0  0  0  0  0  0  0  0  0
   -0.0726   -4.1131    8.8600 H   0  0  0  0  0  0  0  0  0  0  0  0
   -1.7554   -3.6470    8.5180 H   0  0  0  0  0  0  0  0  0  0  0  0
   -1.3441   -5.7613    8.2344 C   0  0  0  0  0  0  0  0  0  0  0  0
   -1.1121   -5.6576    7.1787 H   0  0  0  0  0  0  0  0  0  0  0  0
   -2.3809   -6.0701    8.3392 H   0  0  0  0  0  0  0  0  0  0  0  0
   -0.7069   -6.5307    8.6635 H   0  0  0  0  0  0  0  0  0  0  0  0
   -3.9995   -3.7288   20.4565 N   0  0  0  0  0  0  0  0  0  0  0  0
   -3.8988   -2.8029   20.8511 H   0  0  0  0  0  0  0  0  0  0  0  0
   -4.4493   -4.6908   21.3288 C   0  0  0  0  0  0  0  0  0  0  0  0
   -4.6530   -5.8462   21.0720 O   0  0  0  0  0  0  0  0  0  0  0  0
   -4.6462   -4.1223   22.5266 O   0  0  0  0  0  0  0  0  0  0  0  0
   -5.1189   -4.9935   23.5601 C   0  0  0  0  0  0  0  0  0  0  0  0
   -4.4115   -5.8219   23.6726 H   0  0  0  0  0  0  0  0  0  0  0  0
   -6.0857   -5.4087   23.2552 H   0  0  0  0  0  0  0  0  0  0  0  0
   -5.2388   -4.1893   24.8399 C   0  0  0  0  0  0  0  0  0  0  0  0
   -5.5950   -4.8318   25.6393 H   0  0  0  0  0  0  0  0  0  0  0  0
   -5.9385   -3.3691   24.7042 H   0  0  0  0  0  0  0  0  0  0  0  0
   -4.2714   -3.7798   25.1170 H   0  0  0  0  0  0  0  0  0  0  0  0
   -2.9746   -0.1827   15.3388 C   0  0  0  0  0  0  0  0  0  0  0  0
   -3.8112   -0.2243   16.0409 H   0  0  0  0  0  0  0  0  0  0  0  0
   -2.6535    0.8507   15.2104 H   0  0  0  0  0  0  0  0  0  0  0  0
   -3.3294   -0.8015   14.0615 C   0  0  0  0  0  0  0  0  0  0  0  0
   -4.2759   -1.8361   14.0031 C   0  0  0  0  0  0  0  0  0  0  0  0
   -4.7894   -2.1303   14.9093 H   0  0  0  0  0  0  0  0  0  0  0  0
   -4.5489   -2.4906   12.8249 C   0  0  0  0  0  0  0  0  0  0  0  0
   -5.2663   -3.2968   12.7992 H   0  0  0  0  0  0  0  0  0  0  0  0
   -3.8977   -2.1160   11.6474 C   0  0  0  0  0  0  0  0  0  0  0  0
   -2.9990   -1.0467   11.6768 C   0  0  0  0  0  0  0  0  0  0  0  0
   -2.5168   -0.7509   10.7576 H   0  0  0  0  0  0  0  0  0  0  0  0
   -2.7209   -0.4057   12.8615 C   0  0  0  0  0  0  0  0  0  0  0  0
   -2.0136    0.4101   12.8755 H   0  0  0  0  0  0  0  0  0  0  0  0
   -4.1147   -2.8313   10.3862 C   0  0  0  0  0  0  0  0  0  0  0  0
   -3.6391   -2.5235    9.3173 O   0  0  0  0  0  0  0  0  0  0  0  0
   -4.9005   -3.9210   10.5103 O   0  0  0  0  0  0  0  0  0  0  0  0
   -5.0008   -4.3392    9.6414 H   0  0  0  0  0  0  0  0  0  0  0  0
  1 28  1  0  0  0  0
  1  2  1  0  0  0  0
  1  3  1  0  0  0  0
  3  4  1  0  0  0  0
  3  6  1  0  0  0  0
  5  3  1  0  0  0  0
  7 10  1  0  0  0  0
  7  1  1  0  0  0  0
  8  7  1  0  0  0  0
  9  7  1  0  0  0  0
 11 19  1  0  0  0  0
 11  1  1  0  0  0  0
 12 11  1  0  0  0  0
 13 12  1  0  0  0  0
 14 15  2  0  0  0  0
 14 12  1  0  0  0  0
 15 17  1  0  0  0  0
 16 15  1  0  0  0  0
 17 18  1  0  0  0  0
 17 19  2  0  0  0  0
 20 19  1  1  0  0  0
 20 28  1  0  0  0  0
 20 21  1  0  0  0  0
 21 23  2  0  0  0  0
 22 21  1  0  0  0  0
 23 24  1  0  0  0  0
 23 25  1  0  0  0  0
 25 39  1  0  0  0  0
 26 27  1  0  0  0  0
 26 25  2  0  0  0  0
 28 26  1  0  0  0  0
 29 14  1  0  0  0  0
 30 29  2  0  0  0  0
 31 29  1  0  0  0  0
 32 31  1  0  0  0  0
 33 32  1  0  0  0  0
 34 32  1  0  0  0  0
 35 37  1  0  0  0  0
 35 38  1  0  0  0  0
 35 32  1  0  0  0  0
 36 35  1  0  0  0  0
 39 40  1  0  0  0  0
 39 41  1  0  0  0  0
 41 43  1  0  0  0  0
 42 41  2  0  0  0  0
 43 44  1  0  0  0  0
 44 45  1  0  0  0  0
 44 47  1  0  0  0  0
 46 44  1  0  0  0  0
 47 50  1  0  0  0  0
 47 48  1  0  0  0  0
 49 47  1  0  0  0  0
 51 52  1  0  0  0  0
 51  1  1  0  0  0  0
 53 51  1  0  0  0  0
 54 51  1  0  0  0  0
 55 54  1  0  0  0  0
 55 56  1  0  0  0  0
 57 55  2  0  0  0  0
 58 57  1  0  0  0  0
 59 60  2  0  0  0  0
 59 57  1  0  0  0  0
 60 62  1  0  0  0  0
 61 60  1  0  0  0  0
 62 63  1  0  0  0  0
 62 54  2  0  0  0  0
 64 66  1  0  0  0  0
 64 59  1  0  0  0  0
 65 64  2  0  0  0  0
 67 66  1  0  0  0  0
M  END
$$$$
