CSD_code = QUDVER | q = 0 | S = 0 | Stoichiometry = C20H26BrN3O6Pt | MND = 6
 OpenBabel04212202093D

 57 59  0  0  1  0  0  0  0  0999 V2000
    2.2435    2.6345    0.4896 Pt  0  0  0  0  0  0  0  0  0  0  0  0
    4.3875    3.4725   -0.5703 Br  0  0  0  0  0  0  0  0  0  0  0  0
    1.1513    3.6552   -0.9313 C   0  0  0  0  0  0  0  0  0  0  0  0
    1.5190    4.6776   -1.0300 H   0  0  0  0  0  0  0  0  0  0  0  0
    0.0809    3.6875   -0.7288 H   0  0  0  0  0  0  0  0  0  0  0  0
    1.3185    3.1546   -1.8887 H   0  0  0  0  0  0  0  0  0  0  0  0
    2.0309    4.2801    1.7122 C   0  0  0  0  0  0  0  0  0  0  0  0
    3.0111    4.7532    1.8068 H   0  0  0  0  0  0  0  0  0  0  0  0
    1.6919    3.9369    2.6921 H   0  0  0  0  0  0  0  0  0  0  0  0
    1.3238    5.0246    1.3491 H   0  0  0  0  0  0  0  0  0  0  0  0
    0.4537    1.8295    1.2712 C   0  0  0  0  0  0  0  0  0  0  0  0
   -0.1831    2.6054    1.6920 H   0  0  0  0  0  0  0  0  0  0  0  0
   -0.0459    1.3002    0.4591 H   0  0  0  0  0  0  0  0  0  0  0  0
    0.8684    0.8905    2.3123 C   0  0  0  0  0  0  0  0  0  0  0  0
    1.0665    1.1324    3.4857 O   0  0  0  0  0  0  0  0  0  0  0  0
    1.0506   -0.3769    1.8417 O   0  0  0  0  0  0  0  0  0  0  0  0
    1.2998   -0.9572    2.5763 H   0  0  0  0  0  0  0  0  0  0  0  0
    3.5524    1.4682    1.8499 N   0  0  0  0  0  0  0  0  0  0  0  0
    3.8174    1.7817    3.1002 C   0  0  0  0  0  3  0  0  0  0  0  0
    3.4281    2.7245    3.4581 H   0  0  0  0  0  0  0  0  0  0  0  0
    4.5439    0.9521    3.9597 C   0  0  0  0  0  0  0  0  0  0  0  0
    5.0121   -0.2581    3.4456 C   0  0  0  0  0  0  0  0  0  0  0  0
    5.5643   -0.9362    4.0748 H   0  0  0  0  0  0  0  0  0  0  0  0
    4.7454   -0.5646    2.1273 C   0  0  0  0  0  0  0  0  0  0  0  0
    5.0856   -1.5051    1.7268 H   0  0  0  0  0  0  0  0  0  0  0  0
    4.0101    0.3185    1.3343 C   0  0  0  0  0  0  0  0  0  0  0  0
    3.6687    0.0218   -0.0607 C   0  0  1  0  0  3  0  0  0  0  0  0
    4.3459   -0.9557   -0.7956 C   0  0  0  0  0  0  0  0  0  0  0  0
    5.1864   -1.4766   -0.3681 H   0  0  0  0  0  0  0  0  0  0  0  0
    3.9545   -1.2242   -2.0898 C   0  0  0  0  0  0  0  0  0  0  0  0
    4.4594   -1.9612   -2.6956 H   0  0  0  0  0  0  0  0  0  0  0  0
    2.8751   -0.5237   -2.6251 C   0  0  0  0  0  0  0  0  0  0  0  0
    2.2744    0.4526   -1.8388 C   0  0  0  0  0  0  0  0  0  0  0  0
    1.4438    1.0244   -2.2288 H   0  0  0  0  0  0  0  0  0  0  0  0
    2.6698    0.7287   -0.6099 N   0  0  0  0  0  0  0  0  0  0  0  0
    4.7457    1.3659    5.2603 N   0  0  0  0  0  0  0  0  0  0  0  0
    4.3251    2.2463    5.5277 H   0  0  0  0  0  0  0  0  0  0  0  0
    5.3912    0.6921    6.2690 C   0  0  0  0  0  0  0  0  0  0  0  0
    5.9302   -0.3782    6.1793 O   0  0  0  0  0  0  0  0  0  0  0  0
    5.3314    1.4336    7.3830 O   0  0  0  0  0  0  0  0  0  0  0  0
    5.9673    0.8843    8.5420 C   0  0  0  0  0  0  0  0  0  0  0  0
    6.9623    0.5234    8.2609 H   0  0  0  0  0  0  0  0  0  0  0  0
    5.3787    0.0292    8.8921 H   0  0  0  0  0  0  0  0  0  0  0  0
    6.0450    1.9687    9.5992 C   0  0  0  0  0  0  0  0  0  0  0  0
    6.6321    2.8074    9.2352 H   0  0  0  0  0  0  0  0  0  0  0  0
    6.5124    1.5697   10.4944 H   0  0  0  0  0  0  0  0  0  0  0  0
    5.0478    2.3226    9.8457 H   0  0  0  0  0  0  0  0  0  0  0  0
    2.4235   -0.8186   -4.0117 C   0  0  0  0  0  0  0  0  0  0  0  0
    2.9423   -1.6490   -4.7146 O   0  0  0  0  0  0  0  0  0  0  0  0
    1.3790   -0.0687   -4.3660 O   0  0  0  0  0  0  0  0  0  0  0  0
    0.8805   -0.2366   -5.6957 C   0  0  0  0  0  0  0  0  0  0  0  0
   -0.1573    0.1002   -5.6508 H   0  0  0  0  0  0  0  0  0  0  0  0
    0.9191   -1.2996   -5.9565 H   0  0  0  0  0  0  0  0  0  0  0  0
    1.6845    0.5837   -6.6936 C   0  0  0  0  0  0  0  0  0  0  0  0
    1.6908    1.6311   -6.4014 H   0  0  0  0  0  0  0  0  0  0  0  0
    1.2402    0.4919   -7.6801 H   0  0  0  0  0  0  0  0  0  0  0  0
    2.7091    0.2221   -6.7338 H   0  0  0  0  0  0  0  0  0  0  0  0
  1 11  1  0  0  0  0
  1  7  1  0  0  0  0
  1 18  1  0  0  0  0
  2  1  1  0  0  0  0
  3  5  1  0  0  0  0
  3  1  1  0  0  0  0
  4  3  1  0  0  0  0
  6  3  1  0  0  0  0
  7  8  1  0  0  0  0
  7  9  1  0  0  0  0
 10  7  1  0  0  0  0
 11 12  1  0  0  0  0
 11 14  1  0  0  0  0
 13 11  1  0  0  0  0
 14 15  2  0  0  0  0
 16 14  1  0  0  0  0
 16 17  1  0  0  0  0
 18 19  1  0  0  0  0
 19 20  1  0  0  0  0
 19 21  1  0  0  0  0
 21 36  1  0  0  0  0
 22 21  2  0  0  0  0
 22 23  1  0  0  0  0
 24 22  1  0  0  0  0
 25 24  1  0  0  0  0
 26 18  1  0  0  0  0
 26 24  2  0  0  0  0
 27 28  1  1  0  0  0
 27 26  1  0  0  0  0
 28 29  1  0  0  0  0
 30 28  2  0  0  0  0
 31 30  1  0  0  0  0
 32 30  1  0  0  0  0
 32 33  2  0  0  0  0
 33 35  1  0  0  0  0
 34 33  1  0  0  0  0
 35 27  1  0  0  0  0
 35  1  1  0  0  0  0
 36 37  1  0  0  0  0
 36 38  1  0  0  0  0
 38 40  1  0  0  0  0
 39 38  2  0  0  0  0
 40 41  1  0  0  0  0
 41 43  1  0  0  0  0
 41 44  1  0  0  0  0
 42 41  1  0  0  0  0
 44 47  1  0  0  0  0
 44 46  1  0  0  0  0
 45 44  1  0  0  0  0
 48 32  1  0  0  0  0
 49 48  2  0  0  0  0
 50 48  1  0  0  0  0
 51 52  1  0  0  0  0
 51 50  1  0  0  0  0
 53 51  1  0  0  0  0
 54 55  1  0  0  0  0
 54 51  1  0  0  0  0
 56 54  1  0  0  0  0
 57 54  1  0  0  0  0
M  END
$$$$
