CSD_code = QUGHUV | q = 0 | S = 0 | Stoichiometry = C27H16BrN6O3Re | MND = 6
 OpenBabel04212202093D

 54 59  0  0  1  0  0  0  0  0999 V2000
    1.2007    6.8997    2.3927 Re  0  0  0  0  0  0  0  0  0  0  0  0
    1.1377    8.9371    3.9447 Br  0  0  0  0  0  0  0  0  0  0  0  0
    1.0646    4.4601    0.5068 O   0  0  0  0  0  1  0  0  0  0  0  0
    2.5898    5.4762    4.7681 O   0  0  0  0  0  1  0  0  0  0  0  0
    3.9719    7.8131    1.3721 O   0  0  0  0  0  1  0  0  0  0  0  0
   -0.9198    6.7227    3.0765 N   0  0  0  0  0  0  0  0  0  0  0  0
   -3.2329    7.4920    4.3289 N   0  0  0  0  0  0  0  0  0  0  0  0
    0.0698    8.0800    0.9903 N   0  0  0  0  0  0  0  0  0  0  0  0
   -2.5494   10.4821    2.5613 N   0  0  0  0  0  0  0  0  0  0  0  0
   -3.0382    4.1819    5.5232 N   0  0  0  0  0  0  0  0  0  0  0  0
   -0.3254    5.0913    6.0236 N   0  0  0  0  0  0  0  0  0  0  0  0
   -1.6549    7.7417    2.5879 C   0  0  1  0  0  3  0  0  0  0  0  0
   -2.7365    8.2321    3.3475 C   0  0  0  0  0  0  0  0  0  0  0  0
   -2.6413    6.3606    4.6606 C   0  0  0  0  0  0  0  0  0  0  0  0
   -1.3796    6.0377    4.1171 C   0  0  0  0  0  0  0  0  0  0  0  0
   -1.2219    8.2784    1.3030 C   0  0  2  0  0  3  0  0  0  0  0  0
   -2.1094    8.8828    0.4118 C   0  0  0  0  0  0  0  0  0  0  0  0
   -1.6287    9.3839   -0.7791 C   0  0  0  0  0  0  0  0  0  0  0  0
   -0.2724    9.2565   -1.0551 C   0  0  0  0  0  0  0  0  0  0  0  0
    0.5281    8.5808   -0.1568 C   0  0  0  0  0  0  0  0  0  0  0  0
   -3.2827    9.5874    3.2189 C   0  0  0  0  0  0  0  0  0  0  0  0
   -4.4863    9.9180    3.8422 C   0  0  0  0  0  0  0  0  0  0  0  0
   -4.9239   11.2291    3.7755 C   0  0  0  0  0  0  0  0  0  0  0  0
   -4.1499   12.1609    3.1017 C   0  0  0  0  0  0  0  0  0  0  0  0
   -2.9689   11.7282    2.5117 C   0  0  0  0  0  0  0  0  0  0  0  0
   -3.2906    5.4838    5.6353 C   0  0  0  0  0  0  0  0  0  0  0  0
   -4.1276    6.0096    6.6177 C   0  0  0  0  0  0  0  0  0  0  0  0
   -4.6977    5.1385    7.5287 C   0  0  0  0  0  0  0  0  0  0  0  0
   -4.4206    3.7841    7.4232 C   0  0  0  0  0  0  0  0  0  0  0  0
   -3.5877    3.3620    6.3957 C   0  0  0  0  0  0  0  0  0  0  0  0
   -0.5667    4.9704    4.7226 C   0  0  0  0  0  0  0  0  0  0  0  0
   -0.1037    3.8998    3.9587 C   0  0  0  0  0  0  0  0  0  0  0  0
    0.6511    2.9266    4.5904 C   0  0  0  0  0  0  0  0  0  0  0  0
    0.9255    3.0643    5.9412 C   0  0  0  0  0  0  0  0  0  0  0  0
    0.4084    4.1661    6.6082 C   0  0  0  0  0  0  0  0  0  0  0  0
    1.1138    5.3652    1.2142 C   0  0  0  0  0  2  0  0  0  0  0  0
    2.0599    5.9361    3.8635 C   0  0  0  0  0  2  0  0  0  0  0  0
    2.9601    7.4248    1.7434 C   0  0  0  0  0  2  0  0  0  0  0  0
   -3.1575    8.9377    0.6553 H   0  0  0  0  0  0  0  0  0  0  0  0
   -2.2932    9.8626   -1.4816 H   0  0  0  0  0  0  0  0  0  0  0  0
    0.1536    9.6539   -1.9619 H   0  0  0  0  0  0  0  0  0  0  0  0
    1.5797    8.4264   -0.3618 H   0  0  0  0  0  0  0  0  0  0  0  0
   -5.0439    9.1546    4.3600 H   0  0  0  0  0  0  0  0  0  0  0  0
   -5.8521   11.5206    4.2455 H   0  0  0  0  0  0  0  0  0  0  0  0
   -4.4507   13.1945    3.0344 H   0  0  0  0  0  0  0  0  0  0  0  0
   -2.3250   12.4111    1.9735 H   0  0  0  0  0  0  0  0  0  0  0  0
   -4.2978    7.0732    6.6584 H   0  0  0  0  0  0  0  0  0  0  0  0
   -5.3447    5.5086    8.3108 H   0  0  0  0  0  0  0  0  0  0  0  0
   -4.8410    3.0721    8.1160 H   0  0  0  0  0  0  0  0  0  0  0  0
   -3.3497    2.3150    6.2598 H   0  0  0  0  0  0  0  0  0  0  0  0
   -0.3546    3.8233    2.9122 H   0  0  0  0  0  0  0  0  0  0  0  0
    1.0231    2.0796    4.0333 H   0  0  0  0  0  0  0  0  0  0  0  0
    1.5233    2.3365    6.4666 H   0  0  0  0  0  0  0  0  0  0  0  0
    0.5902    4.3215    7.6634 H   0  0  0  0  0  0  0  0  0  0  0  0
  1  6  1  0  0  0  0
  1 37  1  0  0  0  0
  1  2  1  0  0  0  0
  3 36  1  0  0  0  0
  5 38  1  0  0  0  0
  6 15  1  0  0  0  0
  7 14  1  0  0  0  0
  8 16  1  0  0  0  0
  8  1  1  0  0  0  0
  9 21  1  0  0  0  0
 10 26  2  0  0  0  0
 10 30  1  0  0  0  0
 11 35  1  0  0  0  0
 12  6  1  0  0  0  0
 12 13  1  1  0  0  0
 13  7  2  0  0  0  0
 14 26  1  0  0  0  0
 15 14  2  0  0  0  0
 15 31  1  0  0  0  0
 16 17  1  6  0  0  0
 16 12  1  0  0  0  0
 17 39  1  0  0  0  0
 18 17  2  0  0  0  0
 19 18  1  0  0  0  0
 19 20  2  0  0  0  0
 20  8  1  0  0  0  0
 21 13  1  0  0  0  0
 21 22  2  0  0  0  0
 22 43  1  0  0  0  0
 23 22  1  0  0  0  0
 23 44  1  0  0  0  0
 24 23  2  0  0  0  0
 25  9  2  0  0  0  0
 25 24  1  0  0  0  0
 26 27  1  0  0  0  0
 27 47  1  0  0  0  0
 27 28  2  0  0  0  0
 28 48  1  0  0  0  0
 29 28  1  0  0  0  0
 29 49  1  0  0  0  0
 30 29  2  0  0  0  0
 31 11  2  0  0  0  0
 32 33  2  0  0  0  0
 32 31  1  0  0  0  0
 33 34  1  0  0  0  0
 34 53  1  0  0  0  0
 34 35  2  0  0  0  0
 35 54  1  0  0  0  0
 36  1  1  0  0  0  0
 37  4  1  0  0  0  0
 38  1  1  0  0  0  0
 40 18  1  0  0  0  0
 41 19  1  0  0  0  0
 42 20  1  0  0  0  0
 45 24  1  0  0  0  0
 46 25  1  0  0  0  0
 50 30  1  0  0  0  0
 51 32  1  0  0  0  0
 52 33  1  0  0  0  0
M  END
$$$$
