CSD_code = QUGHOP | q = 0 | S = 0 | Stoichiometry = C27H16ClN6O3Re | MND = 6
 OpenBabel04212202093D

 54 59  0  0  1  0  0  0  0  0999 V2000
    1.2292    7.2841    2.3077 Re  0  0  0  0  0  0  0  0  0  0  0  0
    0.8921    9.1654    3.6957 Cl  0  0  0  0  0  0  0  0  0  0  0  0
    1.3474    4.8419    0.4162 O   0  0  0  0  0  1  0  0  0  0  0  0
    2.5728    5.9876    4.7750 O   0  0  0  0  0  1  0  0  0  0  0  0
    3.9558    8.4284    1.4244 O   0  0  0  0  0  1  0  0  0  0  0  0
   -0.8922    7.0000    2.9533 N   0  0  0  0  0  0  0  0  0  0  0  0
   -3.1694    7.7701    4.2659 N   0  0  0  0  0  0  0  0  0  0  0  0
    0.0817    8.4028    0.8847 N   0  0  0  0  0  0  0  0  0  0  0  0
   -0.3331    5.2754    5.8777 N   0  0  0  0  0  0  0  0  0  0  0  0
   -2.5370   10.7836    2.4967 N   0  0  0  0  0  0  0  0  0  0  0  0
   -3.0299    4.4265    5.3500 N   0  0  0  0  0  0  0  0  0  0  0  0
   -1.6158    8.0439    2.5066 C   0  0  1  0  0  3  0  0  0  0  0  0
   -2.6812    8.5287    3.2934 C   0  0  0  0  0  0  0  0  0  0  0  0
   -1.3389    6.2994    3.9875 C   0  0  0  0  0  0  0  0  0  0  0  0
   -2.5880    6.6244    4.5609 C   0  0  0  0  0  0  0  0  0  0  0  0
   -1.2033    8.5960    1.2196 C   0  0  2  0  0  3  0  0  0  0  0  0
   -2.1078    9.2032    0.3474 C   0  0  0  0  0  0  0  0  0  0  0  0
   -1.6486    9.7110   -0.8497 C   0  0  0  0  0  0  0  0  0  0  0  0
   -0.2981    9.5836   -1.1516 C   0  0  0  0  0  0  0  0  0  0  0  0
    0.5187    8.9050   -0.2691 C   0  0  0  0  0  0  0  0  0  0  0  0
   -3.2208    9.8902    3.2071 C   0  0  0  0  0  0  0  0  0  0  0  0
   -4.3726   10.2280    3.9202 C   0  0  0  0  0  0  0  0  0  0  0  0
   -4.8074   11.5408    3.8898 C   0  0  0  0  0  0  0  0  0  0  0  0
   -4.0832   12.4705    3.1593 C   0  0  0  0  0  0  0  0  0  0  0  0
   -2.9542   12.0317    2.4796 C   0  0  0  0  0  0  0  0  0  0  0  0
   -0.5206    5.2216    4.5627 C   0  0  0  0  0  0  0  0  0  0  0  0
    0.0104    4.2123    3.7608 C   0  0  0  0  0  0  0  0  0  0  0  0
    0.7818    3.2350    4.3657 C   0  0  0  0  0  0  0  0  0  0  0  0
    1.0003    3.3050    5.7316 C   0  0  0  0  0  0  0  0  0  0  0  0
    0.4132    4.3456    6.4381 C   0  0  0  0  0  0  0  0  0  0  0  0
   -3.2376    5.7300    5.5201 C   0  0  0  0  0  0  0  0  0  0  0  0
   -4.0338    6.2406    6.5436 C   0  0  0  0  0  0  0  0  0  0  0  0
   -4.6100    5.3515    7.4332 C   0  0  0  0  0  0  0  0  0  0  0  0
   -4.3784    3.9947    7.2673 C   0  0  0  0  0  0  0  0  0  0  0  0
   -3.5836    3.5896    6.2034 C   0  0  0  0  0  0  0  0  0  0  0  0
    1.3144    5.7468    1.1287 C   0  0  0  0  0  2  0  0  0  0  0  0
    2.0750    6.4008    3.8317 C   0  0  0  0  0  2  0  0  0  0  0  0
    2.9666    7.9475    1.7427 C   0  0  0  0  0  2  0  0  0  0  0  0
   -3.1518    9.2557    0.6086 H   0  0  0  0  0  0  0  0  0  0  0  0
   -2.3261   10.1939   -1.5372 H   0  0  0  0  0  0  0  0  0  0  0  0
    0.1106    9.9846   -2.0651 H   0  0  0  0  0  0  0  0  0  0  0  0
    1.5659    8.7480   -0.4935 H   0  0  0  0  0  0  0  0  0  0  0  0
   -4.8935    9.4666    4.4772 H   0  0  0  0  0  0  0  0  0  0  0  0
   -5.6952   11.8359    4.4303 H   0  0  0  0  0  0  0  0  0  0  0  0
   -4.3834   13.5056    3.1161 H   0  0  0  0  0  0  0  0  0  0  0  0
   -2.3510   12.7118    1.8931 H   0  0  0  0  0  0  0  0  0  0  0  0
   -0.2001    4.1852    2.7034 H   0  0  0  0  0  0  0  0  0  0  0  0
    1.2083    2.4367    3.7767 H   0  0  0  0  0  0  0  0  0  0  0  0
    1.6072    2.5718    6.2390 H   0  0  0  0  0  0  0  0  0  0  0  0
    0.5463    4.4439    7.5074 H   0  0  0  0  0  0  0  0  0  0  0  0
   -4.1700    7.3063    6.6314 H   0  0  0  0  0  0  0  0  0  0  0  0
   -5.2269    5.7094    8.2449 H   0  0  0  0  0  0  0  0  0  0  0  0
   -4.8055    3.2685    7.9410 H   0  0  0  0  0  0  0  0  0  0  0  0
   -3.3824    2.5420    6.0201 H   0  0  0  0  0  0  0  0  0  0  0  0
  1  6  1  0  0  0  0
  1  2  1  0  0  0  0
  1 37  1  0  0  0  0
  3 36  1  0  0  0  0
  5 38  1  0  0  0  0
  6 14  1  0  0  0  0
  7 15  1  0  0  0  0
  8 16  1  0  0  0  0
  8  1  1  0  0  0  0
  9 30  1  0  0  0  0
 10 21  1  0  0  0  0
 11 31  2  0  0  0  0
 11 35  1  0  0  0  0
 12  6  1  0  0  0  0
 12 13  1  1  0  0  0
 13  7  2  0  0  0  0
 14 15  2  0  0  0  0
 14 26  1  0  0  0  0
 15 31  1  0  0  0  0
 16 17  1  6  0  0  0
 16 12  1  0  0  0  0
 17 39  1  0  0  0  0
 18 17  2  0  0  0  0
 19 18  1  0  0  0  0
 19 20  2  0  0  0  0
 20  8  1  0  0  0  0
 21 13  1  0  0  0  0
 21 22  2  0  0  0  0
 22 43  1  0  0  0  0
 23 22  1  0  0  0  0
 23 44  1  0  0  0  0
 24 23  2  0  0  0  0
 25 10  2  0  0  0  0
 25 24  1  0  0  0  0
 26  9  2  0  0  0  0
 27 28  2  0  0  0  0
 27 26  1  0  0  0  0
 28 29  1  0  0  0  0
 29 49  1  0  0  0  0
 29 30  2  0  0  0  0
 30 50  1  0  0  0  0
 31 32  1  0  0  0  0
 32 51  1  0  0  0  0
 32 33  2  0  0  0  0
 33 52  1  0  0  0  0
 34 33  1  0  0  0  0
 34 53  1  0  0  0  0
 35 34  2  0  0  0  0
 36  1  1  0  0  0  0
 37  4  1  0  0  0  0
 38  1  1  0  0  0  0
 40 18  1  0  0  0  0
 41 19  1  0  0  0  0
 42 20  1  0  0  0  0
 45 24  1  0  0  0  0
 46 25  1  0  0  0  0
 47 27  1  0  0  0  0
 48 28  1  0  0  0  0
 54 35  1  0  0  0  0
M  END
$$$$
