CSD_code = QUGMOW | q = 0 | S = 0 | Stoichiometry = C30H32ClNOP2Ru | MND = 6
 OpenBabel04212202093D

 68 73  0  0  0  0  0  0  0  0999 V2000
    6.1834   12.2153   15.6963 Ru  0  0  0  0  0  0  0  0  0  0  0  0
    5.5737   14.5074   15.3746 Cl  0  0  0  0  0  0  0  0  0  0  0  0
    7.4440   12.4719   13.8297 P   0  0  0  0  0  4  0  0  0  0  0  0
    4.4819   12.1620   17.1926 P   0  0  0  0  0  4  0  0  0  0  0  0
    4.5646   11.7439   14.2164 N   0  0  0  0  0  4  0  0  0  0  0  0
    8.3293   12.9504   17.6396 O   0  0  0  0  0  1  0  0  0  0  0  0
    7.5030   12.6556   16.8929 C   0  0  0  0  0  2  0  0  0  0  0  0
    6.2543   12.1972   12.4308 C   0  0  0  0  0  0  0  0  0  0  0  0
    6.4714   12.8575   11.5870 H   0  0  0  0  0  0  0  0  0  0  0  0
    6.3739   11.1638   12.0907 H   0  0  0  0  0  0  0  0  0  0  0  0
    4.8460   12.4622   12.9582 C   0  0  0  0  0  0  0  0  0  0  0  0
    4.7578   13.5333   13.1697 H   0  0  0  0  0  0  0  0  0  0  0  0
    4.0952   12.1880   12.1989 H   0  0  0  0  0  0  0  0  0  0  0  0
    3.2758   12.2320   14.7437 C   0  0  0  0  0  0  0  0  0  0  0  0
    2.4597   11.9314   14.0661 H   0  0  0  0  0  0  0  0  0  0  0  0
    3.3283   13.3261   14.7670 H   0  0  0  0  0  0  0  0  0  0  0  0
    2.9974   11.7417   16.1630 C   0  0  0  0  0  0  0  0  0  0  0  0
    2.8650   10.6560   16.2014 H   0  0  0  0  0  0  0  0  0  0  0  0
    2.0891   12.2065   16.5553 H   0  0  0  0  0  0  0  0  0  0  0  0
    4.4544   10.3097   13.9317 C   0  0  0  0  0  0  0  0  0  0  0  0
    5.3995    9.9294   13.5485 H   0  0  0  0  0  0  0  0  0  0  0  0
    3.6614   10.1225   13.1943 H   0  0  0  0  0  0  0  0  0  0  0  0
    4.2326    9.7606   14.8446 H   0  0  0  0  0  0  0  0  0  0  0  0
    8.1880   14.1041   13.5322 C   0  0  0  0  0  0  0  0  0  0  0  0
    7.6052   15.1196   12.7864 C   0  0  0  0  0  0  0  0  0  0  0  0
    6.6576   14.9664   12.2903 H   0  0  0  0  0  0  0  0  0  0  0  0
    8.2280   16.3525   12.6997 C   0  0  0  0  0  0  0  0  0  0  0  0
    7.7702   17.1427   12.1219 H   0  0  0  0  0  0  0  0  0  0  0  0
    9.4224   16.5815   13.3606 C   0  0  0  0  0  0  0  0  0  0  0  0
    9.8995   17.5484   13.2936 H   0  0  0  0  0  0  0  0  0  0  0  0
    9.9970   15.5764   14.1230 C   0  0  0  0  0  0  0  0  0  0  0  0
   10.9200   15.7583   14.6542 H   0  0  0  0  0  0  0  0  0  0  0  0
    9.3799   14.3446   14.2131 C   0  0  0  0  0  0  0  0  0  0  0  0
    9.8061   13.5545   14.8214 H   0  0  0  0  0  0  0  0  0  0  0  0
    8.8389   11.4133   13.3300 C   0  0  0  0  0  0  0  0  0  0  0  0
    9.4488   11.5784   12.0903 C   0  0  0  0  0  0  0  0  0  0  0  0
    9.0949   12.3475   11.4165 H   0  0  0  0  0  0  0  0  0  0  0  0
   10.5093   10.7681   11.7319 C   0  0  0  0  0  0  0  0  0  0  0  0
   10.9830   10.8941   10.7690 H   0  0  0  0  0  0  0  0  0  0  0  0
   10.9695    9.7977   12.6093 C   0  0  0  0  0  0  0  0  0  0  0  0
   11.8009    9.1688   12.3261 H   0  0  0  0  0  0  0  0  0  0  0  0
   10.3699    9.6380   13.8474 C   0  0  0  0  0  0  0  0  0  0  0  0
   10.7344    8.8860   14.5318 H   0  0  0  0  0  0  0  0  0  0  0  0
    9.3045   10.4446   14.2088 C   0  0  0  0  0  0  0  0  0  0  0  0
    8.8163   10.3409   15.1707 H   0  0  0  0  0  0  0  0  0  0  0  0
    4.3208   10.9914   18.5772 C   0  0  0  0  0  0  0  0  0  0  0  0
    5.3699   10.1255   18.8554 C   0  0  0  0  0  0  0  0  0  0  0  0
    6.2535   10.1651   18.2291 H   0  0  0  0  0  0  0  0  0  0  0  0
    5.2719    9.2385   19.9136 C   0  0  0  0  0  0  0  0  0  0  0  0
    6.0889    8.5668   20.1326 H   0  0  0  0  0  0  0  0  0  0  0  0
    4.1275    9.2157   20.6931 C   0  0  0  0  0  0  0  0  0  0  0  0
    4.0503    8.5246   21.5198 H   0  0  0  0  0  0  0  0  0  0  0  0
    3.0805   10.0831   20.4200 C   0  0  0  0  0  0  0  0  0  0  0  0
    2.1914   10.0669   21.0338 H   0  0  0  0  0  0  0  0  0  0  0  0
    3.1756   10.9733   19.3672 C   0  0  0  0  0  0  0  0  0  0  0  0
    2.3689   11.6637   19.1590 H   0  0  0  0  0  0  0  0  0  0  0  0
    4.0563   13.7034   18.0597 C   0  0  0  0  0  0  0  0  0  0  0  0
    3.0530   14.5869   17.6865 C   0  0  0  0  0  0  0  0  0  0  0  0
    2.4196   14.3790   16.8359 H   0  0  0  0  0  0  0  0  0  0  0  0
    2.8740   15.7625   18.3949 C   0  0  0  0  0  0  0  0  0  0  0  0
    2.0942   16.4501   18.0998 H   0  0  0  0  0  0  0  0  0  0  0  0
    3.6955   16.0665   19.4664 C   0  0  0  0  0  0  0  0  0  0  0  0
    3.5535   16.9889   20.0104 H   0  0  0  0  0  0  0  0  0  0  0  0
    4.7110   15.1958   19.8303 C   0  0  0  0  0  0  0  0  0  0  0  0
    5.3646   15.4389   20.6554 H   0  0  0  0  0  0  0  0  0  0  0  0
    4.8934   14.0217   19.1274 C   0  0  0  0  0  0  0  0  0  0  0  0
    5.6951   13.3386   19.3865 H   0  0  0  0  0  0  0  0  0  0  0  0
    6.4819   10.7205   15.8304 H   0  0  0  0  0  0  0  0  0  0  0  0
  1 68  1  0  0  0  0
  1  7  1  0  0  0  0
  1  4  1  0  0  0  0
  2  1  1  0  0  0  0
  3  1  1  0  0  0  0
  4 57  1  0  0  0  0
  4 46  1  0  0  0  0
  5 14  1  0  0  0  0
  5  1  1  0  0  0  0
  7  6  1  0  0  0  0
  8 11  1  0  0  0  0
  8  3  1  0  0  0  0
  9  8  1  0  0  0  0
 10  8  1  0  0  0  0
 11 12  1  0  0  0  0
 11  5  1  0  0  0  0
 13 11  1  0  0  0  0
 14 16  1  0  0  0  0
 14 17  1  0  0  0  0
 15 14  1  0  0  0  0
 17 18  1  0  0  0  0
 17 19  1  0  0  0  0
 17  4  1  0  0  0  0
 20  5  1  0  0  0  0
 20 23  1  0  0  0  0
 21 20  1  0  0  0  0
 22 20  1  0  0  0  0
 24  3  1  0  0  0  0
 24 33  1  0  0  0  0
 25 24  2  0  0  0  0
 26 25  1  0  0  0  0
 27 25  1  0  0  0  0
 27 29  2  0  0  0  0
 28 27  1  0  0  0  0
 29 31  1  0  0  0  0
 30 29  1  0  0  0  0
 31 33  2  0  0  0  0
 31 32  1  0  0  0  0
 33 34  1  0  0  0  0
 35  3  1  0  0  0  0
 35 44  1  0  0  0  0
 36 35  2  0  0  0  0
 37 36  1  0  0  0  0
 38 36  1  0  0  0  0
 38 40  2  0  0  0  0
 39 38  1  0  0  0  0
 40 42  1  0  0  0  0
 41 40  1  0  0  0  0
 42 44  2  0  0  0  0
 42 43  1  0  0  0  0
 44 45  1  0  0  0  0
 46 47  2  0  0  0  0
 46 55  1  0  0  0  0
 47 49  1  0  0  0  0
 48 47  1  0  0  0  0
 49 50  1  0  0  0  0
 49 51  2  0  0  0  0
 51 52  1  0  0  0  0
 53 51  1  0  0  0  0
 53 54  1  0  0  0  0
 55 53  2  0  0  0  0
 56 55  1  0  0  0  0
 57 66  1  0  0  0  0
 58 57  2  0  0  0  0
 58 60  1  0  0  0  0
 59 58  1  0  0  0  0
 60 62  2  0  0  0  0
 61 60  1  0  0  0  0
 62 64  1  0  0  0  0
 62 63  1  0  0  0  0
 64 65  1  0  0  0  0
 66 67  1  0  0  0  0
 66 64  2  0  0  0  0
M  END
$$$$
