CSD_code = QUGNAJ | q = 0 | S = 0 | Stoichiometry = C21H30ClN2OPRu | MND = 6
 OpenBabel04212202093D

 57 60  0  0  1  0  0  0  0  0999 V2000
   23.0229    9.1783    4.7921 Ru  0  0  0  0  0  0  0  0  0  0  0  0
   22.1379    8.4536    6.7380 P   0  0  0  0  0  4  0  0  0  0  0  0
   20.9183    8.7222    3.7136 Cl  0  0  0  0  0  0  0  0  0  0  0  0
   21.9807   10.9387    5.2999 N   0  0  1  0  0  4  0  0  0  0  0  0
   23.6620   10.4129    3.0423 N   0  0  0  0  0  4  0  0  0  0  0  0
   24.2711    6.5841    3.9896 O   0  0  0  0  0  1  0  0  0  0  0  0
   23.8169    7.6036    4.2949 C   0  0  0  0  0  2  0  0  0  0  0  0
   21.0629    9.8804    7.2590 C   0  0  0  0  0  0  0  0  0  0  0  0
   20.0908    9.7236    6.7758 H   0  0  0  0  0  0  0  0  0  0  0  0
   20.9085    9.9263    8.3384 H   0  0  0  0  0  0  0  0  0  0  0  0
   21.7150   11.1513    6.7175 C   0  0  0  0  0  0  0  0  0  0  0  0
   21.0607   12.0255    6.8746 H   0  0  0  0  0  0  0  0  0  0  0  0
   22.6707   11.3284    7.2265 H   0  0  0  0  0  0  0  0  0  0  0  0
   22.5766   12.0500    4.5786 C   0  0  0  0  0  0  0  0  0  0  0  0
   23.5311   12.3093    5.0509 H   0  0  0  0  0  0  0  0  0  0  0  0
   21.9313   12.9446    4.5913 H   0  0  0  0  0  0  0  0  0  0  0  0
   22.7810   11.5926    3.1314 C   0  0  0  0  0  0  0  0  0  0  0  0
   21.8009   11.3143    2.7258 H   0  0  0  0  0  0  0  0  0  0  0  0
   23.1792   12.4274    2.5370 H   0  0  0  0  0  0  0  0  0  0  0  0
   25.0655   10.8704    3.0785 C   0  0  0  0  0  0  0  0  0  0  0  0
   25.2195   11.3841    4.0296 H   0  0  0  0  0  0  0  0  0  0  0  0
   25.2342   11.5962    2.2699 H   0  0  0  0  0  0  0  0  0  0  0  0
   26.0942    9.7529    2.9808 C   0  0  0  0  0  0  0  0  0  0  0  0
   25.8669    8.9832    3.7177 H   0  0  0  0  0  0  0  0  0  0  0  0
   27.0789   10.1598    3.1981 H   0  0  0  0  0  0  0  0  0  0  0  0
   26.1231    9.3072    1.9906 H   0  0  0  0  0  0  0  0  0  0  0  0
   23.3814    9.6647    1.7983 C   0  0  0  0  0  0  0  0  0  0  0  0
   22.3312    9.3600    1.8309 H   0  0  0  0  0  0  0  0  0  0  0  0
   23.9855    8.7542    1.8171 H   0  0  0  0  0  0  0  0  0  0  0  0
   23.6319   10.4116    0.4881 C   0  0  0  0  0  0  0  0  0  0  0  0
   23.0548   11.3316    0.4305 H   0  0  0  0  0  0  0  0  0  0  0  0
   23.3191    9.7712   -0.3329 H   0  0  0  0  0  0  0  0  0  0  0  0
   24.6838   10.6459    0.3437 H   0  0  0  0  0  0  0  0  0  0  0  0
   21.0166    7.0310    6.9311 C   0  0  0  0  0  0  0  0  0  0  0  0
   20.9362    6.0921    5.9114 C   0  0  0  0  0  0  0  0  0  0  0  0
   21.5208    6.2379    5.0126 H   0  0  0  0  0  0  0  0  0  0  0  0
   20.1049    4.9938    6.0451 C   0  0  0  0  0  0  0  0  0  0  0  0
   20.0381    4.2683    5.2478 H   0  0  0  0  0  0  0  0  0  0  0  0
   19.3587    4.8286    7.1994 C   0  0  0  0  0  0  0  0  0  0  0  0
   18.7069    3.9733    7.3039 H   0  0  0  0  0  0  0  0  0  0  0  0
   19.4484    5.7567    8.2257 C   0  0  0  0  0  0  0  0  0  0  0  0
   18.8705    5.6211    9.1288 H   0  0  0  0  0  0  0  0  0  0  0  0
   20.2775    6.8545    8.0971 C   0  0  0  0  0  0  0  0  0  0  0  0
   20.3597    7.5731    8.9013 H   0  0  0  0  0  0  0  0  0  0  0  0
   23.2486    8.1342    8.1460 C   0  0  0  0  0  0  0  0  0  0  0  0
   24.0559    7.0093    7.9874 C   0  0  0  0  0  0  0  0  0  0  0  0
   23.9680    6.4363    7.0716 H   0  0  0  0  0  0  0  0  0  0  0  0
   24.9552    6.6485    8.9701 C   0  0  0  0  0  0  0  0  0  0  0  0
   25.5761    5.7741    8.8425 H   0  0  0  0  0  0  0  0  0  0  0  0
   25.0640    7.4160   10.1203 C   0  0  0  0  0  0  0  0  0  0  0  0
   25.7666    7.1382   10.8922 H   0  0  0  0  0  0  0  0  0  0  0  0
   24.2791    8.5449   10.2741 C   0  0  0  0  0  0  0  0  0  0  0  0
   24.3718    9.1496   11.1651 H   0  0  0  0  0  0  0  0  0  0  0  0
   23.3736    8.9082    9.2905 C   0  0  0  0  0  0  0  0  0  0  0  0
   22.7774    9.7993    9.4262 H   0  0  0  0  0  0  0  0  0  0  0  0
   24.2594    9.6529    5.5620 H   0  0  0  0  0  0  0  0  0  0  0  0
   21.0799   10.7162    4.8470 H   0  0  0  0  0  0  0  0  0  0  0  0
  1  4  1  0  0  0  0
  1 56  1  0  0  0  0
  1  2  1  0  0  0  0
  2 34  1  0  0  0  0
  2  8  1  0  0  0  0
  2 45  1  0  0  0  0
  3  1  1  0  0  0  0
  4 57  1  6  0  0  0
  4 11  1  0  0  0  0
  5 20  1  0  0  0  0
  5 17  1  0  0  0  0
  5  1  1  0  0  0  0
  6  7  1  0  0  0  0
  7  1  1  0  0  0  0
  8 10  1  0  0  0  0
  9  8  1  0  0  0  0
 11 12  1  0  0  0  0
 11 13  1  0  0  0  0
 11  8  1  0  0  0  0
 14 16  1  0  0  0  0
 14 15  1  0  0  0  0
 14  4  1  0  0  0  0
 17 14  1  0  0  0  0
 18 17  1  0  0  0  0
 19 17  1  0  0  0  0
 20 21  1  0  0  0  0
 22 20  1  0  0  0  0
 23 20  1  0  0  0  0
 23 25  1  0  0  0  0
 23 24  1  0  0  0  0
 26 23  1  0  0  0  0
 27 29  1  0  0  0  0
 27 28  1  0  0  0  0
 27  5  1  0  0  0  0
 30 27  1  0  0  0  0
 31 30  1  0  0  0  0
 32 30  1  0  0  0  0
 33 30  1  0  0  0  0
 34 43  1  0  0  0  0
 35 37  1  0  0  0  0
 35 34  2  0  0  0  0
 36 35  1  0  0  0  0
 37 39  2  0  0  0  0
 38 37  1  0  0  0  0
 39 40  1  0  0  0  0
 39 41  1  0  0  0  0
 41 42  1  0  0  0  0
 43 41  2  0  0  0  0
 43 44  1  0  0  0  0
 45 54  1  0  0  0  0
 46 45  2  0  0  0  0
 46 48  1  0  0  0  0
 47 46  1  0  0  0  0
 48 50  2  0  0  0  0
 49 48  1  0  0  0  0
 50 52  1  0  0  0  0
 50 51  1  0  0  0  0
 52 53  1  0  0  0  0
 54 55  1  0  0  0  0
 54 52  2  0  0  0  0
M  END
$$$$
