CSD_code = QUGPOY | q = 0 | S = 0 | Stoichiometry = C19H20ClN4O2ReS | MND = 5
 OpenBabel04212202093D

 48 51  0  0  1  0  0  0  0  0999 V2000
    4.2124    2.6321   12.2036 Re  0  0  0  0  0  0  0  0  0  0  0  0
    4.1750    1.2251   10.4699 Cl  0  0  0  0  0  0  0  0  0  0  0  0
    3.7647    4.1211   11.6067 O   0  0  0  0  0  1  0  0  0  0  0  0
    6.5426    2.7744   12.0163 S   0  0  0  0  0  0  0  0  0  0  0  0
    7.0926    3.7206   13.3986 C   0  0  2  0  0  3  0  0  0  0  0  0
    6.3508    4.2249   14.3487 N   0  0  0  0  0  0  0  0  0  0  0  0
    5.1214    3.9361   14.7356 C   0  0  0  0  0  0  0  0  0  0  0  0
    4.3884    2.9441   14.2268 N   0  0  0  0  0  0  0  0  0  0  0  0
    3.4525    2.3626   14.9939 N   0  0  0  0  0  0  0  0  0  0  0  0
    2.8001    1.4492   14.3309 C   0  0  0  0  0  0  0  0  0  0  0  0
    3.1026    1.2283   13.0861 O   0  0  0  0  0  0  0  0  0  0  0  0
    8.4018    3.9808   13.4449 N   0  0  0  0  0  0  0  0  0  0  0  0
    9.3255    3.5307   12.4269 C   0  0  0  0  0  0  0  0  0  0  0  0
    9.0108    2.5478   12.0689 H   0  0  0  0  0  0  0  0  0  0  0  0
   10.3098    3.4337   12.8903 H   0  0  0  0  0  0  0  0  0  0  0  0
    9.3883    4.5052   11.2538 C   0  0  0  0  0  0  0  0  0  0  0  0
   10.1051    4.1504   10.5194 H   0  0  0  0  0  0  0  0  0  0  0  0
    9.6919    5.4935   11.5906 H   0  0  0  0  0  0  0  0  0  0  0  0
    8.4140    4.5813   10.7805 H   0  0  0  0  0  0  0  0  0  0  0  0
    8.9389    4.7661   14.5398 C   0  0  0  0  0  0  0  0  0  0  0  0
    8.1823    5.4956   14.8336 H   0  0  0  0  0  0  0  0  0  0  0  0
    9.8231    5.2924   14.1757 H   0  0  0  0  0  0  0  0  0  0  0  0
    9.3012    3.8842   15.7316 C   0  0  0  0  0  0  0  0  0  0  0  0
    9.6990    4.4937   16.5382 H   0  0  0  0  0  0  0  0  0  0  0  0
   10.0499    3.1466   15.4526 H   0  0  0  0  0  0  0  0  0  0  0  0
    8.4179    3.3616   16.0884 H   0  0  0  0  0  0  0  0  0  0  0  0
    4.6088    4.7380   15.8563 C   0  0  0  0  0  0  0  0  0  0  0  0
    3.2458    5.0024   15.9755 C   0  0  0  0  0  0  0  0  0  0  0  0
    2.5571    4.6196   15.2385 H   0  0  0  0  0  0  0  0  0  0  0  0
    2.7796    5.7753   17.0218 C   0  0  0  0  0  0  0  0  0  0  0  0
    1.7229    5.9804   17.1058 H   0  0  0  0  0  0  0  0  0  0  0  0
    3.6623    6.2896   17.9578 C   0  0  0  0  0  0  0  0  0  0  0  0
    3.2934    6.8896   18.7763 H   0  0  0  0  0  0  0  0  0  0  0  0
    5.0199    6.0379   17.8384 C   0  0  0  0  0  0  0  0  0  0  0  0
    5.7100    6.4408   18.5650 H   0  0  0  0  0  0  0  0  0  0  0  0
    5.4938    5.2707   16.7921 C   0  0  0  0  0  0  0  0  0  0  0  0
    6.5471    5.0624   16.6941 H   0  0  0  0  0  0  0  0  0  0  0  0
    1.7586    0.6626   14.9887 C   0  0  0  0  0  0  0  0  0  0  0  0
    1.0824   -0.3226   14.2723 C   0  0  0  0  0  0  0  0  0  0  0  0
    1.3408   -0.4916   13.2377 H   0  0  0  0  0  0  0  0  0  0  0  0
    0.0947   -1.0662   14.8894 C   0  0  0  0  0  0  0  0  0  0  0  0
   -0.4298   -1.8296   14.3342 H   0  0  0  0  0  0  0  0  0  0  0  0
   -0.2233   -0.8315   16.2175 C   0  0  0  0  0  0  0  0  0  0  0  0
   -0.9959   -1.4139   16.6977 H   0  0  0  0  0  0  0  0  0  0  0  0
    0.4476    0.1505   16.9318 C   0  0  0  0  0  0  0  0  0  0  0  0
    0.1949    0.3311   17.9662 H   0  0  0  0  0  0  0  0  0  0  0  0
    1.4362    0.8990   16.3242 C   0  0  0  0  0  0  0  0  0  0  0  0
    1.9698    1.6680   16.8605 H   0  0  0  0  0  0  0  0  0  0  0  0
  1 11  1  0  0  0  0
  1  8  1  0  0  0  0
  2  1  1  0  0  0  0
  3  1  1  0  0  0  0
  4  1  1  0  0  0  0
  4  5  1  0  0  0  0
  5 12  1  6  0  0  0
  5  6  1  0  0  0  0
  6  7  2  0  0  0  0
  7 27  1  0  0  0  0
  8  7  1  0  0  0  0
  8  9  1  0  0  0  0
 10 38  1  0  0  0  0
 10  9  2  0  0  0  0
 11 10  1  0  0  0  0
 12 20  1  0  0  0  0
 13 15  1  0  0  0  0
 13 12  1  0  0  0  0
 14 13  1  0  0  0  0
 16 18  1  0  0  0  0
 16 13  1  0  0  0  0
 17 16  1  0  0  0  0
 19 16  1  0  0  0  0
 20 21  1  0  0  0  0
 20 23  1  0  0  0  0
 22 20  1  0  0  0  0
 23 26  1  0  0  0  0
 23 24  1  0  0  0  0
 25 23  1  0  0  0  0
 27 28  2  0  0  0  0
 27 36  1  0  0  0  0
 28 30  1  0  0  0  0
 29 28  1  0  0  0  0
 30 31  1  0  0  0  0
 30 32  2  0  0  0  0
 32 33  1  0  0  0  0
 34 32  1  0  0  0  0
 34 35  1  0  0  0  0
 36 34  2  0  0  0  0
 37 36  1  0  0  0  0
 38 47  1  0  0  0  0
 39 41  1  0  0  0  0
 39 38  2  0  0  0  0
 40 39  1  0  0  0  0
 41 43  2  0  0  0  0
 42 41  1  0  0  0  0
 43 44  1  0  0  0  0
 43 45  1  0  0  0  0
 45 46  1  0  0  0  0
 47 48  1  0  0  0  0
 47 45  2  0  0  0  0
M  END
$$$$
