CSD_code = QUGPUE | q = 0 | S = 0 | Stoichiometry = C19H20ClN4O2STc | MND = 5
 OpenBabel04212202093D

 48 51  0  0  1  0  0  0  0  0999 V2000
    0.5373    5.7647    2.3289 Tc  0  0  0  0  0  0  0  0  0  0  0  0
   -0.0023    4.8406    3.5646 O   0  0  0  0  0  1  0  0  0  0  0  0
   -0.4345    7.7869    2.4706 Cl  0  0  0  0  0  0  0  0  0  0  0  0
   -1.0438    5.2765    0.6562 S   0  0  0  0  0  0  0  0  0  0  0  0
   -0.7594    3.5550    0.4195 C   0  0  0  0  0  0  0  0  0  0  0  0
    0.4138    2.9776    0.3538 N   0  0  0  0  0  0  0  0  0  0  0  0
    1.6165    3.4623    0.6048 C   0  0  1  0  0  3  0  0  0  0  0  0
    1.8711    4.5874    1.2604 N   0  0  0  0  0  0  0  0  0  0  0  0
    3.1502    4.9958    1.3292 N   0  0  0  0  0  0  0  0  0  0  0  0
    3.2512    6.1722    1.8661 C   0  0  0  0  0  0  0  0  0  0  0  0
    2.1714    6.8056    2.2237 O   0  0  0  0  0  0  0  0  0  0  0  0
    2.7129    2.5988    0.1204 C   0  0  0  0  0  0  0  0  0  0  0  0
    3.8581    2.3688    0.8776 C   0  0  0  0  0  0  0  0  0  0  0  0
    3.9659    2.8331    1.8446 H   0  0  0  0  0  0  0  0  0  0  0  0
    4.8468    1.5303    0.3966 C   0  0  0  0  0  0  0  0  0  0  0  0
    5.7307    1.3518    0.9907 H   0  0  0  0  0  0  0  0  0  0  0  0
    4.7075    0.9193   -0.8387 C   0  0  0  0  0  0  0  0  0  0  0  0
    5.4860    0.2710   -1.2127 H   0  0  0  0  0  0  0  0  0  0  0  0
    3.5643    1.1368   -1.5910 C   0  0  0  0  0  0  0  0  0  0  0  0
    3.4497    0.6582   -2.5523 H   0  0  0  0  0  0  0  0  0  0  0  0
    2.5680    1.9652   -1.1119 C   0  0  0  0  0  0  0  0  0  0  0  0
    1.6740    2.1416   -1.6897 H   0  0  0  0  0  0  0  0  0  0  0  0
   -1.8311    2.7904    0.2218 N   0  0  0  0  0  0  0  0  0  0  0  0
   -3.1813    3.3104    0.2990 C   0  0  0  0  0  0  0  0  0  0  0  0
   -3.8277    2.6426   -0.2736 H   0  0  0  0  0  0  0  0  0  0  0  0
   -3.2124    4.3004   -0.1586 H   0  0  0  0  0  0  0  0  0  0  0  0
   -3.6570    3.3938    1.7477 C   0  0  0  0  0  0  0  0  0  0  0  0
   -4.6646    3.7969    1.7820 H   0  0  0  0  0  0  0  0  0  0  0  0
   -3.0022    4.0456    2.3215 H   0  0  0  0  0  0  0  0  0  0  0  0
   -3.6569    2.4097    2.2101 H   0  0  0  0  0  0  0  0  0  0  0  0
   -1.6806    1.3624    0.0097 C   0  0  0  0  0  0  0  0  0  0  0  0
   -2.5070    0.8565    0.5131 H   0  0  0  0  0  0  0  0  0  0  0  0
   -0.7387    1.0479    0.4594 H   0  0  0  0  0  0  0  0  0  0  0  0
   -1.6786    1.0241   -1.4780 C   0  0  0  0  0  0  0  0  0  0  0  0
   -1.5709   -0.0482   -1.6128 H   0  0  0  0  0  0  0  0  0  0  0  0
   -0.8474    1.5228   -1.9675 H   0  0  0  0  0  0  0  0  0  0  0  0
   -2.6032    1.3435   -1.9529 H   0  0  0  0  0  0  0  0  0  0  0  0
    4.5602    6.8043    2.0221 C   0  0  0  0  0  0  0  0  0  0  0  0
    5.7122    6.1640    1.5670 C   0  0  0  0  0  0  0  0  0  0  0  0
    5.6202    5.1986    1.0944 H   0  0  0  0  0  0  0  0  0  0  0  0
    6.9410    6.7743    1.7228 C   0  0  0  0  0  0  0  0  0  0  0  0
    7.8351    6.2815    1.3701 H   0  0  0  0  0  0  0  0  0  0  0  0
    7.0310    8.0188    2.3293 C   0  0  0  0  0  0  0  0  0  0  0  0
    7.9947    8.4918    2.4480 H   0  0  0  0  0  0  0  0  0  0  0  0
    5.8872    8.6565    2.7820 C   0  0  0  0  0  0  0  0  0  0  0  0
    5.9583    9.6253    3.2537 H   0  0  0  0  0  0  0  0  0  0  0  0
    4.6527    8.0542    2.6306 C   0  0  0  0  0  0  0  0  0  0  0  0
    3.7518    8.5377    2.9778 H   0  0  0  0  0  0  0  0  0  0  0  0
  1  3  1  0  0  0  0
  1  2  1  0  0  0  0
  4  1  1  0  0  0  0
  5  4  1  0  0  0  0
  6  5  2  0  0  0  0
  6  7  1  0  0  0  0
  7 12  1  1  0  0  0
  7  8  1  0  0  0  0
  8  9  1  0  0  0  0
  8  1  1  0  0  0  0
  9 10  2  0  0  0  0
 10 38  1  0  0  0  0
 10 11  1  0  0  0  0
 11  1  1  0  0  0  0
 12 13  1  0  0  0  0
 13 14  1  0  0  0  0
 15 13  2  0  0  0  0
 15 16  1  0  0  0  0
 17 15  1  0  0  0  0
 18 17  1  0  0  0  0
 19 21  1  0  0  0  0
 19 17  2  0  0  0  0
 20 19  1  0  0  0  0
 21 12  2  0  0  0  0
 22 21  1  0  0  0  0
 23 24  1  0  0  0  0
 23  5  1  0  0  0  0
 24 27  1  0  0  0  0
 25 24  1  0  0  0  0
 26 24  1  0  0  0  0
 27 28  1  0  0  0  0
 27 30  1  0  0  0  0
 27 29  1  0  0  0  0
 31 23  1  0  0  0  0
 31 33  1  0  0  0  0
 31 32  1  0  0  0  0
 34 31  1  0  0  0  0
 35 34  1  0  0  0  0
 36 34  1  0  0  0  0
 37 34  1  0  0  0  0
 38 47  1  0  0  0  0
 39 41  1  0  0  0  0
 39 38  2  0  0  0  0
 40 39  1  0  0  0  0
 41 43  2  0  0  0  0
 42 41  1  0  0  0  0
 43 44  1  0  0  0  0
 43 45  1  0  0  0  0
 45 46  1  0  0  0  0
 47 45  2  0  0  0  0
 47 48  1  0  0  0  0
M  END
$$$$
