CSD_code = QUGQUF | q = 1 | S = 0 | Stoichiometry = C8H16ClN4NiO2S2(1+) | MND = 6
 OpenBabel04212202093D

 34 35  0  0  1  0  0  0  0  0999 V2000
    5.6920   16.5598    3.6451 H   0  0  0  0  0  0  0  0  0  0  0  0
    4.4700   16.2306    2.7717 H   0  0  0  0  0  0  0  0  0  0  0  0
    1.8768   16.4954    7.9593 H   0  0  0  0  0  0  0  0  0  0  0  0
    3.2501   17.1535    8.2023 H   0  0  0  0  0  0  0  0  0  0  0  0
    3.7428   16.1819    5.6341 Ni  0  0  2  0  0  0  0  0  0  0  0  0
    4.2690   18.1370    5.7185 Cl  0  0  0  0  0  0  0  0  0  0  0  0
    6.5859   13.3209    7.2993 S   0  0  0  0  0  0  0  0  0  0  0  0
   -0.0517   15.2654    3.7047 S   0  0  0  0  0  0  0  0  0  0  0  0
    4.9678   15.9313    3.5384 O   0  0  0  0  0  0  0  0  0  0  0  0
    2.8237   16.3494    7.8805 O   0  0  0  0  0  0  0  0  0  0  0  0
    2.1741   14.0797    4.9543 C   0  0  0  0  0  0  0  0  0  0  0  0
    2.0202   16.4311    4.7362 N   0  0  0  0  0  0  0  0  0  0  0  0
    5.3520   15.4750    6.5171 N   0  0  1  0  0  0  0  0  0  0  0  0
    4.1909   13.5575    6.0359 N   0  0  0  0  0  0  0  0  0  0  0  0
    4.1047   12.5465    6.0158 H   0  0  0  0  0  0  0  0  0  0  0  0
    3.2837   14.3919    5.5291 N   0  0  0  0  0  0  0  0  0  0  0  0
    6.5072   16.0185    7.1894 C   0  0  0  0  0  0  0  0  0  0  0  0
    6.1742   16.4668    8.1324 H   0  0  0  0  0  0  0  0  0  0  0  0
    6.9460   16.8122    6.5810 H   0  0  0  0  0  0  0  0  0  0  0  0
    1.4764   15.2791    4.5163 C   0  0  0  0  0  0  0  0  0  0  0  0
    1.6555   12.7002    4.7410 C   0  0  0  0  0  0  0  0  0  0  0  0
    2.3256   12.1377    4.0897 H   0  0  0  0  0  0  0  0  0  0  0  0
    0.6729   12.7309    4.2791 H   0  0  0  0  0  0  0  0  0  0  0  0
    1.5776   12.1688    5.6899 H   0  0  0  0  0  0  0  0  0  0  0  0
    1.2467   17.5652    4.3016 C   0  0  0  0  0  0  0  0  0  0  0  0
    0.9471   18.1370    5.1872 H   0  0  0  0  0  0  0  0  0  0  0  0
    1.8810   18.2214    3.6991 H   0  0  0  0  0  0  0  0  0  0  0  0
    5.2783   14.1908    6.5608 C   0  0  2  0  0  3  0  0  0  0  0  0
    0.0209   17.0815    3.5053 C   0  0  0  0  0  0  0  0  0  0  0  0
    0.1056   17.2887    2.4395 H   0  0  0  0  0  0  0  0  0  0  0  0
   -0.9115   17.5010    3.8755 H   0  0  0  0  0  0  0  0  0  0  0  0
    7.5182   14.8883    7.4415 C   0  0  0  0  0  0  0  0  0  0  0  0
    7.9631   14.9389    8.4317 H   0  0  0  0  0  0  0  0  0  0  0  0
    8.3085   14.8620    6.6919 H   0  0  0  0  0  0  0  0  0  0  0  0
  2  9  1  0  0  0  0
  5  6  1  6  0  0  0
  5 13  1  0  0  0  0
  7 32  1  0  0  0  0
  8 20  1  0  0  0  0
  9  1  1  0  0  0  0
 10  3  1  0  0  0  0
 10  4  1  0  0  0  0
 11 16  1  0  0  0  0
 12  5  1  0  0  0  0
 13 28  1  0  0  0  0
 13 17  1  1  0  0  0
 14 28  1  0  0  0  0
 15 14  1  0  0  0  0
 16  5  1  0  0  0  0
 16 14  1  0  0  0  0
 17 32  1  0  0  0  0
 17 18  1  0  0  0  0
 19 17  1  0  0  0  0
 20 12  1  0  0  0  0
 20 11  2  0  0  0  0
 21 11  1  0  0  0  0
 21 24  1  0  0  0  0
 22 21  1  0  0  0  0
 23 21  1  0  0  0  0
 25 12  1  0  0  0  0
 25 26  1  0  0  0  0
 27 25  1  0  0  0  0
 28  7  1  1  0  0  0
 29  8  1  0  0  0  0
 29 31  1  0  0  0  0
 29 25  1  0  0  0  0
 30 29  1  0  0  0  0
 32 33  1  0  0  0  0
 34 32  1  0  0  0  0
M  END
$$$$
