CSD_code = QUGQUE | q = 0 | S = 0 | Stoichiometry = C28H28Cl2P2Pt | MND = 4
 OpenBabel04212202093D

 61 65  0  0  1  0  0  0  0  0999 V2000
    5.5890   15.8225    2.4327 Pt  0  0  0  0  0  0  0  0  0  0  0  0
    7.3999   16.7097    1.4094 P   0  0  0  0  0  4  0  0  0  0  0  0
    6.6765   13.8415    2.3628 P   0  0  0  0  0  4  0  0  0  0  0  0
    4.6435   17.9108    2.5268 Cl  0  0  0  0  0  0  0  0  0  0  0  0
    3.7760   14.7807    3.3754 Cl  0  0  0  0  0  0  0  0  0  0  0  0
    9.9107   15.7542    0.5361 C   0  0  0  0  0  0  0  0  0  0  0  0
   10.2357   16.7828    0.6826 H   0  0  0  0  0  0  0  0  0  0  0  0
    9.6038   15.6346   -0.5014 H   0  0  0  0  0  0  0  0  0  0  0  0
   10.7618   15.1031    0.7243 H   0  0  0  0  0  0  0  0  0  0  0  0
    8.7577   15.4253    1.4781 C   0  0  2  0  0  0  0  0  0  0  0  0
    9.1214   15.4263    2.5156 H   0  0  0  0  0  0  0  0  0  0  0  0
    8.1273   14.0526    1.2014 C   0  0  1  0  0  0  0  0  0  0  0  0
    7.7017   14.0734    0.1878 H   0  0  0  0  0  0  0  0  0  0  0  0
    9.1264   12.9058    1.3097 C   0  0  0  0  0  0  0  0  0  0  0  0
    8.6118   11.9488    1.2430 H   0  0  0  0  0  0  0  0  0  0  0  0
    9.6545   12.9469    2.2606 H   0  0  0  0  0  0  0  0  0  0  0  0
    9.8564   12.9514    0.5043 H   0  0  0  0  0  0  0  0  0  0  0  0
    8.1411   18.2782    1.9109 C   0  0  0  0  0  0  0  0  0  0  0  0
    9.2048   18.3601    2.8048 C   0  0  0  0  0  0  0  0  0  0  0  0
    9.6802   17.4628    3.1751 H   0  0  0  0  0  0  0  0  0  0  0  0
    9.6552   19.5978    3.2280 C   0  0  0  0  0  0  0  0  0  0  0  0
   10.4855   19.6588    3.9165 H   0  0  0  0  0  0  0  0  0  0  0  0
    9.0379   20.7549    2.7821 C   0  0  0  0  0  0  0  0  0  0  0  0
    9.3899   21.7179    3.1209 H   0  0  0  0  0  0  0  0  0  0  0  0
    7.9593   20.6758    1.9151 C   0  0  0  0  0  0  0  0  0  0  0  0
    7.4644   21.5761    1.5832 H   0  0  0  0  0  0  0  0  0  0  0  0
    7.5070   19.4441    1.4830 C   0  0  0  0  0  0  0  0  0  0  0  0
    6.6505   19.3700    0.8281 H   0  0  0  0  0  0  0  0  0  0  0  0
    7.0669   16.8850   -0.3649 C   0  0  0  0  0  0  0  0  0  0  0  0
    5.9731   16.1870   -0.8704 C   0  0  0  0  0  0  0  0  0  0  0  0
    5.3491   15.6134   -0.1852 H   0  0  0  0  0  0  0  0  0  0  0  0
    5.6676   16.2514   -2.2172 C   0  0  0  0  0  0  0  0  0  0  0  0
    4.8150   15.7136   -2.6040 H   0  0  0  0  0  0  0  0  0  0  0  0
    6.4504   17.0185   -3.0653 C   0  0  0  0  0  0  0  0  0  0  0  0
    6.2104   17.0760   -4.1165 H   0  0  0  0  0  0  0  0  0  0  0  0
    7.5327   17.7252   -2.5646 C   0  0  0  0  0  0  0  0  0  0  0  0
    8.1336   18.3320   -3.2259 H   0  0  0  0  0  0  0  0  0  0  0  0
    7.8444   17.6622   -1.2184 C   0  0  0  0  0  0  0  0  0  0  0  0
    8.6793   18.2257   -0.8264 H   0  0  0  0  0  0  0  0  0  0  0  0
    7.4605   13.5226    3.9672 C   0  0  0  0  0  0  0  0  0  0  0  0
    7.5720   14.6032    4.8384 C   0  0  0  0  0  0  0  0  0  0  0  0
    7.1507   15.5646    4.5452 H   0  0  0  0  0  0  0  0  0  0  0  0
    8.1794   14.4451    6.0703 C   0  0  0  0  0  0  0  0  0  0  0  0
    8.2585   15.2843    6.7451 H   0  0  0  0  0  0  0  0  0  0  0  0
    8.6736   13.2045    6.4406 C   0  0  0  0  0  0  0  0  0  0  0  0
    9.1429   13.0764    7.4047 H   0  0  0  0  0  0  0  0  0  0  0  0
    8.5535   12.1229    5.5821 C   0  0  0  0  0  0  0  0  0  0  0  0
    8.9288   11.1543    5.8785 H   0  0  0  0  0  0  0  0  0  0  0  0
    7.9492   12.2761    4.3473 C   0  0  0  0  0  0  0  0  0  0  0  0
    7.8424   11.4286    3.6850 H   0  0  0  0  0  0  0  0  0  0  0  0
    5.8685   12.2900    1.9147 C   0  0  0  0  0  0  0  0  0  0  0  0
    5.0992   11.6703    2.8988 C   0  0  0  0  0  0  0  0  0  0  0  0
    5.0648   12.0985    3.8905 H   0  0  0  0  0  0  0  0  0  0  0  0
    4.3726   10.5352    2.5957 C   0  0  0  0  0  0  0  0  0  0  0  0
    3.7766   10.0592    3.3597 H   0  0  0  0  0  0  0  0  0  0  0  0
    4.3995   10.0157    1.3109 C   0  0  0  0  0  0  0  0  0  0  0  0
    3.8306    9.1289    1.0742 H   0  0  0  0  0  0  0  0  0  0  0  0
    5.1428   10.6432    0.3245 C   0  0  0  0  0  0  0  0  0  0  0  0
    5.1500   10.2479   -0.6809 H   0  0  0  0  0  0  0  0  0  0  0  0
    5.8684   11.7839    0.6182 C   0  0  0  0  0  0  0  0  0  0  0  0
    6.4280   12.2781   -0.1633 H   0  0  0  0  0  0  0  0  0  0  0  0
  1  4  1  0  0  0  0
  1  5  1  0  0  0  0
  2 10  1  0  0  0  0
  2 18  1  0  0  0  0
  2  1  1  0  0  0  0
  3  1  1  0  0  0  0
  3 40  1  0  0  0  0
  6  7  1  0  0  0  0
  6  9  1  0  0  0  0
  6 10  1  0  0  0  0
  8  6  1  0  0  0  0
 10 11  1  1  0  0  0
 12 13  1  6  0  0  0
 12 14  1  0  0  0  0
 12 10  1  0  0  0  0
 12  3  1  0  0  0  0
 14 16  1  0  0  0  0
 15 14  1  0  0  0  0
 17 14  1  0  0  0  0
 18 19  1  0  0  0  0
 19 20  1  0  0  0  0
 19 21  2  0  0  0  0
 21 22  1  0  0  0  0
 23 24  1  0  0  0  0
 23 21  1  0  0  0  0
 25 23  2  0  0  0  0
 26 25  1  0  0  0  0
 27 18  2  0  0  0  0
 27 25  1  0  0  0  0
 28 27  1  0  0  0  0
 29  2  1  0  0  0  0
 30 29  1  0  0  0  0
 30 31  1  0  0  0  0
 32 30  2  0  0  0  0
 33 32  1  0  0  0  0
 34 36  2  0  0  0  0
 34 32  1  0  0  0  0
 35 34  1  0  0  0  0
 36 38  1  0  0  0  0
 37 36  1  0  0  0  0
 38 39  1  0  0  0  0
 38 29  2  0  0  0  0
 40 49  2  0  0  0  0
 40 41  1  0  0  0  0
 41 43  2  0  0  0  0
 42 41  1  0  0  0  0
 43 45  1  0  0  0  0
 43 44  1  0  0  0  0
 45 46  1  0  0  0  0
 47 48  1  0  0  0  0
 47 45  2  0  0  0  0
 49 47  1  0  0  0  0
 50 49  1  0  0  0  0
 51  3  1  0  0  0  0
 51 52  1  0  0  0  0
 52 53  1  0  0  0  0
 54 52  2  0  0  0  0
 54 55  1  0  0  0  0
 56 54  1  0  0  0  0
 57 56  1  0  0  0  0
 58 60  1  0  0  0  0
 58 56  2  0  0  0  0
 59 58  1  0  0  0  0
 60 51  2  0  0  0  0
 61 60  1  0  0  0  0
M  END
$$$$
