CSD_code = QUGREQ | q = 0 | S = 0 | Stoichiometry = C16H24Cl2N8S4Zn | MND = 4
 OpenBabel04212202093D

 55 58  0  0  1  0  0  0  0  0999 V2000
    5.2737    6.2266    4.7025 Zn  0  0  0  0  0  0  0  0  0  0  0  0
    6.3788    8.1091    4.2544 Cl  0  0  0  0  0  0  0  0  0  0  0  0
    4.5222    5.9655    9.2472 S   0  0  0  0  0  0  0  0  0  0  0  0
    1.6559    7.0540    1.9529 S   0  0  0  0  0  0  0  0  0  0  0  0
    6.1243    4.1870    4.4508 Cl  0  0  0  0  0  0  0  0  0  0  0  0
    5.8583    2.4012   11.1081 S   0  0  0  0  0  0  0  0  0  0  0  0
    1.6793   10.7893   -0.0380 S   0  0  0  0  0  0  0  0  0  0  0  0
    4.7279    6.3575    6.6742 N   0  0  0  0  0  0  0  0  0  0  0  0
    5.6597    3.4975    8.4905 N   0  0  0  0  0  0  0  0  0  0  0  0
    3.8303    8.4141    2.6233 N   0  0  0  0  0  0  0  0  0  0  0  0
    4.7467    8.5387    3.0932 H   0  0  0  0  0  0  0  0  0  0  0  0
    5.4348    4.2714    7.4182 N   0  0  0  0  0  0  0  0  0  0  0  0
    5.7054    3.9943    6.4562 H   0  0  0  0  0  0  0  0  0  0  0  0
    3.5447    6.3233    3.6016 N   0  0  0  0  0  0  0  0  0  0  0  0
    3.3107    9.3181    1.7794 N   0  0  0  0  0  0  0  0  0  0  0  0
    4.9375    5.4937    7.6131 C   0  0  2  0  0  3  0  0  0  0  0  0
    6.6017    1.6896    7.0841 C   0  0  0  0  0  0  0  0  0  0  0  0
    5.7388    1.5462    6.4342 H   0  0  0  0  0  0  0  0  0  0  0  0
    7.0578    0.7290    7.2978 H   0  0  0  0  0  0  0  0  0  0  0  0
    7.3090    2.3212    6.5475 H   0  0  0  0  0  0  0  0  0  0  0  0
    6.1837    2.3375    8.3648 C   0  0  0  0  0  0  0  0  0  0  0  0
    3.2651   11.2804    0.5740 C   0  0  0  0  0  0  0  0  0  0  0  0
    3.1617    7.2765    2.8171 C   0  0  1  0  0  3  0  0  0  0  0  0
    3.9412   10.3963    1.5035 C   0  0  0  0  0  0  0  0  0  0  0  0
    4.2273    7.6722    8.6620 C   0  0  0  0  0  0  0  0  0  0  0  0
    3.3320    8.0616    9.1385 H   0  0  0  0  0  0  0  0  0  0  0  0
    5.0867    8.2737    8.9570 H   0  0  0  0  0  0  0  0  0  0  0  0
    6.3765    1.6181    9.6088 C   0  0  0  0  0  0  0  0  0  0  0  0
    4.0897    7.5717    7.1404 C   0  0  0  0  0  0  0  0  0  0  0  0
    3.0341    7.5374    6.8444 H   0  0  0  0  0  0  0  0  0  0  0  0
    4.5524    8.4281    6.6461 H   0  0  0  0  0  0  0  0  0  0  0  0
    7.0036   -0.0525   11.0144 C   0  0  0  0  0  0  0  0  0  0  0  0
    8.0605   -0.2602   11.2089 H   0  0  0  0  0  0  0  0  0  0  0  0
    6.4699   -1.0074   11.0435 H   0  0  0  0  0  0  0  0  0  0  0  0
    6.8962    0.4708    9.6932 N   0  0  0  0  0  0  0  0  0  0  0  0
    3.7371   12.3792    0.1699 N   0  0  0  0  0  0  0  0  0  0  0  0
    2.9146   13.0938   -0.7489 C   0  0  0  0  0  0  0  0  0  0  0  0
    3.4903   13.2470   -1.6670 H   0  0  0  0  0  0  0  0  0  0  0  0
    2.7093   14.0800   -0.3208 H   0  0  0  0  0  0  0  0  0  0  0  0
    5.2771   10.7999    2.0397 C   0  0  0  0  0  0  0  0  0  0  0  0
    5.2433   10.8794    3.1257 H   0  0  0  0  0  0  0  0  0  0  0  0
    5.5636   11.7551    1.6133 H   0  0  0  0  0  0  0  0  0  0  0  0
    6.0280   10.0497    1.7941 H   0  0  0  0  0  0  0  0  0  0  0  0
    1.3520    5.5193    2.8982 C   0  0  0  0  0  0  0  0  0  0  0  0
    0.5776    5.7332    3.6345 H   0  0  0  0  0  0  0  0  0  0  0  0
    0.9985    4.7500    2.2172 H   0  0  0  0  0  0  0  0  0  0  0  0
    2.6890    5.1552    3.5525 C   0  0  0  0  0  0  0  0  0  0  0  0
    2.5419    4.7800    4.5676 H   0  0  0  0  0  0  0  0  0  0  0  0
    3.2059    4.3762    2.9805 H   0  0  0  0  0  0  0  0  0  0  0  0
    1.6025   12.3224   -1.0336 C   0  0  0  0  0  0  0  0  0  0  0  0
    1.5063   12.0424   -2.0807 H   0  0  0  0  0  0  0  0  0  0  0  0
    0.7196   12.8812   -0.7294 H   0  0  0  0  0  0  0  0  0  0  0  0
    6.4290    0.9421   12.0529 C   0  0  0  0  0  0  0  0  0  0  0  0
    7.1795    1.2730   12.7683 H   0  0  0  0  0  0  0  0  0  0  0  0
    5.5767    0.5319   12.5915 H   0  0  0  0  0  0  0  0  0  0  0  0
  1  8  1  0  0  0  0
  2  1  1  0  0  0  0
  4 23  1  0  0  0  0
  4 44  1  0  0  0  0
  5  1  1  0  0  0  0
  6 53  1  0  0  0  0
  7 22  1  0  0  0  0
  8 29  1  0  0  0  0
  8 16  1  0  0  0  0
 10 11  1  0  0  0  0
 12  9  1  0  0  0  0
 13 12  1  0  0  0  0
 14  1  1  0  0  0  0
 15 10  1  0  0  0  0
 16 12  1  6  0  0  0
 16  3  1  0  0  0  0
 17 19  1  0  0  0  0
 17 21  1  0  0  0  0
 18 17  1  0  0  0  0
 20 17  1  0  0  0  0
 21  9  2  0  0  0  0
 21 28  1  0  0  0  0
 22 24  1  0  0  0  0
 23 10  1  1  0  0  0
 23 14  1  0  0  0  0
 24 15  2  0  0  0  0
 24 40  1  0  0  0  0
 25 27  1  0  0  0  0
 25 26  1  0  0  0  0
 25  3  1  0  0  0  0
 28 35  2  0  0  0  0
 28  6  1  0  0  0  0
 29 25  1  0  0  0  0
 30 29  1  0  0  0  0
 31 29  1  0  0  0  0
 32 34  1  0  0  0  0
 32 33  1  0  0  0  0
 32 53  1  0  0  0  0
 35 32  1  0  0  0  0
 36 22  2  0  0  0  0
 37 39  1  0  0  0  0
 37 36  1  0  0  0  0
 38 37  1  0  0  0  0
 40 41  1  0  0  0  0
 42 40  1  0  0  0  0
 43 40  1  0  0  0  0
 44 47  1  0  0  0  0
 44 45  1  0  0  0  0
 46 44  1  0  0  0  0
 47 14  1  0  0  0  0
 47 48  1  0  0  0  0
 49 47  1  0  0  0  0
 50 37  1  0  0  0  0
 50 52  1  0  0  0  0
 50  7  1  0  0  0  0
 51 50  1  0  0  0  0
 53 55  1  0  0  0  0
 53 54  1  0  0  0  0
M  END
$$$$
