CSD_code = QUHPOA | q = 1 | S = 0 | Stoichiometry = C33H32AuClNP2(1+) | MND = 2
 OpenBabel04212202093D

 70 74  0  0  0  0  0  0  0  0999 V2000
  -10.9923   -3.7104    8.4118 Au  0  0  0  0  0  0  0  0  0  0  0  0
  -12.9143   -4.8197    8.8845 Cl  0  0  0  0  0  0  0  0  0  0  0  0
  -10.0544   -2.3924   11.0817 P   0  0  0  0  0  4  0  0  0  0  0  0
   -9.1539   -2.4343    8.3537 P   0  0  0  0  0  4  0  0  0  0  0  0
   -9.1876   -1.6130    9.8806 N   0  0  0  0  0  0  0  0  0  0  0  0
   -7.5339   -3.2347    8.2976 C   0  0  0  0  0  0  0  0  0  0  0  0
   -7.4894   -4.4437    7.6077 C   0  0  0  0  0  0  0  0  0  0  0  0
   -8.3978   -4.8275    7.1593 H   0  0  0  0  0  0  0  0  0  0  0  0
   -6.2982   -5.1380    7.5058 C   0  0  0  0  0  0  0  0  0  0  0  0
   -6.2635   -6.0731    6.9687 H   0  0  0  0  0  0  0  0  0  0  0  0
   -5.1527   -4.6313    8.0992 C   0  0  0  0  0  0  0  0  0  0  0  0
   -4.2223   -5.1722    8.0223 H   0  0  0  0  0  0  0  0  0  0  0  0
   -5.1958   -3.4306    8.7924 C   0  0  0  0  0  0  0  0  0  0  0  0
   -4.3007   -3.0403    9.2530 H   0  0  0  0  0  0  0  0  0  0  0  0
   -6.3821   -2.7274    8.8951 C   0  0  0  0  0  0  0  0  0  0  0  0
   -6.4128   -1.7954    9.4433 H   0  0  0  0  0  0  0  0  0  0  0  0
   -9.0806   -1.0974    7.1388 C   0  0  0  0  0  0  0  0  0  0  0  0
  -10.2984   -0.6269    6.6487 C   0  0  0  0  0  0  0  0  0  0  0  0
  -11.2202   -1.0861    6.9857 H   0  0  0  0  0  0  0  0  0  0  0  0
  -10.3203    0.4012    5.7253 C   0  0  0  0  0  0  0  0  0  0  0  0
  -11.2627    0.7681    5.3491 H   0  0  0  0  0  0  0  0  0  0  0  0
   -9.1284    0.9506    5.2766 C   0  0  0  0  0  0  0  0  0  0  0  0
   -9.1451    1.7519    4.5542 H   0  0  0  0  0  0  0  0  0  0  0  0
   -7.9156    0.4618    5.7377 C   0  0  0  0  0  0  0  0  0  0  0  0
   -6.9900    0.8789    5.3714 H   0  0  0  0  0  0  0  0  0  0  0  0
   -7.8838   -0.5660    6.6634 C   0  0  0  0  0  0  0  0  0  0  0  0
   -6.9372   -0.9593    7.0072 H   0  0  0  0  0  0  0  0  0  0  0  0
   -9.4799   -4.1006   11.1616 C   0  0  0  0  0  0  0  0  0  0  0  0
   -8.1036   -4.2873   11.2717 C   0  0  0  0  0  0  0  0  0  0  0  0
   -7.4400   -3.4335   11.3000 H   0  0  0  0  0  0  0  0  0  0  0  0
   -7.5900   -5.5690   11.3326 C   0  0  0  0  0  0  0  0  0  0  0  0
   -6.5232   -5.7160   11.4036 H   0  0  0  0  0  0  0  0  0  0  0  0
   -8.4469   -6.6587   11.3045 C   0  0  0  0  0  0  0  0  0  0  0  0
   -8.0444   -7.6586   11.3501 H   0  0  0  0  0  0  0  0  0  0  0  0
   -9.8179   -6.4687   11.2227 C   0  0  0  0  0  0  0  0  0  0  0  0
  -10.4849   -7.3161   11.2068 H   0  0  0  0  0  0  0  0  0  0  0  0
  -10.3447   -5.1910   11.1489 C   0  0  0  0  0  0  0  0  0  0  0  0
  -11.4120   -5.0519   11.0550 H   0  0  0  0  0  0  0  0  0  0  0  0
  -11.8470   -2.2138   11.0321 C   0  0  0  0  0  0  0  0  0  0  0  0
  -12.5754   -2.8787   12.0154 C   0  0  0  0  0  0  0  0  0  0  0  0
  -12.0648   -3.4580   12.7732 H   0  0  0  0  0  0  0  0  0  0  0  0
  -13.9561   -2.8092   11.9997 C   0  0  0  0  0  0  0  0  0  0  0  0
  -14.5272   -3.3419   12.7439 H   0  0  0  0  0  0  0  0  0  0  0  0
  -14.6036   -2.0721   11.0212 C   0  0  0  0  0  0  0  0  0  0  0  0
  -15.6814   -2.0353   11.0024 H   0  0  0  0  0  0  0  0  0  0  0  0
  -13.8744   -1.3878   10.0610 C   0  0  0  0  0  0  0  0  0  0  0  0
  -14.3823   -0.8115    9.3033 H   0  0  0  0  0  0  0  0  0  0  0  0
  -12.4950   -1.4607   10.0592 C   0  0  0  0  0  0  0  0  0  0  0  0
  -11.9187   -0.9448    9.3033 H   0  0  0  0  0  0  0  0  0  0  0  0
   -9.5306   -1.6471   12.6517 C   0  0  0  0  0  0  0  0  0  0  0  0
   -8.4518   -1.7380   12.7787 H   0  0  0  0  0  0  0  0  0  0  0  0
  -10.0268   -2.2028   13.4489 H   0  0  0  0  0  0  0  0  0  0  0  0
   -9.8352   -0.6027   12.7105 H   0  0  0  0  0  0  0  0  0  0  0  0
   -8.7019   -0.2367   10.0349 C   0  0  0  0  0  0  0  0  0  0  0  0
   -7.9860   -0.0482    9.2300 H   0  0  0  0  0  0  0  0  0  0  0  0
   -8.1691   -0.1374   10.9846 H   0  0  0  0  0  0  0  0  0  0  0  0
   -9.8123    0.8114    9.9557 C   0  0  0  0  0  0  0  0  0  0  0  0
  -10.3207    0.7171    8.9932 H   0  0  0  0  0  0  0  0  0  0  0  0
  -10.5413    0.6366   10.7524 H   0  0  0  0  0  0  0  0  0  0  0  0
   -9.2155    2.1887   10.0741 C   0  0  0  0  0  0  0  0  0  0  0  0
   -9.1718    2.8469   11.2949 C   0  0  0  0  0  0  0  0  0  0  0  0
   -9.6026    2.3837   12.1721 H   0  0  0  0  0  0  0  0  0  0  0  0
   -8.5950    4.1012   11.3950 C   0  0  0  0  0  0  0  0  0  0  0  0
   -8.5735    4.6074   12.3479 H   0  0  0  0  0  0  0  0  0  0  0  0
   -8.0511    4.7056   10.2748 C   0  0  0  0  0  0  0  0  0  0  0  0
   -7.6042    5.6845   10.3518 H   0  0  0  0  0  0  0  0  0  0  0  0
   -8.0881    4.0533    9.0536 C   0  0  0  0  0  0  0  0  0  0  0  0
   -7.6698    4.5228    8.1763 H   0  0  0  0  0  0  0  0  0  0  0  0
   -8.6663    2.8007    8.9544 C   0  0  0  0  0  0  0  0  0  0  0  0
   -8.7021    2.2958    7.9983 H   0  0  0  0  0  0  0  0  0  0  0  0
  1  2  1  0  0  0  0
  3 28  1  0  0  0  0
  3 50  1  0  0  0  0
  4  1  1  0  0  0  0
  4  5  1  0  0  0  0
  5 54  1  0  0  0  0
  5  3  1  0  0  0  0
  6  4  1  0  0  0  0
  6 15  1  0  0  0  0
  7  6  2  0  0  0  0
  8  7  1  0  0  0  0
  9  7  1  0  0  0  0
  9 11  2  0  0  0  0
 10  9  1  0  0  0  0
 11 13  1  0  0  0  0
 12 11  1  0  0  0  0
 13 15  2  0  0  0  0
 13 14  1  0  0  0  0
 15 16  1  0  0  0  0
 17  4  1  0  0  0  0
 18 19  1  0  0  0  0
 18 17  2  0  0  0  0
 20 18  1  0  0  0  0
 21 20  1  0  0  0  0
 22 20  2  0  0  0  0
 22 24  1  0  0  0  0
 23 22  1  0  0  0  0
 24 26  2  0  0  0  0
 25 24  1  0  0  0  0
 26 27  1  0  0  0  0
 26 17  1  0  0  0  0
 28 29  1  0  0  0  0
 29 30  1  0  0  0  0
 29 31  2  0  0  0  0
 31 32  1  0  0  0  0
 33 31  1  0  0  0  0
 33 34  1  0  0  0  0
 35 33  2  0  0  0  0
 36 35  1  0  0  0  0
 37 28  2  0  0  0  0
 37 35  1  0  0  0  0
 38 37  1  0  0  0  0
 39  3  1  0  0  0  0
 39 40  1  0  0  0  0
 40 41  1  0  0  0  0
 42 40  2  0  0  0  0
 42 43  1  0  0  0  0
 44 42  1  0  0  0  0
 45 44  1  0  0  0  0
 46 44  2  0  0  0  0
 47 46  1  0  0  0  0
 48 46  1  0  0  0  0
 48 39  2  0  0  0  0
 49 48  1  0  0  0  0
 50 53  1  0  0  0  0
 50 51  1  0  0  0  0
 50 52  1  0  0  0  0
 54 56  1  0  0  0  0
 55 54  1  0  0  0  0
 57 54  1  0  0  0  0
 57 60  1  0  0  0  0
 57 59  1  0  0  0  0
 58 57  1  0  0  0  0
 60 61  1  0  0  0  0
 61 63  2  0  0  0  0
 61 62  1  0  0  0  0
 63 64  1  0  0  0  0
 65 66  1  0  0  0  0
 65 63  1  0  0  0  0
 67 65  2  0  0  0  0
 68 67  1  0  0  0  0
 69 67  1  0  0  0  0
 69 60  2  0  0  0  0
 70 69  1  0  0  0  0
M  END
$$$$
