CSD_code = QUHPIU | q = 1 | S = 0 | Stoichiometry = C28H30AuClNOP2(1+) | MND = 2
 OpenBabel04212202093D

 64 67  0  0  0  0  0  0  0  0999 V2000
    9.8807   13.1841   14.2701 Au  0  0  0  0  0  0  0  0  0  0  0  0
    8.8409   11.7883   12.8649 P   0  0  0  0  0  4  0  0  0  0  0  0
    8.4965   14.3409   11.5394 P   0  0  0  0  0  4  0  0  0  0  0  0
   10.9074   14.8630   15.3983 Cl  0  0  0  0  0  0  0  0  0  0  0  0
    9.9453   13.8286    9.4477 O   0  0  0  0  0  0  0  0  0  0  0  0
    8.5316   12.6655   11.3991 N   0  0  0  0  0  0  0  0  0  0  0  0
    7.2272   11.1290   13.3441 C   0  0  0  0  0  0  0  0  0  0  0  0
    7.0000   11.0333   14.7138 C   0  0  0  0  0  0  0  0  0  0  0  0
    7.7748   11.3539   15.3995 H   0  0  0  0  0  0  0  0  0  0  0  0
    5.7952   10.5420   15.1820 C   0  0  0  0  0  0  0  0  0  0  0  0
    5.6196   10.4679   16.2438 H   0  0  0  0  0  0  0  0  0  0  0  0
    4.8145   10.1522   14.2840 C   0  0  0  0  0  0  0  0  0  0  0  0
    3.8720    9.7725   14.6470 H   0  0  0  0  0  0  0  0  0  0  0  0
    5.0370   10.2500   12.9184 C   0  0  0  0  0  0  0  0  0  0  0  0
    4.2696    9.9445   12.2231 H   0  0  0  0  0  0  0  0  0  0  0  0
    6.2405   10.7361   12.4424 C   0  0  0  0  0  0  0  0  0  0  0  0
    6.4090   10.8186   11.3770 H   0  0  0  0  0  0  0  0  0  0  0  0
    9.7901   10.3486   12.3134 C   0  0  0  0  0  0  0  0  0  0  0  0
    9.2065    9.1200   12.0111 C   0  0  0  0  0  0  0  0  0  0  0  0
    8.1358    8.9922   12.0862 H   0  0  0  0  0  0  0  0  0  0  0  0
   10.0079    8.0576   11.6318 C   0  0  0  0  0  0  0  0  0  0  0  0
    9.5564    7.1052   11.4000 H   0  0  0  0  0  0  0  0  0  0  0  0
   11.3836    8.2093   11.5612 C   0  0  0  0  0  0  0  0  0  0  0  0
   12.0024    7.3750   11.2699 H   0  0  0  0  0  0  0  0  0  0  0  0
   11.9695    9.4234   11.8868 C   0  0  0  0  0  0  0  0  0  0  0  0
   13.0427    9.5332   11.8558 H   0  0  0  0  0  0  0  0  0  0  0  0
   11.1771   10.4879   12.2717 C   0  0  0  0  0  0  0  0  0  0  0  0
   11.6259   11.4277   12.5693 H   0  0  0  0  0  0  0  0  0  0  0  0
   10.0296   15.2558   11.8070 C   0  0  0  0  0  0  0  0  0  0  0  0
   11.2677   14.6356   11.9204 C   0  0  0  0  0  0  0  0  0  0  0  0
   11.3470   13.5670   11.7721 H   0  0  0  0  0  0  0  0  0  0  0  0
   12.3873   15.3898   12.2137 C   0  0  0  0  0  0  0  0  0  0  0  0
   13.3478   14.9098   12.3193 H   0  0  0  0  0  0  0  0  0  0  0  0
   12.2710   16.7587   12.3976 C   0  0  0  0  0  0  0  0  0  0  0  0
   13.1423   17.3415   12.6509 H   0  0  0  0  0  0  0  0  0  0  0  0
   11.0398   17.3794   12.2660 C   0  0  0  0  0  0  0  0  0  0  0  0
   10.9518   18.4452   12.4095 H   0  0  0  0  0  0  0  0  0  0  0  0
    9.9133   16.6322   11.9702 C   0  0  0  0  0  0  0  0  0  0  0  0
    8.9480   17.1120   11.8801 H   0  0  0  0  0  0  0  0  0  0  0  0
    7.4037   14.6150   12.9630 C   0  0  0  0  0  0  0  0  0  0  0  0
    7.7391   15.4312   14.0394 C   0  0  0  0  0  0  0  0  0  0  0  0
    8.6972   15.9275   14.0812 H   0  0  0  0  0  0  0  0  0  0  0  0
    6.8426   15.5894   15.0821 C   0  0  0  0  0  0  0  0  0  0  0  0
    7.1124   16.2139   15.9189 H   0  0  0  0  0  0  0  0  0  0  0  0
    5.6166   14.9436   15.0566 C   0  0  0  0  0  0  0  0  0  0  0  0
    4.9269   15.0632   15.8775 H   0  0  0  0  0  0  0  0  0  0  0  0
    5.2710   14.1510   13.9738 C   0  0  0  0  0  0  0  0  0  0  0  0
    4.3125   13.6560   13.9436 H   0  0  0  0  0  0  0  0  0  0  0  0
    6.1583   13.9924   12.9254 C   0  0  0  0  0  0  0  0  0  0  0  0
    5.8842   13.3778   12.0786 H   0  0  0  0  0  0  0  0  0  0  0  0
    7.5038   15.0430   10.1914 C   0  0  0  0  0  0  0  0  0  0  0  0
    8.0234   15.0303    9.2385 H   0  0  0  0  0  0  0  0  0  0  0  0
    7.2853   16.0733   10.4744 H   0  0  0  0  0  0  0  0  0  0  0  0
    6.5622   14.4974   10.1275 H   0  0  0  0  0  0  0  0  0  0  0  0
    8.6034   12.0361   10.0846 C   0  0  0  0  0  0  0  0  0  0  0  0
    7.7538   12.3686    9.4810 H   0  0  0  0  0  0  0  0  0  0  0  0
    8.5550   10.9518   10.2043 H   0  0  0  0  0  0  0  0  0  0  0  0
    9.8923   12.4252    9.3718 C   0  0  0  0  0  0  0  0  0  0  0  0
   10.7644   11.9730    9.8676 H   0  0  0  0  0  0  0  0  0  0  0  0
    9.8686   12.0873    8.3276 H   0  0  0  0  0  0  0  0  0  0  0  0
   11.0536   14.4014    8.7829 C   0  0  0  0  0  0  0  0  0  0  0  0
   10.9952   15.4761    8.9401 H   0  0  0  0  0  0  0  0  0  0  0  0
   11.0106   14.1818    7.7119 H   0  0  0  0  0  0  0  0  0  0  0  0
   11.9977   14.0267    9.1886 H   0  0  0  0  0  0  0  0  0  0  0  0
  1  4  1  0  0  0  0
  2  7  1  0  0  0  0
  2  1  1  0  0  0  0
  3 29  1  0  0  0  0
  3 40  1  0  0  0  0
  6  3  1  0  0  0  0
  6  2  1  0  0  0  0
  7  8  1  0  0  0  0
  8 10  2  0  0  0  0
  8  9  1  0  0  0  0
 10 11  1  0  0  0  0
 12 13  1  0  0  0  0
 12 10  1  0  0  0  0
 14 12  2  0  0  0  0
 15 14  1  0  0  0  0
 16 14  1  0  0  0  0
 16  7  2  0  0  0  0
 17 16  1  0  0  0  0
 18  2  1  0  0  0  0
 19 20  1  0  0  0  0
 19 18  2  0  0  0  0
 21 19  1  0  0  0  0
 22 21  1  0  0  0  0
 23 21  2  0  0  0  0
 23 25  1  0  0  0  0
 24 23  1  0  0  0  0
 25 27  2  0  0  0  0
 26 25  1  0  0  0  0
 27 18  1  0  0  0  0
 27 28  1  0  0  0  0
 29 30  2  0  0  0  0
 29 38  1  0  0  0  0
 30 32  1  0  0  0  0
 31 30  1  0  0  0  0
 32 33  1  0  0  0  0
 32 34  2  0  0  0  0
 34 35  1  0  0  0  0
 36 34  1  0  0  0  0
 36 37  1  0  0  0  0
 38 36  2  0  0  0  0
 39 38  1  0  0  0  0
 40 41  1  0  0  0  0
 41 42  1  0  0  0  0
 41 43  2  0  0  0  0
 43 44  1  0  0  0  0
 45 43  1  0  0  0  0
 45 46  1  0  0  0  0
 47 45  2  0  0  0  0
 48 47  1  0  0  0  0
 49 40  2  0  0  0  0
 49 47  1  0  0  0  0
 50 49  1  0  0  0  0
 51 53  1  0  0  0  0
 51  3  1  0  0  0  0
 52 51  1  0  0  0  0
 54 51  1  0  0  0  0
 55 57  1  0  0  0  0
 55  6  1  0  0  0  0
 56 55  1  0  0  0  0
 58  5  1  0  0  0  0
 58 59  1  0  0  0  0
 58 55  1  0  0  0  0
 60 58  1  0  0  0  0
 61 62  1  0  0  0  0
 61 64  1  0  0  0  0
 61  5  1  0  0  0  0
 63 61  1  0  0  0  0
M  END
$$$$
