CSD_code = QUHZAV | q = 0 | S = 0 | Stoichiometry = C25H25BrCuN2P | MND = 4
 OpenBabel04212202093D

 55 59  0  0  1  0  0  0  0  0999 V2000
    6.8170    7.8672    3.0255 Cu  0  0  1  0  0  0  0  0  0  0  0  0
    8.0204    9.0304    1.4724 Br  0  0  0  0  0  0  0  0  0  0  0  0
    4.8439    8.8314    3.5459 P   0  0  0  0  0  4  0  0  0  0  0  0
    6.6555    5.8793    3.0860 N   0  0  0  0  0  0  0  0  0  0  0  0
    7.9788    7.5334    4.6579 N   0  0  0  0  0  0  0  0  0  0  0  0
    5.8062    5.1377    2.3865 C   0  0  0  0  0  3  0  0  0  0  0  0
    5.3202    5.6338    1.5561 H   0  0  0  0  0  0  0  0  0  0  0  0
    5.5574    3.8111    2.6739 C   0  0  0  0  0  0  0  0  0  0  0  0
    4.8710    3.2407    2.0692 H   0  0  0  0  0  0  0  0  0  0  0  0
    6.2168    3.2323    3.7560 C   0  0  0  0  0  0  0  0  0  0  0  0
    6.0400    2.2000    4.0175 H   0  0  0  0  0  0  0  0  0  0  0  0
    7.0987    4.0001    4.4894 C   0  0  0  0  0  0  0  0  0  0  0  0
    7.6074    3.5858    5.3454 H   0  0  0  0  0  0  0  0  0  0  0  0
    7.3116    5.3302    4.1241 C   0  0  0  0  0  0  0  0  0  0  0  0
    8.2265    6.2244    4.8247 C   0  0  1  0  0  3  0  0  0  0  0  0
    9.3098    5.7837    5.5854 C   0  0  0  0  0  0  0  0  0  0  0  0
    9.5149    4.7293    5.6827 H   0  0  0  0  0  0  0  0  0  0  0  0
   10.1337    6.7190    6.1798 C   0  0  0  0  0  0  0  0  0  0  0  0
   10.9816    6.4036    6.7693 H   0  0  0  0  0  0  0  0  0  0  0  0
    9.8643    8.0723    5.9967 C   0  0  0  0  0  0  0  0  0  0  0  0
   10.4866    8.8301    6.4442 H   0  0  0  0  0  0  0  0  0  0  0  0
    8.7790    8.4273    5.2200 C   0  0  0  0  0  0  0  0  0  0  0  0
    8.5290    9.4638    5.0341 H   0  0  0  0  0  0  0  0  0  0  0  0
    3.6236    7.9918    4.6850 C   0  0  0  0  0  0  0  0  0  0  0  0
    2.9018    8.7298    5.0543 H   0  0  0  0  0  0  0  0  0  0  0  0
    2.8801    6.9000    3.9220 C   0  0  0  0  0  0  0  0  0  0  0  0
    3.5860    6.1890    3.4929 H   0  0  0  0  0  0  0  0  0  0  0  0
    2.2849    7.3227    3.1141 H   0  0  0  0  0  0  0  0  0  0  0  0
    2.2157    6.3570    4.5931 H   0  0  0  0  0  0  0  0  0  0  0  0
    4.4134    7.3930    5.8474 C   0  0  0  0  0  0  0  0  0  0  0  0
    3.7435    6.9579    6.5884 H   0  0  0  0  0  0  0  0  0  0  0  0
    5.0322    8.1449    6.3364 H   0  0  0  0  0  0  0  0  0  0  0  0
    5.0736    6.6069    5.4807 H   0  0  0  0  0  0  0  0  0  0  0  0
    3.8016    9.2882    2.1220 C   0  0  0  0  0  0  0  0  0  0  0  0
    2.6743   10.0916    2.2674 C   0  0  0  0  0  0  0  0  0  0  0  0
    2.4002   10.4641    3.2452 H   0  0  0  0  0  0  0  0  0  0  0  0
    1.9167   10.4184    1.1593 C   0  0  0  0  0  0  0  0  0  0  0  0
    1.0407   11.0409    1.2716 H   0  0  0  0  0  0  0  0  0  0  0  0
    2.2827    9.9569   -0.0963 C   0  0  0  0  0  0  0  0  0  0  0  0
    1.6896   10.2210   -0.9594 H   0  0  0  0  0  0  0  0  0  0  0  0
    3.4114    9.1696   -0.2464 C   0  0  0  0  0  0  0  0  0  0  0  0
    3.7065    8.8234   -1.2255 H   0  0  0  0  0  0  0  0  0  0  0  0
    4.1695    8.8340    0.8613 C   0  0  0  0  0  0  0  0  0  0  0  0
    5.0649    8.2363    0.7515 H   0  0  0  0  0  0  0  0  0  0  0  0
    5.0942   10.4855    4.2661 C   0  0  0  0  0  0  0  0  0  0  0  0
    5.8278   11.3603    3.4628 C   0  0  0  0  0  0  0  0  0  0  0  0
    6.1754   11.0303    2.4925 H   0  0  0  0  0  0  0  0  0  0  0  0
    6.1202   12.6352    3.9050 C   0  0  0  0  0  0  0  0  0  0  0  0
    6.6894   13.3022    3.2754 H   0  0  0  0  0  0  0  0  0  0  0  0
    5.6892   13.0501    5.1556 C   0  0  0  0  0  0  0  0  0  0  0  0
    5.9168   14.0464    5.5053 H   0  0  0  0  0  0  0  0  0  0  0  0
    4.9696   12.1832    5.9600 C   0  0  0  0  0  0  0  0  0  0  0  0
    4.6351   12.5032    6.9368 H   0  0  0  0  0  0  0  0  0  0  0  0
    4.6741   10.9026    5.5239 C   0  0  0  0  0  0  0  0  0  0  0  0
    4.1140   10.2433    6.1708 H   0  0  0  0  0  0  0  0  0  0  0  0
  1  2  1  6  0  0  0
  1  4  1  0  0  0  0
  1  3  1  0  0  0  0
  1  5  1  0  0  0  0
  3 45  1  0  0  0  0
  3 24  1  0  0  0  0
  4 14  1  0  0  0  0
  5 15  1  0  0  0  0
  5 22  1  0  0  0  0
  6  8  1  0  0  0  0
  6  4  1  0  0  0  0
  7  6  1  0  0  0  0
  8 10  2  0  0  0  0
  9  8  1  0  0  0  0
 10 11  1  0  0  0  0
 10 12  1  0  0  0  0
 12 13  1  0  0  0  0
 14 12  2  0  0  0  0
 15 14  1  6  0  0  0
 15 16  1  0  0  0  0
 16 17  1  0  0  0  0
 16 18  2  0  0  0  0
 18 19  1  0  0  0  0
 20 18  1  0  0  0  0
 20 21  1  0  0  0  0
 22 20  2  0  0  0  0
 23 22  1  0  0  0  0
 24 25  1  0  0  0  0
 24 30  1  0  0  0  0
 26 29  1  0  0  0  0
 26 24  1  0  0  0  0
 27 26  1  0  0  0  0
 28 26  1  0  0  0  0
 30 32  1  0  0  0  0
 30 31  1  0  0  0  0
 33 30  1  0  0  0  0
 34 35  1  0  0  0  0
 34  3  1  0  0  0  0
 35 36  1  0  0  0  0
 37 38  1  0  0  0  0
 37 35  2  0  0  0  0
 39 37  1  0  0  0  0
 40 39  1  0  0  0  0
 41 39  2  0  0  0  0
 41 43  1  0  0  0  0
 42 41  1  0  0  0  0
 43 34  2  0  0  0  0
 44 43  1  0  0  0  0
 45 54  1  0  0  0  0
 46 48  1  0  0  0  0
 46 45  2  0  0  0  0
 47 46  1  0  0  0  0
 48 50  2  0  0  0  0
 49 48  1  0  0  0  0
 50 51  1  0  0  0  0
 50 52  1  0  0  0  0
 52 53  1  0  0  0  0
 54 52  2  0  0  0  0
 54 55  1  0  0  0  0
M  END
$$$$
