CSD_code = QUJBAZ | q = 0 | S = 0 | Stoichiometry = C12H16ClCuN8S2 | MND = 3
 OpenBabel04212202093D

 40 41  0  0  1  0  0  0  0  0999 V2000
   12.1611    6.7476    2.1201 Cu  0  0  0  0  0  0  0  0  0  0  0  0
   10.0665    6.7821    2.9312 Cl  0  0  0  0  0  0  0  0  0  0  0  0
   13.5241    8.5540    2.5364 S   0  0  0  0  0  0  0  0  0  0  0  0
   12.8357    4.9099    0.9109 S   0  0  0  0  0  0  0  0  0  0  0  0
   13.2109   10.8126    3.8085 N   0  0  0  0  0  0  0  0  0  0  0  0
   11.3510    9.4373    3.7944 N   0  0  0  0  0  0  0  0  0  0  0  0
   10.9320   11.4396    4.9435 N   0  0  0  0  0  0  0  0  0  0  0  0
    9.2918    9.7516    4.7040 N   0  0  0  0  0  0  0  0  0  0  0  0
   11.6764    2.6848    0.1874 N   0  0  0  0  0  0  0  0  0  0  0  0
   10.3577    4.1033    1.4521 N   0  0  0  0  0  0  0  0  0  0  0  0
    8.2200    3.8510    2.1821 N   0  0  0  0  0  0  0  0  0  0  0  0
    9.2095    2.1369    0.8862 N   0  0  0  0  0  0  0  0  0  0  0  0
   14.5672   11.1541    3.4748 C   0  0  0  0  0  0  0  0  0  0  0  0
   15.2515   10.3886    3.8454 H   0  0  0  0  0  0  0  0  0  0  0  0
   14.8090   12.1136    3.9224 H   0  0  0  0  0  0  0  0  0  0  0  0
   14.6913   11.2091    2.3912 H   0  0  0  0  0  0  0  0  0  0  0  0
   12.6428    9.6714    3.4346 C   0  0  2  0  0  3  0  0  0  0  0  0
   10.5125   10.2465    4.5039 C   0  0  0  0  0  0  0  0  0  0  0  0
    8.4385   10.4886    5.3782 C   0  0  0  0  0  0  0  0  0  0  0  0
    8.7713   11.7457    5.8769 C   0  0  0  0  0  0  0  0  0  0  0  0
   10.0618   12.1726    5.6209 C   0  0  0  0  0  0  0  0  0  0  0  0
   12.8898    2.3046   -0.4837 C   0  0  0  0  0  0  0  0  0  0  0  0
   13.1805    3.0743   -1.2009 H   0  0  0  0  0  0  0  0  0  0  0  0
   12.7271    1.3623   -0.9984 H   0  0  0  0  0  0  0  0  0  0  0  0
   13.7065    2.1981    0.2334 H   0  0  0  0  0  0  0  0  0  0  0  0
   11.5453    3.8318    0.8447 C   0  0  1  0  0  3  0  0  0  0  0  0
    9.2362    3.3275    1.4979 C   0  0  0  0  0  0  0  0  0  0  0  0
    8.0885    1.4378    0.9762 C   0  0  0  0  0  0  0  0  0  0  0  0
    6.9808    1.8962    1.6662 C   0  0  0  0  0  0  0  0  0  0  0  0
    7.1138    3.1471    2.2639 C   0  0  0  0  0  0  0  0  0  0  0  0
   12.6130   11.4484    4.3435 H   0  0  0  0  0  0  0  0  0  0  0  0
   10.9112    8.5378    3.5044 H   0  0  0  0  0  0  0  0  0  0  0  0
    7.4572   10.0562    5.5228 H   0  0  0  0  0  0  0  0  0  0  0  0
    8.0699   12.3483    6.4275 H   0  0  0  0  0  0  0  0  0  0  0  0
   10.8544    2.0746    0.1970 H   0  0  0  0  0  0  0  0  0  0  0  0
   10.4307   13.1319    5.9616 H   0  0  0  0  0  0  0  0  0  0  0  0
   10.2564    5.0078    1.9601 H   0  0  0  0  0  0  0  0  0  0  0  0
    8.0988    0.4798    0.4716 H   0  0  0  0  0  0  0  0  0  0  0  0
    6.0736    1.3212    1.7356 H   0  0  0  0  0  0  0  0  0  0  0  0
    6.3089    3.6019    2.8261 H   0  0  0  0  0  0  0  0  0  0  0  0
  1  3  1  0  0  0  0
  1  2  1  0  0  0  0
  4  1  1  0  0  0  0
  5 31  1  0  0  0  0
  6 18  1  0  0  0  0
  7 21  1  0  0  0  0
  8 19  2  0  0  0  0
  9 35  1  0  0  0  0
  9 26  1  0  0  0  0
 10 27  1  0  0  0  0
 10 37  1  0  0  0  0
 11 30  1  0  0  0  0
 12 28  2  0  0  0  0
 12 27  1  0  0  0  0
 13  5  1  0  0  0  0
 13 14  1  0  0  0  0
 13 15  1  0  0  0  0
 16 13  1  0  0  0  0
 17  3  1  1  0  0  0
 17  6  1  0  0  0  0
 17  5  1  0  0  0  0
 18  8  1  0  0  0  0
 18  7  2  0  0  0  0
 19 33  1  0  0  0  0
 19 20  1  0  0  0  0
 20 34  1  0  0  0  0
 21 20  2  0  0  0  0
 21 36  1  0  0  0  0
 22  9  1  0  0  0  0
 22 25  1  0  0  0  0
 23 22  1  0  0  0  0
 24 22  1  0  0  0  0
 26  4  1  1  0  0  0
 26 10  1  0  0  0  0
 27 11  2  0  0  0  0
 28 29  1  0  0  0  0
 29 39  1  0  0  0  0
 29 30  2  0  0  0  0
 30 40  1  0  0  0  0
 32  6  1  0  0  0  0
 38 28  1  0  0  0  0
M  END
$$$$
