CSD_code = QUJRIX | q = 0 | S = 0 | Stoichiometry = C15H17Cl2N5O2Ti | MND = 7
 OpenBabel04212202093D

 42 46  0  0  1  0  0  0  0  0999 V2000
    5.7880   15.7760   -3.3603 Ti  0  0  0  0  0  0  0  0  0  0  0  0
    4.2253   15.4057   -5.0164 Cl  0  0  0  0  0  0  0  0  0  0  0  0
    7.7987   15.4743   -2.2405 Cl  0  0  0  0  0 15  0  0  0  0  0  0
    5.3913   17.3748   -2.8284 O   0  0  0  0  0  0  0  0  0  0  0  0
    4.8277   16.3933   -2.0580 O   0  0  0  0  0  0  0  0  0  0  0  0
    6.9416   16.7856   -4.8743 N   0  0  1  0  0  0  0  0  0  0  0  0
    6.8174   14.2893   -4.5353 N   0  0  0  0  0  0  0  0  0  0  0  0
    5.1436   13.8455   -2.6643 N   0  0  0  0  0  0  0  0  0  0  0  0
    7.1756   18.0501   -5.1630 C   0  0  1  0  0  3  0  0  0  0  0  0
    8.3258   18.1343   -5.9768 C   0  0  0  0  0  0  0  0  0  0  0  0
    8.7708   19.0279   -6.3652 H   0  0  0  0  0  0  0  0  0  0  0  0
    8.7657   16.8497   -6.1670 C   0  0  0  0  0  0  0  0  0  0  0  0
    7.8912   16.0422   -5.4895 N   0  0  0  0  0  0  0  0  0  0  0  0
    7.7844   14.6658   -5.3696 C   0  0  2  0  0  3  0  0  0  0  0  0
    8.5681   13.7308   -6.0442 C   0  0  0  0  0  0  0  0  0  0  0  0
    9.3281   14.0193   -6.7443 H   0  0  0  0  0  0  0  0  0  0  0  0
    8.3440   12.3897   -5.7817 C   0  0  0  0  0  0  0  0  0  0  0  0
    8.9492   11.6421   -6.2709 H   0  0  0  0  0  0  0  0  0  0  0  0
    7.3580   11.9997   -4.8924 C   0  0  0  0  0  0  0  0  0  0  0  0
    7.2159   10.9605   -4.6639 H   0  0  0  0  0  0  0  0  0  0  0  0
    6.5913   13.0007   -4.2971 C   0  0  0  0  0  0  0  0  0  0  0  0
    5.5650   12.7845   -3.3913 N   0  0  0  0  0  0  0  0  0  0  0  0
    4.8296   11.6708   -3.0889 C   0  0  1  0  0  3  0  0  0  0  0  0
    3.9309   12.0568   -2.1279 C   0  0  0  0  0  0  0  0  0  0  0  0
    3.1917   11.4410   -1.6573 H   0  0  0  0  0  0  0  0  0  0  0  0
    4.1611   13.4283   -1.8890 C   0  0  0  0  0  0  0  0  0  0  0  0
    6.3176   19.1621   -4.6981 C   0  0  0  0  0  0  0  0  0  0  0  0
    6.5233   19.3667   -3.6465 H   0  0  0  0  0  0  0  0  0  0  0  0
    5.2694   18.8676   -4.7620 H   0  0  0  0  0  0  0  0  0  0  0  0
    6.5012   20.0571   -5.2870 H   0  0  0  0  0  0  0  0  0  0  0  0
    9.9680   16.4130   -6.9208 C   0  0  0  0  0  0  0  0  0  0  0  0
    9.6967   15.8700   -7.8262 H   0  0  0  0  0  0  0  0  0  0  0  0
   10.6110   15.7883   -6.3027 H   0  0  0  0  0  0  0  0  0  0  0  0
   10.5284   17.2969   -7.2153 H   0  0  0  0  0  0  0  0  0  0  0  0
    4.9602   10.3370   -3.7279 C   0  0  0  0  0  0  0  0  0  0  0  0
    4.9972   10.4245   -4.8124 H   0  0  0  0  0  0  0  0  0  0  0  0
    4.0935    9.7389   -3.4578 H   0  0  0  0  0  0  0  0  0  0  0  0
    5.8501    9.8130   -3.3785 H   0  0  0  0  0  0  0  0  0  0  0  0
    3.4420   14.3049   -0.9390 C   0  0  0  0  0  0  0  0  0  0  0  0
    4.1548   14.8094   -0.2861 H   0  0  0  0  0  0  0  0  0  0  0  0
    2.7324   13.7289   -0.3511 H   0  0  0  0  0  0  0  0  0  0  0  0
    2.9203   15.0873   -1.4937 H   0  0  0  0  0  0  0  0  0  0  0  0
  1  4  1  0  0  0  0
  1  8  1  0  0  0  0
  1  5  1  0  0  0  0
  2  1  1  0  0  0  0
  4  5  1  0  0  0  0
  6 13  1  1  0  0  0
  6  1  1  0  0  0  0
  7 21  1  0  0  0  0
  7  1  1  0  0  0  0
  8 26  1  0  0  0  0
  9  6  1  0  0  0  0
  9 27  1  6  0  0  0
 10  9  1  0  0  0  0
 11 10  1  0  0  0  0
 12 10  2  0  0  0  0
 12 13  1  0  0  0  0
 13 14  1  0  0  0  0
 14 15  1  6  0  0  0
 14  7  1  0  0  0  0
 15 17  2  0  0  0  0
 16 15  1  0  0  0  0
 17 19  1  0  0  0  0
 18 17  1  0  0  0  0
 19 20  1  0  0  0  0
 19 21  2  0  0  0  0
 21 22  1  0  0  0  0
 22 23  1  0  0  0  0
 22  8  1  0  0  0  0
 23 35  1  6  0  0  0
 23 24  1  0  0  0  0
 24 26  2  0  0  0  0
 24 25  1  0  0  0  0
 26 39  1  0  0  0  0
 27 28  1  0  0  0  0
 29 27  1  0  0  0  0
 30 27  1  0  0  0  0
 31 33  1  0  0  0  0
 31 12  1  0  0  0  0
 32 31  1  0  0  0  0
 34 31  1  0  0  0  0
 35 37  1  0  0  0  0
 35 38  1  0  0  0  0
 36 35  1  0  0  0  0
 39 41  1  0  0  0  0
 39 40  1  0  0  0  0
 42 39  1  0  0  0  0
M  END
$$$$
