CSD_code = QUKLAK | q = 0 | S = 0 | Stoichiometry = C25H19Cl2N2O2Re | MND = 6
 OpenBabel04212202093D

 51 56  0  0  0  0  0  0  0  0999 V2000
   10.2178    1.4353   18.0775 Re  0  0  0  0  0  0  0  0  0  0  0  0
   10.6506    2.8566   19.8567 Cl  0  0  0  0  0  0  0  0  0  0  0  0
   12.3776    1.6063   17.2537 Cl  0  0  0  0  0  0  0  0  0  0  0  0
    9.4741   -0.1167   16.5566 N   0  0  0  0  0  0  0  0  0  0  0  0
    8.0715    0.8963   18.6864 N   0  0  0  0  0  0  0  0  0  0  0  0
    9.5835    2.6042   17.0961 O   0  0  0  0  0  1  0  0  0  0  0  0
   10.6827    0.0450   19.0507 O   0  0  0  0  0  0  0  0  0  0  0  0
   10.1641   -0.5646   15.5366 C   0  0  0  0  0  0  0  0  0  0  0  0
   11.1908   -0.2261   15.4782 H   0  0  0  0  0  0  0  0  0  0  0  0
    9.6077   -1.4065   14.5752 C   0  0  0  0  0  0  0  0  0  0  0  0
   10.2022   -1.7312   13.7358 H   0  0  0  0  0  0  0  0  0  0  0  0
    8.2824   -1.7869   14.6820 C   0  0  0  0  0  0  0  0  0  0  0  0
    7.5439   -1.3377   15.8069 C   0  0  0  0  0  0  0  0  0  0  0  0
    6.1969   -1.7232   16.0580 C   0  0  0  0  0  0  0  0  0  0  0  0
    5.7208   -2.4026   15.3680 H   0  0  0  0  0  0  0  0  0  0  0  0
    5.5199   -1.2627   17.1379 C   0  0  0  0  0  0  0  0  0  0  0  0
    4.4931   -1.5526   17.2990 H   0  0  0  0  0  0  0  0  0  0  0  0
    6.1268   -0.3760   18.0713 C   0  0  0  0  0  0  0  0  0  0  0  0
    5.4447    0.1482   19.1992 C   0  0  0  0  0  0  0  0  0  0  0  0
    6.1050    1.0673   19.9940 C   0  0  0  0  0  0  0  0  0  0  0  0
    5.6142    1.4974   20.8529 H   0  0  0  0  0  0  0  0  0  0  0  0
    7.4231    1.4128   19.7012 C   0  0  0  0  0  0  0  0  0  0  0  0
    7.9800    2.1177   20.3054 H   0  0  0  0  0  0  0  0  0  0  0  0
    7.4632    0.0314   17.8577 C   0  0  0  0  0  0  0  0  0  0  0  0
    8.1915   -0.4795   16.7241 C   0  0  0  0  0  0  0  0  0  0  0  0
    7.6766   -2.6216   13.6336 C   0  0  0  0  0  0  0  0  0  0  0  0
    6.5236   -2.2069   12.9705 C   0  0  0  0  0  0  0  0  0  0  0  0
    6.0711   -1.2602   13.2278 H   0  0  0  0  0  0  0  0  0  0  0  0
    5.9838   -2.9837   11.9618 C   0  0  0  0  0  0  0  0  0  0  0  0
    5.0948   -2.6503   11.4478 H   0  0  0  0  0  0  0  0  0  0  0  0
    6.5812   -4.1827   11.6097 C   0  0  0  0  0  0  0  0  0  0  0  0
    6.1548   -4.7894   10.8253 H   0  0  0  0  0  0  0  0  0  0  0  0
    7.7311   -4.5979   12.2609 C   0  0  0  0  0  0  0  0  0  0  0  0
    8.2026   -5.5293   11.9859 H   0  0  0  0  0  0  0  0  0  0  0  0
    8.2823   -3.8188   13.2612 C   0  0  0  0  0  0  0  0  0  0  0  0
    9.1758   -4.1443   13.7738 H   0  0  0  0  0  0  0  0  0  0  0  0
    4.0738   -0.2601   19.5419 C   0  0  0  0  0  0  0  0  0  0  0  0
    3.0894    0.7070   19.7279 C   0  0  0  0  0  0  0  0  0  0  0  0
    3.3342    1.7486   19.5808 H   0  0  0  0  0  0  0  0  0  0  0  0
    1.8027    0.3350   20.0711 C   0  0  0  0  0  0  0  0  0  0  0  0
    1.0437    1.0912   20.2029 H   0  0  0  0  0  0  0  0  0  0  0  0
    1.4891   -1.0023   20.2502 C   0  0  0  0  0  0  0  0  0  0  0  0
    0.4856   -1.2910   20.5234 H   0  0  0  0  0  0  0  0  0  0  0  0
    2.4677   -1.9685   20.0845 C   0  0  0  0  0  0  0  0  0  0  0  0
    2.2302   -3.0110   20.2347 H   0  0  0  0  0  0  0  0  0  0  0  0
    3.7528   -1.6028   19.7281 C   0  0  0  0  0  0  0  0  0  0  0  0
    4.5204   -2.3559   19.6206 H   0  0  0  0  0  0  0  0  0  0  0  0
   11.3221   -0.8248   19.8803 C   0  0  0  0  0  0  0  0  0  0  0  0
   11.4094   -0.3845   20.8838 H   0  0  0  0  0  0  0  0  0  0  0  0
   12.3334   -1.0250   19.4985 H   0  0  0  0  0  0  0  0  0  0  0  0
   10.7731   -1.7763   19.9542 H   0  0  0  0  0  0  0  0  0  0  0  0
  1  5  1  0  0  0  0
  1  7  1  0  0  0  0
  1  2  1  0  0  0  0
  3  1  1  0  0  0  0
  4 25  1  0  0  0  0
  4  1  1  0  0  0  0
  5 22  1  0  0  0  0
  6  1  1  0  0  0  0
  7 48  1  0  0  0  0
  8  4  1  0  0  0  0
  9  8  1  0  0  0  0
 10 12  1  0  0  0  0
 10  8  2  0  0  0  0
 11 10  1  0  0  0  0
 12 13  2  0  0  0  0
 13 14  1  0  0  0  0
 13 25  1  0  0  0  0
 14 16  2  0  0  0  0
 15 14  1  0  0  0  0
 16 17  1  0  0  0  0
 16 18  1  0  0  0  0
 18 19  2  0  0  0  0
 19 37  1  0  0  0  0
 19 20  1  0  0  0  0
 20 21  1  0  0  0  0
 22 20  2  0  0  0  0
 22 23  1  0  0  0  0
 24 18  1  0  0  0  0
 24  5  1  0  0  0  0
 25 24  2  0  0  0  0
 26 12  1  0  0  0  0
 27 28  1  0  0  0  0
 27 26  2  0  0  0  0
 29 27  1  0  0  0  0
 30 29  1  0  0  0  0
 31 29  2  0  0  0  0
 31 33  1  0  0  0  0
 32 31  1  0  0  0  0
 33 35  2  0  0  0  0
 34 33  1  0  0  0  0
 35 26  1  0  0  0  0
 35 36  1  0  0  0  0
 37 38  2  0  0  0  0
 37 46  1  0  0  0  0
 38 40  1  0  0  0  0
 39 38  1  0  0  0  0
 40 41  1  0  0  0  0
 40 42  2  0  0  0  0
 42 43  1  0  0  0  0
 44 45  1  0  0  0  0
 44 42  1  0  0  0  0
 46 44  2  0  0  0  0
 47 46  1  0  0  0  0
 48 51  1  0  0  0  0
 48 49  1  0  0  0  0
 50 48  1  0  0  0  0
M  END
$$$$
