CSD_code = QULLOY | q = 1 | S = 0 | Stoichiometry = C13H20ClCuN3O(1+) | MND = 5
 OpenBabel04212202093D

 39 41  0  0  1  0  0  0  0  0999 V2000
    0.0566    7.3944    2.5843 Cu  0  0  0  0  0  0  0  0  0  0  0  0
    2.0478    7.3085    1.7327 O   0  0  0  0  0  0  0  0  0  0  0  0
    0.6709    7.4027    4.5553 N   0  0  0  0  0  0  0  0  0  0  0  0
    0.4675    5.2389    3.0117 N   0  0  1  0  0  4  0  0  0  0  0  0
   -0.4372    4.9223    3.3516 H   0  0  0  0  0  0  0  0  0  0  0  0
   -0.0339    9.5722    3.0876 N   0  0  1  0  0  4  0  0  0  0  0  0
   -0.8874    9.9504    2.6887 H   0  0  0  0  0  0  0  0  0  0  0  0
    0.6093    8.5388    5.2344 C   0  0  2  0  0  3  0  0  0  0  0  0
    1.1705    8.6516    6.4981 C   0  0  0  0  0  0  0  0  0  0  0  0
    1.1130    9.5780    7.0465 H   0  0  0  0  0  0  0  0  0  0  0  0
    1.3115    6.3471    5.0321 C   0  0  0  0  0  0  0  0  0  0  0  0
    1.8062    7.5413    7.0365 C   0  0  0  0  0  0  0  0  0  0  0  0
    2.2443    7.5922    8.0212 H   0  0  0  0  0  0  0  0  0  0  0  0
    0.8464    4.4406    1.8503 C   0  0  0  0  0  0  0  0  0  0  0  0
   -0.0289    4.3653    1.1949 H   0  0  0  0  0  0  0  0  0  0  0  0
    1.1176    3.4149    2.1452 H   0  0  0  0  0  0  0  0  0  0  0  0
    1.8910    6.3732    6.2949 C   0  0  0  0  0  0  0  0  0  0  0  0
    2.3991    5.5053    6.6833 H   0  0  0  0  0  0  0  0  0  0  0  0
   -0.1224    9.6662    4.5481 C   0  0  0  0  0  0  0  0  0  0  0  0
   -1.1759    9.5907    4.8358 H   0  0  0  0  0  0  0  0  0  0  0  0
    0.2580   10.6285    4.9152 H   0  0  0  0  0  0  0  0  0  0  0  0
    1.4316    5.1657    4.1046 C   0  0  0  0  0  0  0  0  0  0  0  0
    2.4341    5.1984    3.6639 H   0  0  0  0  0  0  0  0  0  0  0  0
    1.3506    4.2304    4.6749 H   0  0  0  0  0  0  0  0  0  0  0  0
    2.4720    6.2390    0.9940 C   0  0  0  0  0  0  0  0  0  0  0  0
    3.3041    6.4507    0.3320 H   0  0  0  0  0  0  0  0  0  0  0  0
   -0.9874    7.1561   -0.1952 H   0  0  0  0  0  0  0  0  0  0  0  0
    1.9878    5.0045    1.0517 C   0  0  0  0  0  0  0  0  0  0  0  0
    2.4558    4.2794    0.4038 H   0  0  0  0  0  0  0  0  0  0  0  0
    1.0967   10.2999    2.5064 C   0  0  0  0  0  0  0  0  0  0  0  0
    1.2156   11.2700    3.0096 H   0  0  0  0  0  0  0  0  0  0  0  0
    0.8663   10.4971    1.4568 H   0  0  0  0  0  0  0  0  0  0  0  0
    2.4317    9.5514    2.5891 C   0  0  0  0  0  0  0  0  0  0  0  0
    3.2312   10.2918    2.5440 H   0  0  0  0  0  0  0  0  0  0  0  0
    2.5094    9.0329    3.5441 H   0  0  0  0  0  0  0  0  0  0  0  0
    2.6854    8.5491    1.4629 C   0  0  0  0  0  0  0  0  0  0  0  0
    2.3233    8.9518    0.5067 H   0  0  0  0  0  0  0  0  0  0  0  0
    3.7656    8.3787    1.3761 H   0  0  0  0  0  0  0  0  0  0  0  0
   -1.6363    7.2568    0.9009 Cl  0  0  0  0  0  0  0  0  0  0  0  0
  1  4  1  0  0  0  0
  1  6  1  0  0  0  0
  1  3  1  0  0  0  0
  3 11  1  0  0  0  0
  3  8  1  0  0  0  0
  4  5  1  1  0  0  0
  4 22  1  0  0  0  0
  6  7  1  6  0  0  0
  6 19  1  0  0  0  0
  8  9  1  1  0  0  0
  9 12  2  0  0  0  0
  9 10  1  0  0  0  0
 11 17  2  0  0  0  0
 12 13  1  0  0  0  0
 14 16  1  0  0  0  0
 14  4  1  0  0  0  0
 15 14  1  0  0  0  0
 17 18  1  0  0  0  0
 17 12  1  0  0  0  0
 19 20  1  0  0  0  0
 19 21  1  0  0  0  0
 19  8  1  0  0  0  0
 22 24  1  0  0  0  0
 22 11  1  0  0  0  0
 23 22  1  0  0  0  0
 25 28  2  0  0  0  0
 25  2  1  0  0  0  0
 26 25  1  0  0  0  0
 27 39  1  0  0  0  0
 28 14  1  0  0  0  0
 29 28  1  0  0  0  0
 30 33  1  0  0  0  0
 30 31  1  0  0  0  0
 30  6  1  0  0  0  0
 32 30  1  0  0  0  0
 33 35  1  0  0  0  0
 34 33  1  0  0  0  0
 36  2  1  0  0  0  0
 36 33  1  0  0  0  0
 37 36  1  0  0  0  0
 38 36  1  0  0  0  0
M  END
$$$$
