CSD_code = QUMFIN | q = 1 | S = 0 | Stoichiometry = C12H32I3P4Pt(1+) | MND = 6
 OpenBabel04212202093D

 52 52  0  0  0  0  0  0  0  0999 V2000
    3.2773    8.0487   27.1890 Pt  0  0  0  0  0  0  0  0  0  0  0  0
    0.9983    8.0486   25.4179 I   0  0  0  0  0  0  0  0  0  0  0  0
    6.1495    8.0488   29.2617 I   0  0  0  0  0  0  0  0  0  0  0  0
    8.4117    8.0484   30.7747 I   0  0  0  0  0  0  0  0  0  0  0  0
    4.1728    9.7705   25.8935 P   0  0  0  0  0  4  0  0  0  0  0  0
    2.4112    9.7707   28.5057 P   0  0  0  0  0  4  0  0  0  0  0  0
    3.2496   11.2848   26.3731 C   0  0  0  0  0  0  0  0  0  0  0  0
    3.1336   11.3452   27.8879 C   0  0  0  0  0  0  0  0  0  0  0  0
    5.9132   10.2474   26.1514 C   0  0  0  0  0  0  0  0  0  0  0  0
    4.0460    9.8042   24.0798 C   0  0  0  0  0  0  0  0  0  0  0  0
    2.7130    9.8840   30.2987 C   0  0  0  0  0  0  0  0  0  0  0  0
    0.6216   10.0826   28.4055 C   0  0  0  0  0  0  0  0  0  0  0  0
    2.2581   11.2249   25.9111 H   0  0  0  0  0  0  0  0  0  0  0  0
    3.7648   12.1619   25.9701 H   0  0  0  0  0  0  0  0  0  0  0  0
    4.1221   11.4566   28.3443 H   0  0  0  0  0  0  0  0  0  0  0  0
    2.5045   12.1802   28.2109 H   0  0  0  0  0  0  0  0  0  0  0  0
    6.0869   10.4929   27.1959 H   0  0  0  0  0  0  0  0  0  0  0  0
    6.5595    9.4145   25.8808 H   0  0  0  0  0  0  0  0  0  0  0  0
    6.1451   11.1068   25.5230 H   0  0  0  0  0  0  0  0  0  0  0  0
    3.0669    9.4588   23.7534 H   0  0  0  0  0  0  0  0  0  0  0  0
    4.1903   10.8349   23.7539 H   0  0  0  0  0  0  0  0  0  0  0  0
    4.8211    9.1800   23.6397 H   0  0  0  0  0  0  0  0  0  0  0  0
    3.7472    9.6366   30.5231 H   0  0  0  0  0  0  0  0  0  0  0  0
    2.4988   10.9023   30.6224 H   0  0  0  0  0  0  0  0  0  0  0  0
    2.0559    9.1969   30.8275 H   0  0  0  0  0  0  0  0  0  0  0  0
    0.3238   10.2824   27.3775 H   0  0  0  0  0  0  0  0  0  0  0  0
    0.0706    9.2100   28.7530 H   0  0  0  0  0  0  0  0  0  0  0  0
    0.3808   10.9385   29.0365 H   0  0  0  0  0  0  0  0  0  0  0  0
    4.1725    6.3273   25.8940 P   0  0  0  0  0  4  0  0  0  0  0  0
    3.2497    4.8127   26.3733 C   0  0  0  0  0  0  0  0  0  0  0  0
    3.1338    4.7524   27.8881 C   0  0  0  0  0  0  0  0  0  0  0  0
    2.4114    6.3271   28.5053 P   0  0  0  0  0  4  0  0  0  0  0  0
    2.7126    6.2136   30.2984 C   0  0  0  0  0  0  0  0  0  0  0  0
    3.7467    6.4612   30.5230 H   0  0  0  0  0  0  0  0  0  0  0  0
    2.4985    5.1952   30.6221 H   0  0  0  0  0  0  0  0  0  0  0  0
    2.0553    6.9005   30.8271 H   0  0  0  0  0  0  0  0  0  0  0  0
    0.6218    6.0149   28.4051 C   0  0  0  0  0  0  0  0  0  0  0  0
    0.3242    5.8149   27.3772 H   0  0  0  0  0  0  0  0  0  0  0  0
    0.0706    6.8875   28.7524 H   0  0  0  0  0  0  0  0  0  0  0  0
    0.3809    5.1591   29.0362 H   0  0  0  0  0  0  0  0  0  0  0  0
    4.1222    4.6411   28.3445 H   0  0  0  0  0  0  0  0  0  0  0  0
    2.5047    3.9174   28.2111 H   0  0  0  0  0  0  0  0  0  0  0  0
    2.2582    4.8725   25.9112 H   0  0  0  0  0  0  0  0  0  0  0  0
    3.7652    3.9357   25.9703 H   0  0  0  0  0  0  0  0  0  0  0  0
    5.9131    5.8503   26.1512 C   0  0  0  0  0  0  0  0  0  0  0  0
    6.0869    5.6047   27.1956 H   0  0  0  0  0  0  0  0  0  0  0  0
    6.5593    6.6832   25.8807 H   0  0  0  0  0  0  0  0  0  0  0  0
    6.1449    4.9909   25.5227 H   0  0  0  0  0  0  0  0  0  0  0  0
    4.0457    6.2933   24.0802 C   0  0  0  0  0  0  0  0  0  0  0  0
    3.0666    6.6386   23.7538 H   0  0  0  0  0  0  0  0  0  0  0  0
    4.1901    5.2626   23.7542 H   0  0  0  0  0  0  0  0  0  0  0  0
    4.8207    6.9175   23.6399 H   0  0  0  0  0  0  0  0  0  0  0  0
  1 32  1  0  0  0  0
  1  6  1  0  0  0  0
  2  1  1  0  0  0  0
  3  4  1  0  0  0  0
  5  9  1  0  0  0  0
  5  7  1  0  0  0  0
  5  1  1  0  0  0  0
  6 11  1  0  0  0  0
  7  8  1  0  0  0  0
  8 16  1  0  0  0  0
  8 15  1  0  0  0  0
  8  6  1  0  0  0  0
  9 17  1  0  0  0  0
 10  5  1  0  0  0  0
 11 23  1  0  0  0  0
 11 24  1  0  0  0  0
 11 25  1  0  0  0  0
 12  6  1  0  0  0  0
 12 27  1  0  0  0  0
 12 28  1  0  0  0  0
 13  7  1  0  0  0  0
 14  7  1  0  0  0  0
 18  9  1  0  0  0  0
 19  9  1  0  0  0  0
 20 10  1  0  0  0  0
 21 10  1  0  0  0  0
 22 10  1  0  0  0  0
 26 12  1  0  0  0  0
 29 45  1  0  0  0  0
 29 30  1  0  0  0  0
 29  1  1  0  0  0  0
 30 31  1  0  0  0  0
 31 42  1  0  0  0  0
 31 41  1  0  0  0  0
 31 32  1  0  0  0  0
 32 33  1  0  0  0  0
 33 34  1  0  0  0  0
 33 35  1  0  0  0  0
 33 36  1  0  0  0  0
 37 32  1  0  0  0  0
 37 39  1  0  0  0  0
 37 40  1  0  0  0  0
 38 37  1  0  0  0  0
 43 30  1  0  0  0  0
 44 30  1  0  0  0  0
 45 46  1  0  0  0  0
 47 45  1  0  0  0  0
 48 45  1  0  0  0  0
 49 29  1  0  0  0  0
 50 49  1  0  0  0  0
 51 49  1  0  0  0  0
 52 49  1  0  0  0  0
M  END
$$$$
