CSD_code = QUMROF | q = 0 | S = 0 | Stoichiometry = C15H13ClN4Pd | MND = 4
 OpenBabel04212202093D

 34 38  0  0  0  0  0  0  0  0999 V2000
    1.3628   15.4941   11.9954 Pd  0  0  2  0  0  0  0  0  0  0  0  0
    0.6472   13.6313   12.8585 Cl  0  0  0  0  0  0  0  0  0  0  0  0
    1.9975   17.1192   11.2890 N   0  0  0  0  0  0  0  0  0  0  0  0
    1.9724   17.2887    9.9211 C   0  0  0  0  0  0  0  0  0  0  0  0
    2.3873   18.4017    9.2132 C   0  0  0  0  0  0  0  0  0  0  0  0
    2.7822   19.2603    9.7338 H   0  0  0  0  0  0  0  0  0  0  0  0
    2.4528   18.0702   12.0462 N   0  0  0  0  0  0  0  0  0  0  0  0
    1.9448   16.5813   13.8461 N   0  0  0  0  0  0  0  0  0  0  0  0
    2.2834   18.3881    7.8194 C   0  0  0  0  0  0  0  0  0  0  0  0
    2.6067   19.2567    7.2646 H   0  0  0  0  0  0  0  0  0  0  0  0
    2.8219   18.5546   14.3583 N   0  0  0  0  0  0  0  0  0  0  0  0
    1.7817   17.2989    7.1471 C   0  0  0  0  0  3  0  0  0  0  0  0
    1.7122   17.3142    6.0688 H   0  0  0  0  0  0  0  0  0  0  0  0
    1.3490   16.1471    7.8387 C   0  0  0  0  0  0  0  0  0  0  0  0
    0.8229   14.9927    7.2221 C   0  0  0  0  0  0  0  0  0  0  0  0
    0.7358   14.9632    6.1455 H   0  0  0  0  0  0  0  0  0  0  0  0
    0.4301   13.9280    7.9873 C   0  0  0  0  0  0  0  0  0  0  0  0
    0.0276   13.0458    7.5098 H   0  0  0  0  0  0  0  0  0  0  0  0
    0.5344   13.9441    9.3922 C   0  0  0  0  0  0  0  0  0  0  0  0
    0.2094   13.0754    9.9498 H   0  0  0  0  0  0  0  0  0  0  0  0
    1.0408   15.0447   10.0467 C   0  0  0  0  0  0  0  0  0  0  0  0
    1.4480   16.1489    9.2483 C   0  0  0  0  0  0  0  0  0  0  0  0
    2.4039   17.7448   13.3545 C   0  0  0  0  0  0  0  0  0  0  0  0
    2.0684   16.6629   15.1918 C   0  0  0  0  0  0  0  0  0  0  0  0
    1.7693   15.8540   15.8293 H   0  0  0  0  0  0  0  0  0  0  0  0
    2.6040   17.8780   15.5234 C   0  0  0  0  0  0  0  0  0  0  0  0
    2.8491   18.3001   16.4762 H   0  0  0  0  0  0  0  0  0  0  0  0
    3.3203   19.8956   14.1971 C   0  0  0  0  0  0  0  0  0  0  0  0
    3.9763   19.9072   13.3230 H   0  0  0  0  0  0  0  0  0  0  0  0
    3.8992   20.1535   15.0871 H   0  0  0  0  0  0  0  0  0  0  0  0
    2.1755   20.8842   13.9951 C   0  0  0  0  0  0  0  0  0  0  0  0
    1.6105   20.6160   13.1060 H   0  0  0  0  0  0  0  0  0  0  0  0
    2.5713   21.8879   13.8700 H   0  0  0  0  0  0  0  0  0  0  0  0
    1.5061   20.8756   14.8523 H   0  0  0  0  0  0  0  0  0  0  0  0
  1  2  1  6  0  0  0
  1  8  1  0  0  0  0
  3  1  1  0  0  0  0
  3  7  1  0  0  0  0
  4  3  1  0  0  0  0
  5  6  1  0  0  0  0
  5  4  1  0  0  0  0
  7 23  2  0  0  0  0
  8 24  1  0  0  0  0
  9  5  2  0  0  0  0
 10  9  1  0  0  0  0
 11 26  1  0  0  0  0
 12  9  1  0  0  0  0
 12 14  1  0  0  0  0
 13 12  1  0  0  0  0
 14 22  1  0  0  0  0
 15 14  2  0  0  0  0
 15 17  1  0  0  0  0
 16 15  1  0  0  0  0
 17 19  2  0  0  0  0
 18 17  1  0  0  0  0
 19 20  1  0  0  0  0
 19 21  1  0  0  0  0
 21  1  2  0  0  0  0
 22  4  2  0  0  0  0
 22 21  1  0  0  0  0
 23  8  1  0  0  0  0
 23 11  1  0  0  0  0
 24 26  2  0  0  0  0
 24 25  1  0  0  0  0
 26 27  1  0  0  0  0
 28 11  1  0  0  0  0
 28 30  1  0  0  0  0
 29 28  1  0  0  0  0
 31 28  1  0  0  0  0
 31 34  1  0  0  0  0
 32 31  1  0  0  0  0
 33 31  1  0  0  0  0
M  END
$$$$
