CSD_code = QUMWOK | q = 0 | S = 0 | Stoichiometry = C26H39ClNPTi | MND = 8
 OpenBabel04212202093D

 69 71  0  0  1  0  0  0  0  0999 V2000
    0.5859    7.6716    3.8806 Ti  0  0  2  0  0  0  0  0  0  0  0  0
   -0.0459    9.3734    5.1416 Cl  0  0  0  0  0  0  0  0  0  0  0  0
    3.3048    9.2234    2.8544 P   0  0  0  0  0  4  0  0  0  0  0  0
    2.1189    8.3116    3.2930 N   0  0  0  0  0  2  0  0  0  0  0  0
   -1.6119    6.8758    3.5838 C   0  0  0  0  0  0  0  0  0  0  0  0
   -2.3379    6.7648    4.3792 H   0  0  0  0  0  0  0  0  0  0  0  0
   -1.4798    7.9919    2.7357 C   0  0  0  0  0  0  0  0  0  0  0  0
   -2.0887    8.8886    2.7649 H   0  0  0  0  0  0  0  0  0  0  0  0
   -0.5044    7.6906    1.7630 C   0  0  0  0  0  0  0  0  0  0  0  0
   -0.2747    8.2932    0.8927 H   0  0  0  0  0  0  0  0  0  0  0  0
   -0.0202    6.3882    2.0208 C   0  0  0  0  0  0  0  0  0  0  0  0
    0.6443    5.8182    1.3807 H   0  0  0  0  0  0  0  0  0  0  0  0
   -0.7220    5.8832    3.1387 C   0  0  1  0  0  0  0  0  0  0  0  0
   -0.6785    4.8649    3.4977 H   0  0  0  0  0  0  0  0  0  0  0  0
    4.1214    8.3552    1.3371 C   0  0  0  0  0  0  0  0  0  0  0  0
    3.1588    8.5352    0.1625 C   0  0  0  0  0  0  0  0  0  0  0  0
    3.1496    9.5543   -0.2116 H   0  0  0  0  0  0  0  0  0  0  0  0
    2.1554    8.2444    0.4725 H   0  0  0  0  0  0  0  0  0  0  0  0
    3.4614    7.8896   -0.6625 H   0  0  0  0  0  0  0  0  0  0  0  0
    4.1453    6.8534    1.6346 C   0  0  0  0  0  0  0  0  0  0  0  0
    4.9753    6.5647    2.2701 H   0  0  0  0  0  0  0  0  0  0  0  0
    4.2385    6.2965    0.7028 H   0  0  0  0  0  0  0  0  0  0  0  0
    3.2076    6.5664    2.1188 H   0  0  0  0  0  0  0  0  0  0  0  0
    5.5110    8.8448    0.9468 C   0  0  0  0  0  0  0  0  0  0  0  0
    6.2508    8.5967    1.7031 H   0  0  0  0  0  0  0  0  0  0  0  0
    5.5286    9.9175    0.7795 H   0  0  0  0  0  0  0  0  0  0  0  0
    5.8125    8.3546    0.0205 H   0  0  0  0  0  0  0  0  0  0  0  0
    2.6716   10.9817    2.3800 C   0  0  0  0  0  0  0  0  0  0  0  0
    1.3144   10.8103    1.6978 C   0  0  0  0  0  0  0  0  0  0  0  0
    1.3913   10.3806    0.7047 H   0  0  0  0  0  0  0  0  0  0  0  0
    0.8320   11.7827    1.6017 H   0  0  0  0  0  0  0  0  0  0  0  0
    0.6815   10.1715    2.3233 H   0  0  0  0  0  0  0  0  0  0  0  0
    2.3934   11.7531    3.6708 C   0  0  0  0  0  0  0  0  0  0  0  0
    3.3057   12.0527    4.1755 H   0  0  0  0  0  0  0  0  0  0  0  0
    1.7755   11.1576    4.3412 H   0  0  0  0  0  0  0  0  0  0  0  0
    1.8433   12.6630    3.4303 H   0  0  0  0  0  0  0  0  0  0  0  0
    3.6251   11.7929    1.5069 C   0  0  0  0  0  0  0  0  0  0  0  0
    3.7303   11.3715    0.5113 H   0  0  0  0  0  0  0  0  0  0  0  0
    4.6104   11.8691    1.9580 H   0  0  0  0  0  0  0  0  0  0  0  0
    3.2287   12.8023    1.3949 H   0  0  0  0  0  0  0  0  0  0  0  0
    4.5597    9.3764    4.3107 C   0  0  0  0  0  0  0  0  0  0  0  0
    5.1760    7.9891    4.4886 C   0  0  0  0  0  0  0  0  0  0  0  0
    4.3859    7.2402    4.5158 H   0  0  0  0  0  0  0  0  0  0  0  0
    5.7235    7.9457    5.4302 H   0  0  0  0  0  0  0  0  0  0  0  0
    5.8802    7.7559    3.6952 H   0  0  0  0  0  0  0  0  0  0  0  0
    3.7563    9.6822    5.5817 C   0  0  0  0  0  0  0  0  0  0  0  0
    3.7070   10.7455    5.7914 H   0  0  0  0  0  0  0  0  0  0  0  0
    4.2244    9.2047    6.4415 H   0  0  0  0  0  0  0  0  0  0  0  0
    2.7377    9.2954    5.4883 H   0  0  0  0  0  0  0  0  0  0  0  0
    5.6749   10.4005    4.1232 C   0  0  0  0  0  0  0  0  0  0  0  0
    5.2927   11.4159    4.0769 H   0  0  0  0  0  0  0  0  0  0  0  0
    6.2527   10.2078    3.2242 H   0  0  0  0  0  0  0  0  0  0  0  0
    6.3509   10.3417    4.9766 H   0  0  0  0  0  0  0  0  0  0  0  0
    1.4399    6.5218    5.4679 C   0  0  2  0  0  0  0  0  0  0  0  0
    2.0820    7.2149    6.0244 H   0  0  0  0  0  0  0  0  0  0  0  0
    2.0650    5.3582    4.8484 C   0  0  0  0  0  0  0  0  0  0  0  0
    3.0107    5.3868    4.3218 H   0  0  0  0  0  0  0  0  0  0  0  0
    1.3271    4.2366    5.0696 C   0  0  0  0  0  0  0  0  0  0  0  0
    1.5374    3.2461    4.7028 H   0  0  0  0  0  0  0  0  0  0  0  0
    0.2038    4.5802    5.8927 C   0  0  0  0  0  0  0  0  0  0  0  0
   -0.8367    3.8170    6.4123 C   0  0  0  0  0  0  0  0  0  0  0  0
   -0.9084    2.7612    6.1891 H   0  0  0  0  0  0  0  0  0  0  0  0
   -1.7688    4.4310    7.2250 C   0  0  0  0  0  0  0  0  0  0  0  0
   -2.5821    3.8529    7.6406 H   0  0  0  0  0  0  0  0  0  0  0  0
   -1.6717    5.7876    7.5309 C   0  0  0  0  0  0  0  0  0  0  0  0
   -2.4055    6.2342    8.1872 H   0  0  0  0  0  0  0  0  0  0  0  0
   -0.6534    6.5665    7.0125 C   0  0  0  0  0  0  0  0  0  0  0  0
   -0.5821    7.6189    7.2642 H   0  0  0  0  0  0  0  0  0  0  0  0
    0.2825    5.9708    6.1720 C   0  0  0  0  0  0  0  0  0  0  0  0
  1  2  1  1  0  0  0
  1 54  1  0  0  0  0
  3  4  1  0  0  0  0
  3 41  1  0  0  0  0
  4  1  1  0  0  0  0
  5  6  1  0  0  0  0
  7  8  1  0  0  0  0
  7  5  2  0  0  0  0
  9 11  2  0  0  0  0
  9  7  1  0  0  0  0
 10  9  1  0  0  0  0
 11 13  1  0  0  0  0
 12 11  1  0  0  0  0
 13 14  1  1  0  0  0
 13  5  1  0  0  0  0
 13  1  1  0  0  0  0
 15 20  1  0  0  0  0
 15  3  1  0  0  0  0
 16 18  1  0  0  0  0
 16 15  1  0  0  0  0
 17 16  1  0  0  0  0
 19 16  1  0  0  0  0
 20 23  1  0  0  0  0
 20 21  1  0  0  0  0
 22 20  1  0  0  0  0
 24 15  1  0  0  0  0
 24 25  1  0  0  0  0
 26 24  1  0  0  0  0
 27 24  1  0  0  0  0
 28  3  1  0  0  0  0
 28 33  1  0  0  0  0
 29 32  1  0  0  0  0
 29 28  1  0  0  0  0
 30 29  1  0  0  0  0
 31 29  1  0  0  0  0
 33 34  1  0  0  0  0
 33 35  1  0  0  0  0
 36 33  1  0  0  0  0
 37 39  1  0  0  0  0
 37 28  1  0  0  0  0
 38 37  1  0  0  0  0
 40 37  1  0  0  0  0
 41 42  1  0  0  0  0
 41 46  1  0  0  0  0
 42 43  1  0  0  0  0
 42 44  1  0  0  0  0
 45 42  1  0  0  0  0
 46 47  1  0  0  0  0
 46 48  1  0  0  0  0
 49 46  1  0  0  0  0
 50 41  1  0  0  0  0
 50 53  1  0  0  0  0
 51 50  1  0  0  0  0
 52 50  1  0  0  0  0
 54 55  1  1  0  0  0
 54 69  1  0  0  0  0
 56 58  2  0  0  0  0
 56 54  1  0  0  0  0
 57 56  1  0  0  0  0
 58 60  1  0  0  0  0
 59 58  1  0  0  0  0
 60 69  2  0  0  0  0
 60 61  1  0  0  0  0
 61 63  2  0  0  0  0
 62 61  1  0  0  0  0
 63 65  1  0  0  0  0
 63 64  1  0  0  0  0
 65 66  1  0  0  0  0
 67 68  1  0  0  0  0
 67 65  2  0  0  0  0
 69 67  1  0  0  0  0
M  END
$$$$
