CSD_code = QUNDOS | q = 0 | S = 0 | Stoichiometry = C16H27ClN3ORh | MND = 6
 OpenBabel04212202093D

 49 49  0  0  1  0  0  0  0  0999 V2000
    1.8863    3.1368    8.3636 Rh  0  0  0  0  0  0  0  0  0  0  0  0
    2.3684    5.3235    8.6586 Cl  0  0  0  0  0 15  0  0  0  0  0  0
    3.9682    2.8688    7.8756 N   0  0  0  0  0  2  0  0  0  0  0  0
    4.6896    1.7479    9.8146 N   0  0  0  0  0  0  0  0  0  0  0  0
    5.7814    1.2501    7.9738 N   0  0  0  0  0  0  0  0  0  0  0  0
    3.6530    2.1222    4.9482 O   0  0  0  0  0  0  0  0  0  0  0  0
    0.1589    3.3617    9.5456 C   0  0  2  0  0  0  0  0  0  0  0  0
    0.2538    4.2672   10.1451 H   0  0  0  0  0  0  0  0  0  0  0  0
   -0.1106    2.1183   10.3635 C   0  0  0  0  0  0  0  0  0  0  0  0
   -1.1811    2.0619   10.5899 H   0  0  0  0  0  0  0  0  0  0  0  0
    0.4138    2.2202   11.3170 H   0  0  0  0  0  0  0  0  0  0  0  0
    0.3539    0.8250    9.6662 C   0  0  0  0  0  0  0  0  0  0  0  0
    0.6566    0.1015   10.4266 H   0  0  0  0  0  0  0  0  0  0  0  0
   -0.4715    0.3770    9.1104 H   0  0  0  0  0  0  0  0  0  0  0  0
    1.5126    1.0670    8.7197 C   0  0  0  0  0  3  0  0  0  0  0  0
    2.4347    0.5611    9.0017 H   0  0  0  0  0  0  0  0  0  0  0  0
    1.3410    1.3515    7.3665 C   0  0  1  0  0  0  0  0  0  0  0  0
    2.1367    1.0438    6.6888 H   0  0  0  0  0  0  0  0  0  0  0  0
   -0.0077    1.4876    6.6939 C   0  0  0  0  0  0  0  0  0  0  0  0
   -0.4701    0.4973    6.6066 H   0  0  0  0  0  0  0  0  0  0  0  0
    0.1514    1.8552    5.6770 H   0  0  0  0  0  0  0  0  0  0  0  0
   -0.9535    2.4541    7.4302 C   0  0  0  0  0  0  0  0  0  0  0  0
   -1.6030    2.9416    6.7002 H   0  0  0  0  0  0  0  0  0  0  0  0
   -1.5984    1.9059    8.1190 H   0  0  0  0  0  0  0  0  0  0  0  0
   -0.1928    3.5116    8.2038 C   0  0  0  0  0  3  0  0  0  0  0  0
   -0.3198    4.5295    7.8343 H   0  0  0  0  0  0  0  0  0  0  0  0
    4.3835    3.6151    6.7042 C   0  0  0  0  0  0  0  0  0  0  0  0
    5.4185    3.4035    6.4252 H   0  0  0  0  0  0  0  0  0  0  0  0
    4.3113    4.6772    6.9725 H   0  0  0  0  0  0  0  0  0  0  0  0
    3.4679    3.4128    5.4988 C   0  0  0  0  0  0  0  0  0  0  0  0
    2.4188    3.5483    5.8262 H   0  0  0  0  0  0  0  0  0  0  0  0
    3.6980    4.1747    4.7392 H   0  0  0  0  0  0  0  0  0  0  0  0
    2.8912    1.9088    3.7898 C   0  0  0  0  0  0  0  0  0  0  0  0
    1.8193    2.0195    3.9918 H   0  0  0  0  0  0  0  0  0  0  0  0
    3.0949    0.8912    3.4605 H   0  0  0  0  0  0  0  0  0  0  0  0
    3.1716    2.6135    2.9970 H   0  0  0  0  0  0  0  0  0  0  0  0
    4.7564    2.0255    8.4713 C   0  0  2  0  0  3  0  0  0  0  0  0
    5.6570    0.8227   10.1354 C   0  0  0  0  0  0  0  0  0  0  0  0
    5.7780    0.4651   11.1366 H   0  0  0  0  0  0  0  0  0  0  0  0
    6.3278    0.5191    9.0113 C   0  0  0  0  0  0  0  0  0  0  0  0
    7.1426   -0.1545    8.8467 H   0  0  0  0  0  0  0  0  0  0  0  0
    3.8756    2.4232   10.7882 C   0  0  0  0  0  0  0  0  0  0  0  0
    3.1350    3.0483   10.2600 H   0  0  0  0  0  0  0  0  0  0  0  0
    4.4939    3.0680   11.4166 H   0  0  0  0  0  0  0  0  0  0  0  0
    3.3593    1.6958   11.4163 H   0  0  0  0  0  0  0  0  0  0  0  0
    6.1367    1.0186    6.5979 C   0  0  0  0  0  0  0  0  0  0  0  0
    5.2769    1.1990    5.9541 H   0  0  0  0  0  0  0  0  0  0  0  0
    6.4475   -0.0211    6.4891 H   0  0  0  0  0  0  0  0  0  0  0  0
    6.9665    1.6604    6.2866 H   0  0  0  0  0  0  0  0  0  0  0  0
  1  7  1  0  0  0  0
  4 38  1  0  0  0  0
  4 42  1  0  0  0  0
  5 37  1  0  0  0  0
  5 40  1  0  0  0  0
  6 30  1  0  0  0  0
  7  8  1  1  0  0  0
  7  9  1  0  0  0  0
  9 10  1  0  0  0  0
  9 11  1  0  0  0  0
 12  9  1  0  0  0  0
 12 13  1  0  0  0  0
 14 12  1  0  0  0  0
 15 16  1  0  0  0  0
 15 12  1  0  0  0  0
 17 18  1  6  0  0  0
 17  1  1  0  0  0  0
 17 15  1  0  0  0  0
 19 17  1  0  0  0  0
 19 22  1  0  0  0  0
 20 19  1  0  0  0  0
 21 19  1  0  0  0  0
 22 24  1  0  0  0  0
 22 25  1  0  0  0  0
 23 22  1  0  0  0  0
 25  7  1  0  0  0  0
 26 25  1  0  0  0  0
 27 29  1  0  0  0  0
 27  3  1  0  0  0  0
 28 27  1  0  0  0  0
 30 31  1  0  0  0  0
 30 27  1  0  0  0  0
 32 30  1  0  0  0  0
 33 34  1  0  0  0  0
 33  6  1  0  0  0  0
 35 33  1  0  0  0  0
 36 33  1  0  0  0  0
 37  3  1  1  0  0  0
 37  4  1  0  0  0  0
 38 39  1  0  0  0  0
 40 38  2  0  0  0  0
 41 40  1  0  0  0  0
 42 45  1  0  0  0  0
 42 44  1  0  0  0  0
 43 42  1  0  0  0  0
 46  5  1  0  0  0  0
 47 46  1  0  0  0  0
 48 46  1  0  0  0  0
 49 46  1  0  0  0  0
M  END
$$$$
