CSD_code = QUNDUY | q = 0 | S = 0 | Stoichiometry = C16H30Cl2N6O2Pd | MND = 4
 OpenBabel04212202093D

 57 58  0  0  1  0  0  0  0  0999 V2000
    3.8300    6.5422    3.8790 Pd  0  0  0  0  0  0  0  0  0  0  0  0
    3.7164    6.4989    1.5799 Cl  0  0  0  0  0  0  0  0  0  0  0  0
    5.7515    5.7792    3.9411 N   0  0  0  0  0  0  0  0  0  0  0  0
    5.1038    3.5706    4.3174 N   0  0  0  0  0  0  0  0  0  0  0  0
    6.5259    4.3754    5.7891 N   0  0  0  0  0  0  0  0  0  0  0  0
    7.6013    8.7946    3.0527 O   0  0  0  0  0  0  0  0  0  0  0  0
    6.7225    6.8395    4.1056 C   0  0  0  0  0  0  0  0  0  0  0  0
    6.6737    7.7488    2.8742 C   0  0  0  0  0  0  0  0  0  0  0  0
    5.7905    4.6978    4.6762 C   0  0  1  0  0  3  0  0  0  0  0  0
    7.1203    5.2963    6.7288 C   0  0  0  0  0  0  0  0  0  0  0  0
    6.2500    3.0634    6.1197 C   0  0  0  0  0  0  0  0  0  0  0  0
    5.3814    2.5704    5.2182 C   0  0  0  0  0  0  0  0  0  0  0  0
    4.2141    3.4820    3.1925 C   0  0  0  0  0  0  0  0  0  0  0  0
    7.6328    9.6783    1.9624 C   0  0  0  0  0  0  0  0  0  0  0  0
    6.5307    7.4557    4.9975 H   0  0  0  0  0  0  0  0  0  0  0  0
    7.7341    6.4214    4.1722 H   0  0  0  0  0  0  0  0  0  0  0  0
    6.9129    7.1641    1.9731 H   0  0  0  0  0  0  0  0  0  0  0  0
    5.6509    8.1589    2.7456 H   0  0  0  0  0  0  0  0  0  0  0  0
    7.4067    4.7362    7.6165 H   0  0  0  0  0  0  0  0  0  0  0  0
    8.0051    5.7801    6.3168 H   0  0  0  0  0  0  0  0  0  0  0  0
    6.3812    6.0504    7.0090 H   0  0  0  0  0  0  0  0  0  0  0  0
    6.7026    2.5989    6.9707 H   0  0  0  0  0  0  0  0  0  0  0  0
    4.9404    1.5990    5.1343 H   0  0  0  0  0  0  0  0  0  0  0  0
    3.3339    4.1390    3.3365 H   0  0  0  0  0  0  0  0  0  0  0  0
    4.7289    3.8086    2.2838 H   0  0  0  0  0  0  0  0  0  0  0  0
    3.8824    2.4516    3.0814 H   0  0  0  0  0  0  0  0  0  0  0  0
    7.9309    9.1634    1.0407 H   0  0  0  0  0  0  0  0  0  0  0  0
    8.3648   10.4467    2.2037 H   0  0  0  0  0  0  0  0  0  0  0  0
    6.6514   10.1422    1.7985 H   0  0  0  0  0  0  0  0  0  0  0  0
    3.9427    6.5854    6.1784 Cl  0  0  0  0  0  0  0  0  0  0  0  0
    1.9082    7.3048    3.8177 N   0  0  0  0  0  0  0  0  0  0  0  0
    0.9374    6.2443    3.6532 C   0  0  0  0  0  0  0  0  0  0  0  0
    0.9861    5.3352    4.8847 C   0  0  0  0  0  0  0  0  0  0  0  0
    0.0590    4.2889    4.7060 O   0  0  0  0  0  0  0  0  0  0  0  0
    0.0274    3.4056    5.7966 C   0  0  0  0  0  0  0  0  0  0  0  0
   -0.2715    3.9205    6.7180 H   0  0  0  0  0  0  0  0  0  0  0  0
   -0.7038    2.6366    5.5552 H   0  0  0  0  0  0  0  0  0  0  0  0
    1.0091    2.9424    5.9612 H   0  0  0  0  0  0  0  0  0  0  0  0
    0.7463    5.9199    5.7857 H   0  0  0  0  0  0  0  0  0  0  0  0
    2.0091    4.9255    5.0138 H   0  0  0  0  0  0  0  0  0  0  0  0
    1.1294    5.6281    2.7613 H   0  0  0  0  0  0  0  0  0  0  0  0
   -0.0742    6.6622    3.5862 H   0  0  0  0  0  0  0  0  0  0  0  0
    1.8690    8.3863    3.0827 C   0  0  2  0  0  3  0  0  0  0  0  0
    2.5553    9.5136    3.4417 N   0  0  0  0  0  0  0  0  0  0  0  0
    2.2775   10.5138    2.5411 C   0  0  0  0  0  0  0  0  0  0  0  0
    1.4093   10.0206    1.6393 C   0  0  0  0  0  0  0  0  0  0  0  0
    1.1336    8.7085    1.9697 N   0  0  0  0  0  0  0  0  0  0  0  0
    0.5398    7.7875    1.0298 C   0  0  0  0  0  0  0  0  0  0  0  0
    0.2536    8.3476    0.1420 H   0  0  0  0  0  0  0  0  0  0  0  0
   -0.3450    7.3035    1.4415 H   0  0  0  0  0  0  0  0  0  0  0  0
    1.2793    7.0336    0.7499 H   0  0  0  0  0  0  0  0  0  0  0  0
    0.9567   10.4851    0.7884 H   0  0  0  0  0  0  0  0  0  0  0  0
    2.7183   11.4853    2.6252 H   0  0  0  0  0  0  0  0  0  0  0  0
    3.4449    9.6022    4.5668 C   0  0  0  0  0  0  0  0  0  0  0  0
    4.3254    8.9455    4.4228 H   0  0  0  0  0  0  0  0  0  0  0  0
    2.9299    9.2753    5.4754 H   0  0  0  0  0  0  0  0  0  0  0  0
    3.7764   10.6326    4.6782 H   0  0  0  0  0  0  0  0  0  0  0  0
  1  3  1  0  0  0  0
  1 30  1  0  0  0  0
  2  1  1  0  0  0  0
  3  7  1  0  0  0  0
  4  9  1  0  0  0  0
  4 12  1  0  0  0  0
  5 11  1  0  0  0  0
  5 10  1  0  0  0  0
  7 16  1  0  0  0  0
  7 15  1  0  0  0  0
  8  6  1  0  0  0  0
  8  7  1  0  0  0  0
  9  3  1  6  0  0  0
  9  5  1  0  0  0  0
 10 21  1  0  0  0  0
 10 19  1  0  0  0  0
 11 22  1  0  0  0  0
 12 11  2  0  0  0  0
 13 24  1  0  0  0  0
 13  4  1  0  0  0  0
 14 28  1  0  0  0  0
 14  6  1  0  0  0  0
 17  8  1  0  0  0  0
 18  8  1  0  0  0  0
 20 10  1  0  0  0  0
 23 12  1  0  0  0  0
 25 13  1  0  0  0  0
 26 13  1  0  0  0  0
 27 14  1  0  0  0  0
 29 14  1  0  0  0  0
 31  1  1  0  0  0  0
 32 31  1  0  0  0  0
 32 33  1  0  0  0  0
 33 40  1  0  0  0  0
 33 39  1  0  0  0  0
 34 33  1  0  0  0  0
 34 35  1  0  0  0  0
 35 38  1  0  0  0  0
 35 36  1  0  0  0  0
 37 35  1  0  0  0  0
 41 32  1  0  0  0  0
 42 32  1  0  0  0  0
 43 44  1  0  0  0  0
 43 31  1  1  0  0  0
 44 54  1  0  0  0  0
 45 53  1  0  0  0  0
 45 44  1  0  0  0  0
 46 47  1  0  0  0  0
 46 45  2  0  0  0  0
 47 43  1  0  0  0  0
 48 50  1  0  0  0  0
 48 47  1  0  0  0  0
 49 48  1  0  0  0  0
 51 48  1  0  0  0  0
 52 46  1  0  0  0  0
 54 57  1  0  0  0  0
 54 56  1  0  0  0  0
 55 54  1  0  0  0  0
M  END
$$$$
