CSD_code = QUNJAL | q = 0 | S = 0 | Stoichiometry = C26H26Cl2F6N2O2Ti | MND = 6
 OpenBabel04212202093D

 65 68  0  0  1  0  0  0  0  0999 V2000
    6.3352    8.5977    7.5873 Ti  0  0  0  0  0  0  0  0  0  0  0  0
    5.0516    7.0186    8.4617 Cl  0  0  0  0  0  0  0  0  0  0  0  0
    4.7499   10.0203    6.9776 Cl  0  0  0  0  0  0  0  0  0  0  0  0
    7.7461    9.9323    6.7530 N   0  0  0  0  0  0  0  0  0  0  0  0
    8.0123    7.4379    8.1373 N   0  0  0  0  0  0  0  0  0  0  0  0
    6.3021    7.8447    5.9510 O   0  0  0  0  0  0  0  0  0  0  0  0
    6.5143    9.3598    9.2110 O   0  0  0  0  0  0  0  0  0  0  0  0
    8.2254   10.7692    7.7830 C   0  0  0  0  0  0  0  0  0  0  0  0
    9.4002   10.4448    8.4592 C   0  0  0  0  0  0  0  0  0  0  0  0
    9.9856    9.5942    8.1359 H   0  0  0  0  0  0  0  0  0  0  0  0
    9.8060   11.2037    9.5435 C   0  0  0  0  0  0  0  0  0  0  0  0
   10.7134   10.9427   10.0670 H   0  0  0  0  0  0  0  0  0  0  0  0
    9.0512   12.2868    9.9609 C   0  0  0  0  0  0  0  0  0  0  0  0
    9.3646   12.8648   10.8159 H   0  0  0  0  0  0  0  0  0  0  0  0
    7.8856   12.6156    9.2861 C   0  0  0  0  0  0  0  0  0  0  0  0
    7.2887   13.4528    9.6131 H   0  0  0  0  0  0  0  0  0  0  0  0
    7.4703   11.8681    8.1999 C   0  0  0  0  0  0  0  0  0  0  0  0
    6.5442   12.0940    7.6879 H   0  0  0  0  0  0  0  0  0  0  0  0
    7.8589   10.2494    5.5020 C   0  0  1  0  0  3  0  0  0  0  0  0
    8.5615   11.5112    5.0517 C   0  0  0  0  0  0  0  0  0  0  0  0
    8.9413   12.0256    5.9409 H   0  0  0  0  0  0  0  0  0  0  0  0
    9.7493   11.1923    4.1414 C   0  0  0  0  0  0  0  0  0  0  0  0
   10.4468   10.5249    4.6424 H   0  0  0  0  0  0  0  0  0  0  0  0
   10.2726   12.1126    3.8933 H   0  0  0  0  0  0  0  0  0  0  0  0
    9.4278   10.7235    3.2158 H   0  0  0  0  0  0  0  0  0  0  0  0
    7.5523   12.4285    4.3552 C   0  0  0  0  0  0  0  0  0  0  0  0
    8.0155   13.3888    4.1419 H   0  0  0  0  0  0  0  0  0  0  0  0
    6.6864   12.5922    4.9919 H   0  0  0  0  0  0  0  0  0  0  0  0
    7.2101   11.9948    3.4197 H   0  0  0  0  0  0  0  0  0  0  0  0
    7.3219    9.3961    4.4901 C   0  0  0  0  0  0  0  0  0  0  0  0
    7.4768    9.6501    3.4551 H   0  0  0  0  0  0  0  0  0  0  0  0
    6.6028    8.2759    4.7887 C   0  0  0  0  0  0  0  0  0  0  0  0
    6.1069    7.4083    3.6276 C   0  0  0  0  0  0  0  0  0  0  0  0
    8.3796    6.6400    7.0327 C   0  0  0  0  0  0  0  0  0  0  0  0
    7.6838    5.4591    6.7626 C   0  0  0  0  0  0  0  0  0  0  0  0
    6.8991    5.1454    7.4383 H   0  0  0  0  0  0  0  0  0  0  0  0
    7.9697    4.7395    5.6174 C   0  0  0  0  0  0  0  0  0  0  0  0
    7.4170    3.8371    5.4063 H   0  0  0  0  0  0  0  0  0  0  0  0
    8.9489    5.1768    4.7388 C   0  0  0  0  0  0  0  0  0  0  0  0
    9.1607    4.6184    3.8407 H   0  0  0  0  0  0  0  0  0  0  0  0
    9.6452    6.3425    5.0091 C   0  0  0  0  0  0  0  0  0  0  0  0
   10.4064    6.6884    4.3262 H   0  0  0  0  0  0  0  0  0  0  0  0
    9.3662    7.0755    6.1499 C   0  0  0  0  0  0  0  0  0  0  0  0
    9.9039    7.9909    6.3583 H   0  0  0  0  0  0  0  0  0  0  0  0
    8.4010    7.1622    9.3419 C   0  0  1  0  0  3  0  0  0  0  0  0
    9.3266    6.0039    9.6435 C   0  0  0  0  0  0  0  0  0  0  0  0
    9.5716    5.5080    8.6982 H   0  0  0  0  0  0  0  0  0  0  0  0
    8.6067    4.9973   10.5449 C   0  0  0  0  0  0  0  0  0  0  0  0
    9.2191    4.1064   10.6616 H   0  0  0  0  0  0  0  0  0  0  0  0
    7.6538    4.7106   10.1070 H   0  0  0  0  0  0  0  0  0  0  0  0
    8.4178    5.4169   11.5289 H   0  0  0  0  0  0  0  0  0  0  0  0
   10.6309    6.4921   10.2780 C   0  0  0  0  0  0  0  0  0  0  0  0
   11.1272    7.2090    9.6278 H   0  0  0  0  0  0  0  0  0  0  0  0
   11.2984    5.6473   10.4301 H   0  0  0  0  0  0  0  0  0  0  0  0
   10.4536    6.9644   11.2399 H   0  0  0  0  0  0  0  0  0  0  0  0
    7.9723    7.9668   10.4415 C   0  0  0  0  0  0  0  0  0  0  0  0
    8.3546    7.7538   11.4255 H   0  0  0  0  0  0  0  0  0  0  0  0
    7.0819    8.9895   10.2918 C   0  0  0  0  0  0  0  0  0  0  0  0
    6.7141    9.8126   11.5304 C   0  0  0  0  0  0  0  0  0  0  0  0
    7.1280    6.9836    2.8557 F   0  0  0  0  0  0  0  0  0  0  0  0
    5.4682    6.3254    4.0587 F   0  0  0  0  0  0  0  0  0  0  0  0
    5.2807    8.0719    2.8065 F   0  0  0  0  0  0  0  0  0  0  0  0
    5.9710   10.8700   11.2157 F   0  0  0  0  0  0  0  0  0  0  0  0
    6.0387    9.0967   12.4396 F   0  0  0  0  0  0  0  0  0  0  0  0
    7.8101   10.2747   12.1647 F   0  0  0  0  0  0  0  0  0  0  0  0
  1  5  1  0  0  0  0
  1  2  1  0  0  0  0
  1  7  1  0  0  0  0
  3  1  1  0  0  0  0
  4  1  1  0  0  0  0
  4  8  1  0  0  0  0
  5 45  1  0  0  0  0
  6  1  1  0  0  0  0
  7 58  1  0  0  0  0
  8 17  2  0  0  0  0
  8  9  1  0  0  0  0
  9 11  2  0  0  0  0
 10  9  1  0  0  0  0
 11 13  1  0  0  0  0
 11 12  1  0  0  0  0
 13 14  1  0  0  0  0
 15 16  1  0  0  0  0
 15 13  2  0  0  0  0
 17 15  1  0  0  0  0
 18 17  1  0  0  0  0
 19 20  1  6  0  0  0
 19  4  1  0  0  0  0
 20 21  1  0  0  0  0
 22 23  1  0  0  0  0
 22 20  1  0  0  0  0
 24 22  1  0  0  0  0
 25 22  1  0  0  0  0
 26 28  1  0  0  0  0
 26 20  1  0  0  0  0
 27 26  1  0  0  0  0
 29 26  1  0  0  0  0
 30 32  2  0  0  0  0
 30 19  1  0  0  0  0
 31 30  1  0  0  0  0
 32  6  1  0  0  0  0
 33 61  1  0  0  0  0
 33 32  1  0  0  0  0
 34  5  1  0  0  0  0
 35 34  1  0  0  0  0
 35 36  1  0  0  0  0
 37 35  2  0  0  0  0
 38 37  1  0  0  0  0
 39 41  2  0  0  0  0
 39 37  1  0  0  0  0
 40 39  1  0  0  0  0
 41 43  1  0  0  0  0
 42 41  1  0  0  0  0
 43 44  1  0  0  0  0
 43 34  2  0  0  0  0
 45 46  1  6  0  0  0
 45 56  1  0  0  0  0
 46 52  1  0  0  0  0
 46 48  1  0  0  0  0
 47 46  1  0  0  0  0
 48 49  1  0  0  0  0
 48 51  1  0  0  0  0
 50 48  1  0  0  0  0
 52 54  1  0  0  0  0
 52 55  1  0  0  0  0
 53 52  1  0  0  0  0
 56 57  1  0  0  0  0
 58 56  2  0  0  0  0
 58 59  1  0  0  0  0
 59 65  1  0  0  0  0
 59 64  1  0  0  0  0
 60 33  1  0  0  0  0
 62 33  1  0  0  0  0
 63 59  1  0  0  0  0
M  END
$$$$
