CSD_code = QUNKEQ | q = 0 | S = 0 | Stoichiometry = C12H11Cl3N3V | MND = 6
 OpenBabel04212202093D

 30 32  0  0  0  0  0  0  0  0999 V2000
    8.4828    4.3797    3.9185 V   0  0  0  0  0  0  0  0  0  0  0  0
    7.9936    5.1700    5.7894 Cl  0  0  0  0  0  0  0  0  0  0  0  0
   10.5708    5.2216    3.9747 Cl  0  0  0  0  0  0  0  0  0  0  0  0
    8.9291    3.0158    2.3418 Cl  0  0  0  0  0  0  0  0  0  0  0  0
    6.6699    3.6534    3.7727 N   0  0  0  0  0  0  0  0  0  0  0  0
    7.7771    5.6941    2.7895 N   0  0  0  0  0  0  0  0  0  0  0  0
    9.3697    2.6283    5.2129 N   0  0  0  0  0  2  0  0  0  0  0  0
    6.1167    4.0442    2.6055 C   0  0  0  0  0  0  0  0  0  0  0  0
    4.9667    3.4138    2.1114 C   0  0  0  0  0  0  0  0  0  0  0  0
    4.5540    3.7036    1.1585 H   0  0  0  0  0  0  0  0  0  0  0  0
    4.3828    2.4109    2.8523 C   0  0  0  0  0  0  0  0  0  0  0  0
    3.5053    1.9003    2.4860 H   0  0  0  0  0  0  0  0  0  0  0  0
    4.9362    2.0681    4.0870 C   0  0  0  0  0  0  0  0  0  0  0  0
    4.4927    1.2978    4.6969 H   0  0  0  0  0  0  0  0  0  0  0  0
    6.0826    2.7162    4.4998 C   0  0  0  0  0  0  0  0  0  0  0  0
    6.5769    2.4721    5.4330 H   0  0  0  0  0  0  0  0  0  0  0  0
    6.7451    5.2168    2.0422 C   0  0  0  0  0  0  0  0  0  0  0  0
    6.2785    5.9297    0.9320 C   0  0  0  0  0  0  0  0  0  0  0  0
    5.4935    5.5146    0.3198 H   0  0  0  0  0  0  0  0  0  0  0  0
    6.8266    7.1567    0.6324 C   0  0  0  0  0  0  0  0  0  0  0  0
    6.4885    7.7165   -0.2255 H   0  0  0  0  0  0  0  0  0  0  0  0
    7.8162    7.6738    1.4739 C   0  0  0  0  0  0  0  0  0  0  0  0
    8.2466    8.6450    1.2893 H   0  0  0  0  0  0  0  0  0  0  0  0
    8.2564    6.9131    2.5326 C   0  0  0  0  0  0  0  0  0  0  0  0
    9.0481    7.2571    3.1893 H   0  0  0  0  0  0  0  0  0  0  0  0
   10.4786    2.5265    5.4824 C   0  0  0  0  0  2  0  0  0  0  0  0
   11.8612    2.4035    5.8222 C   0  0  0  0  0  0  0  0  0  0  0  0
   12.3689    3.3081    5.4829 H   0  0  0  0  0  0  0  0  0  0  0  0
   12.2892    1.5365    5.3210 H   0  0  0  0  0  0  0  0  0  0  0  0
   11.9736    2.3023    6.9010 H   0  0  0  0  0  0  0  0  0  0  0  0
  1  3  1  0  0  0  0
  1  7  1  0  0  0  0
  1  2  1  0  0  0  0
  4  1  1  0  0  0  0
  5  1  1  0  0  0  0
  5 15  1  0  0  0  0
  6  1  1  0  0  0  0
  7 26  1  0  0  0  0
  8  5  1  0  0  0  0
  9  8  1  0  0  0  0
  9 11  2  0  0  0  0
 10  9  1  0  0  0  0
 11 13  1  0  0  0  0
 12 11  1  0  0  0  0
 13 15  2  0  0  0  0
 13 14  1  0  0  0  0
 15 16  1  0  0  0  0
 17  8  2  0  0  0  0
 17  6  1  0  0  0  0
 18 17  1  0  0  0  0
 19 18  1  0  0  0  0
 20 18  2  0  0  0  0
 20 22  1  0  0  0  0
 21 20  1  0  0  0  0
 22 24  2  0  0  0  0
 23 22  1  0  0  0  0
 24  6  1  0  0  0  0
 24 25  1  0  0  0  0
 26 27  1  0  0  0  0
 27 30  1  0  0  0  0
 28 27  1  0  0  0  0
 29 27  1  0  0  0  0
M  END
$$$$
