CSD_code = QUPCIN | q = 0 | S = 0 | Stoichiometry = C17H13Cl2NTi | MND = 8
 OpenBabel04212202093D

 34 37  0  0  1  0  0  0  0  0999 V2000
   25.9344    0.3609    3.9324 Ti  0  0  0  0  0  0  0  0  0  0  0  0
   24.2286    0.4116    5.2644 Cl  0  0  0  0  0  0  0  0  0  0  0  0
   26.3369   -1.7304    4.3204 Cl  0  0  0  0  0  0  0  0  0  0  0  0
   27.2440    1.2050    4.9400 N   0  0  0  0  0  0  0  0  0  0  0  0
   24.6419    1.4798    2.3512 C   0  0  0  0  0  0  0  0  0  0  0  0
   25.9303    2.0598    2.3596 C   0  0  0  0  0  3  0  0  0  0  0  0
   26.8539    1.0743    1.9312 C   0  0  2  0  0  0  0  0  0  0  0  0
   26.1309   -0.1090    1.6590 C   0  0  0  0  0  3  0  0  0  0  0  0
   24.7670    0.1382    1.9279 C   0  0  0  0  0  0  0  0  0  0  0  0
   27.0732    2.3059    5.7616 C   0  0  0  0  0  0  0  0  0  0  0  0
   25.9567    3.1295    5.8839 C   0  0  0  0  0  0  0  0  0  0  0  0
   26.0265    4.1857    6.7750 C   0  0  0  0  0  0  0  0  0  0  0  0
   27.1753    4.4340    7.5227 C   0  0  0  0  0  0  0  0  0  0  0  0
   28.2984    3.6399    7.3870 C   0  0  0  0  0  0  0  0  0  0  0  0
   28.2554    2.5767    6.4971 C   0  0  0  0  0  0  0  0  0  0  0  0
   29.2198    1.5971    6.0675 C   0  0  0  0  0  0  0  0  0  0  0  0
   30.5484    1.3553    6.3846 C   0  0  0  0  0  0  0  0  0  0  0  0
   31.2102    0.3365    5.7255 C   0  0  0  0  0  0  0  0  0  0  0  0
   30.5666   -0.4261    4.7536 C   0  0  0  0  0  0  0  0  0  0  0  0
   29.2411   -0.2078    4.4221 C   0  0  0  0  0  0  0  0  0  0  0  0
   28.5573    0.7981    5.1008 C   0  0  0  0  0  0  0  0  0  0  0  0
   23.7101    1.9999    2.5387 H   0  0  0  0  0  0  0  0  0  0  0  0
   26.1573    3.1055    2.5324 H   0  0  0  0  0  0  0  0  0  0  0  0
   27.9040    1.2419    1.7216 H   0  0  0  0  0  0  0  0  0  0  0  0
   26.5368   -1.0154    1.2258 H   0  0  0  0  0  0  0  0  0  0  0  0
   23.9482   -0.5452    1.7356 H   0  0  0  0  0  0  0  0  0  0  0  0
   25.0598    2.9514    5.2980 H   0  0  0  0  0  0  0  0  0  0  0  0
   25.1719    4.8356    6.8912 H   0  0  0  0  0  0  0  0  0  0  0  0
   27.1877    5.2661    8.2105 H   0  0  0  0  0  0  0  0  0  0  0  0
   29.1936    3.8423    7.9554 H   0  0  0  0  0  0  0  0  0  0  0  0
   31.0522    1.9557    7.1270 H   0  0  0  0  0  0  0  0  0  0  0  0
   32.2445    0.1315    5.9578 H   0  0  0  0  0  0  0  0  0  0  0  0
   31.1168   -1.2034    4.2444 H   0  0  0  0  0  0  0  0  0  0  0  0
   28.7519   -0.8016    3.6556 H   0  0  0  0  0  0  0  0  0  0  0  0
  1  3  1  0  0  0  0
  1  4  1  0  0  0  0
  1  2  1  0  0  0  0
  4 21  1  0  0  0  0
  4 10  1  0  0  0  0
  5  6  1  0  0  0  0
  5 22  1  0  0  0  0
  6 23  1  0  0  0  0
  7 24  1  6  0  0  0
  7  6  1  0  0  0  0
  7  1  1  0  0  0  0
  8  9  1  0  0  0  0
  8  7  1  0  0  0  0
  9  5  2  0  0  0  0
 10 11  2  0  0  0  0
 10 15  1  0  0  0  0
 11 12  1  0  0  0  0
 12 28  1  0  0  0  0
 12 13  2  0  0  0  0
 13 29  1  0  0  0  0
 14 13  1  0  0  0  0
 14 30  1  0  0  0  0
 15 14  2  0  0  0  0
 16 17  1  0  0  0  0
 16 15  1  0  0  0  0
 17 31  1  0  0  0  0
 18 32  1  0  0  0  0
 18 17  2  0  0  0  0
 19 18  1  0  0  0  0
 20 19  2  0  0  0  0
 20 21  1  0  0  0  0
 21 16  2  0  0  0  0
 25  8  1  0  0  0  0
 26  9  1  0  0  0  0
 27 11  1  0  0  0  0
 33 19  1  0  0  0  0
 34 20  1  0  0  0  0
M  END
$$$$
