CSD_code = QUSHOC | q = 0 | S = 0 | Stoichiometry = C15H15Cl2F2NO2PtS | MND = 4
 OpenBabel04212202093D

 39 40  0  0  0  0  0  0  0  0999 V2000
    5.3577   20.8949    1.0277 Pt  0  0  0  0  0  0  0  0  0  0  0  0
    3.3093   20.6305    0.0522 Cl  0  0  0  0  0  0  0  0  0  0  0  0
    5.2774   23.1520    1.0381 Cl  0  0  0  0  0  0  0  0  0  0  0  0
    7.2623   21.1825    2.2726 S   0  0  0  0  0  0  0  0  0  0  0  0
   11.1130   19.0561   -0.2597 F   0  0  0  0  0  0  0  0  0  0  0  0
    6.0439   14.4418    3.7307 F   0  0  0  0  0  0  0  0  0  0  0  0
    4.3716   18.2957    1.6673 O   0  0  0  0  0  0  0  0  0  0  0  0
    3.5973   18.8479    1.3987 H   0  0  0  0  0  0  0  0  0  0  0  0
    7.9538   19.9572    2.6515 O   0  0  0  0  0  1  0  0  0  0  0  0
    5.4441   18.8995    1.0552 N   0  0  0  0  0  0  0  0  0  0  0  0
    6.4648   18.1938    0.7194 C   0  0  0  0  0  3  0  0  0  0  0  0
    8.5025   22.3345    1.6106 C   0  0  0  0  0  0  0  0  0  0  0  0
    9.2768   22.4763    2.3549 H   0  0  0  0  0  0  0  0  0  0  0  0
    7.9885   23.2598    1.3781 H   0  0  0  0  0  0  0  0  0  0  0  0
    8.9203   21.8948    0.7118 H   0  0  0  0  0  0  0  0  0  0  0  0
    6.8615   22.0675    3.8069 C   0  0  0  0  0  0  0  0  0  0  0  0
    7.7703   22.1972    4.3828 H   0  0  0  0  0  0  0  0  0  0  0  0
    6.1516   21.4625    4.3619 H   0  0  0  0  0  0  0  0  0  0  0  0
    6.4165   23.0169    3.5320 H   0  0  0  0  0  0  0  0  0  0  0  0
    7.5108   18.8757   -0.0577 C   0  0  0  0  0  0  0  0  0  0  0  0
    8.8531   18.6124    0.2004 C   0  0  0  0  0  0  0  0  0  0  0  0
    9.1446   17.9207    0.9734 H   0  0  0  0  0  0  0  0  0  0  0  0
    9.8145   19.2952   -0.5196 C   0  0  0  0  0  0  0  0  0  0  0  0
    9.4886   20.2204   -1.4976 C   0  0  0  0  0  0  0  0  0  0  0  0
   10.2721   20.7320   -2.0339 H   0  0  0  0  0  0  0  0  0  0  0  0
    8.1500   20.4529   -1.7691 C   0  0  0  0  0  0  0  0  0  0  0  0
    7.8742   21.1542   -2.5405 H   0  0  0  0  0  0  0  0  0  0  0  0
    7.1629   19.7912   -1.0573 C   0  0  0  0  0  0  0  0  0  0  0  0
    6.1225   19.9289   -1.3319 H   0  0  0  0  0  0  0  0  0  0  0  0
    6.6312   16.7721    1.0345 C   0  0  0  0  0  0  0  0  0  0  0  0
    6.2248   16.2676    2.2679 C   0  0  0  0  0  0  0  0  0  0  0  0
    5.7852   16.9049    3.0169 H   0  0  0  0  0  0  0  0  0  0  0  0
    6.4197   14.9262    2.5330 C   0  0  0  0  0  0  0  0  0  0  0  0
    6.9889   14.0649    1.6113 C   0  0  0  0  0  0  0  0  0  0  0  0
    7.1167   13.0229    1.8579 H   0  0  0  0  0  0  0  0  0  0  0  0
    7.3832   14.5755    0.3855 C   0  0  0  0  0  0  0  0  0  0  0  0
    7.8266   13.9202   -0.3481 H   0  0  0  0  0  0  0  0  0  0  0  0
    7.2163   15.9169    0.0983 C   0  0  0  0  0  0  0  0  0  0  0  0
    7.5196   16.3065   -0.8613 H   0  0  0  0  0  0  0  0  0  0  0  0
  1  3  1  0  0  0  0
  1 10  1  0  0  0  0
  1  4  1  0  0  0  0
  2  1  1  0  0  0  0
  4  9  1  0  0  0  0
  4 16  1  0  0  0  0
  8  7  1  0  0  0  0
 10  7  1  0  0  0  0
 11 30  1  0  0  0  0
 11 10  1  0  0  0  0
 12  4  1  0  0  0  0
 12 13  1  0  0  0  0
 14 12  1  0  0  0  0
 15 12  1  0  0  0  0
 16 18  1  0  0  0  0
 16 17  1  0  0  0  0
 19 16  1  0  0  0  0
 20 21  1  0  0  0  0
 20 11  1  0  0  0  0
 21 22  1  0  0  0  0
 23  5  1  0  0  0  0
 23 21  2  0  0  0  0
 24 23  1  0  0  0  0
 25 24  1  0  0  0  0
 26 24  2  0  0  0  0
 26 28  1  0  0  0  0
 27 26  1  0  0  0  0
 28 20  2  0  0  0  0
 29 28  1  0  0  0  0
 30 31  1  0  0  0  0
 31 33  2  0  0  0  0
 31 32  1  0  0  0  0
 33  6  1  0  0  0  0
 34 35  1  0  0  0  0
 34 33  1  0  0  0  0
 36 34  2  0  0  0  0
 37 36  1  0  0  0  0
 38 36  1  0  0  0  0
 38 30  2  0  0  0  0
 39 38  1  0  0  0  0
M  END
$$$$
