CSD_code = QUSZOV | q = 0 | S = 0 | Stoichiometry = C14H10Cl4N2Pd | MND = 4
 OpenBabel04212202093D

 31 34  0  0  0  0  0  0  0  0999 V2000
   11.7181   10.6260    9.0552 Pd  0  0  0  0  0  0  0  0  0  0  0  0
   10.8043   10.0365   10.9877 Cl  0  0  0  0  0  0  0  0  0  0  0  0
   12.0630   12.6035    9.9980 Cl  0  0  0  0  0  0  0  0  0  0  0  0
    8.3080    6.4901    5.4869 Cl  0  0  0  0  0  0  0  0  0  0  0  0
   11.4679   12.8987    3.0375 Cl  0  0  0  0  0  0  0  0  0  0  0  0
   12.2306   11.2108    7.1339 N   0  0  0  0  0  0  0  0  0  0  0  0
   11.1126    8.9455    8.0007 N   0  0  0  0  0  0  0  0  0  0  0  0
   10.7242    7.7455    8.4086 C   0  0  0  0  0  0  0  0  0  0  0  0
    9.8461    6.9701    7.6348 C   0  0  0  0  0  0  0  0  0  0  0  0
    9.5196    6.0125    8.0074 H   0  0  0  0  0  0  0  0  0  0  0  0
    9.4049    7.4316    6.4172 C   0  0  0  0  0  0  0  0  0  0  0  0
    9.8871    8.6635    5.9201 C   0  0  0  0  0  0  0  0  0  0  0  0
    9.5738    9.1942    4.6415 C   0  0  0  0  0  0  0  0  0  0  0  0
    8.8827    8.6494    4.0181 H   0  0  0  0  0  0  0  0  0  0  0  0
   10.1418   10.3458    4.2012 C   0  0  0  0  0  0  0  0  0  0  0  0
    9.9101   10.7327    3.2215 H   0  0  0  0  0  0  0  0  0  0  0  0
   11.0694   11.0601    5.0036 C   0  0  0  0  0  0  0  0  0  0  0  0
   11.7660   12.2170    4.5871 C   0  0  0  0  0  0  0  0  0  0  0  0
   12.7125   12.7752    5.4135 C   0  0  0  0  0  0  0  0  0  0  0  0
   13.2822   13.6321    5.0918 H   0  0  0  0  0  0  0  0  0  0  0  0
   12.9425   12.2368    6.6895 C   0  0  0  0  0  0  0  0  0  0  0  0
   11.3493   10.5996    6.3080 C   0  0  0  0  0  0  0  0  0  0  0  0
   10.7500    9.3849    6.7728 C   0  0  0  0  0  0  0  0  0  0  0  0
   11.2633    7.2303    9.6936 C   0  0  0  0  0  0  0  0  0  0  0  0
   12.2146    7.7198    9.9158 H   0  0  0  0  0  0  0  0  0  0  0  0
   11.3858    6.1510    9.6600 H   0  0  0  0  0  0  0  0  0  0  0  0
   10.5803    7.4864   10.5054 H   0  0  0  0  0  0  0  0  0  0  0  0
   14.0107   12.7848    7.5651 C   0  0  0  0  0  0  0  0  0  0  0  0
   13.6167   13.6213    8.1444 H   0  0  0  0  0  0  0  0  0  0  0  0
   14.8569   13.1295    6.9763 H   0  0  0  0  0  0  0  0  0  0  0  0
   14.3252   12.0227    8.2823 H   0  0  0  0  0  0  0  0  0  0  0  0
  1  3  1  0  0  0  0
  1  2  1  0  0  0  0
  4 11  1  0  0  0  0
  5 18  1  0  0  0  0
  6  1  1  0  0  0  0
  7  8  1  0  0  0  0
  7  1  1  0  0  0  0
  8 24  1  0  0  0  0
  9 10  1  0  0  0  0
  9  8  2  0  0  0  0
 11  9  1  0  0  0  0
 12 11  2  0  0  0  0
 12 23  1  0  0  0  0
 13 12  1  0  0  0  0
 14 13  1  0  0  0  0
 15 13  2  0  0  0  0
 15 17  1  0  0  0  0
 16 15  1  0  0  0  0
 17 22  1  0  0  0  0
 18 17  2  0  0  0  0
 18 19  1  0  0  0  0
 19 21  2  0  0  0  0
 20 19  1  0  0  0  0
 21  6  1  0  0  0  0
 21 28  1  0  0  0  0
 22 23  2  0  0  0  0
 22  6  1  0  0  0  0
 23  7  1  0  0  0  0
 24 25  1  0  0  0  0
 24 27  1  0  0  0  0
 26 24  1  0  0  0  0
 28 29  1  0  0  0  0
 28 31  1  0  0  0  0
 30 28  1  0  0  0  0
M  END
$$$$
