CSD_code = QUTNUO | q = 0 | S = 0 | Stoichiometry = C18H33AuBrPSe | MND = 2
 OpenBabel04212202093D

 55 57  0  0  0  0  0  0  0  0999 V2000
   -0.5419    5.7384    6.5635 Au  0  0  0  0  0  0  0  0  0  0  0  0
    0.4968    4.2520    5.0122 Br  0  0  0  0  0  0  0  0  0  0  0  0
   -2.2262    6.9591    7.8467 Se  0  0  0  0  0  0  0  0  0  0  0  0
   -3.6673    5.6122    6.9793 P   0  0  0  0  0  4  0  0  0  0  0  0
   -5.3393    6.3591    7.3041 C   0  0  0  0  0  0  0  0  0  0  0  0
   -6.0879    5.6900    6.8630 H   0  0  0  0  0  0  0  0  0  0  0  0
   -5.4314    7.7324    6.6417 C   0  0  0  0  0  0  0  0  0  0  0  0
   -4.6247    8.3654    7.0233 H   0  0  0  0  0  0  0  0  0  0  0  0
   -5.3059    7.6414    5.5612 H   0  0  0  0  0  0  0  0  0  0  0  0
   -6.7746    8.3929    6.9384 C   0  0  0  0  0  0  0  0  0  0  0  0
   -7.5792    7.7898    6.5090 H   0  0  0  0  0  0  0  0  0  0  0  0
   -6.8057    9.3766    6.4667 H   0  0  0  0  0  0  0  0  0  0  0  0
   -6.9854    8.5247    8.4419 C   0  0  0  0  0  0  0  0  0  0  0  0
   -6.2100    9.1685    8.8620 H   0  0  0  0  0  0  0  0  0  0  0  0
   -7.9531    8.9862    8.6449 H   0  0  0  0  0  0  0  0  0  0  0  0
   -6.9141    7.1511    9.0985 C   0  0  0  0  0  0  0  0  0  0  0  0
   -7.7216    6.5216    8.7151 H   0  0  0  0  0  0  0  0  0  0  0  0
   -7.0463    7.2434   10.1779 H   0  0  0  0  0  0  0  0  0  0  0  0
   -5.5714    6.4850    8.8094 C   0  0  0  0  0  0  0  0  0  0  0  0
   -5.5484    5.5038    9.2880 H   0  0  0  0  0  0  0  0  0  0  0  0
   -4.7688    7.0920    9.2393 H   0  0  0  0  0  0  0  0  0  0  0  0
   -3.4976    5.2678    5.1502 C   0  0  0  0  0  0  0  0  0  0  0  0
   -2.7469    4.4632    5.1131 H   0  0  0  0  0  0  0  0  0  0  0  0
   -2.9490    6.4516    4.3551 C   0  0  0  0  0  0  0  0  0  0  0  0
   -3.6868    7.2546    4.3029 H   0  0  0  0  0  0  0  0  0  0  0  0
   -2.0536    6.8561    4.8385 H   0  0  0  0  0  0  0  0  0  0  0  0
   -2.6015    5.9862    2.9437 C   0  0  0  0  0  0  0  0  0  0  0  0
   -2.2024    6.8251    2.3716 H   0  0  0  0  0  0  0  0  0  0  0  0
   -1.8265    5.2189    2.9954 H   0  0  0  0  0  0  0  0  0  0  0  0
   -3.8413    5.4257    2.2533 C   0  0  0  0  0  0  0  0  0  0  0  0
   -3.5768    5.0599    1.2606 H   0  0  0  0  0  0  0  0  0  0  0  0
   -4.5816    6.2209    2.1308 H   0  0  0  0  0  0  0  0  0  0  0  0
   -4.4468    4.2917    3.0746 C   0  0  0  0  0  0  0  0  0  0  0  0
   -5.3540    3.9224    2.5920 H   0  0  0  0  0  0  0  0  0  0  0  0
   -3.7339    3.4663    3.1292 H   0  0  0  0  0  0  0  0  0  0  0  0
   -4.7803    4.7664    4.4897 C   0  0  0  0  0  0  0  0  0  0  0  0
   -5.2237    3.9464    5.0559 H   0  0  0  0  0  0  0  0  0  0  0  0
   -5.5139    5.5741    4.4338 H   0  0  0  0  0  0  0  0  0  0  0  0
   -3.6523    3.9957    7.9185 C   0  0  0  0  0  0  0  0  0  0  0  0
   -3.6454    4.3404    8.9647 H   0  0  0  0  0  0  0  0  0  0  0  0
   -2.3808    3.1814    7.6924 C   0  0  0  0  0  0  0  0  0  0  0  0
   -1.4979    3.8103    7.8475 H   0  0  0  0  0  0  0  0  0  0  0  0
   -2.3474    2.8005    6.6687 H   0  0  0  0  0  0  0  0  0  0  0  0
   -2.3327    2.0071    8.6671 C   0  0  0  0  0  0  0  0  0  0  0  0
   -1.4265    1.4279    8.4852 H   0  0  0  0  0  0  0  0  0  0  0  0
   -2.2891    2.3877    9.6905 H   0  0  0  0  0  0  0  0  0  0  0  0
   -3.5627    1.1204    8.5037 C   0  0  0  0  0  0  0  0  0  0  0  0
   -3.5343    0.3086    9.2321 H   0  0  0  0  0  0  0  0  0  0  0  0
   -3.5590    0.6753    7.5064 H   0  0  0  0  0  0  0  0  0  0  0  0
   -4.8357    1.9399    8.6888 C   0  0  0  0  0  0  0  0  0  0  0  0
   -4.8750    2.3311    9.7084 H   0  0  0  0  0  0  0  0  0  0  0  0
   -5.7134    1.3081    8.5392 H   0  0  0  0  0  0  0  0  0  0  0  0
   -4.8703    3.1008    7.6944 C   0  0  0  0  0  0  0  0  0  0  0  0
   -4.8428    2.6893    6.6836 H   0  0  0  0  0  0  0  0  0  0  0  0
   -5.8014    3.6577    7.8163 H   0  0  0  0  0  0  0  0  0  0  0  0
  1  3  1  0  0  0  0
  2  1  1  0  0  0  0
  4  5  1  0  0  0  0
  4  3  1  0  0  0  0
  4 39  1  0  0  0  0
  5 19  1  0  0  0  0
  6  5  1  0  0  0  0
  7 10  1  0  0  0  0
  7  8  1  0  0  0  0
  7  5  1  0  0  0  0
  9  7  1  0  0  0  0
 10 13  1  0  0  0  0
 11 10  1  0  0  0  0
 12 10  1  0  0  0  0
 13 15  1  0  0  0  0
 13 14  1  0  0  0  0
 13 16  1  0  0  0  0
 16 18  1  0  0  0  0
 17 16  1  0  0  0  0
 19 16  1  0  0  0  0
 19 21  1  0  0  0  0
 19 20  1  0  0  0  0
 22  4  1  0  0  0  0
 23 22  1  0  0  0  0
 24 26  1  0  0  0  0
 24 22  1  0  0  0  0
 25 24  1  0  0  0  0
 27 29  1  0  0  0  0
 27 24  1  0  0  0  0
 28 27  1  0  0  0  0
 30 27  1  0  0  0  0
 30 33  1  0  0  0  0
 31 30  1  0  0  0  0
 32 30  1  0  0  0  0
 33 35  1  0  0  0  0
 33 36  1  0  0  0  0
 34 33  1  0  0  0  0
 36 37  1  0  0  0  0
 36 22  1  0  0  0  0
 38 36  1  0  0  0  0
 39 40  1  0  0  0  0
 41 42  1  0  0  0  0
 41 39  1  0  0  0  0
 41 44  1  0  0  0  0
 43 41  1  0  0  0  0
 44 46  1  0  0  0  0
 45 44  1  0  0  0  0
 47 44  1  0  0  0  0
 47 50  1  0  0  0  0
 47 48  1  0  0  0  0
 49 47  1  0  0  0  0
 50 51  1  0  0  0  0
 52 50  1  0  0  0  0
 53 55  1  0  0  0  0
 53 39  1  0  0  0  0
 53 50  1  0  0  0  0
 54 53  1  0  0  0  0
M  END
$$$$
