CSD_code = QUTPEA | q = 0 | S = 0 | Stoichiometry = C24H34Cl2Si2Zr | MND = 12
 OpenBabel04212202093D

 63 67  0  0  1  0  0  0  0  0999 V2000
    4.4792    4.6231    4.4122 Zr  0  0  0  0  0  0  0  0  0  0  0  0
    3.2151    4.6240    6.3881 Cl  0  0  0  0  0  0  0  0  0  0  0  0
    6.5237    4.6248    5.5746 Cl  0  0  0  0  0  0  0  0  0  0  0  0
    5.4348    2.7331    3.0869 C   0  0  0  0  0  0  0  0  0  0  0  0
    4.2119    3.1498    2.5103 C   0  0  0  0  0  0  0  0  0  0  0  0
    3.1504    2.8770    3.4267 C   0  0  1  0  0  0  0  0  0  0  0  0
    3.7479    2.2480    4.5549 C   0  0  0  0  0  0  0  0  0  0  0  0
    5.1375    2.1491    4.3556 C   0  0  0  0  0  0  0  0  0  0  0  0
    6.0918    1.3920    5.2260 C   0  0  0  0  0  0  0  0  0  0  0  0
    6.7141    0.1954    4.4388 C   0  0  0  0  0  0  0  0  0  0  0  0
    7.7137    0.6621    3.4601 C   0  0  0  0  0  3  0  0  0  0  0  0
    7.2980    1.2954    2.1942 C   0  0  0  0  0  0  0  0  0  0  0  0
    6.7800    2.7512    2.4275 C   0  0  0  0  0  0  0  0  0  0  0  0
    1.3545    3.4291    3.2940 Si  0  0  0  0  0  0  0  0  0  0  0  0
    0.6212    2.7003    1.6802 C   0  0  0  0  0  0  0  0  0  0  0  0
    0.4169    2.7002    4.7891 C   0  0  0  0  0  0  0  0  0  0  0  0
    4.0824    3.4520    1.4770 H   0  0  0  0  0  0  0  0  0  0  0  0
    3.2073    1.8319    5.3968 H   0  0  0  0  0  0  0  0  0  0  0  0
    6.9090    2.0283    5.5766 H   0  0  0  0  0  0  0  0  0  0  0  0
    5.5557    1.0073    6.0975 H   0  0  0  0  0  0  0  0  0  0  0  0
    6.7109    3.2599    1.4611 H   0  0  0  0  0  0  0  0  0  0  0  0
    7.5107    3.2776    3.0524 H   0  0  0  0  0  0  0  0  0  0  0  0
    6.4884    0.7299    1.7249 H   0  0  0  0  0  0  0  0  0  0  0  0
    8.1412    1.3445    1.5022 H   0  0  0  0  0  0  0  0  0  0  0  0
    8.7100    0.8654    3.8188 H   0  0  0  0  0  0  0  0  0  0  0  0
    7.1814   -0.4736    5.1638 H   0  0  0  0  0  0  0  0  0  0  0  0
    5.8995   -0.3364    3.9405 H   0  0  0  0  0  0  0  0  0  0  0  0
   -0.4172    2.9927    1.5704 H   0  0  0  0  0  0  0  0  0  0  0  0
    1.1527    3.0496    0.8011 H   0  0  0  0  0  0  0  0  0  0  0  0
    0.6599    1.6156    1.6774 H   0  0  0  0  0  0  0  0  0  0  0  0
   -0.6313    2.9797    4.7658 H   0  0  0  0  0  0  0  0  0  0  0  0
    0.4655    1.6152    4.8069 H   0  0  0  0  0  0  0  0  0  0  0  0
    0.8377    3.0721    5.7189 H   0  0  0  0  0  0  0  0  0  0  0  0
    5.4347    6.5133    3.0870 C   0  0  0  0  0  0  0  0  0  0  0  0
    4.2118    6.0966    2.5104 C   0  0  0  0  0  0  0  0  0  0  0  0
    3.1504    6.3694    3.4270 C   0  0  2  0  0  0  0  0  0  0  0  0
    4.0822    5.7945    1.4771 H   0  0  0  0  0  0  0  0  0  0  0  0
    3.7480    6.9982    4.5551 C   0  0  0  0  0  0  0  0  0  0  0  0
    5.1376    7.0972    4.3557 C   0  0  0  0  0  0  0  0  0  0  0  0
    6.7799    6.4951    2.4274 C   0  0  0  0  0  0  0  0  0  0  0  0
    7.2978    7.9509    2.1939 C   0  0  0  0  0  0  0  0  0  0  0  0
    7.7136    8.5843    3.4597 C   0  0  0  0  0  3  0  0  0  0  0  0
    6.7140    9.0510    4.4385 C   0  0  0  0  0  0  0  0  0  0  0  0
    6.0920    7.8545    5.2259 C   0  0  0  0  0  0  0  0  0  0  0  0
    3.2075    7.4145    5.3971 H   0  0  0  0  0  0  0  0  0  0  0  0
    6.9092    7.2181    5.5765 H   0  0  0  0  0  0  0  0  0  0  0  0
    5.5560    8.2392    6.0975 H   0  0  0  0  0  0  0  0  0  0  0  0
    7.1814    9.7202    5.1633 H   0  0  0  0  0  0  0  0  0  0  0  0
    5.8993    9.5827    3.9402 H   0  0  0  0  0  0  0  0  0  0  0  0
    8.7099    8.3812    3.8184 H   0  0  0  0  0  0  0  0  0  0  0  0
    6.4882    8.5163    1.7246 H   0  0  0  0  0  0  0  0  0  0  0  0
    8.1411    7.9018    1.5019 H   0  0  0  0  0  0  0  0  0  0  0  0
    6.7107    5.9863    1.4611 H   0  0  0  0  0  0  0  0  0  0  0  0
    7.5106    5.9689    3.0523 H   0  0  0  0  0  0  0  0  0  0  0  0
    1.3545    5.8174    3.2943 Si  0  0  0  0  0  0  0  0  0  0  0  0
    0.6210    6.5466    1.6808 C   0  0  0  0  0  0  0  0  0  0  0  0
   -0.4174    6.2542    1.5711 H   0  0  0  0  0  0  0  0  0  0  0  0
    1.1524    6.1975    0.8015 H   0  0  0  0  0  0  0  0  0  0  0  0
    0.6596    7.6313    1.6782 H   0  0  0  0  0  0  0  0  0  0  0  0
    0.4170    6.5461    4.7897 C   0  0  0  0  0  0  0  0  0  0  0  0
   -0.6311    6.2665    4.7665 H   0  0  0  0  0  0  0  0  0  0  0  0
    0.4656    7.6310    4.8076 H   0  0  0  0  0  0  0  0  0  0  0  0
    0.8379    6.1740    5.7194 H   0  0  0  0  0  0  0  0  0  0  0  0
  1  3  1  0  0  0  0
  1  2  1  0  0  0  0
  4  8  1  0  0  0  0
  5  4  2  0  0  0  0
  6  5  1  6  0  0  0
  6  1  1  0  0  0  0
  6  7  1  0  0  0  0
  7 18  1  0  0  0  0
  8  7  2  0  0  0  0
  8  9  1  0  0  0  0
  9 19  1  0  0  0  0
  9 20  1  0  0  0  0
 10 26  1  0  0  0  0
 10  9  1  0  0  0  0
 11 25  1  0  0  0  0
 11 10  1  0  0  0  0
 12 13  1  0  0  0  0
 12 11  1  0  0  0  0
 13 22  1  0  0  0  0
 13  4  1  0  0  0  0
 14 55  1  0  0  0  0
 14  6  1  0  0  0  0
 14 16  1  0  0  0  0
 15 14  1  0  0  0  0
 16 32  1  0  0  0  0
 16 33  1  0  0  0  0
 17  5  1  0  0  0  0
 21 13  1  0  0  0  0
 23 12  1  0  0  0  0
 24 12  1  0  0  0  0
 27 10  1  0  0  0  0
 28 15  1  0  0  0  0
 29 15  1  0  0  0  0
 30 15  1  0  0  0  0
 31 16  1  0  0  0  0
 34 39  1  0  0  0  0
 35 34  2  0  0  0  0
 36 35  1  6  0  0  0
 36  1  1  0  0  0  0
 36 38  1  0  0  0  0
 37 35  1  0  0  0  0
 38 45  1  0  0  0  0
 39 38  2  0  0  0  0
 39 44  1  0  0  0  0
 40 54  1  0  0  0  0
 40 34  1  0  0  0  0
 41 40  1  0  0  0  0
 41 42  1  0  0  0  0
 42 50  1  0  0  0  0
 42 43  1  0  0  0  0
 43 48  1  0  0  0  0
 43 44  1  0  0  0  0
 44 46  1  0  0  0  0
 44 47  1  0  0  0  0
 49 43  1  0  0  0  0
 51 41  1  0  0  0  0
 52 41  1  0  0  0  0
 53 40  1  0  0  0  0
 55 36  1  0  0  0  0
 55 60  1  0  0  0  0
 56 55  1  0  0  0  0
 57 56  1  0  0  0  0
 58 56  1  0  0  0  0
 59 56  1  0  0  0  0
 60 62  1  0  0  0  0
 60 63  1  0  0  0  0
 61 60  1  0  0  0  0
M  END
$$$$
