CSD_code = QUVVAF | q = 1 | S = 0 | Stoichiometry = C24H36ClRuSe4(1+) | MND = 9
 OpenBabel04212202093D

 66 66  0  0  1  0  0  0  0  0999 V2000
    3.4120    7.9162    4.4720 Ru  0  0  0  0  0  0  0  0  0  0  0  0
    3.3510    5.5967    5.2255 Se  0  0  0  0  0  0  0  0  0  0  0  0
    3.6358    7.6657    2.0618 Se  0  0  0  0  0  0  0  0  0  0  0  0
   -0.7596    4.6933    0.0999 Se  0  0  0  0  0  0  0  0  0  0  0  0
    1.1295    0.2553    0.8668 Se  0  0  0  0  0  0  0  0  0  0  0  0
    5.7487    7.6833    4.5302 Cl  0  0  0  0  0 15  0  0  0  0  0  0
    3.5803    4.1113    2.8323 C   0  0  0  0  0  0  0  0  0  0  0  0
    3.7027    4.8812    1.6759 C   0  0  0  0  0  0  0  0  0  0  0  0
    2.8335    4.6418    0.6159 C   0  0  0  0  0  0  0  0  0  0  0  0
    2.9369    5.2396   -0.2794 H   0  0  0  0  0  0  0  0  0  0  0  0
    1.8266    3.6911    0.6782 C   0  0  0  0  0  0  0  0  0  0  0  0
    1.7128    2.9037    1.8369 C   0  0  0  0  0  0  0  0  0  0  0  0
    2.6050    3.1188    2.8758 C   0  0  0  0  0  0  0  0  0  0  0  0
    2.5148    2.5253    3.7753 H   0  0  0  0  0  0  0  0  0  0  0  0
    4.3835    4.3694    4.0648 C   0  0  0  0  0  0  0  0  0  0  0  0
    5.3508    4.8441    3.8917 H   0  0  0  0  0  0  0  0  0  0  0  0
    4.5136    3.4559    4.6508 H   0  0  0  0  0  0  0  0  0  0  0  0
    4.5395    5.5195    6.7597 C   0  0  0  0  0  0  0  0  0  0  0  0
    4.6320    4.4794    7.0692 H   0  0  0  0  0  0  0  0  0  0  0  0
    4.0994    6.1035    7.5659 H   0  0  0  0  0  0  0  0  0  0  0  0
    5.5074    5.9294    6.4752 H   0  0  0  0  0  0  0  0  0  0  0  0
    4.6417    6.0376    1.5597 C   0  0  0  0  0  0  0  0  0  0  0  0
    4.9561    6.1899    0.5237 H   0  0  0  0  0  0  0  0  0  0  0  0
    5.5135    5.9959    2.2146 H   0  0  0  0  0  0  0  0  0  0  0  0
    4.9836    8.9611    1.5416 C   0  0  0  0  0  0  0  0  0  0  0  0
    5.8726    8.8008    2.1496 H   0  0  0  0  0  0  0  0  0  0  0  0
    4.5827    9.9599    1.7046 H   0  0  0  0  0  0  0  0  0  0  0  0
    5.2044    8.8217    0.4841 H   0  0  0  0  0  0  0  0  0  0  0  0
    0.8313    3.6088   -0.4169 C   0  0  0  0  0  0  0  0  0  0  0  0
    0.4644    2.5975   -0.5910 H   0  0  0  0  0  0  0  0  0  0  0  0
    1.2020    4.0328   -1.3493 H   0  0  0  0  0  0  0  0  0  0  0  0
    0.0272    6.4542   -0.2094 C   0  0  0  0  0  0  0  0  0  0  0  0
    0.8926    6.5931    0.4388 H   0  0  0  0  0  0  0  0  0  0  0  0
   -0.7384    7.1895    0.0224 H   0  0  0  0  0  0  0  0  0  0  0  0
    0.3101    6.5397   -1.2554 H   0  0  0  0  0  0  0  0  0  0  0  0
    0.6693    1.8574    1.9653 C   0  0  0  0  0  0  0  0  0  0  0  0
   -0.3021    2.1931    1.5970 H   0  0  0  0  0  0  0  0  0  0  0  0
    0.5689    1.5102    2.9937 H   0  0  0  0  0  0  0  0  0  0  0  0
    2.6809   -0.3103    1.9003 C   0  0  0  0  0  0  0  0  0  0  0  0
    3.4245    0.4837    1.9032 H   0  0  0  0  0  0  0  0  0  0  0  0
    3.0819   -1.1935    1.4117 H   0  0  0  0  0  0  0  0  0  0  0  0
    2.3708   -0.5575    2.9127 H   0  0  0  0  0  0  0  0  0  0  0  0
    3.4984    9.7550    5.9590 C   0  0  0  0  0  0  0  0  0  0  0  0
    2.6750    8.7542    6.5050 C   0  0  0  0  0  0  0  0  0  0  0  0
    2.8247    8.4421    7.5338 H   0  0  0  0  0  0  0  0  0  0  0  0
    1.5847    8.2227    5.7701 C   0  0  1  0  0  0  0  0  0  0  0  0
    0.9405    7.4921    6.2505 H   0  0  0  0  0  0  0  0  0  0  0  0
    1.2700    8.6868    4.4792 C   0  0  1  0  0  3  0  0  0  0  0  0
    2.1081    9.6908    3.9340 C   0  0  1  0  0  0  0  0  0  0  0  0
    1.8583   10.1146    2.9627 H   0  0  0  0  0  0  0  0  0  0  0  0
    3.2132   10.2008    4.6439 C   0  0  0  0  0  3  0  0  0  0  0  0
    3.7979   11.0128    4.2237 H   0  0  0  0  0  0  0  0  0  0  0  0
    4.6375   10.3398    6.7268 C   0  0  0  0  0  0  0  0  0  0  0  0
    4.6361   11.4252    6.6420 H   0  0  0  0  0  0  0  0  0  0  0  0
    5.5861    9.9808    6.3214 H   0  0  0  0  0  0  0  0  0  0  0  0
    4.5904   10.0623    7.7770 H   0  0  0  0  0  0  0  0  0  0  0  0
    0.0937    8.1436    3.7038 C   0  0  0  0  0  0  0  0  0  0  0  0
    0.1085    8.5968    2.7052 H   0  0  0  0  0  0  0  0  0  0  0  0
   -1.2200    8.5266    4.3907 C   0  0  0  0  0  0  0  0  0  0  0  0
   -1.2925    8.0722    5.3758 H   0  0  0  0  0  0  0  0  0  0  0  0
   -2.0593    8.1811    3.7939 H   0  0  0  0  0  0  0  0  0  0  0  0
   -1.2971    9.6060    4.5004 H   0  0  0  0  0  0  0  0  0  0  0  0
    0.2011    6.6244    3.5371 C   0  0  0  0  0  0  0  0  0  0  0  0
    1.1554    6.3495    3.0746 H   0  0  0  0  0  0  0  0  0  0  0  0
   -0.5993    6.2624    2.8970 H   0  0  0  0  0  0  0  0  0  0  0  0
    0.1237    6.1130    4.4944 H   0  0  0  0  0  0  0  0  0  0  0  0
  1 46  1  0  0  0  0
  2 18  1  0  0  0  0
  5 39  1  0  0  0  0
  5 36  1  0  0  0  0
  7 13  1  0  0  0  0
  7 15  1  0  0  0  0
  8  7  2  0  0  0  0
  9 11  2  0  0  0  0
  9  8  1  0  0  0  0
 10  9  1  0  0  0  0
 11 12  1  0  0  0  0
 12 36  1  0  0  0  0
 12 13  2  0  0  0  0
 13 14  1  0  0  0  0
 15 17  1  0  0  0  0
 15  2  1  0  0  0  0
 16 15  1  0  0  0  0
 18 19  1  0  0  0  0
 18 20  1  0  0  0  0
 21 18  1  0  0  0  0
 22  8  1  0  0  0  0
 22  3  1  0  0  0  0
 22 24  1  0  0  0  0
 23 22  1  0  0  0  0
 25 27  1  0  0  0  0
 25  3  1  0  0  0  0
 25 26  1  0  0  0  0
 28 25  1  0  0  0  0
 29  4  1  0  0  0  0
 29 11  1  0  0  0  0
 30 29  1  0  0  0  0
 31 29  1  0  0  0  0
 32 34  1  0  0  0  0
 32  4  1  0  0  0  0
 32 33  1  0  0  0  0
 35 32  1  0  0  0  0
 36 38  1  0  0  0  0
 37 36  1  0  0  0  0
 39 40  1  0  0  0  0
 39 42  1  0  0  0  0
 41 39  1  0  0  0  0
 43 44  2  0  0  0  0
 43 53  1  0  0  0  0
 44 45  1  0  0  0  0
 46 47  1  1  0  0  0
 46 44  1  0  0  0  0
 48 57  1  6  0  0  0
 48 46  1  0  0  0  0
 49 50  1  6  0  0  0
 49  1  1  0  0  0  0
 49 48  1  0  0  0  0
 49 51  1  0  0  0  0
 51 43  1  0  0  0  0
 52 51  1  0  0  0  0
 53 56  1  0  0  0  0
 54 53  1  0  0  0  0
 55 53  1  0  0  0  0
 57 59  1  0  0  0  0
 58 57  1  0  0  0  0
 59 62  1  0  0  0  0
 59 60  1  0  0  0  0
 61 59  1  0  0  0  0
 63 57  1  0  0  0  0
 63 66  1  0  0  0  0
 64 63  1  0  0  0  0
 65 63  1  0  0  0  0
M  END
$$$$
