CSD_code = QUVXOV | q = 0 | S = 0 | Stoichiometry = C18H18Cl2F2N4Pd | MND = 4
 OpenBabel04212202093D

 45 48  0  0  1  0  0  0  0  0999 V2000
    1.2078    2.2988    2.2496 Pd  0  0  0  0  0  0  0  0  0  0  0  0
   -0.6223    2.9911    1.0644 Cl  0  0  0  0  0  0  0  0  0  0  0  0
    3.0617    1.6511    3.4264 Cl  0  0  0  0  0  0  0  0  0  0  0  0
    0.0463    1.3025    3.5032 N   0  0  0  0  0  0  0  0  0  0  0  0
    2.3851    3.5102    1.2397 N   0  0  0  0  0  0  0  0  0  0  0  0
    5.8224    2.2110   -0.5103 F   0  0  0  0  0  0  0  0  0  0  0  0
    1.1535   -2.0370    5.5531 F   0  0  0  0  0  0  0  0  0  0  0  0
    4.1425    4.3578    0.1863 N   0  0  0  0  0  0  0  0  0  0  0  0
    5.0685    4.2765   -0.1959 H   0  0  0  0  0  0  0  0  0  0  0  0
    3.4631    2.0211   -0.3240 C   0  0  0  0  0  0  0  0  0  0  0  0
    0.9879   -0.9238    3.4595 C   0  0  0  0  0  0  0  0  0  0  0  0
    0.1016    0.1089    3.9933 C   0  0  2  0  0  3  0  0  0  0  0  0
    3.3368    3.2864    0.3991 C   0  0  2  0  0  3  0  0  0  0  0  0
   -0.9052    2.0975    4.2694 C   0  0  0  0  0  0  0  0  0  0  0  0
   -1.7239    2.3965    3.6052 H   0  0  0  0  0  0  0  0  0  0  0  0
   -0.4104    3.0055    4.6417 H   0  0  0  0  0  0  0  0  0  0  0  0
    2.8209   -2.7756    2.4431 C   0  0  0  0  0  0  0  0  0  0  0  0
    3.5388   -3.4812    2.0546 H   0  0  0  0  0  0  0  0  0  0  0  0
   -0.7622   -0.0991    5.0180 N   0  0  0  0  0  0  0  0  0  0  0  0
   -0.6724   -0.8583    5.6697 H   0  0  0  0  0  0  0  0  0  0  0  0
    2.5046    4.8638    1.7610 C   0  0  0  0  0  0  0  0  0  0  0  0
    2.5320    4.8363    2.8593 H   0  0  0  0  0  0  0  0  0  0  0  0
    1.6262    5.4386    1.4422 H   0  0  0  0  0  0  0  0  0  0  0  0
    1.5203   -1.9377    4.2538 C   0  0  0  0  0  0  0  0  0  0  0  0
    2.4105    0.0770   -1.2980 C   0  0  0  0  0  0  0  0  0  0  0  0
    1.5127   -0.4757   -1.5303 H   0  0  0  0  0  0  0  0  0  0  0  0
    4.6890    1.5145   -0.7509 C   0  0  0  0  0  0  0  0  0  0  0  0
    2.2928   -1.7915    1.6217 C   0  0  0  0  0  0  0  0  0  0  0  0
    2.5978   -1.7323    0.5887 H   0  0  0  0  0  0  0  0  0  0  0  0
    1.3878   -0.8746    2.1204 C   0  0  0  0  0  0  0  0  0  0  0  0
    0.9559   -0.1097    1.4697 H   0  0  0  0  0  0  0  0  0  0  0  0
    2.4281   -2.8567    3.7667 C   0  0  0  0  0  0  0  0  0  0  0  0
    2.8210   -3.6110    4.4299 H   0  0  0  0  0  0  0  0  0  0  0  0
    2.3166    1.2729   -0.6100 C   0  0  0  0  0  0  0  0  0  0  0  0
    1.3428    1.6729   -0.3328 H   0  0  0  0  0  0  0  0  0  0  0  0
    4.7952    0.3127   -1.4233 C   0  0  0  0  0  0  0  0  0  0  0  0
    5.7696   -0.0384   -1.7243 H   0  0  0  0  0  0  0  0  0  0  0  0
   -1.3766    1.1584    5.4013 C   0  0  0  0  0  0  0  0  0  0  0  0
   -1.0256    1.4870    6.3861 H   0  0  0  0  0  0  0  0  0  0  0  0
   -2.4643    1.0560    5.4315 H   0  0  0  0  0  0  0  0  0  0  0  0
    3.8144    5.4017    1.1412 C   0  0  0  0  0  0  0  0  0  0  0  0
    3.6721    6.3548    0.6262 H   0  0  0  0  0  0  0  0  0  0  0  0
    4.6064    5.5167    1.8896 H   0  0  0  0  0  0  0  0  0  0  0  0
    3.6467   -0.4076   -1.6997 C   0  0  0  0  0  0  0  0  0  0  0  0
    3.7190   -1.3430   -2.2335 H   0  0  0  0  0  0  0  0  0  0  0  0
  1  3  1  0  0  0  0
  1  4  1  0  0  0  0
  2  1  1  0  0  0  0
  4 12  1  0  0  0  0
  4 14  1  0  0  0  0
  5 21  1  0  0  0  0
  5  1  1  0  0  0  0
  8 13  1  0  0  0  0
  8 41  1  0  0  0  0
  9  8  1  0  0  0  0
 11 24  1  0  0  0  0
 12 11  1  6  0  0  0
 12 19  1  0  0  0  0
 13 10  1  6  0  0  0
 13  5  1  0  0  0  0
 14 16  1  0  0  0  0
 14 38  1  0  0  0  0
 15 14  1  0  0  0  0
 17 32  1  0  0  0  0
 18 17  1  0  0  0  0
 19 38  1  0  0  0  0
 19 20  1  0  0  0  0
 21 22  1  0  0  0  0
 23 21  1  0  0  0  0
 24  7  1  0  0  0  0
 25 34  2  0  0  0  0
 26 25  1  0  0  0  0
 27  6  1  0  0  0  0
 27 10  2  0  0  0  0
 28 30  1  0  0  0  0
 28 17  2  0  0  0  0
 29 28  1  0  0  0  0
 30 11  2  0  0  0  0
 31 30  1  0  0  0  0
 32 24  2  0  0  0  0
 32 33  1  0  0  0  0
 34 35  1  0  0  0  0
 34 10  1  0  0  0  0
 36 27  1  0  0  0  0
 37 36  1  0  0  0  0
 38 40  1  0  0  0  0
 38 39  1  0  0  0  0
 41 21  1  0  0  0  0
 41 43  1  0  0  0  0
 42 41  1  0  0  0  0
 44 36  2  0  0  0  0
 44 25  1  0  0  0  0
 45 44  1  0  0  0  0
M  END
$$$$
