CSD_code = QUWBAM | q = 0 | S = 0 | Stoichiometry = C12H23ClPtSi | MND = 6
 OpenBabel04212202093D

 38 37  0  0  1  0  0  0  0  0999 V2000
    0.1406    1.3858    6.5247 Pt  0  0  0  0  0  0  0  0  0  0  0  0
    1.1749    3.0758    5.4234 Cl  0  0  0  0  0 15  0  0  0  0  0  0
    0.8133    2.2415    8.2693 C   0  0  0  0  0  0  0  0  0  0  0  0
    0.7694    1.5308    9.0987 H   0  0  0  0  0  0  0  0  0  0  0  0
    1.8568    2.5363    8.1371 H   0  0  0  0  0  0  0  0  0  0  0  0
   -0.2791    3.7756    8.6062 Si  0  0  0  0  0  0  0  0  0  0  0  0
   -0.7549    3.8078   10.4587 C   0  0  0  0  0  0  0  0  0  0  0  0
    0.1242    3.8908   11.0888 H   0  0  0  0  0  0  0  0  0  0  0  0
   -1.2889    2.9112   10.7568 H   0  0  0  0  0  0  0  0  0  0  0  0
   -1.3933    4.6571   10.6752 H   0  0  0  0  0  0  0  0  0  0  0  0
   -1.9014    3.6457    7.5876 C   0  0  0  0  0  0  0  0  0  0  0  0
   -2.4136    4.6017    7.5362 H   0  0  0  0  0  0  0  0  0  0  0  0
   -2.5943    2.9274    8.0162 H   0  0  0  0  0  0  0  0  0  0  0  0
   -1.6773    3.3416    6.5639 H   0  0  0  0  0  0  0  0  0  0  0  0
    0.6218    5.3992    8.1764 C   0  0  0  0  0  0  0  0  0  0  0  0
    1.5023    5.5363    8.7968 H   0  0  0  0  0  0  0  0  0  0  0  0
   -0.0240    6.2594    8.3243 H   0  0  0  0  0  0  0  0  0  0  0  0
    0.9448    5.3975    7.1409 H   0  0  0  0  0  0  0  0  0  0  0  0
   -1.2500    0.0517    7.4651 C   0  0  0  0  0  3  0  0  0  0  0  0
   -1.5162    0.4631    8.4376 H   0  0  0  0  0  0  0  0  0  0  0  0
   -0.0005   -0.5610    7.3665 C   0  0  1  0  0  0  0  0  0  0  0  0
    0.6043   -0.6155    8.2720 H   0  0  0  0  0  0  0  0  0  0  0  0
    0.4114   -1.5867    6.3378 C   0  0  0  0  0  0  0  0  0  0  0  0
    0.0721   -2.5758    6.6651 H   0  0  0  0  0  0  0  0  0  0  0  0
    1.5047   -1.6131    6.3228 H   0  0  0  0  0  0  0  0  0  0  0  0
   -0.0937   -1.3147    4.9070 C   0  0  0  0  0  0  0  0  0  0  0  0
    0.5678   -1.8319    4.2090 H   0  0  0  0  0  0  0  0  0  0  0  0
   -1.0935   -1.7282    4.7699 H   0  0  0  0  0  0  0  0  0  0  0  0
   -0.1108    0.1518    4.5640 C   0  0  0  0  0  0  0  0  0  0  0  0
    0.7224    0.5112    3.9656 H   0  0  0  0  0  0  0  0  0  0  0  0
   -1.1955    0.9562    4.7159 C   0  0  0  0  0  0  0  0  0  0  0  0
   -1.2054    1.9109    4.1934 H   0  0  0  0  0  0  0  0  0  0  0  0
   -2.5248    0.5344    5.2907 C   0  0  0  0  0  0  0  0  0  0  0  0
   -3.0749   -0.0330    4.5322 H   0  0  0  0  0  0  0  0  0  0  0  0
   -3.1052    1.4358    5.4977 H   0  0  0  0  0  0  0  0  0  0  0  0
   -2.4322   -0.3024    6.5862 C   0  0  0  0  0  0  0  0  0  0  0  0
   -2.3874   -1.3666    6.3486 H   0  0  0  0  0  0  0  0  0  0  0  0
   -3.3502   -0.1433    7.1550 H   0  0  0  0  0  0  0  0  0  0  0  0
  1 21  1  0  0  0  0
  1  3  1  0  0  0  0
  3  6  1  0  0  0  0
  3  4  1  0  0  0  0
  5  3  1  0  0  0  0
  6  7  1  0  0  0  0
  7 10  1  0  0  0  0
  7  9  1  0  0  0  0
  7  8  1  0  0  0  0
 11 13  1  0  0  0  0
 11  6  1  0  0  0  0
 12 11  1  0  0  0  0
 14 11  1  0  0  0  0
 15 17  1  0  0  0  0
 15  6  1  0  0  0  0
 15 16  1  0  0  0  0
 18 15  1  0  0  0  0
 19 20  1  0  0  0  0
 21 19  1  0  0  0  0
 21 22  1  1  0  0  0
 23 24  1  0  0  0  0
 23 21  1  0  0  0  0
 25 23  1  0  0  0  0
 26 23  1  0  0  0  0
 27 26  1  0  0  0  0
 28 26  1  0  0  0  0
 29 31  2  0  0  0  0
 29 26  1  0  0  0  0
 30 29  1  0  0  0  0
 31 33  1  0  0  0  0
 32 31  1  0  0  0  0
 33 35  1  0  0  0  0
 33 36  1  0  0  0  0
 34 33  1  0  0  0  0
 36 38  1  0  0  0  0
 36 19  1  0  0  0  0
 37 36  1  0  0  0  0
M  END
$$$$
