CSD_code = QUWSUX | q = 0 | S = 0 | Stoichiometry = C29H32Cl2N2ORu | MND = 5
 OpenBabel04212202093D

 67 71  0  0  0  0  0  0  0  0999 V2000
    5.2414    7.9032    3.3920 Ru  0  0  0  0  0  0  0  0  0  0  0  0
    7.2838    7.3063    2.7352 Cl  0  0  0  0  0  0  0  0  0  0  0  0
    5.7164    6.9597    5.4831 Cl  0  0  0  0  0  0  0  0  0  0  0  0
    4.1179    9.2193    4.3916 C   0  0  0  0  0  3  0  0  0  0  0  0
    2.8055    9.4348    4.3936 N   0  0  0  0  0  0  0  0  0  0  0  0
    2.4244   10.5715    5.2274 C   0  0  0  0  0  0  0  0  0  0  0  0
    1.8615   11.3024    4.6401 H   0  0  0  0  0  0  0  0  0  0  0  0
    1.7920   10.2372    6.0556 H   0  0  0  0  0  0  0  0  0  0  0  0
    3.7809   11.1090    5.7023 C   0  0  0  0  0  0  0  0  0  0  0  0
    3.8613   11.1434    6.7903 H   0  0  0  0  0  0  0  0  0  0  0  0
    3.9984   12.1084    5.3086 H   0  0  0  0  0  0  0  0  0  0  0  0
    4.7164   10.1407    5.1416 N   0  0  0  0  0  0  0  0  0  0  0  0
    1.8498    8.5780    3.7851 C   0  0  0  0  0  0  0  0  0  0  0  0
    1.3305    8.9099    2.5345 C   0  0  0  0  0  0  0  0  0  0  0  0
    0.4103    8.0533    1.9500 C   0  0  0  0  0  0  0  0  0  0  0  0
    0.0076    8.2963    0.9772 H   0  0  0  0  0  0  0  0  0  0  0  0
    0.0046    6.8880    2.5837 C   0  0  0  0  0  0  0  0  0  0  0  0
    0.5359    6.5846    3.8287 C   0  0  0  0  0  0  0  0  0  0  0  0
    0.2264    5.6784    4.3290 H   0  0  0  0  0  0  0  0  0  0  0  0
    1.4614    7.4114    4.4478 C   0  0  0  0  0  0  0  0  0  0  0  0
    1.7491   10.1710    1.8391 C   0  0  0  0  0  0  0  0  0  0  0  0
    1.1794   11.0213    2.2169 H   0  0  0  0  0  0  0  0  0  0  0  0
    1.5665   10.0931    0.7706 H   0  0  0  0  0  0  0  0  0  0  0  0
    2.8073   10.3674    2.0018 H   0  0  0  0  0  0  0  0  0  0  0  0
   -1.0058    5.9899    1.9390 C   0  0  0  0  0  0  0  0  0  0  0  0
   -0.8417    5.9376    0.8652 H   0  0  0  0  0  0  0  0  0  0  0  0
   -2.0107    6.3782    2.1080 H   0  0  0  0  0  0  0  0  0  0  0  0
   -0.9548    4.9872    2.3545 H   0  0  0  0  0  0  0  0  0  0  0  0
    2.0349    7.0661    5.7858 C   0  0  0  0  0  0  0  0  0  0  0  0
    1.6719    6.0975    6.1166 H   0  0  0  0  0  0  0  0  0  0  0  0
    1.7543    7.8090    6.5318 H   0  0  0  0  0  0  0  0  0  0  0  0
    3.1255    7.0314    5.7390 H   0  0  0  0  0  0  0  0  0  0  0  0
    6.1277   10.1891    5.3312 C   0  0  0  0  0  0  0  0  0  0  0  0
    6.9518   10.5635    4.2653 C   0  0  0  0  0  0  0  0  0  0  0  0
    8.3286   10.5407    4.4506 C   0  0  0  0  0  0  0  0  0  0  0  0
    8.9686   10.8096    3.6222 H   0  0  0  0  0  0  0  0  0  0  0  0
    8.8926   10.1696    5.6597 C   0  0  0  0  0  0  0  0  0  0  0  0
    8.0496    9.8402    6.7125 C   0  0  0  0  0  0  0  0  0  0  0  0
    8.4772    9.5498    7.6612 H   0  0  0  0  0  0  0  0  0  0  0  0
    6.6719    9.8383    6.5726 C   0  0  0  0  0  0  0  0  0  0  0  0
    6.4085   11.0252    2.9425 C   0  0  0  0  0  0  0  0  0  0  0  0
    6.5708   10.2608    2.1801 H   0  0  0  0  0  0  0  0  0  0  0  0
    6.9377   11.9222    2.6215 H   0  0  0  0  0  0  0  0  0  0  0  0
    5.3433   11.2494    2.9892 H   0  0  0  0  0  0  0  0  0  0  0  0
   10.3794   10.1007    5.8202 C   0  0  0  0  0  0  0  0  0  0  0  0
   10.8751   10.8327    5.1865 H   0  0  0  0  0  0  0  0  0  0  0  0
   10.7294    9.1103    5.5281 H   0  0  0  0  0  0  0  0  0  0  0  0
   10.6685   10.2693    6.8549 H   0  0  0  0  0  0  0  0  0  0  0  0
    5.8005    9.4420    7.7244 C   0  0  0  0  0  0  0  0  0  0  0  0
    6.3829    8.8853    8.4526 H   0  0  0  0  0  0  0  0  0  0  0  0
    4.9910    8.8020    7.3811 H   0  0  0  0  0  0  0  0  0  0  0  0
    5.3875   10.3216    8.2213 H   0  0  0  0  0  0  0  0  0  0  0  0
    4.0804    6.4601    2.9697 C   0  0  0  0  0  3  0  0  0  0  0  0
    4.0147    5.6576    3.7109 H   0  0  0  0  0  0  0  0  0  0  0  0
    3.3978    6.2028    1.7682 C   0  0  0  0  0  0  0  0  0  0  0  0
    2.6051    5.0341    1.6698 C   0  0  0  0  0  0  0  0  0  0  0  0
    2.5623    4.3775    2.5262 H   0  0  0  0  0  0  0  0  0  0  0  0
    1.9081    4.7245    0.5322 C   0  0  0  0  0  0  0  0  0  0  0  0
    1.3193    3.8200    0.4888 H   0  0  0  0  0  0  0  0  0  0  0  0
    1.9583    5.5691   -0.5817 C   0  0  0  0  0  0  0  0  0  0  0  0
    1.4084    5.3154   -1.4757 H   0  0  0  0  0  0  0  0  0  0  0  0
    2.7146    6.7118   -0.5306 C   0  0  0  0  0  0  0  0  0  0  0  0
    2.7655    7.3697   -1.3870 H   0  0  0  0  0  0  0  0  0  0  0  0
    3.4413    7.0546    0.6221 C   0  0  0  0  0  0  0  0  0  0  0  0
    4.1970    8.2610    0.6274 C   0  0  0  0  0  3  0  0  0  0  0  0
    4.1574    8.8595   -0.2965 H   0  0  0  0  0  0  0  0  0  0  0  0
    4.8593    8.7303    1.5640 O   0  0  0  0  0  0  0  0  0  0  0  0
  1  4  1  0  0  0  0
  1  3  1  0  0  0  0
  2  1  1  0  0  0  0
  4  5  1  0  0  0  0
  4 12  1  0  0  0  0
  5  6  1  0  0  0  0
  6  9  1  0  0  0  0
  6  8  1  0  0  0  0
  7  6  1  0  0  0  0
  9 10  1  0  0  0  0
 11  9  1  0  0  0  0
 12 33  1  0  0  0  0
 12  9  1  0  0  0  0
 13  5  1  0  0  0  0
 13 20  1  0  0  0  0
 14 13  2  0  0  0  0
 15 14  1  0  0  0  0
 15 17  2  0  0  0  0
 16 15  1  0  0  0  0
 17 18  1  0  0  0  0
 18 19  1  0  0  0  0
 18 20  2  0  0  0  0
 20 29  1  0  0  0  0
 21 24  1  0  0  0  0
 21 22  1  0  0  0  0
 21 14  1  0  0  0  0
 23 21  1  0  0  0  0
 25 27  1  0  0  0  0
 25 28  1  0  0  0  0
 25 17  1  0  0  0  0
 26 25  1  0  0  0  0
 29 30  1  0  0  0  0
 29 31  1  0  0  0  0
 32 29  1  0  0  0  0
 33 40  1  0  0  0  0
 34 35  1  0  0  0  0
 34 33  2  0  0  0  0
 35 37  2  0  0  0  0
 36 35  1  0  0  0  0
 37 45  1  0  0  0  0
 37 38  1  0  0  0  0
 38 39  1  0  0  0  0
 40 38  2  0  0  0  0
 40 49  1  0  0  0  0
 41 44  1  0  0  0  0
 41 34  1  0  0  0  0
 42 41  1  0  0  0  0
 43 41  1  0  0  0  0
 45 48  1  0  0  0  0
 46 45  1  0  0  0  0
 47 45  1  0  0  0  0
 49 52  1  0  0  0  0
 49 50  1  0  0  0  0
 51 49  1  0  0  0  0
 53  1  1  0  0  0  0
 53 54  1  0  0  0  0
 55 53  1  0  0  0  0
 56 55  1  0  0  0  0
 56 57  1  0  0  0  0
 58 56  2  0  0  0  0
 59 58  1  0  0  0  0
 60 62  2  0  0  0  0
 60 58  1  0  0  0  0
 61 60  1  0  0  0  0
 62 64  1  0  0  0  0
 63 62  1  0  0  0  0
 64 65  1  0  0  0  0
 64 55  2  0  0  0  0
 65 67  1  0  0  0  0
 66 65  1  0  0  0  0
 67  1  1  0  0  0  0
M  END
$$$$
