CSD_code = QUYHAV | q = 1 | S = 0 | Stoichiometry = C12H24ClN3PPtS3(1+) | MND = 5
 OpenBabel04212202093D

 45 49  0  0  1  0  0  0  0  0999 V2000
    8.3197    9.1782    0.0616 Pt  0  0  2  0  0  0  0  0  0  0  0  0
    7.1157    9.9576    1.8356 Cl  0  0  0  0  0  0  0  0  0  0  0  0
    6.2036    9.1035   -1.8737 S   0  0  0  0  0  0  0  0  0  0  0  0
    8.6780   11.4055   -0.7434 S   0  0  2  0  0  3  0  0  0  0  0  0
    9.6720    8.3640   -1.6897 S   0  0  2  0  0  3  0  0  0  0  0  0
    7.9097    7.2766    1.2692 P   0  0  1  0  0  4  0  0  0  0  0  0
    6.0822    5.5103    2.2232 N   0  0  1  0  0  0  0  0  0  0  0  0
    8.1981    4.5701    1.5055 N   0  0  2  0  0  0  0  0  0  0  0  0
    8.0714    5.8408    3.5627 N   0  0  2  0  0  0  0  0  0  0  0  0
    6.5240   10.7741   -2.5670 C   0  0  0  0  0  0  0  0  0  0  0  0
    7.1598   10.6588   -3.4424 H   0  0  0  0  0  0  0  0  0  0  0  0
    5.5562   11.1529   -2.8985 H   0  0  0  0  0  0  0  0  0  0  0  0
    7.0806   11.7674   -1.5613 C   0  0  0  0  0  0  0  0  0  0  0  0
    6.3961   11.8664   -0.7163 H   0  0  0  0  0  0  0  0  0  0  0  0
    7.1964   12.7432   -2.0365 H   0  0  0  0  0  0  0  0  0  0  0  0
    9.8316   11.1616   -2.1611 C   0  0  0  0  0  0  0  0  0  0  0  0
    9.2514   11.1986   -3.0812 H   0  0  0  0  0  0  0  0  0  0  0  0
   10.5118   12.0146   -2.1520 H   0  0  0  0  0  0  0  0  0  0  0  0
   10.6399    9.8858   -2.0325 C   0  0  0  0  0  0  0  0  0  0  0  0
   11.3254    9.9512   -1.1861 H   0  0  0  0  0  0  0  0  0  0  0  0
   11.2183    9.6991   -2.9390 H   0  0  0  0  0  0  0  0  0  0  0  0
    8.6249    8.2818   -3.2076 C   0  0  0  0  0  0  0  0  0  0  0  0
    8.7804    9.2079   -3.7566 H   0  0  0  0  0  0  0  0  0  0  0  0
    9.0450    7.4646   -3.7963 H   0  0  0  0  0  0  0  0  0  0  0  0
    7.1494    8.0020   -2.9952 C   0  0  0  0  0  0  0  0  0  0  0  0
    7.0038    7.0175   -2.5512 H   0  0  0  0  0  0  0  0  0  0  0  0
    6.6495    8.0239   -3.9650 H   0  0  0  0  0  0  0  0  0  0  0  0
    6.1427    6.7417    1.4729 C   0  0  0  0  0  0  0  0  0  0  0  0
    5.5867    7.5238    1.9994 H   0  0  0  0  0  0  0  0  0  0  0  0
    5.6857    6.5948    0.4879 H   0  0  0  0  0  0  0  0  0  0  0  0
    8.6010    5.6574    0.6455 C   0  0  0  0  0  0  0  0  0  0  0  0
    8.2398    5.4641   -0.3710 H   0  0  0  0  0  0  0  0  0  0  0  0
    9.6950    5.7105    0.6169 H   0  0  0  0  0  0  0  0  0  0  0  0
    8.4627    7.1255    3.0370 C   0  0  0  0  0  0  0  0  0  0  0  0
    9.5518    7.2281    3.0914 H   0  0  0  0  0  0  0  0  0  0  0  0
    8.0054    7.9233    3.6303 H   0  0  0  0  0  0  0  0  0  0  0  0
    6.7520    4.4126    1.5480 C   0  0  0  0  0  0  0  0  0  0  0  0
    6.5274    3.4897    2.0887 H   0  0  0  0  0  0  0  0  0  0  0  0
    6.3685    4.3269    0.5280 H   0  0  0  0  0  0  0  0  0  0  0  0
    8.6990    4.7343    2.8622 C   0  0  0  0  0  0  0  0  0  0  0  0
    8.4894    3.8150    3.4149 H   0  0  0  0  0  0  0  0  0  0  0  0
    9.7801    4.8903    2.8308 H   0  0  0  0  0  0  0  0  0  0  0  0
    6.6293    5.6572    3.5630 C   0  0  0  0  0  0  0  0  0  0  0  0
    6.4003    4.7492    4.1267 H   0  0  0  0  0  0  0  0  0  0  0  0
    6.1562    6.5104    4.0540 H   0  0  0  0  0  0  0  0  0  0  0  0
  1  6  1  0  0  0  0
  1  2  1  6  0  0  0
  4 16  1  6  0  0  0
  4  1  1  0  0  0  0
  5 22  1  6  0  0  0
  5  1  1  0  0  0  0
  6 31  1  6  0  0  0
  6 28  1  0  0  0  0
  6 34  1  0  0  0  0
  7 28  1  6  0  0  0
  7 43  1  0  0  0  0
  8 31  1  6  0  0  0
  8 37  1  0  0  0  0
  8 40  1  0  0  0  0
  9 40  1  6  0  0  0
  9 43  1  0  0  0  0
 10  3  1  0  0  0  0
 10 13  1  0  0  0  0
 11 10  1  0  0  0  0
 12 10  1  0  0  0  0
 13  4  1  0  0  0  0
 13 14  1  0  0  0  0
 15 13  1  0  0  0  0
 16 18  1  0  0  0  0
 16 19  1  0  0  0  0
 17 16  1  0  0  0  0
 19  5  1  0  0  0  0
 19 20  1  0  0  0  0
 21 19  1  0  0  0  0
 22 25  1  0  0  0  0
 23 22  1  0  0  0  0
 24 22  1  0  0  0  0
 25 26  1  0  0  0  0
 25  3  1  0  0  0  0
 27 25  1  0  0  0  0
 28 29  1  0  0  0  0
 30 28  1  0  0  0  0
 32 31  1  0  0  0  0
 33 31  1  0  0  0  0
 34 35  1  0  0  0  0
 34  9  1  0  0  0  0
 34 36  1  0  0  0  0
 37 38  1  0  0  0  0
 37  7  1  0  0  0  0
 39 37  1  0  0  0  0
 40 41  1  0  0  0  0
 42 40  1  0  0  0  0
 43 45  1  0  0  0  0
 43 44  1  0  0  0  0
M  END
$$$$
