CSD_code = QUYHOJ | q = 1 | S = 0 | Stoichiometry = C12H24ClN3PPdS3(1+) | MND = 5
 OpenBabel04212202093D

 45 50  0  0  1  0  0  0  0  0999 V2000
    8.2791    9.1888    0.0364 Pd  0  0  0  0  0  0  0  0  0  0  0  0
    7.0945    9.9315    1.7996 Cl  0  0  0  0  0  0  0  0  0  0  0  0
    6.2078    9.1142   -1.8856 S   0  0  1  0  0  3  0  0  0  0  0  0
    8.6846   11.4154   -0.7391 S   0  0  2  0  0  3  0  0  0  0  0  0
    9.6619    8.3617   -1.6679 S   0  0  2  0  0  3  0  0  0  0  0  0
    7.8538    7.3326    1.2691 P   0  0  2  0  0  4  0  0  0  0  0  0
    8.1558    4.6222    1.4823 N   0  0  1  0  0  0  0  0  0  0  0  0
    6.0570    5.5555    2.2545 N   0  0  2  0  0  0  0  0  0  0  0  0
    8.0780    5.8832    3.5478 N   0  0  1  0  0  0  0  0  0  0  0  0
    6.5396   10.7856   -2.5765 C   0  0  0  0  0  0  0  0  0  0  0  0
    7.1855   10.6672   -3.4443 H   0  0  0  0  0  0  0  0  0  0  0  0
    5.5760   11.1669   -2.9181 H   0  0  0  0  0  0  0  0  0  0  0  0
    7.0883   11.7771   -1.5624 C   0  0  0  0  0  0  0  0  0  0  0  0
    6.3999   11.8648   -0.7173 H   0  0  0  0  0  0  0  0  0  0  0  0
    7.1980   12.7562   -2.0327 H   0  0  0  0  0  0  0  0  0  0  0  0
    9.8496   11.1594   -2.1430 C   0  0  0  0  0  0  0  0  0  0  0  0
    9.2786   11.1861   -3.0695 H   0  0  0  0  0  0  0  0  0  0  0  0
   10.5357   12.0080   -2.1380 H   0  0  0  0  0  0  0  0  0  0  0  0
   10.6474    9.8789   -1.9839 C   0  0  0  0  0  0  0  0  0  0  0  0
   11.3013    9.9445   -1.1108 H   0  0  0  0  0  0  0  0  0  0  0  0
   11.2581    9.6883   -2.8685 H   0  0  0  0  0  0  0  0  0  0  0  0
    8.6407    8.2836   -3.2006 C   0  0  0  0  0  0  0  0  0  0  0  0
    8.8047    9.2105   -3.7463 H   0  0  0  0  0  0  0  0  0  0  0  0
    9.0621    7.4652   -3.7870 H   0  0  0  0  0  0  0  0  0  0  0  0
    7.1609    8.0081   -3.0006 C   0  0  0  0  0  0  0  0  0  0  0  0
    7.0094    7.0242   -2.5550 H   0  0  0  0  0  0  0  0  0  0  0  0
    6.6678    8.0308   -3.9739 H   0  0  0  0  0  0  0  0  0  0  0  0
    8.5347    5.7148    0.6191 C   0  0  0  0  0  0  0  0  0  0  0  0
    8.1490    5.5274   -0.3906 H   0  0  0  0  0  0  0  0  0  0  0  0
    9.6286    5.7724    0.5635 H   0  0  0  0  0  0  0  0  0  0  0  0
    6.0936    6.7902    1.5079 C   0  0  0  0  0  0  0  0  0  0  0  0
    5.5444    7.5671    2.0502 H   0  0  0  0  0  0  0  0  0  0  0  0
    5.6175    6.6459    0.5302 H   0  0  0  0  0  0  0  0  0  0  0  0
    8.4551    7.1718    3.0202 C   0  0  0  0  0  0  0  0  0  0  0  0
    9.5469    7.2742    3.0436 H   0  0  0  0  0  0  0  0  0  0  0  0
    8.0141    7.9657    3.6324 H   0  0  0  0  0  0  0  0  0  0  0  0
    6.6362    5.6988    3.5812 C   0  0  0  0  0  0  0  0  0  0  0  0
    6.1741    6.5499    4.0862 H   0  0  0  0  0  0  0  0  0  0  0  0
    6.4213    4.7888    4.1473 H   0  0  0  0  0  0  0  0  0  0  0  0
    8.6894    4.7808    2.8273 C   0  0  0  0  0  0  0  0  0  0  0  0
    8.4941    3.8588    3.3808 H   0  0  0  0  0  0  0  0  0  0  0  0
    9.7695    4.9376    2.7704 H   0  0  0  0  0  0  0  0  0  0  0  0
    6.7113    4.4616    1.5589 C   0  0  0  0  0  0  0  0  0  0  0  0
    6.5014    3.5363    2.1013 H   0  0  0  0  0  0  0  0  0  0  0  0
    6.3035    4.3794    0.5481 H   0  0  0  0  0  0  0  0  0  0  0  0
  1  2  1  0  0  0  0
  3 25  1  6  0  0  0
  3  1  1  0  0  0  0
  4 16  1  6  0  0  0
  4  1  1  0  0  0  0
  5 22  1  6  0  0  0
  5  1  1  0  0  0  0
  6  1  1  6  0  0  0
  6 31  1  0  0  0  0
  6 34  1  0  0  0  0
  7 28  1  6  0  0  0
  7 43  1  0  0  0  0
  7 40  1  0  0  0  0
  8 31  1  6  0  0  0
  8 37  1  0  0  0  0
  9 40  1  6  0  0  0
  9 37  1  0  0  0  0
 10  3  1  0  0  0  0
 10 13  1  0  0  0  0
 11 10  1  0  0  0  0
 12 10  1  0  0  0  0
 13  4  1  0  0  0  0
 13 14  1  0  0  0  0
 15 13  1  0  0  0  0
 16 18  1  0  0  0  0
 16 19  1  0  0  0  0
 17 16  1  0  0  0  0
 19  5  1  0  0  0  0
 19 20  1  0  0  0  0
 21 19  1  0  0  0  0
 22 25  1  0  0  0  0
 23 22  1  0  0  0  0
 24 22  1  0  0  0  0
 25 26  1  0  0  0  0
 27 25  1  0  0  0  0
 28  6  1  0  0  0  0
 29 28  1  0  0  0  0
 30 28  1  0  0  0  0
 31 32  1  0  0  0  0
 33 31  1  0  0  0  0
 34 35  1  0  0  0  0
 34  9  1  0  0  0  0
 34 36  1  0  0  0  0
 37 38  1  0  0  0  0
 37 39  1  0  0  0  0
 40 41  1  0  0  0  0
 42 40  1  0  0  0  0
 43 44  1  0  0  0  0
 43  8  1  0  0  0  0
 45 43  1  0  0  0  0
M  END
$$$$
