CSD_code = QUYWOY | q = 0 | S = 0 | Stoichiometry = C16H10BrN4O4Re | MND = 6
 OpenBabel04212202093D

 36 39  0  0  1  0  0  0  0  0999 V2000
   -0.5639    1.6581    4.8852 Re  0  0  0  0  0  0  0  0  0  0  0  0
    0.4834    1.2861    2.5743 Br  0  0  0  0  0  0  0  0  0  0  0  0
   -1.7721    2.3874    7.6324 O   0  0  0  0  0  1  0  0  0  0  0  0
   -2.4851   -0.7069    4.3564 O   0  0  0  0  0  1  0  0  0  0  0  0
    1.6649   -0.1425    6.0447 O   0  0  0  0  0  1  0  0  0  0  0  0
   -3.0970    6.9392    1.3670 O   0  0  0  0  0  0  0  0  0  0  0  0
   -2.4006    6.5122    1.9104 H   0  0  0  0  0  0  0  0  0  0  0  0
   -1.7654    3.0896    3.8431 N   0  0  0  0  0  0  0  0  0  0  0  0
   -2.9377    3.1573    3.2010 N   0  0  0  0  0  0  0  0  0  0  0  0
   -3.5690    2.3707    3.1857 H   0  0  0  0  0  0  0  0  0  0  0  0
   -1.9449    5.0675    2.8473 N   0  0  0  0  0  0  0  0  0  0  0  0
    0.6556    3.5048    4.8572 N   0  0  0  0  0  0  0  0  0  0  0  0
   -1.3253    2.1095    6.6133 C   0  0  0  0  0  2  0  0  0  0  0  0
    0.8030    0.5051    5.6632 C   0  0  0  0  0  2  0  0  0  0  0  0
   -1.7622    0.1455    4.6097 C   0  0  0  0  0  2  0  0  0  0  0  0
   -3.0420    4.3641    2.5896 C   0  0  2  0  0  3  0  0  0  0  0  0
   -1.1834    4.2588    3.6068 C   0  0  0  0  0  0  0  0  0  0  0  0
    0.1382    4.5140    4.1319 C   0  0  2  0  0  3  0  0  0  0  0  0
    0.8300    5.6931    3.8778 C   0  0  0  0  0  0  0  0  0  0  0  0
    0.3589    6.4587    3.2830 H   0  0  0  0  0  0  0  0  0  0  0  0
    2.1065    5.8334    4.3877 C   0  0  0  0  0  0  0  0  0  0  0  0
    2.6762    6.7308    4.2037 H   0  0  0  0  0  0  0  0  0  0  0  0
    2.6407    4.7923    5.1349 C   0  0  0  0  0  0  0  0  0  0  0  0
    3.6343    4.8553    5.5479 H   0  0  0  0  0  0  0  0  0  0  0  0
    1.8828    3.6535    5.3442 C   0  0  0  0  0  0  0  0  0  0  0  0
    2.2762    2.8259    5.9202 H   0  0  0  0  0  0  0  0  0  0  0  0
   -4.1575    4.8142    1.7978 C   0  0  0  0  0  0  0  0  0  0  0  0
   -4.1255    6.0996    1.2170 C   0  0  0  0  0  0  0  0  0  0  0  0
   -5.2140    6.5228    0.4515 C   0  0  0  0  0  0  0  0  0  0  0  0
   -5.1693    7.5083    0.0165 H   0  0  0  0  0  0  0  0  0  0  0  0
   -6.3032    5.7024    0.2618 C   0  0  0  0  0  0  0  0  0  0  0  0
   -7.1347    6.0463   -0.3339 H   0  0  0  0  0  0  0  0  0  0  0  0
   -6.3373    4.4343    0.8318 C   0  0  0  0  0  0  0  0  0  0  0  0
   -7.1913    3.7935    0.6800 H   0  0  0  0  0  0  0  0  0  0  0  0
   -5.2757    3.9976    1.5902 C   0  0  0  0  0  0  0  0  0  0  0  0
   -5.3104    3.0111    2.0281 H   0  0  0  0  0  0  0  0  0  0  0  0
  1 14  1  0  0  0  0
  1 13  1  0  0  0  0
  2  1  1  0  0  0  0
  4 15  1  0  0  0  0
  6  7  1  0  0  0  0
  8  1  1  0  0  0  0
  9  8  1  0  0  0  0
 10  9  1  0  0  0  0
 11 17  2  0  0  0  0
 12  1  1  0  0  0  0
 12 25  1  0  0  0  0
 13  3  1  0  0  0  0
 14  5  1  0  0  0  0
 15  1  1  0  0  0  0
 16 27  1  1  0  0  0
 16 11  1  0  0  0  0
 16  9  1  0  0  0  0
 17  8  1  0  0  0  0
 18 17  1  6  0  0  0
 18 12  1  0  0  0  0
 19 18  1  0  0  0  0
 19 21  2  0  0  0  0
 20 19  1  0  0  0  0
 21 23  1  0  0  0  0
 22 21  1  0  0  0  0
 23 25  2  0  0  0  0
 23 24  1  0  0  0  0
 25 26  1  0  0  0  0
 28  6  1  0  0  0  0
 28 27  2  0  0  0  0
 29 28  1  0  0  0  0
 30 29  1  0  0  0  0
 31 29  2  0  0  0  0
 31 33  1  0  0  0  0
 32 31  1  0  0  0  0
 33 35  2  0  0  0  0
 34 33  1  0  0  0  0
 35 27  1  0  0  0  0
 35 36  1  0  0  0  0
M  END
$$$$
