CSD_code = RABFUY | q = 0 | S = 0 | Stoichiometry = C21H41AuClN3Si3 | MND = 2
 OpenBabel04212202093D

 70 70  0  0  1  0  0  0  0  0999 V2000
    4.3463   13.9975    4.4695 Au  0  0  0  0  0  0  0  0  0  0  0  0
    5.7389   15.3117    5.8139 Cl  0  0  0  0  0  0  0  0  0  0  0  0
    2.9641   12.7836    3.0889 Si  0  0  1  0  0  3  0  0  0  0  0  0
    3.3380   10.1776    4.3830 Si  0  0  0  0  0  0  0  0  0  0  0  0
    1.5191   10.2576    1.9182 Si  0  0  0  0  0  0  0  0  0  0  0  0
    2.5491   11.1010    3.0828 N   0  0  0  0  0  0  0  0  0  0  0  0
    2.8575    8.3339    4.4137 C   0  0  0  0  0  0  0  0  0  0  0  0
    1.8624    8.1828    4.8158 H   0  0  0  0  0  0  0  0  0  0  0  0
    3.5481    7.7989    5.0589 H   0  0  0  0  0  0  0  0  0  0  0  0
    2.8951    7.8666    3.4377 H   0  0  0  0  0  0  0  0  0  0  0  0
    3.1362   13.3789    1.3613 N   0  0  0  0  0  0  0  0  0  0  0  0
    2.8142   10.9206    6.0519 C   0  0  0  0  0  0  0  0  0  0  0  0
    1.7363   11.0213    6.1294 H   0  0  0  0  0  0  0  0  0  0  0  0
    3.2519   11.9005    6.2090 H   0  0  0  0  0  0  0  0  0  0  0  0
    3.1412   10.2842    6.8675 H   0  0  0  0  0  0  0  0  0  0  0  0
    5.2190   10.2948    4.1321 C   0  0  0  0  0  0  0  0  0  0  0  0
    5.5854   11.2913    4.3546 H   0  0  0  0  0  0  0  0  0  0  0  0
    5.5098   10.0555    3.1143 H   0  0  0  0  0  0  0  0  0  0  0  0
    5.7360    9.6050    4.7909 H   0  0  0  0  0  0  0  0  0  0  0  0
    2.6119    9.0505    0.9115 C   0  0  0  0  0  0  0  0  0  0  0  0
    3.5491    8.8380    1.4151 H   0  0  0  0  0  0  0  0  0  0  0  0
    2.8508    9.4525   -0.0693 H   0  0  0  0  0  0  0  0  0  0  0  0
    2.1016    8.1059    0.7505 H   0  0  0  0  0  0  0  0  0  0  0  0
    0.1199    9.3692    2.8721 C   0  0  0  0  0  0  0  0  0  0  0  0
    0.0596    9.7080    3.9011 H   0  0  0  0  0  0  0  0  0  0  0  0
    0.2705    8.2957    2.8902 H   0  0  0  0  0  0  0  0  0  0  0  0
   -0.8459    9.5482    2.4082 H   0  0  0  0  0  0  0  0  0  0  0  0
    0.6407   11.3655    0.6430 C   0  0  0  0  0  0  0  0  0  0  0  0
    1.3392   11.9626    0.0710 H   0  0  0  0  0  0  0  0  0  0  0  0
   -0.0643   12.0398    1.1142 H   0  0  0  0  0  0  0  0  0  0  0  0
    0.0859   10.7451   -0.0555 H   0  0  0  0  0  0  0  0  0  0  0  0
    4.2270   13.4186    0.4125 C   0  0  0  0  0  0  0  0  0  0  0  0
    5.1148   12.2160    0.7382 C   0  0  0  0  0  0  0  0  0  0  0  0
    4.5167   11.3097    0.7565 H   0  0  0  0  0  0  0  0  0  0  0  0
    5.5728   12.3458    1.7144 H   0  0  0  0  0  0  0  0  0  0  0  0
    5.8985   12.1137   -0.0077 H   0  0  0  0  0  0  0  0  0  0  0  0
    5.0430   14.7094    0.5635 C   0  0  0  0  0  0  0  0  0  0  0  0
    5.3137   14.8623    1.6062 H   0  0  0  0  0  0  0  0  0  0  0  0
    4.4777   15.5708    0.2165 H   0  0  0  0  0  0  0  0  0  0  0  0
    5.9544   14.6385   -0.0247 H   0  0  0  0  0  0  0  0  0  0  0  0
    3.7175   13.2959   -1.0293 C   0  0  0  0  0  0  0  0  0  0  0  0
    3.0733   14.1319   -1.2900 H   0  0  0  0  0  0  0  0  0  0  0  0
    3.1633   12.3690   -1.1585 H   0  0  0  0  0  0  0  0  0  0  0  0
    4.5619   13.2894   -1.7138 H   0  0  0  0  0  0  0  0  0  0  0  0
    2.0898   14.1720    1.5046 C   0  0  2  0  0  3  0  0  0  0  0  0
    1.7138   15.3090    0.6541 C   0  0  0  0  0  0  0  0  0  0  0  0
    0.8625   15.1487   -0.4346 C   0  0  0  0  0  0  0  0  0  0  0  0
    0.4617   14.1717   -0.6603 H   0  0  0  0  0  0  0  0  0  0  0  0
    0.5269   16.2390   -1.2177 C   0  0  0  0  0  0  0  0  0  0  0  0
   -0.1339   16.1077   -2.0614 H   0  0  0  0  0  0  0  0  0  0  0  0
    1.0350   17.4928   -0.9210 C   0  0  0  0  0  0  0  0  0  0  0  0
    0.7710   18.3415   -1.5334 H   0  0  0  0  0  0  0  0  0  0  0  0
    1.8818   17.6564    0.1627 C   0  0  0  0  0  0  0  0  0  0  0  0
    2.2801   18.6317    0.3982 H   0  0  0  0  0  0  0  0  0  0  0  0
    2.2232   16.5703    0.9495 C   0  0  0  0  0  0  0  0  0  0  0  0
    2.8874   16.6936    1.7928 H   0  0  0  0  0  0  0  0  0  0  0  0
    1.4947   13.7760    2.6137 N   0  0  0  0  0  0  0  0  0  0  0  0
    0.3918   14.3467    3.3545 C   0  0  0  0  0  0  0  0  0  0  0  0
    0.0246   13.3106    4.4190 C   0  0  0  0  0  0  0  0  0  0  0  0
    0.8616   13.1657    5.0957 H   0  0  0  0  0  0  0  0  0  0  0  0
   -0.2036   12.3589    3.9468 H   0  0  0  0  0  0  0  0  0  0  0  0
   -0.8385   13.6433    4.9895 H   0  0  0  0  0  0  0  0  0  0  0  0
   -0.8260   14.6138    2.4616 C   0  0  0  0  0  0  0  0  0  0  0  0
   -1.1188   13.7117    1.9297 H   0  0  0  0  0  0  0  0  0  0  0  0
   -0.6190   15.3955    1.7357 H   0  0  0  0  0  0  0  0  0  0  0  0
   -1.6622   14.9339    3.0781 H   0  0  0  0  0  0  0  0  0  0  0  0
    0.8168   15.6543    4.0362 C   0  0  0  0  0  0  0  0  0  0  0  0
    1.0102   16.4285    3.2978 H   0  0  0  0  0  0  0  0  0  0  0  0
    1.7189   15.4987    4.6240 H   0  0  0  0  0  0  0  0  0  0  0  0
    0.0253   16.0005    4.6960 H   0  0  0  0  0  0  0  0  0  0  0  0
  1  2  1  0  0  0  0
  3  6  1  6  0  0  0
  4  7  1  0  0  0  0
  4 12  1  0  0  0  0
  5 24  1  0  0  0  0
  5  6  1  0  0  0  0
  6  4  1  0  0  0  0
  7  8  1  0  0  0  0
  7  9  1  0  0  0  0
 10  7  1  0  0  0  0
 11 45  1  0  0  0  0
 11  3  1  0  0  0  0
 12 13  1  0  0  0  0
 12 14  1  0  0  0  0
 12 15  1  0  0  0  0
 16 17  1  0  0  0  0
 16  4  1  0  0  0  0
 16 19  1  0  0  0  0
 18 16  1  0  0  0  0
 20 21  1  0  0  0  0
 20  5  1  0  0  0  0
 22 20  1  0  0  0  0
 23 20  1  0  0  0  0
 24 26  1  0  0  0  0
 24 25  1  0  0  0  0
 27 24  1  0  0  0  0
 28 30  1  0  0  0  0
 28  5  1  0  0  0  0
 29 28  1  0  0  0  0
 31 28  1  0  0  0  0
 32 37  1  0  0  0  0
 32 33  1  0  0  0  0
 32 11  1  0  0  0  0
 33 34  1  0  0  0  0
 33 35  1  0  0  0  0
 36 33  1  0  0  0  0
 37 38  1  0  0  0  0
 39 37  1  0  0  0  0
 40 37  1  0  0  0  0
 41 32  1  0  0  0  0
 42 41  1  0  0  0  0
 43 41  1  0  0  0  0
 44 41  1  0  0  0  0
 45 46  1  1  0  0  0
 45 57  1  0  0  0  0
 46 55  1  0  0  0  0
 47 46  2  0  0  0  0
 48 47  1  0  0  0  0
 49 51  2  0  0  0  0
 49 47  1  0  0  0  0
 50 49  1  0  0  0  0
 51 53  1  0  0  0  0
 52 51  1  0  0  0  0
 53 54  1  0  0  0  0
 53 55  2  0  0  0  0
 55 56  1  0  0  0  0
 57  3  1  0  0  0  0
 57 58  1  0  0  0  0
 58 67  1  0  0  0  0
 58 59  1  0  0  0  0
 59 62  1  0  0  0  0
 59 60  1  0  0  0  0
 61 59  1  0  0  0  0
 63 66  1  0  0  0  0
 63 58  1  0  0  0  0
 64 63  1  0  0  0  0
 65 63  1  0  0  0  0
 67 69  1  0  0  0  0
 67 70  1  0  0  0  0
 68 67  1  0  0  0  0
M  END
$$$$
