CSD_code = RACBAU | q = 0 | S = 0 | Stoichiometry = C14H16Cl2O2P2Pt | MND = 4
 OpenBabel04212202093D

 37 39  0  0  0  0  0  0  0  0999 V2000
    4.8348   15.6043    1.3980 Pt  0  0  0  0  0  0  0  0  0  0  0  0
    3.3941   17.2891    0.7530 Cl  0  0  0  0  0  0  0  0  0  0  0  0
    6.8395   16.6501    0.9510 Cl  0  0  0  0  0  0  0  0  0  0  0  0
    6.0295   13.7337    1.6946 P   0  0  2  0  0  4  0  0  0  0  0  0
    2.9948   14.2934    1.5104 P   0  0  1  0  0  4  0  0  0  0  0  0
    7.4427   13.6547    0.9900 O   0  0  0  0  0  0  0  0  0  0  0  0
    2.1768   14.5228    0.1718 O   0  0  0  0  0  0  0  0  0  0  0  0
    4.9986   12.4586    0.8385 C   0  0  0  0  0  0  0  0  0  0  0  0
    3.5681   12.5319    1.3646 C   0  0  0  0  0  0  0  0  0  0  0  0
    6.2804   13.0797    3.3689 C   0  0  0  0  0  0  0  0  0  0  0  0
    5.7784   13.8114    4.4372 C   0  0  0  0  0  0  0  0  0  0  0  0
    5.9469   13.3475    5.7297 C   0  0  0  0  0  0  0  0  0  0  0  0
    6.6250   12.1590    5.9501 C   0  0  0  0  0  0  0  0  0  0  0  0
    7.1418   11.4378    4.8844 C   0  0  0  0  0  0  0  0  0  0  0  0
    6.9713   11.8956    3.5904 C   0  0  0  0  0  0  0  0  0  0  0  0
    1.7357   14.2191    2.8156 C   0  0  0  0  0  0  0  0  0  0  0  0
    2.0923   13.7890    4.0900 C   0  0  0  0  0  0  0  0  0  0  0  0
    1.1519   13.7766    5.1023 C   0  0  0  0  0  0  0  0  0  0  0  0
   -0.1428   14.2056    4.8522 C   0  0  0  0  0  0  0  0  0  0  0  0
   -0.4952   14.6498    3.5888 C   0  0  0  0  0  0  0  0  0  0  0  0
    0.4422   14.6635    2.5710 C   0  0  0  0  0  0  0  0  0  0  0  0
    7.6994   14.5815    0.7787 H   0  0  0  0  0  0  0  0  0  0  0  0
    2.2984   15.4629   -0.0824 H   0  0  0  0  0  0  0  0  0  0  0  0
    5.4246   11.4599    0.9639 H   0  0  0  0  0  0  0  0  0  0  0  0
    5.0310   12.7153   -0.2256 H   0  0  0  0  0  0  0  0  0  0  0  0
    2.8709   12.0081    0.7058 H   0  0  0  0  0  0  0  0  0  0  0  0
    3.5110   12.0797    2.3575 H   0  0  0  0  0  0  0  0  0  0  0  0
    5.2714   14.7505    4.2349 H   0  0  0  0  0  0  0  0  0  0  0  0
    5.5584   13.9128    6.5636 H   0  0  0  0  0  0  0  0  0  0  0  0
    6.7609   11.7969    6.9583 H   0  0  0  0  0  0  0  0  0  0  0  0
    7.6800   10.5191    5.0652 H   0  0  0  0  0  0  0  0  0  0  0  0
    7.3802   11.3522    2.7505 H   0  0  0  0  0  0  0  0  0  0  0  0
    3.1073   13.4696    4.2839 H   0  0  0  0  0  0  0  0  0  0  0  0
    1.4281   13.4379    6.0898 H   0  0  0  0  0  0  0  0  0  0  0  0
   -0.8749   14.1992    5.6459 H   0  0  0  0  0  0  0  0  0  0  0  0
   -1.5012   14.9914    3.3965 H   0  0  0  0  0  0  0  0  0  0  0  0
    0.1742   15.0121    1.5848 H   0  0  0  0  0  0  0  0  0  0  0  0
  1  5  1  0  0  0  0
  1  4  1  0  0  0  0
  2  1  1  0  0  0  0
  3  1  1  0  0  0  0
  4  6  1  6  0  0  0
  4 10  1  0  0  0  0
  5  7  1  6  0  0  0
  5 16  1  0  0  0  0
  8 24  1  0  0  0  0
  8  9  1  0  0  0  0
  8  4  1  0  0  0  0
  9  5  1  0  0  0  0
  9 27  1  0  0  0  0
 10 15  2  0  0  0  0
 10 11  1  0  0  0  0
 11 12  2  0  0  0  0
 12 13  1  0  0  0  0
 12 29  1  0  0  0  0
 13 30  1  0  0  0  0
 14 31  1  0  0  0  0
 14 13  2  0  0  0  0
 15 14  1  0  0  0  0
 16 17  1  0  0  0  0
 17 33  1  0  0  0  0
 17 18  2  0  0  0  0
 18 34  1  0  0  0  0
 19 18  1  0  0  0  0
 19 35  1  0  0  0  0
 20 19  2  0  0  0  0
 21 16  2  0  0  0  0
 21 20  1  0  0  0  0
 22  6  1  0  0  0  0
 23  7  1  0  0  0  0
 25  8  1  0  0  0  0
 26  9  1  0  0  0  0
 28 11  1  0  0  0  0
 32 15  1  0  0  0  0
 36 20  1  0  0  0  0
 37 21  1  0  0  0  0
M  END
$$$$
