CSD_code = RACDEF | q = 0 | S = 0 | Stoichiometry = C22H32ClF3N4O2PRh | MND = 4
 OpenBabel04212202093D

 66 66  0  0  1  0  0  0  0  0999 V2000
   10.5682    5.4556    2.3077 Rh  0  0  0  0  0  0  0  0  0  0  0  0
   10.4393    3.2317    2.6169 Cl  0  0  0  0  0  0  0  0  0  0  0  0
    8.3371    5.6563    2.8715 P   0  0  0  0  0  4  0  0  0  0  0  0
    7.7174    7.4438    2.8664 C   0  0  2  0  0  3  0  0  0  0  0  0
    6.5382    7.5879    2.4448 N   0  0  0  0  0  2  0  0  0  0  0  0
    5.4729    7.4553    2.0813 N   0  0  0  0  0  1  0  0  0  0  0  0
    8.6105    8.4893    3.2997 C   0  0  0  0  0  0  0  0  0  0  0  0
    8.5629    9.8190    2.8429 C   0  0  0  0  0  0  0  0  0  0  0  0
    9.4729   10.7591    3.3068 C   0  0  0  0  0  0  0  0  0  0  0  0
    9.4171   11.7723    2.9402 H   0  0  0  0  0  0  0  0  0  0  0  0
   10.4519   10.4057    4.2164 C   0  0  0  0  0  0  0  0  0  0  0  0
   11.1544   11.1453    4.5651 H   0  0  0  0  0  0  0  0  0  0  0  0
   10.5225    9.0972    4.6672 C   0  0  0  0  0  0  0  0  0  0  0  0
   11.2834    8.8072    5.3757 H   0  0  0  0  0  0  0  0  0  0  0  0
    9.6188    8.1581    4.2159 C   0  0  0  0  0  0  0  0  0  0  0  0
    9.6652    7.1456    4.5940 H   0  0  0  0  0  0  0  0  0  0  0  0
    7.5507   10.2489    1.8223 C   0  0  0  0  0  0  0  0  0  0  0  0
    7.5010    9.4253    0.7551 F   0  0  0  0  0  0  0  0  0  0  0  0
    6.2955   10.2941    2.3199 F   0  0  0  0  0  0  0  0  0  0  0  0
    7.7885   11.4700    1.3288 F   0  0  0  0  0  0  0  0  0  0  0  0
    7.2968    4.9998    1.7171 N   0  0  0  0  0  0  0  0  0  0  0  0
    7.5500    5.5575    0.3791 C   0  0  0  0  0  0  0  0  0  0  0  0
    7.8576    6.5983    0.5642 H   0  0  0  0  0  0  0  0  0  0  0  0
    8.7084    4.9170   -0.3931 C   0  0  0  0  0  0  0  0  0  0  0  0
    9.5917    4.8047    0.2619 H   0  0  0  0  0  0  0  0  0  0  0  0
    8.9807    5.5705   -1.2192 H   0  0  0  0  0  0  0  0  0  0  0  0
    8.4484    3.9451   -0.7977 H   0  0  0  0  0  0  0  0  0  0  0  0
    6.2951    5.6070   -0.4869 C   0  0  0  0  0  0  0  0  0  0  0  0
    6.0233    4.6193   -0.8472 H   0  0  0  0  0  0  0  0  0  0  0  0
    6.4897    6.2405   -1.3487 H   0  0  0  0  0  0  0  0  0  0  0  0
    5.4638    6.0320    0.0685 H   0  0  0  0  0  0  0  0  0  0  0  0
    6.6899    3.6855    1.9379 C   0  0  0  0  0  0  0  0  0  0  0  0
    6.9312    3.4572    2.9813 H   0  0  0  0  0  0  0  0  0  0  0  0
    7.2598    2.5410    1.1046 C   0  0  0  0  0  0  0  0  0  0  0  0
    6.9749    2.6208    0.0595 H   0  0  0  0  0  0  0  0  0  0  0  0
    6.8608    1.6040    1.4879 H   0  0  0  0  0  0  0  0  0  0  0  0
    8.3421    2.5088    1.1915 H   0  0  0  0  0  0  0  0  0  0  0  0
    5.1628    3.7289    1.8034 C   0  0  0  0  0  0  0  0  0  0  0  0
    4.7613    4.6624    2.1888 H   0  0  0  0  0  0  0  0  0  0  0  0
    4.7270    2.9071    2.3669 H   0  0  0  0  0  0  0  0  0  0  0  0
    4.8524    3.6263    0.7685 H   0  0  0  0  0  0  0  0  0  0  0  0
    7.8339    5.1118    4.3712 N   0  0  0  0  0  0  0  0  0  0  0  0
    6.4477    5.3889    4.7676 C   0  0  0  0  0  0  0  0  0  0  0  0
    5.9302    5.5838    3.8226 H   0  0  0  0  0  0  0  0  0  0  0  0
    6.2902    6.6399    5.6434 C   0  0  0  0  0  0  0  0  0  0  0  0
    6.4618    6.4186    6.6921 H   0  0  0  0  0  0  0  0  0  0  0  0
    5.2751    7.0169    5.5415 H   0  0  0  0  0  0  0  0  0  0  0  0
    6.9754    7.4264    5.3397 H   0  0  0  0  0  0  0  0  0  0  0  0
    5.7306    4.2156    5.4328 C   0  0  0  0  0  0  0  0  0  0  0  0
    5.8370    3.3028    4.8549 H   0  0  0  0  0  0  0  0  0  0  0  0
    4.6717    4.4544    5.5016 H   0  0  0  0  0  0  0  0  0  0  0  0
    6.1004    4.0431    6.4394 H   0  0  0  0  0  0  0  0  0  0  0  0
    8.8407    4.5492    5.2786 C   0  0  0  0  0  0  0  0  0  0  0  0
    9.8070    4.7402    4.7743 H   0  0  0  0  0  0  0  0  0  0  0  0
    8.9061    5.2171    6.6500 C   0  0  0  0  0  0  0  0  0  0  0  0
    8.9385    6.3002    6.5699 H   0  0  0  0  0  0  0  0  0  0  0  0
    9.8118    4.8850    7.1529 H   0  0  0  0  0  0  0  0  0  0  0  0
    8.0603    4.9338    7.2700 H   0  0  0  0  0  0  0  0  0  0  0  0
    8.7219    3.0325    5.4365 C   0  0  0  0  0  0  0  0  0  0  0  0
    7.8806    2.7513    6.0615 H   0  0  0  0  0  0  0  0  0  0  0  0
    9.6312    2.6547    5.8975 H   0  0  0  0  0  0  0  0  0  0  0  0
    8.6230    2.5607    4.4631 H   0  0  0  0  0  0  0  0  0  0  0  0
   12.3408    4.9502    2.0063 C   0  0  0  0  0  2  0  0  0  0  0  0
   13.3714    4.4778    1.9071 O   0  0  0  0  0  1  0  0  0  0  0  0
   10.8185    7.2252    1.8412 C   0  0  0  0  0  2  0  0  0  0  0  0
   11.0562    8.2588    1.4063 O   0  0  0  0  0  1  0  0  0  0  0  0
  1  2  1  0  0  0  0
  1  3  1  0  0  0  0
  3 42  1  0  0  0  0
  4  5  1  6  0  0  0
  4  3  1  0  0  0  0
  4  7  1  0  0  0  0
  6  5  1  0  0  0  0
  7 15  1  0  0  0  0
  8  7  2  0  0  0  0
  8  9  1  0  0  0  0
  9 11  2  0  0  0  0
 10  9  1  0  0  0  0
 11 12  1  0  0  0  0
 11 13  1  0  0  0  0
 13 14  1  0  0  0  0
 15 16  1  0  0  0  0
 15 13  2  0  0  0  0
 17 19  1  0  0  0  0
 17  8  1  0  0  0  0
 18 17  1  0  0  0  0
 20 17  1  0  0  0  0
 21 32  1  0  0  0  0
 21  3  1  0  0  0  0
 22 23  1  0  0  0  0
 22 21  1  0  0  0  0
 24 25  1  0  0  0  0
 24 22  1  0  0  0  0
 26 24  1  0  0  0  0
 27 24  1  0  0  0  0
 28 31  1  0  0  0  0
 28 22  1  0  0  0  0
 29 28  1  0  0  0  0
 30 28  1  0  0  0  0
 32 33  1  0  0  0  0
 34 37  1  0  0  0  0
 34 36  1  0  0  0  0
 34 32  1  0  0  0  0
 35 34  1  0  0  0  0
 38 32  1  0  0  0  0
 38 39  1  0  0  0  0
 38 40  1  0  0  0  0
 41 38  1  0  0  0  0
 42 43  1  0  0  0  0
 42 53  1  0  0  0  0
 43 49  1  0  0  0  0
 43 45  1  0  0  0  0
 44 43  1  0  0  0  0
 45 46  1  0  0  0  0
 47 45  1  0  0  0  0
 48 45  1  0  0  0  0
 49 51  1  0  0  0  0
 49 52  1  0  0  0  0
 50 49  1  0  0  0  0
 53 59  1  0  0  0  0
 53 55  1  0  0  0  0
 54 53  1  0  0  0  0
 55 57  1  0  0  0  0
 55 58  1  0  0  0  0
 56 55  1  0  0  0  0
 59 61  1  0  0  0  0
 59 60  1  0  0  0  0
 62 59  1  0  0  0  0
 63  1  1  0  0  0  0
 64 63  1  0  0  0  0
 65  1  1  0  0  0  0
 66 65  1  0  0  0  0
M  END
$$$$
