CSD_code = RACJUD | q = 0 | S = 0 | Stoichiometry = C27H22BBrN6Ni | MND = 4
 OpenBabel04212202093D

 58 65  0  0  1  0  0  0  0  0999 V2000
    0.1532    6.6037    3.6273 Ni  0  0  1  0  0  0  0  0  0  0  0  0
    0.3101    6.4892    6.7091 B   0  0  1  0  0  0  0  0  0  0  0  0
    0.3174    6.5331    7.8882 H   0  0  0  0  0  0  0  0  0  0  0  0
    1.6494    6.6435    2.0180 Br  0  0  0  0  0  0  0  0  0  0  0  0
    1.0402    7.6981    6.0861 N   0  0  1  0  0  0  0  0  0  0  0  0
    0.8977    8.0081    4.7928 N   0  0  0  0  0  0  0  0  0  0  0  0
    1.7083    8.6837    6.6994 C   0  0  0  0  0  3  0  0  0  0  0  0
    1.9305    8.6321    7.7461 H   0  0  0  0  0  0  0  0  0  0  0  0
    2.0023    9.6614    5.7746 C   0  0  0  0  0  0  0  0  0  0  0  0
    2.5115   10.5876    5.9414 H   0  0  0  0  0  0  0  0  0  0  0  0
    1.4521    9.2009    4.5693 C   0  0  0  0  0  0  0  0  0  0  0  0
    2.3185   10.7763    2.8580 C   0  0  0  0  0  0  0  0  0  0  0  0
    3.1762   10.9698    3.4844 H   0  0  0  0  0  0  0  0  0  0  0  0
    2.1961   11.4024    1.6319 C   0  0  0  0  0  0  0  0  0  0  0  0
    2.9556   12.0983    1.3074 H   0  0  0  0  0  0  0  0  0  0  0  0
    1.1101   11.1335    0.8154 C   0  0  0  0  0  0  0  0  0  0  0  0
    1.0213   11.6209   -0.1440 H   0  0  0  0  0  0  0  0  0  0  0  0
    0.1389   10.2365    1.2292 C   0  0  0  0  0  0  0  0  0  0  0  0
   -0.7091   10.0224    0.5953 H   0  0  0  0  0  0  0  0  0  0  0  0
    0.2544    9.6118    2.4549 C   0  0  0  0  0  0  0  0  0  0  0  0
   -0.5199    8.9173    2.7829 H   0  0  0  0  0  0  0  0  0  0  0  0
    1.3505    9.8697    3.2794 C   0  0  0  0  0  0  0  0  0  0  0  0
   -1.1227    6.5633    6.1262 N   0  0  1  0  0  0  0  0  0  0  0  0
   -1.2510    6.5991    4.8100 N   0  0  0  0  0  0  0  0  0  0  0  0
   -2.3397    6.5860    6.6849 C   0  0  0  0  0  3  0  0  0  0  0  0
   -2.4636    6.5560    7.7484 H   0  0  0  0  0  0  0  0  0  0  0  0
   -3.2847    6.6485    5.6795 C   0  0  0  0  0  0  0  0  0  0  0  0
   -4.3494    6.6754    5.7858 H   0  0  0  0  0  0  0  0  0  0  0  0
   -2.5451    6.6532    4.4883 C   0  0  0  0  0  0  0  0  0  0  0  0
   -4.0970    7.3033    2.6423 C   0  0  0  0  0  0  0  0  0  0  0  0
   -4.8280    7.6324    3.3655 H   0  0  0  0  0  0  0  0  0  0  0  0
   -4.3336    7.4555    1.2882 C   0  0  0  0  0  0  0  0  0  0  0  0
   -5.2630    7.8932    0.9550 H   0  0  0  0  0  0  0  0  0  0  0  0
   -3.3815    7.0655    0.3599 C   0  0  0  0  0  0  0  0  0  0  0  0
   -3.5682    7.1993   -0.6948 H   0  0  0  0  0  0  0  0  0  0  0  0
   -2.1914    6.4931    0.7830 C   0  0  0  0  0  0  0  0  0  0  0  0
   -1.4492    6.1756    0.0661 H   0  0  0  0  0  0  0  0  0  0  0  0
   -1.9577    6.3258    2.1344 C   0  0  0  0  0  0  0  0  0  0  0  0
   -1.0621    5.7538    2.4585 H   0  0  0  0  0  0  0  0  0  0  0  0
   -2.9001    6.7446    3.0814 C   0  0  0  0  0  0  0  0  0  0  0  0
    0.9020    5.1843    6.1700 N   0  0  2  0  0  0  0  0  0  0  0  0
    0.8746    4.8976    4.8568 N   0  0  0  0  0  0  0  0  0  0  0  0
    1.3613    4.1252    6.8526 C   0  0  0  0  0  3  0  0  0  0  0  0
    1.4612    4.1561    7.9188 H   0  0  0  0  0  0  0  0  0  0  0  0
    1.6364    3.1165    5.9577 C   0  0  0  0  0  0  0  0  0  0  0  0
    2.0185    2.1374    6.1604 H   0  0  0  0  0  0  0  0  0  0  0  0
    1.3124    3.6520    4.7033 C   0  0  0  0  0  0  0  0  0  0  0  0
    0.4299    2.0123    3.0813 C   0  0  0  0  0  0  0  0  0  0  0  0
   -0.3346    1.7579    3.8027 H   0  0  0  0  0  0  0  0  0  0  0  0
    0.4661    1.3810    1.8515 C   0  0  0  0  0  0  0  0  0  0  0  0
   -0.2717    0.6284    1.6122 H   0  0  0  0  0  0  0  0  0  0  0  0
    1.4425    1.7166    0.9282 C   0  0  0  0  0  0  0  0  0  0  0  0
    1.4666    1.2252   -0.0336 H   0  0  0  0  0  0  0  0  0  0  0  0
    2.3866    2.6798    1.2402 C   0  0  0  0  0  0  0  0  0  0  0  0
    3.1481    2.9471    0.5236 H   0  0  0  0  0  0  0  0  0  0  0  0
    2.3569    3.3116    2.4703 C   0  0  0  0  0  0  0  0  0  0  0  0
    3.0918    4.0634    2.7109 H   0  0  0  0  0  0  0  0  0  0  0  0
    1.3720    2.9866    3.3949 C   0  0  0  0  0  0  0  0  0  0  0  0
  1  4  1  6  0  0  0
  1  6  1  0  0  0  0
  1 24  1  0  0  0  0
  1 42  1  0  0  0  0
  2  3  1  1  0  0  0
  5  7  1  1  0  0  0
  5  2  1  0  0  0  0
  6  5  1  0  0  0  0
  7  8  1  0  0  0  0
  9 10  1  0  0  0  0
  9  7  1  0  0  0  0
 11  6  1  0  0  0  0
 11  9  2  0  0  0  0
 12 22  1  0  0  0  0
 12 13  1  0  0  0  0
 14 12  2  0  0  0  0
 15 14  1  0  0  0  0
 16 18  2  0  0  0  0
 16 14  1  0  0  0  0
 17 16  1  0  0  0  0
 18 20  1  0  0  0  0
 19 18  1  0  0  0  0
 20 21  1  0  0  0  0
 20 22  2  0  0  0  0
 22 11  1  0  0  0  0
 23 25  1  6  0  0  0
 23  2  1  0  0  0  0
 24 23  1  0  0  0  0
 25 26  1  0  0  0  0
 27 28  1  0  0  0  0
 27 25  1  0  0  0  0
 29 24  1  0  0  0  0
 29 27  2  0  0  0  0
 30 40  1  0  0  0  0
 30 31  1  0  0  0  0
 32 30  2  0  0  0  0
 33 32  1  0  0  0  0
 34 36  2  0  0  0  0
 34 32  1  0  0  0  0
 35 34  1  0  0  0  0
 36 38  1  0  0  0  0
 37 36  1  0  0  0  0
 38 39  1  0  0  0  0
 38 40  2  0  0  0  0
 40 29  1  0  0  0  0
 41  2  1  0  0  0  0
 41 43  1  1  0  0  0
 42 41  1  0  0  0  0
 43 44  1  0  0  0  0
 45 46  1  0  0  0  0
 45 43  1  0  0  0  0
 47 42  1  0  0  0  0
 47 45  2  0  0  0  0
 48 58  1  0  0  0  0
 48 49  1  0  0  0  0
 50 48  2  0  0  0  0
 51 50  1  0  0  0  0
 52 54  2  0  0  0  0
 52 50  1  0  0  0  0
 53 52  1  0  0  0  0
 54 56  1  0  0  0  0
 55 54  1  0  0  0  0
 56 57  1  0  0  0  0
 56 58  2  0  0  0  0
 58 47  1  0  0  0  0
M  END
$$$$
