CSD_code = RACNOZ | q = 0 | S = 0 | Stoichiometry = C14H24BrN3Pd | MND = 4
 OpenBabel04212202093D

 43 45  0  0  0  0  0  0  0  0999 V2000
   -0.2007    3.3303    6.8300 Pd  0  0  0  0  0  0  0  0  0  0  0  0
   -0.0792    1.0586    5.9386 Br  0  0  0  0  0  0  0  0  0  0  0  0
    0.7039    3.0130    8.7337 N   0  0  0  0  0  4  0  0  0  0  0  0
   -1.1429    4.3072    5.1866 N   0  0  0  0  0  4  0  0  0  0  0  0
   -0.4790    9.0250    9.0266 N   0  0  0  0  0  0  0  0  0  0  0  0
   -0.3015    5.1331    7.5397 C   0  0  0  0  0  0  0  0  0  0  0  0
    0.3490    5.4414    8.7228 C   0  0  0  0  0  0  0  0  0  0  0  0
    0.2716    6.7256    9.2378 C   0  0  0  0  0  0  0  0  0  0  0  0
    0.7720    6.9405   10.1683 H   0  0  0  0  0  0  0  0  0  0  0  0
   -0.4428    7.7232    8.5567 C   0  0  0  0  0  0  0  0  0  0  0  0
   -1.0932    7.3879    7.3581 C   0  0  0  0  0  0  0  0  0  0  0  0
   -1.6504    8.1305    6.8099 H   0  0  0  0  0  0  0  0  0  0  0  0
   -1.0260    6.0982    6.8588 C   0  0  0  0  0  0  0  0  0  0  0  0
    1.1469    4.3062    9.3169 C   0  0  0  0  0  0  0  0  0  0  0  0
    1.0738    4.2671   10.4139 H   0  0  0  0  0  0  0  0  0  0  0  0
    2.2026    4.4531    9.0586 H   0  0  0  0  0  0  0  0  0  0  0  0
   -1.7372    5.5964    5.6256 C   0  0  0  0  0  0  0  0  0  0  0  0
   -1.7120    6.3218    4.7988 H   0  0  0  0  0  0  0  0  0  0  0  0
   -2.7890    5.4176    5.8802 H   0  0  0  0  0  0  0  0  0  0  0  0
    0.0191    4.5623    4.3283 C   0  0  0  0  0  0  0  0  0  0  0  0
    0.5123    3.6142    4.0857 H   0  0  0  0  0  0  0  0  0  0  0  0
    0.7270    5.2146    4.8502 H   0  0  0  0  0  0  0  0  0  0  0  0
   -0.2874    5.0484    3.3910 H   0  0  0  0  0  0  0  0  0  0  0  0
   -2.1268    3.5141    4.4538 C   0  0  0  0  0  0  0  0  0  0  0  0
   -2.5190    4.0696    3.5915 H   0  0  0  0  0  0  0  0  0  0  0  0
   -2.9540    3.2483    5.1156 H   0  0  0  0  0  0  0  0  0  0  0  0
   -1.6647    2.5922    4.0978 H   0  0  0  0  0  0  0  0  0  0  0  0
   -0.4401    2.4917    9.4895 C   0  0  0  0  0  0  0  0  0  0  0  0
   -0.8244    1.5898    8.9996 H   0  0  0  0  0  0  0  0  0  0  0  0
   -1.2321    3.2471    9.5271 H   0  0  0  0  0  0  0  0  0  0  0  0
   -0.1450    2.2345   10.5168 H   0  0  0  0  0  0  0  0  0  0  0  0
    1.7932    2.0398    8.7627 C   0  0  0  0  0  0  0  0  0  0  0  0
    2.1659    1.8943    9.7853 H   0  0  0  0  0  0  0  0  0  0  0  0
    2.6125    2.3838    8.1277 H   0  0  0  0  0  0  0  0  0  0  0  0
    1.4411    1.0820    8.3768 H   0  0  0  0  0  0  0  0  0  0  0  0
   -1.5138    9.9118    8.5474 C   0  0  0  0  0  0  0  0  0  0  0  0
   -1.3254   10.1963    7.5088 H   0  0  0  0  0  0  0  0  0  0  0  0
   -1.5180   10.8203    9.1448 H   0  0  0  0  0  0  0  0  0  0  0  0
   -2.5088    9.4555    8.6098 H   0  0  0  0  0  0  0  0  0  0  0  0
    0.1110    9.3381   10.3043 C   0  0  0  0  0  0  0  0  0  0  0  0
   -0.4015    8.8466   11.1425 H   0  0  0  0  0  0  0  0  0  0  0  0
    0.0724   10.4143   10.4611 H   0  0  0  0  0  0  0  0  0  0  0  0
    1.1609    9.0409   10.3125 H   0  0  0  0  0  0  0  0  0  0  0  0
  1  6  1  0  0  0  0
  1  3  1  0  0  0  0
  2  1  1  0  0  0  0
  3 32  1  0  0  0  0
  3 14  1  0  0  0  0
  3 28  1  0  0  0  0
  4 17  1  0  0  0  0
  4  1  1  0  0  0  0
  5 40  1  0  0  0  0
  6  7  1  0  0  0  0
  7  8  2  0  0  0  0
  7 14  1  0  0  0  0
  8  9  1  0  0  0  0
 10  5  1  0  0  0  0
 10  8  1  0  0  0  0
 11 10  2  0  0  0  0
 12 11  1  0  0  0  0
 13 11  1  0  0  0  0
 13  6  2  0  0  0  0
 14 15  1  0  0  0  0
 16 14  1  0  0  0  0
 17 19  1  0  0  0  0
 17 13  1  0  0  0  0
 18 17  1  0  0  0  0
 20 22  1  0  0  0  0
 20  4  1  0  0  0  0
 21 20  1  0  0  0  0
 23 20  1  0  0  0  0
 24 26  1  0  0  0  0
 24  4  1  0  0  0  0
 25 24  1  0  0  0  0
 27 24  1  0  0  0  0
 28 30  1  0  0  0  0
 28 31  1  0  0  0  0
 29 28  1  0  0  0  0
 32 33  1  0  0  0  0
 34 32  1  0  0  0  0
 35 32  1  0  0  0  0
 36 39  1  0  0  0  0
 36  5  1  0  0  0  0
 36 38  1  0  0  0  0
 37 36  1  0  0  0  0
 40 43  1  0  0  0  0
 40 42  1  0  0  0  0
 40 41  1  0  0  0  0
M  END
$$$$
