CSD_code = RACQAP | q = 0 | S = 0 | Stoichiometry = C11H9AuClNOS | MND = 2
 OpenBabel04212202093D

 25 26  0  0  1  0  0  0  0  0999 V2000
   13.5046    7.3904    0.8035 Au  0  0  0  0  0  0  0  0  0  0  0  0
   15.3635    8.6027    1.0360 Cl  0  0  0  0  0  0  0  0  0  0  0  0
    9.3970    5.7279   -0.6025 S   0  0  0  0  0  0  0  0  0  0  0  0
   11.5081    5.2376    1.3019 O   0  0  0  0  0  0  0  0  0  0  0  0
    9.8558    7.7851   -2.0762 N   0  0  0  0  0  0  0  0  0  0  0  0
   11.8492    6.3006    0.6069 C   0  0  1  0  0  3  0  0  0  0  0  0
   10.8794    6.6349   -0.3609 C   0  0  0  0  0  0  0  0  0  0  0  0
   10.8992    7.6901   -1.2670 C   0  0  0  0  0  0  0  0  0  0  0  0
   11.6961    8.4085   -1.3385 H   0  0  0  0  0  0  0  0  0  0  0  0
    8.9695    6.8448   -1.8741 C   0  0  0  0  0  0  0  0  0  0  0  0
    7.7467    6.7275   -2.6247 C   0  0  0  0  0  0  0  0  0  0  0  0
    7.4678    7.6631   -3.6274 C   0  0  0  0  0  0  0  0  0  0  0  0
    8.1802    8.4515   -3.8108 H   0  0  0  0  0  0  0  0  0  0  0  0
    6.3010    7.5652   -4.3574 C   0  0  0  0  0  0  0  0  0  0  0  0
    6.0889    8.2886   -5.1301 H   0  0  0  0  0  0  0  0  0  0  0  0
    5.4009    6.5410   -4.1016 C   0  0  0  0  0  0  0  0  0  0  0  0
    4.4892    6.4674   -4.6751 H   0  0  0  0  0  0  0  0  0  0  0  0
    5.6706    5.6102   -3.1091 C   0  0  0  0  0  0  0  0  0  0  0  0
    4.9696    4.8135   -2.9106 H   0  0  0  0  0  0  0  0  0  0  0  0
    6.8345    5.6994   -2.3731 C   0  0  0  0  0  0  0  0  0  0  0  0
    7.0479    4.9760   -1.5992 H   0  0  0  0  0  0  0  0  0  0  0  0
   12.3455    4.7378    2.3191 C   0  0  0  0  0  0  0  0  0  0  0  0
   12.6185    3.7127    2.0617 H   0  0  0  0  0  0  0  0  0  0  0  0
   11.7795    4.7343    3.2525 H   0  0  0  0  0  0  0  0  0  0  0  0
   13.2451    5.3525    2.4246 H   0  0  0  0  0  0  0  0  0  0  0  0
  1  2  1  0  0  0  0
  3  7  1  0  0  0  0
  4 22  1  0  0  0  0
  5 10  2  0  0  0  0
  5  8  1  0  0  0  0
  6  1  1  1  0  0  0
  6  4  1  0  0  0  0
  7  6  1  0  0  0  0
  8  7  2  0  0  0  0
  9  8  1  0  0  0  0
 10  3  1  0  0  0  0
 11 20  1  0  0  0  0
 11 10  1  0  0  0  0
 12 11  2  0  0  0  0
 13 12  1  0  0  0  0
 14 16  2  0  0  0  0
 14 12  1  0  0  0  0
 15 14  1  0  0  0  0
 16 18  1  0  0  0  0
 17 16  1  0  0  0  0
 18 19  1  0  0  0  0
 18 20  2  0  0  0  0
 20 21  1  0  0  0  0
 22 25  1  0  0  0  0
 22 24  1  0  0  0  0
 23 22  1  0  0  0  0
M  END
$$$$
