CSD_code = RADDIM | q = 0 | S = 0 | Stoichiometry = C12H16Br2N8O8Zn | MND = 4
 OpenBabel04212202093D

 47 48  0  0  1  0  0  0  0  0999 V2000
    8.3030    9.7029    5.9953 C   0  0  1  0  0  3  0  0  0  0  0  0
    6.5603    8.4595    5.8456 C   0  0  0  0  0  0  0  0  0  0  0  0
    5.8423    7.7135    6.1168 H   0  0  0  0  0  0  0  0  0  0  0  0
    6.6350    9.2189    4.6940 C   0  0  0  0  0  0  0  0  0  0  0  0
    9.5696   10.2441    6.5619 C   0  0  0  0  0  0  0  0  0  0  0  0
   10.1688   10.7286    5.7854 H   0  0  0  0  0  0  0  0  0  0  0  0
    9.3714   10.9441    7.3798 H   0  0  0  0  0  0  0  0  0  0  0  0
   10.7229    8.2676    6.1864 C   0  0  0  0  0  0  0  0  0  0  0  0
    8.3537   10.8874    3.8365 C   0  0  0  0  0  0  0  0  0  0  0  0
    8.4854   11.8791    4.2689 H   0  0  0  0  0  0  0  0  0  0  0  0
    7.7084   10.9522    2.9638 H   0  0  0  0  0  0  0  0  0  0  0  0
    9.3239   10.4839    3.5392 H   0  0  0  0  0  0  0  0  0  0  0  0
    4.9676    8.5411    9.6845 C   0  0  1  0  0  3  0  0  0  0  0  0
    5.9796    6.8164   10.4693 C   0  0  0  0  0  0  0  0  0  0  0  0
    6.7069    6.0322   10.5609 H   0  0  0  0  0  0  0  0  0  0  0  0
    4.8841    7.0579   11.2704 C   0  0  0  0  0  0  0  0  0  0  0  0
    4.6082    9.6642    8.7672 C   0  0  0  0  0  0  0  0  0  0  0  0
    3.7568   10.2192    9.1699 H   0  0  0  0  0  0  0  0  0  0  0  0
    5.4595   10.3357    8.6356 H   0  0  0  0  0  0  0  0  0  0  0  0
    3.1586    8.4402    7.3755 C   0  0  0  0  0  0  0  0  0  0  0  0
    3.0521    8.8045   11.2328 C   0  0  0  0  0  0  0  0  0  0  0  0
    3.2638    9.8402   11.4993 H   0  0  0  0  0  0  0  0  0  0  0  0
    2.6874    8.2767   12.1102 H   0  0  0  0  0  0  0  0  0  0  0  0
    2.3014    8.7668   10.4418 H   0  0  0  0  0  0  0  0  0  0  0  0
   10.2926    9.1693    7.1352 O   0  0  0  0  0  0  0  0  0  0  0  0
   10.4156    8.3919    5.0249 O   0  0  0  0  0  0  0  0  0  0  0  0
    5.9138    9.8881    2.6502 O   0  0  0  0  0  0  0  0  0  0  0  0
    4.6835    8.5829    3.8381 O   0  0  0  0  0  0  0  0  0  0  0  0
    4.3003    9.1904    7.4601 O   0  0  0  0  0  0  0  0  0  0  0  0
    2.4679    8.1999    8.3356 O   0  0  0  0  0  0  0  0  0  0  0  0
    3.6016    6.7048   13.1118 O   0  0  0  0  0  0  0  0  0  0  0  0
    5.1470    5.2955   12.6090 O   0  0  0  0  0  0  0  0  0  0  0  0
    7.9837    8.2993    8.6882 Zn  0  0  0  0  0  0  0  0  0  0  0  0
    9.1488    6.2950    8.8348 Br  0  0  0  0  0  0  0  0  0  0  0  0
    8.0190   10.4834    9.6386 Br  0  0  0  0  0  0  0  0  0  0  0  0
    7.7662    9.9999    4.8076 N   0  0  0  0  0  0  0  0  0  0  0  0
    7.5912    8.7795    6.6375 N   0  0  0  0  0  0  0  0  0  0  0  0
   11.5173    7.3341    6.7125 N   0  0  0  0  0  0  0  0  0  0  0  0
   11.5480    7.2120    7.7127 H   0  0  0  0  0  0  0  0  0  0  0  0
   11.7607    6.5437    6.1394 H   0  0  0  0  0  0  0  0  0  0  0  0
    5.6962    9.2370    3.6484 N   0  0  0  0  0  0  0  0  0  0  0  0
    4.2544    8.1670   10.7577 N   0  0  0  0  0  0  0  0  0  0  0  0
    6.0232    7.7500    9.5007 N   0  0  0  0  0  0  0  0  0  0  0  0
    2.9370    8.0122    6.1291 N   0  0  0  0  0  0  0  0  0  0  0  0
    2.0988    7.4860    5.9547 H   0  0  0  0  0  0  0  0  0  0  0  0
    3.5196    8.2722    5.3454 H   0  0  0  0  0  0  0  0  0  0  0  0
    4.5096    6.3051   12.4115 N   0  0  0  0  0  0  0  0  0  0  0  0
  1  5  1  6  0  0  0
  1 37  1  0  0  0  0
  2  3  1  0  0  0  0
  2 37  1  0  0  0  0
  4 36  1  0  0  0  0
  4  2  2  0  0  0  0
  5 25  1  0  0  0  0
  5  7  1  0  0  0  0
  6  5  1  0  0  0  0
  8 38  1  0  0  0  0
  8 25  1  0  0  0  0
  9 10  1  0  0  0  0
  9 36  1  0  0  0  0
 11  9  1  0  0  0  0
 12  9  1  0  0  0  0
 13 17  1  6  0  0  0
 13 42  1  0  0  0  0
 14 15  1  0  0  0  0
 14 16  2  0  0  0  0
 16 47  1  0  0  0  0
 17 18  1  0  0  0  0
 19 17  1  0  0  0  0
 20 29  1  0  0  0  0
 20 30  2  0  0  0  0
 21 22  1  0  0  0  0
 21 23  1  0  0  0  0
 24 21  1  0  0  0  0
 26  8  2  0  0  0  0
 27 41  2  0  0  0  0
 29 17  1  0  0  0  0
 33 34  1  0  0  0  0
 33 43  1  0  0  0  0
 33 35  1  0  0  0  0
 36  1  1  0  0  0  0
 37 33  1  0  0  0  0
 38 39  1  0  0  0  0
 40 38  1  0  0  0  0
 41 28  2  0  0  0  0
 41  4  1  0  0  0  0
 42 21  1  0  0  0  0
 42 16  1  0  0  0  0
 43 13  1  0  0  0  0
 43 14  1  0  0  0  0
 44 20  1  0  0  0  0
 45 44  1  0  0  0  0
 46 44  1  0  0  0  0
 47 32  2  0  0  0  0
 47 31  2  0  0  0  0
M  END
$$$$
