CSD_code = RADLAJ | q = 0 | S = 0 | Stoichiometry = C18H16AuCl3N2 | MND = 5
 OpenBabel04212202093D

 40 43  0  0  1  0  0  0  0  0999 V2000
    2.2716    0.1533    1.1776 Au  0  0  0  0  0  0  0  0  0  0  0  0
    0.5037   -1.2844    1.0230 Cl  0  0  0  0  0  0  0  0  0  0  0  0
    3.2574   -0.7669   -0.5935 Cl  0  0  0  0  0  0  0  0  0  0  0  0
    3.8829    1.7843    1.3115 Cl  0  0  0  0  0  0  0  0  0  0  0  0
    1.2746    1.0946    2.7118 N   0  0  0  0  0  0  0  0  0  0  0  0
    3.2767   -0.6726    3.2717 N   0  0  0  0  0  0  0  0  0  0  0  0
    0.1473    1.7462    2.4566 C   0  0  0  0  0  3  0  0  0  0  0  0
   -0.5829    2.3693    3.4496 C   0  0  0  0  0  0  0  0  0  0  0  0
   -0.1204    2.2928    4.7557 C   0  0  0  0  0  0  0  0  0  0  0  0
    1.0508    1.6064    5.0110 C   0  0  0  0  0  0  0  0  0  0  0  0
    1.7488    1.0130    3.9585 C   0  0  0  0  0  0  0  0  0  0  0  0
    2.9931    0.2649    4.1794 C   0  0  2  0  0  3  0  0  0  0  0  0
    3.8293    0.5185    5.2601 C   0  0  0  0  0  0  0  0  0  0  0  0
    4.9803   -0.2456    5.3935 C   0  0  0  0  0  0  0  0  0  0  0  0
    5.2473   -1.2304    4.4646 C   0  0  0  0  0  0  0  0  0  0  0  0
    4.3666   -1.4122    3.3948 C   0  0  0  0  0  0  0  0  0  0  0  0
    4.6117   -2.4790    2.3638 C   0  0  2  0  0  0  0  0  0  0  0  0
    4.1100   -3.8175    2.9136 C   0  0  0  0  0  0  0  0  0  0  0  0
    6.0709   -2.4557    1.9635 C   0  0  0  0  0  0  0  0  0  0  0  0
    6.9751   -3.4476    2.3150 C   0  0  0  0  0  0  0  0  0  0  0  0
    8.3037   -3.3540    1.9327 C   0  0  0  0  0  0  0  0  0  0  0  0
    8.7451   -2.2668    1.2011 C   0  0  0  0  0  0  0  0  0  0  0  0
    7.8496   -1.2703    0.8492 C   0  0  0  0  0  0  0  0  0  0  0  0
    6.5242   -1.3643    1.2287 C   0  0  0  0  0  0  0  0  0  0  0  0
   -0.1788    1.7613    1.4278 H   0  0  0  0  0  0  0  0  0  0  0  0
   -1.4919    2.8924    3.2024 H   0  0  0  0  0  0  0  0  0  0  0  0
   -0.6693    2.7550    5.5621 H   0  0  0  0  0  0  0  0  0  0  0  0
    1.4193    1.5069    6.0189 H   0  0  0  0  0  0  0  0  0  0  0  0
    3.6162    1.3132    5.9561 H   0  0  0  0  0  0  0  0  0  0  0  0
    5.6586   -0.0647    6.2140 H   0  0  0  0  0  0  0  0  0  0  0  0
    6.1316   -1.8437    4.5368 H   0  0  0  0  0  0  0  0  0  0  0  0
    4.0133   -2.2351    1.4806 H   0  0  0  0  0  0  0  0  0  0  0  0
    6.6540   -4.3068    2.8839 H   0  0  0  0  0  0  0  0  0  0  0  0
    8.9949   -4.1371    2.2097 H   0  0  0  0  0  0  0  0  0  0  0  0
    9.7811   -2.1972    0.9038 H   0  0  0  0  0  0  0  0  0  0  0  0
    8.1830   -0.4186    0.2756 H   0  0  0  0  0  0  0  0  0  0  0  0
    5.8280   -0.5885    0.9472 H   0  0  0  0  0  0  0  0  0  0  0  0
    4.3119   -4.6094    2.1973 H   0  0  0  0  0  0  0  0  0  0  0  0
    4.5850   -4.0604    3.8623 H   0  0  0  0  0  0  0  0  0  0  0  0
    3.0351   -3.7616    3.0716 H   0  0  0  0  0  0  0  0  0  0  0  0
  1  4  1  0  0  0  0
  1  5  1  0  0  0  0
  1  6  1  0  0  0  0
  2  1  1  0  0  0  0
  3  1  1  0  0  0  0
  5 11  1  0  0  0  0
  6 16  1  0  0  0  0
  6 12  1  0  0  0  0
  7  5  1  0  0  0  0
  7  8  1  0  0  0  0
  8  9  2  0  0  0  0
  9 10  1  0  0  0  0
  9 27  1  0  0  0  0
 10 28  1  0  0  0  0
 11 10  2  0  0  0  0
 12 11  1  6  0  0  0
 12 13  1  0  0  0  0
 13 14  2  0  0  0  0
 13 29  1  0  0  0  0
 14 30  1  0  0  0  0
 15 31  1  0  0  0  0
 15 14  1  0  0  0  0
 16 15  2  0  0  0  0
 17 32  1  6  0  0  0
 17 18  1  0  0  0  0
 17 16  1  0  0  0  0
 18 40  1  0  0  0  0
 18 39  1  0  0  0  0
 19 20  1  0  0  0  0
 19 17  1  0  0  0  0
 20 33  1  0  0  0  0
 21 34  1  0  0  0  0
 21 20  2  0  0  0  0
 22 21  1  0  0  0  0
 23 22  2  0  0  0  0
 23 24  1  0  0  0  0
 24 19  2  0  0  0  0
 25  7  1  0  0  0  0
 26  8  1  0  0  0  0
 35 22  1  0  0  0  0
 36 23  1  0  0  0  0
 37 24  1  0  0  0  0
 38 18  1  0  0  0  0
M  END
$$$$
