CSD_code = RADLEN | q = 1 | S = 0 | Stoichiometry = C19H17AuClN2(1+) | MND = 4
 OpenBabel04212202093D

 40 44  0  0  0  0  0  0  0  0999 V2000
    1.7884   11.6374    0.1804 Au  0  0  2  0  0  0  0  0  0  0  0  0
    3.0857   11.4411    1.9918 Cl  0  0  0  0  0  0  0  0  0  0  0  0
    1.7177   13.7939    0.1737 N   0  0  0  0  0  0  0  0  0  0  0  0
    0.5076   11.9967   -1.3798 N   0  0  0  0  0  0  0  0  0  0  0  0
    2.2935   14.6126    1.0376 C   0  0  0  0  0  0  0  0  0  0  0  0
    2.4235   15.9706    0.7911 C   0  0  0  0  0  0  0  0  0  0  0  0
    1.9493   16.4663   -0.4131 C   0  0  0  0  0  0  0  0  0  0  0  0
    1.3486   15.6013   -1.3165 C   0  0  0  0  0  0  0  0  0  0  0  0
    1.2361   14.2517   -0.9941 C   0  0  0  0  0  0  0  0  0  0  0  0
    0.5492   13.2629   -1.8380 C   0  0  0  0  0  0  0  0  0  0  0  0
   -0.1032   13.5952   -3.0182 C   0  0  0  0  0  0  0  0  0  0  0  0
   -0.8040   12.6083   -3.6923 C   0  0  0  0  0  0  0  0  0  0  0  0
   -0.9117   11.3461   -3.1372 C   0  0  0  0  0  0  0  0  0  0  0  0
   -0.2517   11.0584   -1.9426 C   0  0  0  0  0  0  0  0  0  0  0  0
   -0.4297    9.7424   -1.2007 C   0  0  0  0  0  0  0  0  0  0  0  0
   -1.0773   10.0481    0.1684 C   0  0  0  0  0  0  0  0  0  0  0  0
   -1.4177    8.8338   -1.9414 C   0  0  0  0  0  0  0  0  0  0  0  0
    0.9229    9.0677   -0.9740 C   0  0  0  0  0  0  0  0  0  0  0  0
    1.9682    9.7014   -0.3124 C   0  0  0  0  0  0  0  0  0  0  0  0
    3.1771    9.0716   -0.0932 C   0  0  0  0  0  0  0  0  0  0  0  0
    3.3727    7.7688   -0.5264 C   0  0  0  0  0  0  0  0  0  0  0  0
    2.3498    7.1170   -1.1834 C   0  0  0  0  0  0  0  0  0  0  0  0
    1.1462    7.7599   -1.4042 C   0  0  0  0  0  0  0  0  0  0  0  0
    2.6606   14.1542    1.9454 H   0  0  0  0  0  0  0  0  0  0  0  0
    2.8889   16.6126    1.5206 H   0  0  0  0  0  0  0  0  0  0  0  0
    2.0438   17.5145   -0.6512 H   0  0  0  0  0  0  0  0  0  0  0  0
    0.9817   15.9804   -2.2554 H   0  0  0  0  0  0  0  0  0  0  0  0
   -0.0687   14.5974   -3.4089 H   0  0  0  0  0  0  0  0  0  0  0  0
   -1.2912   12.8320   -4.6287 H   0  0  0  0  0  0  0  0  0  0  0  0
   -1.5031   10.5984   -3.6344 H   0  0  0  0  0  0  0  0  0  0  0  0
    3.9777    9.5737    0.4227 H   0  0  0  0  0  0  0  0  0  0  0  0
    4.3188    7.2845   -0.3455 H   0  0  0  0  0  0  0  0  0  0  0  0
    2.4812    6.1031   -1.5281 H   0  0  0  0  0  0  0  0  0  0  0  0
    0.3705    7.2201   -1.9186 H   0  0  0  0  0  0  0  0  0  0  0  0
   -0.4621   10.6978    0.7883 H   0  0  0  0  0  0  0  0  0  0  0  0
   -2.0462   10.5225    0.0275 H   0  0  0  0  0  0  0  0  0  0  0  0
   -1.2227    9.1153    0.7068 H   0  0  0  0  0  0  0  0  0  0  0  0
   -1.0579    8.5489   -2.9264 H   0  0  0  0  0  0  0  0  0  0  0  0
   -1.5896    7.9337   -1.3578 H   0  0  0  0  0  0  0  0  0  0  0  0
   -2.3776    9.3346   -2.0432 H   0  0  0  0  0  0  0  0  0  0  0  0
  1  2  1  1  0  0  0
  3  1  1  0  0  0  0
  3  5  1  0  0  0  0
  4  1  1  0  0  0  0
  5 24  1  0  0  0  0
  6  5  2  0  0  0  0
  6 25  1  0  0  0  0
  7  6  1  0  0  0  0
  8  9  1  0  0  0  0
  8  7  2  0  0  0  0
  9  3  1  0  0  0  0
 10  4  1  0  0  0  0
 10  9  2  0  0  0  0
 11 10  1  0  0  0  0
 12 13  1  0  0  0  0
 12 11  2  0  0  0  0
 13 14  2  0  0  0  0
 14  4  1  0  0  0  0
 14 15  1  0  0  0  0
 15 18  1  0  0  0  0
 15 16  1  0  0  0  0
 16 37  1  0  0  0  0
 16 35  1  0  0  0  0
 17 39  1  0  0  0  0
 17 15  1  0  0  0  0
 18 19  1  0  0  0  0
 19 20  2  0  0  0  0
 19  1  1  0  0  0  0
 20 31  1  0  0  0  0
 21 32  1  0  0  0  0
 21 20  1  0  0  0  0
 22 21  2  0  0  0  0
 23 22  1  0  0  0  0
 23 18  2  0  0  0  0
 26  7  1  0  0  0  0
 27  8  1  0  0  0  0
 28 11  1  0  0  0  0
 29 12  1  0  0  0  0
 30 13  1  0  0  0  0
 33 22  1  0  0  0  0
 34 23  1  0  0  0  0
 36 16  1  0  0  0  0
 38 17  1  0  0  0  0
 40 17  1  0  0  0  0
M  END
$$$$
