CSD_code = RADMEP | q = 0 | S = 0 | Stoichiometry = C33H28Cl2FeP2 | MND = 4
 OpenBabel04212202093D

 66 72  0  0  1  0  0  0  0  0999 V2000
    1.0086   12.8003    3.2775 Fe  0  0  0  0  0  0  0  0  0  0  0  0
    0.8139   13.7093    1.5157 Cl  0  0  0  0  0  0  0  0  0  0  0  0
    2.0568   13.8331    4.7845 Cl  0  0  0  0  0  0  0  0  0  0  0  0
    1.2831   10.8064    4.0501 P   0  0  0  0  0  4  0  0  0  0  0  0
   -1.1170   12.7829    3.6766 P   0  0  0  0  0  4  0  0  0  0  0  0
    2.7496   10.0908    3.2313 C   0  0  0  0  0  0  0  0  0  0  0  0
    3.3543   10.8257    2.2167 C   0  0  0  0  0  0  0  0  0  0  0  0
    2.9616   11.8089    1.9649 H   0  0  0  0  0  0  0  0  0  0  0  0
    4.4422   10.3117    1.5359 C   0  0  0  0  0  0  0  0  0  0  0  0
    4.9084   10.8855    0.7486 H   0  0  0  0  0  0  0  0  0  0  0  0
    4.9327    9.0590    1.8675 C   0  0  0  0  0  0  0  0  0  0  0  0
    5.7822    8.6546    1.3372 H   0  0  0  0  0  0  0  0  0  0  0  0
    4.3388    8.3253    2.8827 C   0  0  0  0  0  0  0  0  0  0  0  0
    4.7272    7.3511    3.1425 H   0  0  0  0  0  0  0  0  0  0  0  0
    3.2508    8.8366    3.5661 C   0  0  0  0  0  0  0  0  0  0  0  0
    2.7923    8.2697    4.3649 H   0  0  0  0  0  0  0  0  0  0  0  0
    1.5439   10.2022    5.7548 C   0  0  0  0  0  0  0  0  0  0  0  0
    2.5261   10.8878    6.4694 C   0  0  0  0  0  0  0  0  0  0  0  0
    3.0388   11.7135    5.9945 H   0  0  0  0  0  0  0  0  0  0  0  0
    2.8180   10.5339    7.7723 C   0  0  0  0  0  0  0  0  0  0  0  0
    3.5798   11.0706    8.3179 H   0  0  0  0  0  0  0  0  0  0  0  0
    2.1286    9.4954    8.3784 C   0  0  0  0  0  0  0  0  0  0  0  0
    2.3523    9.2175    9.3979 H   0  0  0  0  0  0  0  0  0  0  0  0
    1.1484    8.8153    7.6760 C   0  0  0  0  0  0  0  0  0  0  0  0
    0.6091    8.0060    8.1474 H   0  0  0  0  0  0  0  0  0  0  0  0
    0.8517    9.1642    6.3695 C   0  0  0  0  0  0  0  0  0  0  0  0
    0.0851    8.6182    5.8402 H   0  0  0  0  0  0  0  0  0  0  0  0
   -1.4009   10.0395    3.9813 C   0  0  0  0  0  0  0  0  0  0  0  0
   -2.0891    9.1917    3.9098 H   0  0  0  0  0  0  0  0  0  0  0  0
   -1.3307   10.3423    5.0296 H   0  0  0  0  0  0  0  0  0  0  0  0
   -0.0395    9.6603    3.3834 C   0  0  1  0  0  0  0  0  0  0  0  0
    0.2543    8.6200    3.5540 H   0  0  0  0  0  0  0  0  0  0  0  0
   -0.2061    9.9932    1.9316 C   0  0  0  0  0  0  0  0  0  0  0  0
    0.5500    9.5772    0.8546 C   0  0  0  0  0  0  0  0  0  0  0  0
    1.3736    8.8912    0.9902 H   0  0  0  0  0  0  0  0  0  0  0  0
    0.2274   10.0551   -0.4086 C   0  0  0  0  0  0  0  0  0  0  0  0
    0.8117    9.7430   -1.2614 H   0  0  0  0  0  0  0  0  0  0  0  0
   -0.8304   10.9297   -0.5823 C   0  0  0  0  0  0  0  0  0  0  0  0
   -1.0640   11.2988   -1.5697 H   0  0  0  0  0  0  0  0  0  0  0  0
   -1.5949   11.3456    0.5000 C   0  0  0  0  0  0  0  0  0  0  0  0
   -2.4145   12.0323    0.3520 H   0  0  0  0  0  0  0  0  0  0  0  0
   -1.2797   10.8700    1.7569 C   0  0  0  0  0  0  0  0  0  0  0  0
   -1.8972   11.1862    3.0883 C   0  0  2  0  0  0  0  0  0  0  0  0
   -2.9874   11.2685    3.0809 H   0  0  0  0  0  0  0  0  0  0  0  0
   -1.7339   12.8288    5.3970 C   0  0  0  0  0  0  0  0  0  0  0  0
   -0.8328   12.7251    6.4503 C   0  0  0  0  0  0  0  0  0  0  0  0
    0.2272   12.6799    6.2409 H   0  0  0  0  0  0  0  0  0  0  0  0
   -1.2932   12.7055    7.7552 C   0  0  0  0  0  0  0  0  0  0  0  0
   -0.5885   12.6229    8.5692 H   0  0  0  0  0  0  0  0  0  0  0  0
   -2.6507   12.7953    8.0133 C   0  0  0  0  0  0  0  0  0  0  0  0
   -3.0107   12.7812    9.0316 H   0  0  0  0  0  0  0  0  0  0  0  0
   -3.5507   12.9139    6.9652 C   0  0  0  0  0  0  0  0  0  0  0  0
   -4.6090   12.9948    7.1676 H   0  0  0  0  0  0  0  0  0  0  0  0
   -3.0974   12.9311    5.6598 C   0  0  0  0  0  0  0  0  0  0  0  0
   -3.7983   13.0331    4.8424 H   0  0  0  0  0  0  0  0  0  0  0  0
   -2.1387   14.1153    2.9651 C   0  0  0  0  0  0  0  0  0  0  0  0
   -3.3163   13.9840    2.2405 C   0  0  0  0  0  0  0  0  0  0  0  0
   -3.7287   13.0089    2.0248 H   0  0  0  0  0  0  0  0  0  0  0  0
   -3.9746   15.1140    1.7840 C   0  0  0  0  0  0  0  0  0  0  0  0
   -4.8880   15.0067    1.2162 H   0  0  0  0  0  0  0  0  0  0  0  0
   -3.4698   16.3749    2.0496 C   0  0  0  0  0  0  0  0  0  0  0  0
   -3.9879   17.2504    1.6868 H   0  0  0  0  0  0  0  0  0  0  0  0
   -2.2979   16.5131    2.7779 C   0  0  0  0  0  0  0  0  0  0  0  0
   -1.9013   17.4960    2.9854 H   0  0  0  0  0  0  0  0  0  0  0  0
   -1.6360   15.3893    3.2297 C   0  0  0  0  0  0  0  0  0  0  0  0
   -0.7118   15.4764    3.7904 H   0  0  0  0  0  0  0  0  0  0  0  0
  1  5  1  0  0  0  0
  1  4  1  0  0  0  0
  1  3  1  0  0  0  0
  2  1  1  0  0  0  0
  4 17  1  0  0  0  0
  5 45  1  0  0  0  0
  6 15  1  0  0  0  0
  6  4  1  0  0  0  0
  7  6  2  0  0  0  0
  8  7  1  0  0  0  0
  9 11  2  0  0  0  0
  9  7  1  0  0  0  0
 10  9  1  0  0  0  0
 11 13  1  0  0  0  0
 12 11  1  0  0  0  0
 13 14  1  0  0  0  0
 13 15  2  0  0  0  0
 15 16  1  0  0  0  0
 17 26  2  0  0  0  0
 17 18  1  0  0  0  0
 18 20  2  0  0  0  0
 19 18  1  0  0  0  0
 20 21  1  0  0  0  0
 20 22  1  0  0  0  0
 22 23  1  0  0  0  0
 24 25  1  0  0  0  0
 24 22  2  0  0  0  0
 26 24  1  0  0  0  0
 27 26  1  0  0  0  0
 28 30  1  0  0  0  0
 29 28  1  0  0  0  0
 31 32  1  1  0  0  0
 31 28  1  0  0  0  0
 31  4  1  0  0  0  0
 33 31  1  0  0  0  0
 34 35  1  0  0  0  0
 34 33  2  0  0  0  0
 36 34  1  0  0  0  0
 37 36  1  0  0  0  0
 38 36  2  0  0  0  0
 38 40  1  0  0  0  0
 39 38  1  0  0  0  0
 40 42  2  0  0  0  0
 41 40  1  0  0  0  0
 42 33  1  0  0  0  0
 42 43  1  0  0  0  0
 43 44  1  6  0  0  0
 43  5  1  0  0  0  0
 43 28  1  0  0  0  0
 45 54  2  0  0  0  0
 45 46  1  0  0  0  0
 46 48  2  0  0  0  0
 47 46  1  0  0  0  0
 48 50  1  0  0  0  0
 48 49  1  0  0  0  0
 50 51  1  0  0  0  0
 52 53  1  0  0  0  0
 52 50  2  0  0  0  0
 54 52  1  0  0  0  0
 55 54  1  0  0  0  0
 56 65  1  0  0  0  0
 56  5  1  0  0  0  0
 57 56  2  0  0  0  0
 58 57  1  0  0  0  0
 59 61  2  0  0  0  0
 59 57  1  0  0  0  0
 60 59  1  0  0  0  0
 61 63  1  0  0  0  0
 62 61  1  0  0  0  0
 63 64  1  0  0  0  0
 63 65  2  0  0  0  0
 65 66  1  0  0  0  0
M  END
$$$$
