CSD_code = RADPOD | q = 0 | S = 0 | Stoichiometry = C16H20Cl3N2O2Ta | MND = 6
 OpenBabel04212202093D

 44 44  0  0  0  0  0  0  0  0999 V2000
    0.0249    7.6655    6.0126 Ta  0  0  0  0  0  0  0  0  0  0  0  0
   -0.6309    6.1581    4.4307 Cl  0  0  0  0  0  0  0  0  0  0  0  0
    0.9350    6.0737    7.4435 Cl  0  0  0  0  0  0  0  0  0  0  0  0
   -1.7174    9.1413    5.7294 Cl  0  0  0  0  0  0  0  0  0  0  0  0
   -0.1879    8.8150    8.4222 O   0  0  0  0  0  0  0  0  0  0  0  0
   -2.0276    6.7545    7.5592 O   0  0  0  0  0  0  0  0  0  0  0  0
    1.5022    8.5965    5.6014 N   0  0  0  0  0  2  0  0  0  0  0  0
    2.5831    9.2560    5.2427 N   0  0  0  0  0  0  0  0  0  0  0  0
   -0.9380    7.9893    9.2992 C   0  0  0  0  0  0  0  0  0  0  0  0
   -2.2658    7.6382    8.6378 C   0  0  0  0  0  0  0  0  0  0  0  0
    1.0761    9.1722    8.9526 C   0  0  0  0  0  0  0  0  0  0  0  0
   -3.2166    6.3475    6.9124 C   0  0  0  0  0  0  0  0  0  0  0  0
    2.4937   10.6412    5.0300 C   0  0  0  0  0  0  0  0  0  0  0  0
    1.2774   11.1973    4.6329 C   0  0  0  0  0  0  0  0  0  0  0  0
    1.1649   12.5629    4.4595 C   0  0  0  0  0  0  0  0  0  0  0  0
    2.2526   13.3916    4.6842 C   0  0  0  0  0  0  0  0  0  0  0  0
    3.4554   12.8432    5.0998 C   0  0  0  0  0  0  0  0  0  0  0  0
    3.5811   11.4793    5.2808 C   0  0  0  0  0  0  0  0  0  0  0  0
    3.7789    8.5403    5.0580 C   0  0  0  0  0  0  0  0  0  0  0  0
    4.7190    8.9342    4.1061 C   0  0  0  0  0  0  0  0  0  0  0  0
    5.8713    8.1926    3.9298 C   0  0  0  0  0  0  0  0  0  0  0  0
    6.0957    7.0494    4.6802 C   0  0  0  0  0  0  0  0  0  0  0  0
    5.1491    6.6427    5.6065 C   0  0  0  0  0  0  0  0  0  0  0  0
    3.9960    7.3790    5.7992 C   0  0  0  0  0  0  0  0  0  0  0  0
   -1.1276    8.5302   10.2364 H   0  0  0  0  0  0  0  0  0  0  0  0
   -0.3789    7.0681    9.5113 H   0  0  0  0  0  0  0  0  0  0  0  0
   -2.9233    7.1544    9.3740 H   0  0  0  0  0  0  0  0  0  0  0  0
   -2.7445    8.5572    8.2702 H   0  0  0  0  0  0  0  0  0  0  0  0
    0.9529    9.7105    9.8981 H   0  0  0  0  0  0  0  0  0  0  0  0
    1.5422    9.8173    8.2105 H   0  0  0  0  0  0  0  0  0  0  0  0
    1.6956    8.2830    9.1068 H   0  0  0  0  0  0  0  0  0  0  0  0
   -3.8762    5.8237    7.6125 H   0  0  0  0  0  0  0  0  0  0  0  0
   -2.9198    5.6717    6.1121 H   0  0  0  0  0  0  0  0  0  0  0  0
   -3.7447    7.2075    6.4864 H   0  0  0  0  0  0  0  0  0  0  0  0
    0.4345   10.5441    4.4609 H   0  0  0  0  0  0  0  0  0  0  0  0
    0.2215   12.9823    4.1440 H   0  0  0  0  0  0  0  0  0  0  0  0
    2.1622   14.4580    4.5448 H   0  0  0  0  0  0  0  0  0  0  0  0
    4.3023   13.4847    5.2944 H   0  0  0  0  0  0  0  0  0  0  0  0
    4.5137   11.0614    5.6277 H   0  0  0  0  0  0  0  0  0  0  0  0
    4.5370    9.8065    3.4973 H   0  0  0  0  0  0  0  0  0  0  0  0
    6.5945    8.5036    3.1904 H   0  0  0  0  0  0  0  0  0  0  0  0
    6.9981    6.4751    4.5359 H   0  0  0  0  0  0  0  0  0  0  0  0
    5.3100    5.7470    6.1873 H   0  0  0  0  0  0  0  0  0  0  0  0
    3.2517    7.0678    6.5168 H   0  0  0  0  0  0  0  0  0  0  0  0
  1  3  1  0  0  0  0
  2  1  1  0  0  0  0
  4  1  1  0  0  0  0
  5 11  1  0  0  0  0
  5  9  1  0  0  0  0
  6 10  1  0  0  0  0
  7  1  1  0  0  0  0
  8  7  1  0  0  0  0
  9 26  1  0  0  0  0
  9 25  1  0  0  0  0
 10  9  1  0  0  0  0
 10 27  1  0  0  0  0
 11 31  1  0  0  0  0
 11 29  1  0  0  0  0
 12  6  1  0  0  0  0
 12 32  1  0  0  0  0
 13  8  1  0  0  0  0
 13 18  1  0  0  0  0
 14 13  2  0  0  0  0
 15 14  1  0  0  0  0
 15 16  2  0  0  0  0
 16 17  1  0  0  0  0
 17 18  2  0  0  0  0
 17 38  1  0  0  0  0
 18 39  1  0  0  0  0
 19  8  1  0  0  0  0
 19 24  1  0  0  0  0
 20 19  2  0  0  0  0
 21 20  1  0  0  0  0
 21 22  2  0  0  0  0
 22 23  1  0  0  0  0
 23 24  2  0  0  0  0
 23 43  1  0  0  0  0
 24 44  1  0  0  0  0
 28 10  1  0  0  0  0
 30 11  1  0  0  0  0
 33 12  1  0  0  0  0
 34 12  1  0  0  0  0
 35 14  1  0  0  0  0
 36 15  1  0  0  0  0
 37 16  1  0  0  0  0
 40 20  1  0  0  0  0
 41 21  1  0  0  0  0
 42 22  1  0  0  0  0
M  END
$$$$
