CSD_code = RAFCOS | q = 0 | S = 0 | Stoichiometry = C22H17ClN2OPRh | MND = 4
 OpenBabel04212202093D

 45 49  0  0  0  0  0  0  0  0999 V2000
    2.0738    0.3442   18.9573 Rh  0  0  2  0  0  0  0  0  0  0  0  0
    1.0173   -0.7777   20.5893 Cl  0  0  0  0  0  0  0  0  0  0  0  0
    3.2092    1.7006   17.5966 P   0  0  0  0  0  4  0  0  0  0  0  0
    0.6967   -1.2512   16.8601 O   0  0  0  0  0  1  0  0  0  0  0  0
    1.2179   -0.6407   17.6796 C   0  0  0  0  0  2  0  0  0  0  0  0
    3.0699    1.3708   20.3920 N   0  0  0  0  0  0  0  0  0  0  0  0
    4.3292    2.8567   21.4376 C   0  0  0  0  0  3  0  0  0  0  0  0
    4.7737    3.8154   21.6130 H   0  0  0  0  0  0  0  0  0  0  0  0
    3.4651    2.6514   20.4182 N   0  0  0  0  0  0  0  0  0  0  0  0
    4.5023    1.6574   22.0803 C   0  0  0  0  0  0  0  0  0  0  0  0
    5.1236    1.4540   22.9272 H   0  0  0  0  0  0  0  0  0  0  0  0
    3.6856    0.7568   21.3899 C   0  0  0  0  0  0  0  0  0  0  0  0
    3.5043   -0.2834   21.5909 H   0  0  0  0  0  0  0  0  0  0  0  0
    2.9955    3.6494   19.5445 C   0  0  0  0  0  0  0  0  0  0  0  0
    2.8614    3.3995   18.1722 C   0  0  0  0  0  0  0  0  0  0  0  0
    2.4052    4.4219   17.3485 C   0  0  0  0  0  0  0  0  0  0  0  0
    2.2939    4.2366   16.2900 H   0  0  0  0  0  0  0  0  0  0  0  0
    2.1054    5.6690   17.8673 C   0  0  0  0  0  0  0  0  0  0  0  0
    1.7570    6.4528   17.2120 H   0  0  0  0  0  0  0  0  0  0  0  0
    2.2482    5.9097   19.2234 C   0  0  0  0  0  0  0  0  0  0  0  0
    2.0069    6.8784   19.6331 H   0  0  0  0  0  0  0  0  0  0  0  0
    2.6899    4.9016   20.0621 C   0  0  0  0  0  0  0  0  0  0  0  0
    2.7791    5.0782   21.1235 H   0  0  0  0  0  0  0  0  0  0  0  0
    3.0125    1.8316   15.7966 C   0  0  0  0  0  0  0  0  0  0  0  0
    1.7002    1.8453   15.3261 C   0  0  0  0  0  0  0  0  0  0  0  0
    0.8876    1.8012   16.0424 H   0  0  0  0  0  0  0  0  0  0  0  0
    1.4486    1.9089   13.9697 C   0  0  0  0  0  0  0  0  0  0  0  0
    0.4312    1.9245   13.6082 H   0  0  0  0  0  0  0  0  0  0  0  0
    2.5067    1.9405   13.0733 C   0  0  0  0  0  0  0  0  0  0  0  0
    2.3125    1.9822   12.0119 H   0  0  0  0  0  0  0  0  0  0  0  0
    3.8112    1.9064   13.5362 C   0  0  0  0  0  0  0  0  0  0  0  0
    4.6334    1.9193   12.8356 H   0  0  0  0  0  0  0  0  0  0  0  0
    4.0696    1.8504   14.8955 C   0  0  0  0  0  0  0  0  0  0  0  0
    5.0887    1.8157   15.2534 H   0  0  0  0  0  0  0  0  0  0  0  0
    5.0135    1.6493   17.8702 C   0  0  0  0  0  0  0  0  0  0  0  0
    5.8476    2.7434   17.6642 C   0  0  0  0  0  0  0  0  0  0  0  0
    5.4359    3.6702   17.2861 H   0  0  0  0  0  0  0  0  0  0  0  0
    7.1974    2.6390   17.9473 C   0  0  0  0  0  0  0  0  0  0  0  0
    7.8471    3.4874   17.7880 H   0  0  0  0  0  0  0  0  0  0  0  0
    7.7170    1.4509   18.4380 C   0  0  0  0  0  0  0  0  0  0  0  0
    8.7711    1.3777   18.6607 H   0  0  0  0  0  0  0  0  0  0  0  0
    6.8882    0.3602   18.6472 C   0  0  0  0  0  0  0  0  0  0  0  0
    7.2944   -0.5628   19.0330 H   0  0  0  0  0  0  0  0  0  0  0  0
    5.5380    0.4602   18.3658 C   0  0  0  0  0  0  0  0  0  0  0  0
    4.8632   -0.3780   18.5327 H   0  0  0  0  0  0  0  0  0  0  0  0
  1  6  1  0  0  0  0
  1  2  1  1  0  0  0
  3 35  1  0  0  0  0
  3 15  1  0  0  0  0
  3  1  1  0  0  0  0
  4  5  1  0  0  0  0
  5  1  1  0  0  0  0
  6  9  1  0  0  0  0
  6 12  1  0  0  0  0
  7  8  1  0  0  0  0
  7 10  1  0  0  0  0
  9  7  1  0  0  0  0
 10 11  1  0  0  0  0
 12 13  1  0  0  0  0
 12 10  2  0  0  0  0
 14 22  1  0  0  0  0
 14  9  1  0  0  0  0
 15 14  2  0  0  0  0
 16 18  2  0  0  0  0
 16 15  1  0  0  0  0
 17 16  1  0  0  0  0
 18 20  1  0  0  0  0
 19 18  1  0  0  0  0
 20 21  1  0  0  0  0
 20 22  2  0  0  0  0
 22 23  1  0  0  0  0
 24  3  1  0  0  0  0
 25 24  1  0  0  0  0
 25 26  1  0  0  0  0
 27 25  2  0  0  0  0
 28 27  1  0  0  0  0
 29 31  2  0  0  0  0
 29 27  1  0  0  0  0
 30 29  1  0  0  0  0
 31 33  1  0  0  0  0
 32 31  1  0  0  0  0
 33 34  1  0  0  0  0
 33 24  2  0  0  0  0
 35 44  1  0  0  0  0
 36 35  2  0  0  0  0
 36 38  1  0  0  0  0
 37 36  1  0  0  0  0
 38 40  2  0  0  0  0
 39 38  1  0  0  0  0
 40 42  1  0  0  0  0
 40 41  1  0  0  0  0
 42 43  1  0  0  0  0
 44 45  1  0  0  0  0
 44 42  2  0  0  0  0
M  END
$$$$
