CSD_code = RAFJAJ | q = 1 | S = 0 | Stoichiometry = C9H26Cl2N2P2Rh(1+) | MND = 6
 OpenBabel04212202093D

 42 43  0  0  0  0  0  0  0  0999 V2000
    8.0090    5.5933    8.1255 Rh  0  0  0  0  0  0  0  0  0  0  0  0
    7.7374    7.9616    8.1255 Cl  0  0  0  0  0  0  0  0  0  0  0  0
    6.3277    2.9129    8.1255 Cl  0  0  0  0  0  0  0  0  0  0  0  0
    9.4328    5.8436    6.3813 P   0  0  0  0  0  4  0  0  0  0  0  0
    6.5167    5.6027    6.5646 N   0  0  0  0  0  4  0  0  0  0  0  0
   10.5841    7.2506    6.3101 C   0  0  0  0  0  0  0  0  0  0  0  0
   10.4669    4.4721    5.7560 C   0  0  0  0  0  0  0  0  0  0  0  0
    8.2733    6.1853    4.9870 C   0  0  0  0  0  0  0  0  0  0  0  0
    7.0211    5.3474    5.2095 C   0  0  0  0  0  0  0  0  0  0  0  0
    8.0136    3.5042    8.1255 C   0  0  0  0  0  0  0  0  0  0  0  0
   10.8713    7.4168    5.2718 H   0  0  0  0  0  0  0  0  0  0  0  0
   10.0946    8.1393    6.7016 H   0  0  0  0  0  0  0  0  0  0  0  0
   11.4722    7.0348    6.9005 H   0  0  0  0  0  0  0  0  0  0  0  0
    9.8474    3.6361    5.4421 H   0  0  0  0  0  0  0  0  0  0  0  0
   11.0492    4.8255    4.9062 H   0  0  0  0  0  0  0  0  0  0  0  0
   11.1417    4.1343    6.5399 H   0  0  0  0  0  0  0  0  0  0  0  0
    8.0240    7.2494    5.0230 H   0  0  0  0  0  0  0  0  0  0  0  0
    8.7440    5.9625    4.0278 H   0  0  0  0  0  0  0  0  0  0  0  0
    6.2605    5.5878    4.4568 H   0  0  0  0  0  0  0  0  0  0  0  0
    7.2607    4.2833    5.1277 H   0  0  0  0  0  0  0  0  0  0  0  0
    6.1719    6.5679    6.6076 H   0  0  0  0  0  0  0  0  0  0  0  0
    5.7344    4.9738    6.7576 H   0  0  0  0  0  0  0  0  0  0  0  0
    8.4733    3.0570    7.2435 H   0  0  0  0  0  0  0  0  0  0  0  0
    9.4328    5.8436    9.8697 P   0  0  0  0  0  4  0  0  0  0  0  0
   10.5841    7.2506    9.9409 C   0  0  0  0  0  0  0  0  0  0  0  0
   10.8713    7.4168   10.9792 H   0  0  0  0  0  0  0  0  0  0  0  0
   10.0946    8.1393    9.5493 H   0  0  0  0  0  0  0  0  0  0  0  0
   11.4722    7.0348    9.3505 H   0  0  0  0  0  0  0  0  0  0  0  0
   10.4669    4.4721   10.4950 C   0  0  0  0  0  0  0  0  0  0  0  0
    9.8474    3.6361   10.8089 H   0  0  0  0  0  0  0  0  0  0  0  0
   11.0492    4.8255   11.3448 H   0  0  0  0  0  0  0  0  0  0  0  0
   11.1417    4.1343    9.7111 H   0  0  0  0  0  0  0  0  0  0  0  0
    8.2733    6.1853   11.2640 C   0  0  0  0  0  0  0  0  0  0  0  0
    7.0211    5.3474   11.0415 C   0  0  0  0  0  0  0  0  0  0  0  0
    6.5167    5.6027    9.6864 N   0  0  0  0  0  4  0  0  0  0  0  0
    8.4733    3.0570    9.0075 H   0  0  0  0  0  0  0  0  0  0  0  0
    6.1719    6.5679    9.6434 H   0  0  0  0  0  0  0  0  0  0  0  0
    5.7344    4.9738    9.4934 H   0  0  0  0  0  0  0  0  0  0  0  0
    6.2605    5.5878   11.7942 H   0  0  0  0  0  0  0  0  0  0  0  0
    7.2607    4.2833   11.1233 H   0  0  0  0  0  0  0  0  0  0  0  0
    8.0240    7.2494   11.2280 H   0  0  0  0  0  0  0  0  0  0  0  0
    8.7440    5.9625   12.2232 H   0  0  0  0  0  0  0  0  0  0  0  0
  1 10  1  0  0  0  0
  1  2  1  0  0  0  0
  1 35  1  0  0  0  0
  1 24  1  0  0  0  0
  3 10  1  0  0  0  0
  4  1  1  0  0  0  0
  5 21  1  0  0  0  0
  5 22  1  0  0  0  0
  5  1  1  0  0  0  0
  6  4  1  0  0  0  0
  6 12  1  0  0  0  0
  6 13  1  0  0  0  0
  7  4  1  0  0  0  0
  7 16  1  0  0  0  0
  8 17  1  0  0  0  0
  8  9  1  0  0  0  0
  8  4  1  0  0  0  0
  9  5  1  0  0  0  0
 10 36  1  0  0  0  0
 11  6  1  0  0  0  0
 14  7  1  0  0  0  0
 15  7  1  0  0  0  0
 18  8  1  0  0  0  0
 19  9  1  0  0  0  0
 20  9  1  0  0  0  0
 23 10  1  0  0  0  0
 24 25  1  0  0  0  0
 24 29  1  0  0  0  0
 24 33  1  0  0  0  0
 25 26  1  0  0  0  0
 27 25  1  0  0  0  0
 28 25  1  0  0  0  0
 29 30  1  0  0  0  0
 29 31  1  0  0  0  0
 32 29  1  0  0  0  0
 33 42  1  0  0  0  0
 34 40  1  0  0  0  0
 34 33  1  0  0  0  0
 34 39  1  0  0  0  0
 35 34  1  0  0  0  0
 37 35  1  0  0  0  0
 38 35  1  0  0  0  0
 41 33  1  0  0  0  0
M  END
$$$$
