CSD_code = RAFJOY | q = 0 | S = 0 | Stoichiometry = C16H14Br2Cl2FeN2O2 | MND = 4
 OpenBabel04212202093D

 39 42  0  0  1  0  0  0  0  0999 V2000
    5.3731    0.9616    3.3255 Fe  0  0  0  0  0  0  0  0  0  0  0  0
    4.3621    0.7308    7.0032 Br  0  0  0  0  0  0  0  0  0  0  0  0
    4.2992    5.0132    3.3154 Br  0  0  0  0  0  0  0  0  0  0  0  0
    5.6854    2.2497    1.7255 Cl  0  0  0  0  0  0  0  0  0  0  0  0
    6.9006    0.9935    4.6722 Cl  0  0  0  0  0  0  0  0  0  0  0  0
    3.8624    0.2902    2.6976 N   0  0  0  0  0  0  0  0  0  0  0  0
    4.1059    2.0708    4.3206 N   0  0  0  0  0  0  0  0  0  0  0  0
    6.1386   -0.6945    2.2320 O   0  0  0  0  0  0  0  0  0  0  0  0
    5.4034   -2.2021    0.7272 O   0  0  0  0  0  0  0  0  0  0  0  0
    3.8601   -0.7607    1.8237 C   0  0  0  0  0  0  0  0  0  0  0  0
    2.6916   -1.2649    1.2783 C   0  0  0  0  0  0  0  0  0  0  0  0
    2.7499   -2.0934    0.5914 H   0  0  0  0  0  0  0  0  0  0  0  0
    1.4777   -0.6833    1.6255 C   0  0  0  0  0  0  0  0  0  0  0  0
    0.5564   -1.0565    1.2088 H   0  0  0  0  0  0  0  0  0  0  0  0
    1.4651    0.3843    2.5091 C   0  0  0  0  0  0  0  0  0  0  0  0
    0.5370    0.8567    2.7878 H   0  0  0  0  0  0  0  0  0  0  0  0
    2.6612    0.8580    3.0391 C   0  0  0  0  0  0  0  0  0  0  0  0
    2.8491    1.9146    3.9798 C   0  0  1  0  0  3  0  0  0  0  0  0
    1.7239    2.7236    4.5331 C   0  0  0  0  0  0  0  0  0  0  0  0
    2.0578    3.3311    5.3713 H   0  0  0  0  0  0  0  0  0  0  0  0
    0.9181    2.0728    4.8665 H   0  0  0  0  0  0  0  0  0  0  0  0
    1.3361    3.3859    3.7590 H   0  0  0  0  0  0  0  0  0  0  0  0
    4.5306    2.9760    5.2888 C   0  0  0  0  0  0  0  0  0  0  0  0
    4.8185    2.5191    6.5780 C   0  0  0  0  0  0  0  0  0  0  0  0
    5.3792    3.3408    7.5351 C   0  0  0  0  0  0  0  0  0  0  0  0
    5.5913    2.9505    8.5177 H   0  0  0  0  0  0  0  0  0  0  0  0
    5.6672    4.6567    7.2122 C   0  0  0  0  0  0  0  0  0  0  0  0
    6.1215    5.3017    7.9472 H   0  0  0  0  0  0  0  0  0  0  0  0
    5.3600    5.1519    5.9575 C   0  0  0  0  0  0  0  0  0  0  0  0
    5.5557    6.1822    5.7061 H   0  0  0  0  0  0  0  0  0  0  0  0
    4.7887    4.3190    5.0100 C   0  0  0  0  0  0  0  0  0  0  0  0
    5.2124   -1.2235    1.5945 C   0  0  0  0  0  0  0  0  0  0  0  0
    6.7642   -2.6076    0.5243 C   0  0  0  0  0  0  0  0  0  0  0  0
    7.1743   -2.9528    1.4797 H   0  0  0  0  0  0  0  0  0  0  0  0
    7.3433   -1.7366    0.1992 H   0  0  0  0  0  0  0  0  0  0  0  0
    6.7790   -3.7079   -0.5184 C   0  0  0  0  0  0  0  0  0  0  0  0
    7.8018   -4.0284   -0.6926 H   0  0  0  0  0  0  0  0  0  0  0  0
    6.3566   -3.3456   -1.4514 H   0  0  0  0  0  0  0  0  0  0  0  0
    6.1938   -4.5574   -0.1770 H   0  0  0  0  0  0  0  0  0  0  0  0
  1  7  1  0  0  0  0
  1  5  1  0  0  0  0
  3 31  1  0  0  0  0
  4  1  1  0  0  0  0
  6 17  1  0  0  0  0
  6  1  1  0  0  0  0
  7 23  1  0  0  0  0
  8  1  1  0  0  0  0
  9 32  1  0  0  0  0
 10  6  1  0  0  0  0
 11 13  2  0  0  0  0
 11 10  1  0  0  0  0
 12 11  1  0  0  0  0
 13 15  1  0  0  0  0
 14 13  1  0  0  0  0
 15 16  1  0  0  0  0
 15 17  2  0  0  0  0
 17 18  1  0  0  0  0
 18  7  1  0  0  0  0
 18 19  1  1  0  0  0
 19 21  1  0  0  0  0
 19 20  1  0  0  0  0
 22 19  1  0  0  0  0
 23 24  1  0  0  0  0
 24  2  1  0  0  0  0
 24 25  2  0  0  0  0
 25 26  1  0  0  0  0
 27 25  1  0  0  0  0
 27 28  1  0  0  0  0
 29 27  2  0  0  0  0
 30 29  1  0  0  0  0
 31 23  2  0  0  0  0
 31 29  1  0  0  0  0
 32 10  2  0  0  0  0
 32  8  1  0  0  0  0
 33  9  1  0  0  0  0
 33 34  1  0  0  0  0
 35 33  1  0  0  0  0
 36 39  1  0  0  0  0
 36 33  1  0  0  0  0
 37 36  1  0  0  0  0
 38 36  1  0  0  0  0
M  END
$$$$
