CSD_code = RAFWIG | q = 0 | S = 0 | Stoichiometry = C33H29Br2N3OPRe | MND = 6
 OpenBabel04212202093D

 70 76  0  0  1  0  0  0  0  0999 V2000
   16.2857   14.2695   -3.4273 Re  0  0  0  0  0  0  0  0  0  0  0  0
   15.5470   16.5087   -2.6763 Br  0  0  0  0  0  0  0  0  0  0  0  0
   17.5000   15.2338   -5.4194 Br  0  0  0  0  0  0  0  0  0  0  0  0
   14.7436   13.2488   -1.8141 P   0  0  0  0  0  4  0  0  0  0  0  0
   14.6950   13.9486   -4.5323 O   0  0  0  0  0  0  0  0  0  0  0  0
   16.6801   12.2992   -4.3972 N   0  0  0  0  0  0  0  0  0  0  0  0
   16.0238   10.9046   -5.9772 N   0  0  0  0  0  0  0  0  0  0  0  0
   15.4895   10.5349   -6.7451 H   0  0  0  0  0  0  0  0  0  0  0  0
   17.7126   14.2630   -2.4009 N   0  0  0  0  0  2  0  0  0  0  0  0
   13.1240   14.0235   -1.5272 C   0  0  0  0  0  0  0  0  0  0  0  0
   12.4776   13.8423   -0.3071 C   0  0  0  0  0  0  0  0  0  0  0  0
   12.9465   13.2618    0.4748 H   0  0  0  0  0  0  0  0  0  0  0  0
   11.2371   14.4141   -0.0952 C   0  0  0  0  0  0  0  0  0  0  0  0
   10.7394   14.2733    0.8531 H   0  0  0  0  0  0  0  0  0  0  0  0
   10.6371   15.1699   -1.0897 C   0  0  0  0  0  0  0  0  0  0  0  0
    9.6714   15.6206   -0.9155 H   0  0  0  0  0  0  0  0  0  0  0  0
   11.2786   15.3526   -2.3030 C   0  0  0  0  0  0  0  0  0  0  0  0
   10.8179   15.9478   -3.0769 H   0  0  0  0  0  0  0  0  0  0  0  0
   12.5185   14.7818   -2.5242 C   0  0  0  0  0  0  0  0  0  0  0  0
   13.0200   14.9297   -3.4696 H   0  0  0  0  0  0  0  0  0  0  0  0
   15.4123   13.0589   -0.1335 C   0  0  0  0  0  0  0  0  0  0  0  0
   15.3032   11.8940    0.6182 C   0  0  0  0  0  0  0  0  0  0  0  0
   14.7833   11.0339    0.2183 H   0  0  0  0  0  0  0  0  0  0  0  0
   15.8581   11.8383    1.8848 C   0  0  0  0  0  0  0  0  0  0  0  0
   15.7734   10.9310    2.4653 H   0  0  0  0  0  0  0  0  0  0  0  0
   16.5168   12.9391    2.4079 C   0  0  0  0  0  0  0  0  0  0  0  0
   16.9510   12.8866    3.3952 H   0  0  0  0  0  0  0  0  0  0  0  0
   16.6152   14.1060    1.6666 C   0  0  0  0  0  0  0  0  0  0  0  0
   17.1244   14.9668    2.0722 H   0  0  0  0  0  0  0  0  0  0  0  0
   16.0666   14.1679    0.3994 C   0  0  0  0  0  0  0  0  0  0  0  0
   16.1466   15.0738   -0.1870 H   0  0  0  0  0  0  0  0  0  0  0  0
   14.3437   11.5705   -2.3697 C   0  0  0  0  0  0  0  0  0  0  0  0
   13.1324   11.2749   -2.9850 C   0  0  0  0  0  0  0  0  0  0  0  0
   12.3539   12.0250   -3.0259 H   0  0  0  0  0  0  0  0  0  0  0  0
   12.9306   10.0258   -3.5470 C   0  0  0  0  0  0  0  0  0  0  0  0
   11.9884    9.7994   -4.0252 H   0  0  0  0  0  0  0  0  0  0  0  0
   13.9329    9.0704   -3.5032 C   0  0  0  0  0  0  0  0  0  0  0  0
   13.7733    8.0995   -3.9489 H   0  0  0  0  0  0  0  0  0  0  0  0
   15.1423    9.3597   -2.8887 C   0  0  0  0  0  0  0  0  0  0  0  0
   15.9282    8.6189   -2.8579 H   0  0  0  0  0  0  0  0  0  0  0  0
   15.3495   10.6054   -2.3292 C   0  0  0  0  0  0  0  0  0  0  0  0
   16.2983   10.8477   -1.8680 H   0  0  0  0  0  0  0  0  0  0  0  0
   18.8304   14.2893   -1.6769 C   0  0  0  0  0  0  0  0  0  0  0  0
   19.0945   13.3249   -0.6859 C   0  0  0  0  0  0  0  0  0  0  0  0
   18.3685   12.5445   -0.5098 H   0  0  0  0  0  0  0  0  0  0  0  0
   20.2548   13.3935    0.0519 C   0  0  0  0  0  0  0  0  0  0  0  0
   20.4424   12.6488    0.8125 H   0  0  0  0  0  0  0  0  0  0  0  0
   21.1874   14.4046   -0.1629 C   0  0  0  0  0  0  0  0  0  0  0  0
   20.9256   15.3584   -1.1469 C   0  0  0  0  0  0  0  0  0  0  0  0
   21.6422   16.1476   -1.3209 H   0  0  0  0  0  0  0  0  0  0  0  0
   19.7742   15.3142   -1.8954 C   0  0  0  0  0  0  0  0  0  0  0  0
   19.5605   16.0486   -2.6569 H   0  0  0  0  0  0  0  0  0  0  0  0
   22.4494   14.4781    0.6362 C   0  0  0  0  0  0  0  0  0  0  0  0
   23.3147   14.3610   -0.0156 H   0  0  0  0  0  0  0  0  0  0  0  0
   22.4792   13.7019    1.3964 H   0  0  0  0  0  0  0  0  0  0  0  0
   22.5334   15.4490    1.1222 H   0  0  0  0  0  0  0  0  0  0  0  0
   17.5645   11.2516   -4.4131 C   0  0  0  0  0  0  0  0  0  0  0  0
   18.6939   10.9986   -3.6462 C   0  0  0  0  0  0  0  0  0  0  0  0
   19.0179   11.7033   -2.8970 H   0  0  0  0  0  0  0  0  0  0  0  0
   19.3768    9.8272   -3.8999 C   0  0  0  0  0  0  0  0  0  0  0  0
   20.2614    9.5966   -3.3261 H   0  0  0  0  0  0  0  0  0  0  0  0
   18.9585    8.9304   -4.8850 C   0  0  0  0  0  0  0  0  0  0  0  0
   19.5263    8.0268   -5.0469 H   0  0  0  0  0  0  0  0  0  0  0  0
   17.8430    9.1736   -5.6622 C   0  0  0  0  0  0  0  0  0  0  0  0
   17.5253    8.4848   -6.4296 H   0  0  0  0  0  0  0  0  0  0  0  0
   17.1525   10.3479   -5.4150 C   0  0  0  0  0  0  0  0  0  0  0  0
   15.7972   12.0730   -5.3367 C   0  0  1  0  0  3  0  0  0  0  0  0
   14.7036   13.0689   -5.5651 C   0  0  0  0  0  0  0  0  0  0  0  0
   14.9008   13.5915   -6.5249 H   0  0  0  0  0  0  0  0  0  0  0  0
   13.7318   12.5463   -5.6639 H   0  0  0  0  0  0  0  0  0  0  0  0
  1  2  1  0  0  0  0
  1  9  1  0  0  0  0
  1  4  1  0  0  0  0
  3  1  1  0  0  0  0
  4 10  1  0  0  0  0
  4 21  1  0  0  0  0
  5  1  1  0  0  0  0
  6  1  1  0  0  0  0
  7 66  1  0  0  0  0
  8  7  1  0  0  0  0
  9 43  1  0  0  0  0
 10 11  1  0  0  0  0
 11 13  2  0  0  0  0
 11 12  1  0  0  0  0
 13 14  1  0  0  0  0
 15 16  1  0  0  0  0
 15 13  1  0  0  0  0
 17 15  2  0  0  0  0
 18 17  1  0  0  0  0
 19 17  1  0  0  0  0
 19 10  2  0  0  0  0
 20 19  1  0  0  0  0
 21 30  2  0  0  0  0
 21 22  1  0  0  0  0
 22 24  2  0  0  0  0
 23 22  1  0  0  0  0
 24 26  1  0  0  0  0
 24 25  1  0  0  0  0
 26 27  1  0  0  0  0
 28 29  1  0  0  0  0
 28 26  2  0  0  0  0
 30 28  1  0  0  0  0
 31 30  1  0  0  0  0
 32 41  1  0  0  0  0
 32  4  1  0  0  0  0
 33 32  2  0  0  0  0
 34 33  1  0  0  0  0
 35 37  2  0  0  0  0
 35 33  1  0  0  0  0
 36 35  1  0  0  0  0
 37 39  1  0  0  0  0
 38 37  1  0  0  0  0
 39 40  1  0  0  0  0
 39 41  2  0  0  0  0
 41 42  1  0  0  0  0
 43 44  1  0  0  0  0
 44 45  1  0  0  0  0
 44 46  2  0  0  0  0
 46 47  1  0  0  0  0
 48 46  1  0  0  0  0
 48 53  1  0  0  0  0
 49 48  2  0  0  0  0
 50 49  1  0  0  0  0
 51 43  2  0  0  0  0
 51 49  1  0  0  0  0
 52 51  1  0  0  0  0
 53 56  1  0  0  0  0
 53 55  1  0  0  0  0
 54 53  1  0  0  0  0
 57  6  1  0  0  0  0
 57 58  1  0  0  0  0
 58 59  1  0  0  0  0
 60 58  2  0  0  0  0
 60 61  1  0  0  0  0
 62 60  1  0  0  0  0
 63 62  1  0  0  0  0
 64 66  1  0  0  0  0
 64 62  2  0  0  0  0
 65 64  1  0  0  0  0
 66 57  2  0  0  0  0
 67  7  1  1  0  0  0
 67  6  1  0  0  0  0
 68 67  1  0  0  0  0
 68  5  1  0  0  0  0
 69 68  1  0  0  0  0
 70 68  1  0  0  0  0
M  END
$$$$
