CSD_code = RAFWEC | q = 0 | S = 0 | Stoichiometry = C33H29Cl2N3OPRe | MND = 6
 OpenBabel04212202093D

 70 76  0  0  1  0  0  0  0  0999 V2000
   12.3561    3.6709    3.1165 Re  0  0  0  0  0  0  0  0  0  0  0  0
   12.3133    1.7940    4.2432 N   0  0  0  0  0  0  0  0  0  0  0  0
   14.0723    3.6906    2.7589 N   0  0  0  0  0  2  0  0  0  0  0  0
   11.1491    0.2664    5.3306 N   0  0  0  0  0  0  0  0  0  0  0  0
   10.3541   -0.2166    5.7137 H   0  0  0  0  0  0  0  0  0  0  0  0
   10.2132    2.9523    3.0763 O   0  0  0  0  0  0  0  0  0  0  0  0
   11.4205    2.5063    1.2393 P   0  0  0  0  0  4  0  0  0  0  0  0
   11.8944    4.5745    5.1616 Cl  0  0  0  0  0  0  0  0  0  0  0  0
   11.9887    5.7420    2.1970 Cl  0  0  0  0  0  0  0  0  0  0  0  0
   12.5957    2.4057   -0.1851 C   0  0  0  0  0  0  0  0  0  0  0  0
   13.2193    3.6047   -0.5216 C   0  0  0  0  0  0  0  0  0  0  0  0
   12.9917    4.4908    0.0586 H   0  0  0  0  0  0  0  0  0  0  0  0
   14.1215    3.6582   -1.5665 C   0  0  0  0  0  0  0  0  0  0  0  0
   14.6009    4.5926   -1.8176 H   0  0  0  0  0  0  0  0  0  0  0  0
   14.4159    2.5098   -2.2850 C   0  0  0  0  0  0  0  0  0  0  0  0
   15.1267    2.5445   -3.0978 H   0  0  0  0  0  0  0  0  0  0  0  0
   13.7973    1.3151   -1.9594 C   0  0  0  0  0  0  0  0  0  0  0  0
   14.0224    0.4185   -2.5196 H   0  0  0  0  0  0  0  0  0  0  0  0
   12.8880    1.2611   -0.9161 C   0  0  0  0  0  0  0  0  0  0  0  0
   12.4114    0.3209   -0.6729 H   0  0  0  0  0  0  0  0  0  0  0  0
    9.9896    3.1485    0.3256 C   0  0  0  0  0  0  0  0  0  0  0  0
    9.5886    2.4423   -0.8062 C   0  0  0  0  0  0  0  0  0  0  0  0
   10.1226    1.5486   -1.1005 H   0  0  0  0  0  0  0  0  0  0  0  0
    8.5110    2.8838   -1.5501 C   0  0  0  0  0  0  0  0  0  0  0  0
    8.1972    2.3294   -2.4230 H   0  0  0  0  0  0  0  0  0  0  0  0
    7.8379    4.0374   -1.1789 C   0  0  0  0  0  0  0  0  0  0  0  0
    6.9980    4.3829   -1.7643 H   0  0  0  0  0  0  0  0  0  0  0  0
    8.2461    4.7477   -0.0628 C   0  0  0  0  0  0  0  0  0  0  0  0
    7.7282    5.6518    0.2215 H   0  0  0  0  0  0  0  0  0  0  0  0
    9.3195    4.3070    0.6917 C   0  0  0  0  0  0  0  0  0  0  0  0
    9.6425    4.8590    1.5597 H   0  0  0  0  0  0  0  0  0  0  0  0
   11.1002    0.7525    1.5696 C   0  0  0  0  0  0  0  0  0  0  0  0
    9.8208    0.2135    1.5852 C   0  0  0  0  0  0  0  0  0  0  0  0
    8.9777    0.8360    1.3192 H   0  0  0  0  0  0  0  0  0  0  0  0
    9.6351   -1.1104    1.9475 C   0  0  0  0  0  0  0  0  0  0  0  0
    8.6388   -1.5294    1.9582 H   0  0  0  0  0  0  0  0  0  0  0  0
   10.7198   -1.8954    2.3025 C   0  0  0  0  0  0  0  0  0  0  0  0
   10.5689   -2.9251    2.5925 H   0  0  0  0  0  0  0  0  0  0  0  0
   11.9999   -1.3613    2.2852 C   0  0  0  0  0  0  0  0  0  0  0  0
   12.8469   -1.9710    2.5649 H   0  0  0  0  0  0  0  0  0  0  0  0
   12.1893   -0.0429    1.9179 C   0  0  0  0  0  0  0  0  0  0  0  0
   13.1798    0.3945    1.9108 H   0  0  0  0  0  0  0  0  0  0  0  0
    9.8950    2.1438    4.1359 C   0  0  0  0  0  0  0  0  0  0  0  0
    9.1069    1.4181    3.8622 H   0  0  0  0  0  0  0  0  0  0  0  0
    9.5168    2.7475    4.9837 H   0  0  0  0  0  0  0  0  0  0  0  0
   11.1125    1.3997    4.5921 C   0  0  2  0  0  3  0  0  0  0  0  0
   12.4722   -0.0882    5.4723 C   0  0  0  0  0  0  0  0  0  0  0  0
   13.1003   -1.1438    6.1123 C   0  0  0  0  0  0  0  0  0  0  0  0
   12.5379   -1.8947    6.6454 H   0  0  0  0  0  0  0  0  0  0  0  0
   14.4787   -1.1876    6.0369 C   0  0  0  0  0  0  0  0  0  0  0  0
   15.0075   -1.9931    6.5235 H   0  0  0  0  0  0  0  0  0  0  0  0
   15.2079   -0.2148    5.3496 C   0  0  0  0  0  0  0  0  0  0  0  0
   16.2840   -0.2929    5.3225 H   0  0  0  0  0  0  0  0  0  0  0  0
   14.5894    0.8398    4.7103 C   0  0  0  0  0  0  0  0  0  0  0  0
   15.1405    1.6007    4.1810 H   0  0  0  0  0  0  0  0  0  0  0  0
   13.2034    0.8973    4.7773 C   0  0  0  0  0  0  0  0  0  0  0  0
   15.3585    3.7592    2.4129 C   0  0  0  0  0  0  0  0  0  0  0  0
   16.1954    4.7376    2.9842 C   0  0  0  0  0  0  0  0  0  0  0  0
   15.7677    5.4073    3.7143 H   0  0  0  0  0  0  0  0  0  0  0  0
   17.5130    4.8297    2.5991 C   0  0  0  0  0  0  0  0  0  0  0  0
   18.1431    5.5888    3.0397 H   0  0  0  0  0  0  0  0  0  0  0  0
   18.0505    3.9640    1.6484 C   0  0  0  0  0  0  0  0  0  0  0  0
   17.2239    2.9907    1.0898 C   0  0  0  0  0  0  0  0  0  0  0  0
   17.6275    2.3131    0.3512 H   0  0  0  0  0  0  0  0  0  0  0  0
   15.9033    2.8779    1.4586 C   0  0  0  0  0  0  0  0  0  0  0  0
   15.2597    2.1305    1.0209 H   0  0  0  0  0  0  0  0  0  0  0  0
   19.4764    4.0935    1.2154 C   0  0  0  0  0  0  0  0  0  0  0  0
   19.8859    3.1273    0.9295 H   0  0  0  0  0  0  0  0  0  0  0  0
   20.0876    4.5200    2.0073 H   0  0  0  0  0  0  0  0  0  0  0  0
   19.5396    4.7541    0.3496 H   0  0  0  0  0  0  0  0  0  0  0  0
  1  2  1  0  0  0  0
  1  8  1  0  0  0  0
  2 46  1  0  0  0  0
  2 56  1  0  0  0  0
  3  1  1  0  0  0  0
  4 47  1  0  0  0  0
  4  5  1  0  0  0  0
  6  1  1  0  0  0  0
  6 43  1  0  0  0  0
  7 32  1  0  0  0  0
  7  1  1  0  0  0  0
  9  1  1  0  0  0  0
 10  7  1  0  0  0  0
 11 10  1  0  0  0  0
 11 12  1  0  0  0  0
 13 11  2  0  0  0  0
 14 13  1  0  0  0  0
 15 17  2  0  0  0  0
 15 13  1  0  0  0  0
 16 15  1  0  0  0  0
 17 19  1  0  0  0  0
 18 17  1  0  0  0  0
 19 20  1  0  0  0  0
 19 10  2  0  0  0  0
 21 30  1  0  0  0  0
 21  7  1  0  0  0  0
 22 21  2  0  0  0  0
 23 22  1  0  0  0  0
 24 26  2  0  0  0  0
 24 22  1  0  0  0  0
 25 24  1  0  0  0  0
 26 28  1  0  0  0  0
 27 26  1  0  0  0  0
 28 29  1  0  0  0  0
 28 30  2  0  0  0  0
 30 31  1  0  0  0  0
 32 33  2  0  0  0  0
 32 41  1  0  0  0  0
 33 35  1  0  0  0  0
 34 33  1  0  0  0  0
 35 36  1  0  0  0  0
 35 37  2  0  0  0  0
 37 38  1  0  0  0  0
 39 37  1  0  0  0  0
 39 40  1  0  0  0  0
 41 39  2  0  0  0  0
 42 41  1  0  0  0  0
 43 45  1  0  0  0  0
 44 43  1  0  0  0  0
 46 43  1  6  0  0  0
 46  4  1  0  0  0  0
 47 48  1  0  0  0  0
 48 49  1  0  0  0  0
 50 48  2  0  0  0  0
 50 51  1  0  0  0  0
 52 50  1  0  0  0  0
 53 52  1  0  0  0  0
 54 56  1  0  0  0  0
 54 52  2  0  0  0  0
 55 54  1  0  0  0  0
 56 47  2  0  0  0  0
 57  3  1  0  0  0  0
 57 58  1  0  0  0  0
 58 59  1  0  0  0  0
 60 58  2  0  0  0  0
 60 61  1  0  0  0  0
 62 60  1  0  0  0  0
 63 65  1  0  0  0  0
 63 62  2  0  0  0  0
 64 63  1  0  0  0  0
 65 57  2  0  0  0  0
 66 65  1  0  0  0  0
 67 62  1  0  0  0  0
 67 69  1  0  0  0  0
 68 67  1  0  0  0  0
 70 67  1  0  0  0  0
M  END
$$$$
