CSD_code = RAFZON | q = 0 | S = 0 | Stoichiometry = C9H12AuCl2N | MND = 4
 OpenBabel04212202093D

 25 26  0  0  0  0  0  0  0  0999 V2000
    2.0389    1.5093    0.4413 Au  0  0  0  0  0  0  0  0  0  0  0  0
    1.5713    0.4554    2.3458 Cl  0  0  0  0  0  0  0  0  0  0  0  0
    1.8253    3.6280    1.3833 Cl  0  0  0  0  0  0  0  0  0  0  0  0
    2.1193   -0.2075   -0.5908 C   0  0  0  0  0  0  0  0  0  0  0  0
    1.6140   -1.4349   -0.2130 C   0  0  0  0  0  0  0  0  0  0  0  0
    1.1893   -1.5631    0.7698 H   0  0  0  0  0  0  0  0  0  0  0  0
    1.6665   -2.5084   -1.0916 C   0  0  0  0  0  0  0  0  0  0  0  0
    1.2747   -3.4655   -0.7831 H   0  0  0  0  0  0  0  0  0  0  0  0
    2.2142   -2.3515   -2.3515 C   0  0  0  0  0  0  0  0  0  0  0  0
    2.2508   -3.1849   -3.0366 H   0  0  0  0  0  0  0  0  0  0  0  0
    2.7168   -1.1211   -2.7365 C   0  0  0  0  0  0  0  0  0  0  0  0
    3.1482   -0.9899   -3.7185 H   0  0  0  0  0  0  0  0  0  0  0  0
    2.6731   -0.0468   -1.8590 C   0  0  0  0  0  0  0  0  0  0  0  0
    3.2454    1.2944   -2.2039 C   0  0  0  0  0  0  0  0  0  0  0  0
    4.2954    1.3150   -1.8927 H   0  0  0  0  0  0  0  0  0  0  0  0
    3.2082    1.4927   -3.2816 H   0  0  0  0  0  0  0  0  0  0  0  0
    2.5290    2.3522   -1.4648 N   0  0  0  0  0  4  0  0  0  0  0  0
    3.3402    3.5684   -1.3955 C   0  0  0  0  0  0  0  0  0  0  0  0
    2.8161    4.3112   -0.7963 H   0  0  0  0  0  0  0  0  0  0  0  0
    3.5271    3.9623   -2.3976 H   0  0  0  0  0  0  0  0  0  0  0  0
    4.2890    3.3529   -0.9082 H   0  0  0  0  0  0  0  0  0  0  0  0
    1.2621    2.6630   -2.1344 C   0  0  0  0  0  0  0  0  0  0  0  0
    0.7056    3.3783   -1.5321 H   0  0  0  0  0  0  0  0  0  0  0  0
    0.6709    1.7560   -2.2495 H   0  0  0  0  0  0  0  0  0  0  0  0
    1.4480    3.0966   -3.1215 H   0  0  0  0  0  0  0  0  0  0  0  0
  1  3  1  0  0  0  0
  1  2  1  0  0  0  0
  4  5  1  0  0  0  0
  4  1  1  0  0  0  0
  5  6  1  0  0  0  0
  7  8  1  0  0  0  0
  7  5  2  0  0  0  0
  9  7  1  0  0  0  0
 10  9  1  0  0  0  0
 11  9  2  0  0  0  0
 11 13  1  0  0  0  0
 12 11  1  0  0  0  0
 13  4  2  0  0  0  0
 14 15  1  0  0  0  0
 14 13  1  0  0  0  0
 14 17  1  0  0  0  0
 16 14  1  0  0  0  0
 17 18  1  0  0  0  0
 17  1  1  0  0  0  0
 18 21  1  0  0  0  0
 18 19  1  0  0  0  0
 20 18  1  0  0  0  0
 22 23  1  0  0  0  0
 22 17  1  0  0  0  0
 24 22  1  0  0  0  0
 25 22  1  0  0  0  0
M  END
$$$$
