CSD_code = RAGBEG | q = 0 | S = 0 | Stoichiometry = C10H14CdCl2N4O2S | MND = 7
 OpenBabel04212202093D

 34 35  0  0  1  0  0  0  0  0999 V2000
    2.2004    9.7599   11.6262 Cd  0  0  0  0  0  0  0  0  0  0  0  0
    4.1237    7.6418   10.6990 S   0  0  0  0  0  0  0  0  0  0  0  0
    3.7790   11.6680   11.8912 Cl  0  0  0  0  0  0  0  0  0  0  0  0
    1.4626    7.9495   13.0012 Cl  0  0  0  0  0  0  0  0  0  0  0  0
    2.8083    6.8631   10.0729 C   0  0  0  0  0  0  0  0  0  0  0  0
    1.1953    9.5548    8.4731 C   0  0  1  0  0  3  0  0  0  0  0  0
    0.2936    9.0271    7.4007 C   0  0  0  0  0  0  0  0  0  0  0  0
    1.2592   10.9895    8.7907 C   0  0  2  0  0  3  0  0  0  0  0  0
    1.2414   12.0285    7.8629 C   0  0  0  0  0  0  0  0  0  0  0  0
    1.3680   13.3266    8.3347 C   0  0  0  0  0  0  0  0  0  0  0  0
    1.4996   13.5644    9.6937 C   0  0  0  0  0  0  0  0  0  0  0  0
    1.4983   12.4702   10.5582 C   0  0  0  0  0  0  0  0  0  0  0  0
    1.5378   12.5344   12.0613 C   0  0  1  0  0  3  0  0  0  0  0  0
    1.8296   13.8670   12.6969 C   0  0  0  0  0  0  0  0  0  0  0  0
    2.6256    5.5338   10.2276 N   0  0  0  0  0  0  0  0  0  0  0  0
    1.9228    7.5084    9.2531 N   0  0  0  0  0  0  0  0  0  0  0  0
    1.9075    8.8410    9.2581 N   0  0  0  0  0  0  0  0  0  0  0  0
    1.3628   11.2381   10.0906 N   0  0  0  0  0  0  0  0  0  0  0  0
    1.0295   11.6076   12.6914 O   0  0  0  0  0  0  0  0  0  0  0  0
   -0.4875    8.6520   10.8386 O   0  0  0  0  0  0  0  0  0  0  0  0
    1.7064    5.1358   10.1109 H   0  0  0  0  0  0  0  0  0  0  0  0
    3.2149    5.0985   10.9200 H   0  0  0  0  0  0  0  0  0  0  0  0
    1.1420    6.9892    8.8512 H   0  0  0  0  0  0  0  0  0  0  0  0
   -0.5386    8.5012    7.8718 H   0  0  0  0  0  0  0  0  0  0  0  0
   -0.1117    9.8337    6.7992 H   0  0  0  0  0  0  0  0  0  0  0  0
    0.8262    8.3292    6.7545 H   0  0  0  0  0  0  0  0  0  0  0  0
    1.1710   11.8293    6.8053 H   0  0  0  0  0  0  0  0  0  0  0  0
    1.3707   14.1533    7.6395 H   0  0  0  0  0  0  0  0  0  0  0  0
    1.5969   14.5692   10.0697 H   0  0  0  0  0  0  0  0  0  0  0  0
    2.0268   13.7162   13.7544 H   0  0  0  0  0  0  0  0  0  0  0  0
    2.6831   14.3478   12.2315 H   0  0  0  0  0  0  0  0  0  0  0  0
    0.9484   14.5009   12.5918 H   0  0  0  0  0  0  0  0  0  0  0  0
   -1.0707    9.2876   11.2627 H   0  0  0  0  0  0  0  0  0  0  0  0
   -0.0677    8.1752   11.5838 H   0  0  0  0  0  0  0  0  0  0  0  0
  1  3  1  0  0  0  0
  1 19  1  0  0  0  0
  1  4  1  0  0  0  0
  5 15  1  0  0  0  0
  5  2  2  0  0  0  0
  6  7  1  1  0  0  0
  6  8  1  0  0  0  0
  6 17  1  0  0  0  0
  7 24  1  0  0  0  0
  8  9  1  6  0  0  0
  8 18  1  0  0  0  0
  9 10  2  0  0  0  0
 10 11  1  0  0  0  0
 11 29  1  0  0  0  0
 11 12  2  0  0  0  0
 12 13  1  0  0  0  0
 13 19  1  0  0  0  0
 13 14  1  1  0  0  0
 14 30  1  0  0  0  0
 15 22  1  0  0  0  0
 16 17  1  0  0  0  0
 16  5  1  0  0  0  0
 17  1  1  0  0  0  0
 18 12  1  0  0  0  0
 18  1  1  0  0  0  0
 20 33  1  0  0  0  0
 20 34  1  0  0  0  0
 21 15  1  0  0  0  0
 23 16  1  0  0  0  0
 25  7  1  0  0  0  0
 26  7  1  0  0  0  0
 27  9  1  0  0  0  0
 28 10  1  0  0  0  0
 31 14  1  0  0  0  0
 32 14  1  0  0  0  0
M  END
$$$$
