CSD_code = RAGKOB | q = 0 | S = 0 | Stoichiometry = C15H13Cl2N3Zn | MND = 4
 OpenBabel04212202093D

 34 37  0  0  1  0  0  0  0  0999 V2000
   -0.4773    2.8399    4.4052 Zn  0  0  0  0  0  0  0  0  0  0  0  0
   -0.0621    2.3175    6.5118 Cl  0  0  0  0  0  0  0  0  0  0  0  0
    0.3603    2.3366    2.4573 Cl  0  0  0  0  0  0  0  0  0  0  0  0
   -1.4254    4.6890    4.3711 N   0  0  0  0  0  0  0  0  0  0  0  0
   -3.3779    5.7463    4.3491 N   0  0  0  0  0  0  0  0  0  0  0  0
   -2.5788    2.2332    4.5645 N   0  0  0  0  0  0  0  0  0  0  0  0
   -1.1873    5.9828    4.0159 C   0  0  0  0  0  0  0  0  0  0  0  0
    0.0045    6.6296    3.7042 C   0  0  0  0  0  0  0  0  0  0  0  0
    0.9370    6.0888    3.7236 H   0  0  0  0  0  0  0  0  0  0  0  0
   -0.0736    7.9630    3.3707 C   0  0  0  0  0  0  0  0  0  0  0  0
    0.8259    8.5032    3.1194 H   0  0  0  0  0  0  0  0  0  0  0  0
   -1.2965    8.6424    3.3480 C   0  0  0  0  0  0  0  0  0  0  0  0
   -1.3080    9.6885    3.0828 H   0  0  0  0  0  0  0  0  0  0  0  0
   -2.4863    8.0154    3.6549 C   0  0  0  0  0  0  0  0  0  0  0  0
   -3.4190    8.5585    3.6355 H   0  0  0  0  0  0  0  0  0  0  0  0
   -2.4203    6.6696    3.9911 C   0  0  0  0  0  0  0  0  0  0  0  0
   -2.7228    4.5730    4.5678 C   0  0  2  0  0  3  0  0  0  0  0  0
   -3.2864    3.2922    4.9735 C   0  0  2  0  0  3  0  0  0  0  0  0
   -4.4158    3.1508    5.7748 C   0  0  0  0  0  0  0  0  0  0  0  0
   -4.9339    4.0131    6.1577 H   0  0  0  0  0  0  0  0  0  0  0  0
   -4.8326    1.8760    6.1189 C   0  0  0  0  0  0  0  0  0  0  0  0
   -5.6975    1.7404    6.7505 H   0  0  0  0  0  0  0  0  0  0  0  0
   -4.1191    0.7851    5.6513 C   0  0  0  0  0  0  0  0  0  0  0  0
   -4.4162   -0.2228    5.8913 H   0  0  0  0  0  0  0  0  0  0  0  0
   -2.9854    1.0185    4.8877 C   0  0  0  0  0  0  0  0  0  0  0  0
   -2.3736    0.2057    4.5225 H   0  0  0  0  0  0  0  0  0  0  0  0
   -4.8037    5.9712    4.2857 C   0  0  0  0  0  0  0  0  0  0  0  0
   -4.9470    6.9461    3.8080 H   0  0  0  0  0  0  0  0  0  0  0  0
   -5.2330    6.0301    5.2917 H   0  0  0  0  0  0  0  0  0  0  0  0
   -5.4974    4.9243    3.4620 C   0  0  0  0  0  0  0  0  0  0  0  0
   -4.9625    4.6219    2.5719 H   0  0  0  0  0  0  0  0  0  0  0  0
   -6.6786    4.4140    3.7512 C   0  0  0  0  0  0  0  0  0  0  0  0
   -7.2292    4.7091    4.6295 H   0  0  0  0  0  0  0  0  0  0  0  0
   -7.1515    3.6889    3.1135 H   0  0  0  0  0  0  0  0  0  0  0  0
  1  6  1  0  0  0  0
  1  2  1  0  0  0  0
  3  1  1  0  0  0  0
  4  1  1  0  0  0  0
  4 17  1  0  0  0  0
  6 25  1  0  0  0  0
  6 18  1  0  0  0  0
  7  4  1  0  0  0  0
  8  9  1  0  0  0  0
  8  7  2  0  0  0  0
 10  8  1  0  0  0  0
 11 10  1  0  0  0  0
 12 10  2  0  0  0  0
 12 14  1  0  0  0  0
 13 12  1  0  0  0  0
 14 16  2  0  0  0  0
 15 14  1  0  0  0  0
 16  7  1  0  0  0  0
 16  5  1  0  0  0  0
 17  5  1  1  0  0  0
 17 18  1  0  0  0  0
 18 19  1  1  0  0  0
 19 21  2  0  0  0  0
 19 20  1  0  0  0  0
 21 22  1  0  0  0  0
 23 24  1  0  0  0  0
 23 21  1  0  0  0  0
 25 23  2  0  0  0  0
 26 25  1  0  0  0  0
 27  5  1  0  0  0  0
 27 29  1  0  0  0  0
 28 27  1  0  0  0  0
 30 32  2  0  0  0  0
 30 27  1  0  0  0  0
 31 30  1  0  0  0  0
 32 33  1  0  0  0  0
 34 32  1  0  0  0  0
M  END
$$$$
