CSD_code = RAGKUH | q = 0 | S = 0 | Stoichiometry = C19H15Cl2N3Zn | MND = 4
 OpenBabel04212202093D

 40 44  0  0  1  0  0  0  0  0999 V2000
    2.1923    1.5537    1.8309 Zn  0  0  0  0  0  0  0  0  0  0  0  0
    0.6620    1.4684    0.2874 Cl  0  0  0  0  0  0  0  0  0  0  0  0
    2.1811    2.0986    3.9839 Cl  0  0  0  0  0  0  0  0  0  0  0  0
    4.1798    2.1045    1.4763 N   0  0  0  0  0  0  0  0  0  0  0  0
    6.0443    1.5989    2.5816 N   0  0  0  0  0  0  0  0  0  0  0  0
    3.1392   -0.3940    1.8749 N   0  0  0  0  0  0  0  0  0  0  0  0
    4.8408    3.2713    1.7338 C   0  0  0  0  0  0  0  0  0  0  0  0
    4.5081    4.5855    1.4204 C   0  0  0  0  0  0  0  0  0  0  0  0
    5.3799    5.5691    1.8298 C   0  0  0  0  0  0  0  0  0  0  0  0
    6.5534    5.2651    2.5283 C   0  0  0  0  0  0  0  0  0  0  0  0
    6.8979    3.9681    2.8461 C   0  0  0  0  0  0  0  0  0  0  0  0
    6.0247    2.9678    2.4402 C   0  0  0  0  0  0  0  0  0  0  0  0
    6.9561    0.8691    3.4337 C   0  0  0  0  0  0  0  0  0  0  0  0
    4.9146    1.1340    1.9860 C   0  0  1  0  0  3  0  0  0  0  0  0
    4.4670   -0.2473    1.8885 C   0  0  2  0  0  3  0  0  0  0  0  0
    2.6171   -1.6045    1.7908 C   0  0  0  0  0  0  0  0  0  0  0  0
    3.3959   -2.7488    1.7138 C   0  0  0  0  0  0  0  0  0  0  0  0
    4.7740   -2.6073    1.6817 C   0  0  0  0  0  0  0  0  0  0  0  0
    5.3222   -1.3393    1.7616 C   0  0  0  0  0  0  0  0  0  0  0  0
    6.2398   -0.1287    4.3135 C   0  0  0  0  0  0  0  0  0  0  0  0
    6.7825   -1.3890    4.5267 C   0  0  0  0  0  0  0  0  0  0  0  0
    6.1150   -2.3144    5.3092 C   0  0  0  0  0  0  0  0  0  0  0  0
    4.8957   -1.9897    5.8792 C   0  0  0  0  0  0  0  0  0  0  0  0
    4.3590   -0.7286    5.6833 C   0  0  0  0  0  0  0  0  0  0  0  0
    5.0308    0.2031    4.9122 C   0  0  0  0  0  0  0  0  0  0  0  0
    3.5965    4.8047    0.8878 H   0  0  0  0  0  0  0  0  0  0  0  0
    5.1571    6.6024    1.6128 H   0  0  0  0  0  0  0  0  0  0  0  0
    7.2060    6.0709    2.8283 H   0  0  0  0  0  0  0  0  0  0  0  0
    7.8075    3.7508    3.3849 H   0  0  0  0  0  0  0  0  0  0  0  0
    7.4636    1.6084    4.0619 H   0  0  0  0  0  0  0  0  0  0  0  0
    7.7206    0.3676    2.8279 H   0  0  0  0  0  0  0  0  0  0  0  0
    1.5374   -1.6513    1.7812 H   0  0  0  0  0  0  0  0  0  0  0  0
    2.9323   -3.7204    1.6614 H   0  0  0  0  0  0  0  0  0  0  0  0
    5.4152   -3.4708    1.5889 H   0  0  0  0  0  0  0  0  0  0  0  0
    6.3877   -1.1981    1.6977 H   0  0  0  0  0  0  0  0  0  0  0  0
    7.7320   -1.6494    4.0792 H   0  0  0  0  0  0  0  0  0  0  0  0
    6.5456   -3.2921    5.4671 H   0  0  0  0  0  0  0  0  0  0  0  0
    4.3691   -2.7169    6.4786 H   0  0  0  0  0  0  0  0  0  0  0  0
    3.4127   -0.4580    6.1241 H   0  0  0  0  0  0  0  0  0  0  0  0
    4.5888    1.1781    4.7708 H   0  0  0  0  0  0  0  0  0  0  0  0
  1  6  1  0  0  0  0
  1  3  1  0  0  0  0
  2  1  1  0  0  0  0
  4  7  1  0  0  0  0
  4  1  1  0  0  0  0
  5 13  1  0  0  0  0
  6 15  1  0  0  0  0
  7 12  1  0  0  0  0
  8  7  2  0  0  0  0
  8  9  1  0  0  0  0
  9 10  2  0  0  0  0
 10 28  1  0  0  0  0
 10 11  1  0  0  0  0
 11 29  1  0  0  0  0
 12  5  1  0  0  0  0
 12 11  2  0  0  0  0
 13 30  1  0  0  0  0
 13 20  1  0  0  0  0
 14  4  1  1  0  0  0
 14  5  1  0  0  0  0
 15 19  1  6  0  0  0
 15 14  1  0  0  0  0
 16  6  1  0  0  0  0
 17 16  2  0  0  0  0
 18 17  1  0  0  0  0
 18 19  2  0  0  0  0
 20 21  2  0  0  0  0
 20 25  1  0  0  0  0
 21 22  1  0  0  0  0
 22 37  1  0  0  0  0
 22 23  2  0  0  0  0
 23 38  1  0  0  0  0
 24 23  1  0  0  0  0
 24 39  1  0  0  0  0
 25 24  2  0  0  0  0
 26  8  1  0  0  0  0
 27  9  1  0  0  0  0
 31 13  1  0  0  0  0
 32 16  1  0  0  0  0
 33 17  1  0  0  0  0
 34 18  1  0  0  0  0
 35 19  1  0  0  0  0
 36 21  1  0  0  0  0
 40 25  1  0  0  0  0
M  END
$$$$
