CSD_code = RAGTAV | q = 0 | S = 0 | Stoichiometry = C19H33ClNPPt | MND = 4
 OpenBabel04212202093D

 56 58  0  0  0  0  0  0  0  0999 V2000
    1.7257    0.7225    6.3843 Pt  0  0  2  0  0  0  0  0  0  0  0  0
    3.3743    1.7015    5.2225 P   0  0  0  0  0  4  0  0  0  0  0  0
    2.4766    1.5923    8.5063 Cl  0  0  0  0  0  0  0  0  0  0  0  0
    0.2500   -0.4298    7.4425 N   0  0  0  0  0  4  0  0  0  0  0  0
    1.0717    0.1538    4.5444 C   0  0  0  0  0  0  0  0  0  0  0  0
    1.9170    0.2902    3.4336 C   0  0  0  0  0  0  0  0  0  0  0  0
    1.4849   -0.0182    2.1515 C   0  0  0  0  0  0  0  0  0  0  0  0
    2.1633    0.0928    1.3160 H   0  0  0  0  0  0  0  0  0  0  0  0
    0.1933   -0.4601    1.9380 C   0  0  0  0  0  0  0  0  0  0  0  0
   -0.1451   -0.7022    0.9414 H   0  0  0  0  0  0  0  0  0  0  0  0
   -0.6622   -0.5788    3.0157 C   0  0  0  0  0  0  0  0  0  0  0  0
   -1.6802   -0.9083    2.8569 H   0  0  0  0  0  0  0  0  0  0  0  0
   -0.2380   -0.2697    4.3021 C   0  0  0  0  0  0  0  0  0  0  0  0
    1.0436   -1.3554    8.2572 C   0  0  0  0  0  0  0  0  0  0  0  0
    0.3913   -2.0115    8.8484 H   0  0  0  0  0  0  0  0  0  0  0  0
    1.6805   -0.7894    8.9368 H   0  0  0  0  0  0  0  0  0  0  0  0
    1.6738   -1.9711    7.6113 H   0  0  0  0  0  0  0  0  0  0  0  0
   -0.5300    0.4308    8.3352 C   0  0  0  0  0  0  0  0  0  0  0  0
   -1.2081   -0.1685    8.9570 H   0  0  0  0  0  0  0  0  0  0  0  0
   -1.1191    1.1446    7.7597 H   0  0  0  0  0  0  0  0  0  0  0  0
    0.1438    0.9881    8.9849 H   0  0  0  0  0  0  0  0  0  0  0  0
   -0.6576   -1.2075    6.5922 C   0  0  0  0  0  0  0  0  0  0  0  0
   -1.4770   -1.6073    7.2093 H   0  0  0  0  0  0  0  0  0  0  0  0
   -0.1044   -2.0539    6.1743 H   0  0  0  0  0  0  0  0  0  0  0  0
   -1.2294   -0.3968    5.4309 C   0  0  0  0  0  0  0  0  0  0  0  0
   -1.5210    0.5996    5.7728 H   0  0  0  0  0  0  0  0  0  0  0  0
   -2.1315   -0.8933    5.0675 H   0  0  0  0  0  0  0  0  0  0  0  0
    3.3287    0.7712    3.6335 C   0  0  0  0  0  0  0  0  0  0  0  0
    3.6843    1.3618    2.7861 H   0  0  0  0  0  0  0  0  0  0  0  0
    3.9847   -0.0982    3.7344 H   0  0  0  0  0  0  0  0  0  0  0  0
    3.0007    3.4875    4.7686 C   0  0  0  0  0  0  0  0  0  0  0  0
    5.1277    1.4104    5.8451 C   0  0  0  0  0  0  0  0  0  0  0  0
    1.6616    3.4292    4.0288 C   0  0  0  0  0  0  0  0  0  0  0  0
    1.2894    4.4370    3.8506 H   0  0  0  0  0  0  0  0  0  0  0  0
    0.9299    2.8915    4.6380 H   0  0  0  0  0  0  0  0  0  0  0  0
    1.7474    2.9217    3.0711 H   0  0  0  0  0  0  0  0  0  0  0  0
    4.0594    4.1526    3.8954 C   0  0  0  0  0  0  0  0  0  0  0  0
    4.2637    3.5675    3.0008 H   0  0  0  0  0  0  0  0  0  0  0  0
    4.9879    4.2982    4.4422 H   0  0  0  0  0  0  0  0  0  0  0  0
    3.7025    5.1325    3.5797 H   0  0  0  0  0  0  0  0  0  0  0  0
    2.7904    4.2724    6.0633 C   0  0  0  0  0  0  0  0  0  0  0  0
    2.3195    5.2309    5.8490 H   0  0  0  0  0  0  0  0  0  0  0  0
    3.7259    4.4629    6.5800 H   0  0  0  0  0  0  0  0  0  0  0  0
    2.1390    3.7096    6.7327 H   0  0  0  0  0  0  0  0  0  0  0  0
    5.0488    0.0075    6.4562 C   0  0  0  0  0  0  0  0  0  0  0  0
    6.0173   -0.2912    6.8542 H   0  0  0  0  0  0  0  0  0  0  0  0
    4.7391   -0.7331    5.7182 H   0  0  0  0  0  0  0  0  0  0  0  0
    4.3258    0.0066    7.2734 H   0  0  0  0  0  0  0  0  0  0  0  0
    5.4990    2.4067    6.9400 C   0  0  0  0  0  0  0  0  0  0  0  0
    4.7039    2.4658    7.6796 H   0  0  0  0  0  0  0  0  0  0  0  0
    5.6855    3.3970    6.5311 H   0  0  0  0  0  0  0  0  0  0  0  0
    6.4064    2.0764    7.4445 H   0  0  0  0  0  0  0  0  0  0  0  0
    6.1778    1.4448    4.7343 C   0  0  0  0  0  0  0  0  0  0  0  0
    6.1917    2.4037    4.2241 H   0  0  0  0  0  0  0  0  0  0  0  0
    6.0159    0.6629    3.9969 H   0  0  0  0  0  0  0  0  0  0  0  0
    7.1616    1.2856    5.1749 H   0  0  0  0  0  0  0  0  0  0  0  0
  1  4  1  0  0  0  0
  1  3  1  1  0  0  0
  2 32  1  0  0  0  0
  2  1  1  0  0  0  0
  4 14  1  0  0  0  0
  4 18  1  0  0  0  0
  5  1  1  0  0  0  0
  6 28  1  0  0  0  0
  6  5  2  0  0  0  0
  7  6  1  0  0  0  0
  8  7  1  0  0  0  0
  9  7  2  0  0  0  0
  9 11  1  0  0  0  0
 10  9  1  0  0  0  0
 11 13  2  0  0  0  0
 12 11  1  0  0  0  0
 13  5  1  0  0  0  0
 13 25  1  0  0  0  0
 14 15  1  0  0  0  0
 14 16  1  0  0  0  0
 17 14  1  0  0  0  0
 18 19  1  0  0  0  0
 18 21  1  0  0  0  0
 20 18  1  0  0  0  0
 22 23  1  0  0  0  0
 22  4  1  0  0  0  0
 24 22  1  0  0  0  0
 25 26  1  0  0  0  0
 25 22  1  0  0  0  0
 27 25  1  0  0  0  0
 28 30  1  0  0  0  0
 28  2  1  0  0  0  0
 29 28  1  0  0  0  0
 31  2  1  0  0  0  0
 31 41  1  0  0  0  0
 32 45  1  0  0  0  0
 32 49  1  0  0  0  0
 33 35  1  0  0  0  0
 33 31  1  0  0  0  0
 34 33  1  0  0  0  0
 36 33  1  0  0  0  0
 37 39  1  0  0  0  0
 37 31  1  0  0  0  0
 38 37  1  0  0  0  0
 40 37  1  0  0  0  0
 41 43  1  0  0  0  0
 41 44  1  0  0  0  0
 42 41  1  0  0  0  0
 45 46  1  0  0  0  0
 45 48  1  0  0  0  0
 47 45  1  0  0  0  0
 49 52  1  0  0  0  0
 49 50  1  0  0  0  0
 51 49  1  0  0  0  0
 53 56  1  0  0  0  0
 53 32  1  0  0  0  0
 54 53  1  0  0  0  0
 55 53  1  0  0  0  0
M  END
$$$$
