CSD_code = RAGWAX | q = 0 | S = 0 | Stoichiometry = C22H37Cl2N4NbSi2 | MND = 6
 OpenBabel04212202093D

 68 70  0  0  1  0  0  0  0  0999 V2000
    8.2756   11.5067    3.5036 Nb  0  0  0  0  0  0  0  0  0  0  0  0
    8.2555   12.3449    5.0555 N   0  0  0  0  0  2  0  0  0  0  0  0
    6.7003   12.6893    2.5009 N   0  0  0  0  0  0  0  0  0  0  0  0
    8.8109   13.2366    2.2339 N   0  0  0  0  0  0  0  0  0  0  0  0
    8.3187   10.2870    1.3845 N   0  0  0  0  0  0  0  0  0  0  0  0
    4.9743   12.5537    2.4362 Si  0  0  0  0  0  0  0  0  0  0  0  0
   10.3205   13.9483    1.7686 Si  0  0  0  0  0  0  0  0  0  0  0  0
    6.9992    9.6448    4.1118 Cl  0  0  0  0  0  0  0  0  0  0  0  0
   10.3882   10.5213    3.6743 Cl  0  0  0  0  0  0  0  0  0  0  0  0
    8.2694   12.9201    6.3360 C   0  0  0  0  0  0  0  0  0  0  0  0
    7.8652   14.4011    6.2250 C   0  0  0  0  0  0  0  0  0  0  0  0
    9.6915   12.7897    6.9146 C   0  0  0  0  0  0  0  0  0  0  0  0
    7.2723   12.1532    7.2259 C   0  0  0  0  0  0  0  0  0  0  0  0
    7.5587   13.5374    1.9874 C   0  0  2  0  0  3  0  0  0  0  0  0
    7.1484   14.7588    1.2566 C   0  0  0  0  0  0  0  0  0  0  0  0
    6.9064   15.9121    1.9947 C   0  0  0  0  0  0  0  0  0  0  0  0
    6.5219   17.0770    1.3564 C   0  0  0  0  0  0  0  0  0  0  0  0
    6.3749   17.0990   -0.0209 C   0  0  0  0  0  0  0  0  0  0  0  0
    6.6147   15.9529   -0.7585 C   0  0  0  0  0  0  0  0  0  0  0  0
    7.0012   14.7851   -0.1232 C   0  0  0  0  0  0  0  0  0  0  0  0
    4.4277   12.4127    4.2583 C   0  0  0  0  0  0  0  0  0  0  0  0
    4.0597   13.9909    1.5749 C   0  0  0  0  0  0  0  0  0  0  0  0
    4.6240   10.9268    1.4891 C   0  0  0  0  0  0  0  0  0  0  0  0
   11.1692   12.6531    0.6421 C   0  0  0  0  0  0  0  0  0  0  0  0
   11.2839   14.1672    3.4002 C   0  0  0  0  0  0  0  0  0  0  0  0
   10.2025   15.6140    0.8438 C   0  0  0  0  0  0  0  0  0  0  0  0
    8.0385   10.8130    0.1996 C   0  0  0  0  0  3  0  0  0  0  0  0
    8.0859   10.0917   -0.9813 C   0  0  0  0  0  0  0  0  0  0  0  0
    8.4430    8.7538   -0.9277 C   0  0  0  0  0  0  0  0  0  0  0  0
    8.7350    8.2013    0.3078 C   0  0  0  0  0  0  0  0  0  0  0  0
    8.6599    9.0046    1.4351 C   0  0  0  0  0  0  0  0  0  0  0  0
    7.8686   14.8735    7.2039 H   0  0  0  0  0  0  0  0  0  0  0  0
    8.5658   14.9152    5.5699 H   0  0  0  0  0  0  0  0  0  0  0  0
    6.8694   14.4687    5.7914 H   0  0  0  0  0  0  0  0  0  0  0  0
    9.7201   13.1351    7.9446 H   0  0  0  0  0  0  0  0  0  0  0  0
   10.3857   13.3759    6.3180 H   0  0  0  0  0  0  0  0  0  0  0  0
    9.9949   11.7444    6.8722 H   0  0  0  0  0  0  0  0  0  0  0  0
    7.3218   12.5080    8.2519 H   0  0  0  0  0  0  0  0  0  0  0  0
    7.5157   11.0920    7.1950 H   0  0  0  0  0  0  0  0  0  0  0  0
    6.2626   12.2877    6.8459 H   0  0  0  0  0  0  0  0  0  0  0  0
    7.0249   15.8791    3.0681 H   0  0  0  0  0  0  0  0  0  0  0  0
    6.3356   17.9707    1.9337 H   0  0  0  0  0  0  0  0  0  0  0  0
    6.0740   18.0086   -0.5189 H   0  0  0  0  0  0  0  0  0  0  0  0
    6.5009   15.9677   -1.8327 H   0  0  0  0  0  0  0  0  0  0  0  0
    7.1881   13.8937   -0.7062 H   0  0  0  0  0  0  0  0  0  0  0  0
    3.4174   12.0278    4.3481 H   0  0  0  0  0  0  0  0  0  0  0  0
    4.4632   13.3720    4.7675 H   0  0  0  0  0  0  0  0  0  0  0  0
    5.0981   11.7311    4.7794 H   0  0  0  0  0  0  0  0  0  0  0  0
    2.9908   13.8111    1.6131 H   0  0  0  0  0  0  0  0  0  0  0  0
    4.2527   14.9429    2.0570 H   0  0  0  0  0  0  0  0  0  0  0  0
    4.3399   14.0899    0.5316 H   0  0  0  0  0  0  0  0  0  0  0  0
    3.5679   10.6791    1.5114 H   0  0  0  0  0  0  0  0  0  0  0  0
    4.9256   10.9821    0.4454 H   0  0  0  0  0  0  0  0  0  0  0  0
    5.1631   10.1028    1.9514 H   0  0  0  0  0  0  0  0  0  0  0  0
   12.1860   12.9466    0.4029 H   0  0  0  0  0  0  0  0  0  0  0  0
   10.6395   12.5105   -0.2973 H   0  0  0  0  0  0  0  0  0  0  0  0
   11.2169   11.6922    1.1500 H   0  0  0  0  0  0  0  0  0  0  0  0
   12.3436   14.3201    3.2250 H   0  0  0  0  0  0  0  0  0  0  0  0
   10.9181   15.0130    3.9759 H   0  0  0  0  0  0  0  0  0  0  0  0
   11.1663   13.2716    4.0079 H   0  0  0  0  0  0  0  0  0  0  0  0
   11.2012   15.9943    0.6590 H   0  0  0  0  0  0  0  0  0  0  0  0
    9.6649   16.3605    1.4183 H   0  0  0  0  0  0  0  0  0  0  0  0
    9.7043   15.5177   -0.1149 H   0  0  0  0  0  0  0  0  0  0  0  0
    7.7630   11.8602    0.1955 H   0  0  0  0  0  0  0  0  0  0  0  0
    7.8484   10.5690   -1.9197 H   0  0  0  0  0  0  0  0  0  0  0  0
    8.4916    8.1584   -1.8275 H   0  0  0  0  0  0  0  0  0  0  0  0
    9.0175    7.1649    0.4035 H   0  0  0  0  0  0  0  0  0  0  0  0
    8.8832    8.5978    2.4145 H   0  0  0  0  0  0  0  0  0  0  0  0
  1  9  1  0  0  0  0
  1  8  1  0  0  0  0
  1  2  1  0  0  0  0
  2 10  1  0  0  0  0
  3  1  1  0  0  0  0
  4  1  1  0  0  0  0
  5 31  1  0  0  0  0
  5  1  1  0  0  0  0
  6  3  1  0  0  0  0
  6 21  1  0  0  0  0
  7  4  1  0  0  0  0
  7 25  1  0  0  0  0
 10 12  1  0  0  0  0
 10 13  1  0  0  0  0
 11 10  1  0  0  0  0
 11 32  1  0  0  0  0
 12 35  1  0  0  0  0
 13 38  1  0  0  0  0
 14 15  1  1  0  0  0
 14  4  1  0  0  0  0
 14  3  1  0  0  0  0
 15 16  1  0  0  0  0
 16 41  1  0  0  0  0
 17 42  1  0  0  0  0
 17 16  2  0  0  0  0
 18 17  1  0  0  0  0
 19 20  1  0  0  0  0
 19 18  2  0  0  0  0
 20 15  2  0  0  0  0
 21 46  1  0  0  0  0
 21 47  1  0  0  0  0
 21 48  1  0  0  0  0
 22 49  1  0  0  0  0
 22 50  1  0  0  0  0
 22  6  1  0  0  0  0
 23 52  1  0  0  0  0
 23 54  1  0  0  0  0
 23  6  1  0  0  0  0
 24 57  1  0  0  0  0
 24  7  1  0  0  0  0
 25 59  1  0  0  0  0
 25 60  1  0  0  0  0
 26 62  1  0  0  0  0
 26  7  1  0  0  0  0
 27  5  1  0  0  0  0
 28 29  2  0  0  0  0
 28 27  1  0  0  0  0
 29 30  1  0  0  0  0
 30 67  1  0  0  0  0
 30 31  2  0  0  0  0
 31 68  1  0  0  0  0
 33 11  1  0  0  0  0
 34 11  1  0  0  0  0
 36 12  1  0  0  0  0
 37 12  1  0  0  0  0
 39 13  1  0  0  0  0
 40 13  1  0  0  0  0
 43 18  1  0  0  0  0
 44 19  1  0  0  0  0
 45 20  1  0  0  0  0
 51 22  1  0  0  0  0
 53 23  1  0  0  0  0
 55 24  1  0  0  0  0
 56 24  1  0  0  0  0
 58 25  1  0  0  0  0
 61 26  1  0  0  0  0
 63 26  1  0  0  0  0
 64 27  1  0  0  0  0
 65 28  1  0  0  0  0
 66 29  1  0  0  0  0
M  END
$$$$
