CSD_code = RAGYOP | q = 1 | S = 0 | Stoichiometry = C24H20Cl2N4O8Rh(1+) | MND = 6
 OpenBabel04212202093D

 59 62  0  0  0  0  0  0  0  0999 V2000
    6.3084   10.1429    2.9696 Rh  0  0  0  0  0  0  0  0  0  0  0  0
    8.1287    9.9655    4.4272 Cl  0  0  0  0  0  0  0  0  0  0  0  0
    4.4937   10.3225    1.5049 Cl  0  0  0  0  0  0  0  0  0  0  0  0
    7.4005    9.2660    1.5019 N   0  0  0  0  0  0  0  0  0  0  0  0
    8.1939    8.2232    1.7705 C   0  0  0  0  0  3  0  0  0  0  0  0
    8.2476    7.8915    2.7990 H   0  0  0  0  0  0  0  0  0  0  0  0
    8.9492    7.5943    0.7999 C   0  0  0  0  0  0  0  0  0  0  0  0
    9.5828    6.7557    1.0434 H   0  0  0  0  0  0  0  0  0  0  0  0
    8.8882    8.0555   -0.5114 C   0  0  0  0  0  0  0  0  0  0  0  0
    8.0638    9.1399   -0.7891 C   0  0  0  0  0  0  0  0  0  0  0  0
    7.9837    9.5275   -1.7916 H   0  0  0  0  0  0  0  0  0  0  0  0
    7.3425    9.7120    0.2429 C   0  0  0  0  0  0  0  0  0  0  0  0
    6.6778   10.5416    0.0412 H   0  0  0  0  0  0  0  0  0  0  0  0
    9.7018    7.3648   -1.5632 C   0  0  0  0  0  0  0  0  0  0  0  0
    9.6215    7.9669   -2.7457 O   0  0  0  0  0  0  0  0  0  0  0  0
   10.3476    6.3769   -1.3473 O   0  0  0  0  0  0  0  0  0  0  0  0
    5.6441    8.3190    3.5676 N   0  0  0  0  0  0  0  0  0  0  0  0
    5.6931    7.9630    4.8561 C   0  0  0  0  0  3  0  0  0  0  0  0
    6.1359    8.6660    5.5492 H   0  0  0  0  0  0  0  0  0  0  0  0
    5.2321    6.7420    5.3082 C   0  0  0  0  0  0  0  0  0  0  0  0
    5.2847    6.4786    6.3530 H   0  0  0  0  0  0  0  0  0  0  0  0
    4.6917    5.8412    4.3959 C   0  0  0  0  0  0  0  0  0  0  0  0
    4.6453    6.2104    3.0564 C   0  0  0  0  0  0  0  0  0  0  0  0
    4.2341    5.5438    2.3161 H   0  0  0  0  0  0  0  0  0  0  0  0
    5.1319    7.4516    2.6886 C   0  0  0  0  0  0  0  0  0  0  0  0
    5.0828    7.7652    1.6542 H   0  0  0  0  0  0  0  0  0  0  0  0
    4.1806    4.5226    4.8923 C   0  0  0  0  0  0  0  0  0  0  0  0
    4.1674    4.2216    6.0534 O   0  0  0  0  0  0  0  0  0  0  0  0
    3.7487    3.7410    3.9080 O   0  0  0  0  0  0  0  0  0  0  0  0
    5.2134   11.0134    4.4420 N   0  0  0  0  0  0  0  0  0  0  0  0
    3.9247   10.6985    4.6130 C   0  0  0  0  0  3  0  0  0  0  0  0
    3.4873    9.9985    3.9136 H   0  0  0  0  0  0  0  0  0  0  0  0
    3.1507   11.2514    5.6146 C   0  0  0  0  0  0  0  0  0  0  0  0
    2.1127   10.9813    5.7302 H   0  0  0  0  0  0  0  0  0  0  0  0
    3.7255   12.1711    6.4861 C   0  0  0  0  0  0  0  0  0  0  0  0
    5.0639   12.5006    6.3049 C   0  0  0  0  0  0  0  0  0  0  0  0
    5.5495   13.2075    6.9576 H   0  0  0  0  0  0  0  0  0  0  0  0
    5.7654   11.9021    5.2744 C   0  0  0  0  0  0  0  0  0  0  0  0
    6.8138   12.1288    5.1326 H   0  0  0  0  0  0  0  0  0  0  0  0
    2.8863   12.7594    7.5796 C   0  0  0  0  0  0  0  0  0  0  0  0
    1.7494   12.4328    7.7791 O   0  0  0  0  0  0  0  0  0  0  0  0
    3.5426   13.6704    8.2907 O   0  0  0  0  0  0  0  0  0  0  0  0
    6.9652   11.9689    2.3773 N   0  0  0  0  0  0  0  0  0  0  0  0
    6.1050   12.9743    2.1813 C   0  0  0  0  0  3  0  0  0  0  0  0
    5.0535   12.7637    2.3242 H   0  0  0  0  0  0  0  0  0  0  0  0
    6.5111   14.2330    1.7826 C   0  0  0  0  0  0  0  0  0  0  0  0
    5.7964   15.0264    1.6291 H   0  0  0  0  0  0  0  0  0  0  0  0
    7.8657   14.4748    1.5764 C   0  0  0  0  0  0  0  0  0  0  0  0
    8.7586   13.4290    1.7804 C   0  0  0  0  0  0  0  0  0  0  0  0
    9.8169   13.5731    1.6358 H   0  0  0  0  0  0  0  0  0  0  0  0
    8.2669   12.1988    2.1772 C   0  0  0  0  0  0  0  0  0  0  0  0
    8.9489   11.3797    2.3632 H   0  0  0  0  0  0  0  0  0  0  0  0
    8.3037   15.8440    1.1535 C   0  0  0  0  0  0  0  0  0  0  0  0
    7.5489   16.7713    1.0550 O   0  0  0  0  0  0  0  0  0  0  0  0
    9.6080   15.9071    0.9051 O   0  0  0  0  0  0  0  0  0  0  0  0
   10.1538    7.4992   -3.4103 H   0  0  0  0  0  0  0  0  0  0  0  0
    3.4207    2.8949    4.2549 H   0  0  0  0  0  0  0  0  0  0  0  0
    9.8672   16.8038    0.6357 H   0  0  0  0  0  0  0  0  0  0  0  0
    2.9791   14.0346    8.9933 H   0  0  0  0  0  0  0  0  0  0  0  0
  1 17  1  0  0  0  0
  1  2  1  0  0  0  0
  1 30  1  0  0  0  0
  3  1  1  0  0  0  0
  4  5  1  0  0  0  0
  4  1  1  0  0  0  0
  5  6  1  0  0  0  0
  7  8  1  0  0  0  0
  7  5  1  0  0  0  0
  9  7  2  0  0  0  0
 10  9  1  0  0  0  0
 10 12  2  0  0  0  0
 11 10  1  0  0  0  0
 12  4  1  0  0  0  0
 13 12  1  0  0  0  0
 14 16  2  0  0  0  0
 14  9  1  0  0  0  0
 15 14  1  0  0  0  0
 17 18  1  0  0  0  0
 18 20  1  0  0  0  0
 18 19  1  0  0  0  0
 20 21  1  0  0  0  0
 22 27  1  0  0  0  0
 22 20  2  0  0  0  0
 23 22  1  0  0  0  0
 24 23  1  0  0  0  0
 25 23  2  0  0  0  0
 25 17  1  0  0  0  0
 26 25  1  0  0  0  0
 27 28  2  0  0  0  0
 29 57  1  0  0  0  0
 29 27  1  0  0  0  0
 30 31  1  0  0  0  0
 30 38  1  0  0  0  0
 31 33  1  0  0  0  0
 32 31  1  0  0  0  0
 33 34  1  0  0  0  0
 33 35  2  0  0  0  0
 35 40  1  0  0  0  0
 36 35  1  0  0  0  0
 36 37  1  0  0  0  0
 38 36  2  0  0  0  0
 39 38  1  0  0  0  0
 40 41  2  0  0  0  0
 40 42  1  0  0  0  0
 42 59  1  0  0  0  0
 43  1  1  0  0  0  0
 44 45  1  0  0  0  0
 44 43  1  0  0  0  0
 46 44  1  0  0  0  0
 47 46  1  0  0  0  0
 48 49  1  0  0  0  0
 48 46  2  0  0  0  0
 49 51  2  0  0  0  0
 50 49  1  0  0  0  0
 51 52  1  0  0  0  0
 51 43  1  0  0  0  0
 53 48  1  0  0  0  0
 54 53  2  0  0  0  0
 55 53  1  0  0  0  0
 56 15  1  0  0  0  0
 58 55  1  0  0  0  0
M  END
$$$$
