CSD_code = RAJRUR | q = 1 | S = 0 | Stoichiometry = C17H21ClN3RuS3(1+) | MND = 6
 OpenBabel04212202093D

 46 51  0  0  0  0  0  0  0  0999 V2000
   10.0221    5.4977   14.3698 Ru  0  0  0  0  0  0  0  0  0  0  0  0
   11.2840    4.8297   12.5381 Cl  0  0  0  0  0  0  0  0  0  0  0  0
   11.5246    4.0847   15.6564 S   0  0  1  0  0  3  0  0  0  0  0  0
   11.5617    7.2666   14.7915 S   0  0  2  0  0  3  0  0  0  0  0  0
    8.9838    6.0548   16.4477 S   0  0  2  0  0  3  0  0  0  0  0  0
    8.6806    4.0757   13.8990 N   0  0  0  0  0  0  0  0  0  0  0  0
    8.7508    6.4958   13.3551 N   0  0  0  0  0  0  0  0  0  0  0  0
    7.6676    5.9377   12.9899 N   0  0  0  0  0  2  0  0  0  0  0  0
    8.7271    2.7628   14.0913 C   0  0  0  0  0  3  0  0  0  0  0  0
    9.6048    2.3779   14.5961 H   0  0  0  0  0  0  0  0  0  0  0  0
    7.7220    1.9166   13.6611 C   0  0  0  0  0  0  0  0  0  0  0  0
    7.8066    0.8562   13.8317 H   0  0  0  0  0  0  0  0  0  0  0  0
    6.6170    2.4516   13.0026 C   0  0  0  0  0  0  0  0  0  0  0  0
    5.8223    1.8087   12.6594 H   0  0  0  0  0  0  0  0  0  0  0  0
    6.5630    3.8113   12.7842 C   0  0  0  0  0  0  0  0  0  0  0  0
    5.7477    4.2866   12.2655 H   0  0  0  0  0  0  0  0  0  0  0  0
    7.6242    4.6036   13.2338 C   0  0  0  0  0  0  0  0  0  0  0  0
    8.8620    7.8551   13.0545 C   0  0  0  0  0  0  0  0  0  0  0  0
    7.8121    8.7328   13.3288 C   0  0  0  0  0  0  0  0  0  0  0  0
    6.9087    8.3446   13.7747 H   0  0  0  0  0  0  0  0  0  0  0  0
    7.9564   10.0760   13.0397 C   0  0  0  0  0  0  0  0  0  0  0  0
    7.1516   10.7596   13.2614 H   0  0  0  0  0  0  0  0  0  0  0  0
    9.1249   10.5428   12.4550 C   0  0  0  0  0  0  0  0  0  0  0  0
    9.2279   11.5915   12.2241 H   0  0  0  0  0  0  0  0  0  0  0  0
   10.1517    9.6626   12.1477 C   0  0  0  0  0  0  0  0  0  0  0  0
   11.0452   10.0218   11.6618 H   0  0  0  0  0  0  0  0  0  0  0  0
   10.0317    8.3188   12.4490 C   0  0  0  0  0  0  0  0  0  0  0  0
   10.7998    7.6103   12.1699 H   0  0  0  0  0  0  0  0  0  0  0  0
   13.0693    5.0487   15.5439 C   0  0  0  0  0  0  0  0  0  0  0  0
   13.7935    4.5988   16.2241 H   0  0  0  0  0  0  0  0  0  0  0  0
   13.3798    4.8754   14.5101 H   0  0  0  0  0  0  0  0  0  0  0  0
   12.9137    6.5307   15.8093 C   0  0  0  0  0  0  0  0  0  0  0  0
   13.8270    7.0485   15.5144 H   0  0  0  0  0  0  0  0  0  0  0  0
   12.7109    6.7506   16.8566 H   0  0  0  0  0  0  0  0  0  0  0  0
   10.6650    8.2646   16.0401 C   0  0  0  0  0  0  0  0  0  0  0  0
   11.3827    8.9602   16.4760 H   0  0  0  0  0  0  0  0  0  0  0  0
    9.9453    8.8270   15.4430 H   0  0  0  0  0  0  0  0  0  0  0  0
    9.9633    7.4700   17.1211 C   0  0  0  0  0  0  0  0  0  0  0  0
    9.2458    8.1080   17.6381 H   0  0  0  0  0  0  0  0  0  0  0  0
   10.6598    7.0651   17.8531 H   0  0  0  0  0  0  0  0  0  0  0  0
    9.5487    4.6894   17.5341 C   0  0  0  0  0  0  0  0  0  0  0  0
    9.2944    4.9685   18.5576 H   0  0  0  0  0  0  0  0  0  0  0  0
    8.9223    3.8487   17.2311 H   0  0  0  0  0  0  0  0  0  0  0  0
   11.0168    4.3326   17.4148 C   0  0  0  0  0  0  0  0  0  0  0  0
   11.1992    3.3881   17.9289 H   0  0  0  0  0  0  0  0  0  0  0  0
   11.6644    5.0918   17.8495 H   0  0  0  0  0  0  0  0  0  0  0  0
  1  4  1  0  0  0  0
  1  3  1  0  0  0  0
  1  5  1  0  0  0  0
  2  1  1  0  0  0  0
  3 29  1  1  0  0  0
  3 44  1  0  0  0  0
  4 32  1  1  0  0  0
  4 35  1  0  0  0  0
  5 38  1  1  0  0  0
  5 41  1  0  0  0  0
  6  9  1  0  0  0  0
  6  1  1  0  0  0  0
  7  1  1  0  0  0  0
  8 17  1  0  0  0  0
  8  7  1  0  0  0  0
  9 10  1  0  0  0  0
 11 12  1  0  0  0  0
 11  9  1  0  0  0  0
 13 11  2  0  0  0  0
 14 13  1  0  0  0  0
 15 13  1  0  0  0  0
 15 17  2  0  0  0  0
 16 15  1  0  0  0  0
 17  6  1  0  0  0  0
 18 19  1  0  0  0  0
 18  7  1  0  0  0  0
 19 20  1  0  0  0  0
 21 22  1  0  0  0  0
 21 19  2  0  0  0  0
 23 21  1  0  0  0  0
 24 23  1  0  0  0  0
 25 27  1  0  0  0  0
 25 23  2  0  0  0  0
 26 25  1  0  0  0  0
 27 18  2  0  0  0  0
 28 27  1  0  0  0  0
 29 32  1  0  0  0  0
 29 30  1  0  0  0  0
 31 29  1  0  0  0  0
 32 34  1  0  0  0  0
 33 32  1  0  0  0  0
 35 36  1  0  0  0  0
 35 38  1  0  0  0  0
 37 35  1  0  0  0  0
 38 39  1  0  0  0  0
 38 40  1  0  0  0  0
 41 42  1  0  0  0  0
 43 41  1  0  0  0  0
 44 41  1  0  0  0  0
 44 46  1  0  0  0  0
 44 45  1  0  0  0  0
M  END
$$$$
