CSD_code = RAKSAY | q = 0 | S = 0 | Stoichiometry = C14H16ClMnN2O4 | MND = 5
 OpenBabel04212202093D

 38 41  0  0  1  0  0  0  0  0999 V2000
    7.3372    3.1273    9.8059 Mn  0  0  0  0  0  0  0  0  0  0  0  0
    6.7855    5.0996    9.9574 Cl  0  0  0  0  0  0  0  0  0  0  0  0
    8.0139    2.4867    8.2172 O   0  0  0  0  0  0  0  0  0  0  0  0
    5.5485    2.6099    8.9795 O   0  0  0  0  0  0  0  0  0  0  0  0
    9.1777    3.5031   10.5720 O   0  0  0  0  0  0  0  0  0  0  0  0
    7.1613    2.1076   11.2946 O   0  0  0  0  0  0  0  0  0  0  0  0
    5.0599    1.3277    5.6755 N   0  0  0  0  0  0  0  0  0  0  0  0
    9.3579    1.5025   14.0937 N   0  0  0  0  0  0  0  0  0  0  0  0
    7.1282    2.0847    7.3577 C   0  0  0  0  0  0  0  0  0  0  0  0
    5.7499    2.1708    7.7969 C   0  0  0  0  0  0  0  0  0  0  0  0
    4.7337    1.7811    6.9129 C   0  0  1  0  0  3  0  0  0  0  0  0
    6.3402    1.2332    5.2704 C   0  0  0  0  0  0  0  0  0  0  0  0
    7.3939    1.5957    6.0788 C   0  0  0  0  0  0  0  0  0  0  0  0
    3.3078    1.8771    7.3418 C   0  0  0  0  0  0  0  0  0  0  0  0
    3.9999    0.9452    4.7696 C   0  0  0  0  0  0  0  0  0  0  0  0
    9.3167    2.9059   11.6702 C   0  0  0  0  0  0  0  0  0  0  0  0
    8.1930    2.1056   12.1218 C   0  0  0  0  0  0  0  0  0  0  0  0
    8.2267    1.4243   13.3157 C   0  0  2  0  0  3  0  0  0  0  0  0
   10.4232    2.2338   13.6902 C   0  0  0  0  0  0  0  0  0  0  0  0
   10.4534    2.9299   12.5217 C   0  0  0  0  0  0  0  0  0  0  0  0
    7.0559    0.6168   13.7728 C   0  0  0  0  0  0  0  0  0  0  0  0
    9.4005    0.8028   15.3555 C   0  0  0  0  0  0  0  0  0  0  0  0
    6.5058    0.8604    4.2726 H   0  0  0  0  0  0  0  0  0  0  0  0
    8.4080    1.5134    5.7231 H   0  0  0  0  0  0  0  0  0  0  0  0
    2.7372    2.5485    6.7006 H   0  0  0  0  0  0  0  0  0  0  0  0
    3.3064    2.2752    8.3537 H   0  0  0  0  0  0  0  0  0  0  0  0
    2.8179    0.9032    7.3448 H   0  0  0  0  0  0  0  0  0  0  0  0
    4.4244    0.5991    3.8301 H   0  0  0  0  0  0  0  0  0  0  0  0
    3.3469    1.7954    4.5683 H   0  0  0  0  0  0  0  0  0  0  0  0
    3.3997    0.1435    5.2017 H   0  0  0  0  0  0  0  0  0  0  0  0
   11.2693    2.2386   14.3608 H   0  0  0  0  0  0  0  0  0  0  0  0
   11.3224    3.5014   12.2422 H   0  0  0  0  0  0  0  0  0  0  0  0
    6.2805    0.7078   13.0160 H   0  0  0  0  0  0  0  0  0  0  0  0
    6.6634    0.9836   14.7207 H   0  0  0  0  0  0  0  0  0  0  0  0
    7.3132   -0.4359   13.8893 H   0  0  0  0  0  0  0  0  0  0  0  0
    9.2632   -0.2696   15.2062 H   0  0  0  0  0  0  0  0  0  0  0  0
    8.6148    1.1632   16.0220 H   0  0  0  0  0  0  0  0  0  0  0  0
   10.3638    0.9673   15.8330 H   0  0  0  0  0  0  0  0  0  0  0  0
  1  2  1  0  0  0  0
  1  5  1  0  0  0  0
  1  6  1  0  0  0  0
  3  1  1  0  0  0  0
  4  1  1  0  0  0  0
  5 16  1  0  0  0  0
  6 17  1  0  0  0  0
  7 11  1  0  0  0  0
  8 22  1  0  0  0  0
  9 10  2  0  0  0  0
  9  3  1  0  0  0  0
 10  4  1  0  0  0  0
 11 14  1  6  0  0  0
 11 10  1  0  0  0  0
 12  7  1  0  0  0  0
 12 13  2  0  0  0  0
 13  9  1  0  0  0  0
 14 27  1  0  0  0  0
 14 26  1  0  0  0  0
 15 30  1  0  0  0  0
 15  7  1  0  0  0  0
 16 17  2  0  0  0  0
 16 20  1  0  0  0  0
 17 18  1  0  0  0  0
 18 21  1  1  0  0  0
 18  8  1  0  0  0  0
 19  8  1  0  0  0  0
 19 31  1  0  0  0  0
 20 19  2  0  0  0  0
 21 35  1  0  0  0  0
 21 34  1  0  0  0  0
 22 38  1  0  0  0  0
 22 37  1  0  0  0  0
 23 12  1  0  0  0  0
 24 13  1  0  0  0  0
 25 14  1  0  0  0  0
 28 15  1  0  0  0  0
 29 15  1  0  0  0  0
 32 20  1  0  0  0  0
 33 21  1  0  0  0  0
 36 22  1  0  0  0  0
M  END
$$$$
