CSD_code = RALBIR | q = 0 | S = 0 | Stoichiometry = C27H19ClNO3PRu | MND = 6
 OpenBabel04212202093D

 53 58  0  0  0  0  0  0  0  0999 V2000
    2.0940   -0.8798    6.4290 Ru  0  0  0  0  0  0  0  0  0  0  0  0
    4.3858   -1.3211    6.3646 Cl  0  0  0  0  0  0  0  0  0  0  0  0
    2.6121    0.6435    3.8997 O   0  0  0  0  0  1  0  0  0  0  0  0
   -0.8884   -0.6086    6.5531 O   0  0  0  0  0  1  0  0  0  0  0  0
    1.8108   -2.6698    5.3232 O   0  0  0  0  0  0  0  0  0  0  0  0
    2.1366   -2.0105    8.1787 N   0  0  0  0  0  0  0  0  0  0  0  0
    2.5024    0.8402    7.9034 P   0  0  0  0  0  4  0  0  0  0  0  0
    2.3381    0.0723    4.8453 C   0  0  0  0  0  2  0  0  0  0  0  0
    0.2520   -0.6940    6.5083 C   0  0  0  0  0  2  0  0  0  0  0  0
    1.3128   -3.7325    5.8098 C   0  0  0  0  0  0  0  0  0  0  0  0
    0.9620   -4.7689    4.8931 C   0  0  0  0  0  0  0  0  0  0  0  0
    1.1767   -4.5804    3.8521 H   0  0  0  0  0  0  0  0  0  0  0  0
    0.3574   -5.9202    5.2991 C   0  0  0  0  0  0  0  0  0  0  0  0
    0.0862   -6.6714    4.5714 H   0  0  0  0  0  0  0  0  0  0  0  0
    0.0780   -6.1421    6.6579 C   0  0  0  0  0  0  0  0  0  0  0  0
   -0.4082   -7.0545    6.9665 H   0  0  0  0  0  0  0  0  0  0  0  0
    0.4447   -5.2037    7.5760 C   0  0  0  0  0  0  0  0  0  0  0  0
    0.2571   -5.3758    8.6276 H   0  0  0  0  0  0  0  0  0  0  0  0
    1.0792   -3.9913    7.2064 C   0  0  0  0  0  0  0  0  0  0  0  0
    1.5654   -3.1820    8.2549 C   0  0  0  0  0  3  0  0  0  0  0  0
    1.4676   -3.6300    9.2462 H   0  0  0  0  0  0  0  0  0  0  0  0
    2.8003   -1.4923    9.2900 C   0  0  0  0  0  0  0  0  0  0  0  0
    3.2915   -2.2798   10.3363 C   0  0  0  0  0  0  0  0  0  0  0  0
    3.1958   -3.3546   10.3049 H   0  0  0  0  0  0  0  0  0  0  0  0
    3.9603   -1.7017   11.3986 C   0  0  0  0  0  0  0  0  0  0  0  0
    4.3374   -2.3337   12.1889 H   0  0  0  0  0  0  0  0  0  0  0  0
    4.1725   -0.3329   11.4501 C   0  0  0  0  0  0  0  0  0  0  0  0
    4.7039    0.1052   12.2808 H   0  0  0  0  0  0  0  0  0  0  0  0
    3.7298    0.4620   10.4082 C   0  0  0  0  0  0  0  0  0  0  0  0
    3.9183    1.5268   10.4070 H   0  0  0  0  0  0  0  0  0  0  0  0
    3.0564   -0.1095    9.3381 C   0  0  0  0  0  0  0  0  0  0  0  0
    3.6994    2.1907    7.7231 C   0  0  0  0  0  0  0  0  0  0  0  0
    4.8291    1.9921    6.9343 C   0  0  0  0  0  0  0  0  0  0  0  0
    4.9721    1.0414    6.4382 H   0  0  0  0  0  0  0  0  0  0  0  0
    5.7613    3.0060    6.8049 C   0  0  0  0  0  0  0  0  0  0  0  0
    6.6372    2.8519    6.1929 H   0  0  0  0  0  0  0  0  0  0  0  0
    5.5718    4.2146    7.4553 C   0  0  0  0  0  0  0  0  0  0  0  0
    6.2999    5.0054    7.3508 H   0  0  0  0  0  0  0  0  0  0  0  0
    4.4463    4.4129    8.2396 C   0  0  0  0  0  0  0  0  0  0  0  0
    4.2980    5.3555    8.7459 H   0  0  0  0  0  0  0  0  0  0  0  0
    3.5072    3.4071    8.3756 C   0  0  0  0  0  0  0  0  0  0  0  0
    2.6247    3.5649    8.9805 H   0  0  0  0  0  0  0  0  0  0  0  0
    0.9939    1.6936    8.4500 C   0  0  0  0  0  0  0  0  0  0  0  0
    0.4520    1.5650    9.7224 C   0  0  0  0  0  0  0  0  0  0  0  0
    0.9554    0.9622   10.4660 H   0  0  0  0  0  0  0  0  0  0  0  0
   -0.7330    2.2122   10.0313 C   0  0  0  0  0  0  0  0  0  0  0  0
   -1.1553    2.1124   11.0204 H   0  0  0  0  0  0  0  0  0  0  0  0
   -1.3771    2.9815    9.0774 C   0  0  0  0  0  0  0  0  0  0  0  0
   -2.3020    3.4813    9.3235 H   0  0  0  0  0  0  0  0  0  0  0  0
   -0.8411    3.1064    7.8039 C   0  0  0  0  0  0  0  0  0  0  0  0
   -1.3483    3.7014    7.0592 H   0  0  0  0  0  0  0  0  0  0  0  0
    0.3378    2.4607    7.4883 C   0  0  0  0  0  0  0  0  0  0  0  0
    0.7684    2.5353    6.4961 H   0  0  0  0  0  0  0  0  0  0  0  0
  1  9  1  0  0  0  0
  1  7  1  0  0  0  0
  1  6  1  0  0  0  0
  2  1  1  0  0  0  0
  3  8  1  0  0  0  0
  5 10  1  0  0  0  0
  5  1  1  0  0  0  0
  6 20  1  0  0  0  0
  6 22  1  0  0  0  0
  7 43  1  0  0  0  0
  7 31  1  0  0  0  0
  8  1  1  0  0  0  0
  9  4  1  0  0  0  0
 10 19  1  0  0  0  0
 11 13  1  0  0  0  0
 11 10  2  0  0  0  0
 12 11  1  0  0  0  0
 13 15  2  0  0  0  0
 14 13  1  0  0  0  0
 15 16  1  0  0  0  0
 15 17  1  0  0  0  0
 17 18  1  0  0  0  0
 19 17  2  0  0  0  0
 19 20  1  0  0  0  0
 20 21  1  0  0  0  0
 22 31  2  0  0  0  0
 22 23  1  0  0  0  0
 23 25  2  0  0  0  0
 24 23  1  0  0  0  0
 25 27  1  0  0  0  0
 25 26  1  0  0  0  0
 27 28  1  0  0  0  0
 29 27  2  0  0  0  0
 30 29  1  0  0  0  0
 31 29  1  0  0  0  0
 32  7  1  0  0  0  0
 32 41  1  0  0  0  0
 33 32  2  0  0  0  0
 34 33  1  0  0  0  0
 35 33  1  0  0  0  0
 35 37  2  0  0  0  0
 36 35  1  0  0  0  0
 37 39  1  0  0  0  0
 38 37  1  0  0  0  0
 39 41  2  0  0  0  0
 39 40  1  0  0  0  0
 41 42  1  0  0  0  0
 43 44  1  0  0  0  0
 44 46  2  0  0  0  0
 44 45  1  0  0  0  0
 46 47  1  0  0  0  0
 48 49  1  0  0  0  0
 48 46  1  0  0  0  0
 50 48  2  0  0  0  0
 51 50  1  0  0  0  0
 52 50  1  0  0  0  0
 52 43  2  0  0  0  0
 53 52  1  0  0  0  0
M  END
$$$$
