CSD_code = RALDAK | q = 0 | S = 0 | Stoichiometry = C12H30Cl2P2Pd | MND = 4
 OpenBabel04212202093D

 47 46  0  0  0  0  0  0  0  0999 V2000
   10.7687    0.0001    0.0001 Pd  0  0  0  0  0  0  0  0  0  0  0  0
    8.7048    0.3086    0.9202 Cl  0  0  0  0  0  0  0  0  0  0  0  0
   11.5233    1.9928    0.7575 P   0  0  0  0  0  4  0  0  0  0  0  0
   10.3521    3.0930    1.6611 C   0  0  0  0  0  0  0  0  0  0  0  0
    9.4314    3.1328    1.0722 H   0  0  0  0  0  0  0  0  0  0  0  0
   10.1043    2.5614    2.5854 H   0  0  0  0  0  0  0  0  0  0  0  0
   10.8530    4.4978    1.9665 C   0  0  0  0  0  0  0  0  0  0  0  0
   10.1572    4.9953    2.6394 H   0  0  0  0  0  0  0  0  0  0  0  0
   10.9250    5.0950    1.0607 H   0  0  0  0  0  0  0  0  0  0  0  0
   11.8299    4.4786    2.4461 H   0  0  0  0  0  0  0  0  0  0  0  0
   12.2337    3.0196   -0.5904 C   0  0  0  0  0  0  0  0  0  0  0  0
   12.4675    4.0281   -0.2428 H   0  0  0  0  0  0  0  0  0  0  0  0
   13.1581    2.5298   -0.9070 H   0  0  0  0  0  0  0  0  0  0  0  0
   11.2330    3.0256   -1.7434 C   0  0  0  0  0  0  0  0  0  0  0  0
   11.6341    3.5452   -2.6113 H   0  0  0  0  0  0  0  0  0  0  0  0
   10.3003    3.5073   -1.4492 H   0  0  0  0  0  0  0  0  0  0  0  0
   11.0150    1.9872   -2.0307 H   0  0  0  0  0  0  0  0  0  0  0  0
   12.8942    1.7045    1.9537 C   0  0  0  0  0  0  0  0  0  0  0  0
   13.8100    1.5410    1.3803 H   0  0  0  0  0  0  0  0  0  0  0  0
   13.0326    2.5689    2.6084 H   0  0  0  0  0  0  0  0  0  0  0  0
   12.5503    0.4497    2.7563 C   0  0  0  0  0  0  0  0  0  0  0  0
   13.3281    0.2204    3.4824 H   0  0  0  0  0  0  0  0  0  0  0  0
   12.4557   -0.4049    2.0682 H   0  0  0  0  0  0  0  0  0  0  0  0
   11.6049    0.5782    3.2878 H   0  0  0  0  0  0  0  0  0  0  0  0
   12.8327   -0.3082   -0.9200 Cl  0  0  0  0  0  0  0  0  0  0  0  0
   10.0146   -1.9926   -0.7574 P   0  0  0  0  0  4  0  0  0  0  0  0
   11.1859   -3.0929   -1.6609 C   0  0  0  0  0  0  0  0  0  0  0  0
   12.1065   -3.1326   -1.0719 H   0  0  0  0  0  0  0  0  0  0  0  0
   11.4337   -2.5613   -2.5852 H   0  0  0  0  0  0  0  0  0  0  0  0
   10.6850   -4.4977   -1.9664 C   0  0  0  0  0  0  0  0  0  0  0  0
   11.3810   -4.9953   -2.6391 H   0  0  0  0  0  0  0  0  0  0  0  0
   10.6128   -5.0948   -1.0606 H   0  0  0  0  0  0  0  0  0  0  0  0
    9.7082   -4.4784   -2.4461 H   0  0  0  0  0  0  0  0  0  0  0  0
    9.3042   -3.0195    0.5904 C   0  0  0  0  0  0  0  0  0  0  0  0
    9.0701   -4.0279    0.2428 H   0  0  0  0  0  0  0  0  0  0  0  0
    8.3800   -2.5295    0.9073 H   0  0  0  0  0  0  0  0  0  0  0  0
   10.3051   -3.0259    1.7433 C   0  0  0  0  0  0  0  0  0  0  0  0
    9.9041   -3.5454    2.6112 H   0  0  0  0  0  0  0  0  0  0  0  0
   11.2376   -3.5077    1.4488 H   0  0  0  0  0  0  0  0  0  0  0  0
   10.5234   -1.9875    2.0307 H   0  0  0  0  0  0  0  0  0  0  0  0
    8.6437   -1.7045   -1.9537 C   0  0  0  0  0  0  0  0  0  0  0  0
    7.7280   -1.5406   -1.3803 H   0  0  0  0  0  0  0  0  0  0  0  0
    8.5051   -2.5691   -2.6081 H   0  0  0  0  0  0  0  0  0  0  0  0
    8.9879   -0.4500   -2.7566 C   0  0  0  0  0  0  0  0  0  0  0  0
    8.2103   -0.2208   -3.4830 H   0  0  0  0  0  0  0  0  0  0  0  0
    9.0825    0.4048   -2.0688 H   0  0  0  0  0  0  0  0  0  0  0  0
    9.9334   -0.5788   -3.2879 H   0  0  0  0  0  0  0  0  0  0  0  0
  1  3  1  0  0  0  0
  1  2  1  0  0  0  0
  3  4  1  0  0  0  0
  3 18  1  0  0  0  0
  4  7  1  0  0  0  0
  4  6  1  0  0  0  0
  5  4  1  0  0  0  0
  7 10  1  0  0  0  0
  7  8  1  0  0  0  0
  9  7  1  0  0  0  0
 11 12  1  0  0  0  0
 11  3  1  0  0  0  0
 13 11  1  0  0  0  0
 14 16  1  0  0  0  0
 14 11  1  0  0  0  0
 15 14  1  0  0  0  0
 17 14  1  0  0  0  0
 18 20  1  0  0  0  0
 18 21  1  0  0  0  0
 19 18  1  0  0  0  0
 21 24  1  0  0  0  0
 21 22  1  0  0  0  0
 23 21  1  0  0  0  0
 25  1  1  0  0  0  0
 26  1  1  0  0  0  0
 26 34  1  0  0  0  0
 27 28  1  0  0  0  0
 27 26  1  0  0  0  0
 29 27  1  0  0  0  0
 30 27  1  0  0  0  0
 30 32  1  0  0  0  0
 31 30  1  0  0  0  0
 33 30  1  0  0  0  0
 34 36  1  0  0  0  0
 34 37  1  0  0  0  0
 35 34  1  0  0  0  0
 37 40  1  0  0  0  0
 37 38  1  0  0  0  0
 39 37  1  0  0  0  0
 41 42  1  0  0  0  0
 41 26  1  0  0  0  0
 43 41  1  0  0  0  0
 44 46  1  0  0  0  0
 44 41  1  0  0  0  0
 45 44  1  0  0  0  0
 47 44  1  0  0  0  0
M  END
$$$$
