CSD_code = RALGUG | q = 0 | S = 0 | Stoichiometry = C24H33Br2NP3Re | MND = 6
 OpenBabel04212202093D

 64 66  0  0  0  0  0  0  0  0999 V2000
    0.5928   14.2596   17.7281 Re  0  0  0  0  0  0  0  0  0  0  0  0
    0.2686   15.9567   17.8571 N   0  0  0  0  0  1  0  0  0  0  0  0
   -1.2350   13.4285   19.2928 Br  0  0  0  0  0  0  0  0  0  0  0  0
    1.3959   11.8484   17.3090 Br  0  0  0  0  0  0  0  0  0  0  0  0
    2.4177   14.4031   16.1105 P   0  0  0  0  0  4  0  0  0  0  0  0
    2.8759   16.0511   15.4537 C   0  0  0  0  0  0  0  0  0  0  0  0
    3.7938   16.1698   14.4154 C   0  0  0  0  0  0  0  0  0  0  0  0
    4.2345   15.2884   13.9694 H   0  0  0  0  0  0  0  0  0  0  0  0
    4.1463   17.4193   13.9409 C   0  0  0  0  0  0  0  0  0  0  0  0
    4.8574   17.5045   13.1316 H   0  0  0  0  0  0  0  0  0  0  0  0
    3.5910   18.5594   14.4992 C   0  0  0  0  0  0  0  0  0  0  0  0
    3.8696   19.5333   14.1239 H   0  0  0  0  0  0  0  0  0  0  0  0
    2.6772   18.4465   15.5333 C   0  0  0  0  0  0  0  0  0  0  0  0
    2.2375   19.3317   15.9686 H   0  0  0  0  0  0  0  0  0  0  0  0
    2.3217   17.1963   16.0067 C   0  0  0  0  0  0  0  0  0  0  0  0
    1.5897   17.0850   16.8009 H   0  0  0  0  0  0  0  0  0  0  0  0
    2.1969   13.4302   14.5645 C   0  0  0  0  0  0  0  0  0  0  0  0
    1.2744   12.8521   14.6063 H   0  0  0  0  0  0  0  0  0  0  0  0
    3.0298   12.7359   14.4532 H   0  0  0  0  0  0  0  0  0  0  0  0
    2.1438   14.1023   13.7090 H   0  0  0  0  0  0  0  0  0  0  0  0
    4.0770   13.8670   16.6770 C   0  0  0  0  0  0  0  0  0  0  0  0
    4.0362   12.8601   17.0911 H   0  0  0  0  0  0  0  0  0  0  0  0
    4.4413   14.5608   17.4333 H   0  0  0  0  0  0  0  0  0  0  0  0
    4.7550   13.8801   15.8234 H   0  0  0  0  0  0  0  0  0  0  0  0
    1.9057   14.2900   19.7904 P   0  0  0  0  0  4  0  0  0  0  0  0
    3.5171   15.1285   19.7567 C   0  0  0  0  0  0  0  0  0  0  0  0
    3.5117   16.4111   19.2132 C   0  0  0  0  0  0  0  0  0  0  0  0
    2.5721   16.8139   18.8569 H   0  0  0  0  0  0  0  0  0  0  0  0
    4.6851   17.1317   19.1152 C   0  0  0  0  0  0  0  0  0  0  0  0
    4.6769   18.1225   18.6859 H   0  0  0  0  0  0  0  0  0  0  0  0
    5.8743   16.5730   19.5607 C   0  0  0  0  0  0  0  0  0  0  0  0
    6.7961   17.1302   19.4819 H   0  0  0  0  0  0  0  0  0  0  0  0
    5.8831   15.2985   20.1020 C   0  0  0  0  0  0  0  0  0  0  0  0
    6.8106   14.8646   20.4467 H   0  0  0  0  0  0  0  0  0  0  0  0
    4.7084   14.5705   20.1997 C   0  0  0  0  0  0  0  0  0  0  0  0
    4.7292   13.5732   20.6137 H   0  0  0  0  0  0  0  0  0  0  0  0
    2.1855   12.6770   20.5826 C   0  0  0  0  0  0  0  0  0  0  0  0
    1.2215   12.1709   20.6700 H   0  0  0  0  0  0  0  0  0  0  0  0
    2.6062   12.8303   21.5764 H   0  0  0  0  0  0  0  0  0  0  0  0
    2.8487   12.0587   19.9777 H   0  0  0  0  0  0  0  0  0  0  0  0
    1.0751   15.2399   21.1128 C   0  0  0  0  0  0  0  0  0  0  0  0
    0.1846   14.7027   21.4380 H   0  0  0  0  0  0  0  0  0  0  0  0
    0.7753   16.2075   20.7102 H   0  0  0  0  0  0  0  0  0  0  0  0
    1.7632   15.3727   21.9478 H   0  0  0  0  0  0  0  0  0  0  0  0
   -1.1518   13.9538   16.0498 P   0  0  0  0  0  4  0  0  0  0  0  0
   -0.7995   14.5908   14.3844 C   0  0  0  0  0  0  0  0  0  0  0  0
   -0.9743   13.8764   13.2071 C   0  0  0  0  0  0  0  0  0  0  0  0
   -1.3725   12.8720   13.2250 H   0  0  0  0  0  0  0  0  0  0  0  0
   -0.6263   14.4551   11.9980 C   0  0  0  0  0  0  0  0  0  0  0  0
   -0.7601   13.8988   11.0815 H   0  0  0  0  0  0  0  0  0  0  0  0
   -0.1022   15.7365   11.9599 C   0  0  0  0  0  0  0  0  0  0  0  0
    0.1750   16.1761   11.0130 H   0  0  0  0  0  0  0  0  0  0  0  0
    0.0700   16.4532   13.1347 C   0  0  0  0  0  0  0  0  0  0  0  0
    0.4837   17.4506   13.1093 H   0  0  0  0  0  0  0  0  0  0  0  0
   -0.2769   15.8806   14.3423 C   0  0  0  0  0  0  0  0  0  0  0  0
   -0.1411   16.4124   15.2761 H   0  0  0  0  0  0  0  0  0  0  0  0
   -1.7882   12.2623   15.8373 C   0  0  0  0  0  0  0  0  0  0  0  0
   -2.0651   11.8798   16.8224 H   0  0  0  0  0  0  0  0  0  0  0  0
   -1.0269   11.6078   15.4126 H   0  0  0  0  0  0  0  0  0  0  0  0
   -2.6705   12.2861   15.1973 H   0  0  0  0  0  0  0  0  0  0  0  0
   -2.6611   14.8958   16.4615 C   0  0  0  0  0  0  0  0  0  0  0  0
   -3.1182   14.4703   17.3546 H   0  0  0  0  0  0  0  0  0  0  0  0
   -3.3555   14.8525   15.6222 H   0  0  0  0  0  0  0  0  0  0  0  0
   -2.3775   15.9280   16.6677 H   0  0  0  0  0  0  0  0  0  0  0  0
  1  2  1  0  0  0  0
  1  3  1  0  0  0  0
  1 25  1  0  0  0  0
  4  1  1  0  0  0  0
  5 21  1  0  0  0  0
  5  1  1  0  0  0  0
  6 15  1  0  0  0  0
  6  5  1  0  0  0  0
  7  6  2  0  0  0  0
  8  7  1  0  0  0  0
  9  7  1  0  0  0  0
  9 11  2  0  0  0  0
 10  9  1  0  0  0  0
 11 13  1  0  0  0  0
 12 11  1  0  0  0  0
 13 14  1  0  0  0  0
 13 15  2  0  0  0  0
 15 16  1  0  0  0  0
 17 18  1  0  0  0  0
 17  5  1  0  0  0  0
 19 17  1  0  0  0  0
 20 17  1  0  0  0  0
 21 22  1  0  0  0  0
 21 23  1  0  0  0  0
 24 21  1  0  0  0  0
 25 37  1  0  0  0  0
 25 41  1  0  0  0  0
 26 25  1  0  0  0  0
 26 35  1  0  0  0  0
 27 26  2  0  0  0  0
 28 27  1  0  0  0  0
 29 27  1  0  0  0  0
 29 31  2  0  0  0  0
 30 29  1  0  0  0  0
 31 33  1  0  0  0  0
 32 31  1  0  0  0  0
 33 35  2  0  0  0  0
 33 34  1  0  0  0  0
 35 36  1  0  0  0  0
 37 38  1  0  0  0  0
 37 39  1  0  0  0  0
 40 37  1  0  0  0  0
 41 42  1  0  0  0  0
 41 44  1  0  0  0  0
 43 41  1  0  0  0  0
 45 61  1  0  0  0  0
 45  1  1  0  0  0  0
 46 45  1  0  0  0  0
 47 48  1  0  0  0  0
 47 46  2  0  0  0  0
 49 47  1  0  0  0  0
 50 49  1  0  0  0  0
 51 49  2  0  0  0  0
 51 53  1  0  0  0  0
 52 51  1  0  0  0  0
 53 55  2  0  0  0  0
 54 53  1  0  0  0  0
 55 46  1  0  0  0  0
 55 56  1  0  0  0  0
 57 45  1  0  0  0  0
 57 58  1  0  0  0  0
 59 57  1  0  0  0  0
 60 57  1  0  0  0  0
 61 64  1  0  0  0  0
 61 62  1  0  0  0  0
 63 61  1  0  0  0  0
M  END
$$$$
