CSD_code = RALMEX | q = 0 | S = 0 | Stoichiometry = C27H26ClFNPPdS | MND = 4
 OpenBabel04212202093D

 59 63  0  0  0  0  0  0  0  0999 V2000
    2.2566    1.9449    2.3594 Pd  0  0  2  0  0  0  0  0  0  0  0  0
    3.3877    0.2130    3.3354 Cl  0  0  0  0  0  0  0  0  0  0  0  0
    1.3990    2.4558    4.4649 S   0  0  0  0  0  0  0  0  0  0  0  0
    0.7749    3.3114    1.3945 P   0  0  0  0  0  4  0  0  0  0  0  0
    3.9802    3.5899    3.2960 F   0  0  0  0  0  0  0  0  0  0  0  0
    3.2716    1.5932    0.4311 N   0  0  0  0  0  4  0  0  0  0  0  0
    2.9053    2.7786    5.2835 C   0  0  0  0  0  0  0  0  0  0  0  0
    4.0346    3.2948    4.6486 C   0  0  0  0  0  0  0  0  0  0  0  0
    5.2169    3.5395    5.3114 C   0  0  0  0  0  0  0  0  0  0  0  0
    6.0609    3.9232    4.7598 H   0  0  0  0  0  0  0  0  0  0  0  0
    5.2927    3.2860    6.6708 C   0  0  0  0  0  0  0  0  0  0  0  0
    6.2138    3.4677    7.2018 H   0  0  0  0  0  0  0  0  0  0  0  0
    4.1797    2.7975    7.3378 C   0  0  0  0  0  0  0  0  0  0  0  0
    4.2312    2.5997    8.3980 H   0  0  0  0  0  0  0  0  0  0  0  0
    3.0066    2.5461    6.6570 C   0  0  0  0  0  0  0  0  0  0  0  0
    2.1427    2.1521    7.1698 H   0  0  0  0  0  0  0  0  0  0  0  0
    0.4888    2.8983   -0.3600 C   0  0  0  0  0  0  0  0  0  0  0  0
    1.5801    2.5369   -1.1556 C   0  0  0  0  0  0  0  0  0  0  0  0
    1.3589    2.1526   -2.4709 C   0  0  0  0  0  0  0  0  0  0  0  0
    2.1977    1.8711   -3.0921 H   0  0  0  0  0  0  0  0  0  0  0  0
    0.0793    2.1280   -2.9989 C   0  0  0  0  0  0  0  0  0  0  0  0
   -0.0736    1.8269   -4.0242 H   0  0  0  0  0  0  0  0  0  0  0  0
   -0.9994    2.4880   -2.2097 C   0  0  0  0  0  0  0  0  0  0  0  0
   -1.9994    2.4733   -2.6164 H   0  0  0  0  0  0  0  0  0  0  0  0
   -0.7954    2.8642   -0.8946 C   0  0  0  0  0  0  0  0  0  0  0  0
   -1.6366    3.1383   -0.2741 H   0  0  0  0  0  0  0  0  0  0  0  0
    2.9823    2.5921   -0.6109 C   0  0  0  0  0  0  0  0  0  0  0  0
    3.6869    2.4521   -1.4472 H   0  0  0  0  0  0  0  0  0  0  0  0
    3.1592    3.5864   -0.1766 H   0  0  0  0  0  0  0  0  0  0  0  0
    2.9597    0.2442   -0.0346 C   0  0  0  0  0  0  0  0  0  0  0  0
    1.8952    0.1690   -0.2686 H   0  0  0  0  0  0  0  0  0  0  0  0
    3.2000   -0.4656    0.7592 H   0  0  0  0  0  0  0  0  0  0  0  0
    3.5406   -0.0093   -0.9320 H   0  0  0  0  0  0  0  0  0  0  0  0
    4.6926    1.6906    0.7698 C   0  0  0  0  0  0  0  0  0  0  0  0
    4.9249    0.9734    1.5594 H   0  0  0  0  0  0  0  0  0  0  0  0
    4.9154    2.6987    1.1286 H   0  0  0  0  0  0  0  0  0  0  0  0
    5.3192    1.4782   -0.1080 H   0  0  0  0  0  0  0  0  0  0  0  0
   -0.8452    2.9329    2.1253 C   0  0  0  0  0  0  0  0  0  0  0  0
   -1.0400    1.6005    2.4888 C   0  0  0  0  0  0  0  0  0  0  0  0
   -0.2264    0.8824    2.3447 H   0  0  0  0  0  0  0  0  0  0  0  0
   -2.2378    1.2074    3.0527 C   0  0  0  0  0  0  0  0  0  0  0  0
   -2.3879    0.1782    3.3423 H   0  0  0  0  0  0  0  0  0  0  0  0
   -3.2419    2.1414    3.2603 C   0  0  0  0  0  0  0  0  0  0  0  0
   -4.1756    1.8367    3.7096 H   0  0  0  0  0  0  0  0  0  0  0  0
   -3.0477    3.4658    2.9056 C   0  0  0  0  0  0  0  0  0  0  0  0
   -3.8295    4.1915    3.0766 H   0  0  0  0  0  0  0  0  0  0  0  0
   -1.8509    3.8674    2.3370 C   0  0  0  0  0  0  0  0  0  0  0  0
   -1.6928    4.9027    2.0664 H   0  0  0  0  0  0  0  0  0  0  0  0
    0.8864    5.1212    1.4294 C   0  0  0  0  0  0  0  0  0  0  0  0
    1.3051    5.6867    2.6318 C   0  0  0  0  0  0  0  0  0  0  0  0
    1.5320    5.0343    3.4668 H   0  0  0  0  0  0  0  0  0  0  0  0
    1.4214    7.0585    2.7461 C   0  0  0  0  0  0  0  0  0  0  0  0
    1.7444    7.4973    3.6785 H   0  0  0  0  0  0  0  0  0  0  0  0
    1.1295    7.8693    1.6598 C   0  0  0  0  0  0  0  0  0  0  0  0
    1.2227    8.9417    1.7464 H   0  0  0  0  0  0  0  0  0  0  0  0
    0.7233    7.3077    0.4601 C   0  0  0  0  0  0  0  0  0  0  0  0
    0.5006    7.9418   -0.3858 H   0  0  0  0  0  0  0  0  0  0  0  0
    0.6026    5.9342    0.3379 C   0  0  0  0  0  0  0  0  0  0  0  0
    0.2887    5.4941   -0.5988 H   0  0  0  0  0  0  0  0  0  0  0  0
  1  2  1  6  0  0  0
  1  3  1  0  0  0  0
  3  7  1  0  0  0  0
  4 49  1  0  0  0  0
  4 38  1  0  0  0  0
  4  1  1  0  0  0  0
  5  8  1  0  0  0  0
  6 34  1  0  0  0  0
  6  1  1  0  0  0  0
  7 15  1  0  0  0  0
  8  7  2  0  0  0  0
  8  9  1  0  0  0  0
  9 11  2  0  0  0  0
 10  9  1  0  0  0  0
 11 12  1  0  0  0  0
 11 13  1  0  0  0  0
 13 14  1  0  0  0  0
 15 16  1  0  0  0  0
 15 13  2  0  0  0  0
 17  4  1  0  0  0  0
 18 27  1  0  0  0  0
 18 17  2  0  0  0  0
 19 18  1  0  0  0  0
 20 19  1  0  0  0  0
 21 19  2  0  0  0  0
 21 23  1  0  0  0  0
 22 21  1  0  0  0  0
 23 25  2  0  0  0  0
 24 23  1  0  0  0  0
 25 17  1  0  0  0  0
 25 26  1  0  0  0  0
 27 29  1  0  0  0  0
 27  6  1  0  0  0  0
 28 27  1  0  0  0  0
 30  6  1  0  0  0  0
 30 32  1  0  0  0  0
 31 30  1  0  0  0  0
 33 30  1  0  0  0  0
 34 36  1  0  0  0  0
 34 35  1  0  0  0  0
 37 34  1  0  0  0  0
 38 47  2  0  0  0  0
 38 39  1  0  0  0  0
 39 41  2  0  0  0  0
 40 39  1  0  0  0  0
 41 43  1  0  0  0  0
 41 42  1  0  0  0  0
 43 44  1  0  0  0  0
 45 46  1  0  0  0  0
 45 43  2  0  0  0  0
 47 45  1  0  0  0  0
 48 47  1  0  0  0  0
 49 50  1  0  0  0  0
 50 52  2  0  0  0  0
 50 51  1  0  0  0  0
 52 53  1  0  0  0  0
 54 55  1  0  0  0  0
 54 52  1  0  0  0  0
 56 54  2  0  0  0  0
 57 56  1  0  0  0  0
 58 56  1  0  0  0  0
 58 49  2  0  0  0  0
 59 58  1  0  0  0  0
M  END
$$$$
