CSD_code = RALYUZ | q = 0 | S = 0 | Stoichiometry = C28H23Cl3N2PRe | MND = 6
 OpenBabel04212202093D

 58 63  0  0  1  0  0  0  0  0999 V2000
   -1.8734    3.2058    6.9550 Re  0  0  0  0  0  0  0  0  0  0  0  0
    0.4289    3.5826    6.8236 Cl  0  0  0  0  0  0  0  0  0  0  0  0
   -1.8054    3.2091    9.2631 Cl  0  0  0  0  0  0  0  0  0  0  0  0
   -1.4951    0.9413    6.7710 Cl  0  0  0  0  0  0  0  0  0  0  0  0
   -4.2595    2.8766    7.2756 P   0  0  0  0  0  4  0  0  0  0  0  0
   -4.8849    1.7995    8.6001 C   0  0  0  0  0  0  0  0  0  0  0  0
   -6.2022    1.9380    9.0314 C   0  0  0  0  0  0  0  0  0  0  0  0
   -6.8313    2.7093    8.6083 H   0  0  0  0  0  0  0  0  0  0  0  0
   -6.6986    1.0944   10.0062 C   0  0  0  0  0  0  0  0  0  0  0  0
   -7.7182    1.2068   10.3454 H   0  0  0  0  0  0  0  0  0  0  0  0
   -5.8910    0.1060   10.5478 C   0  0  0  0  0  0  0  0  0  0  0  0
   -6.2822   -0.5483   11.3129 H   0  0  0  0  0  0  0  0  0  0  0  0
   -4.5876   -0.0438   10.1064 C   0  0  0  0  0  0  0  0  0  0  0  0
   -3.9595   -0.8164   10.5236 H   0  0  0  0  0  0  0  0  0  0  0  0
   -4.0827    0.7972    9.1299 C   0  0  0  0  0  0  0  0  0  0  0  0
   -3.0677    0.6804    8.7807 H   0  0  0  0  0  0  0  0  0  0  0  0
   -4.9720    4.5044    7.6438 C   0  0  0  0  0  0  0  0  0  0  0  0
   -5.2384    5.3967    6.6069 C   0  0  0  0  0  0  0  0  0  0  0  0
   -5.1329    5.0713    5.5797 H   0  0  0  0  0  0  0  0  0  0  0  0
   -5.6303    6.6917    6.8892 C   0  0  0  0  0  0  0  0  0  0  0  0
   -5.8428    7.3770    6.0816 H   0  0  0  0  0  0  0  0  0  0  0  0
   -5.7416    7.1125    8.2049 C   0  0  0  0  0  0  0  0  0  0  0  0
   -6.0473    8.1250    8.4223 H   0  0  0  0  0  0  0  0  0  0  0  0
   -5.4491    6.2382    9.2388 C   0  0  0  0  0  0  0  0  0  0  0  0
   -5.5195    6.5704   10.2637 H   0  0  0  0  0  0  0  0  0  0  0  0
   -5.0567    4.9409    8.9628 C   0  0  0  0  0  0  0  0  0  0  0  0
   -4.8031    4.2611    9.7637 H   0  0  0  0  0  0  0  0  0  0  0  0
   -5.2287    2.2232    5.8782 C   0  0  0  0  0  0  0  0  0  0  0  0
   -6.4957    2.6804    5.5345 C   0  0  0  0  0  0  0  0  0  0  0  0
   -6.9520    3.4918    6.0834 H   0  0  0  0  0  0  0  0  0  0  0  0
   -7.1763    2.0928    4.4829 C   0  0  0  0  0  0  0  0  0  0  0  0
   -8.1593    2.4524    4.2152 H   0  0  0  0  0  0  0  0  0  0  0  0
   -6.6056    1.0458    3.7779 C   0  0  0  0  0  0  0  0  0  0  0  0
   -7.1419    0.5949    2.9561 H   0  0  0  0  0  0  0  0  0  0  0  0
   -5.3538    0.5714    4.1353 C   0  0  0  0  0  0  0  0  0  0  0  0
   -4.9140   -0.2554    3.5981 H   0  0  0  0  0  0  0  0  0  0  0  0
   -4.6679    1.1540    5.1847 C   0  0  0  0  0  0  0  0  0  0  0  0
   -3.6986    0.7817    5.4899 H   0  0  0  0  0  0  0  0  0  0  0  0
   -2.0084    3.5051    4.9297 N   0  0  0  0  0  0  0  0  0  0  0  0
   -1.8800    2.5543    3.9931 C   0  0  0  0  0  3  0  0  0  0  0  0
   -1.6845    1.5555    4.3591 H   0  0  0  0  0  0  0  0  0  0  0  0
   -2.2040    4.1049    2.2080 C   0  0  0  0  0  0  0  0  0  0  0  0
   -2.2854    4.3317    1.1568 H   0  0  0  0  0  0  0  0  0  0  0  0
   -1.9708    2.8015    2.6446 C   0  0  0  0  0  0  0  0  0  0  0  0
   -1.8543    1.9918    1.9432 H   0  0  0  0  0  0  0  0  0  0  0  0
   -2.3105    5.0983    3.1546 C   0  0  0  0  0  0  0  0  0  0  0  0
   -2.4726    6.1197    2.8525 H   0  0  0  0  0  0  0  0  0  0  0  0
   -2.1975    4.7864    4.5120 C   0  0  0  0  0  0  0  0  0  0  0  0
   -2.2480    5.7630    5.5780 C   0  0  2  0  0  3  0  0  0  0  0  0
   -2.3940    7.1389    5.3816 C   0  0  0  0  0  0  0  0  0  0  0  0
   -2.4963    7.5301    4.3830 H   0  0  0  0  0  0  0  0  0  0  0  0
   -2.3962    7.9900    6.4630 C   0  0  0  0  0  0  0  0  0  0  0  0
   -2.5039    9.0546    6.3278 H   0  0  0  0  0  0  0  0  0  0  0  0
   -2.2432    7.4422    7.7352 C   0  0  0  0  0  0  0  0  0  0  0  0
   -2.2225    8.0672    8.6126 H   0  0  0  0  0  0  0  0  0  0  0  0
   -2.1099    6.0803    7.8643 C   0  0  0  0  0  0  0  0  0  0  0  0
   -1.9875    5.6246    8.8378 H   0  0  0  0  0  0  0  0  0  0  0  0
   -2.1221    5.2382    6.8243 N   0  0  0  0  0  0  0  0  0  0  0  0
  1  5  1  0  0  0  0
  1  3  1  0  0  0  0
  2  1  1  0  0  0  0
  4  1  1  0  0  0  0
  5 17  1  0  0  0  0
  5  6  1  0  0  0  0
  6  7  2  0  0  0  0
  6 15  1  0  0  0  0
  7  9  1  0  0  0  0
  8  7  1  0  0  0  0
  9 10  1  0  0  0  0
  9 11  2  0  0  0  0
 11 12  1  0  0  0  0
 13 14  1  0  0  0  0
 13 11  1  0  0  0  0
 15 13  2  0  0  0  0
 16 15  1  0  0  0  0
 17 26  1  0  0  0  0
 18 20  1  0  0  0  0
 18 17  2  0  0  0  0
 19 18  1  0  0  0  0
 20 22  2  0  0  0  0
 21 20  1  0  0  0  0
 22 23  1  0  0  0  0
 22 24  1  0  0  0  0
 24 25  1  0  0  0  0
 26 24  2  0  0  0  0
 26 27  1  0  0  0  0
 28  5  1  0  0  0  0
 29 28  1  0  0  0  0
 29 30  1  0  0  0  0
 31 29  2  0  0  0  0
 32 31  1  0  0  0  0
 33 35  2  0  0  0  0
 33 31  1  0  0  0  0
 34 33  1  0  0  0  0
 35 37  1  0  0  0  0
 36 35  1  0  0  0  0
 37 38  1  0  0  0  0
 37 28  2  0  0  0  0
 39  1  1  0  0  0  0
 40 41  1  0  0  0  0
 40 39  1  0  0  0  0
 42 44  2  0  0  0  0
 42 46  1  0  0  0  0
 43 42  1  0  0  0  0
 44 40  1  0  0  0  0
 45 44  1  0  0  0  0
 46 48  2  0  0  0  0
 47 46  1  0  0  0  0
 48 39  1  0  0  0  0
 49 48  1  6  0  0  0
 49 58  1  0  0  0  0
 50 49  1  0  0  0  0
 50 52  2  0  0  0  0
 51 50  1  0  0  0  0
 52 54  1  0  0  0  0
 53 52  1  0  0  0  0
 54 56  2  0  0  0  0
 54 55  1  0  0  0  0
 56 57  1  0  0  0  0
 58  1  1  0  0  0  0
 58 56  1  0  0  0  0
M  END
$$$$
