CSD_code = RAMDEQ | q = 0 | S = 0 | Stoichiometry = C24H32ClN3OPd | MND = 4
 OpenBabel04212202093D

 62 65  0  0  0  0  0  0  0  0999 V2000
   12.0398   11.5081    9.2896 Pd  0  0  1  0  0  0  0  0  0  0  0  0
   13.4986   12.6448    8.9775 N   0  0  0  0  0  0  0  0  0  0  0  0
   11.5622   12.9497   10.6154 N   0  0  0  0  0  0  0  0  0  0  0  0
   14.0850   11.0516    7.3825 C   0  0  0  0  0  0  0  0  0  0  0  0
   14.3972   12.3193    8.0330 C   0  0  0  0  0  0  0  0  0  0  0  0
   14.9485   10.5266    6.2785 C   0  0  0  0  0  0  0  0  0  0  0  0
   14.5200    9.6185    5.8597 H   0  0  0  0  0  0  0  0  0  0  0  0
   15.9478   10.3074    6.6540 H   0  0  0  0  0  0  0  0  0  0  0  0
   15.0461   11.2737    5.4918 H   0  0  0  0  0  0  0  0  0  0  0  0
   15.4536   13.1880    7.7546 C   0  0  0  0  0  0  0  0  0  0  0  0
   16.1878   12.9359    7.0062 H   0  0  0  0  0  0  0  0  0  0  0  0
   10.2439   10.2196    9.5277 Cl  0  0  0  0  0  0  0  0  0  0  0  0
   12.4420   14.9046   11.4446 O   0  0  0  0  0  0  0  0  0  0  0  0
    9.2722   10.6929    6.0269 C   0  0  0  0  0  0  0  0  0  0  0  0
    8.8846   10.2706    6.9507 H   0  0  0  0  0  0  0  0  0  0  0  0
    8.9057   10.1112    5.1851 H   0  0  0  0  0  0  0  0  0  0  0  0
    8.8932   11.7076    5.9258 H   0  0  0  0  0  0  0  0  0  0  0  0
   14.5727   14.7012    9.4057 C   0  0  0  0  0  0  0  0  0  0  0  0
   14.5934   15.6236    9.9633 H   0  0  0  0  0  0  0  0  0  0  0  0
   15.5367   14.3813    8.4564 C   0  0  0  0  0  0  0  0  0  0  0  0
   16.3477   15.0651    8.2571 H   0  0  0  0  0  0  0  0  0  0  0  0
   14.1300    8.0025    8.7092 C   0  0  0  0  0  0  0  0  0  0  0  0
   14.8478    8.7998    8.4809 H   0  0  0  0  0  0  0  0  0  0  0  0
   10.8467    8.1880    5.9296 C   0  0  0  0  0  0  0  0  0  0  0  0
   10.0014    8.2254    5.2623 H   0  0  0  0  0  0  0  0  0  0  0  0
   13.0223    8.0367    7.6773 C   0  0  0  0  0  0  0  0  0  0  0  0
   12.4950    9.2732    7.2763 C   0  0  0  0  0  0  0  0  0  0  0  0
   11.3802    9.3654    6.4319 C   0  0  0  0  0  0  0  0  0  0  0  0
   13.5288    8.2867   10.0921 C   0  0  0  0  0  0  0  0  0  0  0  0
   14.3081    8.2793   10.8515 H   0  0  0  0  0  0  0  0  0  0  0  0
   12.7877    7.5306   10.3397 H   0  0  0  0  0  0  0  0  0  0  0  0
   13.0280    9.2682   10.1126 H   0  0  0  0  0  0  0  0  0  0  0  0
   13.5474   13.7950    9.6415 C   0  0  0  0  0  0  0  0  0  0  0  0
   12.4393    6.8877    7.1675 C   0  0  0  0  0  0  0  0  0  0  0  0
   12.8119    5.9198    7.4597 H   0  0  0  0  0  0  0  0  0  0  0  0
   11.3762    6.9627    6.2855 C   0  0  0  0  0  0  0  0  0  0  0  0
   10.9450    6.0556    5.8895 H   0  0  0  0  0  0  0  0  0  0  0  0
   10.7994   10.7180    6.0755 C   0  0  0  0  0  0  0  0  0  0  0  0
   11.0784   11.4487    6.8672 H   0  0  0  0  0  0  0  0  0  0  0  0
   12.4498   13.9531   10.6705 C   0  0  0  0  0  0  0  0  0  0  0  0
   11.3788   11.2047    4.7439 C   0  0  0  0  0  0  0  0  0  0  0  0
   10.9710   12.1806    4.4901 H   0  0  0  0  0  0  0  0  0  0  0  0
   11.1246   10.5069    3.9482 H   0  0  0  0  0  0  0  0  0  0  0  0
   12.4630   11.2863    4.7935 H   0  0  0  0  0  0  0  0  0  0  0  0
   13.0134   10.4653    7.8059 N   0  0  0  0  0  0  0  0  0  0  0  0
   10.6012   12.8639   11.6954 C   0  0  0  0  0  0  0  0  0  0  0  0
    9.7572   12.2572   11.3559 H   0  0  0  0  0  0  0  0  0  0  0  0
   10.2517   13.8735   11.9433 H   0  0  0  0  0  0  0  0  0  0  0  0
   14.9035    6.6855    8.7332 C   0  0  0  0  0  0  0  0  0  0  0  0
   15.7686    6.7833    9.3857 H   0  0  0  0  0  0  0  0  0  0  0  0
   15.2535    6.4216    7.7374 H   0  0  0  0  0  0  0  0  0  0  0  0
   14.2868    5.8774    9.1171 H   0  0  0  0  0  0  0  0  0  0  0  0
   11.2442   12.2297   12.9385 C   0  0  0  0  0  0  0  0  0  0  0  0
   12.0228   12.9023   13.3061 H   0  0  0  0  0  0  0  0  0  0  0  0
   10.4830   12.1311   13.7146 H   0  0  0  0  0  0  0  0  0  0  0  0
   11.8477   10.8593   12.6306 C   0  0  0  0  0  0  0  0  0  0  0  0
   12.6258   10.9723   11.8485 H   0  0  0  0  0  0  0  0  0  0  0  0
   11.0651   10.2027   12.2403 H   0  0  0  0  0  0  0  0  0  0  0  0
   12.4790   10.2263   13.8639 C   0  0  0  0  0  0  0  0  0  0  0  0
   12.8980    9.2517   13.6231 H   0  0  0  0  0  0  0  0  0  0  0  0
   11.7332   10.0945   14.6448 H   0  0  0  0  0  0  0  0  0  0  0  0
   13.2741   10.8578   14.2559 H   0  0  0  0  0  0  0  0  0  0  0  0
  1 12  1  6  0  0  0
  1  3  1  0  0  0  0
  2  1  1  0  0  0  0
  2 33  1  0  0  0  0
  3 40  1  0  0  0  0
  3 46  1  0  0  0  0
  4 45  1  0  0  0  0
  4  5  2  0  0  0  0
  5  2  1  0  0  0  0
  6  8  1  0  0  0  0
  6  4  1  0  0  0  0
  7  6  1  0  0  0  0
  9  6  1  0  0  0  0
 10  5  1  0  0  0  0
 10 20  2  0  0  0  0
 11 10  1  0  0  0  0
 14 38  1  0  0  0  0
 14 15  1  0  0  0  0
 16 14  1  0  0  0  0
 17 14  1  0  0  0  0
 18 33  2  0  0  0  0
 18 19  1  0  0  0  0
 20 18  1  0  0  0  0
 21 20  1  0  0  0  0
 22 49  1  0  0  0  0
 22 29  1  0  0  0  0
 23 22  1  0  0  0  0
 24 36  2  0  0  0  0
 24 28  1  0  0  0  0
 25 24  1  0  0  0  0
 26 22  1  0  0  0  0
 27 26  1  0  0  0  0
 27 45  1  0  0  0  0
 28 27  2  0  0  0  0
 29 32  1  0  0  0  0
 29 31  1  0  0  0  0
 29 30  1  0  0  0  0
 33 40  1  0  0  0  0
 34 35  1  0  0  0  0
 34 26  2  0  0  0  0
 36 34  1  0  0  0  0
 37 36  1  0  0  0  0
 38 28  1  0  0  0  0
 38 39  1  0  0  0  0
 40 13  2  0  0  0  0
 41 44  1  0  0  0  0
 41 38  1  0  0  0  0
 42 41  1  0  0  0  0
 43 41  1  0  0  0  0
 45  1  1  0  0  0  0
 46 48  1  0  0  0  0
 46 53  1  0  0  0  0
 47 46  1  0  0  0  0
 49 52  1  0  0  0  0
 49 50  1  0  0  0  0
 51 49  1  0  0  0  0
 53 54  1  0  0  0  0
 53 55  1  0  0  0  0
 56 53  1  0  0  0  0
 56 59  1  0  0  0  0
 57 56  1  0  0  0  0
 58 56  1  0  0  0  0
 59 62  1  0  0  0  0
 59 61  1  0  0  0  0
 60 59  1  0  0  0  0
M  END
$$$$
