CSD_code = RAMJOE | q = 1 | S = 0 | Stoichiometry = C16H14ClN4O2Ru(1+) | MND = 6
 OpenBabel04212202093D

 38 42  0  0  1  0  0  0  0  0999 V2000
    0.8290    1.1590    9.9618 Ru  0  0  0  0  0  0  0  0  0  0  0  0
   -0.1159   -0.8908   10.5752 Cl  0  0  0  0  0  0  0  0  0  0  0  0
    1.6358    1.4838   12.6695 O   0  0  0  0  0  1  0  0  0  0  0  0
    0.2458    0.9327    8.1438 O   0  0  0  0  0  0  0  0  0  0  0  0
    1.3467    1.3870   11.5543 N   0  0  0  0  0  2  0  0  0  0  0  0
    2.6506    0.4606    9.2989 N   0  0  0  0  0  0  0  0  0  0  0  0
    1.5129    2.8065    9.1747 N   0  0  0  0  0  0  0  0  0  0  0  0
   -0.8442    2.3381   10.1969 N   0  0  0  0  0  0  0  0  0  0  0  0
   -0.6275    0.0240    7.5709 C   0  0  0  0  0  0  0  0  0  0  0  0
    3.3456    1.4261    8.6512 C   0  0  0  0  0  0  0  0  0  0  0  0
    4.5846    1.1394    8.0867 C   0  0  0  0  0  0  0  0  0  0  0  0
    5.0957   -0.1477    8.1768 C   0  0  0  0  0  0  0  0  0  0  0  0
    4.3574   -1.1216    8.8290 C   0  0  0  0  0  0  0  0  0  0  0  0
    3.1333   -0.7688    9.3822 C   0  0  0  0  0  0  0  0  0  0  0  0
    2.6904    2.7447    8.5536 C   0  0  0  0  0  0  0  0  0  0  0  0
    3.1420    3.8604    7.8490 C   0  0  0  0  0  0  0  0  0  0  0  0
    2.3263    4.9829    7.7962 C   0  0  0  0  0  0  0  0  0  0  0  0
    1.0714    4.9778    8.3913 C   0  0  0  0  0  0  0  0  0  0  0  0
    0.6700    3.8352    9.0821 C   0  0  0  0  0  0  0  0  0  0  0  0
   -0.6496    3.5801    9.6922 C   0  0  1  0  0  3  0  0  0  0  0  0
   -1.6756    4.5195    9.7272 C   0  0  0  0  0  0  0  0  0  0  0  0
   -2.9053    4.1693   10.2669 C   0  0  0  0  0  0  0  0  0  0  0  0
   -3.0849    2.8866   10.7585 C   0  0  0  0  0  0  0  0  0  0  0  0
   -2.0180    1.9991   10.7064 C   0  0  0  0  0  0  0  0  0  0  0  0
   -1.6728    0.3095    7.7671 H   0  0  0  0  0  0  0  0  0  0  0  0
   -0.4654    0.0218    6.4850 H   0  0  0  0  0  0  0  0  0  0  0  0
   -0.4725   -0.9921    7.9562 H   0  0  0  0  0  0  0  0  0  0  0  0
    5.1431    1.9090    7.5793 H   0  0  0  0  0  0  0  0  0  0  0  0
    6.0533   -0.3822    7.7383 H   0  0  0  0  0  0  0  0  0  0  0  0
    4.7141   -2.1352    8.9123 H   0  0  0  0  0  0  0  0  0  0  0  0
    2.5141   -1.4902    9.9056 H   0  0  0  0  0  0  0  0  0  0  0  0
    4.0908    3.8554    7.3390 H   0  0  0  0  0  0  0  0  0  0  0  0
    2.6577    5.8580    7.2589 H   0  0  0  0  0  0  0  0  0  0  0  0
    0.4246    5.8343    8.2994 H   0  0  0  0  0  0  0  0  0  0  0  0
   -1.5188    5.5114    9.3363 H   0  0  0  0  0  0  0  0  0  0  0  0
   -3.7085    4.8890   10.2965 H   0  0  0  0  0  0  0  0  0  0  0  0
   -4.0272    2.5722   11.1766 H   0  0  0  0  0  0  0  0  0  0  0  0
   -2.1006    0.9828   11.0784 H   0  0  0  0  0  0  0  0  0  0  0  0
  1  8  1  0  0  0  0
  1  2  1  0  0  0  0
  1  5  1  0  0  0  0
  4  1  1  0  0  0  0
  5  3  1  0  0  0  0
  6 14  1  0  0  0  0
  6  1  1  0  0  0  0
  7  1  1  0  0  0  0
  8 24  1  0  0  0  0
  9 25  1  0  0  0  0
  9 27  1  0  0  0  0
  9  4  1  0  0  0  0
 10  6  1  0  0  0  0
 11 12  2  0  0  0  0
 11 10  1  0  0  0  0
 12 13  1  0  0  0  0
 13 30  1  0  0  0  0
 13 14  2  0  0  0  0
 14 31  1  0  0  0  0
 15 10  2  0  0  0  0
 15  7  1  0  0  0  0
 16 15  1  0  0  0  0
 17 16  2  0  0  0  0
 17 18  1  0  0  0  0
 18 19  2  0  0  0  0
 19  7  1  0  0  0  0
 20 19  1  6  0  0  0
 20 21  1  0  0  0  0
 20  8  1  0  0  0  0
 21 22  2  0  0  0  0
 22 36  1  0  0  0  0
 22 23  1  0  0  0  0
 23 37  1  0  0  0  0
 24 23  2  0  0  0  0
 24 38  1  0  0  0  0
 26  9  1  0  0  0  0
 28 11  1  0  0  0  0
 29 12  1  0  0  0  0
 32 16  1  0  0  0  0
 33 17  1  0  0  0  0
 34 18  1  0  0  0  0
 35 21  1  0  0  0  0
M  END
$$$$
