CSD_code = RAMJEU | q = 1 | S = 0 | Stoichiometry = C15H11Cl2N4ORu(1+) | MND = 6
 OpenBabel04212202093D

 34 38  0  0  1  0  0  0  0  0999 V2000
    0.5874    3.7181    5.5655 Ru  0  0  0  0  0  0  0  0  0  0  0  0
    1.5401    2.4345    7.3228 Cl  0  0  0  0  0  0  0  0  0  0  0  0
   -0.3042    4.4517    3.4888 Cl  0  0  0  0  0  0  0  0  0  0  0  0
    0.3183    6.1418    6.9849 O   0  0  0  0  0  1  0  0  0  0  0  0
    0.4262    5.1611    6.4081 N   0  0  0  0  0  2  0  0  0  0  0  0
   -1.2214    2.8606    5.9786 N   0  0  0  0  0  0  0  0  0  0  0  0
    0.7768    2.0455    4.5985 N   0  0  0  0  0  0  0  0  0  0  0  0
    2.4609    3.9666    4.7873 N   0  0  0  0  0  0  0  0  0  0  0  0
   -1.3770    1.6423    5.4165 C   0  0  0  0  0  0  0  0  0  0  0  0
   -2.5537    0.9184    5.5846 C   0  0  0  0  0  0  0  0  0  0  0  0
   -3.5824    1.4564    6.3408 C   0  0  0  0  0  0  0  0  0  0  0  0
   -3.4055    2.7068    6.9113 C   0  0  0  0  0  0  0  0  0  0  0  0
   -2.2076    3.3742    6.7043 C   0  0  0  0  0  0  0  0  0  0  0  0
   -0.2280    1.1669    4.6314 C   0  0  0  0  0  0  0  0  0  0  0  0
   -0.1142   -0.0508    3.9636 C   0  0  0  0  0  0  0  0  0  0  0  0
    1.0582   -0.3198    3.2723 C   0  0  0  0  0  0  0  0  0  0  0  0
    2.0870    0.6108    3.2507 C   0  0  0  0  0  0  0  0  0  0  0  0
    1.9130    1.8106    3.9378 C   0  0  0  0  0  0  0  0  0  0  0  0
    2.8728    2.9201    4.0393 C   0  0  1  0  0  3  0  0  0  0  0  0
    4.1191    2.9260    3.4198 C   0  0  0  0  0  0  0  0  0  0  0  0
    4.9510    4.0232    3.5734 C   0  0  0  0  0  0  0  0  0  0  0  0
    4.5135    5.0872    4.3461 C   0  0  0  0  0  0  0  0  0  0  0  0
    3.2601    5.0166    4.9352 C   0  0  0  0  0  0  0  0  0  0  0  0
   -2.6635   -0.0514    5.1282 H   0  0  0  0  0  0  0  0  0  0  0  0
   -4.5019    0.9099    6.4800 H   0  0  0  0  0  0  0  0  0  0  0  0
   -4.1777    3.1650    7.5076 H   0  0  0  0  0  0  0  0  0  0  0  0
   -2.0455    4.3535    7.1397 H   0  0  0  0  0  0  0  0  0  0  0  0
   -0.9130   -0.7730    3.9807 H   0  0  0  0  0  0  0  0  0  0  0  0
    1.1705   -1.2568    2.7494 H   0  0  0  0  0  0  0  0  0  0  0  0
    2.9973    0.4022    2.7144 H   0  0  0  0  0  0  0  0  0  0  0  0
    4.4326    2.0846    2.8243 H   0  0  0  0  0  0  0  0  0  0  0  0
    5.9194    4.0455    3.0988 H   0  0  0  0  0  0  0  0  0  0  0  0
    5.1262    5.9615    4.4940 H   0  0  0  0  0  0  0  0  0  0  0  0
    2.8955    5.8361    5.5438 H   0  0  0  0  0  0  0  0  0  0  0  0
  1  6  1  0  0  0  0
  1  5  1  0  0  0  0
  1  2  1  0  0  0  0
  3  1  1  0  0  0  0
  5  4  1  0  0  0  0
  6 13  1  0  0  0  0
  7 14  1  0  0  0  0
  7  1  1  0  0  0  0
  8 23  1  0  0  0  0
  8  1  1  0  0  0  0
  9 10  1  0  0  0  0
  9  6  1  0  0  0  0
 10 11  2  0  0  0  0
 11 25  1  0  0  0  0
 11 12  1  0  0  0  0
 12 26  1  0  0  0  0
 13 12  2  0  0  0  0
 13 27  1  0  0  0  0
 14  9  2  0  0  0  0
 15 28  1  0  0  0  0
 15 14  1  0  0  0  0
 16 15  2  0  0  0  0
 17 16  1  0  0  0  0
 17 18  2  0  0  0  0
 18 19  1  0  0  0  0
 18  7  1  0  0  0  0
 19 20  1  6  0  0  0
 19  8  1  0  0  0  0
 20 21  2  0  0  0  0
 21 22  1  0  0  0  0
 22 33  1  0  0  0  0
 22 23  2  0  0  0  0
 23 34  1  0  0  0  0
 24 10  1  0  0  0  0
 29 16  1  0  0  0  0
 30 17  1  0  0  0  0
 31 20  1  0  0  0  0
 32 21  1  0  0  0  0
M  END
$$$$
