CSD_code = RAMRED | q = 0 | S = 0 | Stoichiometry = C27H32AsCl2PPd | MND = 4
 OpenBabel04212202093D

 64 66  0  0  0  0  0  0  0  0999 V2000
    9.8727    8.9873    4.2812 Pd  0  0  0  0  0  0  0  0  0  0  0  0
    9.0699    6.7776    4.3492 As  0  0  0  0  0  0  0  0  0  0  0  0
   10.8594   11.0082    4.1394 P   0  0  0  0  0  4  0  0  0  0  0  0
    8.9916    9.6918    6.2710 Cl  0  0  0  0  0  0  0  0  0  0  0  0
   10.8357    8.2055    2.3608 Cl  0  0  0  0  0  0  0  0  0  0  0  0
   10.2894    5.2559    4.1961 C   0  0  0  0  0  0  0  0  0  0  0  0
    9.7261    4.3196    4.1494 H   0  0  0  0  0  0  0  0  0  0  0  0
   10.9508    5.2239    5.0662 H   0  0  0  0  0  0  0  0  0  0  0  0
   10.8956    5.3784    3.2962 H   0  0  0  0  0  0  0  0  0  0  0  0
   11.8026   11.3833    2.6009 C   0  0  0  0  0  0  0  0  0  0  0  0
   12.5452   10.5860    2.5007 H   0  0  0  0  0  0  0  0  0  0  0  0
   11.1031   11.2616    1.7681 H   0  0  0  0  0  0  0  0  0  0  0  0
   12.4708   12.7501    2.5452 C   0  0  0  0  0  0  0  0  0  0  0  0
   13.0685   12.8270    1.6388 H   0  0  0  0  0  0  0  0  0  0  0  0
   13.1308   12.9051    3.3959 H   0  0  0  0  0  0  0  0  0  0  0  0
   11.7349   13.5504    2.5302 H   0  0  0  0  0  0  0  0  0  0  0  0
    9.8707   12.5140    4.4867 C   0  0  0  0  0  0  0  0  0  0  0  0
    9.3820   12.3415    5.4492 H   0  0  0  0  0  0  0  0  0  0  0  0
   10.5246   13.3851    4.5761 H   0  0  0  0  0  0  0  0  0  0  0  0
    8.8239   12.6894    3.3917 C   0  0  0  0  0  0  0  0  0  0  0  0
    8.0786   13.4283    3.6789 H   0  0  0  0  0  0  0  0  0  0  0  0
    8.3215   11.7336    3.2188 H   0  0  0  0  0  0  0  0  0  0  0  0
    9.2800   13.0065    2.4556 H   0  0  0  0  0  0  0  0  0  0  0  0
   12.1343   10.9726    5.4708 C   0  0  0  0  0  0  0  0  0  0  0  0
   12.8879   11.7483    5.3099 H   0  0  0  0  0  0  0  0  0  0  0  0
   11.6178   11.1714    6.4145 H   0  0  0  0  0  0  0  0  0  0  0  0
   12.7711    9.5826    5.5059 C   0  0  0  0  0  0  0  0  0  0  0  0
   13.5173    9.5154    6.2958 H   0  0  0  0  0  0  0  0  0  0  0  0
   13.2494    9.3499    4.5530 H   0  0  0  0  0  0  0  0  0  0  0  0
   11.9923    8.8222    5.6984 H   0  0  0  0  0  0  0  0  0  0  0  0
    8.0242    6.6836    2.7172 C   0  0  0  0  0  0  0  0  0  0  0  0
    8.1692    5.6676    1.8064 C   0  0  0  0  0  0  0  0  0  0  0  0
    8.7395    4.7836    2.0654 H   0  0  0  0  0  0  0  0  0  0  0  0
    7.6107    5.7588    0.5220 C   0  0  0  0  0  0  0  0  0  0  0  0
    7.7403    4.9376   -0.1685 H   0  0  0  0  0  0  0  0  0  0  0  0
    6.9513    6.8903    0.1353 C   0  0  0  0  0  0  0  0  0  0  0  0
    6.5616    6.9863   -0.8683 H   0  0  0  0  0  0  0  0  0  0  0  0
    6.7706    7.9598    1.0376 C   0  0  0  0  0  0  0  0  0  0  0  0
    6.0940    9.1408    0.6659 C   0  0  0  0  0  0  0  0  0  0  0  0
    5.7266    9.2272   -0.3470 H   0  0  0  0  0  0  0  0  0  0  0  0
    5.8978   10.1502    1.5659 C   0  0  0  0  0  0  0  0  0  0  0  0
    5.3823   11.0530    1.2720 H   0  0  0  0  0  0  0  0  0  0  0  0
    6.3342   10.0067    2.8921 C   0  0  0  0  0  0  0  0  0  0  0  0
    6.1080   10.7784    3.6141 H   0  0  0  0  0  0  0  0  0  0  0  0
    7.0146    8.8826    3.2829 C   0  0  0  0  0  0  0  0  0  0  0  0
    7.2487    8.7430    4.3427 H   0  0  0  0  0  0  0  0  0  0  0  0
    7.2802    7.8426    2.3580 C   0  0  0  0  0  0  0  0  0  0  0  0
    7.8551    6.0921    5.7147 C   0  0  0  0  0  0  0  0  0  0  0  0
    6.5946    5.6635    5.3791 C   0  0  0  0  0  0  0  0  0  0  0  0
    6.2715    5.7039    4.3421 H   0  0  0  0  0  0  0  0  0  0  0  0
    5.7172    5.1694    6.3557 C   0  0  0  0  0  0  0  0  0  0  0  0
    4.7327    4.8351    6.0612 H   0  0  0  0  0  0  0  0  0  0  0  0
    6.1054    5.1121    7.6647 C   0  0  0  0  0  0  0  0  0  0  0  0
    5.4345    4.7299    8.4210 H   0  0  0  0  0  0  0  0  0  0  0  0
    7.3847    5.5584    8.0571 C   0  0  0  0  0  0  0  0  0  0  0  0
    7.8094    5.5263    9.4019 C   0  0  0  0  0  0  0  0  0  0  0  0
    7.1312    5.1390   10.1492 H   0  0  0  0  0  0  0  0  0  0  0  0
    9.0477    5.9824    9.7558 C   0  0  0  0  0  0  0  0  0  0  0  0
    9.3629    5.9594   10.7887 H   0  0  0  0  0  0  0  0  0  0  0  0
    9.9192    6.4963    8.7827 C   0  0  0  0  0  0  0  0  0  0  0  0
   10.8875    6.8690    9.0824 H   0  0  0  0  0  0  0  0  0  0  0  0
    9.5411    6.5310    7.4704 C   0  0  0  0  0  0  0  0  0  0  0  0
   10.2074    6.9525    6.7161 H   0  0  0  0  0  0  0  0  0  0  0  0
    8.2717    6.0633    7.0696 C   0  0  0  0  0  0  0  0  0  0  0  0
  1  4  1  0  0  0  0
  2 48  1  0  0  0  0
  3  1  1  0  0  0  0
  3 17  1  0  0  0  0
  3 24  1  0  0  0  0
  5  1  1  0  0  0  0
  6  2  1  0  0  0  0
  6  8  1  0  0  0  0
  7  6  1  0  0  0  0
  9  6  1  0  0  0  0
 10  3  1  0  0  0  0
 11 10  1  0  0  0  0
 12 10  1  0  0  0  0
 13 10  1  0  0  0  0
 13 15  1  0  0  0  0
 14 13  1  0  0  0  0
 16 13  1  0  0  0  0
 17 19  1  0  0  0  0
 17 18  1  0  0  0  0
 20 21  1  0  0  0  0
 20 17  1  0  0  0  0
 22 20  1  0  0  0  0
 23 20  1  0  0  0  0
 24 27  1  0  0  0  0
 24 26  1  0  0  0  0
 25 24  1  0  0  0  0
 27 30  1  0  0  0  0
 27 28  1  0  0  0  0
 29 27  1  0  0  0  0
 31  2  1  0  0  0  0
 32 33  1  0  0  0  0
 32 31  2  0  0  0  0
 34 32  1  0  0  0  0
 35 34  1  0  0  0  0
 36 34  2  0  0  0  0
 36 38  1  0  0  0  0
 37 36  1  0  0  0  0
 38 47  1  0  0  0  0
 39 38  2  0  0  0  0
 39 41  1  0  0  0  0
 40 39  1  0  0  0  0
 41 43  2  0  0  0  0
 42 41  1  0  0  0  0
 43 45  1  0  0  0  0
 43 44  1  0  0  0  0
 45 46  1  0  0  0  0
 47 31  1  0  0  0  0
 47 45  2  0  0  0  0
 48 64  1  0  0  0  0
 49 48  2  0  0  0  0
 49 51  1  0  0  0  0
 50 49  1  0  0  0  0
 51 53  2  0  0  0  0
 52 51  1  0  0  0  0
 53 55  1  0  0  0  0
 53 54  1  0  0  0  0
 55 56  1  0  0  0  0
 56 58  2  0  0  0  0
 56 57  1  0  0  0  0
 58 59  1  0  0  0  0
 60 61  1  0  0  0  0
 60 58  1  0  0  0  0
 62 60  2  0  0  0  0
 63 62  1  0  0  0  0
 64 62  1  0  0  0  0
 64 55  2  0  0  0  0
M  END
$$$$
