CSD_code = RAMVAC | q = 0 | S = 0 | Stoichiometry = C22H34Cl2HfSi | MND = 12
 OpenBabel04212202093D

 60 62  0  0  1  0  0  0  0  0999 V2000
   -1.2608   10.0537    4.2283 Hf  0  0  0  0  0  0  0  0  0  0  0  0
   -3.4431    9.7776    3.4944 Cl  0  0  0  0  0  0  0  0  0  0  0  0
   -0.4077    9.0973    2.2963 Cl  0  0  0  0  0  0  0  0  0  0  0  0
    0.0924   11.3025    6.9240 Si  0  0  0  0  0  0  0  0  0  0  0  0
   -0.5143   12.0659    5.2908 C   0  0  2  0  0  3  0  0  0  0  0  0
   -1.8603   12.4168    4.9629 C   0  0  0  0  0  0  0  0  0  0  0  0
   -1.9859   12.5025    3.5579 C   0  0  0  0  0  0  0  0  0  0  0  0
   -0.7406   12.1630    2.9783 C   0  0  2  0  0  3  0  0  0  0  0  0
    0.1695   11.8654    4.0336 C   0  0  2  0  0  0  0  0  0  0  0  0
   -2.9429   12.8807    5.8928 C   0  0  0  0  0  0  0  0  0  0  0  0
   -3.1955   13.0011    2.8275 C   0  0  0  0  0  0  0  0  0  0  0  0
   -0.4028   12.2665    1.5196 C   0  0  0  0  0  0  0  0  0  0  0  0
    1.6366   11.6307    3.7960 C   0  0  0  0  0  0  0  0  0  0  0  0
   -0.3897    9.5397    6.3962 C   0  0  1  0  0  3  0  0  0  0  0  0
   -1.7634    9.1063    6.2839 C   0  0  2  0  0  0  0  0  0  0  0  0
   -1.7986    7.9388    5.4679 C   0  0  1  0  0  3  0  0  0  0  0  0
   -0.4786    7.6669    5.0371 C   0  0  0  0  0  0  0  0  0  0  0  0
    0.3768    8.6548    5.5762 C   0  0  0  0  0  0  0  0  0  0  0  0
   -2.9634    9.5888    7.0524 C   0  0  0  0  0  0  0  0  0  0  0  0
   -2.9909    7.0539    5.2521 C   0  0  0  0  0  0  0  0  0  0  0  0
   -0.0298    6.4690    4.2566 C   0  0  0  0  0  0  0  0  0  0  0  0
    1.8709    8.5699    5.4613 C   0  0  0  0  0  0  0  0  0  0  0  0
   -0.7151   11.8160    8.5919 C   0  0  0  0  0  0  0  0  0  0  0  0
   -0.5124   10.7434    9.6588 C   0  0  0  0  0  0  0  0  0  0  0  0
    1.9285   11.7329    7.2990 C   0  0  0  0  0  0  0  0  0  0  0  0
    2.1883   13.2295    7.1486 C   0  0  0  0  0  0  0  0  0  0  0  0
   -2.5767   12.9665    6.9100 H   0  0  0  0  0  0  0  0  0  0  0  0
   -3.2924   13.8652    5.5792 H   0  0  0  0  0  0  0  0  0  0  0  0
   -3.8033   12.2105    5.8737 H   0  0  0  0  0  0  0  0  0  0  0  0
   -3.2270   14.0926    2.8510 H   0  0  0  0  0  0  0  0  0  0  0  0
   -3.1780   12.6854    1.7872 H   0  0  0  0  0  0  0  0  0  0  0  0
   -4.1085   12.6243    3.2845 H   0  0  0  0  0  0  0  0  0  0  0  0
   -0.2634   13.3129    1.2401 H   0  0  0  0  0  0  0  0  0  0  0  0
    0.5105   11.7247    1.2871 H   0  0  0  0  0  0  0  0  0  0  0  0
   -1.2049   11.8585    0.9048 H   0  0  0  0  0  0  0  0  0  0  0  0
    2.0997   12.5359    3.3970 H   0  0  0  0  0  0  0  0  0  0  0  0
    2.1533   11.3658    4.7103 H   0  0  0  0  0  0  0  0  0  0  0  0
    1.7860   10.8348    3.0626 H   0  0  0  0  0  0  0  0  0  0  0  0
   -2.7564   10.5094    7.5841 H   0  0  0  0  0  0  0  0  0  0  0  0
   -3.8109    9.7503    6.3820 H   0  0  0  0  0  0  0  0  0  0  0  0
   -3.2645    8.8361    7.7845 H   0  0  0  0  0  0  0  0  0  0  0  0
   -2.9953    6.2448    5.9860 H   0  0  0  0  0  0  0  0  0  0  0  0
   -2.9690    6.6068    4.2590 H   0  0  0  0  0  0  0  0  0  0  0  0
   -3.9194    7.6114    5.3523 H   0  0  0  0  0  0  0  0  0  0  0  0
    0.7857    6.7272    3.5839 H   0  0  0  0  0  0  0  0  0  0  0  0
   -0.8459    6.0634    3.6632 H   0  0  0  0  0  0  0  0  0  0  0  0
    0.3192    5.6862    4.9335 H   0  0  0  0  0  0  0  0  0  0  0  0
    2.1978    7.5629    5.7231 H   0  0  0  0  0  0  0  0  0  0  0  0
    2.2072    8.7654    4.4422 H   0  0  0  0  0  0  0  0  0  0  0  0
    2.3563    9.2635    6.1392 H   0  0  0  0  0  0  0  0  0  0  0  0
   -1.7778   12.0362    8.5269 H   0  0  0  0  0  0  0  0  0  0  0  0
   -0.2409   12.7379    8.9270 H   0  0  0  0  0  0  0  0  0  0  0  0
   -0.9420   11.0607   10.6073 H   0  0  0  0  0  0  0  0  0  0  0  0
    0.5451   10.5494    9.8151 H   0  0  0  0  0  0  0  0  0  0  0  0
   -0.9846    9.8108    9.3625 H   0  0  0  0  0  0  0  0  0  0  0  0
    2.6491   11.1981    6.6852 H   0  0  0  0  0  0  0  0  0  0  0  0
    2.1407   11.4418    8.3273 H   0  0  0  0  0  0  0  0  0  0  0  0
    1.9950   13.5538    6.1298 H   0  0  0  0  0  0  0  0  0  0  0  0
    3.2219   13.4654    7.3950 H   0  0  0  0  0  0  0  0  0  0  0  0
    1.5442   13.8014    7.8108 H   0  0  0  0  0  0  0  0  0  0  0  0
  1 15  1  0  0  0  0
  2  1  1  0  0  0  0
  3  1  1  0  0  0  0
  4 25  1  0  0  0  0
  4 23  1  0  0  0  0
  5  6  1  6  0  0  0
  5  4  1  0  0  0  0
  6 10  1  0  0  0  0
  7  6  2  0  0  0  0
  8 12  1  1  0  0  0
  8  7  1  0  0  0  0
  8  9  1  0  0  0  0
  9 13  1  6  0  0  0
  9  1  1  0  0  0  0
  9  5  1  0  0  0  0
 10 27  1  0  0  0  0
 11 30  1  0  0  0  0
 11 32  1  0  0  0  0
 11  7  1  0  0  0  0
 13 37  1  0  0  0  0
 14 18  1  6  0  0  0
 14  4  1  0  0  0  0
 15 14  1  0  0  0  0
 15 19  1  1  0  0  0
 16 20  1  1  0  0  0
 16 15  1  0  0  0  0
 17 16  1  0  0  0  0
 17 18  2  0  0  0  0
 19 39  1  0  0  0  0
 19 41  1  0  0  0  0
 20 44  1  0  0  0  0
 20 42  1  0  0  0  0
 21 47  1  0  0  0  0
 21 17  1  0  0  0  0
 22 18  1  0  0  0  0
 22 48  1  0  0  0  0
 22 50  1  0  0  0  0
 23 52  1  0  0  0  0
 23 24  1  0  0  0  0
 24 54  1  0  0  0  0
 24 53  1  0  0  0  0
 25 57  1  0  0  0  0
 26 25  1  0  0  0  0
 26 59  1  0  0  0  0
 26 60  1  0  0  0  0
 28 10  1  0  0  0  0
 29 10  1  0  0  0  0
 31 11  1  0  0  0  0
 33 12  1  0  0  0  0
 34 12  1  0  0  0  0
 35 12  1  0  0  0  0
 36 13  1  0  0  0  0
 38 13  1  0  0  0  0
 40 19  1  0  0  0  0
 43 20  1  0  0  0  0
 45 21  1  0  0  0  0
 46 21  1  0  0  0  0
 49 22  1  0  0  0  0
 51 23  1  0  0  0  0
 55 24  1  0  0  0  0
 56 25  1  0  0  0  0
 58 26  1  0  0  0  0
M  END
$$$$
