CSD_code = RAMVAE | q = 0 | S = 0 | Stoichiometry = C29H23Cl2O2PTi | MND = 9
 OpenBabel04212202093D

 58 63  0  0  1  0  0  0  0  0999 V2000
    6.9403    3.9027    3.4566 Ti  0  0  0  0  0  0  0  0  0  0  0  0
    7.5097    1.5171    1.6473 P   0  0  0  0  0  4  0  0  0  0  0  0
    8.2419    5.7342    3.2347 Cl  0  0  0  0  0  0  0  0  0  0  0  0
    5.8746    4.6508    1.6557 Cl  0  0  0  0  0  0  0  0  0  0  0  0
    6.3500    1.9610    2.4885 O   0  0  0  0  0  0  0  0  0  0  0  0
    8.4014    3.0039    3.6501 O   0  0  0  0  0  0  0  0  0  0  0  0
    4.8032    3.9354    4.4536 C   0  0  0  0  0  0  0  0  0  0  0  0
    3.8691    3.8974    3.9081 H   0  0  0  0  0  0  0  0  0  0  0  0
    5.5030    5.1025    4.8128 C   0  0  1  0  0  0  0  0  0  0  0  0
    5.2015    6.1227    4.6011 H   0  0  0  0  0  0  0  0  0  0  0  0
    6.6109    4.7156    5.6124 C   0  0  0  0  0  0  0  0  0  0  0  0
    7.2910    5.3877    6.1204 H   0  0  0  0  0  0  0  0  0  0  0  0
    6.5788    3.3121    5.7492 C   0  0  0  0  0  0  0  0  0  0  0  0
    7.2420    2.7233    6.3696 H   0  0  0  0  0  0  0  0  0  0  0  0
    5.4726    2.8304    5.0237 C   0  0  0  0  0  0  0  0  0  0  0  0
    5.1353    1.8029    4.9907 H   0  0  0  0  0  0  0  0  0  0  0  0
    7.0334    0.1442    0.5744 C   0  0  0  0  0  0  0  0  0  0  0  0
    5.7864   -0.4392    0.7405 C   0  0  0  0  0  0  0  0  0  0  0  0
    5.1224   -0.0390    1.4935 H   0  0  0  0  0  0  0  0  0  0  0  0
    5.4148   -1.5052   -0.0603 C   0  0  0  0  0  0  0  0  0  0  0  0
    4.4437   -1.9614    0.0618 H   0  0  0  0  0  0  0  0  0  0  0  0
    6.2913   -1.9851   -1.0200 C   0  0  0  0  0  0  0  0  0  0  0  0
    6.0022   -2.8171   -1.6449 H   0  0  0  0  0  0  0  0  0  0  0  0
    7.5377   -1.3997   -1.1864 C   0  0  0  0  0  0  0  0  0  0  0  0
    8.2147   -1.7757   -1.9391 H   0  0  0  0  0  0  0  0  0  0  0  0
    7.9119   -0.3329   -0.3904 C   0  0  0  0  0  0  0  0  0  0  0  0
    8.8758    0.1415   -0.5139 H   0  0  0  0  0  0  0  0  0  0  0  0
    8.1323    2.8347    0.5498 C   0  0  0  0  0  0  0  0  0  0  0  0
    7.3676    3.1087   -0.5807 C   0  0  0  0  0  0  0  0  0  0  0  0
    6.4968    2.5000   -0.7895 H   0  0  0  0  0  0  0  0  0  0  0  0
    7.7046    4.1673   -1.4023 C   0  0  0  0  0  0  0  0  0  0  0  0
    7.1023    4.3883   -2.2705 H   0  0  0  0  0  0  0  0  0  0  0  0
    8.8005    4.9582   -1.0938 C   0  0  0  0  0  0  0  0  0  0  0  0
    9.0493    5.8008   -1.7212 H   0  0  0  0  0  0  0  0  0  0  0  0
    9.5747    4.6751    0.0190 C   0  0  0  0  0  0  0  0  0  0  0  0
   10.4271    5.2923    0.2593 H   0  0  0  0  0  0  0  0  0  0  0  0
    9.2497    3.6086    0.8416 C   0  0  0  0  0  0  0  0  0  0  0  0
    9.8717    3.3835    1.7000 H   0  0  0  0  0  0  0  0  0  0  0  0
    8.8539    0.9370    2.7206 C   0  0  0  0  0  0  0  0  0  0  0  0
    9.0806    1.8852    3.7337 C   0  0  0  0  0  0  0  0  0  0  0  0
    9.9920    1.5978    4.7715 C   0  0  0  0  0  0  0  0  0  0  0  0
   10.6596    0.3786    4.7209 C   0  0  0  0  0  0  0  0  0  0  0  0
   11.3811    0.1518    5.4921 H   0  0  0  0  0  0  0  0  0  0  0  0
   10.4409   -0.5408    3.7062 C   0  0  0  0  0  0  0  0  0  0  0  0
   10.9861   -1.4722    3.7017 H   0  0  0  0  0  0  0  0  0  0  0  0
    9.5211   -0.2751    2.7054 C   0  0  0  0  0  0  0  0  0  0  0  0
    9.3252   -0.9932    1.9225 H   0  0  0  0  0  0  0  0  0  0  0  0
   10.1796    2.5506    5.8759 C   0  0  0  0  0  0  0  0  0  0  0  0
   10.3119    2.0846    7.1840 C   0  0  0  0  0  0  0  0  0  0  0  0
   10.2834    1.0218    7.3776 H   0  0  0  0  0  0  0  0  0  0  0  0
   10.4475    2.9710    8.2356 C   0  0  0  0  0  0  0  0  0  0  0  0
   10.5434    2.5953    9.2440 H   0  0  0  0  0  0  0  0  0  0  0  0
   10.4521    4.3362    7.9997 C   0  0  0  0  0  0  0  0  0  0  0  0
   10.5530    5.0269    8.8237 H   0  0  0  0  0  0  0  0  0  0  0  0
   10.3253    4.8085    6.7042 C   0  0  0  0  0  0  0  0  0  0  0  0
   10.3303    5.8702    6.5075 H   0  0  0  0  0  0  0  0  0  0  0  0
   10.1909    3.9265    5.6468 C   0  0  0  0  0  0  0  0  0  0  0  0
   10.1044    4.3178    4.6420 H   0  0  0  0  0  0  0  0  0  0  0  0
  1  6  1  0  0  0  0
  1  9  1  0  0  0  0
  2  5  1  0  0  0  0
  2 39  1  0  0  0  0
  3  1  1  0  0  0  0
  4  1  1  0  0  0  0
  5  1  1  0  0  0  0
  6 40  1  0  0  0  0
  7  9  1  0  0  0  0
  7 15  2  0  0  0  0
  8  7  1  0  0  0  0
  9 10  1  6  0  0  0
  9 11  1  0  0  0  0
 11 13  2  0  0  0  0
 11 12  1  0  0  0  0
 13 14  1  0  0  0  0
 15 13  1  0  0  0  0
 16 15  1  0  0  0  0
 17 18  1  0  0  0  0
 17  2  1  0  0  0  0
 18 19  1  0  0  0  0
 20 21  1  0  0  0  0
 20 18  2  0  0  0  0
 22 20  1  0  0  0  0
 23 22  1  0  0  0  0
 24 22  2  0  0  0  0
 24 26  1  0  0  0  0
 25 24  1  0  0  0  0
 26 17  2  0  0  0  0
 27 26  1  0  0  0  0
 28 37  1  0  0  0  0
 28  2  1  0  0  0  0
 29 28  2  0  0  0  0
 30 29  1  0  0  0  0
 31 33  2  0  0  0  0
 31 29  1  0  0  0  0
 32 31  1  0  0  0  0
 33 35  1  0  0  0  0
 34 33  1  0  0  0  0
 35 36  1  0  0  0  0
 35 37  2  0  0  0  0
 37 38  1  0  0  0  0
 39 40  1  0  0  0  0
 40 41  2  0  0  0  0
 41 48  1  0  0  0  0
 42 41  1  0  0  0  0
 42 43  1  0  0  0  0
 44 42  2  0  0  0  0
 45 44  1  0  0  0  0
 46 39  2  0  0  0  0
 46 44  1  0  0  0  0
 47 46  1  0  0  0  0
 48 49  1  0  0  0  0
 49 50  1  0  0  0  0
 49 51  2  0  0  0  0
 51 52  1  0  0  0  0
 53 51  1  0  0  0  0
 53 54  1  0  0  0  0
 55 53  2  0  0  0  0
 56 55  1  0  0  0  0
 57 48  2  0  0  0  0
 57 55  1  0  0  0  0
 58 57  1  0  0  0  0
M  END
$$$$
