CSD_code = RAMZOV | q = 0 | S = 0 | Stoichiometry = C10H19Cl2NPt | MND = 5
 OpenBabel04212202093D

 33 31  0  0  1  0  0  0  0  0999 V2000
    2.7477    2.4164    5.0450 Pt  0  0  0  0  0  0  0  0  0  0  0  0
    4.9933    2.4432    4.8540 Cl  0  0  0  0  0 15  0  0  0  0  0  0
    2.6464    1.8483    2.8763 Cl  0  0  0  0  0 15  0  0  0  0  0  0
    0.5693    2.3168    5.1940 N   0  0  0  0  0  0  0  0  0  0  0  0
    0.1914    2.4824    6.6094 C   0  0  0  0  0  0  0  0  0  0  0  0
   -0.8064    2.0600    6.7875 H   0  0  0  0  0  0  0  0  0  0  0  0
    0.1432    3.5475    6.8464 H   0  0  0  0  0  0  0  0  0  0  0  0
    1.2273    1.8051    7.5065 C   0  0  2  0  0  0  0  0  0  0  0  0
    1.1863    0.7232    7.3328 H   0  0  0  0  0  0  0  0  0  0  0  0
    0.9931    2.0318    9.0053 C   0  0  0  0  0  0  0  0  0  0  0  0
   -0.0146    1.7119    9.2796 H   0  0  0  0  0  0  0  0  0  0  0  0
    1.0862    3.0963    9.2306 H   0  0  0  0  0  0  0  0  0  0  0  0
    2.0300    1.2415    9.8019 C   0  0  0  0  0  0  0  0  0  0  0  0
    1.8881    1.4222   10.8689 H   0  0  0  0  0  0  0  0  0  0  0  0
    1.8823    0.1741    9.6229 H   0  0  0  0  0  0  0  0  0  0  0  0
    3.4516    1.6308    9.4009 C   0  0  0  0  0  0  0  0  0  0  0  0
    4.1697    1.0194    9.9488 H   0  0  0  0  0  0  0  0  0  0  0  0
    3.6277    2.6760    9.6626 H   0  0  0  0  0  0  0  0  0  0  0  0
    3.6741    1.4551    7.8913 C   0  0  0  0  0  0  0  0  0  0  0  0
    3.5710    0.3999    7.6266 H   0  0  0  0  0  0  0  0  0  0  0  0
    4.6773    1.7814    7.6179 H   0  0  0  0  0  0  0  0  0  0  0  0
    2.6318    2.2832    7.1883 C   0  0  2  0  0  3  0  0  0  0  0  0
    2.9024    3.5962    6.8151 C   0  0  0  0  0  0  0  0  0  0  0  0
    3.9066    3.9768    6.9602 H   0  0  0  0  0  0  0  0  0  0  0  0
    2.1281    4.3559    6.7965 H   0  0  0  0  0  0  0  0  0  0  0  0
   -0.0230    3.3690    4.3687 C   0  0  0  0  0  0  0  0  0  0  0  0
    0.2729    3.2145    3.3317 H   0  0  0  0  0  0  0  0  0  0  0  0
    0.3379    4.3463    4.6902 H   0  0  0  0  0  0  0  0  0  0  0  0
   -1.1170    3.3523    4.4365 H   0  0  0  0  0  0  0  0  0  0  0  0
    0.1115    1.0151    4.7031 C   0  0  0  0  0  0  0  0  0  0  0  0
    0.4220    0.8929    3.6667 H   0  0  0  0  0  0  0  0  0  0  0  0
   -0.9806    0.9416    4.7657 H   0  0  0  0  0  0  0  0  0  0  0  0
    0.5557    0.2122    5.2893 H   0  0  0  0  0  0  0  0  0  0  0  0
  1 23  1  0  0  0  0
  4  5  1  0  0  0  0
  5  6  1  0  0  0  0
  5  7  1  0  0  0  0
  5  8  1  0  0  0  0
  8  9  1  6  0  0  0
  8 10  1  0  0  0  0
 10 12  1  0  0  0  0
 10 11  1  0  0  0  0
 10 13  1  0  0  0  0
 13 14  1  0  0  0  0
 15 13  1  0  0  0  0
 16 18  1  0  0  0  0
 16 13  1  0  0  0  0
 16 17  1  0  0  0  0
 19 16  1  0  0  0  0
 20 19  1  0  0  0  0
 21 19  1  0  0  0  0
 22 23  1  1  0  0  0
 22  8  1  0  0  0  0
 22 19  1  0  0  0  0
 23 24  1  0  0  0  0
 25 23  1  0  0  0  0
 26 29  1  0  0  0  0
 26 28  1  0  0  0  0
 26  4  1  0  0  0  0
 27 26  1  0  0  0  0
 30 32  1  0  0  0  0
 30  4  1  0  0  0  0
 30 33  1  0  0  0  0
 31 30  1  0  0  0  0
M  END
$$$$
