CSD_code = RANFOE | q = 0 | S = 0 | Stoichiometry = C22H28ClCuN4S2 | MND = 3
 OpenBabel04212202093D

 58 61  0  0  1  0  0  0  0  0999 V2000
    0.9820    4.7123    9.7200 Cu  0  0  0  0  0  0  0  0  0  0  0  0
   -0.8212    3.3267    9.4437 Cl  0  0  0  0  0  0  0  0  0  0  0  0
    2.7590    3.8463   10.8939 S   0  0  0  0  0  0  0  0  0  0  0  0
    0.8384    6.8660    8.9365 S   0  0  0  0  0  0  0  0  0  0  0  0
   -1.2662    8.1264    7.9084 N   0  0  0  0  0  0  0  0  0  0  0  0
    0.7427    2.3537   11.8837 N   0  0  0  0  0  0  0  0  0  0  0  0
    0.0732    2.6900   11.1836 H   0  0  0  0  0  0  0  0  0  0  0  0
   -1.7368    6.1182    8.6553 N   0  0  0  0  0  0  0  0  0  0  0  0
   -1.5617    5.1562    8.9659 H   0  0  0  0  0  0  0  0  0  0  0  0
    2.7474    1.8064   12.5980 N   0  0  0  0  0  0  0  0  0  0  0  0
   -0.5334    9.2962    7.5824 C   0  0  0  0  0  0  0  0  0  0  0  0
   -0.6136   10.4100    8.4175 C   0  0  0  0  0  0  0  0  0  0  0  0
    4.1565    1.8091   12.7616 C   0  0  0  0  0  0  0  0  0  0  0  0
   -0.7679    7.0176    8.4826 C   0  0  2  0  0  3  0  0  0  0  0  0
    0.2523    9.3037    6.4286 C   0  0  0  0  0  0  0  0  0  0  0  0
   -2.9933    6.5525    8.0874 C   0  0  0  0  0  0  0  0  0  0  0  0
   -3.7845    6.5118    8.8414 H   0  0  0  0  0  0  0  0  0  0  0  0
   -3.2820    5.9063    7.2515 H   0  0  0  0  0  0  0  0  0  0  0  0
    0.8578   11.5827    6.9149 C   0  0  0  0  0  0  0  0  0  0  0  0
    1.4017   12.4781    6.6534 H   0  0  0  0  0  0  0  0  0  0  0  0
    2.0490    2.6278   11.7966 C   0  0  2  0  0  3  0  0  0  0  0  0
    4.9464    1.1780   11.7993 C   0  0  0  0  0  0  0  0  0  0  0  0
   -2.6867    7.9917    7.6340 C   0  0  0  0  0  0  0  0  0  0  0  0
   -2.8840    8.1487    6.5689 H   0  0  0  0  0  0  0  0  0  0  0  0
   -3.2596    8.7333    8.1992 H   0  0  0  0  0  0  0  0  0  0  0  0
    4.7196    2.4393   13.8704 C   0  0  0  0  0  0  0  0  0  0  0  0
    0.9444   10.4627    6.1086 C   0  0  0  0  0  0  0  0  0  0  0  0
    1.5592   10.4837    5.2210 H   0  0  0  0  0  0  0  0  0  0  0  0
    0.0887   11.5538    8.0627 C   0  0  0  0  0  0  0  0  0  0  0  0
    0.0379   12.4237    8.7010 H   0  0  0  0  0  0  0  0  0  0  0  0
    6.3219    1.1667   11.9785 C   0  0  0  0  0  0  0  0  0  0  0  0
    6.9479    0.6847   11.2421 H   0  0  0  0  0  0  0  0  0  0  0  0
    6.8946    1.7692   13.0836 C   0  0  0  0  0  0  0  0  0  0  0  0
    7.9668    1.7529   13.2106 H   0  0  0  0  0  0  0  0  0  0  0  0
    1.8765    0.8721   13.2895 C   0  0  0  0  0  0  0  0  0  0  0  0
    1.8842    1.0671   14.3668 H   0  0  0  0  0  0  0  0  0  0  0  0
    2.2114   -0.1561   13.1260 H   0  0  0  0  0  0  0  0  0  0  0  0
    0.4998    1.1588   12.6640 C   0  0  0  0  0  0  0  0  0  0  0  0
    0.1590    0.3397   12.0209 H   0  0  0  0  0  0  0  0  0  0  0  0
   -0.2697    1.3490   13.4162 H   0  0  0  0  0  0  0  0  0  0  0  0
    6.0995    2.4044   14.0188 C   0  0  0  0  0  0  0  0  0  0  0  0
    6.5516    2.8901   14.8710 H   0  0  0  0  0  0  0  0  0  0  0  0
    4.3181    0.5541   10.5925 C   0  0  0  0  0  0  0  0  0  0  0  0
    3.5321   -0.1459   10.8724 H   0  0  0  0  0  0  0  0  0  0  0  0
    5.0619    0.0263   10.0020 H   0  0  0  0  0  0  0  0  0  0  0  0
    3.8698    1.3296    9.9722 H   0  0  0  0  0  0  0  0  0  0  0  0
   -1.4252   10.3762    9.6769 C   0  0  0  0  0  0  0  0  0  0  0  0
   -2.4662   10.6305    9.4717 H   0  0  0  0  0  0  0  0  0  0  0  0
   -1.0398   11.0989   10.3915 H   0  0  0  0  0  0  0  0  0  0  0  0
   -1.3935    9.3877   10.1294 H   0  0  0  0  0  0  0  0  0  0  0  0
    0.3642    8.0785    5.5766 C   0  0  0  0  0  0  0  0  0  0  0  0
    0.9275    7.3148    6.1124 H   0  0  0  0  0  0  0  0  0  0  0  0
    0.8824    8.3022    4.6481 H   0  0  0  0  0  0  0  0  0  0  0  0
   -0.6161    7.6668    5.3421 H   0  0  0  0  0  0  0  0  0  0  0  0
    3.8606    3.1506   14.8708 C   0  0  0  0  0  0  0  0  0  0  0  0
    3.0409    3.6655   14.3743 H   0  0  0  0  0  0  0  0  0  0  0  0
    4.4484    3.8803   15.4213 H   0  0  0  0  0  0  0  0  0  0  0  0
    3.4408    2.4455   15.5896 H   0  0  0  0  0  0  0  0  0  0  0  0
  1  3  1  0  0  0  0
  2  1  1  0  0  0  0
  4  1  1  0  0  0  0
  5 14  1  0  0  0  0
  6 38  1  0  0  0  0
  7  6  1  0  0  0  0
  8  9  1  0  0  0  0
 10 13  1  0  0  0  0
 10 35  1  0  0  0  0
 11  5  1  0  0  0  0
 11 12  1  0  0  0  0
 12 47  1  0  0  0  0
 13 26  1  0  0  0  0
 14  8  1  0  0  0  0
 14  4  1  1  0  0  0
 15 11  2  0  0  0  0
 16  8  1  0  0  0  0
 16 17  1  0  0  0  0
 18 16  1  0  0  0  0
 19 29  1  0  0  0  0
 20 19  1  0  0  0  0
 21  3  1  1  0  0  0
 21  6  1  0  0  0  0
 21 10  1  0  0  0  0
 22 31  1  0  0  0  0
 22 13  2  0  0  0  0
 23  5  1  0  0  0  0
 23 16  1  0  0  0  0
 23 25  1  0  0  0  0
 24 23  1  0  0  0  0
 26 41  2  0  0  0  0
 26 55  1  0  0  0  0
 27 15  1  0  0  0  0
 27 19  2  0  0  0  0
 28 27  1  0  0  0  0
 29 12  2  0  0  0  0
 29 30  1  0  0  0  0
 31 33  2  0  0  0  0
 32 31  1  0  0  0  0
 33 34  1  0  0  0  0
 33 41  1  0  0  0  0
 35 36  1  0  0  0  0
 37 35  1  0  0  0  0
 38 35  1  0  0  0  0
 38 40  1  0  0  0  0
 39 38  1  0  0  0  0
 41 42  1  0  0  0  0
 43 44  1  0  0  0  0
 43 22  1  0  0  0  0
 45 43  1  0  0  0  0
 46 43  1  0  0  0  0
 47 50  1  0  0  0  0
 47 49  1  0  0  0  0
 48 47  1  0  0  0  0
 51 52  1  0  0  0  0
 51 15  1  0  0  0  0
 53 51  1  0  0  0  0
 54 51  1  0  0  0  0
 55 57  1  0  0  0  0
 55 58  1  0  0  0  0
 56 55  1  0  0  0  0
M  END
$$$$
