CSD_code = RANGAR | q = 0 | S = 0 | Stoichiometry = C22H28BrCuN4S2 | MND = 3
 OpenBabel04212202093D

 58 61  0  0  1  0  0  0  0  0999 V2000
   14.3541    3.5344    3.6497 Br  0  0  0  0  0  0  0  0  0  0  0  0
   12.3347    4.6963    3.7306 Cu  0  0  0  0  0  0  0  0  0  0  0  0
   10.4310    3.9299    2.6640 S   0  0  0  0  0  0  0  0  0  0  0  0
   12.1152    6.7078    4.8499 S   0  0  0  0  0  0  0  0  0  0  0  0
   13.8993    8.1013    6.2361 N   0  0  0  0  0  0  0  0  0  0  0  0
   14.5787    6.0706    5.7587 N   0  0  0  0  0  0  0  0  0  0  0  0
   14.6381    5.2052    5.2287 H   0  0  0  0  0  0  0  0  0  0  0  0
   12.2019    2.2692    1.4786 N   0  0  0  0  0  0  0  0  0  0  0  0
   12.9955    2.5993    2.0213 H   0  0  0  0  0  0  0  0  0  0  0  0
   10.0923    1.8610    1.0354 N   0  0  0  0  0  0  0  0  0  0  0  0
   15.2155    8.0342    6.8472 C   0  0  0  0  0  0  0  0  0  0  0  0
   15.1368    8.1063    7.9367 H   0  0  0  0  0  0  0  0  0  0  0  0
   15.8413    8.8598    6.4949 H   0  0  0  0  0  0  0  0  0  0  0  0
   13.0806    9.2580    6.2993 C   0  0  0  0  0  0  0  0  0  0  0  0
   13.5822    6.9521    5.6147 C   0  0  1  0  0  3  0  0  0  0  0  0
   13.0260   10.1064    5.1919 C   0  0  0  0  0  0  0  0  0  0  0  0
   15.7365    6.6581    6.3964 C   0  0  0  0  0  0  0  0  0  0  0  0
   16.5669    6.7403    5.6867 H   0  0  0  0  0  0  0  0  0  0  0  0
   16.0612    6.0380    7.2357 H   0  0  0  0  0  0  0  0  0  0  0  0
   12.3482    9.5201    7.4566 C   0  0  0  0  0  0  0  0  0  0  0  0
   11.5714   10.6699    7.4997 C   0  0  0  0  0  0  0  0  0  0  0  0
   10.9964   10.8851    8.3884 H   0  0  0  0  0  0  0  0  0  0  0  0
    6.5811    1.5505    2.1090 C   0  0  0  0  0  0  0  0  0  0  0  0
    6.0149    1.1547    2.9392 H   0  0  0  0  0  0  0  0  0  0  0  0
    8.6781    1.9721    1.0406 C   0  0  0  0  0  0  0  0  0  0  0  0
    7.9647    1.4500    2.1210 C   0  0  0  0  0  0  0  0  0  0  0  0
   10.9409    2.6474    1.7200 C   0  0  2  0  0  3  0  0  0  0  0  0
   11.5175   11.5274    6.4171 C   0  0  0  0  0  0  0  0  0  0  0  0
   10.9056   12.4159    6.4638 H   0  0  0  0  0  0  0  0  0  0  0  0
   12.2345   11.2431    5.2695 C   0  0  0  0  0  0  0  0  0  0  0  0
   12.1788   11.9077    4.4200 H   0  0  0  0  0  0  0  0  0  0  0  0
    8.0338    2.6005   -0.0246 C   0  0  0  0  0  0  0  0  0  0  0  0
    5.9261    2.1540    1.0514 C   0  0  0  0  0  0  0  0  0  0  0  0
    4.8486    2.2254    1.0553 H   0  0  0  0  0  0  0  0  0  0  0  0
   12.2651    1.0587    0.6893 C   0  0  0  0  0  0  0  0  0  0  0  0
   12.6523    0.2275    1.2887 H   0  0  0  0  0  0  0  0  0  0  0  0
   12.9267    1.2015   -0.1689 H   0  0  0  0  0  0  0  0  0  0  0  0
    6.6478    2.6779   -0.0044 C   0  0  0  0  0  0  0  0  0  0  0  0
    6.1346    3.1642   -0.8211 H   0  0  0  0  0  0  0  0  0  0  0  0
   10.7988    0.8456    0.2737 C   0  0  0  0  0  0  0  0  0  0  0  0
   10.6499    0.9989   -0.8000 H   0  0  0  0  0  0  0  0  0  0  0  0
   10.4267   -0.1507    0.5309 H   0  0  0  0  0  0  0  0  0  0  0  0
   13.7829    9.7777    3.9429 C   0  0  0  0  0  0  0  0  0  0  0  0
   14.8219    9.5349    4.1602 H   0  0  0  0  0  0  0  0  0  0  0  0
   13.7554   10.6115    3.2466 H   0  0  0  0  0  0  0  0  0  0  0  0
   13.3318    8.9109    3.4600 H   0  0  0  0  0  0  0  0  0  0  0  0
   12.3828    8.5808    8.6238 C   0  0  0  0  0  0  0  0  0  0  0  0
   12.4565    7.5488    8.2874 H   0  0  0  0  0  0  0  0  0  0  0  0
   11.4805    8.6886    9.2202 H   0  0  0  0  0  0  0  0  0  0  0  0
   13.2375    8.7967    9.2665 H   0  0  0  0  0  0  0  0  0  0  0  0
    8.6823    0.8233    3.2758 C   0  0  0  0  0  0  0  0  0  0  0  0
    9.2122    1.5926    3.8373 H   0  0  0  0  0  0  0  0  0  0  0  0
    9.4156    0.0924    2.9386 H   0  0  0  0  0  0  0  0  0  0  0  0
    7.9796    0.3329    3.9440 H   0  0  0  0  0  0  0  0  0  0  0  0
    8.8125    3.1917   -1.1603 C   0  0  0  0  0  0  0  0  0  0  0  0
    9.7515    3.6129   -0.8078 H   0  0  0  0  0  0  0  0  0  0  0  0
    8.2372    3.9784   -1.6415 H   0  0  0  0  0  0  0  0  0  0  0  0
    9.0348    2.4317   -1.9109 H   0  0  0  0  0  0  0  0  0  0  0  0
  1  2  1  0  0  0  0
  2  4  1  0  0  0  0
  3  2  1  0  0  0  0
  5 14  1  0  0  0  0
  5 11  1  0  0  0  0
  6 17  1  0  0  0  0
  7  6  1  0  0  0  0
  8 27  1  0  0  0  0
  8  9  1  0  0  0  0
 10 25  1  0  0  0  0
 10 27  1  0  0  0  0
 11 12  1  0  0  0  0
 13 11  1  0  0  0  0
 14 20  1  0  0  0  0
 15  4  1  1  0  0  0
 15  6  1  0  0  0  0
 15  5  1  0  0  0  0
 16 30  1  0  0  0  0
 16 14  2  0  0  0  0
 17 11  1  0  0  0  0
 17 19  1  0  0  0  0
 18 17  1  0  0  0  0
 20 21  2  0  0  0  0
 20 47  1  0  0  0  0
 21 22  1  0  0  0  0
 23 26  1  0  0  0  0
 23 24  1  0  0  0  0
 25 26  2  0  0  0  0
 26 51  1  0  0  0  0
 27  3  1  6  0  0  0
 28 29  1  0  0  0  0
 28 21  1  0  0  0  0
 30 28  2  0  0  0  0
 31 30  1  0  0  0  0
 32 38  2  0  0  0  0
 32 25  1  0  0  0  0
 33 34  1  0  0  0  0
 33 23  2  0  0  0  0
 35 36  1  0  0  0  0
 35  8  1  0  0  0  0
 37 35  1  0  0  0  0
 38 33  1  0  0  0  0
 39 38  1  0  0  0  0
 40 42  1  0  0  0  0
 40 35  1  0  0  0  0
 40 10  1  0  0  0  0
 41 40  1  0  0  0  0
 43 44  1  0  0  0  0
 43 16  1  0  0  0  0
 45 43  1  0  0  0  0
 46 43  1  0  0  0  0
 47 49  1  0  0  0  0
 47 50  1  0  0  0  0
 48 47  1  0  0  0  0
 51 52  1  0  0  0  0
 51 54  1  0  0  0  0
 53 51  1  0  0  0  0
 55 56  1  0  0  0  0
 55 32  1  0  0  0  0
 57 55  1  0  0  0  0
 58 55  1  0  0  0  0
M  END
$$$$
