CSD_code = RANTAC | q = 0 | S = 0 | Stoichiometry = C10H8Cl2I2N2Pt | MND = 4
 OpenBabel04212202093D

 25 26  0  0  0  0  0  0  0  0999 V2000
    0.0000    0.0000   -0.0000 Pt  0  0  0  0  0  0  0  0  0  0  0  0
   -2.0497   -0.9658    0.4408 Cl  0  0  0  0  0  0  0  0  0  0  0  0
    0.2419    0.3584    1.8971 N   0  0  0  0  0  0  0  0  0  0  0  0
    1.2597   -0.1923    2.5592 C   0  0  0  0  0  3  0  0  0  0  0  0
    1.9334   -0.8223    1.9894 H   0  0  0  0  0  0  0  0  0  0  0  0
    1.4597    0.0396    3.9081 C   0  0  0  0  0  0  0  0  0  0  0  0
    3.0834   -0.8745    4.8851 I   0  0  0  0  0  0  0  0  0  0  0  0
    0.5915    0.8680    4.6025 C   0  0  0  0  0  0  0  0  0  0  0  0
    0.7295    1.0636    5.6544 H   0  0  0  0  0  0  0  0  0  0  0  0
   -0.4593    1.4358    3.8991 C   0  0  0  0  0  0  0  0  0  0  0  0
   -1.1613    2.0872    4.3943 H   0  0  0  0  0  0  0  0  0  0  0  0
   -0.6040    1.1572    2.5524 C   0  0  0  0  0  0  0  0  0  0  0  0
   -1.4229    1.5719    1.9765 H   0  0  0  0  0  0  0  0  0  0  0  0
    2.0497    0.9658   -0.4408 Cl  0  0  0  0  0  0  0  0  0  0  0  0
   -0.2419   -0.3584   -1.8971 N   0  0  0  0  0  0  0  0  0  0  0  0
   -1.2597    0.1923   -2.5592 C   0  0  0  0  0  3  0  0  0  0  0  0
   -1.9334    0.8223   -1.9894 H   0  0  0  0  0  0  0  0  0  0  0  0
   -1.4597   -0.0396   -3.9081 C   0  0  0  0  0  0  0  0  0  0  0  0
   -3.0834    0.8744   -4.8851 I   0  0  0  0  0  0  0  0  0  0  0  0
   -0.5915   -0.8680   -4.6025 C   0  0  0  0  0  0  0  0  0  0  0  0
   -0.7295   -1.0637   -5.6544 H   0  0  0  0  0  0  0  0  0  0  0  0
    0.4593   -1.4358   -3.8991 C   0  0  0  0  0  0  0  0  0  0  0  0
    1.1613   -2.0872   -4.3943 H   0  0  0  0  0  0  0  0  0  0  0  0
    0.6040   -1.1572   -2.5524 C   0  0  0  0  0  0  0  0  0  0  0  0
    1.4229   -1.5719   -1.9765 H   0  0  0  0  0  0  0  0  0  0  0  0
  1  2  1  0  0  0  0
  1  3  1  0  0  0  0
  3 12  1  0  0  0  0
  3  4  1  0  0  0  0
  4  6  1  0  0  0  0
  5  4  1  0  0  0  0
  6  8  2  0  0  0  0
  6  7  1  0  0  0  0
  8  9  1  0  0  0  0
 10 11  1  0  0  0  0
 10  8  1  0  0  0  0
 12 10  2  0  0  0  0
 13 12  1  0  0  0  0
 14  1  1  0  0  0  0
 15  1  1  0  0  0  0
 16 17  1  0  0  0  0
 16 15  1  0  0  0  0
 18 16  1  0  0  0  0
 19 18  1  0  0  0  0
 20 18  2  0  0  0  0
 20 22  1  0  0  0  0
 21 20  1  0  0  0  0
 22 24  2  0  0  0  0
 23 22  1  0  0  0  0
 24 25  1  0  0  0  0
 24 15  1  0  0  0  0
M  END
$$$$
