CSD_code = RANTOQ | q = 0 | S = 0 | Stoichiometry = C10H8Br2Cl2N2Pd | MND = 4
 OpenBabel04212202093D

 25 26  0  0  0  0  0  0  0  0999 V2000
    1.9748    6.9620   -0.0001 Pd  0  0  0  0  0  0  0  0  0  0  0  0
    0.5671    7.4200   -1.7444 Cl  0  0  0  0  0  0  0  0  0  0  0  0
    1.9776    5.0936   -0.4885 N   0  0  0  0  0  0  0  0  0  0  0  0
    1.4009    4.1929    0.3034 C   0  0  0  0  0  3  0  0  0  0  0  0
    0.9478    4.5557    1.2244 H   0  0  0  0  0  0  0  0  0  0  0  0
    1.3907    2.8457   -0.0256 C   0  0  0  0  0  0  0  0  0  0  0  0
    0.5498    1.6090    1.1324 Br  0  0  0  0  0  0  0  0  0  0  0  0
    1.9947    2.4144   -1.1990 C   0  0  0  0  0  0  0  0  0  0  0  0
    1.9950    1.3694   -1.4668 H   0  0  0  0  0  0  0  0  0  0  0  0
    2.5921    3.3692   -2.0067 C   0  0  0  0  0  0  0  0  0  0  0  0
    3.0737    3.0831   -2.9278 H   0  0  0  0  0  0  0  0  0  0  0  0
    2.5620    4.6985   -1.6209 C   0  0  0  0  0  0  0  0  0  0  0  0
    3.0071    5.4805   -2.2336 H   0  0  0  0  0  0  0  0  0  0  0  0
    3.3832    6.5042    1.7436 Cl  0  0  0  0  0  0  0  0  0  0  0  0
    1.9721    8.8304    0.4884 N   0  0  0  0  0  0  0  0  0  0  0  0
    2.5487    9.7313   -0.3033 C   0  0  0  0  0  3  0  0  0  0  0  0
    3.0019    9.3686   -1.2244 H   0  0  0  0  0  0  0  0  0  0  0  0
    2.5588   11.0785    0.0258 C   0  0  0  0  0  0  0  0  0  0  0  0
    3.3996   12.3154   -1.1321 Br  0  0  0  0  0  0  0  0  0  0  0  0
    1.9548   11.5095    1.1992 C   0  0  0  0  0  0  0  0  0  0  0  0
    1.9544   12.5545    1.4672 H   0  0  0  0  0  0  0  0  0  0  0  0
    1.3574   10.5546    2.0068 C   0  0  0  0  0  0  0  0  0  0  0  0
    0.8757   10.8406    2.9279 H   0  0  0  0  0  0  0  0  0  0  0  0
    1.3876    9.2253    1.6208 C   0  0  0  0  0  0  0  0  0  0  0  0
    0.9426    8.4432    2.2334 H   0  0  0  0  0  0  0  0  0  0  0  0
  1 15  1  0  0  0  0
  1 14  1  0  0  0  0
  2  1  1  0  0  0  0
  3  1  1  0  0  0  0
  3  4  1  0  0  0  0
  4  5  1  0  0  0  0
  6  4  1  0  0  0  0
  6  7  1  0  0  0  0
  8  6  2  0  0  0  0
  9  8  1  0  0  0  0
 10 12  2  0  0  0  0
 10  8  1  0  0  0  0
 11 10  1  0  0  0  0
 12  3  1  0  0  0  0
 13 12  1  0  0  0  0
 15 24  1  0  0  0  0
 16 18  1  0  0  0  0
 16 15  1  0  0  0  0
 17 16  1  0  0  0  0
 18 20  2  0  0  0  0
 19 18  1  0  0  0  0
 20 21  1  0  0  0  0
 20 22  1  0  0  0  0
 22 23  1  0  0  0  0
 24 22  2  0  0  0  0
 24 25  1  0  0  0  0
M  END
$$$$
