CSD_code = RAPHOH | q = 0 | S = 0 | Stoichiometry = C19H43IN2P2Pd | MND = 4
 OpenBabel04212202093D

 68 69  0  0  1  0  0  0  0  0999 V2000
   10.5964    2.1184   -1.7365 I   0  0  0  0  0  0  0  0  0  0  0  0
   11.8804    0.6810    0.0450 Pd  0  0  2  0  0  0  0  0  0  0  0  0
   11.5631   -1.2892   -0.9911 P   0  0  0  0  0  4  0  0  0  0  0  0
   12.3921    2.3520    1.4641 P   0  0  0  0  0  4  0  0  0  0  0  0
   12.4845   -2.3481   -0.0671 N   0  0  0  0  0  0  0  0  0  0  0  0
   12.2408   -3.3315   -0.1260 H   0  0  0  0  0  0  0  0  0  0  0  0
   13.3992    1.5896    2.5745 N   0  0  0  0  0  0  0  0  0  0  0  0
   13.4884    2.0336    3.4833 H   0  0  0  0  0  0  0  0  0  0  0  0
   13.1054   -0.4111    1.2397 C   0  0  2  0  0  0  0  0  0  0  0  0
   14.0788   -0.3059    0.7224 H   0  0  0  0  0  0  0  0  0  0  0  0
   12.7728   -1.8973    1.2846 C   0  0  0  0  0  0  0  0  0  0  0  0
   13.6355   -2.4718    1.6579 H   0  0  0  0  0  0  0  0  0  0  0  0
   11.9401   -2.0844    1.9830 H   0  0  0  0  0  0  0  0  0  0  0  0
   12.3799   -1.5662   -2.6656 C   0  0  0  0  0  0  0  0  0  0  0  0
   12.7170   -3.0342   -2.9172 C   0  0  0  0  0  0  0  0  0  0  0  0
   13.2412   -3.1231   -3.8680 H   0  0  0  0  0  0  0  0  0  0  0  0
   11.8148   -3.6405   -2.9764 H   0  0  0  0  0  0  0  0  0  0  0  0
   13.3628   -3.4312   -2.1378 H   0  0  0  0  0  0  0  0  0  0  0  0
   13.6672   -0.7495   -2.4893 C   0  0  0  0  0  0  0  0  0  0  0  0
   14.2720   -0.7785   -3.3944 H   0  0  0  0  0  0  0  0  0  0  0  0
   14.2599   -1.1477   -1.6643 H   0  0  0  0  0  0  0  0  0  0  0  0
   13.4233    0.3004   -2.2752 H   0  0  0  0  0  0  0  0  0  0  0  0
   11.5954   -1.0123   -3.8514 C   0  0  0  0  0  0  0  0  0  0  0  0
   12.2564   -0.9394   -4.7148 H   0  0  0  0  0  0  0  0  0  0  0  0
   11.2060   -0.0191   -3.6470 H   0  0  0  0  0  0  0  0  0  0  0  0
   10.7687   -1.6624   -4.1222 H   0  0  0  0  0  0  0  0  0  0  0  0
    9.7634   -1.8907   -0.8494 C   0  0  0  0  0  0  0  0  0  0  0  0
    9.6722   -3.3989   -0.6172 C   0  0  0  0  0  0  0  0  0  0  0  0
    8.6241   -3.6948   -0.5828 H   0  0  0  0  0  0  0  0  0  0  0  0
   10.1262   -3.6903    0.3297 H   0  0  0  0  0  0  0  0  0  0  0  0
   10.1495   -3.9540   -1.4234 H   0  0  0  0  0  0  0  0  0  0  0  0
    8.9004   -1.5039   -2.0465 C   0  0  0  0  0  0  0  0  0  0  0  0
    7.8478   -1.6137   -1.7859 H   0  0  0  0  0  0  0  0  0  0  0  0
    9.1017   -2.1483   -2.8980 H   0  0  0  0  0  0  0  0  0  0  0  0
    9.0672   -0.4704   -2.3389 H   0  0  0  0  0  0  0  0  0  0  0  0
    9.2640   -1.1423    0.3952 C   0  0  0  0  0  0  0  0  0  0  0  0
    8.2363   -1.4226    0.6260 H   0  0  0  0  0  0  0  0  0  0  0  0
    9.2873   -0.0570    0.2209 H   0  0  0  0  0  0  0  0  0  0  0  0
    9.8833   -1.3791    1.2670 H   0  0  0  0  0  0  0  0  0  0  0  0
   13.2700    0.1427    2.6489 C   0  0  0  0  0  0  0  0  0  0  0  0
   12.4275   -0.1776    3.2819 H   0  0  0  0  0  0  0  0  0  0  0  0
   14.1878   -0.2549    3.1108 H   0  0  0  0  0  0  0  0  0  0  0  0
   10.9748    3.0806    2.4887 C   0  0  0  0  0  0  0  0  0  0  0  0
   10.3534    1.8407    3.1451 C   0  0  0  0  0  0  0  0  0  0  0  0
    9.3659    2.0725    3.5418 H   0  0  0  0  0  0  0  0  0  0  0  0
   10.9670    1.4692    3.9655 H   0  0  0  0  0  0  0  0  0  0  0  0
   10.2415    1.0423    2.3957 H   0  0  0  0  0  0  0  0  0  0  0  0
   11.4424    4.0735    3.5476 C   0  0  0  0  0  0  0  0  0  0  0  0
   10.6166    4.3009    4.2218 H   0  0  0  0  0  0  0  0  0  0  0  0
   11.7662    5.0057    3.0906 H   0  0  0  0  0  0  0  0  0  0  0  0
   12.2604    3.6754    4.1483 H   0  0  0  0  0  0  0  0  0  0  0  0
    9.9149    3.7219    1.5975 C   0  0  0  0  0  0  0  0  0  0  0  0
    9.0987    4.0999    2.2129 H   0  0  0  0  0  0  0  0  0  0  0  0
    9.5039    2.9872    0.9083 H   0  0  0  0  0  0  0  0  0  0  0  0
   10.3127    4.5477    1.0161 H   0  0  0  0  0  0  0  0  0  0  0  0
   13.5789    3.6498    0.7914 C   0  0  0  0  0  0  0  0  0  0  0  0
   12.8636    4.8097    0.1059 C   0  0  0  0  0  0  0  0  0  0  0  0
   13.5864    5.4057   -0.4508 H   0  0  0  0  0  0  0  0  0  0  0  0
   12.3836    5.4622    0.8323 H   0  0  0  0  0  0  0  0  0  0  0  0
   12.1149    4.4520   -0.5972 H   0  0  0  0  0  0  0  0  0  0  0  0
   14.3651    2.8385   -0.2474 C   0  0  0  0  0  0  0  0  0  0  0  0
   15.1124    3.4602   -0.7390 H   0  0  0  0  0  0  0  0  0  0  0  0
   13.6915    2.4442   -1.0199 H   0  0  0  0  0  0  0  0  0  0  0  0
   14.8760    2.0036    0.2383 H   0  0  0  0  0  0  0  0  0  0  0  0
   14.5442    4.1811    1.8495 C   0  0  0  0  0  0  0  0  0  0  0  0
   15.2556    4.8561    1.3747 H   0  0  0  0  0  0  0  0  0  0  0  0
   15.1036    3.3690    2.3079 H   0  0  0  0  0  0  0  0  0  0  0  0
   14.0249    4.7358    2.6269 H   0  0  0  0  0  0  0  0  0  0  0  0
  2  1  1  6  0  0  0
  2  9  1  0  0  0  0
  2  4  1  0  0  0  0
  3 27  1  0  0  0  0
  3  5  1  0  0  0  0
  3  2  1  0  0  0  0
  4 43  1  0  0  0  0
  4  7  1  0  0  0  0
  5 11  1  0  0  0  0
  6  5  1  0  0  0  0
  7 40  1  0  0  0  0
  7  8  1  0  0  0  0
  9 10  1  6  0  0  0
  9 11  1  0  0  0  0
  9 40  1  0  0  0  0
 11 12  1  0  0  0  0
 11 13  1  0  0  0  0
 14 19  1  0  0  0  0
 14  3  1  0  0  0  0
 15 14  1  0  0  0  0
 15 18  1  0  0  0  0
 16 15  1  0  0  0  0
 17 15  1  0  0  0  0
 19 22  1  0  0  0  0
 19 21  1  0  0  0  0
 20 19  1  0  0  0  0
 23 25  1  0  0  0  0
 23 14  1  0  0  0  0
 24 23  1  0  0  0  0
 26 23  1  0  0  0  0
 27 28  1  0  0  0  0
 27 36  1  0  0  0  0
 28 29  1  0  0  0  0
 28 30  1  0  0  0  0
 31 28  1  0  0  0  0
 32 33  1  0  0  0  0
 32 27  1  0  0  0  0
 34 32  1  0  0  0  0
 35 32  1  0  0  0  0
 36 37  1  0  0  0  0
 36 39  1  0  0  0  0
 38 36  1  0  0  0  0
 40 42  1  0  0  0  0
 40 41  1  0  0  0  0
 43 44  1  0  0  0  0
 43 48  1  0  0  0  0
 44 45  1  0  0  0  0
 44 46  1  0  0  0  0
 47 44  1  0  0  0  0
 48 51  1  0  0  0  0
 48 49  1  0  0  0  0
 50 48  1  0  0  0  0
 52 53  1  0  0  0  0
 52 43  1  0  0  0  0
 54 52  1  0  0  0  0
 55 52  1  0  0  0  0
 56  4  1  0  0  0  0
 56 65  1  0  0  0  0
 57 56  1  0  0  0  0
 57 59  1  0  0  0  0
 58 57  1  0  0  0  0
 60 57  1  0  0  0  0
 61 64  1  0  0  0  0
 61 56  1  0  0  0  0
 62 61  1  0  0  0  0
 63 61  1  0  0  0  0
 65 67  1  0  0  0  0
 65 68  1  0  0  0  0
 66 65  1  0  0  0  0
M  END
$$$$
