CSD_code = RAPKAX | q = 0 | S = 0 | Stoichiometry = C10H24Br2N4Ni | MND = 6
 OpenBabel04212202093D

 41 44  0  0  1  0  0  0  0  0999 V2000
   -1.4302    6.3138    4.1263 Ni  0  0  0  0  0  0  0  0  0  0  0  0
   -3.3354    5.9630    5.7603 Br  0  0  0  0  0  0  0  0  0  0  0  0
   -1.3188    8.1215    4.7283 N   0  0  1  0  0  4  0  0  0  0  0  0
   -2.1401    8.1737    5.3422 H   0  0  0  0  0  0  0  0  0  0  0  0
    0.1517    5.8687    5.6926 N   0  0  1  0  0  4  0  0  0  0  0  0
    1.0589    5.8807    5.2235 H   0  0  0  0  0  0  0  0  0  0  0  0
   -0.1310    8.2794    5.5834 C   0  0  0  0  0  0  0  0  0  0  0  0
   -0.2072    9.1988    6.1796 H   0  0  0  0  0  0  0  0  0  0  0  0
    0.7488    8.3593    4.9375 H   0  0  0  0  0  0  0  0  0  0  0  0
    0.0310    7.0684    6.5149 C   0  0  0  0  0  0  0  0  0  0  0  0
    0.8999    7.2254    7.1717 H   0  0  0  0  0  0  0  0  0  0  0  0
   -0.8586    6.9662    7.1441 H   0  0  0  0  0  0  0  0  0  0  0  0
   -0.0243    4.5864    6.3565 C   0  0  0  0  0  0  0  0  0  0  0  0
   -0.9535    4.6202    6.9317 H   0  0  0  0  0  0  0  0  0  0  0  0
    0.8009    4.3683    7.0532 H   0  0  0  0  0  0  0  0  0  0  0  0
   -0.1081    3.4642    5.3128 C   0  0  0  0  0  0  0  0  0  0  0  0
    0.7393    3.5496    4.6266 H   0  0  0  0  0  0  0  0  0  0  0  0
   -0.0200    2.5096    5.8340 H   0  0  0  0  0  0  0  0  0  0  0  0
   -1.4144    3.4241    4.5086 C   0  0  0  0  0  0  0  0  0  0  0  0
   -1.4577    2.4603    3.9792 H   0  0  0  0  0  0  0  0  0  0  0  0
   -2.2649    3.4698    5.1935 H   0  0  0  0  0  0  0  0  0  0  0  0
   -1.5416    4.5060    3.5243 N   0  0  1  0  0  4  0  0  0  0  0  0
   -0.7203    4.4538    2.9105 H   0  0  0  0  0  0  0  0  0  0  0  0
   -3.0122    6.7588    2.5600 N   0  0  2  0  0  4  0  0  0  0  0  0
   -3.9193    6.7468    3.0292 H   0  0  0  0  0  0  0  0  0  0  0  0
   -2.7294    4.3481    2.6692 C   0  0  0  0  0  0  0  0  0  0  0  0
   -2.6533    3.4287    2.0730 H   0  0  0  0  0  0  0  0  0  0  0  0
   -3.6093    4.2682    3.3151 H   0  0  0  0  0  0  0  0  0  0  0  0
   -2.8915    5.5591    1.7377 C   0  0  0  0  0  0  0  0  0  0  0  0
   -3.7604    5.4021    1.0809 H   0  0  0  0  0  0  0  0  0  0  0  0
   -2.0018    5.6613    1.1085 H   0  0  0  0  0  0  0  0  0  0  0  0
   -2.8361    8.0411    1.8961 C   0  0  0  0  0  0  0  0  0  0  0  0
   -1.9069    8.0073    1.3210 H   0  0  0  0  0  0  0  0  0  0  0  0
   -3.6614    8.2592    1.1994 H   0  0  0  0  0  0  0  0  0  0  0  0
   -2.7523    9.1633    2.9398 C   0  0  0  0  0  0  0  0  0  0  0  0
   -3.5998    9.0779    3.6261 H   0  0  0  0  0  0  0  0  0  0  0  0
   -2.8404   10.1179    2.4187 H   0  0  0  0  0  0  0  0  0  0  0  0
   -1.4460    9.2034    3.7440 C   0  0  0  0  0  0  0  0  0  0  0  0
   -1.4027   10.1672    4.2734 H   0  0  0  0  0  0  0  0  0  0  0  0
   -0.5956    9.1577    3.0591 H   0  0  0  0  0  0  0  0  0  0  0  0
    0.4750    6.6646    2.4924 Br  0  0  0  0  0  0  0  0  0  0  0  0
  1  3  1  0  0  0  0
  1  5  1  0  0  0  0
  1  2  1  0  0  0  0
  3  4  1  1  0  0  0
  3  7  1  0  0  0  0
  5  6  1  6  0  0  0
  5 13  1  0  0  0  0
  5 10  1  0  0  0  0
  7  8  1  0  0  0  0
  7 10  1  0  0  0  0
  9  7  1  0  0  0  0
 10 12  1  0  0  0  0
 10 11  1  0  0  0  0
 13 14  1  0  0  0  0
 13 15  1  0  0  0  0
 16 18  1  0  0  0  0
 16 13  1  0  0  0  0
 17 16  1  0  0  0  0
 19 21  1  0  0  0  0
 19 16  1  0  0  0  0
 20 19  1  0  0  0  0
 22 23  1  6  0  0  0
 22  1  1  0  0  0  0
 22 19  1  0  0  0  0
 24 25  1  1  0  0  0
 24  1  1  0  0  0  0
 26 28  1  0  0  0  0
 26 22  1  0  0  0  0
 27 26  1  0  0  0  0
 29 24  1  0  0  0  0
 29 26  1  0  0  0  0
 30 29  1  0  0  0  0
 31 29  1  0  0  0  0
 32 24  1  0  0  0  0
 32 35  1  0  0  0  0
 33 32  1  0  0  0  0
 34 32  1  0  0  0  0
 35 36  1  0  0  0  0
 35 38  1  0  0  0  0
 37 35  1  0  0  0  0
 38 39  1  0  0  0  0
 38  3  1  0  0  0  0
 40 38  1  0  0  0  0
 41  1  1  0  0  0  0
M  END
$$$$
