CSD_code = RAPTOU | q = 0 | S = 0 | Stoichiometry = C28H25BrFeO4S | MND = 6
 OpenBabel04212202093D

 60 63  0  0  0  0  0  0  0  0999 V2000
   11.3202   11.3306   15.8210 Br  0  0  0  0  0  0  0  0  0  0  0  0
   10.0545   12.7565   14.4657 Fe  0  0  0  0  0  0  0  0  0  0  0  0
    8.5165   10.9407   14.1812 S   0  0  2  0  0  3  0  0  0  0  0  0
   12.5555   14.0234   13.6827 O   0  0  0  0  0  1  0  0  0  0  0  0
    8.6519   14.5764   12.7216 O   0  0  0  0  0  1  0  0  0  0  0  0
    9.6692   14.0564   17.0810 O   0  0  0  0  0  1  0  0  0  0  0  0
   10.4286   10.9267   12.1653 O   0  0  0  0  0  0  0  0  0  0  0  0
   11.5757   13.5420   13.9973 C   0  0  0  0  0  2  0  0  0  0  0  0
    9.1665   13.8606   13.4457 C   0  0  0  0  0  2  0  0  0  0  0  0
    9.7209   13.5837   16.0509 C   0  0  0  0  0  2  0  0  0  0  0  0
   10.0312   11.4839   13.1076 C   0  0  0  0  0  0  0  0  0  0  0  0
    7.0360   11.5913   13.4043 C   0  0  0  0  0  0  0  0  0  0  0  0
    6.1506   12.3313   14.1940 C   0  0  0  0  0  0  0  0  0  0  0  0
    4.9691   12.7826   13.6135 C   0  0  0  0  0  0  0  0  0  0  0  0
    4.6771   12.5079   12.2904 C   0  0  0  0  0  0  0  0  0  0  0  0
    5.5589   11.7650   11.5284 C   0  0  0  0  0  0  0  0  0  0  0  0
    6.7432   11.2822   12.0769 C   0  0  0  0  0  0  0  0  0  0  0  0
    6.4205   12.6415   15.6152 C   0  0  0  0  0  0  0  0  0  0  0  0
    6.5685   13.9711   16.0256 C   0  0  0  0  0  0  0  0  0  0  0  0
    6.7981   14.2488   17.3661 C   0  0  0  0  0  0  0  0  0  0  0  0
    6.8941   13.2422   18.3131 C   0  0  0  0  0  0  0  0  0  0  0  0
    6.7130   11.9322   17.8949 C   0  0  0  0  0  0  0  0  0  0  0  0
    6.4630   11.6158   16.5687 C   0  0  0  0  0  0  0  0  0  0  0  0
    6.4820   15.1325   15.0762 C   0  0  0  0  0  0  0  0  0  0  0  0
    7.1960   13.5526   19.7457 C   0  0  0  0  0  0  0  0  0  0  0  0
    6.1990   10.1806   16.2189 C   0  0  0  0  0  0  0  0  0  0  0  0
    7.6345   10.4483   11.2397 C   0  0  0  0  0  0  0  0  0  0  0  0
    8.3750   11.0256   10.2088 C   0  0  0  0  0  0  0  0  0  0  0  0
    9.1892   10.2179    9.4266 C   0  0  0  0  0  0  0  0  0  0  0  0
    9.2811    8.8542    9.6456 C   0  0  0  0  0  0  0  0  0  0  0  0
    8.5221    8.2952   10.6652 C   0  0  0  0  0  0  0  0  0  0  0  0
    7.6963    9.0687   11.4627 C   0  0  0  0  0  0  0  0  0  0  0  0
    8.3418   12.5013    9.9307 C   0  0  0  0  0  0  0  0  0  0  0  0
   10.1602    7.9879    8.7971 C   0  0  0  0  0  0  0  0  0  0  0  0
    6.8777    8.4231   12.5415 C   0  0  0  0  0  0  0  0  0  0  0  0
    4.2742   13.3418   14.2218 H   0  0  0  0  0  0  0  0  0  0  0  0
    3.7557   12.8653   11.8557 H   0  0  0  0  0  0  0  0  0  0  0  0
    5.3349   11.5328   10.4980 H   0  0  0  0  0  0  0  0  0  0  0  0
    6.9131   15.2800   17.6703 H   0  0  0  0  0  0  0  0  0  0  0  0
    6.7570   11.1331   18.6209 H   0  0  0  0  0  0  0  0  0  0  0  0
    7.3306   15.8009   15.2212 H   0  0  0  0  0  0  0  0  0  0  0  0
    5.5765   15.7053   15.2773 H   0  0  0  0  0  0  0  0  0  0  0  0
    6.4581   14.8182   14.0372 H   0  0  0  0  0  0  0  0  0  0  0  0
    8.2552   13.3845   19.9421 H   0  0  0  0  0  0  0  0  0  0  0  0
    6.6272   12.9060   20.4103 H   0  0  0  0  0  0  0  0  0  0  0  0
    6.9675   14.5901   19.9772 H   0  0  0  0  0  0  0  0  0  0  0  0
    5.7453   10.0799   15.2365 H   0  0  0  0  0  0  0  0  0  0  0  0
    5.5304    9.7403   16.9568 H   0  0  0  0  0  0  0  0  0  0  0  0
    7.1276    9.6099   16.2339 H   0  0  0  0  0  0  0  0  0  0  0  0
    9.7698   10.6743    8.6374 H   0  0  0  0  0  0  0  0  0  0  0  0
    8.5767    7.2304   10.8426 H   0  0  0  0  0  0  0  0  0  0  0  0
    7.8686   12.6893    8.9669 H   0  0  0  0  0  0  0  0  0  0  0  0
    9.3569   12.8946    9.8832 H   0  0  0  0  0  0  0  0  0  0  0  0
    7.7913   13.0489   10.6920 H   0  0  0  0  0  0  0  0  0  0  0  0
    9.5526    7.3762    8.1296 H   0  0  0  0  0  0  0  0  0  0  0  0
   10.7498    7.3176    9.4195 H   0  0  0  0  0  0  0  0  0  0  0  0
   10.8342    8.5900    8.1931 H   0  0  0  0  0  0  0  0  0  0  0  0
    7.3687    8.5295   13.5093 H   0  0  0  0  0  0  0  0  0  0  0  0
    6.7593    7.3610   12.3415 H   0  0  0  0  0  0  0  0  0  0  0  0
    5.8914    8.8796   12.6118 H   0  0  0  0  0  0  0  0  0  0  0  0
  2  1  1  0  0  0  0
  2 10  1  0  0  0  0
  3 12  1  6  0  0  0
  3  2  1  0  0  0  0
  4  8  1  0  0  0  0
  5  9  1  0  0  0  0
  7 11  2  0  0  0  0
  8  2  1  0  0  0  0
  9  2  1  0  0  0  0
 10  6  1  0  0  0  0
 11  3  1  0  0  0  0
 11  2  1  0  0  0  0
 12 13  1  0  0  0  0
 13 18  1  0  0  0  0
 14 13  2  0  0  0  0
 14 36  1  0  0  0  0
 15 14  1  0  0  0  0
 16 17  1  0  0  0  0
 16 15  2  0  0  0  0
 17 12  2  0  0  0  0
 18 19  2  0  0  0  0
 18 23  1  0  0  0  0
 19 20  1  0  0  0  0
 20 39  1  0  0  0  0
 20 21  2  0  0  0  0
 21 25  1  0  0  0  0
 22 21  1  0  0  0  0
 22 40  1  0  0  0  0
 23 22  2  0  0  0  0
 24 41  1  0  0  0  0
 24 42  1  0  0  0  0
 24 19  1  0  0  0  0
 25 44  1  0  0  0  0
 25 46  1  0  0  0  0
 25 45  1  0  0  0  0
 26 49  1  0  0  0  0
 26 23  1  0  0  0  0
 26 48  1  0  0  0  0
 27 32  1  0  0  0  0
 27 17  1  0  0  0  0
 28 27  2  0  0  0  0
 29 30  2  0  0  0  0
 29 28  1  0  0  0  0
 30 31  1  0  0  0  0
 31 51  1  0  0  0  0
 31 32  2  0  0  0  0
 32 35  1  0  0  0  0
 33 28  1  0  0  0  0
 33 54  1  0  0  0  0
 34 56  1  0  0  0  0
 34 30  1  0  0  0  0
 35 60  1  0  0  0  0
 35 58  1  0  0  0  0
 37 15  1  0  0  0  0
 38 16  1  0  0  0  0
 43 24  1  0  0  0  0
 47 26  1  0  0  0  0
 50 29  1  0  0  0  0
 52 33  1  0  0  0  0
 53 33  1  0  0  0  0
 55 34  1  0  0  0  0
 57 34  1  0  0  0  0
 59 35  1  0  0  0  0
M  END
$$$$
