CSD_code = RAQFEV | q = 0 | S = 0 | Stoichiometry = C26H19AuClP | MND = 2
 OpenBabel04212202093D

 48 52  0  0  0  0  0  0  0  0999 V2000
    0.3238   -0.8117   -1.6541 Au  0  0  0  0  0  0  0  0  0  0  0  0
    0.8827    0.7423   -0.1067 Cl  0  0  0  0  0  0  0  0  0  0  0  0
   -0.2511   -2.3217   -3.2113 P   0  0  0  0  0  4  0  0  0  0  0  0
   -1.3511   -4.7866   -2.5939 C   0  0  0  0  0  0  0  0  0  0  0  0
   -1.3395   -6.1210   -2.1071 C   0  0  0  0  0  0  0  0  0  0  0  0
   -2.5333   -6.8598   -2.0522 C   0  0  0  0  0  0  0  0  0  0  0  0
   -2.5397   -8.1493   -1.5879 C   0  0  0  0  0  0  0  0  0  0  0  0
   -1.3452   -8.7344   -1.1653 C   0  0  0  0  0  0  0  0  0  0  0  0
   -0.1670   -8.0297   -1.2100 C   0  0  0  0  0  0  0  0  0  0  0  0
   -0.1248   -6.7072   -1.6788 C   0  0  0  0  0  0  0  0  0  0  0  0
    1.0879   -5.9258   -1.7370 C   0  0  0  0  0  0  0  0  0  0  0  0
    2.3320   -6.4229   -1.3159 C   0  0  0  0  0  0  0  0  0  0  0  0
    3.4695   -5.6560   -1.3746 C   0  0  0  0  0  0  0  0  0  0  0  0
    3.4144   -4.3490   -1.8569 C   0  0  0  0  0  0  0  0  0  0  0  0
    2.2151   -3.8360   -2.2784 C   0  0  0  0  0  0  0  0  0  0  0  0
    1.0409   -4.5999   -2.2307 C   0  0  0  0  0  0  0  0  0  0  0  0
   -0.2089   -4.0517   -2.6777 C   0  0  0  0  0  0  0  0  0  0  0  0
   -1.9512   -2.1007   -3.8063 C   0  0  0  0  0  0  0  0  0  0  0  0
   -2.3674   -2.5743   -5.0478 C   0  0  0  0  0  0  0  0  0  0  0  0
   -3.6780   -2.3891   -5.4468 C   0  0  0  0  0  0  0  0  0  0  0  0
   -4.5747   -1.7354   -4.6156 C   0  0  0  0  0  0  0  0  0  0  0  0
   -4.1613   -1.2592   -3.3819 C   0  0  0  0  0  0  0  0  0  0  0  0
   -2.8504   -1.4367   -2.9780 C   0  0  0  0  0  0  0  0  0  0  0  0
    0.7024   -2.2795   -4.7554 C   0  0  0  0  0  0  0  0  0  0  0  0
    1.0691   -1.0238   -5.2300 C   0  0  0  0  0  0  0  0  0  0  0  0
    1.7812   -0.9122   -6.4094 C   0  0  0  0  0  0  0  0  0  0  0  0
    2.1340   -2.0532   -7.1128 C   0  0  0  0  0  0  0  0  0  0  0  0
    1.7746   -3.3045   -6.6381 C   0  0  0  0  0  0  0  0  0  0  0  0
    1.0584   -3.4242   -5.4606 C   0  0  0  0  0  0  0  0  0  0  0  0
   -2.3007   -4.3708   -2.9033 H   0  0  0  0  0  0  0  0  0  0  0  0
   -3.4481   -6.3895   -2.3839 H   0  0  0  0  0  0  0  0  0  0  0  0
   -3.4598   -8.7126   -1.5472 H   0  0  0  0  0  0  0  0  0  0  0  0
   -1.3492   -9.7504   -0.7991 H   0  0  0  0  0  0  0  0  0  0  0  0
    0.7361   -8.5138   -0.8745 H   0  0  0  0  0  0  0  0  0  0  0  0
    2.4066   -7.4277   -0.9325 H   0  0  0  0  0  0  0  0  0  0  0  0
    4.4119   -6.0646   -1.0416 H   0  0  0  0  0  0  0  0  0  0  0  0
    4.3085   -3.7459   -1.8948 H   0  0  0  0  0  0  0  0  0  0  0  0
    2.1635   -2.8192   -2.6501 H   0  0  0  0  0  0  0  0  0  0  0  0
   -1.6656   -3.0837   -5.6939 H   0  0  0  0  0  0  0  0  0  0  0  0
   -4.0018   -2.7551   -6.4101 H   0  0  0  0  0  0  0  0  0  0  0  0
   -5.5970   -1.5934   -4.9331 H   0  0  0  0  0  0  0  0  0  0  0  0
   -4.8582   -0.7456   -2.7368 H   0  0  0  0  0  0  0  0  0  0  0  0
   -2.5096   -1.0610   -2.0210 H   0  0  0  0  0  0  0  0  0  0  0  0
    0.7966   -0.1437   -4.6604 H   0  0  0  0  0  0  0  0  0  0  0  0
    2.0668    0.0621   -6.7767 H   0  0  0  0  0  0  0  0  0  0  0  0
    2.6949   -1.9673   -8.0314 H   0  0  0  0  0  0  0  0  0  0  0  0
    2.0541   -4.1919   -7.1867 H   0  0  0  0  0  0  0  0  0  0  0  0
    0.7805   -4.4001   -5.0858 H   0  0  0  0  0  0  0  0  0  0  0  0
  1  2  1  0  0  0  0
  3 17  1  0  0  0  0
  3  1  1  0  0  0  0
  4  5  1  0  0  0  0
  5  6  2  0  0  0  0
  5 10  1  0  0  0  0
  6  7  1  0  0  0  0
  7 32  1  0  0  0  0
  7  8  2  0  0  0  0
  8 33  1  0  0  0  0
  9  8  1  0  0  0  0
  9 34  1  0  0  0  0
 10  9  2  0  0  0  0
 11 10  1  0  0  0  0
 11 12  1  0  0  0  0
 12 35  1  0  0  0  0
 13 12  2  0  0  0  0
 13 36  1  0  0  0  0
 14 13  1  0  0  0  0
 15 16  1  0  0  0  0
 15 14  2  0  0  0  0
 16 11  2  0  0  0  0
 17  4  2  0  0  0  0
 17 16  1  0  0  0  0
 18  3  1  0  0  0  0
 18 23  1  0  0  0  0
 19 18  2  0  0  0  0
 20 19  1  0  0  0  0
 20 21  2  0  0  0  0
 21 22  1  0  0  0  0
 22 23  2  0  0  0  0
 22 42  1  0  0  0  0
 23 43  1  0  0  0  0
 24  3  1  0  0  0  0
 25 24  1  0  0  0  0
 25 44  1  0  0  0  0
 26 25  2  0  0  0  0
 27 28  2  0  0  0  0
 27 26  1  0  0  0  0
 28 29  1  0  0  0  0
 29 48  1  0  0  0  0
 29 24  2  0  0  0  0
 30  4  1  0  0  0  0
 31  6  1  0  0  0  0
 37 14  1  0  0  0  0
 38 15  1  0  0  0  0
 39 19  1  0  0  0  0
 40 20  1  0  0  0  0
 41 21  1  0  0  0  0
 45 26  1  0  0  0  0
 46 27  1  0  0  0  0
 47 28  1  0  0  0  0
M  END
$$$$
