CSD_code = RAQJID | q = 0 | S = 0 | Stoichiometry = C25H29ClO4P2Pt | MND = 4
 OpenBabel04212202093D

 62 64  0  0  1  0  0  0  0  0999 V2000
    6.7680   10.6886    3.6814 Pt  0  0  0  0  0  0  0  0  0  0  0  0
    4.5104   11.7049    1.9704 P   0  0  0  0  0  0  0  0  0  0  0  0
    4.9836   11.5582    4.7865 P   0  0  0  0  0  4  0  0  0  0  0  0
    8.2640    9.5753    2.4269 Cl  0  0  0  0  0  0  0  0  0  0  0  0
    7.5108   10.1868    5.4446 C   0  0  0  0  0  0  0  0  0  0  0  0
    4.0517   10.2005    2.2071 O   0  0  0  0  0  0  0  0  0  0  0  0
    3.8001   10.2797    5.2817 C   0  0  0  0  0  0  0  0  0  0  0  0
    4.7495   12.3043    7.4857 C   0  0  0  0  0  0  0  0  0  0  0  0
    4.3876   11.3031    7.6610 H   0  0  0  0  0  0  0  0  0  0  0  0
    3.5378   12.1688    0.7823 O   0  0  0  0  0  0  0  0  0  0  0  0
    5.9299   11.8821    1.6149 O   0  0  0  0  0  0  0  0  0  0  0  0
    4.0310   12.5606    3.5178 C   0  0  2  0  0  0  0  0  0  0  0  0
    4.5550   13.5234    3.4684 H   0  0  0  0  0  0  0  0  0  0  0  0
    2.5825   12.7723    3.7618 C   0  0  0  0  0  0  0  0  0  0  0  0
    0.2940   12.0604    3.5674 C   0  0  0  0  0  0  0  0  0  0  0  0
   -0.4319   11.3455    3.2096 H   0  0  0  0  0  0  0  0  0  0  0  0
    4.6793    9.1860    1.4016 C   0  0  0  0  0  0  0  0  0  0  0  0
    5.6619    8.9539    1.8359 H   0  0  0  0  0  0  0  0  0  0  0  0
    4.8299    9.5675    0.3868 H   0  0  0  0  0  0  0  0  0  0  0  0
    4.1301    8.9575    5.0043 C   0  0  0  0  0  0  0  0  0  0  0  0
    5.0912    8.7412    4.5449 H   0  0  0  0  0  0  0  0  0  0  0  0
    2.1589   13.8898    4.4764 C   0  0  0  0  0  0  0  0  0  0  0  0
    2.8878   14.6037    4.8352 H   0  0  0  0  0  0  0  0  0  0  0  0
    5.6266   13.9647    5.9875 C   0  0  0  0  0  0  0  0  0  0  0  0
    5.9516   14.2555    4.9965 H   0  0  0  0  0  0  0  0  0  0  0  0
    1.7078    9.5527    6.2067 C   0  0  0  0  0  0  0  0  0  0  0  0
    0.7640    9.7847    6.6781 H   0  0  0  0  0  0  0  0  0  0  0  0
    4.9075   13.1849    8.5408 C   0  0  0  0  0  0  0  0  0  0  0  0
    4.6451   12.8734    9.5410 H   0  0  0  0  0  0  0  0  0  0  0  0
    2.0349    8.2381    5.9171 C   0  0  0  0  0  0  0  0  0  0  0  0
    1.3442    7.4446    6.1620 H   0  0  0  0  0  0  0  0  0  0  0  0
    6.7636   10.1230    6.3918 O   0  0  0  0  0  0  0  0  0  0  0  0
    3.7849    7.9631    1.3969 C   0  0  0  0  0  0  0  0  0  0  0  0
    4.2669    7.1634    0.8418 H   0  0  0  0  0  0  0  0  0  0  0  0
    2.8301    8.1964    0.9314 H   0  0  0  0  0  0  0  0  0  0  0  0
    3.6035    7.6340    2.4165 H   0  0  0  0  0  0  0  0  0  0  0  0
    5.0805   12.6997    6.1947 C   0  0  0  0  0  0  0  0  0  0  0  0
    1.6383   11.8581    3.3111 C   0  0  0  0  0  0  0  0  0  0  0  0
    1.9650   10.9913    2.7596 H   0  0  0  0  0  0  0  0  0  0  0  0
    3.2510    7.9396    5.3235 C   0  0  0  0  0  0  0  0  0  0  0  0
    3.5124    6.9124    5.1146 H   0  0  0  0  0  0  0  0  0  0  0  0
    2.5873   10.5748    5.8973 C   0  0  0  0  0  0  0  0  0  0  0  0
    2.3332   11.5965    6.1409 H   0  0  0  0  0  0  0  0  0  0  0  0
    3.9493   13.2014   -0.1034 C   0  0  0  0  0  0  0  0  0  0  0  0
    3.3093   13.0975   -0.9835 H   0  0  0  0  0  0  0  0  0  0  0  0
    4.9933   13.0362   -0.3874 H   0  0  0  0  0  0  0  0  0  0  0  0
    5.4093   14.4569    8.3220 C   0  0  0  0  0  0  0  0  0  0  0  0
    5.5296   15.1420    9.1480 H   0  0  0  0  0  0  0  0  0  0  0  0
    5.7795   14.8426    7.0435 C   0  0  0  0  0  0  0  0  0  0  0  0
    6.1971   15.8243    6.8732 H   0  0  0  0  0  0  0  0  0  0  0  0
    0.8148   14.0853    4.7367 C   0  0  0  0  0  0  0  0  0  0  0  0
    0.4985   14.9542    5.2947 H   0  0  0  0  0  0  0  0  0  0  0  0
   -0.1213   13.1710    4.2825 C   0  0  0  0  0  0  0  0  0  0  0  0
   -1.1705   13.3258    4.4849 H   0  0  0  0  0  0  0  0  0  0  0  0
    8.9938    9.9809    5.5342 C   0  0  0  0  0  0  0  0  0  0  0  0
    9.2887    9.8270    6.5714 H   0  0  0  0  0  0  0  0  0  0  0  0
    9.5060   10.8488    5.1186 H   0  0  0  0  0  0  0  0  0  0  0  0
    9.2744    9.1214    4.9259 H   0  0  0  0  0  0  0  0  0  0  0  0
    3.7906   14.5740    0.5264 C   0  0  0  0  0  0  0  0  0  0  0  0
    3.9716   15.3446   -0.2181 H   0  0  0  0  0  0  0  0  0  0  0  0
    4.5086   14.6926    1.3351 H   0  0  0  0  0  0  0  0  0  0  0  0
    2.7852   14.6899    0.9257 H   0  0  0  0  0  0  0  0  0  0  0  0
  1  3  1  0  0  0  0
  1  5  1  0  0  0  0
  2  6  1  0  0  0  0
  2 12  1  0  0  0  0
  3  7  1  0  0  0  0
  3 37  1  0  0  0  0
  4  1  1  0  0  0  0
  5 55  1  0  0  0  0
  5 32  2  0  0  0  0
  7 42  1  0  0  0  0
  8  9  1  0  0  0  0
  8 28  1  0  0  0  0
 10  2  1  0  0  0  0
 11  2  2  0  0  0  0
 12 13  1  6  0  0  0
 12 14  1  0  0  0  0
 12  3  1  0  0  0  0
 14 22  1  0  0  0  0
 15 53  2  0  0  0  0
 16 15  1  0  0  0  0
 17 18  1  0  0  0  0
 17  6  1  0  0  0  0
 19 17  1  0  0  0  0
 20  7  2  0  0  0  0
 20 40  1  0  0  0  0
 21 20  1  0  0  0  0
 22 51  2  0  0  0  0
 22 23  1  0  0  0  0
 24 37  1  0  0  0  0
 24 49  2  0  0  0  0
 25 24  1  0  0  0  0
 26 27  1  0  0  0  0
 28 29  1  0  0  0  0
 30 31  1  0  0  0  0
 30 26  1  0  0  0  0
 33 17  1  0  0  0  0
 33 36  1  0  0  0  0
 34 33  1  0  0  0  0
 35 33  1  0  0  0  0
 37  8  2  0  0  0  0
 38 15  1  0  0  0  0
 38 14  2  0  0  0  0
 39 38  1  0  0  0  0
 40 30  2  0  0  0  0
 41 40  1  0  0  0  0
 42 43  1  0  0  0  0
 42 26  2  0  0  0  0
 44 59  1  0  0  0  0
 44 10  1  0  0  0  0
 45 44  1  0  0  0  0
 46 44  1  0  0  0  0
 47 28  2  0  0  0  0
 47 48  1  0  0  0  0
 49 47  1  0  0  0  0
 50 49  1  0  0  0  0
 51 52  1  0  0  0  0
 53 54  1  0  0  0  0
 53 51  1  0  0  0  0
 55 56  1  0  0  0  0
 57 55  1  0  0  0  0
 58 55  1  0  0  0  0
 59 62  1  0  0  0  0
 59 61  1  0  0  0  0
 60 59  1  0  0  0  0
M  END
$$$$
