CSD_code = RAQJUQ | q = 1 | S = 0 | Stoichiometry = C23H22BrClN5Os(1+) | MND = 9
 OpenBabel04212202093D

 53 58  0  0  1  0  0  0  0  0999 V2000
    9.5560   11.1481   10.1890 Os  0  0  2  0  0  0  0  0  0  0  0  0
   14.6487   12.4488   16.5275 Br  0  0  0  0  0  0  0  0  0  0  0  0
   10.4551    9.0622   10.1704 Cl  0  0  0  0  0  0  0  0  0  0  0  0
   10.9660   11.7501   11.3859 N   0  0  0  0  0  0  0  0  0  0  0  0
   12.1735   12.3059   11.1694 N   0  0  0  0  0  0  0  0  0  0  0  0
   12.5270   12.5041   10.2453 H   0  0  0  0  0  0  0  0  0  0  0  0
   14.0919   12.8905   12.4802 N   0  0  0  0  0  0  0  0  0  0  0  0
    9.0734   10.4149   14.1865 N   0  0  0  0  0  0  0  0  0  0  0  0
    9.5043   10.4180   15.0962 H   0  0  0  0  0  0  0  0  0  0  0  0
    8.7965   10.6756   11.9926 N   0  0  0  0  0  0  0  0  0  0  0  0
   12.8763   12.3972   12.3305 C   0  0  1  0  0  3  0  0  0  0  0  0
   14.5672   12.8833   13.7074 C   0  0  0  0  0  0  0  0  0  0  0  0
   15.5634   13.2810   13.8330 H   0  0  0  0  0  0  0  0  0  0  0  0
   13.8485   12.3955   14.8107 C   0  0  0  0  0  0  0  0  0  0  0  0
   12.5695   11.8842   14.6639 C   0  0  0  0  0  0  0  0  0  0  0  0
   12.0177   11.5119   15.5119 H   0  0  0  0  0  0  0  0  0  0  0  0
   12.0535   11.8818   13.3695 C   0  0  0  0  0  0  0  0  0  0  0  0
   10.8618   11.4795   12.7121 C   0  0  0  0  0  0  0  0  0  0  0  0
    9.6217   10.8647   13.0354 C   0  0  2  0  0  3  0  0  0  0  0  0
    7.8427    9.8828   13.8756 C   0  0  0  0  0  0  0  0  0  0  0  0
    6.8690    9.2785   14.6562 C   0  0  0  0  0  0  0  0  0  0  0  0
    6.9995    9.1542   15.7189 H   0  0  0  0  0  0  0  0  0  0  0  0
    5.7311    8.8381   14.0110 C   0  0  0  0  0  0  0  0  0  0  0  0
    4.9522    8.3590   14.5824 H   0  0  0  0  0  0  0  0  0  0  0  0
    5.5637    8.9904   12.6314 C   0  0  0  0  0  0  0  0  0  0  0  0
    4.6603    8.6207   12.1728 H   0  0  0  0  0  0  0  0  0  0  0  0
    6.5236    9.5948   11.8483 C   0  0  0  0  0  0  0  0  0  0  0  0
    6.4025    9.7010   10.7823 H   0  0  0  0  0  0  0  0  0  0  0  0
    7.6769   10.0495   12.4809 C   0  0  0  0  0  0  0  0  0  0  0  0
    9.1774   10.7242    7.5651 C   0  0  0  0  0  0  0  0  0  0  0  0
    7.8828   10.7718    8.1173 C   0  0  0  0  0  0  0  0  0  0  0  0
    7.1925    9.9662    7.9058 H   0  0  0  0  0  0  0  0  0  0  0  0
    7.4410   11.8901    8.8342 C   0  0  0  0  0  0  0  0  0  0  0  0
    6.4086   11.9402    9.1568 H   0  0  0  0  0  0  0  0  0  0  0  0
    8.2839   12.9911    9.0661 C   0  0  1  0  0  3  0  0  0  0  0  0
    9.6133   12.9035    8.5908 C   0  0  2  0  0  0  0  0  0  0  0  0
   10.2628   13.7671    8.6749 H   0  0  0  0  0  0  0  0  0  0  0  0
   10.0431   11.8008    7.8269 C   0  0  0  0  0  0  0  0  0  0  0  0
   11.0215   11.8177    7.3636 H   0  0  0  0  0  0  0  0  0  0  0  0
    9.6136    9.5696    6.7298 C   0  0  0  0  0  0  0  0  0  0  0  0
   10.0507    8.8031    7.3739 H   0  0  0  0  0  0  0  0  0  0  0  0
   10.3701    9.8704    6.0094 H   0  0  0  0  0  0  0  0  0  0  0  0
    8.7711    9.1247    6.2063 H   0  0  0  0  0  0  0  0  0  0  0  0
    7.7781   14.2297    9.7647 C   0  0  0  0  0  0  0  0  0  0  0  0
    6.7405   14.0496   10.0652 H   0  0  0  0  0  0  0  0  0  0  0  0
    8.5972   14.5142   11.0279 C   0  0  0  0  0  0  0  0  0  0  0  0
    8.1507   15.3365   11.5803 H   0  0  0  0  0  0  0  0  0  0  0  0
    9.6192   14.7924   10.7800 H   0  0  0  0  0  0  0  0  0  0  0  0
    8.6175   13.6344   11.6756 H   0  0  0  0  0  0  0  0  0  0  0  0
    7.8003   15.4297    8.8139 C   0  0  0  0  0  0  0  0  0  0  0  0
    7.3645   16.2952    9.3047 H   0  0  0  0  0  0  0  0  0  0  0  0
    7.2235   15.2181    7.9168 H   0  0  0  0  0  0  0  0  0  0  0  0
    8.8162   15.6811    8.5200 H   0  0  0  0  0  0  0  0  0  0  0  0
  1  3  1  6  0  0  0
  1  4  1  0  0  0  0
  1 10  1  0  0  0  0
  4 18  1  0  0  0  0
  5  4  1  0  0  0  0
  5 11  1  0  0  0  0
  6  5  1  0  0  0  0
  7 12  2  0  0  0  0
  8  9  1  0  0  0  0
 10 29  1  0  0  0  0
 10 19  1  0  0  0  0
 11  7  1  1  0  0  0
 11 17  1  0  0  0  0
 12 13  1  0  0  0  0
 12 14  1  0  0  0  0
 14  2  1  0  0  0  0
 15 14  2  0  0  0  0
 15 16  1  0  0  0  0
 17 15  1  0  0  0  0
 18 17  2  0  0  0  0
 19 18  1  6  0  0  0
 19  8  1  0  0  0  0
 20  8  1  0  0  0  0
 20 21  1  0  0  0  0
 21 22  1  0  0  0  0
 23 24  1  0  0  0  0
 23 21  2  0  0  0  0
 25 23  1  0  0  0  0
 26 25  1  0  0  0  0
 27 29  1  0  0  0  0
 27 25  2  0  0  0  0
 28 27  1  0  0  0  0
 29 20  2  0  0  0  0
 30 38  2  0  0  0  0
 30 31  1  0  0  0  0
 31 33  2  0  0  0  0
 32 31  1  0  0  0  0
 33 35  1  0  0  0  0
 33 34  1  0  0  0  0
 35 44  1  6  0  0  0
 36 37  1  1  0  0  0
 36 35  1  0  0  0  0
 36  1  1  0  0  0  0
 38 36  1  0  0  0  0
 39 38  1  0  0  0  0
 40 41  1  0  0  0  0
 40 30  1  0  0  0  0
 42 40  1  0  0  0  0
 43 40  1  0  0  0  0
 44 45  1  0  0  0  0
 44 46  1  0  0  0  0
 46 47  1  0  0  0  0
 46 49  1  0  0  0  0
 48 46  1  0  0  0  0
 50 51  1  0  0  0  0
 50 44  1  0  0  0  0
 52 50  1  0  0  0  0
 53 50  1  0  0  0  0
M  END
$$$$
