CSD_code = RAQJEZ | q = 0 | S = 0 | Stoichiometry = C24H29ClO3P2Pt | MND = 4
 OpenBabel04212202093D

 60 63  0  0  1  0  0  0  0  0999 V2000
   12.2570   14.4215    5.9356 Pt  0  0  2  0  0  0  0  0  0  0  0  0
   12.8073   14.9652    3.8202 P   0  0  0  0  0  4  0  0  0  0  0  0
   10.3226   13.5313    3.4771 P   0  0  0  0  0  4  0  0  0  0  0  0
   11.4126   13.8010    7.8966 Cl  0  0  0  0  0  0  0  0  0  0  0  0
   12.0114   13.6365    2.7676 C   0  0  2  0  0  0  0  0  0  0  0  0
   11.9645   13.9263    1.7151 H   0  0  0  0  0  0  0  0  0  0  0  0
    9.7750   12.0411    3.3106 O   0  0  0  0  0  0  0  0  0  0  0  0
    9.5044   14.4144    2.4040 O   0  0  0  0  0  0  0  0  0  0  0  0
   11.9241   16.4446    3.2432 C   0  0  0  0  0  0  0  0  0  0  0  0
   14.4614   15.0304    3.0625 C   0  0  0  0  0  0  0  0  0  0  0  0
   12.7416   12.3497    2.9596 C   0  0  0  0  0  0  0  0  0  0  0  0
   10.1378   13.9389    4.8706 O   0  0  0  0  0  0  0  0  0  0  0  0
   13.4986   11.7992    1.9318 C   0  0  0  0  0  0  0  0  0  0  0  0
   13.5447   12.2990    0.9739 H   0  0  0  0  0  0  0  0  0  0  0  0
   11.6425   16.7458    1.9137 C   0  0  0  0  0  0  0  0  0  0  0  0
   11.9634   16.0858    1.1196 H   0  0  0  0  0  0  0  0  0  0  0  0
   13.3932   10.5242    4.3869 C   0  0  0  0  0  0  0  0  0  0  0  0
   13.3518   10.0335    5.3470 H   0  0  0  0  0  0  0  0  0  0  0  0
    8.1558   14.7412    2.7485 C   0  0  0  0  0  0  0  0  0  0  0  0
    7.7197   13.9183    3.3258 H   0  0  0  0  0  0  0  0  0  0  0  0
    7.6254   14.8341    1.7954 H   0  0  0  0  0  0  0  0  0  0  0  0
   12.6959   11.7035    4.1926 C   0  0  0  0  0  0  0  0  0  0  0  0
   12.1122   12.1230    5.0089 H   0  0  0  0  0  0  0  0  0  0  0  0
   10.9464   17.8997    1.6017 C   0  0  0  0  0  0  0  0  0  0  0  0
   10.7265   18.1305    0.5691 H   0  0  0  0  0  0  0  0  0  0  0  0
    9.7193   11.3826    2.0498 C   0  0  0  0  0  0  0  0  0  0  0  0
   10.5851   10.7157    1.9763 H   0  0  0  0  0  0  0  0  0  0  0  0
    9.7711   12.1213    1.2426 H   0  0  0  0  0  0  0  0  0  0  0  0
    8.4261   10.5893    1.9663 C   0  0  0  0  0  0  0  0  0  0  0  0
    7.5696   11.2574    2.0106 H   0  0  0  0  0  0  0  0  0  0  0  0
    8.3680    9.8961    2.8008 H   0  0  0  0  0  0  0  0  0  0  0  0
    8.3958   10.0314    1.0345 H   0  0  0  0  0  0  0  0  0  0  0  0
   10.5289   18.7585    2.6068 C   0  0  0  0  0  0  0  0  0  0  0  0
    9.9851   19.6570    2.3543 H   0  0  0  0  0  0  0  0  0  0  0  0
   10.8034   18.4623    3.9324 C   0  0  0  0  0  0  0  0  0  0  0  0
   10.4727   19.1273    4.7159 H   0  0  0  0  0  0  0  0  0  0  0  0
   11.4975   17.3088    4.2483 C   0  0  0  0  0  0  0  0  0  0  0  0
   11.7140   17.0504    5.2820 H   0  0  0  0  0  0  0  0  0  0  0  0
    8.0797   16.0312    3.5437 C   0  0  0  0  0  0  0  0  0  0  0  0
    8.5296   16.8464    2.9827 H   0  0  0  0  0  0  0  0  0  0  0  0
    8.6149   15.9134    4.4817 H   0  0  0  0  0  0  0  0  0  0  0  0
    7.0402   16.2688    3.7537 H   0  0  0  0  0  0  0  0  0  0  0  0
   14.1963   10.6205    2.1304 C   0  0  0  0  0  0  0  0  0  0  0  0
   14.7824   10.2039    1.3247 H   0  0  0  0  0  0  0  0  0  0  0  0
   14.1445    9.9809    3.3573 C   0  0  0  0  0  0  0  0  0  0  0  0
   14.6906    9.0625    3.5112 H   0  0  0  0  0  0  0  0  0  0  0  0
   14.8728   16.0052    2.1620 C   0  0  0  0  0  0  0  0  0  0  0  0
   14.2010   16.8029    1.8803 H   0  0  0  0  0  0  0  0  0  0  0  0
   16.1523   15.9615    1.6355 C   0  0  0  0  0  0  0  0  0  0  0  0
   16.4686   16.7201    0.9345 H   0  0  0  0  0  0  0  0  0  0  0  0
   17.0266   14.9538    2.0069 C   0  0  0  0  0  0  0  0  0  0  0  0
   18.0223   14.9234    1.5899 H   0  0  0  0  0  0  0  0  0  0  0  0
   16.6298   13.9966    2.9277 C   0  0  0  0  0  0  0  0  0  0  0  0
   17.3166   13.2221    3.2347 H   0  0  0  0  0  0  0  0  0  0  0  0
   15.3568   14.0403    3.4624 C   0  0  0  0  0  0  0  0  0  0  0  0
   15.0453   13.3188    4.2055 H   0  0  0  0  0  0  0  0  0  0  0  0
   14.0314   14.8609    6.8494 C   0  0  0  0  0  0  0  0  0  0  0  0
   14.7284   15.3668    6.1770 H   0  0  0  0  0  0  0  0  0  0  0  0
   14.4791   13.9258    7.1975 H   0  0  0  0  0  0  0  0  0  0  0  0
   13.8436   15.4950    7.7186 H   0  0  0  0  0  0  0  0  0  0  0  0
  1 57  1  0  0  0  0
  1  4  1  6  0  0  0
  2  1  1  0  0  0  0
  3 12  1  0  0  0  0
  5  6  1  6  0  0  0
  5 11  1  0  0  0  0
  5  3  1  0  0  0  0
  5  2  1  0  0  0  0
  7  3  1  0  0  0  0
  8 19  1  0  0  0  0
  8  3  1  0  0  0  0
  9  2  1  0  0  0  0
  9 37  1  0  0  0  0
 10 55  1  0  0  0  0
 10  2  1  0  0  0  0
 11 22  1  0  0  0  0
 12  1  1  0  0  0  0
 13 43  1  0  0  0  0
 13 11  2  0  0  0  0
 14 13  1  0  0  0  0
 15  9  2  0  0  0  0
 16 15  1  0  0  0  0
 17 18  1  0  0  0  0
 19 20  1  0  0  0  0
 19 39  1  0  0  0  0
 21 19  1  0  0  0  0
 22 17  2  0  0  0  0
 22 23  1  0  0  0  0
 24 15  1  0  0  0  0
 24 33  2  0  0  0  0
 25 24  1  0  0  0  0
 26  7  1  0  0  0  0
 27 26  1  0  0  0  0
 28 26  1  0  0  0  0
 29 30  1  0  0  0  0
 29 26  1  0  0  0  0
 29 31  1  0  0  0  0
 32 29  1  0  0  0  0
 33 35  1  0  0  0  0
 34 33  1  0  0  0  0
 35 37  2  0  0  0  0
 35 36  1  0  0  0  0
 37 38  1  0  0  0  0
 39 42  1  0  0  0  0
 39 41  1  0  0  0  0
 40 39  1  0  0  0  0
 43 45  2  0  0  0  0
 44 43  1  0  0  0  0
 45 46  1  0  0  0  0
 45 17  1  0  0  0  0
 47 10  2  0  0  0  0
 48 47  1  0  0  0  0
 49 51  2  0  0  0  0
 49 47  1  0  0  0  0
 50 49  1  0  0  0  0
 51 53  1  0  0  0  0
 52 51  1  0  0  0  0
 53 54  1  0  0  0  0
 53 55  2  0  0  0  0
 55 56  1  0  0  0  0
 57 59  1  0  0  0  0
 57 60  1  0  0  0  0
 58 57  1  0  0  0  0
M  END
$$$$
