CSD_code = RARKUQ | q = 0 | S = 0 | Stoichiometry = C17H21Cl3Ti | MND = 8
 OpenBabel04212202093D

 42 43  0  0  1  0  0  0  0  0999 V2000
    7.8002    1.7160   11.1869 Ti  0  0  0  0  0  0  0  0  0  0  0  0
    6.5626    1.6313    9.4205 Cl  0  0  0  0  0  0  0  0  0  0  0  0
    6.7499    0.2738   12.4004 Cl  0  0  0  0  0  0  0  0  0  0  0  0
    9.4240    0.4636   10.5170 Cl  0  0  0  0  0  0  0  0  0  0  0  0
    7.5275    3.1731   12.8886 C   0  0  0  0  0  0  0  0  0  0  0  0
    8.9207    2.8989   12.7394 C   0  0  2  0  0  0  0  0  0  0  0  0
    9.3292    3.3763   11.4603 C   0  0  0  0  0  0  0  0  0  0  0  0
    8.1884    3.9258   10.8092 C   0  0  0  0  0  0  0  0  0  0  0  0
    7.0753    3.8025   11.6908 C   0  0  0  0  0  0  0  0  0  0  0  0
    6.7302    3.0440   14.1537 C   0  0  0  0  0  0  0  0  0  0  0  0
    9.8273    2.2562   13.7462 C   0  0  0  0  0  0  0  0  0  0  0  0
   10.7371    3.4323   10.9504 C   0  0  0  0  0  0  0  0  0  0  0  0
    8.1876    4.6152    9.4781 C   0  0  0  0  0  0  0  0  0  0  0  0
    5.6948    4.3265   11.4266 C   0  0  0  0  0  0  0  0  0  0  0  0
    6.7103    4.3961   14.9010 C   0  0  0  0  0  0  0  0  0  0  0  0
    8.1116    4.8498   15.1887 C   0  0  0  0  0  0  0  0  0  0  0  0
    8.8166    5.5920   14.2486 C   0  0  0  0  0  0  0  0  0  0  0  0
   10.1311    5.9550   14.4806 C   0  0  0  0  0  0  0  0  0  0  0  0
   10.7578    5.5835   15.6583 C   0  0  0  0  0  0  0  0  0  0  0  0
   10.0611    4.8508   16.6042 C   0  0  0  0  0  0  0  0  0  0  0  0
    8.7480    4.4840   16.3674 C   0  0  0  0  0  0  0  0  0  0  0  0
    7.1717    2.2835   14.8012 H   0  0  0  0  0  0  0  0  0  0  0  0
    5.7038    2.7385   13.9326 H   0  0  0  0  0  0  0  0  0  0  0  0
   10.4474    3.0102   14.2349 H   0  0  0  0  0  0  0  0  0  0  0  0
   10.4829    1.5315   13.2589 H   0  0  0  0  0  0  0  0  0  0  0  0
    9.2524    1.7374   14.5114 H   0  0  0  0  0  0  0  0  0  0  0  0
   11.1716    4.4080   11.1792 H   0  0  0  0  0  0  0  0  0  0  0  0
   10.7693    3.2867    9.8708 H   0  0  0  0  0  0  0  0  0  0  0  0
   11.3508    2.6658   11.4191 H   0  0  0  0  0  0  0  0  0  0  0  0
    8.4616    5.6658    9.5988 H   0  0  0  0  0  0  0  0  0  0  0  0
    7.2016    4.5674    9.0187 H   0  0  0  0  0  0  0  0  0  0  0  0
    8.9057    4.1510    8.8020 H   0  0  0  0  0  0  0  0  0  0  0  0
    5.3842    4.0936   10.4071 H   0  0  0  0  0  0  0  0  0  0  0  0
    5.6701    5.4118   11.5488 H   0  0  0  0  0  0  0  0  0  0  0  0
    4.9748    3.8846   12.1134 H   0  0  0  0  0  0  0  0  0  0  0  0
    6.2013    5.1361   14.2817 H   0  0  0  0  0  0  0  0  0  0  0  0
    6.1520    4.2770   15.8309 H   0  0  0  0  0  0  0  0  0  0  0  0
    8.3319    5.8885   13.3294 H   0  0  0  0  0  0  0  0  0  0  0  0
   10.6686    6.5309   13.7413 H   0  0  0  0  0  0  0  0  0  0  0  0
   11.7840    5.8671   15.8402 H   0  0  0  0  0  0  0  0  0  0  0  0
   10.5429    4.5625   17.5270 H   0  0  0  0  0  0  0  0  0  0  0  0
    8.2097    3.9087   17.1073 H   0  0  0  0  0  0  0  0  0  0  0  0
  1  3  1  0  0  0  0
  1  6  1  0  0  0  0
  2  1  1  0  0  0  0
  4  1  1  0  0  0  0
  5 10  1  0  0  0  0
  6  5  1  0  0  0  0
  6 11  1  1  0  0  0
  7  6  1  0  0  0  0
  8  7  2  0  0  0  0
  8  9  1  0  0  0  0
  9  5  2  0  0  0  0
 10 22  1  0  0  0  0
 10 15  1  0  0  0  0
 11 24  1  0  0  0  0
 11 26  1  0  0  0  0
 12 27  1  0  0  0  0
 12 29  1  0  0  0  0
 12  7  1  0  0  0  0
 13 30  1  0  0  0  0
 13  8  1  0  0  0  0
 14 34  1  0  0  0  0
 14  9  1  0  0  0  0
 14 35  1  0  0  0  0
 15 16  1  0  0  0  0
 15 37  1  0  0  0  0
 16 21  1  0  0  0  0
 17 18  1  0  0  0  0
 17 16  2  0  0  0  0
 18 19  2  0  0  0  0
 19 40  1  0  0  0  0
 19 20  1  0  0  0  0
 20 41  1  0  0  0  0
 21 20  2  0  0  0  0
 21 42  1  0  0  0  0
 23 10  1  0  0  0  0
 25 11  1  0  0  0  0
 28 12  1  0  0  0  0
 31 13  1  0  0  0  0
 32 13  1  0  0  0  0
 33 14  1  0  0  0  0
 36 15  1  0  0  0  0
 38 17  1  0  0  0  0
 39 18  1  0  0  0  0
M  END
$$$$
