CSD_code = RARQAC | q = 0 | S = 0 | Stoichiometry = C24H24Cl2Zr | MND = 12
 OpenBabel04212202093D

 51 55  0  0  1  0  0  0  0  0999 V2000
    1.8852    3.6269    6.6140 Zr  0  0  0  0  0  0  0  0  0  0  0  0
    1.4447    3.0195    4.4208 Cl  0  0  0  0  0  0  0  0  0  0  0  0
    3.1029    5.5109    5.9298 Cl  0  0  0  0  0  0  0  0  0  0  0  0
   -0.0471    3.2005    8.0498 C   0  0  1  0  0  0  0  0  0  0  0  0
    0.6167    4.2863    8.6755 C   0  0  0  0  0  0  0  0  0  0  0  0
    0.6153    5.4064    7.8268 C   0  0  0  0  0  0  0  0  0  0  0  0
   -0.1236    5.0569    6.6549 C   0  0  0  0  0  0  0  0  0  0  0  0
   -0.4658    5.8319    5.5190 C   0  0  0  0  0  0  0  0  0  0  0  0
   -1.2646    5.2426    4.5720 C   0  0  0  0  0  0  0  0  0  0  0  0
   -1.7165    3.9201    4.7076 C   0  0  0  0  0  0  0  0  0  0  0  0
   -1.3811    3.1170    5.7709 C   0  0  0  0  0  0  0  0  0  0  0  0
   -0.5572    3.6753    6.7894 C   0  0  0  0  0  0  0  0  0  0  0  0
   -0.1472    1.8362    8.6831 C   0  0  0  0  0  0  0  0  0  0  0  0
    0.0232    7.2437    5.4014 C   0  0  0  0  0  0  0  0  0  0  0  0
   -1.8621    1.6952    5.8098 C   0  0  0  0  0  0  0  0  0  0  0  0
    2.3551    1.7791    8.2204 C   0  0  0  0  0  0  0  0  0  0  0  0
    3.2347    2.8372    8.5612 C   0  0  0  0  0  0  0  0  0  0  0  0
    4.1264    3.0866    7.5012 C   0  0  0  0  0  0  0  0  0  0  0  0
    3.8282    2.1523    6.4635 C   0  0  2  0  0  0  0  0  0  0  0  0
    4.4244    1.9656    5.1908 C   0  0  0  0  0  0  0  0  0  0  0  0
    3.9719    0.9176    4.4309 C   0  0  0  0  0  0  0  0  0  0  0  0
    2.9637    0.0532    4.8911 C   0  0  0  0  0  0  0  0  0  0  0  0
    2.3279    0.2177    6.0979 C   0  0  0  0  0  0  0  0  0  0  0  0
    2.7266    1.3154    6.9121 C   0  0  0  0  0  0  0  0  0  0  0  0
    1.2480    1.3162    9.1315 C   0  0  0  0  0  0  0  0  0  0  0  0
    5.4911    2.9113    4.7285 C   0  0  0  0  0  0  0  0  0  0  0  0
    1.3186   -0.7935    6.5611 C   0  0  0  0  0  0  0  0  0  0  0  0
    0.9733    4.2848    9.6989 H   0  0  0  0  0  0  0  0  0  0  0  0
    0.9736    6.3963    8.0793 H   0  0  0  0  0  0  0  0  0  0  0  0
   -1.5592    5.8023    3.6966 H   0  0  0  0  0  0  0  0  0  0  0  0
   -2.3453    3.5160    3.9276 H   0  0  0  0  0  0  0  0  0  0  0  0
   -0.5849    1.1329    7.9771 H   0  0  0  0  0  0  0  0  0  0  0  0
   -0.8049    1.8702    9.5591 H   0  0  0  0  0  0  0  0  0  0  0  0
    1.1139    7.2629    5.4102 H   0  0  0  0  0  0  0  0  0  0  0  0
   -0.3268    7.6945    4.4767 H   0  0  0  0  0  0  0  0  0  0  0  0
   -0.3328    7.8424    6.2399 H   0  0  0  0  0  0  0  0  0  0  0  0
   -1.0197    1.0159    5.6650 H   0  0  0  0  0  0  0  0  0  0  0  0
   -2.5701    1.5218    5.0032 H   0  0  0  0  0  0  0  0  0  0  0  0
   -2.3573    1.4671    6.7529 H   0  0  0  0  0  0  0  0  0  0  0  0
    3.2980    3.3009    9.5400 H   0  0  0  0  0  0  0  0  0  0  0  0
    4.9691    3.7661    7.5259 H   0  0  0  0  0  0  0  0  0  0  0  0
    4.4003    0.7382    3.4561 H   0  0  0  0  0  0  0  0  0  0  0  0
    2.6805   -0.7769    4.2601 H   0  0  0  0  0  0  0  0  0  0  0  0
    1.2169    0.2267    9.1929 H   0  0  0  0  0  0  0  0  0  0  0  0
    1.4609    1.6917   10.1365 H   0  0  0  0  0  0  0  0  0  0  0  0
    6.3465    2.8886    5.4038 H   0  0  0  0  0  0  0  0  0  0  0  0
    5.0972    3.9304    4.7134 H   0  0  0  0  0  0  0  0  0  0  0  0
    5.8276    2.6519    3.7284 H   0  0  0  0  0  0  0  0  0  0  0  0
    1.7082   -1.3476    7.4156 H   0  0  0  0  0  0  0  0  0  0  0  0
    0.3835   -0.3251    6.8584 H   0  0  0  0  0  0  0  0  0  0  0  0
    1.1081   -1.5035    5.7652 H   0  0  0  0  0  0  0  0  0  0  0  0
  1  4  1  0  0  0  0
  2  1  1  0  0  0  0
  3  1  1  0  0  0  0
  4 12  1  6  0  0  0
  4  5  1  0  0  0  0
  4 13  1  0  0  0  0
  5 28  1  0  0  0  0
  6 29  1  0  0  0  0
  6  5  2  0  0  0  0
  7 12  1  0  0  0  0
  7  6  1  0  0  0  0
  8  7  2  0  0  0  0
  9 10  2  0  0  0  0
  9  8  1  0  0  0  0
 10 11  1  0  0  0  0
 11 15  1  0  0  0  0
 11 12  2  0  0  0  0
 13 25  1  0  0  0  0
 13 33  1  0  0  0  0
 14 34  1  0  0  0  0
 14  8  1  0  0  0  0
 14 36  1  0  0  0  0
 15 39  1  0  0  0  0
 16 17  1  0  0  0  0
 16 25  1  0  0  0  0
 17 40  1  0  0  0  0
 18 41  1  0  0  0  0
 18 17  2  0  0  0  0
 19 20  1  6  0  0  0
 19  1  1  0  0  0  0
 19 24  1  0  0  0  0
 19 18  1  0  0  0  0
 21 22  1  0  0  0  0
 21 20  2  0  0  0  0
 22 23  2  0  0  0  0
 23 27  1  0  0  0  0
 23 24  1  0  0  0  0
 24 16  2  0  0  0  0
 25 44  1  0  0  0  0
 25 45  1  0  0  0  0
 26 20  1  0  0  0  0
 26 46  1  0  0  0  0
 27 50  1  0  0  0  0
 27 49  1  0  0  0  0
 30  9  1  0  0  0  0
 31 10  1  0  0  0  0
 32 13  1  0  0  0  0
 35 14  1  0  0  0  0
 37 15  1  0  0  0  0
 38 15  1  0  0  0  0
 42 21  1  0  0  0  0
 43 22  1  0  0  0  0
 47 26  1  0  0  0  0
 48 26  1  0  0  0  0
 51 27  1  0  0  0  0
M  END
$$$$
