CSD_code = RARTUB | q = 0 | S = 0 | Stoichiometry = C26H28Cl2N8Zn | MND = 4
 OpenBabel04212202093D

 65 68  0  0  0  0  0  0  0  0999 V2000
    2.8834   -0.9736   20.3862 Zn  0  0  0  0  0  0  0  0  0  0  0  0
    0.8600   -1.8615   20.1475 Cl  0  0  0  0  0  0  0  0  0  0  0  0
    3.0789    0.2462   18.6913 N   0  0  0  0  0  0  0  0  0  0  0  0
    3.5112    2.2811   15.1210 N   0  0  0  0  0  0  0  0  0  0  0  0
    3.2949    1.9758   13.9241 N   0  0  0  0  0  0  0  0  0  0  0  0
    3.4130    5.7471    9.8632 N   0  0  0  0  0  0  0  0  0  0  0  0
    2.0196    0.5264   17.9284 C   0  0  0  0  0  3  0  0  0  0  0  0
    1.0639    0.2076   18.3205 H   0  0  0  0  0  0  0  0  0  0  0  0
    2.1106    1.1426   16.7062 C   0  0  0  0  0  0  0  0  0  0  0  0
    1.2291    1.3449   16.1187 H   0  0  0  0  0  0  0  0  0  0  0  0
    3.3789    1.5070   16.2078 C   0  0  0  0  0  0  0  0  0  0  0  0
    4.4856    1.2241   17.0329 C   0  0  0  0  0  0  0  0  0  0  0  0
    5.4800    1.4730   16.6989 H   0  0  0  0  0  0  0  0  0  0  0  0
    4.2856    0.5950   18.2349 C   0  0  0  0  0  0  0  0  0  0  0  0
    5.1187    0.3348   18.8723 H   0  0  0  0  0  0  0  0  0  0  0  0
    3.3440    2.9601   12.9777 C   0  0  0  0  0  0  0  0  0  0  0  0
    3.5113    4.3311   13.2404 C   0  0  0  0  0  0  0  0  0  0  0  0
    3.6175    4.6509   14.2667 H   0  0  0  0  0  0  0  0  0  0  0  0
    3.5326    5.2434   12.2207 C   0  0  0  0  0  0  0  0  0  0  0  0
    3.6504    6.2865   12.4640 H   0  0  0  0  0  0  0  0  0  0  0  0
    3.3895    4.8409   10.8746 C   0  0  0  0  0  0  0  0  0  0  0  0
    3.2193    3.4637   10.6210 C   0  0  0  0  0  0  0  0  0  0  0  0
    3.1153    3.1073    9.6100 H   0  0  0  0  0  0  0  0  0  0  0  0
    3.1959    2.5525   11.6437 C   0  0  0  0  0  0  0  0  0  0  0  0
    3.0697    1.5004   11.4407 H   0  0  0  0  0  0  0  0  0  0  0  0
    3.7060    7.1363   10.1220 C   0  0  0  0  0  0  0  0  0  0  0  0
    2.8970    7.6182   10.6801 H   0  0  0  0  0  0  0  0  0  0  0  0
    3.8303    7.6628    9.1791 H   0  0  0  0  0  0  0  0  0  0  0  0
    4.6336    7.2386   10.6900 H   0  0  0  0  0  0  0  0  0  0  0  0
    3.1575    5.3408    8.5022 C   0  0  0  0  0  0  0  0  0  0  0  0
    3.9692    4.7191    8.1112 H   0  0  0  0  0  0  0  0  0  0  0  0
    3.0675    6.2214    7.8713 H   0  0  0  0  0  0  0  0  0  0  0  0
    2.2225    4.7802    8.4342 H   0  0  0  0  0  0  0  0  0  0  0  0
    4.9068   -1.8615   20.6249 Cl  0  0  0  0  0  0  0  0  0  0  0  0
    2.6879    0.2462   22.0811 N   0  0  0  0  0  0  0  0  0  0  0  0
    2.2556    2.2811   25.6514 N   0  0  0  0  0  0  0  0  0  0  0  0
    2.4719    1.9758   26.8483 N   0  0  0  0  0  0  0  0  0  0  0  0
    2.3538    5.7471   30.9092 N   0  0  0  0  0  0  0  0  0  0  0  0
    3.7472    0.5263   22.8441 C   0  0  0  0  0  3  0  0  0  0  0  0
    4.7029    0.2075   22.4520 H   0  0  0  0  0  0  0  0  0  0  0  0
    3.6562    1.1425   24.0662 C   0  0  0  0  0  0  0  0  0  0  0  0
    4.5377    1.3449   24.6538 H   0  0  0  0  0  0  0  0  0  0  0  0
    2.3879    1.5070   24.5646 C   0  0  0  0  0  0  0  0  0  0  0  0
    1.2812    1.2241   23.7395 C   0  0  0  0  0  0  0  0  0  0  0  0
    0.2868    1.4730   24.0735 H   0  0  0  0  0  0  0  0  0  0  0  0
    1.4812    0.5950   22.5375 C   0  0  0  0  0  0  0  0  0  0  0  0
    0.6482    0.3348   21.9001 H   0  0  0  0  0  0  0  0  0  0  0  0
    2.4228    2.9601   27.7948 C   0  0  0  0  0  0  0  0  0  0  0  0
    2.2555    4.3311   27.5320 C   0  0  0  0  0  0  0  0  0  0  0  0
    2.1493    4.6509   26.5057 H   0  0  0  0  0  0  0  0  0  0  0  0
    2.2342    5.2434   28.5517 C   0  0  0  0  0  0  0  0  0  0  0  0
    2.1164    6.2865   28.3084 H   0  0  0  0  0  0  0  0  0  0  0  0
    2.3772    4.8409   29.8978 C   0  0  0  0  0  0  0  0  0  0  0  0
    2.5475    3.4637   30.1514 C   0  0  0  0  0  0  0  0  0  0  0  0
    2.6515    3.1073   31.1624 H   0  0  0  0  0  0  0  0  0  0  0  0
    2.5709    2.5525   29.1287 C   0  0  0  0  0  0  0  0  0  0  0  0
    2.6972    1.5004   29.3317 H   0  0  0  0  0  0  0  0  0  0  0  0
    2.0608    7.1363   30.6505 C   0  0  0  0  0  0  0  0  0  0  0  0
    2.8698    7.6182   30.0923 H   0  0  0  0  0  0  0  0  0  0  0  0
    1.9366    7.6628   31.5933 H   0  0  0  0  0  0  0  0  0  0  0  0
    1.1332    7.2386   30.0825 H   0  0  0  0  0  0  0  0  0  0  0  0
    2.6092    5.3408   32.2702 C   0  0  0  0  0  0  0  0  0  0  0  0
    1.7976    4.7190   32.6612 H   0  0  0  0  0  0  0  0  0  0  0  0
    2.6993    6.2213   32.9012 H   0  0  0  0  0  0  0  0  0  0  0  0
    3.5443    4.7802   32.3383 H   0  0  0  0  0  0  0  0  0  0  0  0
  1 34  1  0  0  0  0
  1 35  1  0  0  0  0
  2  1  1  0  0  0  0
  3  1  1  0  0  0  0
  4 11  1  0  0  0  0
  5  4  2  0  0  0  0
  6 26  1  0  0  0  0
  6 21  1  0  0  0  0
  7  8  1  0  0  0  0
  7  3  1  0  0  0  0
  9  7  1  0  0  0  0
 10  9  1  0  0  0  0
 11  9  2  0  0  0  0
 11 12  1  0  0  0  0
 12 14  2  0  0  0  0
 13 12  1  0  0  0  0
 14  3  1  0  0  0  0
 14 15  1  0  0  0  0
 16 17  1  0  0  0  0
 16  5  1  0  0  0  0
 17 18  1  0  0  0  0
 19 20  1  0  0  0  0
 19 17  2  0  0  0  0
 21 19  1  0  0  0  0
 22 21  2  0  0  0  0
 22 24  1  0  0  0  0
 23 22  1  0  0  0  0
 24 16  2  0  0  0  0
 25 24  1  0  0  0  0
 26 27  1  0  0  0  0
 26 29  1  0  0  0  0
 28 26  1  0  0  0  0
 30  6  1  0  0  0  0
 31 30  1  0  0  0  0
 32 30  1  0  0  0  0
 33 30  1  0  0  0  0
 35 46  1  0  0  0  0
 35 39  1  0  0  0  0
 36 37  2  0  0  0  0
 37 48  1  0  0  0  0
 38 62  1  0  0  0  0
 39 41  1  0  0  0  0
 40 39  1  0  0  0  0
 41 43  2  0  0  0  0
 41 42  1  0  0  0  0
 43 36  1  0  0  0  0
 44 45  1  0  0  0  0
 44 43  1  0  0  0  0
 46 44  2  0  0  0  0
 47 46  1  0  0  0  0
 48 56  1  0  0  0  0
 49 48  2  0  0  0  0
 49 51  1  0  0  0  0
 50 49  1  0  0  0  0
 51 53  2  0  0  0  0
 52 51  1  0  0  0  0
 53 54  1  0  0  0  0
 53 38  1  0  0  0  0
 54 55  1  0  0  0  0
 56 57  1  0  0  0  0
 56 54  2  0  0  0  0
 58 38  1  0  0  0  0
 58 60  1  0  0  0  0
 59 58  1  0  0  0  0
 61 58  1  0  0  0  0
 62 65  1  0  0  0  0
 62 63  1  0  0  0  0
 62 64  1  0  0  0  0
M  END
$$$$
