CSD_code = RARWEO | q = 0 | S = 0 | Stoichiometry = C22H25Cl2N2OPRuS | MND = 6
 OpenBabel04212202093D

 55 58  0  0  0  0  0  0  0  0999 V2000
    2.1053    3.2607    1.3333 Ru  0  0  0  0  0  0  0  0  0  0  0  0
    1.6150    1.1473    2.2557 Cl  0  0  0  0  0  0  0  0  0  0  0  0
    0.0254    4.0623    2.1337 Cl  0  0  0  0  0  0  0  0  0  0  0  0
    2.9814    3.8974    3.2849 S   0  0  0  0  0  0  0  0  0  0  0  0
    4.0213    2.5291    0.3401 P   0  0  0  0  0  4  0  0  0  0  0  0
    4.4199    3.7081    3.4049 O   0  0  0  0  0  1  0  0  0  0  0  0
    1.1327    2.3684   -0.4034 N   0  0  0  0  0  4  0  0  0  0  0  0
    2.3136    4.9584    0.5360 N   0  0  0  0  0  2  0  0  0  0  0  0
    1.9912    1.8170   -1.4066 C   0  0  0  0  0  0  0  0  0  0  0  0
    1.4706    1.3259   -2.5984 C   0  0  0  0  0  0  0  0  0  0  0  0
    0.4094    1.4030   -2.7912 H   0  0  0  0  0  0  0  0  0  0  0  0
    2.3032    0.7312   -3.5299 C   0  0  0  0  0  0  0  0  0  0  0  0
    1.8888    0.3518   -4.4516 H   0  0  0  0  0  0  0  0  0  0  0  0
    3.6606    0.6085   -3.2761 C   0  0  0  0  0  0  0  0  0  0  0  0
    4.3041    0.1293   -3.9982 H   0  0  0  0  0  0  0  0  0  0  0  0
    4.1901    1.1098   -2.1016 C   0  0  0  0  0  0  0  0  0  0  0  0
    5.2488    1.0320   -1.8977 H   0  0  0  0  0  0  0  0  0  0  0  0
    3.3663    1.7305   -1.1686 C   0  0  0  0  0  0  0  0  0  0  0  0
    4.9803    3.9234   -0.3247 C   0  0  0  0  0  0  0  0  0  0  0  0
    4.9008    4.3565   -1.6428 C   0  0  0  0  0  0  0  0  0  0  0  0
    4.3187    3.7988   -2.3628 H   0  0  0  0  0  0  0  0  0  0  0  0
    5.5700    5.5041   -2.0342 C   0  0  0  0  0  0  0  0  0  0  0  0
    5.5111    5.8338   -3.0618 H   0  0  0  0  0  0  0  0  0  0  0  0
    6.3101    6.2290   -1.1154 C   0  0  0  0  0  0  0  0  0  0  0  0
    6.8309    7.1233   -1.4265 H   0  0  0  0  0  0  0  0  0  0  0  0
    6.3782    5.8087    0.2049 C   0  0  0  0  0  0  0  0  0  0  0  0
    6.9497    6.3777    0.9237 H   0  0  0  0  0  0  0  0  0  0  0  0
    5.7123    4.6652    0.6025 C   0  0  0  0  0  0  0  0  0  0  0  0
    5.7377    4.3345    1.6328 H   0  0  0  0  0  0  0  0  0  0  0  0
    5.2935    1.3639    0.8998 C   0  0  0  0  0  0  0  0  0  0  0  0
    6.6350    1.5062    0.5575 C   0  0  0  0  0  0  0  0  0  0  0  0
    6.9576    2.3451   -0.0435 H   0  0  0  0  0  0  0  0  0  0  0  0
    7.5575    0.5734    0.9954 C   0  0  0  0  0  0  0  0  0  0  0  0
    8.5991    0.6857    0.7302 H   0  0  0  0  0  0  0  0  0  0  0  0
    7.1513   -0.4986    1.7733 C   0  0  0  0  0  0  0  0  0  0  0  0
    7.8782   -1.2204    2.1165 H   0  0  0  0  0  0  0  0  0  0  0  0
    5.8161   -0.6412    2.1140 C   0  0  0  0  0  0  0  0  0  0  0  0
    5.4990   -1.4747    2.7231 H   0  0  0  0  0  0  0  0  0  0  0  0
    4.8861    0.2854    1.6796 C   0  0  0  0  0  0  0  0  0  0  0  0
    3.8431    0.1876    1.9469 H   0  0  0  0  0  0  0  0  0  0  0  0
    2.2052    3.1480    4.7401 C   0  0  0  0  0  0  0  0  0  0  0  0
    2.6322    3.5931    5.6309 H   0  0  0  0  0  0  0  0  0  0  0  0
    2.4080    2.0819    4.7091 H   0  0  0  0  0  0  0  0  0  0  0  0
    1.1382    3.3308    4.6597 H   0  0  0  0  0  0  0  0  0  0  0  0
    2.6444    5.6387    3.6960 C   0  0  0  0  0  0  0  0  0  0  0  0
    2.9948    5.8443    4.7004 H   0  0  0  0  0  0  0  0  0  0  0  0
    1.5729    5.7827    3.6035 H   0  0  0  0  0  0  0  0  0  0  0  0
    3.1780    6.2495    2.9746 H   0  0  0  0  0  0  0  0  0  0  0  0
    2.3247    6.0065    0.0560 C   0  0  0  0  0  2  0  0  0  0  0  0
    2.3987    7.3102   -0.5403 C   0  0  0  0  0  0  0  0  0  0  0  0
    3.4333    7.5296   -0.8069 H   0  0  0  0  0  0  0  0  0  0  0  0
    2.0377    8.0589    0.1648 H   0  0  0  0  0  0  0  0  0  0  0  0
    1.7812    7.3421   -1.4376 H   0  0  0  0  0  0  0  0  0  0  0  0
    0.3258    2.8517   -0.8087 H   0  0  0  0  0  0  0  0  0  0  0  0
    0.7643    1.5949    0.1852 H   0  0  0  0  0  0  0  0  0  0  0  0
  1  3  1  0  0  0  0
  1  2  1  0  0  0  0
  1  4  1  0  0  0  0
  4  6  1  0  0  0  0
  4 45  1  0  0  0  0
  4 41  1  0  0  0  0
  5 30  1  0  0  0  0
  5  1  1  0  0  0  0
  7 55  1  0  0  0  0
  7  1  1  0  0  0  0
  8  1  1  0  0  0  0
  9 18  1  0  0  0  0
  9  7  1  0  0  0  0
 10  9  2  0  0  0  0
 11 10  1  0  0  0  0
 12 14  2  0  0  0  0
 12 10  1  0  0  0  0
 13 12  1  0  0  0  0
 14 16  1  0  0  0  0
 15 14  1  0  0  0  0
 16 17  1  0  0  0  0
 16 18  2  0  0  0  0
 18  5  1  0  0  0  0
 19  5  1  0  0  0  0
 19 28  1  0  0  0  0
 20 19  2  0  0  0  0
 21 20  1  0  0  0  0
 22 20  1  0  0  0  0
 22 24  2  0  0  0  0
 23 22  1  0  0  0  0
 24 26  1  0  0  0  0
 25 24  1  0  0  0  0
 26 28  2  0  0  0  0
 26 27  1  0  0  0  0
 28 29  1  0  0  0  0
 30 39  1  0  0  0  0
 31 30  2  0  0  0  0
 31 33  1  0  0  0  0
 32 31  1  0  0  0  0
 33 35  2  0  0  0  0
 34 33  1  0  0  0  0
 35 37  1  0  0  0  0
 35 36  1  0  0  0  0
 37 38  1  0  0  0  0
 39 40  1  0  0  0  0
 39 37  2  0  0  0  0
 41 42  1  0  0  0  0
 43 41  1  0  0  0  0
 44 41  1  0  0  0  0
 45 46  1  0  0  0  0
 47 45  1  0  0  0  0
 48 45  1  0  0  0  0
 49  8  1  0  0  0  0
 50 49  1  0  0  0  0
 50 52  1  0  0  0  0
 51 50  1  0  0  0  0
 53 50  1  0  0  0  0
 54  7  1  0  0  0  0
M  END
$$$$
