CSD_code = RARWAK | q = 0 | S = 0 | Stoichiometry = C21H22Cl2NO2PRuS | MND = 6
 OpenBabel04212202093D

 51 54  0  0  0  0  0  0  0  0999 V2000
   10.9783    2.3632   12.5988 Ru  0  0  0  0  0  0  0  0  0  0  0  0
   10.3501    0.0824   12.7072 Cl  0  0  0  0  0  0  0  0  0  0  0  0
   11.7720    4.5957   12.4123 Cl  0  0  0  0  0  0  0  0  0  0  0  0
   12.9044    1.8282   13.8249 P   0  0  0  0  0  4  0  0  0  0  0  0
    9.8802    2.8651   14.4853 S   0  0  0  0  0  0  0  0  0  0  0  0
    8.5574    2.9312   10.9398 O   0  0  0  0  0  1  0  0  0  0  0  0
   10.7799    2.8951   15.6252 O   0  0  0  0  0  1  0  0  0  0  0  0
   12.3752    1.9337   10.9364 N   0  0  0  0  0  4  0  0  0  0  0  0
   11.9578    1.7492   10.0201 H   0  0  0  0  0  0  0  0  0  0  0  0
   12.8262    2.8624   10.9056 H   0  0  0  0  0  0  0  0  0  0  0  0
   13.3238    0.9075   11.2638 C   0  0  0  0  0  0  0  0  0  0  0  0
   13.8262    0.0638   10.2851 C   0  0  0  0  0  0  0  0  0  0  0  0
   13.4916    0.1637    9.2618 H   0  0  0  0  0  0  0  0  0  0  0  0
   14.7453   -0.9160   10.6235 C   0  0  0  0  0  0  0  0  0  0  0  0
   15.1267   -1.5761    9.8596 H   0  0  0  0  0  0  0  0  0  0  0  0
   15.1703   -1.0503   11.9344 C   0  0  0  0  0  0  0  0  0  0  0  0
   15.8871   -1.8141   12.1946 H   0  0  0  0  0  0  0  0  0  0  0  0
   14.6616   -0.2189   12.9171 C   0  0  0  0  0  0  0  0  0  0  0  0
   14.9695   -0.3346   13.9465 H   0  0  0  0  0  0  0  0  0  0  0  0
   13.7313    0.7595   12.5927 C   0  0  0  0  0  0  0  0  0  0  0  0
   13.0143    0.8337   15.3401 C   0  0  0  0  0  0  0  0  0  0  0  0
   13.6785    1.2825   16.4760 C   0  0  0  0  0  0  0  0  0  0  0  0
   14.1645    2.2469   16.4777 H   0  0  0  0  0  0  0  0  0  0  0  0
   13.7152    0.4911   17.6105 C   0  0  0  0  0  0  0  0  0  0  0  0
   14.2326    0.8443   18.4908 H   0  0  0  0  0  0  0  0  0  0  0  0
   13.0924   -0.7453   17.6215 C   0  0  0  0  0  0  0  0  0  0  0  0
   13.1225   -1.3579   18.5109 H   0  0  0  0  0  0  0  0  0  0  0  0
   12.4274   -1.1929   16.4913 C   0  0  0  0  0  0  0  0  0  0  0  0
   11.9370   -2.1553   16.4960 H   0  0  0  0  0  0  0  0  0  0  0  0
   12.3844   -0.4093   15.3536 C   0  0  0  0  0  0  0  0  0  0  0  0
   11.8557   -0.7519   14.4752 H   0  0  0  0  0  0  0  0  0  0  0  0
   14.1135    3.1560   14.0941 C   0  0  0  0  0  0  0  0  0  0  0  0
   13.7344    4.1952   14.9421 C   0  0  0  0  0  0  0  0  0  0  0  0
   12.7629    4.1581   15.4167 H   0  0  0  0  0  0  0  0  0  0  0  0
   14.5917    5.2555   15.1613 C   0  0  0  0  0  0  0  0  0  0  0  0
   14.2955    6.0613   15.8167 H   0  0  0  0  0  0  0  0  0  0  0  0
   15.8263    5.2910   14.5316 C   0  0  0  0  0  0  0  0  0  0  0  0
   16.4940    6.1236   14.6982 H   0  0  0  0  0  0  0  0  0  0  0  0
   16.2009    4.2646   13.6820 C   0  0  0  0  0  0  0  0  0  0  0  0
   17.1604    4.2950   13.1860 H   0  0  0  0  0  0  0  0  0  0  0  0
   15.3474    3.1980   13.4573 C   0  0  0  0  0  0  0  0  0  0  0  0
   15.6429    2.4014   12.7872 H   0  0  0  0  0  0  0  0  0  0  0  0
    8.4978    1.7792   14.9298 C   0  0  0  0  0  0  0  0  0  0  0  0
    8.0990    2.0929   15.8875 H   0  0  0  0  0  0  0  0  0  0  0  0
    8.8964    0.7705   14.9903 H   0  0  0  0  0  0  0  0  0  0  0  0
    7.7557    1.8369   14.1412 H   0  0  0  0  0  0  0  0  0  0  0  0
    8.9995    4.4539   14.4690 C   0  0  0  0  0  0  0  0  0  0  0  0
    8.6230    4.6541   15.4655 H   0  0  0  0  0  0  0  0  0  0  0  0
    8.1991    4.3925   13.7401 H   0  0  0  0  0  0  0  0  0  0  0  0
    9.7178    5.2135   14.1730 H   0  0  0  0  0  0  0  0  0  0  0  0
    9.5078    2.7199   11.5395 C   0  0  0  0  0  2  0  0  0  0  0  0
  1  2  1  0  0  0  0
  1  4  1  0  0  0  0
  1  5  1  0  0  0  0
  3  1  1  0  0  0  0
  4 32  1  0  0  0  0
  4 21  1  0  0  0  0
  5 43  1  0  0  0  0
  5  7  1  0  0  0  0
  6 51  1  0  0  0  0
  8 11  1  0  0  0  0
  8  1  1  0  0  0  0
  9  8  1  0  0  0  0
 10  8  1  0  0  0  0
 11 20  1  0  0  0  0
 12 14  1  0  0  0  0
 12 11  2  0  0  0  0
 13 12  1  0  0  0  0
 14 16  2  0  0  0  0
 15 14  1  0  0  0  0
 16 17  1  0  0  0  0
 16 18  1  0  0  0  0
 18 19  1  0  0  0  0
 20 18  2  0  0  0  0
 20  4  1  0  0  0  0
 21 30  2  0  0  0  0
 21 22  1  0  0  0  0
 22 23  1  0  0  0  0
 22 24  2  0  0  0  0
 24 26  1  0  0  0  0
 24 25  1  0  0  0  0
 26 27  1  0  0  0  0
 28 29  1  0  0  0  0
 28 26  2  0  0  0  0
 30 28  1  0  0  0  0
 31 30  1  0  0  0  0
 32 33  1  0  0  0  0
 33 35  2  0  0  0  0
 33 34  1  0  0  0  0
 35 36  1  0  0  0  0
 37 38  1  0  0  0  0
 37 35  1  0  0  0  0
 39 37  2  0  0  0  0
 40 39  1  0  0  0  0
 41 39  1  0  0  0  0
 41 32  2  0  0  0  0
 42 41  1  0  0  0  0
 43 45  1  0  0  0  0
 43 44  1  0  0  0  0
 46 43  1  0  0  0  0
 47  5  1  0  0  0  0
 47 48  1  0  0  0  0
 49 47  1  0  0  0  0
 50 47  1  0  0  0  0
 51  1  1  0  0  0  0
M  END
$$$$
