CSD_code = RARXOY | q = -1 | S = 0 | Stoichiometry = C12H15Cl3N4S2Y(1-) | MND = 6
 OpenBabel04212202093D

 37 40  0  0  1  0  0  0  0  0999 V2000
   16.5070   -0.5358   10.5007 Y   0  0  0  0  0  0  0  0  0  0  0  0
   17.6802    1.1342    9.0869 Cl  0  0  0  0  0  0  0  0  0  0  0  0
   18.4804   -1.4182   11.7249 Cl  0  0  0  0  0  0  0  0  0  0  0  0
   16.2776   -2.3632    8.8014 Cl  0  0  0  0  0  0  0  0  0  0  0  0
   15.9606    1.4327   12.5736 S   0  0  0  0  0  0  0  0  0  0  0  0
   13.5334    2.2375   14.0900 S   0  0  0  0  0  0  0  0  0  0  0  0
   14.9166   -1.6437   11.9311 N   0  0  0  0  0  0  0  0  0  0  0  0
   13.8527   -1.0566   12.5170 N   0  0  2  0  0  0  0  0  0  0  0  0
   14.3101    0.2827    9.9429 N   0  0  0  0  0  0  0  0  0  0  0  0
   13.3392    0.5784   10.8314 N   0  0  1  0  0  0  0  0  0  0  0  0
   13.4429    0.2995   12.2434 C   0  0  2  0  0  0  0  0  0  0  0  0
   12.4351    0.4117   12.6594 H   0  0  0  0  0  0  0  0  0  0  0  0
   14.3358    1.3248   12.9637 C   0  0  0  0  0  0  0  0  0  0  0  0
   13.3042   -1.8651   13.4542 C   0  0  1  0  0  3  0  0  0  0  0  0
   14.0349   -3.0329   13.4383 C   0  0  0  0  0  0  0  0  0  0  0  0
   13.8766   -3.8989   14.0482 H   0  0  0  0  0  0  0  0  0  0  0  0
   15.0330   -2.8547   12.4692 C   0  0  0  0  0  0  0  0  0  0  0  0
   16.0820   -3.8072   12.0352 C   0  0  0  0  0  0  0  0  0  0  0  0
   16.0554   -3.9196   10.9492 H   0  0  0  0  0  0  0  0  0  0  0  0
   15.9359   -4.7743   12.5100 H   0  0  0  0  0  0  0  0  0  0  0  0
   17.0693   -3.4170   12.2952 H   0  0  0  0  0  0  0  0  0  0  0  0
   12.1483   -1.4714   14.3002 C   0  0  0  0  0  0  0  0  0  0  0  0
   12.3568   -0.5409   14.8280 H   0  0  0  0  0  0  0  0  0  0  0  0
   11.9575   -2.2529   15.0303 H   0  0  0  0  0  0  0  0  0  0  0  0
   11.2486   -1.3332   13.6989 H   0  0  0  0  0  0  0  0  0  0  0  0
   12.3279    1.2578   10.2410 C   0  0  2  0  0  3  0  0  0  0  0  0
   12.6582    1.3687    8.9081 C   0  0  0  0  0  0  0  0  0  0  0  0
   12.0821    1.8436    8.1403 H   0  0  0  0  0  0  0  0  0  0  0  0
   13.9049    0.7429    8.7624 C   0  0  0  0  0  0  0  0  0  0  0  0
   11.1405    1.7616   10.9779 C   0  0  0  0  0  0  0  0  0  0  0  0
   10.5426    0.9384   11.3718 H   0  0  0  0  0  0  0  0  0  0  0  0
   10.5211    2.3444   10.3019 H   0  0  0  0  0  0  0  0  0  0  0  0
   11.4449    2.3958   11.8104 H   0  0  0  0  0  0  0  0  0  0  0  0
   14.7116    0.5612    7.5327 C   0  0  0  0  0  0  0  0  0  0  0  0
   15.6453    1.1237    7.6139 H   0  0  0  0  0  0  0  0  0  0  0  0
   14.1568    0.9005    6.6614 H   0  0  0  0  0  0  0  0  0  0  0  0
   14.9783   -0.4913    7.4157 H   0  0  0  0  0  0  0  0  0  0  0  0
  1  3  1  0  0  0  0
  1  7  1  0  0  0  0
  1  5  1  0  0  0  0
  2  1  1  0  0  0  0
  4  1  1  0  0  0  0
  5 13  1  0  0  0  0
  7 17  1  0  0  0  0
  8  7  1  1  0  0  0
  8 14  1  0  0  0  0
  9  1  1  0  0  0  0
 10  9  1  1  0  0  0
 10 11  1  0  0  0  0
 11  8  1  0  0  0  0
 11 12  1  1  0  0  0
 11 13  1  0  0  0  0
 13  6  2  0  0  0  0
 14 22  1  1  0  0  0
 15 14  1  0  0  0  0
 15 16  1  0  0  0  0
 17 15  2  0  0  0  0
 18 21  1  0  0  0  0
 18 17  1  0  0  0  0
 18 20  1  0  0  0  0
 19 18  1  0  0  0  0
 22 23  1  0  0  0  0
 22 24  1  0  0  0  0
 25 22  1  0  0  0  0
 26 10  1  0  0  0  0
 26 30  1  1  0  0  0
 27 26  1  0  0  0  0
 28 27  1  0  0  0  0
 29 27  2  0  0  0  0
 29  9  1  0  0  0  0
 30 31  1  0  0  0  0
 30 33  1  0  0  0  0
 32 30  1  0  0  0  0
 34 35  1  0  0  0  0
 34 29  1  0  0  0  0
 36 34  1  0  0  0  0
 37 34  1  0  0  0  0
M  END
$$$$
