CSD_code = RARZIV | q = 0 | S = 0 | Stoichiometry = C30H24Cl2HgN2 | MND = 4
 OpenBabel04212202093D

 59 63  0  0  0  0  0  0  0  0999 V2000
    2.6027    3.4689    4.0070 Hg  0  0  0  0  0  0  0  0  0  0  0  0
    2.4798    1.2100    4.3237 Cl  0  0  0  0  0  0  0  0  0  0  0  0
    1.1370    5.1447    3.4954 Cl  0  0  0  0  0  0  0  0  0  0  0  0
    4.3947    4.0463    2.5173 N   0  0  0  0  0  0  0  0  0  0  0  0
    3.9825    4.0584    5.8818 N   0  0  0  0  0  0  0  0  0  0  0  0
    4.9728    5.2638    2.8902 C   0  0  0  0  0  0  0  0  0  0  0  0
    4.7220    6.4261    2.1627 C   0  0  0  0  0  0  0  0  0  0  0  0
    4.0692    6.3751    1.3033 H   0  0  0  0  0  0  0  0  0  0  0  0
    5.2511    7.6349    2.5712 C   0  0  0  0  0  0  0  0  0  0  0  0
    5.0338    8.5313    2.0103 H   0  0  0  0  0  0  0  0  0  0  0  0
    6.0560    7.6934    3.6962 C   0  0  0  0  0  0  0  0  0  0  0  0
    6.4743    8.6354    4.0170 H   0  0  0  0  0  0  0  0  0  0  0  0
    6.3234    6.5396    4.4125 C   0  0  0  0  0  0  0  0  0  0  0  0
    6.9581    6.5775    5.2864 H   0  0  0  0  0  0  0  0  0  0  0  0
    5.7801    5.3196    4.0338 C   0  0  0  0  0  0  0  0  0  0  0  0
    6.1403    4.0993    4.7942 C   0  0  0  0  0  0  0  0  0  0  0  0
    7.4048    3.5496    4.6341 C   0  0  0  0  0  0  0  0  0  0  0  0
    8.0799    3.9980    3.9191 H   0  0  0  0  0  0  0  0  0  0  0  0
    7.8000    2.4426    5.3649 C   0  0  0  0  0  0  0  0  0  0  0  0
    8.7815    2.0195    5.2132 H   0  0  0  0  0  0  0  0  0  0  0  0
    6.9334    1.8807    6.2870 C   0  0  0  0  0  0  0  0  0  0  0  0
    7.2325    1.0142    6.8571 H   0  0  0  0  0  0  0  0  0  0  0  0
    5.6802    2.4287    6.4802 C   0  0  0  0  0  0  0  0  0  0  0  0
    4.9863    1.9800    7.1761 H   0  0  0  0  0  0  0  0  0  0  0  0
    5.2698    3.5324    5.7342 C   0  0  0  0  0  0  0  0  0  0  0  0
    4.4677    3.6329    1.3047 C   0  0  0  0  0  0  0  0  0  0  0  0
    5.0432    4.1928    0.5605 H   0  0  0  0  0  0  0  0  0  0  0  0
    3.8381    2.4238    0.8914 C   0  0  0  0  0  0  0  0  0  0  0  0
    3.3206    1.8745    1.6698 H   0  0  0  0  0  0  0  0  0  0  0  0
    3.8686    1.9729   -0.3784 C   0  0  0  0  0  3  0  0  0  0  0  0
    4.3974    2.5596   -1.1223 H   0  0  0  0  0  0  0  0  0  0  0  0
    3.2472    0.7662   -0.8722 C   0  0  0  0  0  0  0  0  0  0  0  0
    3.3464    0.4676   -2.2367 C   0  0  0  0  0  0  0  0  0  0  0  0
    3.8838    1.1429   -2.8877 H   0  0  0  0  0  0  0  0  0  0  0  0
    2.7668   -0.6713   -2.7581 C   0  0  0  0  0  0  0  0  0  0  0  0
    2.8521   -0.8850   -3.8134 H   0  0  0  0  0  0  0  0  0  0  0  0
    2.0757   -1.5394   -1.9273 C   0  0  0  0  0  0  0  0  0  0  0  0
    1.6215   -2.4309   -2.3336 H   0  0  0  0  0  0  0  0  0  0  0  0
    1.9699   -1.2593   -0.5731 C   0  0  0  0  0  0  0  0  0  0  0  0
    1.4325   -1.9346    0.0758 H   0  0  0  0  0  0  0  0  0  0  0  0
    2.5464   -0.1214   -0.0462 C   0  0  0  0  0  0  0  0  0  0  0  0
    2.4532    0.0766    1.0099 H   0  0  0  0  0  0  0  0  0  0  0  0
    3.5153    4.3248    7.0469 C   0  0  0  0  0  0  0  0  0  0  0  0
    4.1425    4.2095    7.9367 H   0  0  0  0  0  0  0  0  0  0  0  0
    2.1874    4.8094    7.2229 C   0  0  0  0  0  0  0  0  0  0  0  0
    1.6168    4.9549    6.3126 H   0  0  0  0  0  0  0  0  0  0  0  0
    1.6523    5.0749    8.4312 C   0  0  0  0  0  3  0  0  0  0  0  0
    2.2605    4.9076    9.3140 H   0  0  0  0  0  0  0  0  0  0  0  0
    0.3152    5.5582    8.6854 C   0  0  0  0  0  0  0  0  0  0  0  0
   -0.5866    5.8744    7.6617 C   0  0  0  0  0  0  0  0  0  0  0  0
   -0.2960    5.7678    6.6286 H   0  0  0  0  0  0  0  0  0  0  0  0
   -1.8543    6.3297    7.9629 C   0  0  0  0  0  0  0  0  0  0  0  0
   -2.5386    6.5700    7.1630 H   0  0  0  0  0  0  0  0  0  0  0  0
   -2.2533    6.4792    9.2827 C   0  0  0  0  0  0  0  0  0  0  0  0
   -3.2471    6.8342    9.5116 H   0  0  0  0  0  0  0  0  0  0  0  0
   -1.3719    6.1720   10.3075 C   0  0  0  0  0  0  0  0  0  0  0  0
   -1.6778    6.2871   11.3369 H   0  0  0  0  0  0  0  0  0  0  0  0
   -0.1022    5.7185   10.0125 C   0  0  0  0  0  0  0  0  0  0  0  0
    0.5821    5.4790   10.8145 H   0  0  0  0  0  0  0  0  0  0  0  0
  1  2  1  0  0  0  0
  1  5  1  0  0  0  0
  3  1  1  0  0  0  0
  4  6  1  0  0  0  0
  4  1  1  0  0  0  0
  5 43  1  0  0  0  0
  6 15  1  0  0  0  0
  7  9  1  0  0  0  0
  7  6  2  0  0  0  0
  8  7  1  0  0  0  0
  9 11  2  0  0  0  0
 10  9  1  0  0  0  0
 11 12  1  0  0  0  0
 11 13  1  0  0  0  0
 13 14  1  0  0  0  0
 15 13  2  0  0  0  0
 15 16  1  0  0  0  0
 16 25  1  0  0  0  0
 17 16  2  0  0  0  0
 17 19  1  0  0  0  0
 18 17  1  0  0  0  0
 19 21  2  0  0  0  0
 20 19  1  0  0  0  0
 21 23  1  0  0  0  0
 21 22  1  0  0  0  0
 23 24  1  0  0  0  0
 25  5  1  0  0  0  0
 25 23  2  0  0  0  0
 26  4  1  0  0  0  0
 27 26  1  0  0  0  0
 28 26  2  0  0  0  0
 28 29  1  0  0  0  0
 30 28  1  0  0  0  0
 31 30  1  0  0  0  0
 32 30  1  0  0  0  0
 32 41  1  0  0  0  0
 33 32  2  0  0  0  0
 34 33  1  0  0  0  0
 35 33  1  0  0  0  0
 35 37  2  0  0  0  0
 36 35  1  0  0  0  0
 37 39  1  0  0  0  0
 38 37  1  0  0  0  0
 39 41  2  0  0  0  0
 39 40  1  0  0  0  0
 41 42  1  0  0  0  0
 43 45  2  0  0  0  0
 43 44  1  0  0  0  0
 45 47  1  0  0  0  0
 46 45  1  0  0  0  0
 47 49  1  0  0  0  0
 47 48  1  0  0  0  0
 49 58  1  0  0  0  0
 50 52  1  0  0  0  0
 50 49  2  0  0  0  0
 51 50  1  0  0  0  0
 52 54  2  0  0  0  0
 53 52  1  0  0  0  0
 54 55  1  0  0  0  0
 54 56  1  0  0  0  0
 56 57  1  0  0  0  0
 58 56  2  0  0  0  0
 58 59  1  0  0  0  0
M  END
$$$$
