CSD_code = RARZOB | q = 0 | S = 0 | Stoichiometry = C24H16Br2N4Zn | MND = 4
 OpenBabel04212202093D

 47 52  0  0  1  0  0  0  0  0999 V2000
    6.3716    7.5397   10.9948 Zn  0  0  0  0  0  0  0  0  0  0  0  0
    4.7128    9.1438   11.5149 Br  0  0  0  0  0  0  0  0  0  0  0  0
    8.4744    7.3495    9.9395 Br  0  0  0  0  0  0  0  0  0  0  0  0
    6.5191    6.2108   12.6898 N   0  0  0  0  0  0  0  0  0  0  0  0
    6.9542    5.2014   12.0541 N   0  0  0  0  0  0  0  0  0  0  0  0
    5.2773    6.1587    9.6961 N   0  0  0  0  0  0  0  0  0  0  0  0
    4.9276    5.1383   10.3651 N   0  0  0  0  0  0  0  0  0  0  0  0
    6.8717    3.9533   12.5670 C   0  0  0  0  0  0  0  0  0  0  0  0
    7.3786    2.9010   11.7807 C   0  0  0  0  0  0  0  0  0  0  0  0
    7.8451    3.1505   10.8408 H   0  0  0  0  0  0  0  0  0  0  0  0
    7.2688    1.6114   12.2238 C   0  0  0  0  0  0  0  0  0  0  0  0
    7.6512    0.7958   11.6293 H   0  0  0  0  0  0  0  0  0  0  0  0
    6.6559    1.3405   13.4546 C   0  0  0  0  0  0  0  0  0  0  0  0
    6.5728    0.3168   13.7887 H   0  0  0  0  0  0  0  0  0  0  0  0
    6.1669    2.3527   14.2420 C   0  0  0  0  0  0  0  0  0  0  0  0
    5.7042    2.1192   15.1882 H   0  0  0  0  0  0  0  0  0  0  0  0
    6.2665    3.6881   13.8221 C   0  0  0  0  0  0  0  0  0  0  0  0
    5.8061    4.8288   14.5543 C   0  0  0  0  0  0  0  0  0  0  0  0
    5.2186    4.7824   15.8277 C   0  0  0  0  0  0  0  0  0  0  0  0
    5.0864    3.8322   16.3210 H   0  0  0  0  0  0  0  0  0  0  0  0
    4.8189    5.9369   16.4526 C   0  0  0  0  0  0  0  0  0  0  0  0
    4.3679    5.8872   17.4326 H   0  0  0  0  0  0  0  0  0  0  0  0
    4.9899    7.1825   15.8368 C   0  0  0  0  0  0  0  0  0  0  0  0
    4.6696    8.0787   16.3448 H   0  0  0  0  0  0  0  0  0  0  0  0
    5.5583    7.2658   14.5939 C   0  0  0  0  0  0  0  0  0  0  0  0
    5.6951    8.2192   14.1092 H   0  0  0  0  0  0  0  0  0  0  0  0
    5.9682    6.0952   13.9311 C   0  0  1  0  0  3  0  0  0  0  0  0
    4.7650    3.9314    9.7721 C   0  0  0  0  0  0  0  0  0  0  0  0
    4.3809    2.8535   10.5930 C   0  0  0  0  0  0  0  0  0  0  0  0
    4.1795    3.0505   11.6342 H   0  0  0  0  0  0  0  0  0  0  0  0
    4.2732    1.5981   10.0604 C   0  0  0  0  0  0  0  0  0  0  0  0
    3.9844    0.7654   10.6836 H   0  0  0  0  0  0  0  0  0  0  0  0
    4.5411    1.3843    8.7018 C   0  0  0  0  0  0  0  0  0  0  0  0
    4.4590    0.3860    8.2982 H   0  0  0  0  0  0  0  0  0  0  0  0
    4.8978    2.4230    7.8798 C   0  0  0  0  0  0  0  0  0  0  0  0
    5.0918    2.2378    6.8350 H   0  0  0  0  0  0  0  0  0  0  0  0
    5.0103    3.7257    8.3900 C   0  0  0  0  0  0  0  0  0  0  0  0
    5.3470    4.8890    7.6275 C   0  0  0  0  0  0  0  0  0  0  0  0
    5.5758    4.9099    6.2434 C   0  0  0  0  0  3  0  0  0  0  0  0
    5.5054    3.9953    5.6759 H   0  0  0  0  0  0  0  0  0  0  0  0
    5.8824    6.0862    5.6071 C   0  0  0  0  0  0  0  0  0  0  0  0
    6.0594    6.0887    4.5420 H   0  0  0  0  0  0  0  0  0  0  0  0
    5.9629    7.2897    6.3186 C   0  0  0  0  0  0  0  0  0  0  0  0
    6.1977    8.2041    5.7969 H   0  0  0  0  0  0  0  0  0  0  0  0
    5.7482    7.3049    7.6699 C   0  0  0  0  0  0  0  0  0  0  0  0
    5.7963    8.2269    8.2317 H   0  0  0  0  0  0  0  0  0  0  0  0
    5.4509    6.1086    8.3462 C   0  0  0  0  0  0  0  0  0  0  0  0
  1  2  1  0  0  0  0
  1  4  1  0  0  0  0
  3  1  1  0  0  0  0
  4 27  1  0  0  0  0
  5  8  2  0  0  0  0
  5  4  1  0  0  0  0
  6  7  1  0  0  0  0
  6  1  1  0  0  0  0
  8 17  1  0  0  0  0
  9 11  2  0  0  0  0
  9  8  1  0  0  0  0
 10  9  1  0  0  0  0
 11 13  1  0  0  0  0
 12 11  1  0  0  0  0
 13 14  1  0  0  0  0
 13 15  2  0  0  0  0
 15 16  1  0  0  0  0
 17 15  1  0  0  0  0
 17 18  2  0  0  0  0
 18 19  1  0  0  0  0
 19 20  1  0  0  0  0
 19 21  2  0  0  0  0
 21 22  1  0  0  0  0
 23 24  1  0  0  0  0
 23 21  1  0  0  0  0
 25 23  2  0  0  0  0
 26 25  1  0  0  0  0
 27 18  1  1  0  0  0
 27 25  1  0  0  0  0
 28  7  2  0  0  0  0
 28 29  1  0  0  0  0
 29 30  1  0  0  0  0
 31 29  2  0  0  0  0
 31 32  1  0  0  0  0
 33 31  1  0  0  0  0
 34 33  1  0  0  0  0
 35 37  1  0  0  0  0
 35 33  2  0  0  0  0
 36 35  1  0  0  0  0
 37 28  1  0  0  0  0
 38 47  1  0  0  0  0
 38 37  2  0  0  0  0
 39 38  1  0  0  0  0
 40 39  1  0  0  0  0
 41 39  1  0  0  0  0
 41 43  2  0  0  0  0
 42 41  1  0  0  0  0
 43 45  1  0  0  0  0
 44 43  1  0  0  0  0
 45 46  1  0  0  0  0
 45 47  2  0  0  0  0
 47  6  1  0  0  0  0
M  END
$$$$
