CSD_code = RASKOM | q = 0 | S = 0 | Stoichiometry = C16H22Cl2Zr | MND = 12
 OpenBabel04212202093D

 41 43  0  0  1  0  0  0  0  0999 V2000
    6.5265    1.1218    6.0742 Zr  0  0  0  0  0  0  0  0  0  0  0  0
    5.4406    1.7751    8.0476 Cl  0  0  0  0  0  0  0  0  0  0  0  0
    6.6261   -1.1168    6.7861 Cl  0  0  0  0  0  0  0  0  0  0  0  0
    4.0551    2.0702    5.3789 C   0  0  0  0  0  0  0  0  0  0  0  0
    3.3438    2.3214    6.1588 H   0  0  0  0  0  0  0  0  0  0  0  0
    4.8132    3.0301    4.7925 C   0  0  0  0  0  0  0  0  0  0  0  0
    4.7470    4.0617    5.1260 H   0  0  0  0  0  0  0  0  0  0  0  0
    5.6705    2.7152    3.6859 C   0  0  0  0  0  0  0  0  0  0  0  0
    6.1070    3.5087    3.0985 H   0  0  0  0  0  0  0  0  0  0  0  0
    5.9612    1.3902    3.4485 C   0  0  0  0  0  0  0  0  0  0  0  0
    6.6709    1.1226    2.6689 H   0  0  0  0  0  0  0  0  0  0  0  0
    5.3762    0.3668    4.2510 C   0  0  2  0  0  0  0  0  0  0  0  0
    5.5287   -0.6670    3.9249 H   0  0  0  0  0  0  0  0  0  0  0  0
    3.9693    0.6751    4.7711 C   0  0  0  0  0  0  0  0  0  0  0  0
    2.9387    0.6807    3.6220 C   0  0  0  0  0  0  0  0  0  0  0  0
    1.9594    0.9800    3.9888 H   0  0  0  0  0  0  0  0  0  0  0  0
    2.8597   -0.3110    3.1819 H   0  0  0  0  0  0  0  0  0  0  0  0
    3.2492    1.3823    2.8509 H   0  0  0  0  0  0  0  0  0  0  0  0
    3.5271   -0.3432    5.8324 C   0  0  0  0  0  0  0  0  0  0  0  0
    4.1286   -0.2540    6.7439 H   0  0  0  0  0  0  0  0  0  0  0  0
    3.6230   -1.3591    5.4488 H   0  0  0  0  0  0  0  0  0  0  0  0
    2.4833   -0.1759    6.0954 H   0  0  0  0  0  0  0  0  0  0  0  0
    8.1064    2.8052    6.6469 C   0  0  2  0  0  0  0  0  0  0  0  0
    7.7940    3.5071    7.4230 H   0  0  0  0  0  0  0  0  0  0  0  0
    8.1753    3.2527    5.3223 C   0  0  0  0  0  3  0  0  0  0  0  0
    7.7884    4.2351    5.0644 H   0  0  0  0  0  0  0  0  0  0  0  0
    8.7027    2.4373    4.3197 C   0  0  0  0  0  0  0  0  0  0  0  0
    8.7721    2.7810    3.2992 H   0  0  0  0  0  0  0  0  0  0  0  0
    8.9636    1.0909    4.6475 C   0  0  0  0  0  0  0  0  0  0  0  0
    9.1503    0.3746    3.8513 H   0  0  0  0  0  0  0  0  0  0  0  0
    8.9679    0.6756    5.9648 C   0  0  1  0  0  0  0  0  0  0  0  0
    9.2684   -0.3415    6.2097 H   0  0  0  0  0  0  0  0  0  0  0  0
    9.1166    1.7323    7.0569 C   0  0  0  0  0  0  0  0  0  0  0  0
   10.5516    2.2978    7.0834 C   0  0  0  0  0  0  0  0  0  0  0  0
   10.7983    2.7238    6.1136 H   0  0  0  0  0  0  0  0  0  0  0  0
   11.2665    1.5095    7.3083 H   0  0  0  0  0  0  0  0  0  0  0  0
   10.6385    3.0761    7.8384 H   0  0  0  0  0  0  0  0  0  0  0  0
    8.7889    1.1451    8.4368 C   0  0  0  0  0  0  0  0  0  0  0  0
    8.7942    1.9317    9.1918 H   0  0  0  0  0  0  0  0  0  0  0  0
    9.5400    0.4055    8.7132 H   0  0  0  0  0  0  0  0  0  0  0  0
    7.8063    0.6571    8.4461 H   0  0  0  0  0  0  0  0  0  0  0  0
  1 23  1  0  0  0  0
  1  3  1  0  0  0  0
  1  2  1  0  0  0  0
  4  5  1  0  0  0  0
  6  7  1  0  0  0  0
  6  4  2  0  0  0  0
  8  6  1  0  0  0  0
  9  8  1  0  0  0  0
 10  8  2  0  0  0  0
 10 12  1  0  0  0  0
 11 10  1  0  0  0  0
 12 13  1  6  0  0  0
 12 14  1  0  0  0  0
 12  1  1  0  0  0  0
 14  4  1  0  0  0  0
 14 19  1  0  0  0  0
 15 16  1  0  0  0  0
 15 14  1  0  0  0  0
 17 15  1  0  0  0  0
 18 15  1  0  0  0  0
 19 22  1  0  0  0  0
 19 20  1  0  0  0  0
 21 19  1  0  0  0  0
 23 33  1  0  0  0  0
 23 24  1  1  0  0  0
 25 23  1  0  0  0  0
 26 25  1  0  0  0  0
 27 29  2  0  0  0  0
 27 25  1  0  0  0  0
 28 27  1  0  0  0  0
 29 31  1  0  0  0  0
 30 29  1  0  0  0  0
 31  1  1  0  0  0  0
 31 32  1  1  0  0  0
 31 33  1  0  0  0  0
 33 34  1  0  0  0  0
 33 38  1  0  0  0  0
 34 36  1  0  0  0  0
 34 37  1  0  0  0  0
 35 34  1  0  0  0  0
 38 41  1  0  0  0  0
 38 40  1  0  0  0  0
 38 39  1  0  0  0  0
M  END
$$$$
