CSD_code = RASLEE | q = 0 | S = 0 | Stoichiometry = C23H26CuIN6 | MND = 3
 OpenBabel04212202093D

 57 62  0  0  1  0  0  0  0  0999 V2000
    8.2674    1.2556   -1.5196 I   0  0  0  0  0  0  0  0  0  0  0  0
    7.1884    3.4774   -1.1226 Cu  0  0  0  0  0  0  0  0  0  0  0  0
    6.5428    4.6646   -2.5670 N   0  0  2  0  0  0  0  0  0  0  0  0
    6.1722    4.2180   -3.7782 N   0  0  0  0  0  0  0  0  0  0  0  0
    4.4160    2.6525   -3.2538 N   0  0  0  0  0  0  0  0  0  0  0  0
    4.5463    3.0785   -0.8699 N   0  0  0  0  0  0  0  0  0  0  0  0
    5.6372    3.3331    1.2550 N   0  0  1  0  0  0  0  0  0  0  0  0
    6.7242    3.9175    0.7396 N   0  0  0  0  0  0  0  0  0  0  0  0
    7.1993    6.7887   -1.5154 C   0  0  0  0  0  0  0  0  0  0  0  0
    6.9024    6.2956   -0.5922 H   0  0  0  0  0  0  0  0  0  0  0  0
    6.7380    7.7726   -1.5676 H   0  0  0  0  0  0  0  0  0  0  0  0
    8.2821    6.9179   -1.5096 H   0  0  0  0  0  0  0  0  0  0  0  0
    6.7792    5.9642   -2.6763 C   0  0  2  0  0  3  0  0  0  0  0  0
    6.5578    6.3644   -3.9997 C   0  0  0  0  0  0  0  0  0  0  0  0
    6.6715    7.3499   -4.4023 H   0  0  0  0  0  0  0  0  0  0  0  0
    6.1656    5.2300   -4.6779 C   0  0  0  0  0  0  0  0  0  0  0  0
    5.8377    5.0647   -6.1160 C   0  0  0  0  0  0  0  0  0  0  0  0
    4.7848    4.8225   -6.2520 H   0  0  0  0  0  0  0  0  0  0  0  0
    6.4397    4.2747   -6.5640 H   0  0  0  0  0  0  0  0  0  0  0  0
    6.0453    5.9956   -6.6365 H   0  0  0  0  0  0  0  0  0  0  0  0
    5.6667    2.8714   -3.9432 C   0  0  0  0  0  0  0  0  0  0  0  0
    5.5235    2.7061   -5.0140 H   0  0  0  0  0  0  0  0  0  0  0  0
    6.4042    2.1575   -3.5641 H   0  0  0  0  0  0  0  0  0  0  0  0
    3.4573    3.6753   -3.4023 C   0  0  0  0  0  0  0  0  0  0  0  0
    2.8948    3.9445   -4.6268 C   0  0  0  0  0  0  0  0  0  0  0  0
    3.1529    3.3329   -5.4781 H   0  0  0  0  0  0  0  0  0  0  0  0
    1.9791    4.9927   -4.7637 C   0  0  0  0  0  0  0  0  0  0  0  0
    1.5419    5.1873   -5.7321 H   0  0  0  0  0  0  0  0  0  0  0  0
    1.6462    5.7676   -3.6872 C   0  0  0  0  0  0  0  0  0  0  0  0
    0.9563    6.5914   -3.7954 H   0  0  0  0  0  0  0  0  0  0  0  0
    2.1995    5.5155   -2.4150 C   0  0  0  0  0  0  0  0  0  0  0  0
    3.1037    4.4347   -2.2625 C   0  0  0  0  0  0  0  0  0  0  0  0
    3.6783    4.1627   -0.9874 C   0  0  0  0  0  0  0  0  0  0  0  0
    3.3770    4.9974    0.0682 C   0  0  0  0  0  0  0  0  0  0  0  0
    3.8180    4.8479    1.0396 H   0  0  0  0  0  0  0  0  0  0  0  0
    2.4926    6.0689   -0.0941 C   0  0  0  0  0  0  0  0  0  0  0  0
    2.2775    6.6939    0.7606 H   0  0  0  0  0  0  0  0  0  0  0  0
    1.8981    6.3203   -1.2982 C   0  0  0  0  0  0  0  0  0  0  0  0
    1.2032    7.1384   -1.4139 H   0  0  0  0  0  0  0  0  0  0  0  0
    4.4200    2.0872   -1.9391 C   0  0  0  0  0  0  0  0  0  0  0  0
    5.2415    1.3725   -1.8602 H   0  0  0  0  0  0  0  0  0  0  0  0
    3.4651    1.5418   -1.8224 H   0  0  0  0  0  0  0  0  0  0  0  0
    4.7776    2.5127    0.4359 C   0  0  0  0  0  0  0  0  0  0  0  0
    5.2619    1.5371    0.2926 H   0  0  0  0  0  0  0  0  0  0  0  0
    3.8376    2.3637    0.9899 H   0  0  0  0  0  0  0  0  0  0  0  0
    4.4941    2.9747    3.4536 C   0  0  0  0  0  0  0  0  0  0  0  0
    3.5126    3.3305    3.1373 H   0  0  0  0  0  0  0  0  0  0  0  0
    4.6590    3.2871    4.4810 H   0  0  0  0  0  0  0  0  0  0  0  0
    4.4908    1.8852    3.4187 H   0  0  0  0  0  0  0  0  0  0  0  0
    5.5728    3.5264    2.5953 C   0  0  1  0  0  3  0  0  0  0  0  0
    6.6739    4.2845    2.9315 C   0  0  0  0  0  0  0  0  0  0  0  0
    6.9460    4.6288    3.9078 H   0  0  0  0  0  0  0  0  0  0  0  0
    7.3741    4.5008    1.7354 C   0  0  0  0  0  0  0  0  0  0  0  0
    8.6484    5.2351    1.5285 C   0  0  0  0  0  0  0  0  0  0  0  0
    9.0431    5.0158    0.5391 H   0  0  0  0  0  0  0  0  0  0  0  0
    9.3779    4.9321    2.2769 H   0  0  0  0  0  0  0  0  0  0  0  0
    8.4947    6.3107    1.6197 H   0  0  0  0  0  0  0  0  0  0  0  0
  1  2  1  0  0  0  0
  2  8  1  0  0  0  0
  3  4  1  6  0  0  0
  3  2  1  0  0  0  0
  5 40  1  0  0  0  0
  6 43  1  0  0  0  0
  7 43  1  1  0  0  0
  7 50  1  0  0  0  0
  8  7  1  0  0  0  0
  8 53  1  0  0  0  0
  9 12  1  0  0  0  0
  9 10  1  0  0  0  0
 11  9  1  0  0  0  0
 13  3  1  0  0  0  0
 13  9  1  1  0  0  0
 14 13  1  0  0  0  0
 15 14  1  0  0  0  0
 16 14  2  0  0  0  0
 16  4  1  0  0  0  0
 17 16  1  0  0  0  0
 18 17  1  0  0  0  0
 19 17  1  0  0  0  0
 20 17  1  0  0  0  0
 21  4  1  0  0  0  0
 21 23  1  0  0  0  0
 21  5  1  0  0  0  0
 22 21  1  0  0  0  0
 24  5  1  0  0  0  0
 24 32  1  0  0  0  0
 25 24  2  0  0  0  0
 26 25  1  0  0  0  0
 27 25  1  0  0  0  0
 27 29  2  0  0  0  0
 28 27  1  0  0  0  0
 29 31  1  0  0  0  0
 30 29  1  0  0  0  0
 31 32  2  0  0  0  0
 31 38  1  0  0  0  0
 32 33  1  0  0  0  0
 33  6  1  0  0  0  0
 33 34  2  0  0  0  0
 34 35  1  0  0  0  0
 36 34  1  0  0  0  0
 36 37  1  0  0  0  0
 38 36  2  0  0  0  0
 39 38  1  0  0  0  0
 40 41  1  0  0  0  0
 40 42  1  0  0  0  0
 40  6  1  0  0  0  0
 43 45  1  0  0  0  0
 44 43  1  0  0  0  0
 46 48  1  0  0  0  0
 47 46  1  0  0  0  0
 49 46  1  0  0  0  0
 50 51  1  0  0  0  0
 50 46  1  1  0  0  0
 51 52  1  0  0  0  0
 53 51  2  0  0  0  0
 54 57  1  0  0  0  0
 54 53  1  0  0  0  0
 54 56  1  0  0  0  0
 55 54  1  0  0  0  0
M  END
$$$$
