CSD_code = RATKII | q = 0 | S = 0 | Stoichiometry = C19H17ClN2OPdS | MND = 4
 OpenBabel04212202093D

 42 46  0  0  1  0  0  0  0  0999 V2000
    1.3963    4.1455    6.9916 Pd  0  0  2  0  0  0  0  0  0  0  0  0
   -0.8639    4.0959    7.0552 Cl  0  0  0  0  0  0  0  0  0  0  0  0
    1.4348    2.2599    5.7332 S   0  0  2  0  0  3  0  0  0  0  0  0
    1.4098    5.8357    8.1066 O   0  0  0  0  0  0  0  0  0  0  0  0
    4.1637    4.9512    7.5272 N   0  0  0  0  0  0  0  0  0  0  0  0
    3.3690    4.1817    6.8820 N   0  0  0  0  0  0  0  0  0  0  0  0
    3.8077    5.9033    8.3735 C   0  0  0  0  0  0  0  0  0  0  0  0
    2.4476    6.3400    8.6243 C   0  0  0  0  0  0  0  0  0  0  0  0
    2.2703    7.4645    9.5020 C   0  0  0  0  0  0  0  0  0  0  0  0
    1.2494    7.7791    9.6584 H   0  0  0  0  0  0  0  0  0  0  0  0
    3.3072    8.0820   10.1080 C   0  0  0  0  0  0  0  0  0  0  0  0
    3.1304    8.9180   10.7700 H   0  0  0  0  0  0  0  0  0  0  0  0
    5.7231    8.2916   10.5505 C   0  0  0  0  0  0  0  0  0  0  0  0
    5.5143    9.1221   11.2096 H   0  0  0  0  0  0  0  0  0  0  0  0
    7.0143    7.8670   10.3517 C   0  0  0  0  0  0  0  0  0  0  0  0
    7.8340    8.3612   10.8513 H   0  0  0  0  0  0  0  0  0  0  0  0
    7.2648    6.7890    9.5033 C   0  0  0  0  0  0  0  0  0  0  0  0
    8.2801    6.4530    9.3517 H   0  0  0  0  0  0  0  0  0  0  0  0
    6.2285    6.1505    8.8638 C   0  0  0  0  0  0  0  0  0  0  0  0
    6.4218    5.3093    8.2174 H   0  0  0  0  0  0  0  0  0  0  0  0
    4.9041    6.5697    9.0430 C   0  0  2  0  0  3  0  0  0  0  0  0
    4.6523    7.6563    9.9062 C   0  0  0  0  0  0  0  0  0  0  0  0
    3.9705    3.3094    5.9794 C   0  0  0  0  0  0  0  0  0  0  0  0
    3.1762    2.3610    5.3204 C   0  0  0  0  0  0  0  0  0  0  0  0
    3.7293    1.4796    4.4087 C   0  0  0  0  0  0  0  0  0  0  0  0
    3.0965    0.7469    3.9316 H   0  0  0  0  0  0  0  0  0  0  0  0
    5.0805    1.5459    4.1162 C   0  0  0  0  0  0  0  0  0  0  0  0
    5.5099    0.8667    3.3968 H   0  0  0  0  0  0  0  0  0  0  0  0
    5.8780    2.4846    4.7571 C   0  0  0  0  0  0  0  0  0  0  0  0
    6.9326    2.5348    4.5329 H   0  0  0  0  0  0  0  0  0  0  0  0
    5.3376    3.3557    5.6792 C   0  0  0  0  0  0  0  0  0  0  0  0
    5.9492    4.0914    6.1761 H   0  0  0  0  0  0  0  0  0  0  0  0
    0.6964    2.9613    4.2117 C   0  0  0  0  0  0  0  0  0  0  0  0
    0.9525    2.2945    3.3870 H   0  0  0  0  0  0  0  0  0  0  0  0
   -0.3775    2.9236    4.4033 H   0  0  0  0  0  0  0  0  0  0  0  0
    1.1409    4.3923    3.9315 C   0  0  0  0  0  0  0  0  0  0  0  0
    0.8210    5.0445    4.7735 H   0  0  0  0  0  0  0  0  0  0  0  0
    2.2333    4.4307    3.8373 H   0  0  0  0  0  0  0  0  0  0  0  0
    0.5051    4.9028    2.6421 C   0  0  0  0  0  0  0  0  0  0  0  0
    0.7999    4.2840    1.7968 H   0  0  0  0  0  0  0  0  0  0  0  0
    0.8199    5.9242    2.4466 H   0  0  0  0  0  0  0  0  0  0  0  0
   -0.5785    4.8864    2.7238 H   0  0  0  0  0  0  0  0  0  0  0  0
  1  2  1  6  0  0  0
  1  4  1  0  0  0  0
  3 33  1  6  0  0  0
  3  1  1  0  0  0  0
  4  8  1  0  0  0  0
  5  7  2  0  0  0  0
  6  1  1  0  0  0  0
  6  5  1  0  0  0  0
  7  8  1  0  0  0  0
  8  9  2  0  0  0  0
  9 10  1  0  0  0  0
  9 11  1  0  0  0  0
 11 12  1  0  0  0  0
 13 14  1  0  0  0  0
 15 13  2  0  0  0  0
 15 16  1  0  0  0  0
 17 15  1  0  0  0  0
 18 17  1  0  0  0  0
 19 21  1  0  0  0  0
 19 17  2  0  0  0  0
 20 19  1  0  0  0  0
 21  7  1  1  0  0  0
 21 22  1  0  0  0  0
 22 11  2  0  0  0  0
 22 13  1  0  0  0  0
 23  6  1  0  0  0  0
 24  3  1  0  0  0  0
 24 23  2  0  0  0  0
 25 24  1  0  0  0  0
 26 25  1  0  0  0  0
 27 25  2  0  0  0  0
 27 29  1  0  0  0  0
 28 27  1  0  0  0  0
 29 31  2  0  0  0  0
 30 29  1  0  0  0  0
 31 23  1  0  0  0  0
 31 32  1  0  0  0  0
 33 35  1  0  0  0  0
 34 33  1  0  0  0  0
 36 33  1  0  0  0  0
 36 37  1  0  0  0  0
 38 36  1  0  0  0  0
 39 42  1  0  0  0  0
 39 36  1  0  0  0  0
 40 39  1  0  0  0  0
 41 39  1  0  0  0  0
M  END
$$$$
