CSD_code = RATNAC | q = 0 | S = 0 | Stoichiometry = C17H20Cl3O2Ta | MND = 10
 OpenBabel04212202093D

 43 45  0  0  1  0  0  0  0  0999 V2000
   -1.8314    2.7736   11.5367 Ta  0  0  0  0  0  0  0  0  0  0  0  0
   -1.4947    0.7970   10.3472 Cl  0  0  0  0  0  0  0  0  0  0  0  0
   -4.0819    2.6747   11.2035 Cl  0  0  0  0  0  0  0  0  0  0  0  0
   -2.1013    4.0222   13.4876 Cl  0  0  0  0  0  0  0  0  0  0  0  0
    0.3018    2.5301   12.2018 O   0  0  0  0  0  0  0  0  0  0  0  0
   -1.1638    1.2810   13.1964 O   0  0  0  0  0  0  0  0  0  0  0  0
    0.0285    1.6407   13.0548 C   0  0  1  0  0  3  0  0  0  0  0  0
    1.0969    1.0314   13.8724 C   0  0  0  0  0  0  0  0  0  0  0  0
    0.7812    0.0428   14.8011 C   0  0  0  0  0  0  0  0  0  0  0  0
   -0.2479   -0.2636   14.9085 H   0  0  0  0  0  0  0  0  0  0  0  0
    1.7837   -0.5254   15.5638 C   0  0  0  0  0  0  0  0  0  0  0  0
    1.5435   -1.2922   16.2847 H   0  0  0  0  0  0  0  0  0  0  0  0
    3.0971   -0.1112   15.4034 C   0  0  0  0  0  0  0  0  0  0  0  0
    3.8783   -0.5571   16.0012 H   0  0  0  0  0  0  0  0  0  0  0  0
    3.4128    0.8730   14.4789 C   0  0  0  0  0  0  0  0  0  0  0  0
    4.4372    1.1919   14.3581 H   0  0  0  0  0  0  0  0  0  0  0  0
    2.4166    1.4461   13.7121 C   0  0  0  0  0  0  0  0  0  0  0  0
    2.6392    2.2133   12.9866 H   0  0  0  0  0  0  0  0  0  0  0  0
   -1.0152    4.8939   10.5711 C   0  0  2  0  0  0  0  0  0  0  0  0
   -2.2915    5.4763   10.3082 C   0  0  0  0  0  0  0  0  0  0  0  0
   -2.8567    4.8419    9.1890 C   0  0  0  0  0  0  0  0  0  0  0  0
   -1.9675    3.8537    8.7335 C   0  0  1  0  0  3  0  0  0  0  0  0
   -0.8089    3.8590    9.5666 C   0  0  1  0  0  3  0  0  0  0  0  0
    0.0761    5.5736   11.3426 C   0  0  0  0  0  0  0  0  0  0  0  0
    0.8387    4.8591   11.6437 H   0  0  0  0  0  0  0  0  0  0  0  0
   -0.3307    6.0419   12.2359 H   0  0  0  0  0  0  0  0  0  0  0  0
    0.5442    6.3438   10.7278 H   0  0  0  0  0  0  0  0  0  0  0  0
   -2.8905    6.5558   11.1408 C   0  0  0  0  0  0  0  0  0  0  0  0
   -2.3224    7.4809   11.0402 H   0  0  0  0  0  0  0  0  0  0  0  0
   -2.8625    6.2573   12.1897 H   0  0  0  0  0  0  0  0  0  0  0  0
   -3.9223    6.7442   10.8617 H   0  0  0  0  0  0  0  0  0  0  0  0
   -4.2294    5.0816    8.6632 C   0  0  0  0  0  0  0  0  0  0  0  0
   -4.5261    6.1185    8.7971 H   0  0  0  0  0  0  0  0  0  0  0  0
   -4.9324    4.4479    9.2095 H   0  0  0  0  0  0  0  0  0  0  0  0
   -4.2947    4.8355    7.6070 H   0  0  0  0  0  0  0  0  0  0  0  0
   -2.1584    2.9066    7.6006 C   0  0  0  0  0  0  0  0  0  0  0  0
   -2.0076    1.8866    7.9575 H   0  0  0  0  0  0  0  0  0  0  0  0
   -1.4298    3.0969    6.8122 H   0  0  0  0  0  0  0  0  0  0  0  0
   -3.1572    2.9832    7.1832 H   0  0  0  0  0  0  0  0  0  0  0  0
    0.5250    3.3134    9.1534 C   0  0  0  0  0  0  0  0  0  0  0  0
    1.0058    3.9951    8.4502 H   0  0  0  0  0  0  0  0  0  0  0  0
    0.4022    2.3463    8.6709 H   0  0  0  0  0  0  0  0  0  0  0  0
    1.1754    3.1890   10.0160 H   0  0  0  0  0  0  0  0  0  0  0  0
  1  5  1  0  0  0  0
  1  6  1  0  0  0  0
  1  4  1  0  0  0  0
  2  1  1  0  0  0  0
  3  1  1  0  0  0  0
  5  7  1  0  0  0  0
  7  6  1  0  0  0  0
  7  8  1  6  0  0  0
  8  9  1  0  0  0  0
  9 10  1  0  0  0  0
  9 11  2  0  0  0  0
 11 12  1  0  0  0  0
 13 11  1  0  0  0  0
 13 14  1  0  0  0  0
 15 13  2  0  0  0  0
 16 15  1  0  0  0  0
 17  8  2  0  0  0  0
 17 15  1  0  0  0  0
 18 17  1  0  0  0  0
 19 24  1  1  0  0  0
 19  1  1  0  0  0  0
 20 19  1  0  0  0  0
 20 28  1  0  0  0  0
 21 20  2  0  0  0  0
 22 36  1  1  0  0  0
 22 21  1  0  0  0  0
 22 23  1  0  0  0  0
 23 40  1  6  0  0  0
 23 19  1  0  0  0  0
 24 25  1  0  0  0  0
 24 26  1  0  0  0  0
 27 24  1  0  0  0  0
 28 30  1  0  0  0  0
 29 28  1  0  0  0  0
 31 28  1  0  0  0  0
 32 33  1  0  0  0  0
 32 21  1  0  0  0  0
 32 34  1  0  0  0  0
 35 32  1  0  0  0  0
 36 37  1  0  0  0  0
 38 36  1  0  0  0  0
 39 36  1  0  0  0  0
 40 43  1  0  0  0  0
 41 40  1  0  0  0  0
 42 40  1  0  0  0  0
M  END
$$$$
