CSD_code = RATPAE | q = 0 | S = 0 | Stoichiometry = C20H32Cl2N3OTa | MND = 6
 OpenBabel04212202093D

 59 60  0  0  0  0  0  0  0  0999 V2000
   -1.0090    0.6277   16.8215 Ta  0  0  0  0  0  0  0  0  0  0  0  0
   -0.2104   -0.2287   14.8141 Cl  0  0  0  0  0  0  0  0  0  0  0  0
   -2.5060   -1.0985   17.1455 Cl  0  0  0  0  0  0  0  0  0  0  0  0
    0.1974    2.6194   15.9092 N   0  0  0  0  0  0  0  0  0  0  0  0
   -0.4229    3.7772   15.7421 C   0  0  0  0  0  3  0  0  0  0  0  0
    0.1755    4.8649   15.1272 C   0  0  0  0  0  0  0  0  0  0  0  0
    1.4782    4.7321   14.6715 C   0  0  0  0  0  0  0  0  0  0  0  0
    2.1265    3.5202   14.8550 C   0  0  0  0  0  0  0  0  0  0  0  0
    3.1404    3.3754   14.5178 H   0  0  0  0  0  0  0  0  0  0  0  0
    1.4441    2.4883   15.4792 C   0  0  0  0  0  0  0  0  0  0  0  0
   -2.8615    1.4327   15.0985 N   0  0  0  0  0  0  0  0  0  0  0  0
   -2.6576    1.6906   13.8150 C   0  0  0  0  0  3  0  0  0  0  0  0
   -3.6917    1.8912   12.9152 C   0  0  0  0  0  0  0  0  0  0  0  0
   -3.4779    2.0934   11.8772 H   0  0  0  0  0  0  0  0  0  0  0  0
   -4.9960    1.8156   13.3784 C   0  0  0  0  0  0  0  0  0  0  0  0
   -5.2092    1.5468   14.7210 C   0  0  0  0  0  0  0  0  0  0  0  0
   -4.1079    1.3609   15.5411 C   0  0  0  0  0  0  0  0  0  0  0  0
    0.3901    0.1808   17.8436 N   0  0  0  0  0  2  0  0  0  0  0  0
    1.4748   -0.1731   18.6594 C   0  0  0  0  0  0  0  0  0  0  0  0
    2.3995   -0.1054   18.0547 H   0  0  0  0  0  0  0  0  0  0  0  0
    1.3572   -1.6559   19.1157 C   0  0  0  0  0  0  0  0  0  0  0  0
    2.2376   -1.8976   19.7191 H   0  0  0  0  0  0  0  0  0  0  0  0
    0.0953   -1.8930   19.9392 C   0  0  0  0  0  0  0  0  0  0  0  0
    0.1197   -1.3320   20.8699 H   0  0  0  0  0  0  0  0  0  0  0  0
    0.0024   -2.9497   20.1808 H   0  0  0  0  0  0  0  0  0  0  0  0
   -0.7765   -1.5892   19.3634 H   0  0  0  0  0  0  0  0  0  0  0  0
    1.3557   -2.5590   17.8843 C   0  0  0  0  0  0  0  0  0  0  0  0
    1.2761   -3.6028   18.1798 H   0  0  0  0  0  0  0  0  0  0  0  0
    2.2707   -2.4297   17.3103 H   0  0  0  0  0  0  0  0  0  0  0  0
    0.5107   -2.3087   17.2453 H   0  0  0  0  0  0  0  0  0  0  0  0
    1.6262    0.8374   19.8303 C   0  0  0  0  0  0  0  0  0  0  0  0
    0.6831    0.8485   20.3820 H   0  0  0  0  0  0  0  0  0  0  0  0
    1.8485    2.2327   19.2473 C   0  0  0  0  0  0  0  0  0  0  0  0
    1.8429    2.9825   20.0359 H   0  0  0  0  0  0  0  0  0  0  0  0
    1.0574    2.4568   18.5335 H   0  0  0  0  0  0  0  0  0  0  0  0
    2.8066    2.2789   18.7328 H   0  0  0  0  0  0  0  0  0  0  0  0
    2.7691    0.4817   20.7773 C   0  0  0  0  0  0  0  0  0  0  0  0
    2.5532   -0.4194   21.3437 H   0  0  0  0  0  0  0  0  0  0  0  0
    2.9275    1.2930   21.4852 H   0  0  0  0  0  0  0  0  0  0  0  0
    3.6914    0.3301   20.2202 H   0  0  0  0  0  0  0  0  0  0  0  0
   -1.9599    1.9479   17.7215 O   0  0  0  0  0  0  0  0  0  0  0  0
   -2.1797    2.5478   18.9440 C   0  0  0  0  0  0  0  0  0  0  0  0
   -3.3211    3.5729   18.8619 C   0  0  0  0  0  0  0  0  0  0  0  0
   -3.4664    4.0518   19.8265 H   0  0  0  0  0  0  0  0  0  0  0  0
   -4.2442    3.0754   18.5716 H   0  0  0  0  0  0  0  0  0  0  0  0
   -3.0921    4.3374   18.1217 H   0  0  0  0  0  0  0  0  0  0  0  0
   -2.4843    1.4742   19.9947 C   0  0  0  0  0  0  0  0  0  0  0  0
   -3.4132    0.9674   19.7409 H   0  0  0  0  0  0  0  0  0  0  0  0
   -2.5701    1.9129   20.9853 H   0  0  0  0  0  0  0  0  0  0  0  0
   -1.6796    0.7423   19.9767 H   0  0  0  0  0  0  0  0  0  0  0  0
   -1.4335    3.8221   16.1249 H   0  0  0  0  0  0  0  0  0  0  0  0
   -0.3656    5.7904   15.0071 H   0  0  0  0  0  0  0  0  0  0  0  0
    1.9770    5.5566   14.1840 H   0  0  0  0  0  0  0  0  0  0  0  0
    1.8884    1.5179   15.6462 H   0  0  0  0  0  0  0  0  0  0  0  0
   -1.6226    1.7198   13.4992 H   0  0  0  0  0  0  0  0  0  0  0  0
   -5.8289    1.9586   12.7053 H   0  0  0  0  0  0  0  0  0  0  0  0
   -6.2073    1.4738   15.1240 H   0  0  0  0  0  0  0  0  0  0  0  0
   -4.2187    1.1418   16.5944 H   0  0  0  0  0  0  0  0  0  0  0  0
   -1.2520    3.0745   19.2407 H   0  0  0  0  0  0  0  0  0  0  0  0
  1  3  1  0  0  0  0
  1 41  1  0  0  0  0
  1 18  1  0  0  0  0
  2  1  1  0  0  0  0
  4  1  1  0  0  0  0
  5  4  1  0  0  0  0
  5 51  1  0  0  0  0
  6  5  1  0  0  0  0
  7  8  1  0  0  0  0
  7  6  2  0  0  0  0
  8 10  2  0  0  0  0
  9  8  1  0  0  0  0
 10 54  1  0  0  0  0
 10  4  1  0  0  0  0
 11 17  1  0  0  0  0
 11  1  1  0  0  0  0
 12 11  1  0  0  0  0
 13 15  2  0  0  0  0
 13 12  1  0  0  0  0
 14 13  1  0  0  0  0
 15 16  1  0  0  0  0
 16 57  1  0  0  0  0
 16 17  2  0  0  0  0
 17 58  1  0  0  0  0
 18 19  1  0  0  0  0
 19 21  1  0  0  0  0
 19 31  1  0  0  0  0
 20 19  1  0  0  0  0
 21 22  1  0  0  0  0
 21 23  1  0  0  0  0
 23 25  1  0  0  0  0
 23 24  1  0  0  0  0
 26 23  1  0  0  0  0
 27 28  1  0  0  0  0
 27 21  1  0  0  0  0
 29 27  1  0  0  0  0
 30 27  1  0  0  0  0
 31 32  1  0  0  0  0
 31 37  1  0  0  0  0
 33 31  1  0  0  0  0
 33 34  1  0  0  0  0
 35 33  1  0  0  0  0
 36 33  1  0  0  0  0
 37 38  1  0  0  0  0
 37 39  1  0  0  0  0
 40 37  1  0  0  0  0
 41 42  1  0  0  0  0
 42 59  1  0  0  0  0
 42 47  1  0  0  0  0
 43 42  1  0  0  0  0
 43 44  1  0  0  0  0
 45 43  1  0  0  0  0
 46 43  1  0  0  0  0
 47 49  1  0  0  0  0
 48 47  1  0  0  0  0
 50 47  1  0  0  0  0
 52  6  1  0  0  0  0
 53  7  1  0  0  0  0
 55 12  1  0  0  0  0
 56 15  1  0  0  0  0
M  END
$$$$
