CSD_code = RATVAK | q = 0 | S = 0 | Stoichiometry = C15H15ClN2OPtS | MND = 4
 OpenBabel04212202093D

 36 39  0  0  0  0  0  0  0  0999 V2000
    4.5557    5.7092    5.9412 Pt  0  0  1  0  0  0  0  0  0  0  0  0
    3.0007    4.1611    6.4338 Cl  0  0  0  0  0  0  0  0  0  0  0  0
    5.3165    5.1020    8.0313 S   0  0  0  0  0  0  0  0  0  0  0  0
    6.5150    5.7400    8.5741 O   0  0  0  0  0  1  0  0  0  0  0  0
    5.9398    7.1196    5.4574 N   0  0  0  0  0  0  0  0  0  0  0  0
    3.8602    6.2209    4.1397 N   0  0  0  0  0  0  0  0  0  0  0  0
    5.5947    3.3118    8.1975 C   0  0  0  0  0  0  0  0  0  0  0  0
    6.3876    3.0359    7.5096 H   0  0  0  0  0  0  0  0  0  0  0  0
    4.6763    2.7964    7.9435 H   0  0  0  0  0  0  0  0  0  0  0  0
    5.9021    3.1135    9.2178 H   0  0  0  0  0  0  0  0  0  0  0  0
    6.9752    7.5057    6.1990 C   0  0  0  0  0  0  0  0  0  0  0  0
    7.1030    7.0202    7.1574 H   0  0  0  0  0  0  0  0  0  0  0  0
    4.0355    5.2919    9.3094 C   0  0  0  0  0  0  0  0  0  0  0  0
    4.4492    4.9568   10.2534 H   0  0  0  0  0  0  0  0  0  0  0  0
    3.1702    4.7092    9.0170 H   0  0  0  0  0  0  0  0  0  0  0  0
    3.7814    6.3455    9.3676 H   0  0  0  0  0  0  0  0  0  0  0  0
    7.8609    8.4820    5.7877 C   0  0  0  0  0  0  0  0  0  0  0  0
    8.6842    8.7600    6.4246 H   0  0  0  0  0  0  0  0  0  0  0  0
    7.6681    9.0908    4.5502 C   0  0  0  0  0  0  0  0  0  0  0  0
    8.3441    9.8585    4.2052 H   0  0  0  0  0  0  0  0  0  0  0  0
    6.6014    8.6956    3.7765 C   0  0  0  0  0  0  0  0  0  0  0  0
    6.4108    9.1359    2.8119 H   0  0  0  0  0  0  0  0  0  0  0  0
    5.7388    7.6983    4.2478 C   0  0  0  0  0  0  0  0  0  0  0  0
    4.6064    7.2091    3.5294 C   0  0  0  0  0  0  0  0  0  0  0  0
    4.0803    7.5337    2.2887 C   0  0  0  0  0  0  0  0  0  0  0  0
    4.4562    8.2644    1.5998 H   0  0  0  0  0  0  0  0  0  0  0  0
    2.9542    6.7113    2.1146 C   0  0  0  0  0  0  0  0  0  0  0  0
    2.8459    5.9031    3.2905 C   0  0  0  0  0  0  0  0  0  0  0  0
    2.0228    6.5772    1.0770 C   0  0  0  0  0  3  0  0  0  0  0  0
    2.1109    7.1912    0.1925 H   0  0  0  0  0  0  0  0  0  0  0  0
    1.0138    5.6607    1.2130 C   0  0  0  0  0  0  0  0  0  0  0  0
    0.2831    5.5387    0.4265 H   0  0  0  0  0  0  0  0  0  0  0  0
    0.9109    4.8686    2.3673 C   0  0  0  0  0  0  0  0  0  0  0  0
    0.1021    4.1561    2.4387 H   0  0  0  0  0  0  0  0  0  0  0  0
    1.8064    4.9747    3.4027 C   0  0  0  0  0  0  0  0  0  0  0  0
    1.7100    4.3575    4.2798 H   0  0  0  0  0  0  0  0  0  0  0  0
  1  2  1  6  0  0  0
  1  3  1  0  0  0  0
  3  7  1  0  0  0  0
  3  4  1  0  0  0  0
  3 13  1  0  0  0  0
  5  1  1  0  0  0  0
  5 11  1  0  0  0  0
  6  1  1  0  0  0  0
  7 10  1  0  0  0  0
  8  7  1  0  0  0  0
  9  7  1  0  0  0  0
 11 12  1  0  0  0  0
 13 16  1  0  0  0  0
 13 14  1  0  0  0  0
 15 13  1  0  0  0  0
 17 11  2  0  0  0  0
 17 18  1  0  0  0  0
 19 17  1  0  0  0  0
 20 19  1  0  0  0  0
 21 23  1  0  0  0  0
 21 19  2  0  0  0  0
 22 21  1  0  0  0  0
 23  5  1  0  0  0  0
 24  6  1  0  0  0  0
 24 23  2  0  0  0  0
 25 24  1  0  0  0  0
 26 25  1  0  0  0  0
 27 25  2  0  0  0  0
 27 28  1  0  0  0  0
 28 35  2  0  0  0  0
 28  6  1  0  0  0  0
 29 31  1  0  0  0  0
 29 27  1  0  0  0  0
 30 29  1  0  0  0  0
 31 33  2  0  0  0  0
 32 31  1  0  0  0  0
 33 34  1  0  0  0  0
 33 35  1  0  0  0  0
 35 36  1  0  0  0  0
M  END
$$$$
