CSD_code = RATXIT | q = 0 | S = 0 | Stoichiometry = C25H28Cl2Zr | MND = 12
 OpenBabel04212202093D

 56 59  0  0  1  0  0  0  0  0999 V2000
   -1.3756    3.7411   11.2735 Zr  0  0  0  0  0  0  0  0  0  0  0  0
   -1.7221    3.7867    8.9615 Cl  0  0  0  0  0  0  0  0  0  0  0  0
    0.9428    3.7424   10.9520 Cl  0  0  0  0  0  0  0  0  0  0  0  0
   -0.1876    5.4595   13.9253 C   0  0  0  0  0  0  0  0  0  0  0  0
   -0.5055    4.9972   14.8520 H   0  0  0  0  0  0  0  0  0  0  0  0
    1.1017    5.9329   13.7953 C   0  0  0  0  0  0  0  0  0  0  0  0
    1.4971    6.5949   12.6191 C   0  0  0  0  0  0  0  0  0  0  0  0
    2.5104    6.9611   12.5501 H   0  0  0  0  0  0  0  0  0  0  0  0
    0.6318    6.7803   11.5659 C   0  0  0  0  0  0  0  0  0  0  0  0
    0.9557    7.2938   10.6712 H   0  0  0  0  0  0  0  0  0  0  0  0
   -1.9585    6.8675    9.4848 C   0  0  0  0  0  0  0  0  0  0  0  0
   -1.1318    7.3576    8.9895 H   0  0  0  0  0  0  0  0  0  0  0  0
   -3.1818    6.7588    8.8648 C   0  0  0  0  0  0  0  0  0  0  0  0
   -3.3163    7.1612    7.8721 H   0  0  0  0  0  0  0  0  0  0  0  0
   -4.2744    6.1278    9.4862 C   0  0  0  0  0  0  0  0  0  0  0  0
   -4.1433    5.6071   10.7569 C   0  0  0  0  0  0  0  0  0  0  0  0
   -5.0004    5.1655   11.2534 H   0  0  0  0  0  0  0  0  0  0  0  0
   -2.4758    5.2235   12.7139 C   0  0  0  0  0  0  0  0  0  0  0  0
   -3.1436    4.9874   13.5340 H   0  0  0  0  0  0  0  0  0  0  0  0
   -1.1031    5.6244   12.8680 C   0  0  0  0  0  0  0  0  0  0  0  0
   -0.6727    6.2883   11.6634 C   0  0  0  0  0  0  0  0  0  0  0  0
   -1.7945    6.3276   10.7633 C   0  0  0  0  0  0  0  0  0  0  0  0
   -2.9065    5.6919   11.4244 C   0  0  0  0  0  0  0  0  0  0  0  0
    2.1030    5.7500   14.8961 C   0  0  0  0  0  0  0  0  0  0  0  0
    1.6415    5.3159   15.7800 H   0  0  0  0  0  0  0  0  0  0  0  0
    2.9040    5.0908   14.5624 H   0  0  0  0  0  0  0  0  0  0  0  0
    2.5506    6.7045   15.1683 H   0  0  0  0  0  0  0  0  0  0  0  0
   -5.5706    6.0218    8.7409 C   0  0  0  0  0  0  0  0  0  0  0  0
   -6.3656    5.6501    9.3832 H   0  0  0  0  0  0  0  0  0  0  0  0
   -5.8652    6.9916    8.3436 H   0  0  0  0  0  0  0  0  0  0  0  0
   -5.4558    5.3383    7.8999 H   0  0  0  0  0  0  0  0  0  0  0  0
   -0.8293    1.6135   12.3558 C   0  0  1  0  0  3  0  0  0  0  0  0
   -1.3869    1.3647   11.0649 C   0  0  1  0  0  0  0  0  0  0  0  0
   -2.7610    1.7523   11.1043 C   0  0  2  0  0  3  0  0  0  0  0  0
   -3.0447    2.2344   12.4122 C   0  0  0  0  0  0  0  0  0  0  0  0
   -1.8493    2.1566   13.1830 C   0  0  0  0  0  0  0  0  0  0  0  0
    0.5478    1.2319   12.8222 C   0  0  0  0  0  0  0  0  0  0  0  0
    0.4939    0.3622   13.4812 H   0  0  0  0  0  0  0  0  0  0  0  0
    1.1849    0.9838   11.9766 H   0  0  0  0  0  0  0  0  0  0  0  0
    1.0187    2.0498   13.3716 H   0  0  0  0  0  0  0  0  0  0  0  0
   -0.6432    0.7638    9.9036 C   0  0  0  0  0  0  0  0  0  0  0  0
   -0.4364   -0.2933   10.0843 H   0  0  0  0  0  0  0  0  0  0  0  0
   -1.2241    0.8496    8.9866 H   0  0  0  0  0  0  0  0  0  0  0  0
    0.3084    1.2809    9.7513 H   0  0  0  0  0  0  0  0  0  0  0  0
   -3.7983    1.5910   10.0278 C   0  0  0  0  0  0  0  0  0  0  0  0
   -4.5056    0.8042   10.3003 H   0  0  0  0  0  0  0  0  0  0  0  0
   -4.3573    2.5192    9.8843 H   0  0  0  0  0  0  0  0  0  0  0  0
   -3.3396    1.3264    9.0780 H   0  0  0  0  0  0  0  0  0  0  0  0
   -4.4314    2.4979   12.9296 C   0  0  0  0  0  0  0  0  0  0  0  0
   -4.9719    1.5531   13.0231 H   0  0  0  0  0  0  0  0  0  0  0  0
   -4.4112    2.9624   13.9131 H   0  0  0  0  0  0  0  0  0  0  0  0
   -4.9996    3.1322   12.2495 H   0  0  0  0  0  0  0  0  0  0  0  0
   -1.7310    2.3507   14.6690 C   0  0  0  0  0  0  0  0  0  0  0  0
   -2.0355    1.4389   15.1887 H   0  0  0  0  0  0  0  0  0  0  0  0
   -0.7000    2.5619   14.9480 H   0  0  0  0  0  0  0  0  0  0  0  0
   -2.3653    3.1606   15.0277 H   0  0  0  0  0  0  0  0  0  0  0  0
  1 18  1  0  0  0  0
  2  1  1  0  0  0  0
  3  1  1  0  0  0  0
  4  5  1  0  0  0  0
  6  4  1  0  0  0  0
  6 24  1  0  0  0  0
  7  6  2  0  0  0  0
  8  7  1  0  0  0  0
  9 21  2  0  0  0  0
  9  7  1  0  0  0  0
 10  9  1  0  0  0  0
 11 22  1  0  0  0  0
 12 11  1  0  0  0  0
 13 11  2  0  0  0  0
 13 15  1  0  0  0  0
 14 13  1  0  0  0  0
 15 16  2  0  0  0  0
 16 17  1  0  0  0  0
 16 23  1  0  0  0  0
 18 20  1  0  0  0  0
 18 19  1  0  0  0  0
 20  4  2  0  0  0  0
 21 20  1  0  0  0  0
 22 23  2  0  0  0  0
 22 21  1  0  0  0  0
 23 18  1  0  0  0  0
 24 27  1  0  0  0  0
 24 25  1  0  0  0  0
 26 24  1  0  0  0  0
 28 29  1  0  0  0  0
 28 15  1  0  0  0  0
 30 28  1  0  0  0  0
 31 28  1  0  0  0  0
 32 37  1  1  0  0  0
 32 36  1  0  0  0  0
 33 41  1  6  0  0  0
 33 34  1  0  0  0  0
 33  1  1  0  0  0  0
 33 32  1  0  0  0  0
 34 45  1  1  0  0  0
 34 35  1  0  0  0  0
 35 49  1  0  0  0  0
 35 36  2  0  0  0  0
 36 53  1  0  0  0  0
 37 40  1  0  0  0  0
 37 38  1  0  0  0  0
 39 37  1  0  0  0  0
 41 42  1  0  0  0  0
 43 41  1  0  0  0  0
 44 41  1  0  0  0  0
 45 46  1  0  0  0  0
 47 45  1  0  0  0  0
 48 45  1  0  0  0  0
 49 50  1  0  0  0  0
 49 51  1  0  0  0  0
 52 49  1  0  0  0  0
 53 55  1  0  0  0  0
 53 56  1  0  0  0  0
 53 54  1  0  0  0  0
M  END
$$$$
