CSD_code = RATZER | q = 0 | S = 0 | Stoichiometry = C4H8Cl2N2O4Pt | MND = 6
 OpenBabel04212202093D

 21 22  0  0  0  0  0  0  0  0999 V2000
    0.1413    2.5215    2.5434 Pt  0  0  0  0  0  0  0  0  0  0  0  0
   -0.9227    4.5618    2.3642 Cl  0  0  0  0  0  0  0  0  0  0  0  0
   -1.5174    1.5380    1.3292 Cl  0  0  0  0  0  0  0  0  0  0  0  0
    2.9280   -0.2338    1.5154 O   0  0  0  0  0  0  0  0  0  0  0  0
    1.3648    0.8260    2.6555 O   0  0  0  0  0  0  0  0  0  0  0  0
   -0.8202    2.7006    6.4411 O   0  0  0  0  0  0  0  0  0  0  0  0
   -0.7981    2.2306    4.2912 O   0  0  0  0  0  0  0  0  0  0  0  0
    1.0872    2.6856    0.6695 N   0  0  0  0  0  4  0  0  0  0  0  0
    1.6304    3.3366    3.9284 N   0  0  0  0  0  4  0  0  0  0  0  0
    1.5496    1.3302    0.3127 C   0  0  0  0  0  0  0  0  0  0  0  0
    2.3659    1.3510   -0.4130 H   0  0  0  0  0  0  0  0  0  0  0  0
    0.7101    0.7642   -0.0996 H   0  0  0  0  0  0  0  0  0  0  0  0
    2.0158    0.5497    1.5856 C   0  0  0  0  0  0  0  0  0  0  0  0
    0.8657    3.7709    5.1031 C   0  0  0  0  0  0  0  0  0  0  0  0
    0.4562    4.7682    4.9190 H   0  0  0  0  0  0  0  0  0  0  0  0
    1.4738    3.7937    6.0116 H   0  0  0  0  0  0  0  0  0  0  0  0
   -0.3498    2.8240    5.3413 C   0  0  0  0  0  0  0  0  0  0  0  0
    2.2545    4.0754    3.6108 H   0  0  0  0  0  0  0  0  0  0  0  0
    2.1838    2.5079    4.1618 H   0  0  0  0  0  0  0  0  0  0  0  0
    0.3830    3.0088   -0.0009 H   0  0  0  0  0  0  0  0  0  0  0  0
    1.8674    3.3449    0.6502 H   0  0  0  0  0  0  0  0  0  0  0  0
  1  5  1  0  0  0  0
  1  9  1  0  0  0  0
  1  7  1  0  0  0  0
  2  1  1  0  0  0  0
  3  1  1  0  0  0  0
  4 13  2  0  0  0  0
  7 17  1  0  0  0  0
  8  1  1  0  0  0  0
  9 19  1  0  0  0  0
  9 14  1  0  0  0  0
 10  8  1  0  0  0  0
 10 13  1  0  0  0  0
 11 10  1  0  0  0  0
 12 10  1  0  0  0  0
 13  5  1  0  0  0  0
 14 17  1  0  0  0  0
 14 16  1  0  0  0  0
 15 14  1  0  0  0  0
 17  6  2  0  0  0  0
 18  9  1  0  0  0  0
 20  8  1  0  0  0  0
 21  8  1  0  0  0  0
M  END
$$$$
