CSD_code = RAVWET | q = 0 | S = 0 | Stoichiometry = C25H26ClN3O4OsS | MND = 9
 OpenBabel04212202093D

 61 65  0  0  1  0  0  0  0  0999 V2000
   -0.4164    7.7099    7.9941 C   0  0  2  0  0  3  0  0  0  0  0  0
    0.6314    4.1877    7.8135 C   0  0  0  0  0  0  0  0  0  0  0  0
   -0.6009    8.6240    6.9423 C   0  0  0  0  0  0  0  0  0  0  0  0
   -0.3268    8.3125    5.9475 H   0  0  0  0  0  0  0  0  0  0  0  0
   -1.1060    9.8759    7.1949 C   0  0  0  0  0  0  0  0  0  0  0  0
   -1.2435   10.5868    6.3963 H   0  0  0  0  0  0  0  0  0  0  0  0
    0.5939    4.0606    6.4107 C   0  0  0  0  0  0  0  0  0  0  0  0
    1.2834    2.5880    4.5234 C   0  0  0  0  0  0  0  0  0  0  0  0
    1.4951    3.4890    3.9680 H   0  0  0  0  0  0  0  0  0  0  0  0
   -1.4320   10.2082    8.5103 C   0  0  0  0  0  0  0  0  0  0  0  0
   -1.8254   11.1785    8.7620 H   0  0  0  0  0  0  0  0  0  0  0  0
   -1.2325    9.2711    9.4930 C   0  0  0  0  0  0  0  0  0  0  0  0
   -1.4578    9.5013   10.5296 H   0  0  0  0  0  0  0  0  0  0  0  0
    1.4805    1.3368    3.9697 C   0  0  0  0  0  0  0  0  0  0  0  0
    1.8571    1.2511    2.9612 H   0  0  0  0  0  0  0  0  0  0  0  0
    1.1989    0.1906    4.7000 C   0  0  0  0  0  0  0  0  0  0  0  0
    1.3599   -0.7837    4.2641 H   0  0  0  0  0  0  0  0  0  0  0  0
    0.7039    0.3001    5.9901 C   0  0  0  0  0  0  0  0  0  0  0  0
    0.4706   -0.5665    6.5886 H   0  0  0  0  0  0  0  0  0  0  0  0
    0.5023    1.5520    6.5310 C   0  0  0  0  0  0  0  0  0  0  0  0
    0.7996    2.7120    5.8254 C   0  0  0  0  0  0  0  0  0  0  0  0
    0.3539    5.4088    8.4782 C   0  0  0  0  0  0  0  0  0  0  0  0
    2.1496    2.8060    9.1726 C   0  0  0  0  0  0  0  0  0  0  0  0
    2.4381    3.6126    9.8464 H   0  0  0  0  0  0  0  0  0  0  0  0
    2.8880    2.7234    8.3668 H   0  0  0  0  0  0  0  0  0  0  0  0
    2.0981    1.8657    9.7167 H   0  0  0  0  0  0  0  0  0  0  0  0
   -1.8709    4.6169   11.6960 C   0  0  0  0  0  0  0  0  0  0  0  0
   -0.9123    5.2560   12.5014 C   0  0  0  0  0  3  0  0  0  0  0  0
   -0.0555    4.6931   12.8528 H   0  0  0  0  0  0  0  0  0  0  0  0
   -1.1354    6.5611   12.9976 C   0  0  2  0  0  0  0  0  0  0  0  0
   -0.4657    6.9535   13.7569 H   0  0  0  0  0  0  0  0  0  0  0  0
   -2.3544    7.2357   12.7248 C   0  0  0  0  0  0  0  0  0  0  0  0
   -3.2558    6.6140   11.8583 C   0  0  0  0  0  0  0  0  0  0  0  0
   -4.1877    7.1097   11.6196 H   0  0  0  0  0  0  0  0  0  0  0  0
   -3.0115    5.3405   11.3394 C   0  0  0  0  0  0  0  0  0  0  0  0
   -3.7483    4.8762   10.6998 H   0  0  0  0  0  0  0  0  0  0  0  0
   -1.7013    3.1979   11.2656 C   0  0  0  0  0  0  0  0  0  0  0  0
   -2.4623    2.5748   11.7360 H   0  0  0  0  0  0  0  0  0  0  0  0
   -0.7208    2.8180   11.5380 H   0  0  0  0  0  0  0  0  0  0  0  0
   -1.8147    3.0913   10.1870 H   0  0  0  0  0  0  0  0  0  0  0  0
   -3.5366    8.1903   14.6760 C   0  0  0  0  0  0  0  0  0  0  0  0
   -4.4276    7.6185   14.4260 H   0  0  0  0  0  0  0  0  0  0  0  0
   -3.8403    9.1045   15.1799 H   0  0  0  0  0  0  0  0  0  0  0  0
   -2.9317    7.6015   15.3621 H   0  0  0  0  0  0  0  0  0  0  0  0
   -2.7326    8.5274   13.4137 C   0  0  0  0  0  0  0  0  0  0  0  0
   -3.3871    9.0902   12.7365 H   0  0  0  0  0  0  0  0  0  0  0  0
   -1.5286    9.4011   13.7681 C   0  0  0  0  0  0  0  0  0  0  0  0
   -1.0032    9.0060   14.6339 H   0  0  0  0  0  0  0  0  0  0  0  0
   -1.8622   10.4067   14.0128 H   0  0  0  0  0  0  0  0  0  0  0  0
   -0.8211    9.4591   12.9415 H   0  0  0  0  0  0  0  0  0  0  0  0
    0.0763    6.4845    7.6724 N   0  0  0  0  0  0  0  0  0  0  0  0
    0.1701    6.1996    6.6545 H   0  0  0  0  0  0  0  0  0  0  0  0
   -0.7421    8.0357    9.2681 N   0  0  0  0  0  0  0  0  0  0  0  0
    0.8226    3.0687    8.6678 N   0  0  0  0  0  0  0  0  0  0  0  0
    0.3634    5.4680    9.7410 O   0  0  0  0  0  0  0  0  0  0  0  0
    0.4093    5.0318    5.6309 O   0  0  0  0  0  0  0  0  0  0  0  0
   -1.4663    2.2533    8.1341 O   0  0  0  0  0  0  0  0  0  0  0  0
    0.1817    0.6547    9.0105 O   0  0  0  0  0  0  0  0  0  0  0  0
   -0.1066    1.7921    8.1857 S   0  0  0  0  0  0  0  0  0  0  0  0
    1.1819    8.1874   11.5238 Cl  0  0  0  0  0  0  0  0  0  0  0  0
   -0.5683    6.8797   10.8528 Os  0  0  2  0  0  0  0  0  0  0  0  0
  1  3  1  6  0  0  0
  1 53  1  0  0  0  0
  2 22  2  0  0  0  0
  2 54  1  0  0  0  0
  3  5  2  0  0  0  0
  4  3  1  0  0  0  0
  5 10  1  0  0  0  0
  6  5  1  0  0  0  0
  7  2  1  0  0  0  0
  8 21  1  0  0  0  0
  9  8  1  0  0  0  0
 10 11  1  0  0  0  0
 10 12  2  0  0  0  0
 12 13  1  0  0  0  0
 14  8  2  0  0  0  0
 14 16  1  0  0  0  0
 15 14  1  0  0  0  0
 16 18  2  0  0  0  0
 17 16  1  0  0  0  0
 18 20  1  0  0  0  0
 18 19  1  0  0  0  0
 20 59  1  0  0  0  0
 21  7  1  0  0  0  0
 21 20  2  0  0  0  0
 22 55  1  0  0  0  0
 23 26  1  0  0  0  0
 23 24  1  0  0  0  0
 25 23  1  0  0  0  0
 27 28  1  0  0  0  0
 28 29  1  0  0  0  0
 28 30  1  0  0  0  0
 30 31  1  1  0  0  0
 32 30  1  0  0  0  0
 32 45  1  0  0  0  0
 33 32  2  0  0  0  0
 34 33  1  0  0  0  0
 35 27  2  0  0  0  0
 35 33  1  0  0  0  0
 36 35  1  0  0  0  0
 37 39  1  0  0  0  0
 37 27  1  0  0  0  0
 37 38  1  0  0  0  0
 40 37  1  0  0  0  0
 41 43  1  0  0  0  0
 41 44  1  0  0  0  0
 42 41  1  0  0  0  0
 45 47  1  0  0  0  0
 45 41  1  0  0  0  0
 46 45  1  0  0  0  0
 47 49  1  0  0  0  0
 47 48  1  0  0  0  0
 50 47  1  0  0  0  0
 51  1  1  0  0  0  0
 51 22  1  0  0  0  0
 52 51  1  0  0  0  0
 53 12  1  0  0  0  0
 53 61  1  0  0  0  0
 54 23  1  0  0  0  0
 55 61  1  0  0  0  0
 56  7  2  0  0  0  0
 57 59  2  0  0  0  0
 59 54  1  0  0  0  0
 59 58  2  0  0  0  0
 61 60  1  1  0  0  0
 61 30  1  0  0  0  0
M  END
$$$$
