CSD_code = RAWDEZ | q = 0 | S = 0 | Stoichiometry = C30H34Cl2P2Pt | MND = 4
 OpenBabel04212202093D

 69 74  0  0  1  0  0  0  0  0999 V2000
    5.8036    8.7954   18.5317 Pt  0  0  0  0  0  0  0  0  0  0  0  0
    7.8272    9.4854   19.3238 Cl  0  0  0  0  0  0  0  0  0  0  0  0
    6.4769    9.0425   16.3725 Cl  0  0  0  0  0  0  0  0  0  0  0  0
    5.2129    8.6815   20.7325 P   0  0  1  0  0  4  0  0  0  0  0  0
    3.5724    8.3125   18.2221 P   0  0  2  0  0  4  0  0  0  0  0  0
    4.6978   10.3577   21.3135 C   0  0  1  0  0  0  0  0  0  0  0  0
    5.6619   10.8368   21.5384 H   0  0  0  0  0  0  0  0  0  0  0  0
    2.6443    9.9396   18.3243 C   0  0  1  0  0  0  0  0  0  0  0  0
    1.5899    9.6894   18.1463 H   0  0  0  0  0  0  0  0  0  0  0  0
    4.0678   11.1413   20.1576 C   0  0  0  0  0  0  0  0  0  0  0  0
    3.9702   12.1830   20.4718 H   0  0  0  0  0  0  0  0  0  0  0  0
    4.7791   11.1219   19.3211 H   0  0  0  0  0  0  0  0  0  0  0  0
    2.7000   10.6208   19.6967 C   0  0  0  0  0  0  0  0  0  0  0  0
    2.0016   11.4612   19.6508 H   0  0  0  0  0  0  0  0  0  0  0  0
    2.3033    9.9200   20.4341 H   0  0  0  0  0  0  0  0  0  0  0  0
    3.1473   10.8123   17.1780 C   0  0  0  0  0  0  0  0  0  0  0  0
    2.7076   11.8066   17.2311 H   0  0  0  0  0  0  0  0  0  0  0  0
    2.8822   10.3637   16.2221 H   0  0  0  0  0  0  0  0  0  0  0  0
    4.2344   10.9049   17.2009 H   0  0  0  0  0  0  0  0  0  0  0  0
    3.8550   10.3013   22.5827 C   0  0  0  0  0  0  0  0  0  0  0  0
    3.6380   11.3094   22.9322 H   0  0  0  0  0  0  0  0  0  0  0  0
    4.3863    9.7664   23.3678 H   0  0  0  0  0  0  0  0  0  0  0  0
    2.9121    9.7854   22.4162 H   0  0  0  0  0  0  0  0  0  0  0  0
    3.8750    7.4609   20.8293 C   0  0  0  0  0  0  0  0  0  0  0  0
    4.2407    6.4907   21.7258 C   0  0  0  0  0  0  0  0  0  0  0  0
    5.4430    6.8001   22.4837 C   0  0  0  0  0  0  0  0  0  0  0  0
    6.0890    7.9365   22.1092 C   0  0  0  0  0  0  0  0  0  0  0  0
    2.9936    7.4141   19.6963 C   0  0  2  0  0  3  0  0  0  0  0  0
    1.8503    6.7297   19.4007 C   0  0  2  0  0  3  0  0  0  0  0  0
    1.5150    6.7285   17.9852 C   0  0  0  0  0  0  0  0  0  0  0  0
    2.3463    7.4538   17.1865 C   0  0  0  0  0  0  0  0  0  0  0  0
    3.6024    5.1484   21.8602 C   0  0  0  0  0  0  0  0  0  0  0  0
    4.3477    4.4017   22.1224 H   0  0  0  0  0  0  0  0  0  0  0  0
    3.1426    4.8635   20.9188 H   0  0  0  0  0  0  0  0  0  0  0  0
    2.8397    5.1455   22.6396 H   0  0  0  0  0  0  0  0  0  0  0  0
    5.9274    5.9054   23.5773 C   0  0  0  0  0  0  0  0  0  0  0  0
    5.1121    5.6453   24.2505 H   0  0  0  0  0  0  0  0  0  0  0  0
    6.7153    6.3970   24.1427 H   0  0  0  0  0  0  0  0  0  0  0  0
    6.3334    4.9816   23.1646 H   0  0  0  0  0  0  0  0  0  0  0  0
    7.3934    8.4096   22.5864 C   0  0  0  0  0  0  0  0  0  0  0  0
    7.5389    9.5904   23.3060 C   0  0  0  0  0  0  0  0  0  0  0  0
    6.6682   10.1718   23.5723 H   0  0  0  0  0  0  0  0  0  0  0  0
    8.7932   10.0176   23.7033 C   0  0  0  0  0  0  0  0  0  0  0  0
    8.8924   10.9375   24.2612 H   0  0  0  0  0  0  0  0  0  0  0  0
    9.9166    9.2764   23.3823 C   0  0  0  0  0  0  0  0  0  0  0  0
   10.8955    9.6182   23.6841 H   0  0  0  0  0  0  0  0  0  0  0  0
    9.7805    8.0981   22.6678 C   0  0  0  0  0  0  0  0  0  0  0  0
   10.6537    7.5179   22.4084 H   0  0  0  0  0  0  0  0  0  0  0  0
    8.5289    7.6646   22.2757 C   0  0  0  0  0  0  0  0  0  0  0  0
    8.4213    6.7562   21.7018 H   0  0  0  0  0  0  0  0  0  0  0  0
    0.9166    6.1090   20.3903 C   0  0  0  0  0  0  0  0  0  0  0  0
    1.2064    6.3700   21.4032 H   0  0  0  0  0  0  0  0  0  0  0  0
    0.8810    5.0240   20.2989 H   0  0  0  0  0  0  0  0  0  0  0  0
   -0.0918    6.4831   20.2118 H   0  0  0  0  0  0  0  0  0  0  0  0
    0.3807    5.8893   17.4910 C   0  0  0  0  0  0  0  0  0  0  0  0
   -0.5754    6.3804   17.6759 H   0  0  0  0  0  0  0  0  0  0  0  0
    0.3670    4.9318   18.0083 H   0  0  0  0  0  0  0  0  0  0  0  0
    0.4771    5.7066   16.4243 H   0  0  0  0  0  0  0  0  0  0  0  0
    2.2760    7.7080   15.7590 C   0  0  0  0  0  0  0  0  0  0  0  0
    1.0648    7.8692   15.0820 C   0  0  0  0  0  0  0  0  0  0  0  0
    0.1328    7.8324   15.6252 H   0  0  0  0  0  0  0  0  0  0  0  0
    1.0539    8.1269   13.7240 C   0  0  0  0  0  0  0  0  0  0  0  0
    0.1105    8.2535   13.2125 H   0  0  0  0  0  0  0  0  0  0  0  0
    2.2431    8.2343   13.0210 C   0  0  0  0  0  0  0  0  0  0  0  0
    2.2271    8.4350   11.9600 H   0  0  0  0  0  0  0  0  0  0  0  0
    3.4506    8.1032   13.6890 C   0  0  0  0  0  0  0  0  0  0  0  0
    4.3830    8.2088   13.1562 H   0  0  0  0  0  0  0  0  0  0  0  0
    3.4685    7.8491   15.0457 C   0  0  0  0  0  0  0  0  0  0  0  0
    4.4111    7.7633   15.5697 H   0  0  0  0  0  0  0  0  0  0  0  0
  1  2  1  0  0  0  0
  1  4  1  0  0  0  0
  3  1  1  0  0  0  0
  4 24  1  6  0  0  0
  4  6  1  0  0  0  0
  4 27  1  0  0  0  0
  5 31  1  6  0  0  0
  5  8  1  0  0  0  0
  5  1  1  0  0  0  0
  5 28  1  0  0  0  0
  6  7  1  1  0  0  0
  6 20  1  0  0  0  0
  8  9  1  6  0  0  0
  8 13  1  0  0  0  0
 10 11  1  0  0  0  0
 10  6  1  0  0  0  0
 12 10  1  0  0  0  0
 13 10  1  0  0  0  0
 13 15  1  0  0  0  0
 14 13  1  0  0  0  0
 16 19  1  0  0  0  0
 16 17  1  0  0  0  0
 16  8  1  0  0  0  0
 18 16  1  0  0  0  0
 20 21  1  0  0  0  0
 20 22  1  0  0  0  0
 23 20  1  0  0  0  0
 24 25  2  0  0  0  0
 25 32  1  0  0  0  0
 25 26  1  0  0  0  0
 26 36  1  0  0  0  0
 27 26  2  0  0  0  0
 27 40  1  0  0  0  0
 28 24  1  6  0  0  0
 29 28  1  0  0  0  0
 29 51  1  1  0  0  0
 30 29  1  0  0  0  0
 31 30  2  0  0  0  0
 32 33  1  0  0  0  0
 32 35  1  0  0  0  0
 34 32  1  0  0  0  0
 36 38  1  0  0  0  0
 36 37  1  0  0  0  0
 39 36  1  0  0  0  0
 40 41  1  0  0  0  0
 41 42  1  0  0  0  0
 41 43  2  0  0  0  0
 43 44  1  0  0  0  0
 45 46  1  0  0  0  0
 45 43  1  0  0  0  0
 47 45  2  0  0  0  0
 48 47  1  0  0  0  0
 49 40  2  0  0  0  0
 49 47  1  0  0  0  0
 50 49  1  0  0  0  0
 51 52  1  0  0  0  0
 53 51  1  0  0  0  0
 54 51  1  0  0  0  0
 55 56  1  0  0  0  0
 55 30  1  0  0  0  0
 55 57  1  0  0  0  0
 58 55  1  0  0  0  0
 59 31  1  0  0  0  0
 60 61  1  0  0  0  0
 60 59  1  0  0  0  0
 62 60  2  0  0  0  0
 63 62  1  0  0  0  0
 64 66  2  0  0  0  0
 64 62  1  0  0  0  0
 65 64  1  0  0  0  0
 66 68  1  0  0  0  0
 67 66  1  0  0  0  0
 68 69  1  0  0  0  0
 68 59  2  0  0  0  0
M  END
$$$$
