CSD_code = RAWTUE | q = 0 | S = 0 | Stoichiometry = C27H25FN2O2W | MND = 7
 OpenBabel04212202093D

 58 62  0  0  1  0  0  0  0  0999 V2000
    3.8357    1.8843   -0.0299 W   0  0  0  0  0  0  0  0  0  0  0  0
    5.7606    1.1977    0.1771 F   0  0  0  0  0  0  0  0  0  0  0  0
    3.9109    3.6117    2.5772 O   0  0  0  0  0  1  0  0  0  0  0  0
    0.6714    1.7264    0.4428 O   0  0  0  0  0  0  0  0  0  0  0  0
    3.7327    0.4390   -1.5507 N   0  0  0  0  0  0  0  0  0  0  0  0
    3.5324   -0.0452    1.2514 N   0  0  0  0  0  0  0  0  0  0  0  0
    3.9751    2.9492    1.6331 C   0  0  0  0  0  2  0  0  0  0  0  0
    1.7460    2.1671    0.0940 C   0  0  0  0  0  0  0  0  0  0  0  0
    2.2562    3.4396   -0.3783 C   0  0  1  0  0  3  0  0  0  0  0  0
    2.9378    3.1232   -1.6377 C   0  0  2  0  0  0  0  0  0  0  0  0
    2.1233    2.5867   -2.7353 C   0  0  0  0  0  0  0  0  0  0  0  0
    1.0463    3.3422   -3.1933 C   0  0  0  0  0  0  0  0  0  0  0  0
    0.3356    2.9631   -4.3156 C   0  0  0  0  0  0  0  0  0  0  0  0
    0.6945    1.8123   -5.0084 C   0  0  0  0  0  0  0  0  0  0  0  0
    1.7084    1.0130   -4.5318 C   0  0  0  0  0  0  0  0  0  0  0  0
    2.4148    1.3592   -3.3693 C   0  0  0  0  0  0  0  0  0  0  0  0
    3.2419    0.3705   -2.7483 C   0  0  0  0  0  3  0  0  0  0  0  0
    4.2112   -0.8063   -0.9951 C   0  0  0  0  0  0  0  0  0  0  0  0
    3.3607   -1.1056    0.2437 C   0  0  0  0  0  0  0  0  0  0  0  0
    4.6996   -0.3565    2.0953 C   0  0  0  0  0  0  0  0  0  0  0  0
    2.3706   -0.0356    2.1496 C   0  0  0  0  0  0  0  0  0  0  0  0
    1.9960    4.7494    0.1924 C   0  0  0  0  0  0  0  0  0  0  0  0
    1.3771    4.8823    1.4405 C   0  0  0  0  0  0  0  0  0  0  0  0
    1.0972    6.1320    1.9547 C   0  0  0  0  0  0  0  0  0  0  0  0
    1.4205    7.2747    1.2398 C   0  0  0  0  0  0  0  0  0  0  0  0
    2.0164    7.1572   -0.0055 C   0  0  0  0  0  0  0  0  0  0  0  0
    2.2992    5.9113   -0.5286 C   0  0  0  0  0  0  0  0  0  0  0  0
    4.3493    3.4031   -1.7915 C   0  0  0  0  0  0  0  0  0  0  0  0
    5.1056    2.9440   -2.8988 C   0  0  0  0  0  0  0  0  0  0  0  0
    6.4750    2.9404   -2.8582 C   0  0  0  0  0  0  0  0  0  0  0  0
    7.1572    3.4178   -1.7337 C   0  0  0  0  0  0  0  0  0  0  0  0
    6.4532    3.9874   -0.7006 C   0  0  0  0  0  0  0  0  0  0  0  0
    5.0513    4.0041   -0.6982 C   0  0  0  0  0  0  0  0  0  0  0  0
    0.7923    4.2534   -2.6711 H   0  0  0  0  0  0  0  0  0  0  0  0
   -0.4842    3.5717   -4.6660 H   0  0  0  0  0  0  0  0  0  0  0  0
    0.1625    1.5329   -5.9056 H   0  0  0  0  0  0  0  0  0  0  0  0
    1.9573    0.0921   -5.0407 H   0  0  0  0  0  0  0  0  0  0  0  0
    3.3124   -0.5763   -3.2913 H   0  0  0  0  0  0  0  0  0  0  0  0
    5.2680   -0.6995   -0.7259 H   0  0  0  0  0  0  0  0  0  0  0  0
    4.1172   -1.6388   -1.7099 H   0  0  0  0  0  0  0  0  0  0  0  0
    2.3093   -1.1188   -0.0662 H   0  0  0  0  0  0  0  0  0  0  0  0
    3.6179   -2.0890    0.6614 H   0  0  0  0  0  0  0  0  0  0  0  0
    4.5041   -1.2562    2.6921 H   0  0  0  0  0  0  0  0  0  0  0  0
    4.8960    0.4831    2.7635 H   0  0  0  0  0  0  0  0  0  0  0  0
    5.5896   -0.5214    1.4924 H   0  0  0  0  0  0  0  0  0  0  0  0
    2.2632   -1.0062    2.6488 H   0  0  0  0  0  0  0  0  0  0  0  0
    1.4535    0.1812    1.6040 H   0  0  0  0  0  0  0  0  0  0  0  0
    2.5083    0.7341    2.9089 H   0  0  0  0  0  0  0  0  0  0  0  0
    1.1157    3.9934    1.9961 H   0  0  0  0  0  0  0  0  0  0  0  0
    0.6236    6.2182    2.9218 H   0  0  0  0  0  0  0  0  0  0  0  0
    1.2034    8.2508    1.6474 H   0  0  0  0  0  0  0  0  0  0  0  0
    2.2614    8.0433   -0.5736 H   0  0  0  0  0  0  0  0  0  0  0  0
    2.7538    5.8244   -1.5065 H   0  0  0  0  0  0  0  0  0  0  0  0
    4.5882    2.5979   -3.7836 H   0  0  0  0  0  0  0  0  0  0  0  0
    7.0354    2.5687   -3.7039 H   0  0  0  0  0  0  0  0  0  0  0  0
    8.2355    3.3841   -1.7076 H   0  0  0  0  0  0  0  0  0  0  0  0
    6.9793    4.4438    0.1261 H   0  0  0  0  0  0  0  0  0  0  0  0
    4.5568    4.7280   -0.0569 H   0  0  0  0  0  0  0  0  0  0  0  0
  1  8  1  0  0  0  0
  1  2  1  0  0  0  0
  1  7  1  0  0  0  0
  5 18  1  0  0  0  0
  5  1  1  0  0  0  0
  6 20  1  0  0  0  0
  6 21  1  0  0  0  0
  7  3  1  0  0  0  0
  8  4  2  0  0  0  0
  9  8  1  0  0  0  0
  9 22  1  6  0  0  0
 10 28  1  6  0  0  0
 10  9  1  0  0  0  0
 10  1  1  0  0  0  0
 11 10  1  0  0  0  0
 12 11  1  0  0  0  0
 12 34  1  0  0  0  0
 13 12  2  0  0  0  0
 14 15  2  0  0  0  0
 14 13  1  0  0  0  0
 15 16  1  0  0  0  0
 16 17  1  0  0  0  0
 16 11  2  0  0  0  0
 17  5  1  0  0  0  0
 18 39  1  0  0  0  0
 18 19  1  0  0  0  0
 19 42  1  0  0  0  0
 19  6  1  0  0  0  0
 20 43  1  0  0  0  0
 20 44  1  0  0  0  0
 21 46  1  0  0  0  0
 21 48  1  0  0  0  0
 22 23  1  0  0  0  0
 23 24  2  0  0  0  0
 23 49  1  0  0  0  0
 24 50  1  0  0  0  0
 25 51  1  0  0  0  0
 25 24  1  0  0  0  0
 26 25  2  0  0  0  0
 27 26  1  0  0  0  0
 27 22  2  0  0  0  0
 28 33  1  0  0  0  0
 29 30  1  0  0  0  0
 29 28  2  0  0  0  0
 30 31  2  0  0  0  0
 31 56  1  0  0  0  0
 31 32  1  0  0  0  0
 32 33  2  0  0  0  0
 32 57  1  0  0  0  0
 33 58  1  0  0  0  0
 35 13  1  0  0  0  0
 36 14  1  0  0  0  0
 37 15  1  0  0  0  0
 38 17  1  0  0  0  0
 40 18  1  0  0  0  0
 41 19  1  0  0  0  0
 45 20  1  0  0  0  0
 47 21  1  0  0  0  0
 52 26  1  0  0  0  0
 53 27  1  0  0  0  0
 54 29  1  0  0  0  0
 55 30  1  0  0  0  0
M  END
$$$$
