CSD_code = RAXDUR | q = 1 | S = 0 | Stoichiometry = C15H11ClN3Pt(1+) | MND = 4
 OpenBabel04212202093D

 31 35  0  0  0  0  0  0  0  0999 V2000
    0.4881   12.4118    5.1979 Pt  0  0  2  0  0  0  0  0  0  0  0  0
    0.1704   12.8470    7.3490 Cl  0  0  0  0  0  0  0  0  0  0  0  0
    0.8550   14.2832    4.5884 N   0  0  0  0  0  0  0  0  0  0  0  0
    0.7579   12.0401    3.3569 N   0  0  0  0  0  0  0  0  0  0  0  0
    0.1992   10.4322    5.2700 N   0  0  0  0  0  0  0  0  0  0  0  0
    0.8811   15.3971    5.3139 C   0  0  0  0  0  3  0  0  0  0  0  0
    0.6819   15.2842    6.3725 H   0  0  0  0  0  0  0  0  0  0  0  0
    1.1476   16.6386    4.7587 C   0  0  0  0  0  0  0  0  0  0  0  0
    1.1568   17.5151    5.3854 H   0  0  0  0  0  0  0  0  0  0  0  0
    1.3975   16.7250    3.3975 C   0  0  0  0  0  0  0  0  0  0  0  0
    1.6089   17.6759    2.9344 H   0  0  0  0  0  0  0  0  0  0  0  0
    1.3723   15.5666    2.6367 C   0  0  0  0  0  0  0  0  0  0  0  0
    1.5630   15.6066    1.5769 H   0  0  0  0  0  0  0  0  0  0  0  0
    1.0980   14.3491    3.2492 C   0  0  0  0  0  0  0  0  0  0  0  0
    1.0446   13.0646    2.5393 C   0  0  0  0  0  0  0  0  0  0  0  0
    1.2486   12.8163    1.1854 C   0  0  0  0  0  0  0  0  0  0  0  0
    1.4808   13.6147    0.5010 H   0  0  0  0  0  0  0  0  0  0  0  0
    1.1468   11.5085    0.7271 C   0  0  0  0  0  0  0  0  0  0  0  0
    1.3027   11.2968   -0.3188 H   0  0  0  0  0  0  0  0  0  0  0  0
    0.8468   10.4701    1.6003 C   0  0  0  0  0  0  0  0  0  0  0  0
    0.7695    9.4596    1.2359 H   0  0  0  0  0  0  0  0  0  0  0  0
    0.6511   10.7675    2.9455 C   0  0  0  0  0  0  0  0  0  0  0  0
    0.3280    9.8491    4.0451 C   0  0  0  0  0  0  0  0  0  0  0  0
    0.1566    8.4783    3.8901 C   0  0  0  0  0  0  0  0  0  0  0  0
    0.2596    8.0283    2.9164 H   0  0  0  0  0  0  0  0  0  0  0  0
   -0.1479    7.6975    4.9942 C   0  0  0  0  0  0  0  0  0  0  0  0
   -0.2843    6.6330    4.8872 H   0  0  0  0  0  0  0  0  0  0  0  0
   -0.2728    8.3080    6.2329 C   0  0  0  0  0  0  0  0  0  0  0  0
   -0.5081    7.7372    7.1161 H   0  0  0  0  0  0  0  0  0  0  0  0
   -0.0910    9.6786    6.3263 C   0  0  0  0  0  0  0  0  0  0  0  0
   -0.1791   10.1958    7.2739 H   0  0  0  0  0  0  0  0  0  0  0  0
  1  5  1  0  0  0  0
  1  2  1  6  0  0  0
  3  1  1  0  0  0  0
  3  6  1  0  0  0  0
  4  1  1  0  0  0  0
  5 30  1  0  0  0  0
  6  7  1  0  0  0  0
  8  6  1  0  0  0  0
  8  9  1  0  0  0  0
 10  8  2  0  0  0  0
 11 10  1  0  0  0  0
 12 14  2  0  0  0  0
 12 10  1  0  0  0  0
 13 12  1  0  0  0  0
 14  3  1  0  0  0  0
 15 14  1  0  0  0  0
 15  4  1  0  0  0  0
 16 15  2  0  0  0  0
 17 16  1  0  0  0  0
 18 16  1  0  0  0  0
 18 20  2  0  0  0  0
 19 18  1  0  0  0  0
 20 22  1  0  0  0  0
 21 20  1  0  0  0  0
 22  4  1  0  0  0  0
 22 23  2  0  0  0  0
 23  5  1  0  0  0  0
 24 23  1  0  0  0  0
 24 26  2  0  0  0  0
 25 24  1  0  0  0  0
 26 28  1  0  0  0  0
 27 26  1  0  0  0  0
 28 30  2  0  0  0  0
 28 29  1  0  0  0  0
 30 31  1  0  0  0  0
M  END
$$$$
