CSD_code = RAXFIH | q = 1 | S = 0 | Stoichiometry = C15H11BrN3Pt(1+) | MND = 4
 OpenBabel04212202093D

 31 35  0  0  0  0  0  0  0  0999 V2000
    4.6072    6.3575    6.9128 Pt  0  0  1  0  0  0  0  0  0  0  0  0
    4.1653    4.1147    6.4038 Br  0  0  0  0  0  0  0  0  0  0  0  0
    4.3425    6.2624    8.9110 N   0  0  0  0  0  0  0  0  0  0  0  0
    4.9671    8.1804    7.3264 N   0  0  0  0  0  0  0  0  0  0  0  0
    4.9812    7.0143    5.0417 N   0  0  0  0  0  0  0  0  0  0  0  0
    4.0162    5.2111    9.6578 C   0  0  0  0  0  3  0  0  0  0  0  0
    3.8725    4.2700    9.1424 H   0  0  0  0  0  0  0  0  0  0  0  0
    3.8615    5.2924   11.0324 C   0  0  0  0  0  0  0  0  0  0  0  0
    3.5962    4.4110   11.5923 H   0  0  0  0  0  0  0  0  0  0  0  0
    4.0526    6.5142   11.6589 C   0  0  0  0  0  0  0  0  0  0  0  0
    3.9386    6.6127   12.7268 H   0  0  0  0  0  0  0  0  0  0  0  0
    4.3942    7.6129   10.8866 C   0  0  0  0  0  0  0  0  0  0  0  0
    4.5495    8.5750   11.3462 H   0  0  0  0  0  0  0  0  0  0  0  0
    4.5360    7.4692    9.5111 C   0  0  0  0  0  0  0  0  0  0  0  0
    4.8953    8.5677    8.6082 C   0  0  0  0  0  0  0  0  0  0  0  0
    5.1541    9.8952    8.9355 C   0  0  0  0  0  0  0  0  0  0  0  0
    5.1042   10.2361    9.9558 H   0  0  0  0  0  0  0  0  0  0  0  0
    5.4808   10.7803    7.9164 C   0  0  0  0  0  0  0  0  0  0  0  0
    5.6847   11.8129    8.1507 H   0  0  0  0  0  0  0  0  0  0  0  0
    5.5473   10.3479    6.5982 C   0  0  0  0  0  0  0  0  0  0  0  0
    5.8010   11.0387    5.8121 H   0  0  0  0  0  0  0  0  0  0  0  0
    5.2797    9.0107    6.3209 C   0  0  0  0  0  0  0  0  0  0  0  0
    5.2883    8.3405    5.0164 C   0  0  0  0  0  0  0  0  0  0  0  0
    5.5828    8.9819    3.8187 C   0  0  0  0  0  0  0  0  0  0  0  0
    5.8261   10.0315    3.8157 H   0  0  0  0  0  0  0  0  0  0  0  0
    5.5616    8.2641    2.6335 C   0  0  0  0  0  0  0  0  0  0  0  0
    5.7882    8.7499    1.6978 H   0  0  0  0  0  0  0  0  0  0  0  0
    5.2440    6.9154    2.6766 C   0  0  0  0  0  0  0  0  0  0  0  0
    5.2137    6.3180    1.7805 H   0  0  0  0  0  0  0  0  0  0  0  0
    4.9615    6.3307    3.9008 C   0  0  0  0  0  0  0  0  0  0  0  0
    4.7117    5.2793    3.9640 H   0  0  0  0  0  0  0  0  0  0  0  0
  1  2  1  1  0  0  0
  1  4  1  0  0  0  0
  1  3  1  0  0  0  0
  3 14  1  0  0  0  0
  3  6  1  0  0  0  0
  4 15  1  0  0  0  0
  5  1  1  0  0  0  0
  6  8  1  0  0  0  0
  7  6  1  0  0  0  0
  8  9  1  0  0  0  0
  8 10  2  0  0  0  0
 10 11  1  0  0  0  0
 12 13  1  0  0  0  0
 12 10  1  0  0  0  0
 14 12  2  0  0  0  0
 15 16  2  0  0  0  0
 15 14  1  0  0  0  0
 16 17  1  0  0  0  0
 18 19  1  0  0  0  0
 18 16  1  0  0  0  0
 20 18  2  0  0  0  0
 21 20  1  0  0  0  0
 22 20  1  0  0  0  0
 22  4  1  0  0  0  0
 23  5  1  0  0  0  0
 23 22  2  0  0  0  0
 24 23  1  0  0  0  0
 25 24  1  0  0  0  0
 26 28  1  0  0  0  0
 26 24  2  0  0  0  0
 27 26  1  0  0  0  0
 28 30  2  0  0  0  0
 29 28  1  0  0  0  0
 30 31  1  0  0  0  0
 30  5  1  0  0  0  0
M  END
$$$$
