CSD_code = RAXFAZ | q = 1 | S = 0 | Stoichiometry = C15H11ClN3Pt(1+) | MND = 4
 OpenBabel04212202093D

 31 35  0  0  0  0  0  0  0  0999 V2000
   27.3576    1.6486   10.5686 Pt  0  0  1  0  0  0  0  0  0  0  0  0
   29.3595    1.6485   10.5490 N   0  0  0  0  0  0  0  0  0  0  0  0
   27.6016    1.6485    8.6870 N   0  0  0  0  0  0  0  0  0  0  0  0
   25.4270    1.6485   10.0391 N   0  0  0  0  0  0  0  0  0  0  0  0
   30.1947    1.6485   11.5835 C   0  0  0  0  0  3  0  0  0  0  0  0
   29.7403    1.6485   12.5666 H   0  0  0  0  0  0  0  0  0  0  0  0
   31.5716    1.6485   11.4260 C   0  0  0  0  0  0  0  0  0  0  0  0
   32.2105    1.6485   12.2937 H   0  0  0  0  0  0  0  0  0  0  0  0
   32.1001    1.6485   10.1440 C   0  0  0  0  0  0  0  0  0  0  0  0
   33.1671    1.6485    9.9864 H   0  0  0  0  0  0  0  0  0  0  0  0
   31.2336    1.6485    9.0621 C   0  0  0  0  0  0  0  0  0  0  0  0
   31.6184    1.6485    8.0555 H   0  0  0  0  0  0  0  0  0  0  0  0
   29.8609    1.6485    9.2820 C   0  0  0  0  0  0  0  0  0  0  0  0
   28.8561    1.6485    8.2110 C   0  0  0  0  0  0  0  0  0  0  0  0
   29.0600    1.6485    6.8345 C   0  0  0  0  0  0  0  0  0  0  0  0
   30.0533    1.6485    6.4182 H   0  0  0  0  0  0  0  0  0  0  0  0
   27.9502    1.6485    5.9984 C   0  0  0  0  0  0  0  0  0  0  0  0
   28.0888    1.6485    4.9290 H   0  0  0  0  0  0  0  0  0  0  0  0
   26.6638    1.6485    6.5239 C   0  0  0  0  0  0  0  0  0  0  0  0
   25.8096    1.6485    5.8680 H   0  0  0  0  0  0  0  0  0  0  0  0
   26.5100    1.6485    7.9068 C   0  0  0  0  0  0  0  0  0  0  0  0
   25.2652    1.6485    8.6861 C   0  0  0  0  0  0  0  0  0  0  0  0
   23.9940    1.6485    8.1234 C   0  0  0  0  0  0  0  0  0  0  0  0
   23.8786    1.6485    7.0520 H   0  0  0  0  0  0  0  0  0  0  0  0
   22.8802    1.6485    8.9486 C   0  0  0  0  0  0  0  0  0  0  0  0
   21.8887    1.6485    8.5242 H   0  0  0  0  0  0  0  0  0  0  0  0
   23.0644    1.6485   10.3230 C   0  0  0  0  0  0  0  0  0  0  0  0
   22.2253    1.6485   10.9991 H   0  0  0  0  0  0  0  0  0  0  0  0
   24.3556    1.6485   10.8264 C   0  0  0  0  0  0  0  0  0  0  0  0
   24.5443    1.6485   11.8929 H   0  0  0  0  0  0  0  0  0  0  0  0
   27.0729    1.6485   12.7678 Cl  0  0  0  0  0  0  0  0  0  0  0  0
  1 31  1  1  0  0  0
  2  1  1  0  0  0  0
  2  5  1  0  0  0  0
  3  1  1  0  0  0  0
  4  1  1  0  0  0  0
  4 29  1  0  0  0  0
  5  6  1  0  0  0  0
  7  5  1  0  0  0  0
  7  8  1  0  0  0  0
  9  7  2  0  0  0  0
 10  9  1  0  0  0  0
 11 13  2  0  0  0  0
 11  9  1  0  0  0  0
 12 11  1  0  0  0  0
 13  2  1  0  0  0  0
 14  3  1  0  0  0  0
 14 13  1  0  0  0  0
 15 14  2  0  0  0  0
 16 15  1  0  0  0  0
 17 19  2  0  0  0  0
 17 15  1  0  0  0  0
 18 17  1  0  0  0  0
 19 21  1  0  0  0  0
 20 19  1  0  0  0  0
 21 22  2  0  0  0  0
 21  3  1  0  0  0  0
 22  4  1  0  0  0  0
 23 22  1  0  0  0  0
 23 25  2  0  0  0  0
 24 23  1  0  0  0  0
 25 27  1  0  0  0  0
 26 25  1  0  0  0  0
 27 29  2  0  0  0  0
 27 28  1  0  0  0  0
 29 30  1  0  0  0  0
M  END
$$$$
