CSD_code = RAXMEI | q = 0 | S = 0 | Stoichiometry = C22H18Cl3N4Ta | MND = 7
 OpenBabel04212202093D

 48 52  0  0  1  0  0  0  0  0999 V2000
    7.0996    2.9608    2.3126 Ta  0  0  0  0  0  0  0  0  0  0  0  0
    7.9482    3.4622    4.4232 Cl  0  0  0  0  0  0  0  0  0  0  0  0
    6.2303    2.4024    0.2248 Cl  0  0  0  0  0  0  0  0  0  0  0  0
    7.5780    5.0818    1.5784 Cl  0  0  0  0  0  0  0  0  0  0  0  0
    5.1148    4.1579    3.0058 N   0  0  0  0  0  0  0  0  0  0  0  0
    4.5231    3.0046    3.3758 C   0  0  1  0  0  3  0  0  0  0  0  0
    3.1912    3.0032    3.8403 C   0  0  0  0  0  0  0  0  0  0  0  0
    2.5344    4.2059    3.9351 C   0  0  0  0  0  0  0  0  0  0  0  0
    3.1799    5.3924    3.5754 C   0  0  0  0  0  0  0  0  0  0  0  0
    4.4727    5.3151    3.1047 C   0  0  0  0  0  0  0  0  0  0  0  0
    5.3597    1.9794    3.1674 N   0  0  0  0  0  0  0  0  0  0  0  0
    4.9632    0.6649    3.4496 C   0  0  0  0  0  0  0  0  0  0  0  0
    4.5122    0.2940    4.7157 C   0  0  0  0  0  0  0  0  0  0  0  0
    4.1414   -1.0145    4.9620 C   0  0  0  0  0  0  0  0  0  0  0  0
    4.2177   -1.9636    3.9571 C   0  0  0  0  0  0  0  0  0  0  0  0
    4.6738   -1.6003    2.7006 C   0  0  0  0  0  0  0  0  0  0  0  0
    5.0466   -0.2952    2.4435 C   0  0  0  0  0  0  0  0  0  0  0  0
    9.2771    2.6328    1.3073 N   0  0  0  0  0  0  0  0  0  0  0  0
    9.3247    1.3694    1.7748 C   0  0  0  0  0  0  0  0  0  0  0  0
   10.4767    0.5794    1.5791 C   0  0  0  0  0  0  0  0  0  0  0  0
   11.5241    1.1206    0.8740 C   0  0  0  0  0  0  0  0  0  0  0  0
   11.4385    2.4219    0.3712 C   0  0  0  0  0  0  0  0  0  0  0  0
   10.2930    3.1451    0.6242 C   0  0  0  0  0  0  0  0  0  0  0  0
    8.1961    1.0904    2.4406 N   0  0  0  0  0  0  0  0  0  0  0  0
    8.0149   -0.1601    3.0476 C   0  0  0  0  0  0  0  0  0  0  0  0
    7.7051   -0.2122    4.4048 C   0  0  0  0  0  0  0  0  0  0  0  0
    7.5088   -1.4319    5.0229 C   0  0  0  0  0  0  0  0  0  0  0  0
    7.6161   -2.6086    4.2999 C   0  0  0  0  0  0  0  0  0  0  0  0
    7.9152   -2.5608    2.9491 C   0  0  0  0  0  0  0  0  0  0  0  0
    8.1132   -1.3458    2.3207 C   0  0  0  0  0  0  0  0  0  0  0  0
    2.7099    2.0724    4.0923 H   0  0  0  0  0  0  0  0  0  0  0  0
    1.5130    4.2345    4.2846 H   0  0  0  0  0  0  0  0  0  0  0  0
    2.6787    6.3427    3.6494 H   0  0  0  0  0  0  0  0  0  0  0  0
    5.0275    6.1875    2.7868 H   0  0  0  0  0  0  0  0  0  0  0  0
    4.4767    1.0328    5.5031 H   0  0  0  0  0  0  0  0  0  0  0  0
    3.7951   -1.2946    5.9460 H   0  0  0  0  0  0  0  0  0  0  0  0
    3.9264   -2.9843    4.1538 H   0  0  0  0  0  0  0  0  0  0  0  0
    4.7368   -2.3386    1.9155 H   0  0  0  0  0  0  0  0  0  0  0  0
    5.4004    0.0051    1.4679 H   0  0  0  0  0  0  0  0  0  0  0  0
   10.5253   -0.4140    1.9941 H   0  0  0  0  0  0  0  0  0  0  0  0
   12.4197    0.5395    0.7112 H   0  0  0  0  0  0  0  0  0  0  0  0
   12.2498    2.8569   -0.1876 H   0  0  0  0  0  0  0  0  0  0  0  0
   10.1642    4.1647    0.2869 H   0  0  0  0  0  0  0  0  0  0  0  0
    7.6289    0.7141    4.9556 H   0  0  0  0  0  0  0  0  0  0  0  0
    7.2731   -1.4656    6.0760 H   0  0  0  0  0  0  0  0  0  0  0  0
    7.4628   -3.5598    4.7867 H   0  0  0  0  0  0  0  0  0  0  0  0
    7.9908   -3.4749    2.3787 H   0  0  0  0  0  0  0  0  0  0  0  0
    8.3233   -1.3026    1.2619 H   0  0  0  0  0  0  0  0  0  0  0  0
  1 24  1  0  0  0  0
  1  5  1  0  0  0  0
  1 11  1  0  0  0  0
  1  2  1  0  0  0  0
  3  1  1  0  0  0  0
  4  1  1  0  0  0  0
  5 10  1  0  0  0  0
  5  6  1  0  0  0  0
  6  7  1  6  0  0  0
  7  8  2  0  0  0  0
  7 31  1  0  0  0  0
  8 32  1  0  0  0  0
  9 33  1  0  0  0  0
  9  8  1  0  0  0  0
 10  9  2  0  0  0  0
 11  6  1  0  0  0  0
 11 12  1  0  0  0  0
 12 13  1  0  0  0  0
 13 14  2  0  0  0  0
 13 35  1  0  0  0  0
 14 36  1  0  0  0  0
 15 37  1  0  0  0  0
 15 14  1  0  0  0  0
 16 15  2  0  0  0  0
 17 16  1  0  0  0  0
 17 12  2  0  0  0  0
 18 19  1  0  0  0  0
 19 24  1  0  0  0  0
 20 19  2  0  0  0  0
 20 40  1  0  0  0  0
 21 20  1  0  0  0  0
 22 23  1  0  0  0  0
 22 21  2  0  0  0  0
 23 18  2  0  0  0  0
 24 25  1  0  0  0  0
 25 26  1  0  0  0  0
 26 44  1  0  0  0  0
 26 27  2  0  0  0  0
 27 45  1  0  0  0  0
 28 46  1  0  0  0  0
 28 27  1  0  0  0  0
 29 28  2  0  0  0  0
 30 29  1  0  0  0  0
 30 25  2  0  0  0  0
 34 10  1  0  0  0  0
 38 16  1  0  0  0  0
 39 17  1  0  0  0  0
 41 21  1  0  0  0  0
 42 22  1  0  0  0  0
 43 23  1  0  0  0  0
 47 29  1  0  0  0  0
 48 30  1  0  0  0  0
M  END
$$$$
