CSD_code = RAXMAE | q = 0 | S = 0 | Stoichiometry = C22H18Cl3N4Nb | MND = 7
 OpenBabel04212202093D

 48 52  0  0  1  0  0  0  0  0999 V2000
   -1.5498    1.6765   11.8719 Nb  0  0  0  0  0  0  0  0  0  0  0  0
   -1.2371    4.0205   11.5778 Cl  0  0  0  0  0  0  0  0  0  0  0  0
   -1.5945   -0.6867   12.2659 Cl  0  0  0  0  0  0  0  0  0  0  0  0
   -3.3409    1.5448   10.3882 Cl  0  0  0  0  0  0  0  0  0  0  0  0
   -0.4434    1.4154    9.8879 N   0  0  0  0  0  0  0  0  0  0  0  0
    0.7472    1.3540   10.5233 C   0  0  2  0  0  3  0  0  0  0  0  0
    1.9410    1.1508    9.7998 C   0  0  0  0  0  0  0  0  0  0  0  0
    1.8534    1.0467    8.4326 C   0  0  0  0  0  0  0  0  0  0  0  0
    0.6120    1.1396    7.7945 C   0  0  0  0  0  0  0  0  0  0  0  0
   -0.5169    1.3172    8.5666 C   0  0  0  0  0  0  0  0  0  0  0  0
    0.5402    1.4610   11.8410 N   0  0  0  0  0  0  0  0  0  0  0  0
    1.5919    1.4119   12.7576 C   0  0  0  0  0  0  0  0  0  0  0  0
    2.6452    2.3259   12.7081 C   0  0  0  0  0  0  0  0  0  0  0  0
    3.6577    2.2623   13.6479 C   0  0  0  0  0  0  0  0  0  0  0  0
    3.6343    1.2933   14.6382 C   0  0  0  0  0  0  0  0  0  0  0  0
    2.5863    0.3872   14.6931 C   0  0  0  0  0  0  0  0  0  0  0  0
    1.5657    0.4436   13.7625 C   0  0  0  0  0  0  0  0  0  0  0  0
   -1.0587    2.2568   14.2395 N   0  0  0  0  0  0  0  0  0  0  0  0
   -2.3936    2.2252   14.4251 C   0  0  0  0  0  0  0  0  0  0  0  0
   -2.9739    2.5205   15.6723 C   0  0  0  0  0  0  0  0  0  0  0  0
   -2.1361    2.8673   16.7075 C   0  0  0  0  0  0  0  0  0  0  0  0
   -0.7597    2.9248   16.4931 C   0  0  0  0  0  0  0  0  0  0  0  0
   -0.2662    2.6133   15.2396 C   0  0  0  0  0  0  0  0  0  0  0  0
   -3.0130    1.9286   13.2672 N   0  0  0  0  0  0  0  0  0  0  0  0
   -4.4177    1.8125   13.2359 C   0  0  0  0  0  0  0  0  0  0  0  0
   -5.1788    2.8251   12.6588 C   0  0  0  0  0  0  0  0  0  0  0  0
   -6.5536    2.6918   12.5899 C   0  0  0  0  0  0  0  0  0  0  0  0
   -7.1705    1.5570   13.0918 C   0  0  0  0  0  0  0  0  0  0  0  0
   -6.4113    0.5486   13.6627 C   0  0  0  0  0  0  0  0  0  0  0  0
   -5.0356    0.6712   13.7400 C   0  0  0  0  0  0  0  0  0  0  0  0
    2.8826    1.0697   10.3197 H   0  0  0  0  0  0  0  0  0  0  0  0
    2.7471    0.8894    7.8464 H   0  0  0  0  0  0  0  0  0  0  0  0
    0.5347    1.0627    6.7228 H   0  0  0  0  0  0  0  0  0  0  0  0
   -1.5112    1.3812    8.1396 H   0  0  0  0  0  0  0  0  0  0  0  0
    2.6463    3.0915   11.9447 H   0  0  0  0  0  0  0  0  0  0  0  0
    4.4676    2.9760   13.6091 H   0  0  0  0  0  0  0  0  0  0  0  0
    4.4296    1.2467   15.3671 H   0  0  0  0  0  0  0  0  0  0  0  0
    2.5650   -0.3673   15.4656 H   0  0  0  0  0  0  0  0  0  0  0  0
    0.7384   -0.2539   13.7927 H   0  0  0  0  0  0  0  0  0  0  0  0
   -4.0458    2.4829   15.7888 H   0  0  0  0  0  0  0  0  0  0  0  0
   -2.5446    3.1042   17.6790 H   0  0  0  0  0  0  0  0  0  0  0  0
   -0.0865    3.2087   17.2850 H   0  0  0  0  0  0  0  0  0  0  0  0
    0.7931    2.6527   15.0277 H   0  0  0  0  0  0  0  0  0  0  0  0
   -4.6752    3.6975   12.2609 H   0  0  0  0  0  0  0  0  0  0  0  0
   -7.1447    3.4741   12.1380 H   0  0  0  0  0  0  0  0  0  0  0  0
   -8.2437    1.4543   13.0301 H   0  0  0  0  0  0  0  0  0  0  0  0
   -6.8902   -0.3417   14.0422 H   0  0  0  0  0  0  0  0  0  0  0  0
   -4.4247   -0.1152   14.1637 H   0  0  0  0  0  0  0  0  0  0  0  0
  1  3  1  0  0  0  0
  1 24  1  0  0  0  0
  2  1  1  0  0  0  0
  4  1  1  0  0  0  0
  5  6  1  0  0  0  0
  5  1  1  0  0  0  0
  6  7  1  1  0  0  0
  6 11  1  0  0  0  0
  7 31  1  0  0  0  0
  8  7  2  0  0  0  0
  9  8  1  0  0  0  0
  9 10  2  0  0  0  0
 10  5  1  0  0  0  0
 11  1  1  0  0  0  0
 11 12  1  0  0  0  0
 12 17  1  0  0  0  0
 13 12  2  0  0  0  0
 13 14  1  0  0  0  0
 14 15  2  0  0  0  0
 15 16  1  0  0  0  0
 15 37  1  0  0  0  0
 16 38  1  0  0  0  0
 17 39  1  0  0  0  0
 17 16  2  0  0  0  0
 18 19  2  0  0  0  0
 18 23  1  0  0  0  0
 19 20  1  0  0  0  0
 20 40  1  0  0  0  0
 20 21  2  0  0  0  0
 21 41  1  0  0  0  0
 22 21  1  0  0  0  0
 22 42  1  0  0  0  0
 23 22  2  0  0  0  0
 24 19  1  0  0  0  0
 25 24  1  0  0  0  0
 25 30  1  0  0  0  0
 26 25  2  0  0  0  0
 27 26  1  0  0  0  0
 27 28  2  0  0  0  0
 28 29  1  0  0  0  0
 29 30  2  0  0  0  0
 29 47  1  0  0  0  0
 30 48  1  0  0  0  0
 32  8  1  0  0  0  0
 33  9  1  0  0  0  0
 34 10  1  0  0  0  0
 35 13  1  0  0  0  0
 36 14  1  0  0  0  0
 43 23  1  0  0  0  0
 44 26  1  0  0  0  0
 45 27  1  0  0  0  0
 46 28  1  0  0  0  0
M  END
$$$$
