CSD_code = RAYHIK | q = 0 | S = 0 | Stoichiometry = C15H14Cl4FNPt | MND = 6
 OpenBabel04212202093D

 36 38  0  0  1  0  0  0  0  0999 V2000
    9.6460    8.4902    3.6460 Pt  0  0  0  0  0  0  0  0  0  0  0  0
    8.7980    9.0921    5.7634 Cl  0  0  0  0  0  0  0  0  0  0  0  0
    8.4336    6.5423    3.6541 Cl  0  0  0  0  0  0  0  0  0  0  0  0
   10.5938    7.9787    1.5365 Cl  0  0  0  0  0  0  0  0  0  0  0  0
    7.6700    9.5036    2.4531 Cl  0  0  0  0  0  0  0  0  0  0  0  0
   10.7839   10.3059    3.7323 N   0  0  0  0  0  0  0  0  0  0  0  0
   10.4141   11.5532    3.4217 C   0  0  2  0  0  3  0  0  0  0  0  0
   11.1913   12.6315    3.8427 C   0  0  0  0  0  0  0  0  0  0  0  0
   10.8830   13.6395    3.6346 H   0  0  0  0  0  0  0  0  0  0  0  0
   12.3621   12.4232    4.5459 C   0  0  0  0  0  0  0  0  0  0  0  0
   12.9554   13.2603    4.8803 H   0  0  0  0  0  0  0  0  0  0  0  0
   12.7520   11.1292    4.8112 C   0  0  0  0  0  0  0  0  0  0  0  0
   13.6564   10.9315    5.3594 H   0  0  0  0  0  0  0  0  0  0  0  0
   11.9379   10.0777    4.3972 C   0  0  0  0  0  0  0  0  0  0  0  0
   12.2754    8.6884    4.6952 C   0  0  0  0  0  0  0  0  0  0  0  0
   13.5161    8.2793    5.1952 C   0  0  0  0  0  0  0  0  0  0  0  0
   14.3074    8.9943    5.3527 H   0  0  0  0  0  0  0  0  0  0  0  0
   13.7585    6.9513    5.4762 C   0  0  0  0  0  0  0  0  0  0  0  0
   14.7127    6.6242    5.8574 H   0  0  0  0  0  0  0  0  0  0  0  0
   12.7521    6.0244    5.2591 C   0  0  0  0  0  0  0  0  0  0  0  0
   12.9858    4.7345    5.5383 F   0  0  0  0  0  0  0  0  0  0  0  0
   11.5140    6.3888    4.7509 C   0  0  0  0  0  0  0  0  0  0  0  0
   10.7619    5.6328    4.5829 H   0  0  0  0  0  0  0  0  0  0  0  0
   11.2941    7.7192    4.4710 C   0  0  0  0  0  0  0  0  0  0  0  0
    9.1188   11.8680    2.6727 C   0  0  0  0  0  0  0  0  0  0  0  0
    9.2918   13.1213    1.7916 C   0  0  0  0  0  0  0  0  0  0  0  0
   10.1479   13.0138    1.1298 H   0  0  0  0  0  0  0  0  0  0  0  0
    9.4107   14.0240    2.3816 H   0  0  0  0  0  0  0  0  0  0  0  0
    8.4023   13.2627    1.1832 H   0  0  0  0  0  0  0  0  0  0  0  0
    8.0484   12.1497    3.7399 C   0  0  0  0  0  0  0  0  0  0  0  0
    7.9698   11.3240    4.4443 H   0  0  0  0  0  0  0  0  0  0  0  0
    7.0815   12.3034    3.2678 H   0  0  0  0  0  0  0  0  0  0  0  0
    8.3094   13.0437    4.3011 H   0  0  0  0  0  0  0  0  0  0  0  0
    8.6708   10.7618    1.7006 C   0  0  0  0  0  0  0  0  0  0  0  0
    9.5253   10.2580    1.2414 H   0  0  0  0  0  0  0  0  0  0  0  0
    8.0469   11.1907    0.9178 H   0  0  0  0  0  0  0  0  0  0  0  0
  1  3  1  0  0  0  0
  1  6  1  0  0  0  0
  1 24  1  0  0  0  0
  1  2  1  0  0  0  0
  4  1  1  0  0  0  0
  6 14  1  0  0  0  0
  7 25  1  1  0  0  0
  7  6  1  0  0  0  0
  7  8  1  0  0  0  0
  8 10  2  0  0  0  0
  9  8  1  0  0  0  0
 10 12  1  0  0  0  0
 10 11  1  0  0  0  0
 12 13  1  0  0  0  0
 14 15  1  0  0  0  0
 14 12  2  0  0  0  0
 15 16  1  0  0  0  0
 16 17  1  0  0  0  0
 16 18  2  0  0  0  0
 18 19  1  0  0  0  0
 20 18  1  0  0  0  0
 20 21  1  0  0  0  0
 22 20  2  0  0  0  0
 23 22  1  0  0  0  0
 24 15  2  0  0  0  0
 24 22  1  0  0  0  0
 25 30  1  0  0  0  0
 26 28  1  0  0  0  0
 26 25  1  0  0  0  0
 27 26  1  0  0  0  0
 29 26  1  0  0  0  0
 30 33  1  0  0  0  0
 30 31  1  0  0  0  0
 32 30  1  0  0  0  0
 34  5  1  0  0  0  0
 34 25  1  0  0  0  0
 35 34  1  0  0  0  0
 36 34  1  0  0  0  0
M  END
$$$$
