CSD_code = RAYLEJ | q = 0 | S = 0 | Stoichiometry = C17H16ClN3O2Pd | MND = 4
 OpenBabel04212202093D

 40 44  0  0  1  0  0  0  0  0999 V2000
    1.1760    0.4789    8.8892 Pd  0  0  2  0  0  0  0  0  0  0  0  0
    0.3141    2.1789   10.0981 Cl  0  0  0  0  0  0  0  0  0  0  0  0
    2.6898    1.5340    8.0461 N   0  0  0  0  0  0  0  0  0  0  0  0
    3.3788    1.0848    7.0519 C   0  0  0  0  0  0  0  0  0  0  0  0
    4.5553    1.6910    6.8402 O   0  0  0  0  0  0  0  0  0  0  0  0
    4.7483    2.6501    7.8696 C   0  0  0  0  0  0  0  0  0  0  0  0
    3.4578    2.5881    8.7246 C   0  0  0  0  0  0  0  0  0  0  0  0
    3.0408    0.0238    6.1224 C   0  0  0  0  0  0  0  0  0  0  0  0
    2.2008   -1.0587    6.4719 C   0  0  0  0  0  0  0  0  0  0  0  0
    1.9567   -2.0327    5.4897 C   0  0  0  0  0  0  0  0  0  0  0  0
    2.5226   -1.9484    4.2387 C   0  0  0  0  0  0  0  0  0  0  0  0
    3.3680   -0.8946    3.9112 C   0  0  0  0  0  0  0  0  0  0  0  0
    3.6227    0.0768    4.8515 C   0  0  0  0  0  3  0  0  0  0  0  0
    1.6235   -1.1236    7.7186 N   0  0  0  0  0  0  0  0  0  0  0  0
    1.1825   -2.2848    8.2459 C   0  0  0  0  0  0  0  0  0  0  0  0
    1.4476   -3.4227    7.8826 O   0  0  0  0  0  0  0  0  0  0  0  0
    0.2383   -2.0667    9.4027 C   0  0  1  0  0  3  0  0  0  0  0  0
   -0.0554   -0.8049    9.7560 N   0  0  0  0  0  0  0  0  0  0  0  0
   -0.9693   -0.6034   10.7040 C   0  0  0  0  0  0  0  0  0  0  0  0
   -1.6195   -1.6475   11.3426 C   0  0  0  0  0  0  0  0  0  0  0  0
   -1.3101   -2.9536   10.9962 C   0  0  0  0  0  0  0  0  0  0  0  0
   -0.3680   -3.1614   10.0041 C   0  0  0  0  0  0  0  0  0  0  0  0
    3.7420    2.1356   10.1596 C   0  0  0  0  0  0  0  0  0  0  0  0
    2.7173    3.9239    8.6854 C   0  0  0  0  0  0  0  0  0  0  0  0
    5.6449    2.3766    8.4337 H   0  0  0  0  0  0  0  0  0  0  0  0
    4.8993    3.6296    7.4086 H   0  0  0  0  0  0  0  0  0  0  0  0
    1.3136   -2.8631    5.7301 H   0  0  0  0  0  0  0  0  0  0  0  0
    2.3061   -2.7130    3.5074 H   0  0  0  0  0  0  0  0  0  0  0  0
    3.8170   -0.8362    2.9320 H   0  0  0  0  0  0  0  0  0  0  0  0
    4.2695    0.9086    4.6186 H   0  0  0  0  0  0  0  0  0  0  0  0
   -1.1842    0.4269   10.9633 H   0  0  0  0  0  0  0  0  0  0  0  0
   -2.3535   -1.4300   12.1019 H   0  0  0  0  0  0  0  0  0  0  0  0
   -1.7941   -3.7867   11.4825 H   0  0  0  0  0  0  0  0  0  0  0  0
   -0.0795   -4.1458    9.6689 H   0  0  0  0  0  0  0  0  0  0  0  0
    4.2386    1.1625   10.1550 H   0  0  0  0  0  0  0  0  0  0  0  0
    2.8026    2.0549   10.7122 H   0  0  0  0  0  0  0  0  0  0  0  0
    4.3809    2.8590   10.6602 H   0  0  0  0  0  0  0  0  0  0  0  0
    1.7863    3.8528    9.2411 H   0  0  0  0  0  0  0  0  0  0  0  0
    3.3383    4.6962    9.1321 H   0  0  0  0  0  0  0  0  0  0  0  0
    2.4906    4.1976    7.6567 H   0  0  0  0  0  0  0  0  0  0  0  0
  1 18  1  0  0  0  0
  1  2  1  6  0  0  0
  3  7  1  0  0  0  0
  3  1  1  0  0  0  0
  4  3  1  0  0  0  0
  5  4  1  0  0  0  0
  5  6  1  0  0  0  0
  6 25  1  0  0  0  0
  6  7  1  0  0  0  0
  7 23  1  0  0  0  0
  8  9  1  0  0  0  0
  8  4  2  0  0  0  0
  9 14  1  0  0  0  0
 10 27  1  0  0  0  0
 10  9  2  0  0  0  0
 11 10  1  0  0  0  0
 12 11  2  0  0  0  0
 12 13  1  0  0  0  0
 13  8  1  0  0  0  0
 14 15  1  0  0  0  0
 14  1  1  0  0  0  0
 16 15  2  0  0  0  0
 17 15  1  6  0  0  0
 17 18  1  0  0  0  0
 17 22  1  0  0  0  0
 18 19  1  0  0  0  0
 19 31  1  0  0  0  0
 19 20  2  0  0  0  0
 20 32  1  0  0  0  0
 21 20  1  0  0  0  0
 21 33  1  0  0  0  0
 22 21  2  0  0  0  0
 23 37  1  0  0  0  0
 23 36  1  0  0  0  0
 24  7  1  0  0  0  0
 24 39  1  0  0  0  0
 24 38  1  0  0  0  0
 26  6  1  0  0  0  0
 28 11  1  0  0  0  0
 29 12  1  0  0  0  0
 30 13  1  0  0  0  0
 34 22  1  0  0  0  0
 35 23  1  0  0  0  0
 40 24  1  0  0  0  0
M  END
$$$$
