CSD_code = RAYZUO | q = 0 | S = 0 | Stoichiometry = C14H12ClN4O3ReS | MND = 6
 OpenBabel04212202093D

 36 38  0  0  1  0  0  0  0  0999 V2000
    3.9900    4.8830    2.3872 Re  0  0  0  0  0  0  0  0  0  0  0  0
    3.3137    3.9590    4.4941 Cl  0  0  0  0  0  0  0  0  0  0  0  0
    4.5610    0.2115    3.3808 S   0  0  0  0  0  0  0  0  0  0  0  0
    4.9774    5.9328   -0.3498 O   0  0  0  0  0  1  0  0  0  0  0  0
    3.7042    7.5934    3.8450 O   0  0  0  0  0  1  0  0  0  0  0  0
    0.9837    4.7148    1.7058 O   0  0  0  0  0  1  0  0  0  0  0  0
    5.9421    4.5280    3.2031 N   0  0  0  0  0  0  0  0  0  0  0  0
    7.3097    2.9418    3.9259 N   0  0  0  0  0  0  0  0  0  0  0  0
    5.4126    2.3103    2.5954 N   0  0  0  0  0  2  0  0  0  0  0  0
    4.3962    2.8313    1.9930 N   0  0  0  0  0  0  0  0  0  0  0  0
    4.6036    5.5638    0.6732 C   0  0  0  0  0  2  0  0  0  0  0  0
    3.7887    6.6431    3.2199 C   0  0  0  0  0  2  0  0  0  0  0  0
    2.1080    4.8213    1.8863 C   0  0  0  0  0  2  0  0  0  0  0  0
    3.5406    1.8858    1.4839 C   0  0  0  0  0  0  0  0  0  0  0  0
    3.4770    0.5994    2.0654 C   0  0  0  0  0  0  0  0  0  0  0  0
    2.5325   -0.3053    1.5876 C   0  0  0  0  0  0  0  0  0  0  0  0
    2.4654   -1.2914    2.0182 H   0  0  0  0  0  0  0  0  0  0  0  0
    1.6919    0.0356    0.5502 C   0  0  0  0  0  0  0  0  0  0  0  0
    0.9727   -0.6852    0.1920 H   0  0  0  0  0  0  0  0  0  0  0  0
    1.7724    1.2930   -0.0426 C   0  0  0  0  0  0  0  0  0  0  0  0
    1.1222    1.5469   -0.8647 H   0  0  0  0  0  0  0  0  0  0  0  0
    2.6835    2.2091    0.4231 C   0  0  0  0  0  0  0  0  0  0  0  0
    2.7757    3.1865   -0.0298 H   0  0  0  0  0  0  0  0  0  0  0  0
    6.1841    3.2121    3.2271 C   0  0  2  0  0  3  0  0  0  0  0  0
    6.9314    5.1092    3.9135 C   0  0  0  0  0  0  0  0  0  0  0  0
    6.9739    6.1709    4.0569 H   0  0  0  0  0  0  0  0  0  0  0  0
    7.7851    4.1387    4.3700 C   0  0  0  0  0  0  0  0  0  0  0  0
    8.6711    4.2109    4.9666 H   0  0  0  0  0  0  0  0  0  0  0  0
    7.8562    1.6394    4.1794 C   0  0  0  0  0  0  0  0  0  0  0  0
    7.2873    0.9113    3.6049 H   0  0  0  0  0  0  0  0  0  0  0  0
    7.7787    1.3975    5.2410 H   0  0  0  0  0  0  0  0  0  0  0  0
    8.9059    1.6107    3.8833 H   0  0  0  0  0  0  0  0  0  0  0  0
    3.6133   -1.0638    4.2860 C   0  0  0  0  0  0  0  0  0  0  0  0
    4.0868   -1.1370    5.2600 H   0  0  0  0  0  0  0  0  0  0  0  0
    3.6787   -2.0214    3.7788 H   0  0  0  0  0  0  0  0  0  0  0  0
    2.5831   -0.7444    4.4000 H   0  0  0  0  0  0  0  0  0  0  0  0
  1  7  1  0  0  0  0
  1 12  1  0  0  0  0
  1  2  1  0  0  0  0
  3 33  1  0  0  0  0
  4 11  1  0  0  0  0
  6 13  1  0  0  0  0
  7 24  1  0  0  0  0
  7 25  1  0  0  0  0
  8 29  1  0  0  0  0
  8 27  1  0  0  0  0
 10  1  1  0  0  0  0
 10  9  1  0  0  0  0
 11  1  1  0  0  0  0
 12  5  1  0  0  0  0
 13  1  1  0  0  0  0
 14 10  1  0  0  0  0
 14 15  1  0  0  0  0
 15  3  1  0  0  0  0
 16 17  1  0  0  0  0
 16 15  2  0  0  0  0
 18 16  1  0  0  0  0
 19 18  1  0  0  0  0
 20 22  1  0  0  0  0
 20 18  2  0  0  0  0
 21 20  1  0  0  0  0
 22 14  2  0  0  0  0
 23 22  1  0  0  0  0
 24  9  1  6  0  0  0
 24  8  1  0  0  0  0
 25 26  1  0  0  0  0
 25 27  2  0  0  0  0
 27 28  1  0  0  0  0
 29 31  1  0  0  0  0
 30 29  1  0  0  0  0
 32 29  1  0  0  0  0
 33 36  1  0  0  0  0
 33 34  1  0  0  0  0
 35 33  1  0  0  0  0
M  END
$$$$
