CSD_code = RAZDON | q = 0 | S = 0 | Stoichiometry = C28H27Cl2NO2PReS | MND = 6
 OpenBabel04212202093D

 63 67  0  0  0  0  0  0  0  0999 V2000
    6.0495    8.7100    2.7850 Re  0  0  0  0  0  0  0  0  0  0  0  0
    7.1652    9.4514    1.8137 O   0  0  0  0  0  1  0  0  0  0  0  0
    4.9638    7.8350    3.8570 O   0  0  0  0  0  0  0  0  0  0  0  0
    7.8339    7.6163    3.8924 N   0  0  0  0  0  0  0  0  0  0  0  0
    4.2539   10.0128    1.8217 P   0  0  0  0  0  4  0  0  0  0  0  0
    9.1672    6.6678    5.8633 S   0  0  0  0  0  0  0  0  0  0  0  0
    5.8839    6.8529    1.2809 Cl  0  0  0  0  0  0  0  0  0  0  0  0
    6.1989   10.4125    4.4647 Cl  0  0  0  0  0  0  0  0  0  0  0  0
    4.5769   11.7957    1.8662 C   0  0  0  0  0  0  0  0  0  0  0  0
    5.8767   12.2592    1.6877 C   0  0  0  0  0  0  0  0  0  0  0  0
    6.6809   11.5437    1.5689 H   0  0  0  0  0  0  0  0  0  0  0  0
    6.1274   13.6191    1.6893 C   0  0  0  0  0  0  0  0  0  0  0  0
    7.1370   13.9787    1.5609 H   0  0  0  0  0  0  0  0  0  0  0  0
    5.0867   14.5173    1.8640 C   0  0  0  0  0  0  0  0  0  0  0  0
    5.2849   15.5790    1.8716 H   0  0  0  0  0  0  0  0  0  0  0  0
    3.7913   14.0567    2.0350 C   0  0  0  0  0  0  0  0  0  0  0  0
    2.9806   14.7572    2.1722 H   0  0  0  0  0  0  0  0  0  0  0  0
    3.5310   12.6982    2.0358 C   0  0  0  0  0  0  0  0  0  0  0  0
    2.5206   12.3376    2.1714 H   0  0  0  0  0  0  0  0  0  0  0  0
    3.8302    9.6480    0.0985 C   0  0  0  0  0  0  0  0  0  0  0  0
    3.8706   10.6349   -0.8813 C   0  0  0  0  0  0  0  0  0  0  0  0
    4.1522   11.6448   -0.6204 H   0  0  0  0  0  0  0  0  0  0  0  0
    3.5535   10.3173   -2.1902 C   0  0  0  0  0  0  0  0  0  0  0  0
    3.5872   11.0846   -2.9495 H   0  0  0  0  0  0  0  0  0  0  0  0
    3.2025    9.0207   -2.5283 C   0  0  0  0  0  0  0  0  0  0  0  0
    2.9629    8.7771   -3.5528 H   0  0  0  0  0  0  0  0  0  0  0  0
    3.1705    8.0341   -1.5557 C   0  0  0  0  0  0  0  0  0  0  0  0
    2.9120    7.0198   -1.8194 H   0  0  0  0  0  0  0  0  0  0  0  0
    3.4840    8.3419   -0.2451 C   0  0  0  0  0  0  0  0  0  0  0  0
    3.4978    7.5668    0.5072 H   0  0  0  0  0  0  0  0  0  0  0  0
    2.7377    9.7985    2.7923 C   0  0  0  0  0  0  0  0  0  0  0  0
    2.7803   10.2064    4.1256 C   0  0  0  0  0  0  0  0  0  0  0  0
    3.6933   10.6364    4.5191 H   0  0  0  0  0  0  0  0  0  0  0  0
    1.6675   10.0470    4.9298 C   0  0  0  0  0  0  0  0  0  0  0  0
    1.7009   10.3632    5.9620 H   0  0  0  0  0  0  0  0  0  0  0  0
    0.5118    9.4797    4.4144 C   0  0  0  0  0  0  0  0  0  0  0  0
   -0.3548    9.3504    5.0459 H   0  0  0  0  0  0  0  0  0  0  0  0
    0.4678    9.0792    3.0894 C   0  0  0  0  0  0  0  0  0  0  0  0
   -0.4330    8.6402    2.6862 H   0  0  0  0  0  0  0  0  0  0  0  0
    1.5764    9.2367    2.2744 C   0  0  0  0  0  0  0  0  0  0  0  0
    1.5368    8.9278    1.2397 H   0  0  0  0  0  0  0  0  0  0  0  0
    8.9210    7.0153    3.3178 C   0  0  0  0  0  0  0  0  0  0  0  0
    9.2268    6.9719    1.9597 C   0  0  0  0  0  0  0  0  0  0  0  0
    8.5664    7.4538    1.2551 H   0  0  0  0  0  0  0  0  0  0  0  0
   10.3733    6.3162    1.5682 C   0  0  0  0  0  0  0  0  0  0  0  0
   10.6261    6.2702    0.5204 H   0  0  0  0  0  0  0  0  0  0  0  0
   11.2157    5.7110    2.5010 C   0  0  0  0  0  0  0  0  0  0  0  0
   12.1062    5.2032    2.1629 H   0  0  0  0  0  0  0  0  0  0  0  0
   10.9364    5.7555    3.8524 C   0  0  0  0  0  0  0  0  0  0  0  0
   11.5891    5.2979    4.5787 H   0  0  0  0  0  0  0  0  0  0  0  0
    9.7860    6.4147    4.2537 C   0  0  0  0  0  0  0  0  0  0  0  0
    7.8391    7.5258    5.1749 C   0  0  0  0  0  3  0  0  0  0  0  0
    7.0889    7.9718    5.8021 H   0  0  0  0  0  0  0  0  0  0  0  0
    4.1113    6.9792    4.5060 C   0  0  0  0  0  0  0  0  0  0  0  0
    3.1055    7.1198    4.0639 H   0  0  0  0  0  0  0  0  0  0  0  0
    4.5486    5.5259    4.2765 C   0  0  0  0  0  0  0  0  0  0  0  0
    4.6838    5.3507    3.2105 H   0  0  0  0  0  0  0  0  0  0  0  0
    3.7971    4.8447    4.6656 H   0  0  0  0  0  0  0  0  0  0  0  0
    5.4964    5.3382    4.7787 H   0  0  0  0  0  0  0  0  0  0  0  0
    4.0328    7.3133    6.0024 C   0  0  0  0  0  0  0  0  0  0  0  0
    4.9518    7.0176    6.5046 H   0  0  0  0  0  0  0  0  0  0  0  0
    3.1997    6.7837    6.4562 H   0  0  0  0  0  0  0  0  0  0  0  0
    3.8914    8.3838    6.1337 H   0  0  0  0  0  0  0  0  0  0  0  0
  1  3  1  0  0  0  0
  1  4  1  0  0  0  0
  1  8  1  0  0  0  0
  2  1  1  0  0  0  0
  3 54  1  0  0  0  0
  4 52  1  0  0  0  0
  5  9  1  0  0  0  0
  5  1  1  0  0  0  0
  5 31  1  0  0  0  0
  7  1  1  0  0  0  0
  9 18  1  0  0  0  0
 10 12  1  0  0  0  0
 10  9  2  0  0  0  0
 11 10  1  0  0  0  0
 12 14  2  0  0  0  0
 13 12  1  0  0  0  0
 14 15  1  0  0  0  0
 14 16  1  0  0  0  0
 16 18  2  0  0  0  0
 16 17  1  0  0  0  0
 18 19  1  0  0  0  0
 20  5  1  0  0  0  0
 21 22  1  0  0  0  0
 21 20  2  0  0  0  0
 23 21  1  0  0  0  0
 24 23  1  0  0  0  0
 25 23  2  0  0  0  0
 25 27  1  0  0  0  0
 26 25  1  0  0  0  0
 27 29  2  0  0  0  0
 28 27  1  0  0  0  0
 29 20  1  0  0  0  0
 29 30  1  0  0  0  0
 31 32  1  0  0  0  0
 32 33  1  0  0  0  0
 32 34  2  0  0  0  0
 34 35  1  0  0  0  0
 36 34  1  0  0  0  0
 36 37  1  0  0  0  0
 38 36  2  0  0  0  0
 39 38  1  0  0  0  0
 40 31  2  0  0  0  0
 40 38  1  0  0  0  0
 41 40  1  0  0  0  0
 42  4  1  0  0  0  0
 42 51  1  0  0  0  0
 43 42  2  0  0  0  0
 44 43  1  0  0  0  0
 45 43  1  0  0  0  0
 45 47  2  0  0  0  0
 46 45  1  0  0  0  0
 47 49  1  0  0  0  0
 48 47  1  0  0  0  0
 49 51  2  0  0  0  0
 49 50  1  0  0  0  0
 51  6  1  0  0  0  0
 52 53  1  0  0  0  0
 52  6  1  0  0  0  0
 54 60  1  0  0  0  0
 55 54  1  0  0  0  0
 56 54  1  0  0  0  0
 56 58  1  0  0  0  0
 56 59  1  0  0  0  0
 57 56  1  0  0  0  0
 60 63  1  0  0  0  0
 60 62  1  0  0  0  0
 60 61  1  0  0  0  0
M  END
$$$$
