CSD_code = RAZDIH | q = 0 | S = 0 | Stoichiometry = C27H25Cl2NO2PReS | MND = 6
 OpenBabel04212202093D

 60 64  0  0  0  0  0  0  0  0999 V2000
   11.3267   11.4963    9.2086 Re  0  0  0  0  0  0  0  0  0  0  0  0
   12.4242   10.7891    8.1902 O   0  0  0  0  0  1  0  0  0  0  0  0
   10.2527   12.3543   10.3127 O   0  0  0  0  0  0  0  0  0  0  0  0
   13.1351   12.6235   10.2402 N   0  0  0  0  0  0  0  0  0  0  0  0
    9.5455   10.1312    8.3144 P   0  0  0  0  0  4  0  0  0  0  0  0
   14.5904   13.5147   12.1502 S   0  0  0  0  0  0  0  0  0  0  0  0
   11.0173   13.3789    7.7668 Cl  0  0  0  0  0  0  0  0  0  0  0  0
   11.5749    9.8170   10.8889 Cl  0  0  0  0  0  0  0  0  0  0  0  0
    9.9144    8.3607    8.4256 C   0  0  0  0  0  0  0  0  0  0  0  0
   11.2152    7.9269    8.1852 C   0  0  0  0  0  0  0  0  0  0  0  0
   11.9851    8.6594    7.9754 H   0  0  0  0  0  0  0  0  0  0  0  0
   11.5113    6.5781    8.2465 C   0  0  0  0  0  0  0  0  0  0  0  0
   12.5219    6.2416    8.0712 H   0  0  0  0  0  0  0  0  0  0  0  0
   10.5152    5.6611    8.5440 C   0  0  0  0  0  0  0  0  0  0  0  0
   10.7501    4.6085    8.6006 H   0  0  0  0  0  0  0  0  0  0  0  0
    9.2195    6.0919    8.7767 C   0  0  0  0  0  0  0  0  0  0  0  0
    8.4445    5.3769    9.0108 H   0  0  0  0  0  0  0  0  0  0  0  0
    8.9134    7.4399    8.7176 C   0  0  0  0  0  0  0  0  0  0  0  0
    7.9031    7.7777    8.9030 H   0  0  0  0  0  0  0  0  0  0  0  0
    9.0996   10.4234    6.5835 C   0  0  0  0  0  0  0  0  0  0  0  0
    9.1512    9.4026    5.6397 C   0  0  0  0  0  0  0  0  0  0  0  0
    9.4563    8.4088    5.9346 H   0  0  0  0  0  0  0  0  0  0  0  0
    8.8147    9.6662    4.3236 C   0  0  0  0  0  0  0  0  0  0  0  0
    8.8574    8.8731    3.5917 H   0  0  0  0  0  0  0  0  0  0  0  0
    8.4323   10.9421    3.9433 C   0  0  0  0  0  0  0  0  0  0  0  0
    8.1771   11.1435    2.9134 H   0  0  0  0  0  0  0  0  0  0  0  0
    8.3876   11.9621    4.8806 C   0  0  0  0  0  0  0  0  0  0  0  0
    8.1030   12.9603    4.5839 H   0  0  0  0  0  0  0  0  0  0  0  0
    8.7208   11.7086    6.1978 C   0  0  0  0  0  0  0  0  0  0  0  0
    8.7230   12.5095    6.9229 H   0  0  0  0  0  0  0  0  0  0  0  0
    8.0387   10.3631    9.2936 C   0  0  0  0  0  0  0  0  0  0  0  0
    8.1199   10.0803   10.6575 C   0  0  0  0  0  0  0  0  0  0  0  0
    9.0555    9.7254   11.0721 H   0  0  0  0  0  0  0  0  0  0  0  0
    7.0138   10.2675   11.4650 C   0  0  0  0  0  0  0  0  0  0  0  0
    7.0773   10.0511   12.5211 H   0  0  0  0  0  0  0  0  0  0  0  0
    5.8268   10.7370   10.9220 C   0  0  0  0  0  0  0  0  0  0  0  0
    4.9656   10.8891   11.5557 H   0  0  0  0  0  0  0  0  0  0  0  0
    5.7450   11.0121    9.5671 C   0  0  0  0  0  0  0  0  0  0  0  0
    4.8203   11.3750    9.1432 H   0  0  0  0  0  0  0  0  0  0  0  0
    6.8469   10.8269    8.7490 C   0  0  0  0  0  0  0  0  0  0  0  0
    6.7799   11.0396    7.6918 H   0  0  0  0  0  0  0  0  0  0  0  0
   14.1834   13.2442    9.6159 C   0  0  0  0  0  0  0  0  0  0  0  0
   14.4022   13.3306    8.2430 C   0  0  0  0  0  0  0  0  0  0  0  0
   13.6993   12.8690    7.5664 H   0  0  0  0  0  0  0  0  0  0  0  0
   15.5209   14.0016    7.8001 C   0  0  0  0  0  0  0  0  0  0  0  0
   15.7065   14.0810    6.7403 H   0  0  0  0  0  0  0  0  0  0  0  0
   16.4203   14.5803    8.6958 C   0  0  0  0  0  0  0  0  0  0  0  0
   17.2867   15.1015    8.3176 H   0  0  0  0  0  0  0  0  0  0  0  0
   16.2276   14.4928   10.0602 C   0  0  0  0  0  0  0  0  0  0  0  0
   16.9245   14.9297   10.7576 H   0  0  0  0  0  0  0  0  0  0  0  0
   15.1058   13.8179   10.5131 C   0  0  0  0  0  0  0  0  0  0  0  0
   13.2214   12.6752   11.5221 C   0  0  0  0  0  3  0  0  0  0  0  0
   12.5123   12.2105   12.1826 H   0  0  0  0  0  0  0  0  0  0  0  0
    9.4288   13.3348   10.7867 C   0  0  0  0  0  0  0  0  0  0  0  0
    9.4509   14.1747   10.0686 H   0  0  0  0  0  0  0  0  0  0  0  0
    8.3968   12.9454   10.8288 H   0  0  0  0  0  0  0  0  0  0  0  0
    9.8420   13.8248   12.1762 C   0  0  0  0  0  0  0  0  0  0  0  0
    9.8671   12.9877   12.8717 H   0  0  0  0  0  0  0  0  0  0  0  0
    9.1269   14.5614   12.5312 H   0  0  0  0  0  0  0  0  0  0  0  0
   10.8287   14.2821   12.1348 H   0  0  0  0  0  0  0  0  0  0  0  0
  1  4  1  0  0  0  0
  1  3  1  0  0  0  0
  1  8  1  0  0  0  0
  2  1  1  0  0  0  0
  3 54  1  0  0  0  0
  4 52  1  0  0  0  0
  5  9  1  0  0  0  0
  5  1  1  0  0  0  0
  5 31  1  0  0  0  0
  7  1  1  0  0  0  0
  9 18  1  0  0  0  0
 10 12  1  0  0  0  0
 10  9  2  0  0  0  0
 11 10  1  0  0  0  0
 12 14  2  0  0  0  0
 13 12  1  0  0  0  0
 14 15  1  0  0  0  0
 14 16  1  0  0  0  0
 16 17  1  0  0  0  0
 18 16  2  0  0  0  0
 18 19  1  0  0  0  0
 20  5  1  0  0  0  0
 21 22  1  0  0  0  0
 21 20  2  0  0  0  0
 23 21  1  0  0  0  0
 24 23  1  0  0  0  0
 25 23  2  0  0  0  0
 25 27  1  0  0  0  0
 26 25  1  0  0  0  0
 27 29  2  0  0  0  0
 28 27  1  0  0  0  0
 29 20  1  0  0  0  0
 29 30  1  0  0  0  0
 31 32  1  0  0  0  0
 32 33  1  0  0  0  0
 32 34  2  0  0  0  0
 34 35  1  0  0  0  0
 36 34  1  0  0  0  0
 36 37  1  0  0  0  0
 38 36  2  0  0  0  0
 39 38  1  0  0  0  0
 40 31  2  0  0  0  0
 40 38  1  0  0  0  0
 41 40  1  0  0  0  0
 42  4  1  0  0  0  0
 42 51  1  0  0  0  0
 43 42  2  0  0  0  0
 44 43  1  0  0  0  0
 45 43  1  0  0  0  0
 45 47  2  0  0  0  0
 46 45  1  0  0  0  0
 47 49  1  0  0  0  0
 48 47  1  0  0  0  0
 49 51  2  0  0  0  0
 49 50  1  0  0  0  0
 51  6  1  0  0  0  0
 52  6  1  0  0  0  0
 52 53  1  0  0  0  0
 54 56  1  0  0  0  0
 54 57  1  0  0  0  0
 55 54  1  0  0  0  0
 57 59  1  0  0  0  0
 57 58  1  0  0  0  0
 60 57  1  0  0  0  0
M  END
$$$$
