CSD_code = RAZFAB | q = 0 | S = 0 | Stoichiometry = C31H24AsCl2N2O2ReS | MND = 6
 OpenBabel04212202093D

 64 69  0  0  1  0  0  0  0  0999 V2000
    7.0718    8.0863    7.5176 Re  0  0  0  0  0  0  0  0  0  0  0  0
    7.5846    9.6342    7.8580 O   0  0  0  0  0  1  0  0  0  0  0  0
    6.9505    5.9133    7.1132 O   0  0  0  0  0  0  0  0  0  0  0  0
   10.9892    6.7588    5.3483 S   0  0  0  0  0  0  0  0  0  0  0  0
    9.0849    7.6778    6.8073 N   0  0  0  0  0  0  0  0  0  0  0  0
    6.5102    8.1328    5.6292 N   0  0  0  0  0  0  0  0  0  0  0  0
    5.5522    8.4301    5.4457 H   0  0  0  0  0  0  0  0  0  0  0  0
    7.3825    4.7574    8.2154 As  0  0  0  0  0  0  0  0  0  0  0  0
    7.4169    7.1850    9.6658 Cl  0  0  0  0  0  0  0  0  0  0  0  0
    4.8631    8.1569    7.9936 Cl  0  0  0  0  0  0  0  0  0  0  0  0
    9.2811    4.7206    8.6622 C   0  0  0  0  0  3  0  0  0  0  0  0
   10.1232    4.3329    7.6274 C   0  0  0  0  0  0  0  0  0  0  0  0
    9.6917    4.0607    6.6660 H   0  0  0  0  0  0  0  0  0  0  0  0
   11.4929    4.3003    7.8223 C   0  0  0  0  0  0  0  0  0  0  0  0
   12.1463    4.0060    7.0138 H   0  0  0  0  0  0  0  0  0  0  0  0
   12.0198    4.6518    9.0541 C   0  0  0  0  0  0  0  0  0  0  0  0
   13.0881    4.6296    9.2086 H   0  0  0  0  0  0  0  0  0  0  0  0
   11.1795    5.0344   10.0864 C   0  0  0  0  0  0  0  0  0  0  0  0
   11.5929    5.3099   11.0450 H   0  0  0  0  0  0  0  0  0  0  0  0
    9.8082    5.0713    9.8957 C   0  0  0  0  0  0  0  0  0  0  0  0
    9.1471    5.3897   10.6916 H   0  0  0  0  0  0  0  0  0  0  0  0
    6.1428    4.4117    9.6637 C   0  0  0  0  0  0  0  0  0  0  0  0
    4.8348    4.8406    9.4930 C   0  0  0  0  0  0  0  0  0  0  0  0
    4.5660    5.3933    8.5970 H   0  0  0  0  0  0  0  0  0  0  0  0
    3.8977    4.5924   10.4806 C   0  0  0  0  0  0  0  0  0  0  0  0
    2.8824    4.9386   10.3577 H   0  0  0  0  0  0  0  0  0  0  0  0
    4.2695    3.9093   11.6271 C   0  0  0  0  0  0  0  0  0  0  0  0
    3.5407    3.7194   12.4011 H   0  0  0  0  0  0  0  0  0  0  0  0
    5.5748    3.4737   11.7890 C   0  0  0  0  0  0  0  0  0  0  0  0
    5.8606    2.9436   12.6860 H   0  0  0  0  0  0  0  0  0  0  0  0
    6.5186    3.7229   10.8070 C   0  0  0  0  0  0  0  0  0  0  0  0
    7.5446    3.3941   10.9291 H   0  0  0  0  0  0  0  0  0  0  0  0
    7.2077    3.1336    7.1511 C   0  0  0  0  0  0  0  0  0  0  0  0
    6.8308    3.2149    5.8182 C   0  0  0  0  0  0  0  0  0  0  0  0
    6.6481    4.1926    5.3839 H   0  0  0  0  0  0  0  0  0  0  0  0
    6.6918    2.0629    5.0623 C   0  0  0  0  0  0  0  0  0  0  0  0
    6.3989    2.1305    4.0246 H   0  0  0  0  0  0  0  0  0  0  0  0
    6.9272    0.8270    5.6404 C   0  0  0  0  0  0  0  0  0  0  0  0
    6.8174   -0.0730    5.0536 H   0  0  0  0  0  0  0  0  0  0  0  0
    7.3011    0.7400    6.9728 C   0  0  0  0  0  0  0  0  0  0  0  0
    7.4821   -0.2260    7.4211 H   0  0  0  0  0  0  0  0  0  0  0  0
    7.4405    1.8907    7.7280 C   0  0  0  0  0  0  0  0  0  0  0  0
    7.7326    1.8379    8.7726 H   0  0  0  0  0  0  0  0  0  0  0  0
   10.2276    7.8642    7.5439 C   0  0  0  0  0  0  0  0  0  0  0  0
   10.3328    8.4819    8.7884 C   0  0  0  0  0  0  0  0  0  0  0  0
    9.4532    8.8951    9.2556 H   0  0  0  0  0  0  0  0  0  0  0  0
   11.5742    8.5746    9.3806 C   0  0  0  0  0  0  0  0  0  0  0  0
   11.6631    9.0505   10.3446 H   0  0  0  0  0  0  0  0  0  0  0  0
   12.7160    8.0804    8.7542 C   0  0  0  0  0  0  0  0  0  0  0  0
   13.6753    8.1705    9.2402 H   0  0  0  0  0  0  0  0  0  0  0  0
   12.6384    7.4971    7.5054 C   0  0  0  0  0  0  0  0  0  0  0  0
   13.5161    7.1344    6.9948 H   0  0  0  0  0  0  0  0  0  0  0  0
   11.3927    7.4009    6.9106 C   0  0  0  0  0  0  0  0  0  0  0  0
    9.2992    7.1489    5.6280 C   0  0  1  0  0  3  0  0  0  0  0  0
    8.3537    6.9316    4.5749 C   0  0  0  0  0  0  0  0  0  0  0  0
    7.0348    7.4775    4.5861 C   0  0  0  0  0  0  0  0  0  0  0  0
    6.2413    7.2778    3.4311 C   0  0  0  0  0  0  0  0  0  0  0  0
    5.2497    7.7081    3.4264 H   0  0  0  0  0  0  0  0  0  0  0  0
    6.6803    6.5501    2.3582 C   0  0  0  0  0  0  0  0  0  0  0  0
    6.0359    6.4091    1.5032 H   0  0  0  0  0  0  0  0  0  0  0  0
    7.9548    5.9797    2.3722 C   0  0  0  0  0  0  0  0  0  0  0  0
    8.2989    5.3918    1.5361 H   0  0  0  0  0  0  0  0  0  0  0  0
    8.7656    6.1822    3.4587 C   0  0  0  0  0  0  0  0  0  0  0  0
    9.7572    5.7515    3.4689 H   0  0  0  0  0  0  0  0  0  0  0  0
  1  2  1  0  0  0  0
  1 10  1  0  0  0  0
  1  9  1  0  0  0  0
  3  1  1  0  0  0  0
  3  8  1  0  0  0  0
  4 54  1  0  0  0  0
  4 53  1  0  0  0  0
  5  1  1  0  0  0  0
  5 44  1  0  0  0  0
  6  1  1  0  0  0  0
  7  6  1  0  0  0  0
  8 22  1  0  0  0  0
 11 20  1  0  0  0  0
 12 14  1  0  0  0  0
 12 11  2  0  0  0  0
 13 12  1  0  0  0  0
 14 16  2  0  0  0  0
 15 14  1  0  0  0  0
 16 17  1  0  0  0  0
 16 18  1  0  0  0  0
 18 19  1  0  0  0  0
 20 18  2  0  0  0  0
 20 21  1  0  0  0  0
 22 31  1  0  0  0  0
 23 22  2  0  0  0  0
 23 25  1  0  0  0  0
 24 23  1  0  0  0  0
 25 27  2  0  0  0  0
 26 25  1  0  0  0  0
 27 29  1  0  0  0  0
 27 28  1  0  0  0  0
 29 30  1  0  0  0  0
 31 32  1  0  0  0  0
 31 29  2  0  0  0  0
 33 42  1  0  0  0  0
 33  8  1  0  0  0  0
 34 33  2  0  0  0  0
 35 34  1  0  0  0  0
 36 38  2  0  0  0  0
 36 34  1  0  0  0  0
 37 36  1  0  0  0  0
 38 40  1  0  0  0  0
 39 38  1  0  0  0  0
 40 41  1  0  0  0  0
 40 42  2  0  0  0  0
 42 43  1  0  0  0  0
 44 45  1  0  0  0  0
 45 46  1  0  0  0  0
 45 47  2  0  0  0  0
 47 48  1  0  0  0  0
 49 50  1  0  0  0  0
 49 47  1  0  0  0  0
 51 49  2  0  0  0  0
 52 51  1  0  0  0  0
 53 51  1  0  0  0  0
 53 44  2  0  0  0  0
 54 55  1  6  0  0  0
 54  5  1  0  0  0  0
 55 56  1  0  0  0  0
 56  6  1  0  0  0  0
 57 56  2  0  0  0  0
 58 57  1  0  0  0  0
 59 61  2  0  0  0  0
 59 57  1  0  0  0  0
 60 59  1  0  0  0  0
 61 63  1  0  0  0  0
 62 61  1  0  0  0  0
 63 64  1  0  0  0  0
 63 55  2  0  0  0  0
M  END
$$$$
