CSD_code = RAZJOT | q = 0 | S = 0 | Stoichiometry = C34H24Cl2N2O2Pd | MND = 4
 OpenBabel04212202093D

 65 70  0  0  1  0  0  0  0  0999 V2000
   -0.2866    3.7684    2.6376 Pd  0  0  0  0  0  0  0  0  0  0  0  0
    1.6261    3.7016    1.3928 Cl  0  0  0  0  0  0  0  0  0  0  0  0
    1.3781    0.1609    4.6635 O   0  0  0  0  0  0  0  0  0  0  0  0
    0.7875    3.7222    4.2891 N   0  0  0  0  0  0  0  0  0  0  0  0
    0.1061   10.8171    3.2125 C   0  0  0  0  0  0  0  0  0  0  0  0
    0.4967    9.6254    3.7919 C   0  0  0  0  0  0  0  0  0  0  0  0
    0.1099    8.4134    3.2218 C   0  0  0  0  0  0  0  0  0  0  0  0
    0.4849    7.1817    3.7833 C   0  0  0  0  0  0  0  0  0  0  0  0
    0.7439    6.0670    4.1847 C   0  0  0  0  0  0  0  0  0  0  0  0
    1.1623    4.8877    4.8368 C   0  0  1  0  0  3  0  0  0  0  0  0
    1.9326    4.9465    6.0011 C   0  0  0  0  0  0  0  0  0  0  0  0
    2.3061    3.7653    6.6089 C   0  0  0  0  0  0  0  0  0  0  0  0
    1.9033    2.5653    6.0417 C   0  0  0  0  0  0  0  0  0  0  0  0
    1.1494    2.5820    4.8773 C   0  0  0  0  0  0  0  0  0  0  0  0
    0.6881    1.2996    4.2241 C   0  0  0  0  0  0  0  0  0  0  0  0
    2.6750   -0.0144    4.2440 C   0  0  0  0  0  0  0  0  0  0  0  0
    3.2964   -1.1719    4.7098 C   0  0  0  0  0  0  0  0  0  0  0  0
    4.5989   -1.4535    4.3527 C   0  0  0  0  0  0  0  0  0  0  0  0
    5.2978   -0.5864    3.5274 C   0  0  0  0  0  0  0  0  0  0  0  0
    4.6798    0.5606    3.0662 C   0  0  0  0  0  0  0  0  0  0  0  0
    3.3732    0.8589    3.4198 C   0  0  0  0  0  0  0  0  0  0  0  0
    0.4080   11.7536    3.6568 H   0  0  0  0  0  0  0  0  0  0  0  0
    1.1014    9.6192    4.6865 H   0  0  0  0  0  0  0  0  0  0  0  0
    2.2162    5.9078    6.3987 H   0  0  0  0  0  0  0  0  0  0  0  0
    2.8985    3.7724    7.5107 H   0  0  0  0  0  0  0  0  0  0  0  0
    2.1659    1.6191    6.4868 H   0  0  0  0  0  0  0  0  0  0  0  0
   -0.3640    1.1289    4.5008 H   0  0  0  0  0  0  0  0  0  0  0  0
    0.7652    1.4104    3.1227 H   0  0  0  0  0  0  0  0  0  0  0  0
    2.7331   -1.8354    5.3473 H   0  0  0  0  0  0  0  0  0  0  0  0
    5.0699   -2.3537    4.7185 H   0  0  0  0  0  0  0  0  0  0  0  0
    6.3165   -0.8064    3.2463 H   0  0  0  0  0  0  0  0  0  0  0  0
    5.2116    1.2427    2.4201 H   0  0  0  0  0  0  0  0  0  0  0  0
    2.9303    1.7650    3.0352 H   0  0  0  0  0  0  0  0  0  0  0  0
   -2.1994    3.7005    3.8836 Cl  0  0  0  0  0  0  0  0  0  0  0  0
   -1.9511    0.1614    0.6110 O   0  0  0  0  0  0  0  0  0  0  0  0
   -1.3615    3.7229    0.9868 N   0  0  0  0  0  0  0  0  0  0  0  0
   -0.6725   10.8173    2.0612 C   0  0  0  0  0  0  0  0  0  0  0  0
   -1.0647    9.6259    1.4825 C   0  0  0  0  0  0  0  0  0  0  0  0
   -0.6795    8.4137    2.0531 C   0  0  0  0  0  0  0  0  0  0  0  0
   -1.0543    7.1822    1.4909 C   0  0  0  0  0  0  0  0  0  0  0  0
   -1.3178    6.0677    1.0918 C   0  0  0  0  0  0  0  0  0  0  0  0
   -1.7370    4.8886    0.4400 C   0  0  1  0  0  3  0  0  0  0  0  0
   -2.5083    4.9478   -0.7236 C   0  0  0  0  0  0  0  0  0  0  0  0
   -2.8828    3.7667   -1.3312 C   0  0  0  0  0  0  0  0  0  0  0  0
   -2.4797    2.5665   -0.7646 C   0  0  0  0  0  0  0  0  0  0  0  0
   -1.7242    2.5828    0.3987 C   0  0  0  0  0  0  0  0  0  0  0  0
   -1.2621    1.3003    1.0511 C   0  0  0  0  0  0  0  0  0  0  0  0
   -3.2478   -0.0157    1.0307 C   0  0  0  0  0  0  0  0  0  0  0  0
   -3.8680   -1.1736    0.5643 C   0  0  0  0  0  0  0  0  0  0  0  0
   -5.1701   -1.4568    0.9216 C   0  0  0  0  0  0  0  0  0  0  0  0
   -5.8697   -0.5912    1.7477 C   0  0  0  0  0  0  0  0  0  0  0  0
   -5.2529    0.5564    2.2094 C   0  0  0  0  0  0  0  0  0  0  0  0
   -3.9468    0.8564    1.8556 C   0  0  0  0  0  0  0  0  0  0  0  0
   -0.9730   11.7540    1.6163 H   0  0  0  0  0  0  0  0  0  0  0  0
   -1.6691    9.6200    0.5876 H   0  0  0  0  0  0  0  0  0  0  0  0
   -2.7922    5.9092   -1.1207 H   0  0  0  0  0  0  0  0  0  0  0  0
   -3.4766    3.7742   -2.2321 H   0  0  0  0  0  0  0  0  0  0  0  0
   -2.7429    1.6205   -1.2097 H   0  0  0  0  0  0  0  0  0  0  0  0
   -0.2099    1.1307    0.7745 H   0  0  0  0  0  0  0  0  0  0  0  0
   -1.3395    1.4104    2.1526 H   0  0  0  0  0  0  0  0  0  0  0  0
   -3.3041   -1.8360   -0.0738 H   0  0  0  0  0  0  0  0  0  0  0  0
   -5.6401   -2.3575    0.5554 H   0  0  0  0  0  0  0  0  0  0  0  0
   -6.8881   -0.8125    2.0290 H   0  0  0  0  0  0  0  0  0  0  0  0
   -5.7853    1.2375    2.8560 H   0  0  0  0  0  0  0  0  0  0  0  0
   -3.5048    1.7628    2.2405 H   0  0  0  0  0  0  0  0  0  0  0  0
  1 34  1  0  0  0  0
  1  4  1  0  0  0  0
  2  1  1  0  0  0  0
  4 10  1  0  0  0  0
  4 14  1  0  0  0  0
  5 22  1  0  0  0  0
  5  6  1  0  0  0  0
  6 23  1  0  0  0  0
  7  8  1  0  0  0  0
  7  6  2  0  0  0  0
  8  9  3  0  0  0  0
 10  9  1  1  0  0  0
 10 11  1  0  0  0  0
 11 24  1  0  0  0  0
 11 12  2  0  0  0  0
 12 25  1  0  0  0  0
 13 26  1  0  0  0  0
 13 12  1  0  0  0  0
 14 13  2  0  0  0  0
 15 27  1  0  0  0  0
 15  3  1  0  0  0  0
 15 14  1  0  0  0  0
 16  3  1  0  0  0  0
 16 17  1  0  0  0  0
 17 29  1  0  0  0  0
 18 17  2  0  0  0  0
 18 30  1  0  0  0  0
 19 18  1  0  0  0  0
 20 21  1  0  0  0  0
 20 19  2  0  0  0  0
 21 16  2  0  0  0  0
 28 15  1  0  0  0  0
 31 19  1  0  0  0  0
 32 20  1  0  0  0  0
 33 21  1  0  0  0  0
 35 48  1  0  0  0  0
 35 47  1  0  0  0  0
 36  1  1  0  0  0  0
 37  5  2  0  0  0  0
 38 39  2  0  0  0  0
 38 37  1  0  0  0  0
 39  7  1  0  0  0  0
 40 39  1  0  0  0  0
 41 40  3  0  0  0  0
 42 36  1  0  0  0  0
 42 41  1  6  0  0  0
 43 42  1  0  0  0  0
 44 45  1  0  0  0  0
 44 43  2  0  0  0  0
 45 46  2  0  0  0  0
 46 36  1  0  0  0  0
 46 47  1  0  0  0  0
 47 60  1  0  0  0  0
 48 53  1  0  0  0  0
 49 50  1  0  0  0  0
 49 48  2  0  0  0  0
 50 51  2  0  0  0  0
 51 63  1  0  0  0  0
 51 52  1  0  0  0  0
 52 64  1  0  0  0  0
 53 52  2  0  0  0  0
 53 65  1  0  0  0  0
 54 37  1  0  0  0  0
 55 38  1  0  0  0  0
 56 43  1  0  0  0  0
 57 44  1  0  0  0  0
 58 45  1  0  0  0  0
 59 47  1  0  0  0  0
 61 49  1  0  0  0  0
 62 50  1  0  0  0  0
M  END
$$$$
