CSD_code = RAZLOW | q = 0 | S = 0 | Stoichiometry = C27H35ClIrN3O | MND = 6
 OpenBabel04212202093D

 68 72  0  0  1  0  0  0  0  0999 V2000
    4.7672    5.1314    0.3382 Ir  0  0  0  0  0  0  0  0  0  0  0  0
    2.0035    3.8261    0.3999 N   0  0  0  0  0  0  0  0  0  0  0  0
    1.1640    3.0988    1.1806 N   0  0  0  0  0  0  0  0  0  0  0  0
    3.0842    3.4173    2.1829 N   0  0  0  0  0  0  0  0  0  0  0  0
    2.5873    1.5157    4.0278 O   0  0  0  0  0  0  0  0  0  0  0  0
    4.0544    6.6236    2.0218 Cl  0  0  0  0  0 15  0  0  0  0  0  0
    0.6367    3.5559   -1.5640 C   0  0  0  0  0  0  0  0  0  0  0  0
    0.3120    2.6038   -1.1750 H   0  0  0  0  0  0  0  0  0  0  0  0
    0.1703    4.0333   -2.7747 C   0  0  0  0  0  0  0  0  0  0  0  0
   -0.5267    3.4422   -3.3494 H   0  0  0  0  0  0  0  0  0  0  0  0
    0.5960    5.2626   -3.2510 C   0  0  0  0  0  0  0  0  0  0  0  0
    0.2320    5.6296   -4.1988 H   0  0  0  0  0  0  0  0  0  0  0  0
    1.4778    6.0264   -2.5032 C   0  0  0  0  0  0  0  0  0  0  0  0
    1.7922    6.9949   -2.8621 H   0  0  0  0  0  0  0  0  0  0  0  0
    1.9456    5.5646   -1.2873 C   0  0  0  0  0  0  0  0  0  0  0  0
    2.6113    6.1652   -0.6833 H   0  0  0  0  0  0  0  0  0  0  0  0
    1.5382    4.3167   -0.8290 C   0  0  0  0  0  0  0  0  0  0  0  0
    3.2088    4.0342    0.9736 C   0  0  2  0  0  3  0  0  0  0  0  0
    1.8333    2.8827    2.2657 C   0  0  0  0  0  0  0  0  0  0  0  0
    1.4457    2.1336    3.4890 C   0  0  0  0  0  0  0  0  0  0  0  0
    0.9880    2.8220    4.2195 H   0  0  0  0  0  0  0  0  0  0  0  0
    0.7315    1.3435    3.2502 H   0  0  0  0  0  0  0  0  0  0  0  0
    3.5785    2.4454    4.4166 C   0  0  2  0  0  0  0  0  0  0  0  0
    3.2157    2.9625    5.3199 H   0  0  0  0  0  0  0  0  0  0  0  0
    3.9595    3.4902    3.3267 C   0  0  1  0  0  0  0  0  0  0  0  0
    3.8565    4.5103    3.7159 H   0  0  0  0  0  0  0  0  0  0  0  0
    5.4452    3.1976    3.0605 C   0  0  1  0  0  0  0  0  0  0  0  0
    5.7840    3.5889    2.1023 H   0  0  0  0  0  0  0  0  0  0  0  0
    6.1846    3.7759    4.2720 C   0  0  0  0  0  0  0  0  0  0  0  0
    7.2593    3.7915    4.1005 H   0  0  0  0  0  0  0  0  0  0  0  0
    5.8717    4.7988    4.4751 H   0  0  0  0  0  0  0  0  0  0  0  0
    5.7949    2.8008    5.4008 C   0  0  0  0  0  0  0  0  0  0  0  0
    5.2363    3.2951    6.1954 H   0  0  0  0  0  0  0  0  0  0  0  0
    6.6663    2.3361    5.8600 H   0  0  0  0  0  0  0  0  0  0  0  0
    4.9276    1.7398    4.6911 C   0  0  2  0  0  0  0  0  0  0  0  0
    5.5771    1.6797    3.2820 C   0  0  0  0  0  0  0  0  0  0  0  0
    4.8397    0.8251    2.2533 C   0  0  0  0  0  0  0  0  0  0  0  0
    5.2850    0.9756    1.2714 H   0  0  0  0  0  0  0  0  0  0  0  0
    3.7829    1.0462    2.1892 H   0  0  0  0  0  0  0  0  0  0  0  0
    4.9387   -0.2271    2.5116 H   0  0  0  0  0  0  0  0  0  0  0  0
    7.0282    1.1933    3.2746 C   0  0  0  0  0  0  0  0  0  0  0  0
    7.4779    1.4234    2.3106 H   0  0  0  0  0  0  0  0  0  0  0  0
    7.0563    0.1142    3.4090 H   0  0  0  0  0  0  0  0  0  0  0  0
    7.6386    1.6420    4.0487 H   0  0  0  0  0  0  0  0  0  0  0  0
    4.7824    0.4401    5.4561 C   0  0  0  0  0  0  0  0  0  0  0  0
    4.3718    0.6330    6.4447 H   0  0  0  0  0  0  0  0  0  0  0  0
    5.7507   -0.0406    5.5700 H   0  0  0  0  0  0  0  0  0  0  0  0
    4.1082   -0.2289    4.9297 H   0  0  0  0  0  0  0  0  0  0  0  0
    5.8414    3.5860   -0.6699 C   0  0  0  0  0  3  0  0  0  0  0  0
    5.5740    2.5953   -0.3077 H   0  0  0  0  0  0  0  0  0  0  0  0
    4.9273    4.1866   -1.5565 C   0  0  2  0  0  0  0  0  0  0  0  0
    4.0464    3.6030   -1.8216 H   0  0  0  0  0  0  0  0  0  0  0  0
    5.3102    5.1707   -2.6383 C   0  0  0  0  0  0  0  0  0  0  0  0
    5.8058    4.6372   -3.4569 H   0  0  0  0  0  0  0  0  0  0  0  0
    4.3867    5.5911   -3.0415 H   0  0  0  0  0  0  0  0  0  0  0  0
    6.2093    6.3145   -2.1325 C   0  0  0  0  0  0  0  0  0  0  0  0
    6.0028    7.2112   -2.7195 H   0  0  0  0  0  0  0  0  0  0  0  0
    7.2608    6.0657   -2.2850 H   0  0  0  0  0  0  0  0  0  0  0  0
    5.9840    6.6201   -0.6687 C   0  0  0  0  0  3  0  0  0  0  0  0
    5.5098    7.5779   -0.4673 H   0  0  0  0  0  0  0  0  0  0  0  0
    6.7179    6.0462    0.3513 C   0  0  0  0  0  3  0  0  0  0  0  0
    6.8104    6.5962    1.2853 H   0  0  0  0  0  0  0  0  0  0  0  0
    7.7908    5.0011    0.1507 C   0  0  0  0  0  0  0  0  0  0  0  0
    8.6809    5.4743   -0.2775 H   0  0  0  0  0  0  0  0  0  0  0  0
    8.0744    4.6155    1.1323 H   0  0  0  0  0  0  0  0  0  0  0  0
    7.3375    3.8274   -0.7391 C   0  0  0  0  0  0  0  0  0  0  0  0
    7.8605    2.9234   -0.4199 H   0  0  0  0  0  0  0  0  0  0  0  0
    7.6188    4.0082   -1.7777 H   0  0  0  0  0  0  0  0  0  0  0  0
  2 18  1  0  0  0  0
  2  3  1  0  0  0  0
  3 19  2  0  0  0  0
  4 19  1  0  0  0  0
  4 25  1  0  0  0  0
  5 23  1  0  0  0  0
  7  8  1  0  0  0  0
  7 17  1  0  0  0  0
  9  7  2  0  0  0  0
 10  9  1  0  0  0  0
 11  9  1  0  0  0  0
 11 13  2  0  0  0  0
 12 11  1  0  0  0  0
 13 15  1  0  0  0  0
 14 13  1  0  0  0  0
 15 17  2  0  0  0  0
 15 16  1  0  0  0  0
 17  2  1  0  0  0  0
 18  1  1  1  0  0  0
 18  4  1  0  0  0  0
 19 20  1  0  0  0  0
 20  5  1  0  0  0  0
 20 21  1  0  0  0  0
 22 20  1  0  0  0  0
 23 35  1  0  0  0  0
 23 24  1  1  0  0  0
 25 26  1  1  0  0  0
 25 23  1  0  0  0  0
 27 28  1  6  0  0  0
 27 36  1  0  0  0  0
 27 25  1  0  0  0  0
 27 29  1  0  0  0  0
 29 31  1  0  0  0  0
 29 32  1  0  0  0  0
 30 29  1  0  0  0  0
 32 34  1  0  0  0  0
 32 33  1  0  0  0  0
 35 32  1  0  0  0  0
 35 45  1  1  0  0  0
 36 35  1  0  0  0  0
 37 40  1  0  0  0  0
 37 36  1  0  0  0  0
 38 37  1  0  0  0  0
 39 37  1  0  0  0  0
 41 36  1  0  0  0  0
 41 43  1  0  0  0  0
 41 44  1  0  0  0  0
 42 41  1  0  0  0  0
 45 47  1  0  0  0  0
 45 46  1  0  0  0  0
 48 45  1  0  0  0  0
 49 50  1  0  0  0  0
 51 52  1  6  0  0  0
 51 49  1  0  0  0  0
 51  1  1  0  0  0  0
 53 56  1  0  0  0  0
 53 51  1  0  0  0  0
 54 53  1  0  0  0  0
 55 53  1  0  0  0  0
 56 59  1  0  0  0  0
 57 56  1  0  0  0  0
 58 56  1  0  0  0  0
 59 60  1  0  0  0  0
 59 61  1  0  0  0  0
 61 62  1  0  0  0  0
 63 61  1  0  0  0  0
 63 65  1  0  0  0  0
 64 63  1  0  0  0  0
 66 49  1  0  0  0  0
 66 67  1  0  0  0  0
 66 63  1  0  0  0  0
 68 66  1  0  0  0  0
M  END
$$$$
