CSD_code = REBZIK | q = 0 | S = 0 | Stoichiometry = C25H40ClIrP2Si | MND = 5
 OpenBabel04212202093D

 70 73  0  0  0  0  0  0  0  0999 V2000
    9.1072    8.3618   12.5716 Ir  0  0  0  0  0  0  0  0  0  0  0  0
    8.2260    9.2277   13.4935 H   0  0  0  0  0  0  0  0  0  0  0  0
    9.9462    6.7573   11.0817 Cl  0  0  0  0  0  0  0  0  0  0  0  0
    8.6863    9.8944   10.9039 P   0  0  0  0  0  4  0  0  0  0  0  0
    9.6878    7.1534   14.4453 P   0  0  0  0  0  4  0  0  0  0  0  0
   10.9121    9.7384   13.1255 Si  0  0  0  0  0  0  0  0  0  0  0  0
    9.3804   11.4944   11.4578 C   0  0  0  0  0  0  0  0  0  0  0  0
    8.9766   12.7133   10.9264 C   0  0  0  0  0  0  0  0  0  0  0  0
    8.2064   12.7531   10.1698 H   0  0  0  0  0  0  0  0  0  0  0  0
    9.5438   13.8956   11.3715 C   0  0  0  0  0  0  0  0  0  0  0  0
    9.2202   14.8390   10.9556 H   0  0  0  0  0  0  0  0  0  0  0  0
   10.5235   13.8643   12.3481 C   0  0  0  0  0  0  0  0  0  0  0  0
   10.9709   14.7845   12.6952 H   0  0  0  0  0  0  0  0  0  0  0  0
   10.9233   12.6504   12.8821 C   0  0  0  0  0  0  0  0  0  0  0  0
   11.6879   12.6321   13.6435 H   0  0  0  0  0  0  0  0  0  0  0  0
   10.3576   11.4585   12.4594 C   0  0  0  0  0  0  0  0  0  0  0  0
   12.7293    9.5501   12.4625 C   0  0  0  0  0  0  0  0  0  0  0  0
   13.4274    9.4472   13.2875 H   0  0  0  0  0  0  0  0  0  0  0  0
   13.0172   10.4196   11.8803 H   0  0  0  0  0  0  0  0  0  0  0  0
   12.8429    8.6788   11.8281 H   0  0  0  0  0  0  0  0  0  0  0  0
   11.0862    9.4703   15.0247 C   0  0  0  0  0  0  0  0  0  0  0  0
   11.7681   10.3484   15.8514 C   0  0  0  0  0  0  0  0  0  0  0  0
   12.1996   11.2436   15.4307 H   0  0  0  0  0  0  0  0  0  0  0  0
   11.9026   10.1004   17.2075 C   0  0  0  0  0  0  0  0  0  0  0  0
   12.4319   10.8001   17.8381 H   0  0  0  0  0  0  0  0  0  0  0  0
   11.3511    8.9552   17.7542 C   0  0  0  0  0  0  0  0  0  0  0  0
   11.4441    8.7584   18.8126 H   0  0  0  0  0  0  0  0  0  0  0  0
   10.6779    8.0588   16.9413 C   0  0  0  0  0  0  0  0  0  0  0  0
   10.2443    7.1731   17.3827 H   0  0  0  0  0  0  0  0  0  0  0  0
   10.5472    8.3037   15.5795 C   0  0  0  0  0  0  0  0  0  0  0  0
    6.8981   10.2637   10.5267 C   0  0  0  0  0  0  0  0  0  0  0  0
    6.8350   10.9951    9.7142 H   0  0  0  0  0  0  0  0  0  0  0  0
    6.2011   10.8327   11.7567 C   0  0  0  0  0  0  0  0  0  0  0  0
    5.1570   11.0478   11.5323 H   0  0  0  0  0  0  0  0  0  0  0  0
    6.6837   11.7497   12.0884 H   0  0  0  0  0  0  0  0  0  0  0  0
    6.2401   10.1186   12.5759 H   0  0  0  0  0  0  0  0  0  0  0  0
    6.2488    8.9533   10.0891 C   0  0  0  0  0  0  0  0  0  0  0  0
    6.3871    8.1971   10.8636 H   0  0  0  0  0  0  0  0  0  0  0  0
    6.6920    8.5804    9.1667 H   0  0  0  0  0  0  0  0  0  0  0  0
    5.1791    9.0840    9.9281 H   0  0  0  0  0  0  0  0  0  0  0  0
    9.4447    9.6597    9.2114 C   0  0  0  0  0  0  0  0  0  0  0  0
    9.1166    8.6596    8.9007 H   0  0  0  0  0  0  0  0  0  0  0  0
   10.9607    9.6298    9.3736 C   0  0  0  0  0  0  0  0  0  0  0  0
   11.4386    9.4417    8.4133 H   0  0  0  0  0  0  0  0  0  0  0  0
   11.2428    8.8346   10.0572 H   0  0  0  0  0  0  0  0  0  0  0  0
   11.3260   10.5782    9.7654 H   0  0  0  0  0  0  0  0  0  0  0  0
    9.0452   10.6765    8.1477 C   0  0  0  0  0  0  0  0  0  0  0  0
    9.3376   11.6808    8.4467 H   0  0  0  0  0  0  0  0  0  0  0  0
    7.9780   10.6601    7.9390 H   0  0  0  0  0  0  0  0  0  0  0  0
    9.5648   10.4398    7.2195 H   0  0  0  0  0  0  0  0  0  0  0  0
    8.2898    6.4498   15.4592 C   0  0  0  0  0  0  0  0  0  0  0  0
    8.6938    5.8881   16.3081 H   0  0  0  0  0  0  0  0  0  0  0  0
    7.3994    7.5680   15.9879 C   0  0  0  0  0  0  0  0  0  0  0  0
    6.9748    8.1337   15.1620 H   0  0  0  0  0  0  0  0  0  0  0  0
    7.9673    8.2574   16.6092 H   0  0  0  0  0  0  0  0  0  0  0  0
    6.5848    7.1527   16.5801 H   0  0  0  0  0  0  0  0  0  0  0  0
    7.5019    5.5092   14.5509 C   0  0  0  0  0  0  0  0  0  0  0  0
    6.6189    5.1254   15.0609 H   0  0  0  0  0  0  0  0  0  0  0  0
    8.1102    4.6632   14.2338 H   0  0  0  0  0  0  0  0  0  0  0  0
    7.1743    6.0469   13.6595 H   0  0  0  0  0  0  0  0  0  0  0  0
   10.8806    5.7204   14.3057 C   0  0  0  0  0  0  0  0  0  0  0  0
   10.4135    5.0442   13.5781 H   0  0  0  0  0  0  0  0  0  0  0  0
   11.1688    4.9566   15.5936 C   0  0  0  0  0  0  0  0  0  0  0  0
   11.8770    4.1566   15.3794 H   0  0  0  0  0  0  0  0  0  0  0  0
   10.2759    4.4996   16.0137 H   0  0  0  0  0  0  0  0  0  0  0  0
   11.6200    5.6120   16.3355 H   0  0  0  0  0  0  0  0  0  0  0  0
   12.1783    6.2436   13.6993 C   0  0  0  0  0  0  0  0  0  0  0  0
   12.6303    6.9962   14.3439 H   0  0  0  0  0  0  0  0  0  0  0  0
   11.9782    6.6858   12.7280 H   0  0  0  0  0  0  0  0  0  0  0  0
   12.8871    5.4279   13.5646 H   0  0  0  0  0  0  0  0  0  0  0  0
  1  6  1  0  0  0  0
  1  2  1  0  0  0  0
  1  5  1  0  0  0  0
  3  1  1  0  0  0  0
  4  7  1  0  0  0  0
  4  1  1  0  0  0  0
  5 51  1  0  0  0  0
  5 30  1  0  0  0  0
  6 21  1  0  0  0  0
  7 16  1  0  0  0  0
  8 10  1  0  0  0  0
  8  7  2  0  0  0  0
  9  8  1  0  0  0  0
 10 12  2  0  0  0  0
 11 10  1  0  0  0  0
 12 13  1  0  0  0  0
 12 14  1  0  0  0  0
 14 15  1  0  0  0  0
 16 14  2  0  0  0  0
 16  6  1  0  0  0  0
 17  6  1  0  0  0  0
 17 18  1  0  0  0  0
 19 17  1  0  0  0  0
 20 17  1  0  0  0  0
 21 30  2  0  0  0  0
 21 22  1  0  0  0  0
 22 24  2  0  0  0  0
 23 22  1  0  0  0  0
 24 26  1  0  0  0  0
 24 25  1  0  0  0  0
 26 27  1  0  0  0  0
 28 29  1  0  0  0  0
 28 26  2  0  0  0  0
 30 28  1  0  0  0  0
 31  4  1  0  0  0  0
 31 33  1  0  0  0  0
 32 31  1  0  0  0  0
 33 35  1  0  0  0  0
 33 36  1  0  0  0  0
 34 33  1  0  0  0  0
 37 31  1  0  0  0  0
 37 38  1  0  0  0  0
 39 37  1  0  0  0  0
 40 37  1  0  0  0  0
 41 43  1  0  0  0  0
 41  4  1  0  0  0  0
 42 41  1  0  0  0  0
 43 46  1  0  0  0  0
 43 45  1  0  0  0  0
 44 43  1  0  0  0  0
 47 48  1  0  0  0  0
 47 41  1  0  0  0  0
 49 47  1  0  0  0  0
 50 47  1  0  0  0  0
 51 53  1  0  0  0  0
 51 52  1  0  0  0  0
 53 56  1  0  0  0  0
 53 55  1  0  0  0  0
 54 53  1  0  0  0  0
 57 58  1  0  0  0  0
 57 51  1  0  0  0  0
 59 57  1  0  0  0  0
 60 57  1  0  0  0  0
 61  5  1  0  0  0  0
 61 63  1  0  0  0  0
 62 61  1  0  0  0  0
 63 65  1  0  0  0  0
 63 66  1  0  0  0  0
 64 63  1  0  0  0  0
 67 61  1  0  0  0  0
 67 68  1  0  0  0  0
 69 67  1  0  0  0  0
 70 67  1  0  0  0  0
M  END
$$$$
