CSD_code = RECXON | q = 0 | S = 0 | Stoichiometry = C26H37AuClPS2Si2 | MND = 2
 OpenBabel04212202093D

 70 73  0  0  0  0  0  0  0  0999 V2000
    0.3362    6.6667    3.2558 Au  0  0  0  0  0  0  0  0  0  0  0  0
   -1.3063    5.8311    4.5687 Cl  0  0  0  0  0  0  0  0  0  0  0  0
    5.9905    7.8738    2.9605 S   0  0  0  0  0  0  0  0  0  0  0  0
    1.9122    7.5463    1.9243 P   0  0  0  0  0  4  0  0  0  0  0  0
    6.0984   10.1338    5.1557 Si  0  0  0  0  0  0  0  0  0  0  0  0
    5.1446    9.0378    3.9452 C   0  0  0  0  0  0  0  0  0  0  0  0
    5.0844    5.3233    0.2502 S   0  0  0  0  0  0  0  0  0  0  0  0
    3.7268    3.4060   -1.8484 Si  0  0  0  0  0  0  0  0  0  0  0  0
    3.8046    9.0357    3.6770 C   0  0  0  0  0  0  0  0  0  0  0  0
    3.1067    9.6793    4.1814 H   0  0  0  0  0  0  0  0  0  0  0  0
    3.4452    8.1145    2.6797 C   0  0  0  0  0  0  0  0  0  0  0  0
    4.5348    7.3931    2.1964 C   0  0  0  0  0  0  0  0  0  0  0  0
    4.1991    6.4504    1.1879 C   0  0  0  0  0  0  0  0  0  0  0  0
    2.8437    6.4260    0.8653 C   0  0  0  0  0  0  0  0  0  0  0  0
    2.5395    5.4762   -0.1240 C   0  0  0  0  0  0  0  0  0  0  0  0
    1.5488    5.2972   -0.5010 H   0  0  0  0  0  0  0  0  0  0  0  0
    3.6385    4.7992   -0.5723 C   0  0  0  0  0  0  0  0  0  0  0  0
    1.3898    8.9110    0.8499 C   0  0  0  0  0  0  0  0  0  0  0  0
    0.0681    9.3367    0.8963 C   0  0  0  0  0  0  0  0  0  0  0  0
   -0.6267    8.8436    1.5648 H   0  0  0  0  0  0  0  0  0  0  0  0
   -0.3433   10.3839    0.0902 C   0  0  0  0  0  0  0  0  0  0  0  0
   -1.3698   10.7170    0.1245 H   0  0  0  0  0  0  0  0  0  0  0  0
    0.5616   11.0025   -0.7564 C   0  0  0  0  0  0  0  0  0  0  0  0
    0.2393   11.8201   -1.3837 H   0  0  0  0  0  0  0  0  0  0  0  0
    1.8809   10.5763   -0.8022 C   0  0  0  0  0  0  0  0  0  0  0  0
    2.5835   11.0613   -1.4638 H   0  0  0  0  0  0  0  0  0  0  0  0
    2.2999    9.5315   -0.0018 C   0  0  0  0  0  0  0  0  0  0  0  0
    3.3265    9.1921   -0.0302 H   0  0  0  0  0  0  0  0  0  0  0  0
    4.8919   10.6559    6.5315 C   0  0  0  0  0  0  0  0  0  0  0  0
    5.4130   11.1827    7.3238 H   0  0  0  0  0  0  0  0  0  0  0  0
    4.4112    9.7898    6.9747 H   0  0  0  0  0  0  0  0  0  0  0  0
    4.1106   11.3106    6.1599 H   0  0  0  0  0  0  0  0  0  0  0  0
    7.5263    9.0930    5.8646 C   0  0  0  0  0  0  0  0  0  0  0  0
    8.1260    8.6514    5.0746 H   0  0  0  0  0  0  0  0  0  0  0  0
    7.1434    8.2818    6.4763 H   0  0  0  0  0  0  0  0  0  0  0  0
    8.1840    9.6897    6.4883 H   0  0  0  0  0  0  0  0  0  0  0  0
    6.7498   11.6556    4.1576 C   0  0  0  0  0  0  0  0  0  0  0  0
    7.3934   12.6684    5.1056 C   0  0  0  0  0  0  0  0  0  0  0  0
    7.7673   13.5260    4.5473 H   0  0  0  0  0  0  0  0  0  0  0  0
    8.2292   12.2232    5.6400 H   0  0  0  0  0  0  0  0  0  0  0  0
    6.6725   13.0281    5.8354 H   0  0  0  0  0  0  0  0  0  0  0  0
    5.5948   12.3368    3.4194 C   0  0  0  0  0  0  0  0  0  0  0  0
    5.9606   13.1910    2.8506 H   0  0  0  0  0  0  0  0  0  0  0  0
    4.8430   12.6950    4.1185 H   0  0  0  0  0  0  0  0  0  0  0  0
    5.1155   11.6475    2.7270 H   0  0  0  0  0  0  0  0  0  0  0  0
    7.7926   11.2123    3.1291 C   0  0  0  0  0  0  0  0  0  0  0  0
    8.1384   12.0672    2.5490 H   0  0  0  0  0  0  0  0  0  0  0  0
    7.3737   10.4827    2.4392 H   0  0  0  0  0  0  0  0  0  0  0  0
    8.6542   10.7647    3.6179 H   0  0  0  0  0  0  0  0  0  0  0  0
    2.1679    3.5266   -2.9341 C   0  0  0  0  0  0  0  0  0  0  0  0
    2.2211    2.8290   -3.7631 H   0  0  0  0  0  0  0  0  0  0  0  0
    2.0571    4.5227   -3.3506 H   0  0  0  0  0  0  0  0  0  0  0  0
    1.2668    3.3019   -2.3732 H   0  0  0  0  0  0  0  0  0  0  0  0
    5.2946    3.6893   -2.8935 C   0  0  0  0  0  0  0  0  0  0  0  0
    5.4716    2.8639   -3.5754 H   0  0  0  0  0  0  0  0  0  0  0  0
    6.1742    3.7971   -2.2663 H   0  0  0  0  0  0  0  0  0  0  0  0
    5.2053    4.5921   -3.4900 H   0  0  0  0  0  0  0  0  0  0  0  0
    3.8022    1.7338   -0.8857 C   0  0  0  0  0  0  0  0  0  0  0  0
    3.6669    0.5616   -1.8592 C   0  0  0  0  0  0  0  0  0  0  0  0
    3.7181   -0.3840   -1.3209 H   0  0  0  0  0  0  0  0  0  0  0  0
    4.4662    0.5741   -2.5966 H   0  0  0  0  0  0  0  0  0  0  0  0
    2.7154    0.6008   -2.3837 H   0  0  0  0  0  0  0  0  0  0  0  0
    5.1333    1.6034   -0.1422 C   0  0  0  0  0  0  0  0  0  0  0  0
    5.1593    0.6725    0.4229 H   0  0  0  0  0  0  0  0  0  0  0  0
    5.2728    2.4255    0.5565 H   0  0  0  0  0  0  0  0  0  0  0  0
    5.9689    1.6002   -0.8381 H   0  0  0  0  0  0  0  0  0  0  0  0
    2.6626    1.6622    0.1339 C   0  0  0  0  0  0  0  0  0  0  0  0
    2.7006    0.7192    0.6777 H   0  0  0  0  0  0  0  0  0  0  0  0
    1.6944    1.7288   -0.3570 H   0  0  0  0  0  0  0  0  0  0  0  0
    2.7342    2.4727    0.8563 H   0  0  0  0  0  0  0  0  0  0  0  0
  1  2  1  0  0  0  0
  3  6  1  0  0  0  0
  4 11  1  0  0  0  0
  4  1  1  0  0  0  0
  5 33  1  0  0  0  0
  5 29  1  0  0  0  0
  6  5  1  0  0  0  0
  7 13  1  0  0  0  0
  8 58  1  0  0  0  0
  8 17  1  0  0  0  0
  9  6  2  0  0  0  0
  9 10  1  0  0  0  0
 11  9  1  0  0  0  0
 12 11  2  0  0  0  0
 12  3  1  0  0  0  0
 13 12  1  0  0  0  0
 14 13  2  0  0  0  0
 14  4  1  0  0  0  0
 15 14  1  0  0  0  0
 16 15  1  0  0  0  0
 17 15  2  0  0  0  0
 17  7  1  0  0  0  0
 18 19  1  0  0  0  0
 18  4  1  0  0  0  0
 19 20  1  0  0  0  0
 21 22  1  0  0  0  0
 21 19  2  0  0  0  0
 23 21  1  0  0  0  0
 24 23  1  0  0  0  0
 25 23  2  0  0  0  0
 25 27  1  0  0  0  0
 26 25  1  0  0  0  0
 27 18  2  0  0  0  0
 28 27  1  0  0  0  0
 29 31  1  0  0  0  0
 29 30  1  0  0  0  0
 32 29  1  0  0  0  0
 33 35  1  0  0  0  0
 33 36  1  0  0  0  0
 34 33  1  0  0  0  0
 37 38  1  0  0  0  0
 37  5  1  0  0  0  0
 38 40  1  0  0  0  0
 38 41  1  0  0  0  0
 39 38  1  0  0  0  0
 42 44  1  0  0  0  0
 42 37  1  0  0  0  0
 43 42  1  0  0  0  0
 45 42  1  0  0  0  0
 46 49  1  0  0  0  0
 46 37  1  0  0  0  0
 47 46  1  0  0  0  0
 48 46  1  0  0  0  0
 50 53  1  0  0  0  0
 50  8  1  0  0  0  0
 51 50  1  0  0  0  0
 52 50  1  0  0  0  0
 54 56  1  0  0  0  0
 54  8  1  0  0  0  0
 55 54  1  0  0  0  0
 57 54  1  0  0  0  0
 58 63  1  0  0  0  0
 58 67  1  0  0  0  0
 59 60  1  0  0  0  0
 59 58  1  0  0  0  0
 61 59  1  0  0  0  0
 62 59  1  0  0  0  0
 63 64  1  0  0  0  0
 63 65  1  0  0  0  0
 66 63  1  0  0  0  0
 67 68  1  0  0  0  0
 67 70  1  0  0  0  0
 69 67  1  0  0  0  0
M  END
$$$$
