CSD_code = REDTUS | q = 0 | S = 0 | Stoichiometry = C15H18ClN3Pd | MND = 4
 OpenBabel04212202093D

 38 41  0  0  1  0  0  0  0  0999 V2000
    4.8989    3.2387    4.8609 Pd  0  0  1  0  0  0  0  0  0  0  0  0
    5.9615    2.8647    6.8032 Cl  0  0  0  0  0  0  0  0  0  0  0  0
    3.8707    3.4077    3.0899 N   0  0  2  0  0  0  0  0  0  0  0  0
    3.8118    1.6059    5.0099 N   0  0  0  0  0  0  0  0  0  0  0  0
    6.0307    5.0265    4.5697 N   0  0  0  0  0  4  0  0  0  0  0  0
    3.0681    2.4015    2.9104 C   0  0  0  0  0  3  0  0  0  0  0  0
    2.4683    2.3170    2.0037 H   0  0  0  0  0  0  0  0  0  0  0  0
    3.6133    0.5910    5.8412 C   0  0  0  0  0  0  0  0  0  0  0  0
    4.1437    0.5055    6.7737 H   0  0  0  0  0  0  0  0  0  0  0  0
    2.6548   -0.2821    5.3082 C   0  0  0  0  0  0  0  0  0  0  0  0
    2.3030   -1.1837    5.7713 H   0  0  0  0  0  0  0  0  0  0  0  0
    2.9957    1.4255    3.9145 C   0  0  0  0  0  0  0  0  0  0  0  0
    6.3612    7.2169    7.5977 C   0  0  0  0  0  0  0  0  0  0  0  0
    7.1248    7.7550    8.1388 H   0  0  0  0  0  0  0  0  0  0  0  0
    7.4221    4.5656    4.4783 C   0  0  0  0  0  0  0  0  0  0  0  0
    7.7128    4.1331    5.4374 H   0  0  0  0  0  0  0  0  0  0  0  0
    8.1053    5.3827    4.2140 H   0  0  0  0  0  0  0  0  0  0  0  0
    7.5001    3.7856    3.7136 H   0  0  0  0  0  0  0  0  0  0  0  0
    6.7108    6.5017    6.4625 C   0  0  0  0  0  0  0  0  0  0  0  0
    7.7419    6.4937    6.1476 H   0  0  0  0  0  0  0  0  0  0  0  0
    5.6763    5.8437    3.3941 C   0  0  0  0  0  0  0  0  0  0  0  0
    6.4955    6.5544    3.2045 H   0  0  0  0  0  0  0  0  0  0  0  0
    4.7816    6.4271    3.6354 H   0  0  0  0  0  0  0  0  0  0  0  0
    5.0522    7.2406    8.0386 C   0  0  0  0  0  0  0  0  0  0  0  0
    4.7878    7.7919    8.9278 H   0  0  0  0  0  0  0  0  0  0  0  0
    2.2614    0.2393    4.0899 C   0  0  0  0  0  0  0  0  0  0  0  0
    1.5420   -0.1653    3.4041 H   0  0  0  0  0  0  0  0  0  0  0  0
    4.4214    5.8239    6.2089 C   0  0  0  0  0  0  0  0  0  0  0  0
    3.6509    5.2601    5.6659 H   0  0  0  0  0  0  0  0  0  0  0  0
    4.0805    6.5415    7.3388 C   0  0  0  0  0  0  0  0  0  0  0  0
    3.0569    6.5465    7.6815 H   0  0  0  0  0  0  0  0  0  0  0  0
    5.7461    5.7876    5.7671 C   0  0  0  0  0  0  0  0  0  0  0  0
    5.4053    5.0384    2.1198 C   0  0  0  0  0  0  0  0  0  0  0  0
    5.5140    5.7050    1.2623 H   0  0  0  0  0  0  0  0  0  0  0  0
    6.1349    4.2311    2.0149 H   0  0  0  0  0  0  0  0  0  0  0  0
    3.9977    4.4365    2.0943 C   0  0  0  0  0  0  0  0  0  0  0  0
    3.2623    5.2320    2.2892 H   0  0  0  0  0  0  0  0  0  0  0  0
    3.7917    4.0296    1.0935 H   0  0  0  0  0  0  0  0  0  0  0  0
  1  4  1  0  0  0  0
  1  2  1  6  0  0  0
  3  6  1  6  0  0  0
  3  1  1  0  0  0  0
  4  8  1  0  0  0  0
  5  1  1  0  0  0  0
  5 32  1  0  0  0  0
  6 12  1  0  0  0  0
  7  6  1  0  0  0  0
  8  9  1  0  0  0  0
 10 11  1  0  0  0  0
 10  8  2  0  0  0  0
 12 26  2  0  0  0  0
 12  4  1  0  0  0  0
 13 24  1  0  0  0  0
 13 14  1  0  0  0  0
 15  5  1  0  0  0  0
 15 16  1  0  0  0  0
 17 15  1  0  0  0  0
 18 15  1  0  0  0  0
 19 13  2  0  0  0  0
 20 19  1  0  0  0  0
 21 23  1  0  0  0  0
 21  5  1  0  0  0  0
 22 21  1  0  0  0  0
 24 25  1  0  0  0  0
 26 10  1  0  0  0  0
 27 26  1  0  0  0  0
 28 30  1  0  0  0  0
 29 28  1  0  0  0  0
 30 31  1  0  0  0  0
 30 24  2  0  0  0  0
 32 28  2  0  0  0  0
 32 19  1  0  0  0  0
 33 21  1  0  0  0  0
 34 33  1  0  0  0  0
 35 33  1  0  0  0  0
 36 33  1  0  0  0  0
 36 37  1  0  0  0  0
 36  3  1  0  0  0  0
 38 36  1  0  0  0  0
M  END
$$$$
