CSD_code = REDVAA | q = 0 | S = 0 | Stoichiometry = C9H13ClN2PdS | MND = 4
 OpenBabel04212202093D

 27 29  0  0  0  0  0  0  0  0999 V2000
    3.1895    8.0958    9.2187 Pd  0  0  2  0  0  0  0  0  0  0  0  0
    5.0560    9.0642    9.9754 Cl  0  0  0  0  0  0  0  0  0  0  0  0
    4.1564    6.8937    7.9831 N   0  0  0  0  0  0  0  0  0  0  0  0
    5.3958    6.6077    7.6026 C   0  0  0  0  0  3  0  0  0  0  0  0
    6.2516    7.0863    8.0460 H   0  0  0  0  0  0  0  0  0  0  0  0
    5.3737    5.6349    6.5942 C   0  0  0  0  0  0  0  0  0  0  0  0
    6.2337    5.2192    6.1058 H   0  0  0  0  0  0  0  0  0  0  0  0
    4.0476    5.3233    6.3583 C   0  0  0  0  0  0  0  0  0  0  0  0
    3.6552    4.6188    5.6503 H   0  0  0  0  0  0  0  0  0  0  0  0
    3.2931    6.1220    7.2358 C   0  0  0  0  0  0  0  0  0  0  0  0
    1.9242    6.2747    7.4980 C   0  0  0  0  0  0  0  0  0  0  0  0
    1.1838    5.6775    6.9653 H   0  0  0  0  0  0  0  0  0  0  0  0
    1.5612    7.1391    8.3991 N   0  0  0  0  0  0  0  0  0  0  0  0
    0.1752    7.3118    8.7432 C   0  0  0  0  0  0  0  0  0  0  0  0
   -0.4069    6.4437    8.4023 H   0  0  0  0  0  0  0  0  0  0  0  0
   -0.2213    8.2044    8.2386 H   0  0  0  0  0  0  0  0  0  0  0  0
    0.0088    7.4717   10.2613 C   0  0  0  0  0  0  0  0  0  0  0  0
    0.6888    6.7729   10.7621 H   0  0  0  0  0  0  0  0  0  0  0  0
   -1.0130    7.1992   10.5354 H   0  0  0  0  0  0  0  0  0  0  0  0
    0.2631    8.8927   10.7475 C   0  0  0  0  0  0  0  0  0  0  0  0
   -0.0536    9.0091   11.7844 H   0  0  0  0  0  0  0  0  0  0  0  0
   -0.2836    9.6094   10.1336 H   0  0  0  0  0  0  0  0  0  0  0  0
    2.0104    9.4464   10.6875 S   0  0  1  0  0  3  0  0  0  0  0  0
    2.6509    8.5915   12.1635 C   0  0  0  0  0  0  0  0  0  0  0  0
    2.0591    8.8842   13.0274 H   0  0  0  0  0  0  0  0  0  0  0  0
    3.6804    8.9270   12.2766 H   0  0  0  0  0  0  0  0  0  0  0  0
    2.6331    7.5082   12.0223 H   0  0  0  0  0  0  0  0  0  0  0  0
  1  2  1  6  0  0  0
  1 23  1  0  0  0  0
  3  1  1  0  0  0  0
  4  3  1  0  0  0  0
  4  5  1  0  0  0  0
  6  4  1  0  0  0  0
  7  6  1  0  0  0  0
  8  6  2  0  0  0  0
  8 10  1  0  0  0  0
  9  8  1  0  0  0  0
 10 11  2  0  0  0  0
 10  3  1  0  0  0  0
 11 13  1  0  0  0  0
 12 11  1  0  0  0  0
 13 14  1  0  0  0  0
 13  1  1  0  0  0  0
 14 17  1  0  0  0  0
 15 14  1  0  0  0  0
 16 14  1  0  0  0  0
 17 19  1  0  0  0  0
 17 20  1  0  0  0  0
 17 18  1  0  0  0  0
 20 21  1  0  0  0  0
 22 20  1  0  0  0  0
 23 20  1  0  0  0  0
 23 24  1  1  0  0  0
 24 26  1  0  0  0  0
 24 25  1  0  0  0  0
 27 24  1  0  0  0  0
M  END
$$$$
