CSD_code = REDXUW | q = 1 | S = 0 | Stoichiometry = C19H19ClN3Pd(1+) | MND = 4
 OpenBabel04212202093D

 43 47  0  0  1  0  0  0  0  0999 V2000
    1.8934    0.5010    0.7475 Pd  0  0  1  0  0  0  0  0  0  0  0  0
    0.5230    2.2514    0.9652 Cl  0  0  0  0  0  0  0  0  0  0  0  0
    1.3573   -0.3199    2.4522 N   0  0  0  0  0  0  0  0  0  0  0  0
    2.5201    1.0145   -1.0525 N   0  0  0  0  0  0  0  0  0  0  0  0
    3.1235   -1.1338    0.4999 N   0  0  1  0  0  4  0  0  0  0  0  0
    0.7731    0.2431    3.5051 C   0  0  0  0  0  3  0  0  0  0  0  0
    0.4328    1.2635    3.3751 H   0  0  0  0  0  0  0  0  0  0  0  0
    0.5911   -0.4389    4.6968 C   0  0  0  0  0  0  0  0  0  0  0  0
    0.1044    0.0483    5.5253 H   0  0  0  0  0  0  0  0  0  0  0  0
    1.0374   -1.7467    4.7940 C   0  0  0  0  0  0  0  0  0  0  0  0
    0.9069   -2.3102    5.7043 H   0  0  0  0  0  0  0  0  0  0  0  0
    1.6599   -2.3230    3.6969 C   0  0  0  0  0  0  0  0  0  0  0  0
    2.0220   -3.3381    3.7393 H   0  0  0  0  0  0  0  0  0  0  0  0
    1.8122   -1.5788    2.5366 C   0  0  0  0  0  0  0  0  0  0  0  0
    2.4429   -2.1631    1.2906 C   0  0  0  0  0  0  0  0  0  0  0  0
    1.6302   -2.5934    0.6883 H   0  0  0  0  0  0  0  0  0  0  0  0
    3.1259   -2.9807    1.5617 H   0  0  0  0  0  0  0  0  0  0  0  0
    3.1048   -1.3419   -0.9509 C   0  0  0  0  0  0  0  0  0  0  0  0
    2.1637   -1.8376   -1.2296 H   0  0  0  0  0  0  0  0  0  0  0  0
    3.9345   -1.9814   -1.2833 H   0  0  0  0  0  0  0  0  0  0  0  0
    3.1389   -0.0078   -1.6662 C   0  0  1  0  0  3  0  0  0  0  0  0
    3.7351    0.1515   -2.9077 C   0  0  0  0  0  0  0  0  0  0  0  0
    4.2268   -0.6834   -3.3816 H   0  0  0  0  0  0  0  0  0  0  0  0
    3.6815    1.3905   -3.5307 C   0  0  0  0  0  0  0  0  0  0  0  0
    4.1334    1.5324   -4.4995 H   0  0  0  0  0  0  0  0  0  0  0  0
    3.0396    2.4351   -2.8851 C   0  0  0  0  0  0  0  0  0  0  0  0
    2.9733    3.4122   -3.3340 H   0  0  0  0  0  0  0  0  0  0  0  0
    2.4744    2.2074   -1.6407 C   0  0  0  0  0  0  0  0  0  0  0  0
    1.9578    2.9895   -1.0959 H   0  0  0  0  0  0  0  0  0  0  0  0
    4.4792   -0.8357    1.0063 C   0  0  0  0  0  0  0  0  0  0  0  0
    5.0284   -0.3024    0.2238 H   0  0  0  0  0  0  0  0  0  0  0  0
    5.0135   -1.7662    1.2367 H   0  0  0  0  0  0  0  0  0  0  0  0
    4.3603    0.0423    2.2301 C   0  0  0  0  0  0  0  0  0  0  0  0
    4.0482    1.4000    2.0604 C   0  0  0  0  0  0  0  0  0  0  0  0
    4.1424    1.8760    1.0798 H   0  0  0  0  0  0  0  0  0  0  0  0
    3.7789    2.1892    3.1707 C   0  0  0  0  0  0  0  0  0  0  0  0
    3.5505    3.2360    3.0404 H   0  0  0  0  0  0  0  0  0  0  0  0
    3.8240    1.6389    4.4441 C   0  0  0  0  0  0  0  0  0  0  0  0
    3.6075    2.2537    5.3034 H   0  0  0  0  0  0  0  0  0  0  0  0
    4.1775    0.3123    4.6143 C   0  0  0  0  0  0  0  0  0  0  0  0
    4.2469   -0.1087    5.6052 H   0  0  0  0  0  0  0  0  0  0  0  0
    4.4380   -0.4858    3.5102 C   0  0  0  0  0  0  0  0  0  0  0  0
    4.7077   -1.5228    3.6501 H   0  0  0  0  0  0  0  0  0  0  0  0
  1  2  1  1  0  0  0
  1  3  1  0  0  0  0
  3 14  1  0  0  0  0
  3  6  1  0  0  0  0
  4  1  1  0  0  0  0
  5  1  1  0  0  0  0
  5 30  1  1  0  0  0
  5 15  1  0  0  0  0
  6  8  1  0  0  0  0
  7  6  1  0  0  0  0
  8 10  2  0  0  0  0
  8  9  1  0  0  0  0
 10 11  1  0  0  0  0
 12 13  1  0  0  0  0
 12 10  1  0  0  0  0
 14 12  2  0  0  0  0
 15 17  1  0  0  0  0
 15 14  1  0  0  0  0
 16 15  1  0  0  0  0
 18  5  1  0  0  0  0
 19 18  1  0  0  0  0
 20 18  1  0  0  0  0
 21 22  1  6  0  0  0
 21  4  1  0  0  0  0
 21 18  1  0  0  0  0
 23 22  1  0  0  0  0
 24 22  2  0  0  0  0
 24 26  1  0  0  0  0
 25 24  1  0  0  0  0
 26 28  2  0  0  0  0
 27 26  1  0  0  0  0
 28 29  1  0  0  0  0
 28  4  1  0  0  0  0
 30 32  1  0  0  0  0
 30 33  1  0  0  0  0
 31 30  1  0  0  0  0
 33 42  1  0  0  0  0
 34 33  2  0  0  0  0
 34 36  1  0  0  0  0
 35 34  1  0  0  0  0
 36 38  2  0  0  0  0
 37 36  1  0  0  0  0
 38 40  1  0  0  0  0
 38 39  1  0  0  0  0
 40 41  1  0  0  0  0
 42 43  1  0  0  0  0
 42 40  2  0  0  0  0
M  END
$$$$
