CSD_code = REDYUX | q = 0 | S = 0 | Stoichiometry = C13H13Cl2FN2Pd | MND = 4
 OpenBabel04212202093D

 32 34  0  0  0  0  0  0  0  0999 V2000
    0.7572    3.9564   11.8362 Pd  0  0  0  0  0  0  0  0  0  0  0  0
    1.0235    2.5557   13.5435 Cl  0  0  0  0  0  0  0  0  0  0  0  0
   -1.4009    4.1631   12.3153 Cl  0  0  0  0  0  0  0  0  0  0  0  0
    2.7249    4.0810   11.3993 N   0  0  0  0  0  0  0  0  0  0  0  0
    0.5841    5.2610   10.1143 N   0  0  0  0  0  4  0  0  0  0  0  0
    3.7113    3.7543   12.2349 C   0  0  0  0  0  3  0  0  0  0  0  0
    3.4211    3.1458   13.0844 H   0  0  0  0  0  0  0  0  0  0  0  0
    5.0191    4.1563   12.0280 C   0  0  0  0  0  0  0  0  0  0  0  0
    5.7864    3.8669   12.7272 H   0  0  0  0  0  0  0  0  0  0  0  0
    5.3166    4.9335   10.9189 C   0  0  0  0  0  0  0  0  0  0  0  0
    6.3236    5.2719   10.7308 H   0  0  0  0  0  0  0  0  0  0  0  0
    4.2885    5.2699   10.0508 C   0  0  0  0  0  0  0  0  0  0  0  0
    4.4784    5.8700    9.1743 H   0  0  0  0  0  0  0  0  0  0  0  0
    3.0038    4.8232   10.3166 C   0  0  0  0  0  0  0  0  0  0  0  0
    1.8517    5.1052    9.3847 C   0  0  0  0  0  0  0  0  0  0  0  0
    2.0596    5.9998    8.7791 H   0  0  0  0  0  0  0  0  0  0  0  0
    1.7575    4.2531    8.6995 H   0  0  0  0  0  0  0  0  0  0  0  0
    0.4521    6.6048   10.6714 C   0  0  0  0  0  0  0  0  0  0  0  0
    0.4989    7.3800    9.8955 H   0  0  0  0  0  0  0  0  0  0  0  0
    1.2672    6.7800   11.3819 H   0  0  0  0  0  0  0  0  0  0  0  0
   -0.4977    6.6700   11.2058 H   0  0  0  0  0  0  0  0  0  0  0  0
   -0.5365    4.8012    9.3424 C   0  0  0  0  0  0  0  0  0  0  0  0
   -1.4753    5.6528    8.7767 C   0  0  0  0  0  0  0  0  0  0  0  0
   -1.4075    6.7207    8.9031 H   0  0  0  0  0  0  0  0  0  0  0  0
   -2.5389    5.1377    8.0531 C   0  0  0  0  0  0  0  0  0  0  0  0
   -3.2812    5.7890    7.6204 H   0  0  0  0  0  0  0  0  0  0  0  0
   -2.6472    3.7709    7.8948 C   0  0  0  0  0  0  0  0  0  0  0  0
   -3.6745    3.2714    7.1835 F   0  0  0  0  0  0  0  0  0  0  0  0
   -1.7234    2.8988    8.4487 C   0  0  0  0  0  0  0  0  0  0  0  0
   -1.8479    1.8349    8.3272 H   0  0  0  0  0  0  0  0  0  0  0  0
   -0.6712    3.4203    9.1719 C   0  0  0  0  0  0  0  0  0  0  0  0
    0.0444    2.7414    9.6499 H   0  0  0  0  0  0  0  0  0  0  0  0
  1  3  1  0  0  0  0
  1  2  1  0  0  0  0
  4  1  1  0  0  0  0
  4  6  1  0  0  0  0
  5 18  1  0  0  0  0
  5  1  1  0  0  0  0
  6  7  1  0  0  0  0
  8  6  1  0  0  0  0
  8  9  1  0  0  0  0
 10  8  2  0  0  0  0
 11 10  1  0  0  0  0
 12 14  2  0  0  0  0
 12 10  1  0  0  0  0
 13 12  1  0  0  0  0
 14  4  1  0  0  0  0
 15  5  1  0  0  0  0
 15 14  1  0  0  0  0
 16 15  1  0  0  0  0
 17 15  1  0  0  0  0
 18 21  1  0  0  0  0
 18 20  1  0  0  0  0
 19 18  1  0  0  0  0
 22  5  1  0  0  0  0
 23 24  1  0  0  0  0
 23 22  2  0  0  0  0
 25 23  1  0  0  0  0
 26 25  1  0  0  0  0
 27 25  2  0  0  0  0
 27 29  1  0  0  0  0
 28 27  1  0  0  0  0
 29 31  2  0  0  0  0
 30 29  1  0  0  0  0
 31 22  1  0  0  0  0
 31 32  1  0  0  0  0
M  END
$$$$
