CSD_code = REDYAD | q = 1 | S = 0 | Stoichiometry = C18H17ClN3Pd(1+) | MND = 4
 OpenBabel04212202093D

 40 44  0  0  1  0  0  0  0  0999 V2000
   13.9686    4.3425    5.9723 Pd  0  0  1  0  0  0  0  0  0  0  0  0
   15.8773    4.1436    4.8398 Cl  0  0  0  0  0  0  0  0  0  0  0  0
   14.7458    3.6963    7.6423 N   0  0  0  0  0  0  0  0  0  0  0  0
   12.2435    4.5792    7.0251 N   0  0  0  0  0  4  0  0  0  0  0  0
   12.9567    4.9877    4.4292 N   0  0  0  0  0  0  0  0  0  0  0  0
   15.7966    2.9049    7.8376 C   0  0  0  0  0  3  0  0  0  0  0  0
   16.4129    2.6993    6.9699 H   0  0  0  0  0  0  0  0  0  0  0  0
   16.0984    2.3878    9.0875 C   0  0  0  0  0  0  0  0  0  0  0  0
   16.9648    1.7598    9.2131 H   0  0  0  0  0  0  0  0  0  0  0  0
   15.2718    2.6920   10.1570 C   0  0  0  0  0  0  0  0  0  0  0  0
   15.4758    2.3023   11.1417 H   0  0  0  0  0  0  0  0  0  0  0  0
   14.1696    3.5082    9.9415 C   0  0  0  0  0  0  0  0  0  0  0  0
   13.5041    3.7619   10.7513 H   0  0  0  0  0  0  0  0  0  0  0  0
   13.9367    3.9996    8.6670 C   0  0  0  0  0  0  0  0  0  0  0  0
   12.7937    4.9303    8.3393 C   0  0  0  0  0  0  0  0  0  0  0  0
   12.0337    4.8959    9.1315 H   0  0  0  0  0  0  0  0  0  0  0  0
   13.1961    5.9540    8.2923 H   0  0  0  0  0  0  0  0  0  0  0  0
   11.5805    5.6701    6.3018 C   0  0  0  0  0  0  0  0  0  0  0  0
   10.5101    5.7294    6.5390 H   0  0  0  0  0  0  0  0  0  0  0  0
   12.0462    6.6239    6.5900 H   0  0  0  0  0  0  0  0  0  0  0  0
   11.7767    5.4958    4.8137 C   0  0  1  0  0  3  0  0  0  0  0  0
   10.8196    5.8798    3.8871 C   0  0  0  0  0  0  0  0  0  0  0  0
    9.8764    6.2839    4.2190 H   0  0  0  0  0  0  0  0  0  0  0  0
   11.0964    5.7433    2.5342 C   0  0  0  0  0  0  0  0  0  0  0  0
   10.3684    6.0420    1.7967 H   0  0  0  0  0  0  0  0  0  0  0  0
   12.3205    5.2178    2.1527 C   0  0  0  0  0  0  0  0  0  0  0  0
   12.5766    5.0973    1.1132 H   0  0  0  0  0  0  0  0  0  0  0  0
   13.2240    4.8423    3.1336 C   0  0  0  0  0  0  0  0  0  0  0  0
   14.1943    4.4268    2.8865 H   0  0  0  0  0  0  0  0  0  0  0  0
   11.4433    3.3712    7.0682 C   0  0  0  0  0  0  0  0  0  0  0  0
   10.2570    3.3342    7.7913 C   0  0  0  0  0  0  0  0  0  0  0  0
    9.9133    4.2086    8.3252 H   0  0  0  0  0  0  0  0  0  0  0  0
    9.5074    2.1716    7.8303 C   0  0  0  0  0  0  0  0  0  0  0  0
    8.5885    2.1484    8.3946 H   0  0  0  0  0  0  0  0  0  0  0  0
    9.9358    1.0444    7.1490 C   0  0  0  0  0  0  0  0  0  0  0  0
    9.3510    0.1392    7.1826 H   0  0  0  0  0  0  0  0  0  0  0  0
   11.1156    1.0806    6.4248 C   0  0  0  0  0  0  0  0  0  0  0  0
   11.4515    0.2052    5.8918 H   0  0  0  0  0  0  0  0  0  0  0  0
   11.8727    2.2406    6.3808 C   0  0  0  0  0  0  0  0  0  0  0  0
   12.8086    2.2537    5.7985 H   0  0  0  0  0  0  0  0  0  0  0  0
  1  2  1  1  0  0  0
  1  4  1  0  0  0  0
  1  3  1  0  0  0  0
  3  6  1  0  0  0  0
  3 14  1  0  0  0  0
  4 30  1  0  0  0  0
  4 15  1  0  0  0  0
  5 21  1  0  0  0  0
  5  1  1  0  0  0  0
  6  8  1  0  0  0  0
  7  6  1  0  0  0  0
  8  9  1  0  0  0  0
  8 10  2  0  0  0  0
 10 11  1  0  0  0  0
 12 10  1  0  0  0  0
 12 13  1  0  0  0  0
 14 12  2  0  0  0  0
 15 14  1  0  0  0  0
 15 16  1  0  0  0  0
 17 15  1  0  0  0  0
 18 19  1  0  0  0  0
 18 20  1  0  0  0  0
 18  4  1  0  0  0  0
 21 22  1  6  0  0  0
 21 18  1  0  0  0  0
 22 23  1  0  0  0  0
 24 22  2  0  0  0  0
 25 24  1  0  0  0  0
 26 24  1  0  0  0  0
 26 28  2  0  0  0  0
 27 26  1  0  0  0  0
 28  5  1  0  0  0  0
 29 28  1  0  0  0  0
 30 31  1  0  0  0  0
 31 33  2  0  0  0  0
 31 32  1  0  0  0  0
 33 34  1  0  0  0  0
 35 36  1  0  0  0  0
 35 33  1  0  0  0  0
 37 35  2  0  0  0  0
 38 37  1  0  0  0  0
 39 37  1  0  0  0  0
 39 30  2  0  0  0  0
 40 39  1  0  0  0  0
M  END
$$$$
