CSD_code = REDYOR | q = 0 | S = 0 | Stoichiometry = C14H16Cl2N2Pd | MND = 4
 OpenBabel04212202093D

 35 37  0  0  0  0  0  0  0  0999 V2000
    7.0589    3.4223   10.8133 Pd  0  0  0  0  0  0  0  0  0  0  0  0
    7.3722    4.5691   12.6984 Cl  0  0  0  0  0  0  0  0  0  0  0  0
    4.8564    3.5161   11.0875 Cl  0  0  0  0  0  0  0  0  0  0  0  0
    9.0264    3.1629   10.4899 N   0  0  0  0  0  0  0  0  0  0  0  0
    6.9728    2.3535    8.9290 N   0  0  0  0  0  4  0  0  0  0  0  0
   10.0323    3.8953   10.9597 C   0  0  0  0  0  3  0  0  0  0  0  0
    9.7579    4.6787   11.6566 H   0  0  0  0  0  0  0  0  0  0  0  0
   11.3466    3.6542   10.5985 C   0  0  0  0  0  0  0  0  0  0  0  0
   12.1367    4.2656   11.0025 H   0  0  0  0  0  0  0  0  0  0  0  0
   11.6234    2.6188    9.7187 C   0  0  0  0  0  0  0  0  0  0  0  0
   12.6371    2.4038    9.4170 H   0  0  0  0  0  0  0  0  0  0  0  0
   10.5695    1.8618    9.2284 C   0  0  0  0  0  0  0  0  0  0  0  0
   10.7453    1.0472    8.5426 H   0  0  0  0  0  0  0  0  0  0  0  0
    9.2804    2.1608    9.6363 C   0  0  0  0  0  0  0  0  0  0  0  0
    8.0656    1.4031    9.1676 C   0  0  0  0  0  0  0  0  0  0  0  0
    7.7390    0.7258    9.9725 H   0  0  0  0  0  0  0  0  0  0  0  0
    8.2907    0.7886    8.2836 H   0  0  0  0  0  0  0  0  0  0  0  0
    5.7329    1.6691    8.5690 C   0  0  0  0  0  0  0  0  0  0  0  0
    4.9364    2.4035    8.4588 H   0  0  0  0  0  0  0  0  0  0  0  0
    5.4492    0.9848    9.3698 H   0  0  0  0  0  0  0  0  0  0  0  0
    5.8502    1.1121    7.6305 H   0  0  0  0  0  0  0  0  0  0  0  0
    7.2944    3.3861    7.9710 C   0  0  0  0  0  0  0  0  0  0  0  0
    8.1931    3.2081    6.9286 C   0  0  0  0  0  0  0  0  0  0  0  0
    8.6954    2.2652    6.7755 H   0  0  0  0  0  0  0  0  0  0  0  0
    8.4699    4.2526    6.0600 C   0  0  0  0  0  0  0  0  0  0  0  0
    9.1802    4.0948    5.2613 H   0  0  0  0  0  0  0  0  0  0  0  0
    7.8541    5.4862    6.1984 C   0  0  0  0  0  0  0  0  0  0  0  0
    8.1452    6.6161    5.2609 C   0  0  0  0  0  0  0  0  0  0  0  0
    7.2613    6.8452    4.6664 H   0  0  0  0  0  0  0  0  0  0  0  0
    8.9601    6.3666    4.5865 H   0  0  0  0  0  0  0  0  0  0  0  0
    8.4108    7.5129    5.8177 H   0  0  0  0  0  0  0  0  0  0  0  0
    6.9394    5.6525    7.2357 C   0  0  0  0  0  0  0  0  0  0  0  0
    6.4455    6.6043    7.3603 H   0  0  0  0  0  0  0  0  0  0  0  0
    6.6614    4.6237    8.1127 C   0  0  0  0  0  0  0  0  0  0  0  0
    5.9345    4.7727    8.9138 H   0  0  0  0  0  0  0  0  0  0  0  0
  1  3  1  0  0  0  0
  1  2  1  0  0  0  0
  4  1  1  0  0  0  0
  4  6  1  0  0  0  0
  5 15  1  0  0  0  0
  5  1  1  0  0  0  0
  6  7  1  0  0  0  0
  8  6  1  0  0  0  0
  8  9  1  0  0  0  0
 10  8  2  0  0  0  0
 11 10  1  0  0  0  0
 12 14  2  0  0  0  0
 12 10  1  0  0  0  0
 13 12  1  0  0  0  0
 14  4  1  0  0  0  0
 15 14  1  0  0  0  0
 15 16  1  0  0  0  0
 17 15  1  0  0  0  0
 18  5  1  0  0  0  0
 18 20  1  0  0  0  0
 19 18  1  0  0  0  0
 21 18  1  0  0  0  0
 22 34  1  0  0  0  0
 22  5  1  0  0  0  0
 23 22  2  0  0  0  0
 24 23  1  0  0  0  0
 25 27  2  0  0  0  0
 25 23  1  0  0  0  0
 26 25  1  0  0  0  0
 27 32  1  0  0  0  0
 28 31  1  0  0  0  0
 28 27  1  0  0  0  0
 29 28  1  0  0  0  0
 30 28  1  0  0  0  0
 32 33  1  0  0  0  0
 32 34  2  0  0  0  0
 34 35  1  0  0  0  0
M  END
$$$$
