CSD_code = REDZEF | q = 0 | S = 0 | Stoichiometry = C32H31ClNOP3Pt | MND = 4
 OpenBabel04212202093D

 70 75  0  0  0  0  0  0  0  0999 V2000
    2.0110    1.5118    3.3714 Pt  0  0  1  0  0  0  0  0  0  0  0  0
    0.1727    2.5513    4.3428 Cl  0  0  0  0  0  0  0  0  0  0  0  0
    2.8894   -1.0427    4.4928 P   0  0  0  0  0  4  0  0  0  0  0  0
    3.8049    0.3806    2.4758 P   0  0  0  0  0  4  0  0  0  0  0  0
    1.6557    3.1755    1.9212 P   0  0  0  0  0  4  0  0  0  0  0  0
    2.3009    0.2101    5.0875 O   0  0  0  0  0  0  0  0  0  0  0  0
    4.2238   -0.7586    3.5643 N   0  0  0  0  0  2  0  0  0  0  0  0
    3.3660   -2.1991    5.7890 C   0  0  0  0  0  0  0  0  0  0  0  0
    4.6941   -2.5409    5.9838 C   0  0  0  0  0  0  0  0  0  0  0  0
    5.0320   -3.4051    7.0104 C   0  0  0  0  0  0  0  0  0  0  0  0
    4.0447   -3.9213    7.8343 C   0  0  0  0  0  0  0  0  0  0  0  0
    2.7161   -3.5769    7.6368 C   0  0  0  0  0  0  0  0  0  0  0  0
    2.3747   -2.7142    6.6118 C   0  0  0  0  0  0  0  0  0  0  0  0
    1.6373   -1.8675    3.4579 C   0  0  0  0  0  0  0  0  0  0  0  0
    1.9525   -3.0693    2.8391 C   0  0  0  0  0  0  0  0  0  0  0  0
    1.0698   -3.6308    1.9368 C   0  0  0  0  0  0  0  0  0  0  0  0
   -0.1286   -2.9934    1.6530 C   0  0  0  0  0  0  0  0  0  0  0  0
   -0.4468   -1.7974    2.2739 C   0  0  0  0  0  0  0  0  0  0  0  0
    0.4378   -1.2290    3.1753 C   0  0  0  0  0  0  0  0  0  0  0  0
    3.2867   -0.5010    0.9625 C   0  0  0  0  0  0  0  0  0  0  0  0
    4.0967   -1.5108    0.4584 C   0  0  0  0  0  0  0  0  0  0  0  0
    3.6567   -2.2832   -0.5999 C   0  0  0  0  0  0  0  0  0  0  0  0
    2.4041   -2.0568   -1.1496 C   0  0  0  0  0  0  0  0  0  0  0  0
    1.5894   -1.0585   -0.6409 C   0  0  0  0  0  0  0  0  0  0  0  0
    2.0302   -0.2836    0.4163 C   0  0  0  0  0  0  0  0  0  0  0  0
    5.3657    1.1942    2.0418 C   0  0  0  0  0  0  0  0  0  0  0  0
    5.7538    1.4468    0.7316 C   0  0  0  0  0  0  0  0  0  0  0  0
    6.9421    2.1101    0.4812 C   0  0  0  0  0  0  0  0  0  0  0  0
    7.7388    2.5338    1.5327 C   0  0  0  0  0  0  0  0  0  0  0  0
    7.3499    2.2914    2.8409 C   0  0  0  0  0  0  0  0  0  0  0  0
    6.1654    1.6261    3.0944 C   0  0  0  0  0  0  0  0  0  0  0  0
    2.0434    4.6974    2.8257 C   0  0  0  0  0  0  0  0  0  0  0  0
    1.4018    5.9128    2.6329 C   0  0  0  0  0  0  0  0  0  0  0  0
    1.7787    7.0142    3.3828 C   0  0  0  0  0  0  0  0  0  0  0  0
    2.7940    6.9085    4.3181 C   0  0  0  0  0  0  0  0  0  0  0  0
    3.4377    5.6958    4.5122 C   0  0  0  0  0  0  0  0  0  0  0  0
    3.0620    4.5935    3.7699 C   0  0  0  0  0  0  0  0  0  0  0  0
    2.7625    3.3332    0.4638 C   0  0  0  0  0  0  0  0  0  0  0  0
    0.0061    3.3831    1.1704 C   0  0  0  0  0  0  0  0  0  0  0  0
    5.4405   -2.1234    5.3242 H   0  0  0  0  0  0  0  0  0  0  0  0
    6.0656   -3.6768    7.1707 H   0  0  0  0  0  0  0  0  0  0  0  0
    4.3109   -4.5947    8.6363 H   0  0  0  0  0  0  0  0  0  0  0  0
    1.9507   -3.9812    8.2834 H   0  0  0  0  0  0  0  0  0  0  0  0
    1.3457   -2.4273    6.4401 H   0  0  0  0  0  0  0  0  0  0  0  0
    2.8978   -3.5428    3.0666 H   0  0  0  0  0  0  0  0  0  0  0  0
    1.3151   -4.5627    1.4483 H   0  0  0  0  0  0  0  0  0  0  0  0
   -0.8158   -3.4329    0.9445 H   0  0  0  0  0  0  0  0  0  0  0  0
   -1.3832   -1.3045    2.0560 H   0  0  0  0  0  0  0  0  0  0  0  0
    0.1823   -0.2997    3.6795 H   0  0  0  0  0  0  0  0  0  0  0  0
    5.0612   -1.6828    0.9165 H   0  0  0  0  0  0  0  0  0  0  0  0
    4.2848   -3.0689   -0.9943 H   0  0  0  0  0  0  0  0  0  0  0  0
    2.0583   -2.6669   -1.9711 H   0  0  0  0  0  0  0  0  0  0  0  0
    0.6085   -0.8935   -1.0627 H   0  0  0  0  0  0  0  0  0  0  0  0
    1.3990    0.4914    0.8469 H   0  0  0  0  0  0  0  0  0  0  0  0
    5.1312    1.1112   -0.0866 H   0  0  0  0  0  0  0  0  0  0  0  0
    7.2487    2.2968   -0.5381 H   0  0  0  0  0  0  0  0  0  0  0  0
    8.6649    3.0522    1.3314 H   0  0  0  0  0  0  0  0  0  0  0  0
    7.9724    2.6221    3.6595 H   0  0  0  0  0  0  0  0  0  0  0  0
    5.8458    1.4180    4.1066 H   0  0  0  0  0  0  0  0  0  0  0  0
    0.6003    6.0006    1.9144 H   0  0  0  0  0  0  0  0  0  0  0  0
    1.2714    7.9574    3.2412 H   0  0  0  0  0  0  0  0  0  0  0  0
    3.0776    7.7698    4.9047 H   0  0  0  0  0  0  0  0  0  0  0  0
    4.2224    5.6111    5.2491 H   0  0  0  0  0  0  0  0  0  0  0  0
    3.5402    3.6267    3.9227 H   0  0  0  0  0  0  0  0  0  0  0  0
    3.7979    3.3176    0.8004 H   0  0  0  0  0  0  0  0  0  0  0  0
    2.6002    2.5021   -0.2196 H   0  0  0  0  0  0  0  0  0  0  0  0
    2.5623    4.2747   -0.0464 H   0  0  0  0  0  0  0  0  0  0  0  0
    0.0135    4.2270    0.4814 H   0  0  0  0  0  0  0  0  0  0  0  0
   -0.2465    2.4753    0.6228 H   0  0  0  0  0  0  0  0  0  0  0  0
   -0.7229    3.5352    1.9639 H   0  0  0  0  0  0  0  0  0  0  0  0
  1  2  1  6  0  0  0
  1  6  1  0  0  0  0
  3  6  1  0  0  0  0
  3  8  1  0  0  0  0
  4  1  1  0  0  0  0
  4  7  1  0  0  0  0
  5 32  1  0  0  0  0
  5  1  1  0  0  0  0
  7  3  1  0  0  0  0
  8  9  2  0  0  0  0
  8 13  1  0  0  0  0
  9 10  1  0  0  0  0
 10 41  1  0  0  0  0
 10 11  2  0  0  0  0
 11 42  1  0  0  0  0
 12 11  1  0  0  0  0
 12 43  1  0  0  0  0
 13 12  2  0  0  0  0
 14  3  1  0  0  0  0
 15 45  1  0  0  0  0
 15 14  2  0  0  0  0
 16 15  1  0  0  0  0
 17 16  2  0  0  0  0
 17 18  1  0  0  0  0
 18 19  2  0  0  0  0
 19 14  1  0  0  0  0
 19 49  1  0  0  0  0
 20  4  1  0  0  0  0
 21 50  1  0  0  0  0
 21 20  1  0  0  0  0
 22 21  2  0  0  0  0
 23 24  2  0  0  0  0
 23 22  1  0  0  0  0
 24 25  1  0  0  0  0
 25 54  1  0  0  0  0
 25 20  2  0  0  0  0
 26  4  1  0  0  0  0
 26 31  1  0  0  0  0
 27 26  2  0  0  0  0
 28 27  1  0  0  0  0
 28 29  2  0  0  0  0
 29 30  1  0  0  0  0
 30 31  2  0  0  0  0
 30 58  1  0  0  0  0
 31 59  1  0  0  0  0
 32 37  1  0  0  0  0
 33 32  2  0  0  0  0
 33 34  1  0  0  0  0
 34 35  2  0  0  0  0
 35 36  1  0  0  0  0
 35 62  1  0  0  0  0
 36 63  1  0  0  0  0
 37 64  1  0  0  0  0
 37 36  2  0  0  0  0
 38 65  1  0  0  0  0
 38  5  1  0  0  0  0
 39  5  1  0  0  0  0
 39 70  1  0  0  0  0
 40  9  1  0  0  0  0
 44 13  1  0  0  0  0
 46 16  1  0  0  0  0
 47 17  1  0  0  0  0
 48 18  1  0  0  0  0
 51 22  1  0  0  0  0
 52 23  1  0  0  0  0
 53 24  1  0  0  0  0
 55 27  1  0  0  0  0
 56 28  1  0  0  0  0
 57 29  1  0  0  0  0
 60 33  1  0  0  0  0
 61 34  1  0  0  0  0
 66 38  1  0  0  0  0
 67 38  1  0  0  0  0
 68 39  1  0  0  0  0
 69 39  1  0  0  0  0
M  END
$$$$
