CSD_code = REFRUQ | q = 0 | S = 0 | Stoichiometry = C19H35Cl2FeN2P | MND = 5
 OpenBabel04212202093D

 60 62  0  0  1  0  0  0  0  0999 V2000
    5.9153    7.2138   10.6257 Fe  0  0  0  0  0  0  0  0  0  0  0  0
    4.8125    5.3377   10.8375 P   0  0  0  0  0  4  0  0  0  0  0  0
    6.5404    9.3232   10.5417 N   0  0  0  0  0  4  0  0  0  0  0  0
    7.7086    6.5626   11.5799 Cl  0  0  0  0  0  0  0  0  0  0  0  0
    6.7077    6.9268    8.6203 Cl  0  0  0  0  0  0  0  0  0  0  0  0
    4.3547    7.9238    9.9240 N   0  0  0  0  0  0  0  0  0  0  0  0
    4.4403    9.1276    9.3220 C   0  0  2  0  0  3  0  0  0  0  0  0
    3.3729    9.7136    8.6710 C   0  0  0  0  0  0  0  0  0  0  0  0
    3.5001   10.6771    8.2031 H   0  0  0  0  0  0  0  0  0  0  0  0
    2.1591    9.0447    8.6083 C   0  0  0  0  0  0  0  0  0  0  0  0
    1.3165    9.4686    8.0868 H   0  0  0  0  0  0  0  0  0  0  0  0
    2.0625    7.8166    9.2458 C   0  0  0  0  0  0  0  0  0  0  0  0
    1.1354    7.2640    9.2409 H   0  0  0  0  0  0  0  0  0  0  0  0
    3.1623    7.2919    9.8976 C   0  0  0  0  0  0  0  0  0  0  0  0
    5.7891    9.7825    9.3704 C   0  0  0  0  0  0  0  0  0  0  0  0
    6.3404    9.4725    8.4776 H   0  0  0  0  0  0  0  0  0  0  0  0
    5.6780   10.8758    9.3571 H   0  0  0  0  0  0  0  0  0  0  0  0
    5.9775    9.9485   11.7461 C   0  0  0  0  0  0  0  0  0  0  0  0
    4.9300    9.6286   11.8111 H   0  0  0  0  0  0  0  0  0  0  0  0
    5.9755   11.0434   11.6357 H   0  0  0  0  0  0  0  0  0  0  0  0
    6.6908    9.5642   13.0360 C   0  0  0  0  0  0  0  0  0  0  0  0
    6.8868    8.4937   13.0544 H   0  0  0  0  0  0  0  0  0  0  0  0
    6.0655    9.8209   13.8878 H   0  0  0  0  0  0  0  0  0  0  0  0
    7.6372   10.0874   13.1400 H   0  0  0  0  0  0  0  0  0  0  0  0
    7.9815    9.5440   10.3759 C   0  0  0  0  0  0  0  0  0  0  0  0
    8.2829    8.9806    9.4893 H   0  0  0  0  0  0  0  0  0  0  0  0
    8.4866    9.0908   11.2293 H   0  0  0  0  0  0  0  0  0  0  0  0
    8.4196   10.9992   10.2296 C   0  0  0  0  0  0  0  0  0  0  0  0
    7.9755   11.4649    9.3530 H   0  0  0  0  0  0  0  0  0  0  0  0
    9.4995   11.0255   10.1123 H   0  0  0  0  0  0  0  0  0  0  0  0
    8.1635   11.5868   11.1084 H   0  0  0  0  0  0  0  0  0  0  0  0
    3.0837    6.0169   10.6724 C   0  0  0  0  0  0  0  0  0  0  0  0
    2.3824    5.3123   10.2254 H   0  0  0  0  0  0  0  0  0  0  0  0
    2.7207    6.2611   11.6752 H   0  0  0  0  0  0  0  0  0  0  0  0
    4.8379    3.9434    9.5633 C   0  0  0  0  0  0  0  0  0  0  0  0
    6.3031    3.5437    9.3831 C   0  0  0  0  0  0  0  0  0  0  0  0
    6.3943    2.8014    8.5917 H   0  0  0  0  0  0  0  0  0  0  0  0
    6.7218    3.1270   10.2950 H   0  0  0  0  0  0  0  0  0  0  0  0
    6.8898    4.4155    9.1030 H   0  0  0  0  0  0  0  0  0  0  0  0
    3.9916    2.7229    9.9192 C   0  0  0  0  0  0  0  0  0  0  0  0
    3.9585    2.0558    9.0582 H   0  0  0  0  0  0  0  0  0  0  0  0
    2.9677    2.9998   10.1645 H   0  0  0  0  0  0  0  0  0  0  0  0
    4.4215    2.1672   10.7483 H   0  0  0  0  0  0  0  0  0  0  0  0
    4.3282    4.5451    8.2496 C   0  0  0  0  0  0  0  0  0  0  0  0
    4.8419    5.4802    8.0362 H   0  0  0  0  0  0  0  0  0  0  0  0
    3.2553    4.7247    8.2681 H   0  0  0  0  0  0  0  0  0  0  0  0
    4.5380    3.8570    7.4326 H   0  0  0  0  0  0  0  0  0  0  0  0
    4.7479    4.6747   12.6183 C   0  0  0  0  0  0  0  0  0  0  0  0
    3.4788    3.9173   13.0130 C   0  0  0  0  0  0  0  0  0  0  0  0
    3.3767    2.9838   12.4712 H   0  0  0  0  0  0  0  0  0  0  0  0
    2.5780    4.5062   12.8585 H   0  0  0  0  0  0  0  0  0  0  0  0
    3.5357    3.6769   14.0748 H   0  0  0  0  0  0  0  0  0  0  0  0
    5.9744    3.8012   12.8760 C   0  0  0  0  0  0  0  0  0  0  0  0
    6.0822    3.6192   13.9449 H   0  0  0  0  0  0  0  0  0  0  0  0
    6.8730    4.3058   12.5256 H   0  0  0  0  0  0  0  0  0  0  0  0
    5.8875    2.8375   12.3804 H   0  0  0  0  0  0  0  0  0  0  0  0
    4.8676    5.9373   13.4839 C   0  0  0  0  0  0  0  0  0  0  0  0
    4.7998    5.6773   14.5392 H   0  0  0  0  0  0  0  0  0  0  0  0
    4.0813    6.6620   13.2662 H   0  0  0  0  0  0  0  0  0  0  0  0
    5.8351    6.4073   13.3140 H   0  0  0  0  0  0  0  0  0  0  0  0
  1  2  1  0  0  0  0
  1  4  1  0  0  0  0
  2 48  1  0  0  0  0
  3  1  1  0  0  0  0
  3 18  1  0  0  0  0
  5  1  1  0  0  0  0
  6  1  1  0  0  0  0
  7  8  1  6  0  0  0
  7 15  1  0  0  0  0
  7  6  1  0  0  0  0
  9  8  1  0  0  0  0
 10  8  2  0  0  0  0
 10 12  1  0  0  0  0
 11 10  1  0  0  0  0
 12 14  2  0  0  0  0
 13 12  1  0  0  0  0
 14  6  1  0  0  0  0
 14 32  1  0  0  0  0
 15  3  1  0  0  0  0
 16 15  1  0  0  0  0
 17 15  1  0  0  0  0
 18 19  1  0  0  0  0
 18 21  1  0  0  0  0
 20 18  1  0  0  0  0
 21 22  1  0  0  0  0
 21 24  1  0  0  0  0
 21 23  1  0  0  0  0
 25  3  1  0  0  0  0
 25 27  1  0  0  0  0
 26 25  1  0  0  0  0
 28 25  1  0  0  0  0
 28 31  1  0  0  0  0
 29 28  1  0  0  0  0
 30 28  1  0  0  0  0
 32  2  1  0  0  0  0
 32 34  1  0  0  0  0
 33 32  1  0  0  0  0
 35 40  1  0  0  0  0
 35  2  1  0  0  0  0
 36 35  1  0  0  0  0
 36 38  1  0  0  0  0
 37 36  1  0  0  0  0
 39 36  1  0  0  0  0
 40 42  1  0  0  0  0
 40 43  1  0  0  0  0
 41 40  1  0  0  0  0
 44 46  1  0  0  0  0
 44 35  1  0  0  0  0
 45 44  1  0  0  0  0
 47 44  1  0  0  0  0
 48 53  1  0  0  0  0
 48 49  1  0  0  0  0
 48 57  1  0  0  0  0
 49 52  1  0  0  0  0
 50 49  1  0  0  0  0
 51 49  1  0  0  0  0
 53 54  1  0  0  0  0
 55 53  1  0  0  0  0
 56 53  1  0  0  0  0
 57 58  1  0  0  0  0
 59 57  1  0  0  0  0
 60 57  1  0  0  0  0
M  END
$$$$
