CSD_code = REFVAC | q = -1 | S = 0 | Stoichiometry = C7H11AuCl3N4(1-) | MND = 4
 OpenBabel04212202093D

 26 27  0  0  0  0  0  0  0  0999 V2000
   -3.6598   -0.9767    9.7762 Au  0  0  0  0  0  0  0  0  0  0  0  0
   -1.6832   -0.2669   10.6474 Cl  0  0  0  0  0  0  0  0  0  0  0  0
   -5.5651   -1.4066    8.6184 Cl  0  0  0  0  0  0  0  0  0  0  0  0
   -3.2679   -3.1848   10.2674 Cl  0  0  0  0  0  0  0  0  0  0  0  0
   -3.5257    1.5308    8.2636 N   0  0  0  0  0  0  0  0  0  0  0  0
   -4.6747    1.7802   10.0671 N   0  0  0  0  0  0  0  0  0  0  0  0
   -3.9948    0.9018    9.3671 C   0  0  0  0  0  0  0  0  0  0  0  0
   -3.9359    2.7976    8.3255 N   0  0  0  0  0  0  0  0  0  0  0  0
   -4.6137    2.9232    9.3938 N   0  0  0  0  0  0  0  0  0  0  0  0
   -2.6896    1.0217    7.2104 C   0  0  0  0  0  0  0  0  0  0  0  0
   -2.6973   -0.0728    7.2972 H   0  0  0  0  0  0  0  0  0  0  0  0
   -1.2612    1.5389    7.3951 C   0  0  0  0  0  0  0  0  0  0  0  0
   -0.8823    1.2062    8.3641 H   0  0  0  0  0  0  0  0  0  0  0  0
   -1.2842    2.6315    7.3903 H   0  0  0  0  0  0  0  0  0  0  0  0
   -3.2523    1.4375    5.8525 C   0  0  0  0  0  0  0  0  0  0  0  0
   -3.3142    2.5274    5.8218 H   0  0  0  0  0  0  0  0  0  0  0  0
   -4.2616    1.0351    5.7412 H   0  0  0  0  0  0  0  0  0  0  0  0
   -0.3714    1.0260    6.2692 C   0  0  0  0  0  0  0  0  0  0  0  0
    0.6415    1.4134    6.3980 H   0  0  0  0  0  0  0  0  0  0  0  0
   -0.3217   -0.0641    6.3198 H   0  0  0  0  0  0  0  0  0  0  0  0
   -2.3502    0.9254    4.7351 C   0  0  0  0  0  0  0  0  0  0  0  0
   -2.3394   -0.1670    4.7537 H   0  0  0  0  0  0  0  0  0  0  0  0
   -2.7489    1.2406    3.7681 H   0  0  0  0  0  0  0  0  0  0  0  0
   -0.9276    1.4484    4.9123 C   0  0  0  0  0  0  0  0  0  0  0  0
   -0.9328    2.5392    4.8471 H   0  0  0  0  0  0  0  0  0  0  0  0
   -0.2888    1.0665    4.1123 H   0  0  0  0  0  0  0  0  0  0  0  0
  1  4  1  0  0  0  0
  1  2  1  0  0  0  0
  3  1  1  0  0  0  0
  5  8  1  0  0  0  0
  5  7  1  0  0  0  0
  7  1  1  0  0  0  0
  7  6  2  0  0  0  0
  8  9  2  0  0  0  0
  9  6  1  0  0  0  0
 10 11  1  0  0  0  0
 10 12  1  0  0  0  0
 10  5  1  0  0  0  0
 12 13  1  0  0  0  0
 14 12  1  0  0  0  0
 15 10  1  0  0  0  0
 16 15  1  0  0  0  0
 17 15  1  0  0  0  0
 18 20  1  0  0  0  0
 18 19  1  0  0  0  0
 18 12  1  0  0  0  0
 21 22  1  0  0  0  0
 21 24  1  0  0  0  0
 21 15  1  0  0  0  0
 23 21  1  0  0  0  0
 24 18  1  0  0  0  0
 25 24  1  0  0  0  0
 26 24  1  0  0  0  0
M  END
$$$$
