CSD_code = REFVEG | q = 0 | S = 0 | Stoichiometry = C10H12AuCl3N4 | MND = 4
 OpenBabel04212202093D

 30 31  0  0  0  0  0  0  0  0999 V2000
    4.2075   14.7344    6.5465 Au  0  0  0  0  0  0  0  0  0  0  0  0
    4.0982   13.2239    8.2644 Cl  0  0  0  0  0  0  0  0  0  0  0  0
    4.4680   16.2617    4.8814 Cl  0  0  0  0  0  0  0  0  0  0  0  0
    2.6526   13.6299    5.3750 Cl  0  0  0  0  0  0  0  0  0  0  0  0
    5.4859   16.9887    8.0592 N   0  0  0  0  0  0  0  0  0  0  0  0
    6.7668   15.3220    8.0442 N   0  0  0  0  0  0  0  0  0  0  0  0
    5.5686   15.7313    7.6124 C   0  0  0  0  0  0  0  0  0  0  0  0
    6.5980   17.3023    8.7228 N   0  0  0  0  0  0  0  0  0  0  0  0
    7.3593   16.3099    8.7141 N   0  0  0  0  0  0  0  0  0  0  0  0
    3.2317   17.7009    8.5859 C   0  0  0  0  0  0  0  0  0  0  0  0
    3.0964   16.5970    9.5880 C   0  0  0  0  0  0  0  0  0  0  0  0
    2.9547   15.6340    9.0965 H   0  0  0  0  0  0  0  0  0  0  0  0
    2.2348   16.7741   10.2260 H   0  0  0  0  0  0  0  0  0  0  0  0
    3.9825   16.5231   10.2177 H   0  0  0  0  0  0  0  0  0  0  0  0
    7.3875   14.0430    7.8843 C   0  0  0  0  0  0  0  0  0  0  0  0
    6.7113   13.2667    8.2469 H   0  0  0  0  0  0  0  0  0  0  0  0
    8.3089   14.0476    8.4629 H   0  0  0  0  0  0  0  0  0  0  0  0
    7.6097   13.8604    6.8325 H   0  0  0  0  0  0  0  0  0  0  0  0
    4.4140   17.9003    7.8736 C   0  0  0  0  0  0  0  0  0  0  0  0
    4.5951   18.9615    6.9863 C   0  0  0  0  0  0  0  0  0  0  0  0
    2.1854   18.5823    8.3498 C   0  0  0  0  0  0  0  0  0  0  0  0
    1.2557   18.4476    8.8811 H   0  0  0  0  0  0  0  0  0  0  0  0
    5.8900   19.1492    6.2646 C   0  0  0  0  0  0  0  0  0  0  0  0
    6.7292   19.1487    6.9591 H   0  0  0  0  0  0  0  0  0  0  0  0
    5.8865   20.0898    5.7221 H   0  0  0  0  0  0  0  0  0  0  0  0
    6.0275   18.3400    5.5465 H   0  0  0  0  0  0  0  0  0  0  0  0
    3.5212   19.8159    6.7827 C   0  0  0  0  0  0  0  0  0  0  0  0
    3.6272   20.6364    6.0902 H   0  0  0  0  0  0  0  0  0  0  0  0
    2.3246   19.6213    7.4480 C   0  0  0  0  0  0  0  0  0  0  0  0
    1.4966   20.2904    7.2704 H   0  0  0  0  0  0  0  0  0  0  0  0
  1  7  2  0  0  0  0
  1  2  1  0  0  0  0
  3  1  1  0  0  0  0
  4  1  1  0  0  0  0
  5  8  1  0  0  0  0
  6  9  1  0  0  0  0
  7  6  1  0  0  0  0
  7  5  1  0  0  0  0
  9  8  2  0  0  0  0
 10 11  1  0  0  0  0
 11 14  1  0  0  0  0
 11 13  1  0  0  0  0
 12 11  1  0  0  0  0
 15  6  1  0  0  0  0
 15 16  1  0  0  0  0
 15 17  1  0  0  0  0
 18 15  1  0  0  0  0
 19  5  1  0  0  0  0
 19 10  2  0  0  0  0
 20 19  1  0  0  0  0
 21 10  1  0  0  0  0
 21 22  1  0  0  0  0
 23 24  1  0  0  0  0
 23 20  1  0  0  0  0
 25 23  1  0  0  0  0
 26 23  1  0  0  0  0
 27 20  2  0  0  0  0
 27 29  1  0  0  0  0
 28 27  1  0  0  0  0
 29 21  2  0  0  0  0
 30 29  1  0  0  0  0
M  END
$$$$
