CSD_code = REGDOX | q = 0 | S = 0 | Stoichiometry = C12H12Cl3PTi | MND = 8
 OpenBabel04212202093D

 29 30  0  0  1  0  0  0  0  0999 V2000
    9.9624    2.0349    5.4958 Ti  0  0  0  0  0  0  0  0  0  0  0  0
   12.0208    3.3392    4.6439 P   0  0  0  0  0  0  0  0  0  0  0  0
    9.5643    0.4742    4.0694 Cl  0  0  0  0  0  0  0  0  0  0  0  0
    8.0693    1.9444    6.5559 Cl  0  0  0  0  0  0  0  0  0  0  0  0
   11.1633    0.8957    6.8591 Cl  0  0  0  0  0  0  0  0  0  0  0  0
   11.0253    4.0356    5.9510 C   0  0  1  0  0  3  0  0  0  0  0  0
    9.7014    4.3287    5.5442 C   0  0  1  0  0  0  0  0  0  0  0  0
    9.4496    3.8916    4.2112 C   0  0  2  0  0  3  0  0  0  0  0  0
   10.5898    3.3370    3.6089 C   0  0  0  0  0  0  0  0  0  0  0  0
   10.6071    2.9981    2.5780 H   0  0  0  0  0  0  0  0  0  0  0  0
    8.1299    4.0640    3.5176 C   0  0  0  0  0  0  0  0  0  0  0  0
    7.9726    5.1128    3.2578 H   0  0  0  0  0  0  0  0  0  0  0  0
    7.3135    3.7473    4.1695 H   0  0  0  0  0  0  0  0  0  0  0  0
    8.1018    3.4724    2.6032 H   0  0  0  0  0  0  0  0  0  0  0  0
    8.7295    5.1676    6.3237 C   0  0  0  0  0  0  0  0  0  0  0  0
    9.2132    5.5953    7.1998 H   0  0  0  0  0  0  0  0  0  0  0  0
    7.8684    4.5817    6.6491 H   0  0  0  0  0  0  0  0  0  0  0  0
    8.3674    5.9796    5.6914 H   0  0  0  0  0  0  0  0  0  0  0  0
   11.5575    4.2519    7.3007 C   0  0  0  0  0  0  0  0  0  0  0  0
   12.8209    4.8101    7.4811 C   0  0  0  0  0  0  0  0  0  0  0  0
   13.3911    5.1065    6.6104 H   0  0  0  0  0  0  0  0  0  0  0  0
   13.3327    4.9842    8.7536 C   0  0  0  0  0  0  0  0  0  0  0  0
   14.3125    5.4187    8.8837 H   0  0  0  0  0  0  0  0  0  0  0  0
   12.5931    4.5958    9.8585 C   0  0  0  0  0  0  0  0  0  0  0  0
   12.9952    4.7276   10.8517 H   0  0  0  0  0  0  0  0  0  0  0  0
   11.3417    4.0242    9.6877 C   0  0  0  0  0  0  0  0  0  0  0  0
   10.7724    3.7045   10.5477 H   0  0  0  0  0  0  0  0  0  0  0  0
   10.8223    3.8489    8.4186 C   0  0  0  0  0  0  0  0  0  0  0  0
    9.8561    3.3687    8.2828 H   0  0  0  0  0  0  0  0  0  0  0  0
  1  7  1  0  0  0  0
  1  4  1  0  0  0  0
  1  5  1  0  0  0  0
  2  6  1  0  0  0  0
  3  1  1  0  0  0  0
  6 19  1  1  0  0  0
  7  6  1  0  0  0  0
  7 15  1  1  0  0  0
  8 11  1  6  0  0  0
  8  7  1  0  0  0  0
  9  8  1  0  0  0  0
  9  2  2  0  0  0  0
 10  9  1  0  0  0  0
 11 13  1  0  0  0  0
 12 11  1  0  0  0  0
 14 11  1  0  0  0  0
 15 17  1  0  0  0  0
 15 16  1  0  0  0  0
 18 15  1  0  0  0  0
 19 20  2  0  0  0  0
 19 28  1  0  0  0  0
 20 22  1  0  0  0  0
 21 20  1  0  0  0  0
 22 23  1  0  0  0  0
 22 24  2  0  0  0  0
 24 25  1  0  0  0  0
 26 24  1  0  0  0  0
 26 27  1  0  0  0  0
 28 26  2  0  0  0  0
 29 28  1  0  0  0  0
M  END
$$$$
