CSD_code = REGHAO | q = 0 | S = 0 | Stoichiometry = C26H20BrN4O4Rh | MND = 6
 OpenBabel04212202093D

 56 63  0  0  1  0  0  0  0  0999 V2000
    1.6673    7.8071    4.2668 Rh  0  0  0  0  0  0  0  0  0  0  0  0
    0.7391    8.6006    6.3041 Br  0  0  0  0  0  0  0  0  0  0  0  0
    6.7649   10.4097    3.0382 O   0  0  0  0  0  0  0  0  0  0  0  0
    4.2073   13.4052    0.7710 O   0  0  0  0  0  0  0  0  0  0  0  0
    0.8490    3.9344    3.6607 O   0  0  0  0  0  0  0  0  0  0  0  0
    1.1268    5.8937    4.6567 O   0  0  0  0  0  0  0  0  0  0  0  0
    2.3460    9.5913    3.7226 N   0  0  0  0  0  0  0  0  0  0  0  0
    5.7357   12.0619    1.8466 N   0  0  0  0  0  0  0  0  0  0  0  0
    6.5776   12.4634    1.4601 H   0  0  0  0  0  0  0  0  0  0  0  0
    2.3653    6.8683    2.3772 N   0  0  2  0  0  4  0  0  0  0  0  0
   -0.3364    7.4868    3.1437 N   0  0  0  0  0  0  0  0  0  0  0  0
    3.6915    9.7243    3.8051 C   0  0  0  0  0  0  0  0  0  0  0  0
    4.3276   10.7148    3.0324 C   0  0  0  0  0  0  0  0  0  0  0  0
    5.7575   10.9819    2.7127 C   0  0  0  0  0  0  0  0  0  0  0  0
    4.4633   12.5022    1.5258 C   0  0  0  0  0  0  0  0  0  0  0  0
    3.5667   11.6110    2.2902 C   0  0  0  0  0  0  0  0  0  0  0  0
    2.1644   11.5937    2.3443 C   0  0  0  0  0  0  0  0  0  0  0  0
    1.3438   12.5367    1.6973 C   0  0  0  0  0  3  0  0  0  0  0  0
    1.8185   13.3098    1.1143 H   0  0  0  0  0  0  0  0  0  0  0  0
   -0.0158   12.4683    1.8309 C   0  0  0  0  0  0  0  0  0  0  0  0
   -0.6477   13.1932    1.3412 H   0  0  0  0  0  0  0  0  0  0  0  0
   -0.5927   11.4705    2.6300 C   0  0  0  0  0  0  0  0  0  0  0  0
   -1.6631   11.4543    2.7675 H   0  0  0  0  0  0  0  0  0  0  0  0
    0.1813   10.5263    3.2514 C   0  0  0  0  0  0  0  0  0  0  0  0
   -0.2728    9.7917    3.8966 H   0  0  0  0  0  0  0  0  0  0  0  0
    1.5830   10.5398    3.1116 C   0  0  0  0  0  0  0  0  0  0  0  0
    4.3114    8.7666    4.7046 C   0  0  0  0  0  0  0  0  0  0  0  0
    3.4512    7.7397    5.1278 C   0  0  0  0  0  0  0  0  0  0  0  0
    3.8714    6.7951    6.0438 C   0  0  0  0  0  0  0  0  0  0  0  0
    3.1949    6.0206    6.3799 H   0  0  0  0  0  0  0  0  0  0  0  0
    5.1623    6.8632    6.5465 C   0  0  0  0  0  0  0  0  0  0  0  0
    5.4942    6.1292    7.2657 H   0  0  0  0  0  0  0  0  0  0  0  0
    6.0169    7.8794    6.1436 C   0  0  0  0  0  0  0  0  0  0  0  0
    7.0139    7.9360    6.5534 H   0  0  0  0  0  0  0  0  0  0  0  0
    5.6029    8.8318    5.2343 C   0  0  0  0  0  0  0  0  0  0  0  0
    6.2751    9.6194    4.9431 H   0  0  0  0  0  0  0  0  0  0  0  0
    1.2648    7.0564    1.4120 C   0  0  0  0  0  0  0  0  0  0  0  0
    1.2774    8.1019    1.0773 H   0  0  0  0  0  0  0  0  0  0  0  0
    1.4155    6.4079    0.5374 H   0  0  0  0  0  0  0  0  0  0  0  0
   -0.0712    6.7739    2.0458 C   0  0  1  0  0  3  0  0  0  0  0  0
   -1.4781    7.2709    3.7866 C   0  0  0  0  0  0  0  0  0  0  0  0
   -1.6446    7.8545    4.6831 H   0  0  0  0  0  0  0  0  0  0  0  0
   -2.4091    6.3384    3.3609 C   0  0  0  0  0  0  0  0  0  0  0  0
   -3.3138    6.1837    3.9257 H   0  0  0  0  0  0  0  0  0  0  0  0
   -2.1403    5.6022    2.2201 C   0  0  0  0  0  0  0  0  0  0  0  0
   -2.8312    4.8517    1.8683 H   0  0  0  0  0  0  0  0  0  0  0  0
   -0.9511    5.8290    1.5452 C   0  0  0  0  0  0  0  0  0  0  0  0
   -0.6990    5.2639    0.6615 H   0  0  0  0  0  0  0  0  0  0  0  0
    2.4707    5.4459    2.7354 C   0  0  0  0  0  0  0  0  0  0  0  0
    2.4156    4.8020    1.8493 H   0  0  0  0  0  0  0  0  0  0  0  0
    3.4290    5.2758    3.2363 H   0  0  0  0  0  0  0  0  0  0  0  0
    1.3666    5.0270    3.7606 C   0  0  0  0  0  0  0  0  0  0  0  0
    3.6145    7.2987    1.7468 C   0  0  0  0  0  0  0  0  0  0  0  0
    3.5361    8.3334    1.4111 H   0  0  0  0  0  0  0  0  0  0  0  0
    3.8406    6.6706    0.8770 H   0  0  0  0  0  0  0  0  0  0  0  0
    4.4397    7.2229    2.4542 H   0  0  0  0  0  0  0  0  0  0  0  0
  1  6  1  0  0  0  0
  1 28  1  0  0  0  0
  1  2  1  0  0  0  0
  4 15  2  0  0  0  0
  5 52  2  0  0  0  0
  7 12  1  0  0  0  0
  7  1  1  0  0  0  0
  8 14  1  0  0  0  0
  9  8  1  0  0  0  0
 10 53  1  6  0  0  0
 10 49  1  0  0  0  0
 10  1  1  0  0  0  0
 11 41  1  0  0  0  0
 11  1  1  0  0  0  0
 12 27  1  0  0  0  0
 13 12  2  0  0  0  0
 14 13  1  0  0  0  0
 14  3  2  0  0  0  0
 15  8  1  0  0  0  0
 15 16  1  0  0  0  0
 16 17  2  0  0  0  0
 16 13  1  0  0  0  0
 17 26  1  0  0  0  0
 18 20  1  0  0  0  0
 18 17  1  0  0  0  0
 19 18  1  0  0  0  0
 20 22  2  0  0  0  0
 21 20  1  0  0  0  0
 22 23  1  0  0  0  0
 22 24  1  0  0  0  0
 24 25  1  0  0  0  0
 26 24  2  0  0  0  0
 26  7  1  0  0  0  0
 27 28  2  0  0  0  0
 27 35  1  0  0  0  0
 28 29  1  0  0  0  0
 29 30  1  0  0  0  0
 29 31  2  0  0  0  0
 31 32  1  0  0  0  0
 33 31  1  0  0  0  0
 33 34  1  0  0  0  0
 35 33  2  0  0  0  0
 36 35  1  0  0  0  0
 37 40  1  0  0  0  0
 37 10  1  0  0  0  0
 38 37  1  0  0  0  0
 39 37  1  0  0  0  0
 40 47  1  1  0  0  0
 40 11  1  0  0  0  0
 41 42  1  0  0  0  0
 43 41  2  0  0  0  0
 43 44  1  0  0  0  0
 45 43  1  0  0  0  0
 46 45  1  0  0  0  0
 47 45  2  0  0  0  0
 48 47  1  0  0  0  0
 49 51  1  0  0  0  0
 49 52  1  0  0  0  0
 50 49  1  0  0  0  0
 52  6  1  0  0  0  0
 53 56  1  0  0  0  0
 54 53  1  0  0  0  0
 55 53  1  0  0  0  0
M  END
$$$$
