CSD_code = REHXEH | q = 0 | S = 0 | Stoichiometry = C6H13Cl2O3ReS2 | MND = 6
 OpenBabel04212202093D

 27 28  0  0  0  0  0  0  0  0999 V2000
    0.2776    1.3229   17.2821 Re  0  0  0  0  0  0  0  0  0  0  0  0
    0.8414   -0.1954   18.8800 Cl  0  0  0  0  0  0  0  0  0  0  0  0
    0.0294   -0.3406   15.7592 Cl  0  0  0  0  0  0  0  0  0  0  0  0
   -0.4590    3.3058   15.4655 S   0  0  1  0  0  3  0  0  0  0  0  0
    0.0543    3.5884   18.9699 S   0  0  1  0  0  3  0  0  0  0  0  0
   -1.4372    1.4061   17.7608 O   0  0  0  0  0  0  0  0  0  0  0  0
    1.7998    1.8151   16.8705 O   0  0  0  0  0  1  0  0  0  0  0  0
    0.4961    4.5888   16.3775 C   0  0  0  0  0  0  0  0  0  0  0  0
    1.4997    4.1905   16.5342 H   0  0  0  0  0  0  0  0  0  0  0  0
    0.5402    5.4728   15.7414 H   0  0  0  0  0  0  0  0  0  0  0  0
   -0.1594    4.9174   17.7039 C   0  0  0  0  0  0  0  0  0  0  0  0
   -1.2259    5.1006   17.5866 H   0  0  0  0  0  0  0  0  0  0  0  0
    0.3147    5.8006   18.1326 H   0  0  0  0  0  0  0  0  0  0  0  0
   -1.6668    3.1386   19.3681 C   0  0  0  0  0  0  0  0  0  0  0  0
   -1.5711    2.5251   20.2647 H   0  0  0  0  0  0  0  0  0  0  0  0
   -2.2312    4.0411   19.5925 H   0  0  0  0  0  0  0  0  0  0  0  0
   -2.3265    2.3179   18.2397 C   0  0  0  0  0  0  0  0  0  0  0  0
   -3.2271    1.8225   18.6338 H   0  0  0  0  0  0  0  0  0  0  0  0
   -2.6329    2.9911   17.4177 H   0  0  0  0  0  0  0  0  0  0  0  0
    0.7303    2.8248   14.1708 C   0  0  0  0  0  0  0  0  0  0  0  0
    1.6429    2.4976   14.6747 H   0  0  0  0  0  0  0  0  0  0  0  0
    0.2683    1.9665   13.6848 H   0  0  0  0  0  0  0  0  0  0  0  0
    1.0005    3.9390   13.1649 C   0  0  0  0  0  0  0  0  0  0  0  0
    1.4538    3.4919   12.2691 H   0  0  0  0  0  0  0  0  0  0  0  0
    0.0633    4.4205   12.8743 H   0  0  0  0  0  0  0  0  0  0  0  0
    1.8137    4.9649   13.6736 O   0  0  0  0  0  0  0  0  0  0  0  0
    2.6854    4.6053   13.8764 H   0  0  0  0  0  0  0  0  0  0  0  0
  1  6  1  0  0  0  0
  1  2  1  0  0  0  0
  1  5  1  0  0  0  0
  3  1  1  0  0  0  0
  4 20  1  6  0  0  0
  4  8  1  0  0  0  0
  4  1  1  0  0  0  0
  5 11  1  6  0  0  0
  5 14  1  0  0  0  0
  6 17  1  0  0  0  0
  7  1  1  0  0  0  0
  8  9  1  0  0  0  0
  8 11  1  0  0  0  0
 10  8  1  0  0  0  0
 11 13  1  0  0  0  0
 12 11  1  0  0  0  0
 14 16  1  0  0  0  0
 14 15  1  0  0  0  0
 17 18  1  0  0  0  0
 17 14  1  0  0  0  0
 19 17  1  0  0  0  0
 20 21  1  0  0  0  0
 22 20  1  0  0  0  0
 23 26  1  0  0  0  0
 23 20  1  0  0  0  0
 24 23  1  0  0  0  0
 25 23  1  0  0  0  0
 26 27  1  0  0  0  0
M  END
$$$$
