CSD_code = REJFIX | q = 0 | S = 0 | Stoichiometry = C25H23Cl2N6Rh | MND = 6
 OpenBabel04212202093D

 57 63  0  0  1  0  0  0  0  0999 V2000
    2.9528    7.9204    3.1908 Rh  0  0  0  0  0  0  0  0  0  0  0  0
    0.8984    6.8237    3.3160 Cl  0  0  0  0  0  0  0  0  0  0  0  0
    5.0118    9.0132    3.0913 Cl  0  0  0  0  0  0  0  0  0  0  0  0
    3.4366    7.2018    4.9837 N   0  0  0  0  0  0  0  0  0  0  0  0
    2.1961    9.4993    4.1057 N   0  0  1  0  0  0  0  0  0  0  0  0
    1.6984    9.4620    5.3421 N   0  0  0  0  0  0  0  0  0  0  0  0
    3.7382    6.2879    2.4018 N   0  0  1  0  0  0  0  0  0  0  0  0
    4.7185    5.5939    2.9801 N   0  0  0  0  0  0  0  0  0  0  0  0
    2.4601    8.6618    1.3404 N   0  0  0  0  0  0  0  0  0  0  0  0
    2.5248    7.2487    6.0014 C   0  0  0  0  0  0  0  0  0  0  0  0
    1.5951    8.3013    6.1313 C   0  0  0  0  0  0  0  0  0  0  0  0
    0.5826    8.2384    7.0839 C   0  0  0  0  0  0  0  0  0  0  0  0
   -0.1562    9.0255    7.1175 H   0  0  0  0  0  0  0  0  0  0  0  0
    0.4891    7.1849    7.9734 C   0  0  0  0  0  0  0  0  0  0  0  0
    1.4457    6.1731    7.8926 C   0  0  0  0  0  0  0  0  0  0  0  0
    1.3954    5.3401    8.5787 H   0  0  0  0  0  0  0  0  0  0  0  0
    2.4252    6.1978    6.9312 C   0  0  0  0  0  0  0  0  0  0  0  0
    3.1295    5.3825    6.8531 H   0  0  0  0  0  0  0  0  0  0  0  0
   -0.5966    7.1308    9.0048 C   0  0  0  0  0  0  0  0  0  0  0  0
   -0.2010    7.4006    9.9849 H   0  0  0  0  0  0  0  0  0  0  0  0
   -1.0055    6.1251    9.0763 H   0  0  0  0  0  0  0  0  0  0  0  0
   -1.4015    7.8190    8.7595 H   0  0  0  0  0  0  0  0  0  0  0  0
    2.1705   10.7650    3.7019 C   0  0  0  0  0  3  0  0  0  0  0  0
    2.5494   11.0535    2.7399 H   0  0  0  0  0  0  0  0  0  0  0  0
    1.6406   11.5681    4.7065 C   0  0  0  0  0  0  0  0  0  0  0  0
    1.4957   12.6280    4.6849 H   0  0  0  0  0  0  0  0  0  0  0  0
    1.3537   10.7025    5.7383 C   0  0  0  0  0  0  0  0  0  0  0  0
    0.9682   10.9015    6.7166 H   0  0  0  0  0  0  0  0  0  0  0  0
    3.3529    5.6137    1.3234 C   0  0  0  0  0  3  0  0  0  0  0  0
    2.5496    5.9621    0.7024 H   0  0  0  0  0  0  0  0  0  0  0  0
    4.1069    4.4510    1.2021 C   0  0  0  0  0  0  0  0  0  0  0  0
    4.0297    3.7009    0.4430 H   0  0  0  0  0  0  0  0  0  0  0  0
    4.9660    4.4712    2.2783 C   0  0  0  0  0  0  0  0  0  0  0  0
    5.6931    3.7517    2.5932 H   0  0  0  0  0  0  0  0  0  0  0  0
    4.6824    6.6729    5.1814 C   0  0  0  0  0  0  0  0  0  0  0  0
    5.3677    5.9661    4.1720 C   0  0  0  0  0  0  0  0  0  0  0  0
    6.6908    5.5747    4.3533 C   0  0  0  0  0  0  0  0  0  0  0  0
    7.2113    5.0923    3.5391 H   0  0  0  0  0  0  0  0  0  0  0  0
    7.3574    5.8061    5.5412 C   0  0  0  0  0  0  0  0  0  0  0  0
    6.6640    6.4490    6.5669 C   0  0  0  0  0  0  0  0  0  0  0  0
    7.1638    6.6398    7.5055 H   0  0  0  0  0  0  0  0  0  0  0  0
    5.3716    6.8770    6.3905 C   0  0  0  0  0  0  0  0  0  0  0  0
    4.8644    7.4117    7.1803 H   0  0  0  0  0  0  0  0  0  0  0  0
    8.7886    5.4027    5.7250 C   0  0  0  0  0  0  0  0  0  0  0  0
    9.4248    6.2868    5.7666 H   0  0  0  0  0  0  0  0  0  0  0  0
    9.1269    4.7767    4.9032 H   0  0  0  0  0  0  0  0  0  0  0  0
    8.9165    4.8566    6.6582 H   0  0  0  0  0  0  0  0  0  0  0  0
    1.2106    9.0415    1.0614 C   0  0  0  0  0  3  0  0  0  0  0  0
    0.4770    8.9098    1.8457 H   0  0  0  0  0  0  0  0  0  0  0  0
    0.8415    9.5492   -0.1712 C   0  0  0  0  0  0  0  0  0  0  0  0
   -0.1832    9.8380   -0.3436 H   0  0  0  0  0  0  0  0  0  0  0  0
    1.7992    9.6771   -1.1647 C   0  0  0  0  0  0  0  0  0  0  0  0
    1.5431   10.0719   -2.1361 H   0  0  0  0  0  0  0  0  0  0  0  0
    3.0955    9.2828   -0.8739 C   0  0  0  0  0  0  0  0  0  0  0  0
    3.8810    9.3614   -1.6087 H   0  0  0  0  0  0  0  0  0  0  0  0
    3.3831    8.7813    0.3827 C   0  0  0  0  0  0  0  0  0  0  0  0
    4.3921    8.4890    0.6415 H   0  0  0  0  0  0  0  0  0  0  0  0
  1  2  1  0  0  0  0
  1  5  1  0  0  0  0
  1  4  1  0  0  0  0
  3  1  1  0  0  0  0
  4 35  1  0  0  0  0
  4 10  1  0  0  0  0
  5 23  1  1  0  0  0
  5  6  1  0  0  0  0
  6 27  1  0  0  0  0
  6 11  1  0  0  0  0
  7 29  1  1  0  0  0
  7  8  1  0  0  0  0
  7  1  1  0  0  0  0
  8 36  1  0  0  0  0
  9  1  1  0  0  0  0
 10 11  2  0  0  0  0
 10 17  1  0  0  0  0
 11 12  1  0  0  0  0
 12 13  1  0  0  0  0
 12 14  2  0  0  0  0
 14 19  1  0  0  0  0
 15 14  1  0  0  0  0
 15 16  1  0  0  0  0
 17 15  2  0  0  0  0
 18 17  1  0  0  0  0
 19 21  1  0  0  0  0
 19 20  1  0  0  0  0
 22 19  1  0  0  0  0
 23 25  1  0  0  0  0
 24 23  1  0  0  0  0
 25 27  2  0  0  0  0
 26 25  1  0  0  0  0
 27 28  1  0  0  0  0
 30 29  1  0  0  0  0
 31 29  1  0  0  0  0
 31 33  2  0  0  0  0
 32 31  1  0  0  0  0
 33 34  1  0  0  0  0
 33  8  1  0  0  0  0
 35 42  1  0  0  0  0
 36 37  1  0  0  0  0
 36 35  2  0  0  0  0
 37 39  2  0  0  0  0
 38 37  1  0  0  0  0
 39 44  1  0  0  0  0
 39 40  1  0  0  0  0
 40 41  1  0  0  0  0
 42 40  2  0  0  0  0
 42 43  1  0  0  0  0
 44 45  1  0  0  0  0
 44 47  1  0  0  0  0
 46 44  1  0  0  0  0
 48  9  1  0  0  0  0
 48 49  1  0  0  0  0
 50 48  1  0  0  0  0
 51 50  1  0  0  0  0
 52 54  1  0  0  0  0
 52 50  2  0  0  0  0
 53 52  1  0  0  0  0
 54 56  2  0  0  0  0
 55 54  1  0  0  0  0
 56 57  1  0  0  0  0
 56  9  1  0  0  0  0
M  END
$$$$
