CSD_code = REJGEU | q = 0 | S = 0 | Stoichiometry = C26H33Cl2N5PRh | MND = 6
 OpenBabel04212202093D

 68 73  0  0  1  0  0  0  0  0999 V2000
   20.8942    9.4229    1.0680 Rh  0  0  0  0  0  0  0  0  0  0  0  0
   19.1782   10.9827    1.3267 Cl  0  0  0  0  0  0  0  0  0  0  0  0
   22.5872    7.8367    0.8493 Cl  0  0  0  0  0  0  0  0  0  0  0  0
   20.6694    8.9869    3.3633 P   0  0  0  0  0  4  0  0  0  0  0  0
   21.0942    9.9284   -0.8799 N   0  0  0  0  0  0  0  0  0  0  0  0
   22.3206   10.7827    1.3583 N   0  0  2  0  0  0  0  0  0  0  0  0
   22.3612   11.9279    0.6757 N   0  0  0  0  0  0  0  0  0  0  0  0
   19.5479    8.0995    0.3840 N   0  0  2  0  0  0  0  0  0  0  0  0
   19.7467    7.4377   -0.7601 N   0  0  0  0  0  0  0  0  0  0  0  0
   20.9936   11.2473   -1.2202 C   0  0  0  0  0  0  0  0  0  0  0  0
   21.4904   12.2641   -0.3787 C   0  0  0  0  0  0  0  0  0  0  0  0
   21.2330   13.6025   -0.6452 C   0  0  0  0  0  0  0  0  0  0  0  0
   21.5810   14.3529    0.0500 H   0  0  0  0  0  0  0  0  0  0  0  0
   20.5334   13.9844   -1.7756 C   0  0  0  0  0  0  0  0  0  0  0  0
   20.1074   12.9877   -2.6535 C   0  0  0  0  0  0  0  0  0  0  0  0
   19.5733   13.2672   -3.5503 H   0  0  0  0  0  0  0  0  0  0  0  0
   20.3227   11.6579   -2.3838 C   0  0  0  0  0  0  0  0  0  0  0  0
   19.9537   10.8961   -3.0552 H   0  0  0  0  0  0  0  0  0  0  0  0
   20.2307   15.4247   -2.0563 C   0  0  0  0  0  0  0  0  0  0  0  0
   19.1625   15.6113   -1.9472 H   0  0  0  0  0  0  0  0  0  0  0  0
   20.5113   15.6840   -3.0761 H   0  0  0  0  0  0  0  0  0  0  0  0
   20.7636   16.0770   -1.3692 H   0  0  0  0  0  0  0  0  0  0  0  0
   23.4271   10.7152    2.0893 C   0  0  0  0  0  3  0  0  0  0  0  0
   23.6543    9.8425    2.6699 H   0  0  0  0  0  0  0  0  0  0  0  0
   24.1895   11.8631    1.8975 C   0  0  0  0  0  0  0  0  0  0  0  0
   25.1283   12.1052    2.3504 H   0  0  0  0  0  0  0  0  0  0  0  0
   23.4785   12.6126    0.9879 C   0  0  0  0  0  0  0  0  0  0  0  0
   23.7134   13.5497    0.5268 H   0  0  0  0  0  0  0  0  0  0  0  0
   18.3517    7.7464    0.8389 C   0  0  0  0  0  3  0  0  0  0  0  0
   17.9368    8.1973    1.7156 H   0  0  0  0  0  0  0  0  0  0  0  0
   17.7694    6.8196   -0.0192 C   0  0  0  0  0  0  0  0  0  0  0  0
   16.8131    6.3501    0.0804 H   0  0  0  0  0  0  0  0  0  0  0  0
   18.6884    6.6492   -1.0286 C   0  0  0  0  0  0  0  0  0  0  0  0
   18.6358    6.0573   -1.9188 H   0  0  0  0  0  0  0  0  0  0  0  0
   21.3452    8.9582   -1.8038 C   0  0  0  0  0  0  0  0  0  0  0  0
   20.8009    7.6637   -1.6668 C   0  0  0  0  0  0  0  0  0  0  0  0
   21.2108    6.6307   -2.4973 C   0  0  0  0  0  0  0  0  0  0  0  0
   20.8282    5.6342   -2.3311 H   0  0  0  0  0  0  0  0  0  0  0  0
   22.1112    6.8501   -3.5271 C   0  0  0  0  0  0  0  0  0  0  0  0
   22.5857    8.1447   -3.7201 C   0  0  0  0  0  0  0  0  0  0  0  0
   23.2760    8.3438   -4.5272 H   0  0  0  0  0  0  0  0  0  0  0  0
   22.2227    9.1702   -2.8786 C   0  0  0  0  0  0  0  0  0  0  0  0
   22.6331   10.1603   -3.0152 H   0  0  0  0  0  0  0  0  0  0  0  0
   22.5618    5.7144   -4.3950 C   0  0  0  0  0  0  0  0  0  0  0  0
   21.7128    5.1191   -4.7273 H   0  0  0  0  0  0  0  0  0  0  0  0
   23.2311    5.0590   -3.8376 H   0  0  0  0  0  0  0  0  0  0  0  0
   23.0937    6.0828   -5.2683 H   0  0  0  0  0  0  0  0  0  0  0  0
   21.3471   10.2592    4.5264 C   0  0  0  0  0  0  0  0  0  0  0  0
   21.1685    9.8996    5.5432 H   0  0  0  0  0  0  0  0  0  0  0  0
   22.4278   10.3117    4.3844 H   0  0  0  0  0  0  0  0  0  0  0  0
   20.7312   11.6379    4.3313 C   0  0  0  0  0  0  0  0  0  0  0  0
   20.8609   11.9766    3.3067 H   0  0  0  0  0  0  0  0  0  0  0  0
   21.2003   12.3593    4.9990 H   0  0  0  0  0  0  0  0  0  0  0  0
   19.6633   11.6214    4.5327 H   0  0  0  0  0  0  0  0  0  0  0  0
   18.9533    8.7829    4.0336 C   0  0  0  0  0  0  0  0  0  0  0  0
   18.3574    9.5872    3.5943 H   0  0  0  0  0  0  0  0  0  0  0  0
   18.5870    7.8315    3.6402 H   0  0  0  0  0  0  0  0  0  0  0  0
   18.7900    8.7780    5.5492 C   0  0  0  0  0  0  0  0  0  0  0  0
   17.7642    8.5065    5.7941 H   0  0  0  0  0  0  0  0  0  0  0  0
   18.9820    9.7570    5.9786 H   0  0  0  0  0  0  0  0  0  0  0  0
   19.4473    8.0506    6.0207 H   0  0  0  0  0  0  0  0  0  0  0  0
   21.5353    7.4903    4.0124 C   0  0  0  0  0  0  0  0  0  0  0  0
   22.5814    7.5846    3.7115 H   0  0  0  0  0  0  0  0  0  0  0  0
   21.4886    7.4900    5.1049 H   0  0  0  0  0  0  0  0  0  0  0  0
   20.9743    6.1959    3.4397 C   0  0  0  0  0  0  0  0  0  0  0  0
   21.0073    6.2339    2.3528 H   0  0  0  0  0  0  0  0  0  0  0  0
   19.9479    6.0271    3.7586 H   0  0  0  0  0  0  0  0  0  0  0  0
   21.5762    5.3507    3.7672 H   0  0  0  0  0  0  0  0  0  0  0  0
  1  2  1  0  0  0  0
  1  6  1  0  0  0  0
  1  4  1  0  0  0  0
  3  1  1  0  0  0  0
  4 62  1  0  0  0  0
  4 55  1  0  0  0  0
  4 48  1  0  0  0  0
  5  1  1  0  0  0  0
  6 23  1  6  0  0  0
  7 27  1  0  0  0  0
  7  6  1  0  0  0  0
  8 29  1  6  0  0  0
  8  1  1  0  0  0  0
  9  8  1  0  0  0  0
 10  5  1  0  0  0  0
 10 11  1  0  0  0  0
 11  7  1  0  0  0  0
 12 11  2  0  0  0  0
 12 13  1  0  0  0  0
 14 12  1  0  0  0  0
 15 17  1  0  0  0  0
 15 14  2  0  0  0  0
 16 15  1  0  0  0  0
 17 10  2  0  0  0  0
 18 17  1  0  0  0  0
 19 20  1  0  0  0  0
 19 14  1  0  0  0  0
 19 22  1  0  0  0  0
 21 19  1  0  0  0  0
 23 24  1  0  0  0  0
 25 23  1  0  0  0  0
 25 26  1  0  0  0  0
 27 25  2  0  0  0  0
 28 27  1  0  0  0  0
 29 30  1  0  0  0  0
 31 32  1  0  0  0  0
 31 29  1  0  0  0  0
 33  9  1  0  0  0  0
 33 31  2  0  0  0  0
 34 33  1  0  0  0  0
 35 36  1  0  0  0  0
 35  5  1  0  0  0  0
 36  9  1  0  0  0  0
 37 38  1  0  0  0  0
 37 36  2  0  0  0  0
 39 37  1  0  0  0  0
 40 39  2  0  0  0  0
 40 42  1  0  0  0  0
 41 40  1  0  0  0  0
 42 35  2  0  0  0  0
 43 42  1  0  0  0  0
 44 46  1  0  0  0  0
 44 39  1  0  0  0  0
 45 44  1  0  0  0  0
 47 44  1  0  0  0  0
 48 49  1  0  0  0  0
 50 48  1  0  0  0  0
 51 48  1  0  0  0  0
 51 54  1  0  0  0  0
 51 53  1  0  0  0  0
 52 51  1  0  0  0  0
 55 58  1  0  0  0  0
 56 55  1  0  0  0  0
 57 55  1  0  0  0  0
 58 59  1  0  0  0  0
 58 60  1  0  0  0  0
 58 61  1  0  0  0  0
 62 64  1  0  0  0  0
 63 62  1  0  0  0  0
 65 67  1  0  0  0  0
 65 68  1  0  0  0  0
 65 62  1  0  0  0  0
 66 65  1  0  0  0  0
M  END
$$$$
