CSD_code = REJNOM | q = 0 | S = 0 | Stoichiometry = C5H12AuCl3N2S | MND = 4
 OpenBabel04212202093D

 24 23  0  0  0  0  0  0  0  0999 V2000
    5.7573    0.4183    3.4357 Au  0  0  0  0  0  0  0  0  0  0  0  0
    4.4484    0.8104    5.2526 Cl  0  0  0  0  0  0  0  0  0  0  0  0
    4.2323   -1.0716    2.6745 Cl  0  0  0  0  0  0  0  0  0  0  0  0
    7.2647    2.0087    4.1225 Cl  0  0  0  0  0  0  0  0  0  0  0  0
    7.1584    0.0297    1.5510 S   0  0  0  0  0  0  0  0  0  0  0  0
    6.7679    2.6030    0.9623 N   0  0  0  0  0  0  0  0  0  0  0  0
    8.9728    1.9153    1.2765 N   0  0  0  0  0  0  0  0  0  0  0  0
    7.6708    1.6690    1.2758 C   0  0  0  0  0  3  0  0  0  0  0  0
    5.4245    2.2358    0.5750 C   0  0  0  0  0  0  0  0  0  0  0  0
    5.4310    1.2854    0.0448 H   0  0  0  0  0  0  0  0  0  0  0  0
    5.0356    3.0133   -0.0820 H   0  0  0  0  0  0  0  0  0  0  0  0
    4.7602    2.1448    1.4419 H   0  0  0  0  0  0  0  0  0  0  0  0
    6.8895    3.9760    1.4172 C   0  0  0  0  0  0  0  0  0  0  0  0
    7.7527    4.0877    2.0647 H   0  0  0  0  0  0  0  0  0  0  0  0
    6.0056    4.2216    2.0082 H   0  0  0  0  0  0  0  0  0  0  0  0
    6.9475    4.6665    0.5738 H   0  0  0  0  0  0  0  0  0  0  0  0
    9.9079    0.9999    1.8901 C   0  0  0  0  0  0  0  0  0  0  0  0
    9.4358    0.5034    2.7347 H   0  0  0  0  0  0  0  0  0  0  0  0
   10.7640    1.5676    2.2495 H   0  0  0  0  0  0  0  0  0  0  0  0
   10.2432    0.2436    1.1778 H   0  0  0  0  0  0  0  0  0  0  0  0
    9.5837    3.0227    0.5760 C   0  0  0  0  0  0  0  0  0  0  0  0
    8.8858    3.4624   -0.1303 H   0  0  0  0  0  0  0  0  0  0  0  0
   10.4407    2.6389    0.0197 H   0  0  0  0  0  0  0  0  0  0  0  0
    9.9389    3.7882    1.2685 H   0  0  0  0  0  0  0  0  0  0  0  0
  1  4  1  0  0  0  0
  1  2  1  0  0  0  0
  3  1  1  0  0  0  0
  5  1  1  0  0  0  0
  6  8  1  0  0  0  0
  6 13  1  0  0  0  0
  7 17  1  0  0  0  0
  8  7  1  0  0  0  0
  8  5  1  0  0  0  0
  9  6  1  0  0  0  0
  9 12  1  0  0  0  0
 10  9  1  0  0  0  0
 11  9  1  0  0  0  0
 13 15  1  0  0  0  0
 13 14  1  0  0  0  0
 16 13  1  0  0  0  0
 17 19  1  0  0  0  0
 17 18  1  0  0  0  0
 20 17  1  0  0  0  0
 21 24  1  0  0  0  0
 21  7  1  0  0  0  0
 22 21  1  0  0  0  0
 23 21  1  0  0  0  0
M  END
$$$$
