CSD_code = REJYAI | q = 0 | S = 0 | Stoichiometry = C22H14ClN5Pt | MND = 4
 OpenBabel04212202093D

 43 48  0  0  0  0  0  0  0  0999 V2000
    6.4739   10.7282    5.7963 C   0  0  0  0  0  0  0  0  0  0  0  0
    7.6462   11.4820    6.2387 C   0  0  0  0  0  0  0  0  0  0  0  0
    8.8636   11.0829    6.7552 C   0  0  0  0  0  0  0  0  0  0  0  0
    9.0867   10.0375    6.8950 H   0  0  0  0  0  0  0  0  0  0  0  0
    9.7773   12.0751    7.0832 C   0  0  0  0  0  0  0  0  0  0  0  0
   10.7386   11.7980    7.4894 H   0  0  0  0  0  0  0  0  0  0  0  0
    9.4797   13.4200    6.8994 C   0  0  0  0  0  0  0  0  0  0  0  0
   10.2149   14.1645    7.1660 H   0  0  0  0  0  0  0  0  0  0  0  0
    8.2573   13.8238    6.3803 C   0  0  0  0  0  0  0  0  0  0  0  0
    8.0185   14.8650    6.2350 H   0  0  0  0  0  0  0  0  0  0  0  0
    7.3463   12.8384    6.0530 C   0  0  0  0  0  0  0  0  0  0  0  0
    5.9942   12.8977    5.4997 C   0  0  0  0  0  0  0  0  0  0  0  0
    4.1090   13.9841    4.6926 C   0  0  0  0  0  0  0  0  0  0  0  0
    3.5278   15.3110    4.4234 C   0  0  0  0  0  0  0  0  0  0  0  0
    4.2751   16.4626    4.6495 C   0  0  0  0  0  0  0  0  0  0  0  0
    5.2836   16.3651    5.0189 H   0  0  0  0  0  0  0  0  0  0  0  0
    3.7196   17.7035    4.3999 C   0  0  0  0  0  0  0  0  0  0  0  0
    4.2998   18.5976    4.5753 H   0  0  0  0  0  0  0  0  0  0  0  0
    2.4210   17.8026    3.9260 C   0  0  0  0  0  0  0  0  0  0  0  0
    1.9894   18.7739    3.7338 H   0  0  0  0  0  0  0  0  0  0  0  0
    1.6750   16.6562    3.6992 C   0  0  0  0  0  0  0  0  0  0  0  0
    0.6631   16.7344    3.3303 H   0  0  0  0  0  0  0  0  0  0  0  0
    2.2228   15.4122    3.9452 C   0  0  0  0  0  0  0  0  0  0  0  0
    1.6538   14.5105    3.7740 H   0  0  0  0  0  0  0  0  0  0  0  0
    5.2593    8.7916    5.3969 C   0  0  0  0  0  0  0  0  0  0  0  0
    5.2975    7.3225    5.5034 C   0  0  0  0  0  0  0  0  0  0  0  0
    6.4197    6.6860    6.0245 C   0  0  0  0  0  0  0  0  0  0  0  0
    7.2578    7.2854    6.3432 H   0  0  0  0  0  0  0  0  0  0  0  0
    6.4439    5.3077    6.1264 C   0  0  0  0  0  0  0  0  0  0  0  0
    7.3149    4.8135    6.5315 H   0  0  0  0  0  0  0  0  0  0  0  0
    5.3542    4.5594    5.7102 C   0  0  0  0  0  0  0  0  0  0  0  0
    5.3764    3.4826    5.7917 H   0  0  0  0  0  0  0  0  0  0  0  0
    4.2355    5.1917    5.1896 C   0  0  0  0  0  0  0  0  0  0  0  0
    3.3872    4.6080    4.8650 H   0  0  0  0  0  0  0  0  0  0  0  0
    4.2029    6.5686    5.0847 C   0  0  0  0  0  0  0  0  0  0  0  0
    3.3385    7.0751    4.6818 H   0  0  0  0  0  0  0  0  0  0  0  0
    5.5275   11.6185    5.3681 N   0  0  0  0  0  0  0  0  0  0  0  0
    6.3911    9.4419    5.8273 N   0  0  0  0  0  0  0  0  0  0  0  0
    5.3839   13.9948    5.2061 N   0  0  0  0  0  0  0  0  0  0  0  0
    3.4609   12.9175    4.4620 N   0  0  0  0  0  2  0  0  0  0  0  0
    4.2417    9.3959    4.9383 N   0  0  0  0  0  0  0  0  0  0  0  0
    1.7025   10.5616    3.8228 Cl  0  0  0  0  0  0  0  0  0  0  0  0
    3.6868   11.1105    4.6284 Pt  0  0  2  0  0  0  0  0  0  0  0  0
  1 38  1  0  0  0  0
  1  2  2  0  0  0  0
  2  3  1  0  0  0  0
  3  4  1  0  0  0  0
  3  5  2  0  0  0  0
  5  6  1  0  0  0  0
  7  5  1  0  0  0  0
  7  8  1  0  0  0  0
  9  7  2  0  0  0  0
 10  9  1  0  0  0  0
 11  2  1  0  0  0  0
 11  9  1  0  0  0  0
 12 11  2  0  0  0  0
 13 39  2  0  0  0  0
 14 15  1  0  0  0  0
 14 13  1  0  0  0  0
 15 16  1  0  0  0  0
 17 18  1  0  0  0  0
 17 15  2  0  0  0  0
 19 17  1  0  0  0  0
 20 19  1  0  0  0  0
 21 19  2  0  0  0  0
 21 23  1  0  0  0  0
 22 21  1  0  0  0  0
 23 14  2  0  0  0  0
 24 23  1  0  0  0  0
 25 26  1  0  0  0  0
 25 38  2  0  0  0  0
 26 27  1  0  0  0  0
 27 29  2  0  0  0  0
 27 28  1  0  0  0  0
 29 30  1  0  0  0  0
 31 32  1  0  0  0  0
 31 29  1  0  0  0  0
 33 31  2  0  0  0  0
 34 33  1  0  0  0  0
 35 33  1  0  0  0  0
 35 26  2  0  0  0  0
 36 35  1  0  0  0  0
 37 12  1  0  0  0  0
 37  1  1  0  0  0  0
 39 12  1  0  0  0  0
 40 43  1  0  0  0  0
 40 13  1  0  0  0  0
 41 25  1  0  0  0  0
 43 42  1  6  0  0  0
 43 41  2  0  0  0  0
 43 37  1  0  0  0  0
M  END
$$$$
