CSD_code = REKDOB | q = 1 | S = 0 | Stoichiometry = C36H24Cl2N4Rh(1+) | MND = 6
 OpenBabel04212202093D

 67 76  0  0  1  0  0  0  0  0999 V2000
    3.3521    5.0734    9.4519 Rh  0  0  0  0  0  0  0  0  0  0  0  0
    1.6587    6.5460    9.8000 Cl  0  0  0  0  0  0  0  0  0  0  0  0
    5.0548    6.5628    9.2509 Cl  0  0  0  0  0  0  0  0  0  0  0  0
    4.7190    3.5269    9.2426 N   0  0  0  0  0  0  0  0  0  0  0  0
    1.9758    3.5223    9.5069 N   0  0  0  0  0  0  0  0  0  0  0  0
    2.7465    5.0133    7.5186 N   0  0  0  0  0  0  0  0  0  0  0  0
    3.9566    4.8175   11.3697 N   0  0  0  0  0  0  0  0  0  0  0  0
    2.3233    3.7877    7.1953 C   0  0  0  0  0  0  0  0  0  0  0  0
    3.8304    5.6651   12.4217 C   0  0  1  0  0  3  0  0  0  0  0  0
    1.2063    1.4912   10.5552 C   0  0  0  0  0  0  0  0  0  0  0  0
    4.3723    3.5634   11.5692 C   0  0  0  0  0  0  0  0  0  0  0  0
    1.5007    2.8837   10.6004 C   0  0  2  0  0  3  0  0  0  0  0  0
    3.9758    5.1824   13.7595 C   0  0  0  0  0  0  0  0  0  0  0  0
    1.9905    2.9138    8.3225 C   0  0  0  0  0  0  0  0  0  0  0  0
    4.7000    2.8037   10.3606 C   0  0  0  0  0  0  0  0  0  0  0  0
    3.5741    7.0383   12.2284 C   0  0  0  0  0  0  0  0  0  0  0  0
    3.5287    7.4296   11.2256 H   0  0  0  0  0  0  0  0  0  0  0  0
    5.1909    2.9972    8.0910 C   0  0  0  0  0  0  0  0  0  0  0  0
    3.1414    7.3065    6.8851 C   0  0  0  0  0  0  0  0  0  0  0  0
    3.1900    7.5956    7.9218 H   0  0  0  0  0  0  0  0  0  0  0  0
    2.8775    5.9608    6.5561 C   0  0  0  0  0  0  0  0  0  0  0  0
    1.6756    1.5466    8.1992 C   0  0  0  0  0  0  0  0  0  0  0  0
    1.7369    1.0621    7.2393 H   0  0  0  0  0  0  0  0  0  0  0  0
    5.0060    1.4291   10.3474 C   0  0  0  0  0  0  0  0  0  0  0  0
    4.9406    0.8519   11.2542 H   0  0  0  0  0  0  0  0  0  0  0  0
    1.3395    0.8322    9.3164 C   0  0  0  0  0  0  0  0  0  0  0  0
    1.1466   -0.2283    9.2572 H   0  0  0  0  0  0  0  0  0  0  0  0
    2.7291    5.6146    5.1770 C   0  0  0  0  0  0  0  0  0  0  0  0
    1.2663    3.5982   11.7929 C   0  0  0  0  0  0  0  0  0  0  0  0
    1.3873    4.6715   11.7837 H   0  0  0  0  0  0  0  0  0  0  0  0
    5.4773    1.6054    7.9977 C   0  0  0  0  0  0  0  0  0  0  0  0
    2.1278    3.3970    5.8586 C   0  0  0  0  0  0  0  0  0  0  0  0
    1.7892    2.4004    5.6321 H   0  0  0  0  0  0  0  0  0  0  0  0
    5.8610    3.2800    5.7968 C   0  0  0  0  0  0  0  0  0  0  0  0
    6.0579    3.9192    4.9501 H   0  0  0  0  0  0  0  0  0  0  0  0
    4.3246    3.8330   13.9474 C   0  0  0  0  0  0  0  0  0  0  0  0
    4.4293    3.4456   14.9495 H   0  0  0  0  0  0  0  0  0  0  0  0
    5.3386    0.8273    9.1647 C   0  0  0  0  0  0  0  0  0  0  0  0
    5.5249   -0.2351    9.1182 H   0  0  0  0  0  0  0  0  0  0  0  0
    4.5654    3.0404   12.8603 C   0  0  0  0  0  0  0  0  0  0  0  0
    4.8983    2.0243   12.9864 H   0  0  0  0  0  0  0  0  0  0  0  0
    5.8972    1.0766    6.7616 C   0  0  0  0  0  3  0  0  0  0  0  0
    6.1001    0.0185    6.6941 H   0  0  0  0  0  0  0  0  0  0  0  0
    3.4135    7.8713   13.3029 C   0  0  0  0  0  0  0  0  0  0  0  0
    3.2258    8.9206   13.1385 H   0  0  0  0  0  0  0  0  0  0  0  0
    5.4302    3.8252    6.9754 C   0  0  0  0  0  0  0  0  0  0  0  0
    5.3149    4.8929    7.0910 H   0  0  0  0  0  0  0  0  0  0  0  0
    6.0699    1.8962    5.6797 C   0  0  0  0  0  0  0  0  0  0  0  0
    6.3972    1.4877    4.7363 H   0  0  0  0  0  0  0  0  0  0  0  0
    0.8332    2.9411   12.9120 C   0  0  0  0  0  0  0  0  0  0  0  0
    0.6403    3.4940   13.8182 H   0  0  0  0  0  0  0  0  0  0  0  0
    2.3732    4.2925    4.8558 C   0  0  0  0  0  0  0  0  0  0  0  0
    2.2666    4.0073    3.8201 H   0  0  0  0  0  0  0  0  0  0  0  0
    3.7860    6.0659   14.8394 C   0  0  0  0  0  0  0  0  0  0  0  0
    3.8895    5.6810   15.8427 H   0  0  0  0  0  0  0  0  0  0  0  0
    0.6171    1.5535   12.8915 C   0  0  0  0  0  0  0  0  0  0  0  0
    0.2884    1.0550   13.7900 H   0  0  0  0  0  0  0  0  0  0  0  0
    2.9226    6.6005    4.1903 C   0  0  0  0  0  3  0  0  0  0  0  0
    2.8166    6.3181    3.1538 H   0  0  0  0  0  0  0  0  0  0  0  0
    3.4981    7.3843   14.6163 C   0  0  0  0  0  0  0  0  0  0  0  0
    3.3558    8.0589   15.4462 H   0  0  0  0  0  0  0  0  0  0  0  0
    3.2168    7.8887    4.5435 C   0  0  0  0  0  0  0  0  0  0  0  0
    3.3612    8.6421    3.7849 H   0  0  0  0  0  0  0  0  0  0  0  0
    3.3051    8.2417    5.8988 C   0  0  0  0  0  0  0  0  0  0  0  0
    3.4979    9.2686    6.1669 H   0  0  0  0  0  0  0  0  0  0  0  0
    0.7844    0.8445   11.7332 C   0  0  0  0  0  0  0  0  0  0  0  0
    0.5757   -0.2139   11.6955 H   0  0  0  0  0  0  0  0  0  0  0  0
  1  5  1  0  0  0  0
  1  2  1  0  0  0  0
  1  7  1  0  0  0  0
  3  1  1  0  0  0  0
  4  1  1  0  0  0  0
  4 15  1  0  0  0  0
  5 12  1  0  0  0  0
  6  1  1  0  0  0  0
  7 11  1  0  0  0  0
  7  9  1  0  0  0  0
  8  6  1  0  0  0  0
  8 14  1  0  0  0  0
  9 16  1  6  0  0  0
  9 13  1  0  0  0  0
 10 66  1  0  0  0  0
 11 40  2  0  0  0  0
 12 10  1  6  0  0  0
 12 29  1  0  0  0  0
 13 36  2  0  0  0  0
 13 54  1  0  0  0  0
 14  5  1  0  0  0  0
 15 11  1  0  0  0  0
 16 44  2  0  0  0  0
 17 16  1  0  0  0  0
 18  4  1  0  0  0  0
 19 20  1  0  0  0  0
 21 19  2  0  0  0  0
 21  6  1  0  0  0  0
 22 14  2  0  0  0  0
 22 26  1  0  0  0  0
 23 22  1  0  0  0  0
 24 15  2  0  0  0  0
 24 25  1  0  0  0  0
 26 10  2  0  0  0  0
 27 26  1  0  0  0  0
 28 21  1  0  0  0  0
 29 50  2  0  0  0  0
 30 29  1  0  0  0  0
 31 18  1  0  0  0  0
 31 38  2  0  0  0  0
 32  8  2  0  0  0  0
 33 32  1  0  0  0  0
 34 46  1  0  0  0  0
 35 34  1  0  0  0  0
 36 37  1  0  0  0  0
 38 24  1  0  0  0  0
 39 38  1  0  0  0  0
 40 41  1  0  0  0  0
 40 36  1  0  0  0  0
 42 31  1  0  0  0  0
 43 42  1  0  0  0  0
 44 60  1  0  0  0  0
 45 44  1  0  0  0  0
 46 47  1  0  0  0  0
 46 18  2  0  0  0  0
 48 34  2  0  0  0  0
 48 42  1  0  0  0  0
 49 48  1  0  0  0  0
 50 51  1  0  0  0  0
 52 28  2  0  0  0  0
 52 32  1  0  0  0  0
 53 52  1  0  0  0  0
 54 55  1  0  0  0  0
 56 50  1  0  0  0  0
 56 57  1  0  0  0  0
 58 62  1  0  0  0  0
 58 28  1  0  0  0  0
 59 58  1  0  0  0  0
 60 54  2  0  0  0  0
 60 61  1  0  0  0  0
 62 64  2  0  0  0  0
 63 62  1  0  0  0  0
 64 65  1  0  0  0  0
 64 19  1  0  0  0  0
 66 56  2  0  0  0  0
 67 66  1  0  0  0  0
M  END
$$$$
