CSD_code = REKZUC | q = 0 | S = 0 | Stoichiometry = C18H37Cl2NbP2 | MND = 9
 OpenBabel04212202093D

 60 56  0  0  1  0  0  0  0  0999 V2000
    1.7648    9.2098    2.9279 Nb  0  0  0  0  0  0  0  0  0  0  0  0
    4.0349    9.4119    2.0302 Cl  0  0  0  0  0 15  0  0  0  0  0  0
    1.5800   11.4170    3.9424 Cl  0  0  0  0  0 15  0  0  0  0  0  0
    3.1143    8.9308    5.0868 P   0  0  0  0  0  0  0  0  0  0  0  0
    1.4406   10.6826    0.8426 P   0  0  0  0  0  0  0  0  0  0  0  0
    1.2727    6.8848    3.5879 C   0  0  0  0  0  0  0  0  0  0  0  0
    0.1852    7.7767    3.8197 C   0  0  0  0  0  3  0  0  0  0  0  0
   -0.2594    8.2435    2.5552 C   0  0  2  0  0  0  0  0  0  0  0  0
    0.5826    7.6393    1.5650 C   0  0  0  0  0  3  0  0  0  0  0  0
    1.5024    6.7901    2.2073 C   0  0  0  0  0  0  0  0  0  0  0  0
    2.5646    5.9656    1.5470 C   0  0  0  0  0  0  0  0  0  0  0  0
    4.4367    7.6437    4.9387 C   0  0  0  0  0  0  0  0  0  0  0  0
    5.3571    7.4332    6.1346 C   0  0  0  0  0  0  0  0  0  0  0  0
    2.1810    8.4259    6.5997 C   0  0  0  0  0  0  0  0  0  0  0  0
    1.0988    9.4444    6.9431 C   0  0  0  0  0  0  0  0  0  0  0  0
    4.0304   10.3752    5.7812 C   0  0  0  0  0  0  0  0  0  0  0  0
    5.0965   10.9368    4.8517 C   0  0  0  0  0  0  0  0  0  0  0  0
    2.3819   10.2945   -0.7044 C   0  0  0  0  0  0  0  0  0  0  0  0
    2.2803    8.8531   -1.1759 C   0  0  0  0  0  0  0  0  0  0  0  0
   -0.2928   10.8169    0.2161 C   0  0  0  0  0  0  0  0  0  0  0  0
   -1.1998   11.4828    1.2465 C   0  0  0  0  0  0  0  0  0  0  0  0
    1.8542   12.4803    0.9571 C   0  0  0  0  0  0  0  0  0  0  0  0
    3.3019   12.7677    1.3311 C   0  0  0  0  0  0  0  0  0  0  0  0
    1.7336    6.2538    4.3366 H   0  0  0  0  0  0  0  0  0  0  0  0
   -0.3794    7.8459    4.7414 H   0  0  0  0  0  0  0  0  0  0  0  0
   -1.2310    8.6820    2.3626 H   0  0  0  0  0  0  0  0  0  0  0  0
    0.3884    7.6450    0.5016 H   0  0  0  0  0  0  0  0  0  0  0  0
    2.2543    5.6674    0.5460 H   0  0  0  0  0  0  0  0  0  0  0  0
    2.7710    5.0686    2.1304 H   0  0  0  0  0  0  0  0  0  0  0  0
    3.4936    6.5354    1.4619 H   0  0  0  0  0  0  0  0  0  0  0  0
    3.9330    6.7050    4.6921 H   0  0  0  0  0  0  0  0  0  0  0  0
    5.0181    7.9355    4.0580 H   0  0  0  0  0  0  0  0  0  0  0  0
    6.0665    6.6387    5.9077 H   0  0  0  0  0  0  0  0  0  0  0  0
    4.7991    7.1383    7.0207 H   0  0  0  0  0  0  0  0  0  0  0  0
    5.9257    8.3308    6.3625 H   0  0  0  0  0  0  0  0  0  0  0  0
    1.7299    7.4510    6.3987 H   0  0  0  0  0  0  0  0  0  0  0  0
    2.8789    8.3148    7.4341 H   0  0  0  0  0  0  0  0  0  0  0  0
    0.3978    9.0303    7.6660 H   0  0  0  0  0  0  0  0  0  0  0  0
    0.5480    9.7355    6.0474 H   0  0  0  0  0  0  0  0  0  0  0  0
    1.5349   10.3439    7.3699 H   0  0  0  0  0  0  0  0  0  0  0  0
    3.2826   11.1475    5.9796 H   0  0  0  0  0  0  0  0  0  0  0  0
    4.4694   10.0580    6.7335 H   0  0  0  0  0  0  0  0  0  0  0  0
    5.5863   11.7904    5.3175 H   0  0  0  0  0  0  0  0  0  0  0  0
    4.6422   11.2694    3.9198 H   0  0  0  0  0  0  0  0  0  0  0  0
    5.8519   10.1917    4.6115 H   0  0  0  0  0  0  0  0  0  0  0  0
    2.0357   10.9846   -1.4815 H   0  0  0  0  0  0  0  0  0  0  0  0
    3.4282   10.5137   -0.4791 H   0  0  0  0  0  0  0  0  0  0  0  0
    2.9086    8.7026   -2.0524 H   0  0  0  0  0  0  0  0  0  0  0  0
    1.2578    8.5946   -1.4461 H   0  0  0  0  0  0  0  0  0  0  0  0
    2.6289    8.1865   -0.3895 H   0  0  0  0  0  0  0  0  0  0  0  0
   -0.2923   11.3754   -0.7248 H   0  0  0  0  0  0  0  0  0  0  0  0
   -0.6429    9.8031    0.0082 H   0  0  0  0  0  0  0  0  0  0  0  0
   -2.2457   11.2585    1.0437 H   0  0  0  0  0  0  0  0  0  0  0  0
   -1.0774   12.5625    1.2302 H   0  0  0  0  0  0  0  0  0  0  0  0
   -0.9542   11.1331    2.2515 H   0  0  0  0  0  0  0  0  0  0  0  0
    1.6104   12.9293   -0.0130 H   0  0  0  0  0  0  0  0  0  0  0  0
    1.2007   12.9055    1.7226 H   0  0  0  0  0  0  0  0  0  0  0  0
    3.4568   13.8421    1.4144 H   0  0  0  0  0  0  0  0  0  0  0  0
    3.9969   12.3765    0.5918 H   0  0  0  0  0  0  0  0  0  0  0  0
    3.5320   12.3146    2.2944 H   0  0  0  0  0  0  0  0  0  0  0  0
  4 16  1  0  0  0  0
  4 14  1  0  0  0  0
  5 22  1  0  0  0  0
  6  7  1  0  0  0  0
  6 24  1  0  0  0  0
  7 25  1  0  0  0  0
  8 26  1  6  0  0  0
  8  1  1  0  0  0  0
  8  7  1  0  0  0  0
  9 10  1  0  0  0  0
  9  8  1  0  0  0  0
 10  6  2  0  0  0  0
 11 29  1  0  0  0  0
 11 10  1  0  0  0  0
 12  4  1  0  0  0  0
 12 13  1  0  0  0  0
 13 35  1  0  0  0  0
 13 34  1  0  0  0  0
 14 15  1  0  0  0  0
 14 37  1  0  0  0  0
 15 40  1  0  0  0  0
 15 38  1  0  0  0  0
 16 41  1  0  0  0  0
 16 42  1  0  0  0  0
 17 43  1  0  0  0  0
 17 16  1  0  0  0  0
 18 47  1  0  0  0  0
 18  5  1  0  0  0  0
 19 18  1  0  0  0  0
 19 50  1  0  0  0  0
 20  5  1  0  0  0  0
 20 21  1  0  0  0  0
 21 55  1  0  0  0  0
 22 23  1  0  0  0  0
 22 57  1  0  0  0  0
 23 58  1  0  0  0  0
 23 60  1  0  0  0  0
 27  9  1  0  0  0  0
 28 11  1  0  0  0  0
 30 11  1  0  0  0  0
 31 12  1  0  0  0  0
 32 12  1  0  0  0  0
 33 13  1  0  0  0  0
 36 14  1  0  0  0  0
 39 15  1  0  0  0  0
 44 17  1  0  0  0  0
 45 17  1  0  0  0  0
 46 18  1  0  0  0  0
 48 19  1  0  0  0  0
 49 19  1  0  0  0  0
 51 20  1  0  0  0  0
 52 20  1  0  0  0  0
 53 21  1  0  0  0  0
 54 21  1  0  0  0  0
 56 22  1  0  0  0  0
 59 23  1  0  0  0  0
M  END
$$$$
