CSD_code = RELDAQ | q = 0 | S = 0 | Stoichiometry = C7H13ClN4OPdS | MND = 4
 OpenBabel04212202093D

 28 29  0  0  0  0  0  0  0  0999 V2000
    6.0115    6.0505   17.7625 Pd  0  0  2  0  0  0  0  0  0  0  0  0
    5.0812    6.6767   19.6878 Cl  0  0  0  0  0  0  0  0  0  0  0  0
    4.2891    5.0458   16.6029 S   0  0  0  0  0  0  0  0  0  0  0  0
    7.9971    7.4143   19.5553 O   0  0  0  0  0  0  0  0  0  0  0  0
    7.7801    6.7955   18.3542 N   0  0  0  0  0  0  0  0  0  0  0  0
    7.0643    5.6231   16.2051 N   0  0  0  0  0  0  0  0  0  0  0  0
    6.5742    5.0049   15.1382 N   0  0  0  0  0  0  0  0  0  0  0  0
    4.7348    4.0858   14.1730 N   0  0  0  0  0  0  0  0  0  0  0  0
    5.3489    3.8492   13.4076 H   0  0  0  0  0  0  0  0  0  0  0  0
    8.7266    6.6563   17.4806 C   0  0  0  0  0  0  0  0  0  0  0  0
    8.3243    5.9856   16.2614 C   0  0  0  0  0  0  0  0  0  0  0  0
    5.2891    4.6983   15.2226 C   0  0  0  0  0  0  0  0  0  0  0  0
    3.3612    3.6511   14.1000 C   0  0  0  0  0  0  0  0  0  0  0  0
    3.2460    2.6905   14.6184 H   0  0  0  0  0  0  0  0  0  0  0  0
    2.7461    4.3874   14.6248 H   0  0  0  0  0  0  0  0  0  0  0  0
    2.9257    3.5221   12.6496 C   0  0  0  0  0  0  0  0  0  0  0  0
    3.0289    4.4744   12.1353 H   0  0  0  0  0  0  0  0  0  0  0  0
    1.8849    3.2155   12.6038 H   0  0  0  0  0  0  0  0  0  0  0  0
    3.5267    2.7769   12.1324 H   0  0  0  0  0  0  0  0  0  0  0  0
    9.2483    5.7075   15.1179 C   0  0  0  0  0  0  0  0  0  0  0  0
    9.2871    4.6338   14.9361 H   0  0  0  0  0  0  0  0  0  0  0  0
   10.2486    6.0783   15.3086 H   0  0  0  0  0  0  0  0  0  0  0  0
    8.8540    6.1706   14.2138 H   0  0  0  0  0  0  0  0  0  0  0  0
   10.1192    7.1484   17.7112 C   0  0  0  0  0  0  0  0  0  0  0  0
   10.1761    7.6176   18.6901 H   0  0  0  0  0  0  0  0  0  0  0  0
   10.3950    7.8767   16.9505 H   0  0  0  0  0  0  0  0  0  0  0  0
   10.8253    6.3208   17.6714 H   0  0  0  0  0  0  0  0  0  0  0  0
    7.1032    7.3687   19.9970 H   0  0  0  0  0  0  0  0  0  0  0  0
  1  5  1  0  0  0  0
  1  2  1  6  0  0  0
  3  1  1  0  0  0  0
  4 28  1  0  0  0  0
  5  4  1  0  0  0  0
  6 11  1  0  0  0  0
  6  1  1  0  0  0  0
  7 12  2  0  0  0  0
  7  6  1  0  0  0  0
  8 12  1  0  0  0  0
  9  8  1  0  0  0  0
 10 24  1  0  0  0  0
 10  5  1  0  0  0  0
 11 10  2  0  0  0  0
 12  3  1  0  0  0  0
 13  8  1  0  0  0  0
 13 14  1  0  0  0  0
 13 15  1  0  0  0  0
 16 13  1  0  0  0  0
 17 16  1  0  0  0  0
 18 16  1  0  0  0  0
 19 16  1  0  0  0  0
 20 22  1  0  0  0  0
 20 11  1  0  0  0  0
 21 20  1  0  0  0  0
 23 20  1  0  0  0  0
 24 25  1  0  0  0  0
 26 24  1  0  0  0  0
 27 24  1  0  0  0  0
M  END
$$$$
