CSD_code = RELZAL | q = 0 | S = 0 | Stoichiometry = C21H29ClO5RuS3 | MND = 6
 OpenBabel04212202093D

 60 62  0  0  1  0  0  0  0  0999 V2000
    6.0440    1.5580    4.0051 Ru  0  0  0  0  0  0  0  0  0  0  0  0
    7.7283    1.0323    2.5663 S   0  0  0  0  0  0  0  0  0  0  0  0
    7.4992    1.5529    5.7235 S   0  0  0  0  0  0  0  0  0  0  0  0
    4.3179    2.0826    5.4820 Cl  0  0  0  0  0  0  0  0  0  0  0  0
    5.3965   -0.5840    4.2072 S   0  0  0  0  0  0  0  0  0  0  0  0
    4.7041    1.6586    2.3972 O   0  0  0  0  0  0  0  0  0  0  0  0
    8.1750    0.2674    5.8946 O   0  0  0  0  0  1  0  0  0  0  0  0
    6.0782   -1.5143    3.3133 O   0  0  0  0  0  1  0  0  0  0  0  0
    8.6361    2.1633    2.3720 O   0  0  0  0  0  1  0  0  0  0  0  0
    6.5387    3.5460    3.6869 O   0  0  0  0  0  0  0  0  0  0  0  0
    8.7407    6.6067    1.9340 C   0  0  0  0  0  0  0  0  0  0  0  0
    4.5104    4.0655    2.5048 C   0  0  0  0  0  0  0  0  0  0  0  0
    2.6923    2.6230    1.7706 C   0  0  0  0  0  0  0  0  0  0  0  0
    2.3349    1.6235    1.5715 H   0  0  0  0  0  0  0  0  0  0  0  0
    4.0134    2.7416    2.2728 C   0  0  0  0  0  0  0  0  0  0  0  0
    3.6486    5.1562    2.2965 C   0  0  0  0  0  0  0  0  0  0  0  0
    3.9919    6.1489    2.5464 H   0  0  0  0  0  0  0  0  0  0  0  0
    6.5614    5.4885    2.4294 C   0  0  0  0  0  0  0  0  0  0  0  0
    5.9668    6.2526    1.9578 H   0  0  0  0  0  0  0  0  0  0  0  0
    8.2348    7.8332    1.4929 C   0  0  0  0  0  0  0  0  0  0  0  0
    7.1736    8.0226    1.5323 H   0  0  0  0  0  0  0  0  0  0  0  0
   10.1233    6.4017    1.8802 C   0  0  0  0  0  0  0  0  0  0  0  0
   10.5247    5.4558    2.2139 H   0  0  0  0  0  0  0  0  0  0  0  0
    5.4332   -1.3059    5.8730 C   0  0  0  0  0  0  0  0  0  0  0  0
    6.4630   -1.2744    6.2149 H   0  0  0  0  0  0  0  0  0  0  0  0
    5.0769   -2.3278    5.8225 H   0  0  0  0  0  0  0  0  0  0  0  0
    4.7969   -0.6864    6.4955 H   0  0  0  0  0  0  0  0  0  0  0  0
    6.9330    2.0577    7.3779 C   0  0  0  0  0  0  0  0  0  0  0  0
    6.1922    1.3394    7.7106 H   0  0  0  0  0  0  0  0  0  0  0  0
    6.4707    3.0326    7.2780 H   0  0  0  0  0  0  0  0  0  0  0  0
    7.7837    2.0739    8.0490 H   0  0  0  0  0  0  0  0  0  0  0  0
    2.3596    4.9937    1.8585 C   0  0  0  0  0  0  0  0  0  0  0  0
    1.7121    5.8489    1.7404 H   0  0  0  0  0  0  0  0  0  0  0  0
    7.1452    0.5217    0.9253 C   0  0  0  0  0  0  0  0  0  0  0  0
    6.4996    1.3085    0.5491 H   0  0  0  0  0  0  0  0  0  0  0  0
    6.5797   -0.3910    1.0744 H   0  0  0  0  0  0  0  0  0  0  0  0
    7.9961    0.3735    0.2709 H   0  0  0  0  0  0  0  0  0  0  0  0
    9.0823    8.8126    1.0148 C   0  0  0  0  0  0  0  0  0  0  0  0
    8.6771    9.7560    0.6792 H   0  0  0  0  0  0  0  0  0  0  0  0
    1.8880    3.7111    1.5745 C   0  0  0  0  0  0  0  0  0  0  0  0
    0.8781    3.5765    1.2147 H   0  0  0  0  0  0  0  0  0  0  0  0
    8.8060   -0.3903    2.8999 C   0  0  0  0  0  0  0  0  0  0  0  0
    9.1545   -0.3110    3.9246 H   0  0  0  0  0  0  0  0  0  0  0  0
    9.6353   -0.3438    2.2041 H   0  0  0  0  0  0  0  0  0  0  0  0
    8.2160   -1.2897    2.7811 H   0  0  0  0  0  0  0  0  0  0  0  0
   10.9673    7.3823    1.3982 C   0  0  0  0  0  0  0  0  0  0  0  0
   12.0325    7.2067    1.3606 H   0  0  0  0  0  0  0  0  0  0  0  0
    5.8772    4.3011    2.9391 C   0  0  2  0  0  3  0  0  0  0  0  0
    3.6229   -0.7772    3.8868 C   0  0  0  0  0  0  0  0  0  0  0  0
    3.4586   -0.4306    2.8715 H   0  0  0  0  0  0  0  0  0  0  0  0
    3.0953   -0.1405    4.5888 H   0  0  0  0  0  0  0  0  0  0  0  0
    3.3543   -1.8218    3.9902 H   0  0  0  0  0  0  0  0  0  0  0  0
    7.9046    5.5456    2.4509 C   0  0  0  0  0  0  0  0  0  0  0  0
    8.4288    4.6894    2.8591 H   0  0  0  0  0  0  0  0  0  0  0  0
   10.4499    8.5923    0.9642 C   0  0  0  0  0  0  0  0  0  0  0  0
   11.1087    9.3613    0.5890 H   0  0  0  0  0  0  0  0  0  0  0  0
    8.8049    2.8004    5.5308 C   0  0  0  0  0  0  0  0  0  0  0  0
    9.2000    2.6985    4.5234 H   0  0  0  0  0  0  0  0  0  0  0  0
    9.5755    2.6164    6.2703 H   0  0  0  0  0  0  0  0  0  0  0  0
    8.3488    3.7758    5.6522 H   0  0  0  0  0  0  0  0  0  0  0  0
  1  5  1  0  0  0  0
  1  4  1  0  0  0  0
  1  3  1  0  0  0  0
  2 42  1  0  0  0  0
  2  1  1  0  0  0  0
  3  7  1  0  0  0  0
  3 28  1  0  0  0  0
  5 24  1  0  0  0  0
  6  1  1  0  0  0  0
  8  5  1  0  0  0  0
  9  2  1  0  0  0  0
 10  1  1  0  0  0  0
 11 53  1  0  0  0  0
 12 48  1  0  0  0  0
 13 15  1  0  0  0  0
 14 13  1  0  0  0  0
 15  6  1  0  0  0  0
 15 12  2  0  0  0  0
 16 12  1  0  0  0  0
 16 17  1  0  0  0  0
 18 53  2  0  0  0  0
 19 18  1  0  0  0  0
 20 21  1  0  0  0  0
 20 11  2  0  0  0  0
 22 11  1  0  0  0  0
 22 23  1  0  0  0  0
 24 25  1  0  0  0  0
 24 27  1  0  0  0  0
 26 24  1  0  0  0  0
 28 29  1  0  0  0  0
 28 31  1  0  0  0  0
 30 28  1  0  0  0  0
 32 16  2  0  0  0  0
 33 32  1  0  0  0  0
 34 36  1  0  0  0  0
 34  2  1  0  0  0  0
 35 34  1  0  0  0  0
 37 34  1  0  0  0  0
 38 20  1  0  0  0  0
 39 38  1  0  0  0  0
 40 13  2  0  0  0  0
 40 32  1  0  0  0  0
 41 40  1  0  0  0  0
 42 43  1  0  0  0  0
 44 42  1  0  0  0  0
 45 42  1  0  0  0  0
 46 22  2  0  0  0  0
 47 46  1  0  0  0  0
 48 18  1  6  0  0  0
 48 10  1  0  0  0  0
 49 52  1  0  0  0  0
 49  5  1  0  0  0  0
 49 51  1  0  0  0  0
 50 49  1  0  0  0  0
 53 54  1  0  0  0  0
 55 38  2  0  0  0  0
 55 46  1  0  0  0  0
 56 55  1  0  0  0  0
 57 60  1  0  0  0  0
 57  3  1  0  0  0  0
 57 59  1  0  0  0  0
 58 57  1  0  0  0  0
M  END
$$$$
