CSD_code = RENDAQ | q = 1 | S = 0 | Stoichiometry = C20H20ClCoN5O(1+) | MND = 6
 OpenBabel04212202093D

 48 54  0  0  1  0  0  0  0  0999 V2000
    4.3327   16.7395    6.0051 Co  0  0  0  0  0  0  0  0  0  0  0  0
    3.5064   16.1075    4.0568 Cl  0  0  0  0  0  0  0  0  0  0  0  0
    6.4244   16.5507    9.3084 O   0  0  0  0  0  0  0  0  0  0  0  0
    4.0624   18.6140    5.7564 N   0  0  0  0  0  0  0  0  0  0  0  0
    5.0616   17.2420    7.6254 N   0  0  0  0  0  0  0  0  0  0  0  0
    4.7356   14.9062    6.5352 N   0  0  2  0  0  4  0  0  0  0  0  0
    6.1020   16.7424    5.2481 N   0  0  0  0  0  0  0  0  0  0  0  0
    2.6346   16.4164    6.8259 N   0  0  0  0  0  0  0  0  0  0  0  0
    3.4448   19.2048    4.7301 C   0  0  0  0  0  3  0  0  0  0  0  0
    3.0617   18.5522    3.9579 H   0  0  0  0  0  0  0  0  0  0  0  0
    3.2966   20.5752    4.6386 C   0  0  0  0  0  0  0  0  0  0  0  0
    2.7916   21.0029    3.7883 H   0  0  0  0  0  0  0  0  0  0  0  0
    3.8064   21.3752    5.6521 C   0  0  0  0  0  0  0  0  0  0  0  0
    3.7080   22.4486    5.6122 H   0  0  0  0  0  0  0  0  0  0  0  0
    4.4434   20.7647    6.7177 C   0  0  0  0  0  0  0  0  0  0  0  0
    4.8538   21.3435    7.5299 H   0  0  0  0  0  0  0  0  0  0  0  0
    4.5594   19.3804    6.7461 C   0  0  0  0  0  0  0  0  0  0  0  0
    5.2327   18.6535    7.8646 C   0  0  0  0  0  0  0  0  0  0  0  0
    6.2992   18.9190    7.9160 H   0  0  0  0  0  0  0  0  0  0  0  0
    4.7903   18.9371    8.8296 H   0  0  0  0  0  0  0  0  0  0  0  0
    5.6937   16.3371    8.3625 C   0  0  0  0  0  0  0  0  0  0  0  0
    5.3255   14.9132    7.8944 C   0  0  0  0  0  0  0  0  0  0  0  0
    6.2172   14.2845    7.9480 H   0  0  0  0  0  0  0  0  0  0  0  0
    4.6047   14.5319    8.6216 H   0  0  0  0  0  0  0  0  0  0  0  0
    5.6959   14.3983    5.5482 C   0  0  0  0  0  0  0  0  0  0  0  0
    5.1517   14.1239    4.6365 H   0  0  0  0  0  0  0  0  0  0  0  0
    6.2347   13.5173    5.9129 H   0  0  0  0  0  0  0  0  0  0  0  0
    6.6277   15.5111    5.1766 C   0  0  1  0  0  3  0  0  0  0  0  0
    7.9218   15.2844    4.7336 C   0  0  0  0  0  0  0  0  0  0  0  0
    8.3039   14.2767    4.6946 H   0  0  0  0  0  0  0  0  0  0  0  0
    8.7022   16.3586    4.3433 C   0  0  0  0  0  0  0  0  0  0  0  0
    9.7126   16.2092    3.9971 H   0  0  0  0  0  0  0  0  0  0  0  0
    8.1497   17.6282    4.4065 C   0  0  0  0  0  0  0  0  0  0  0  0
    8.7114   18.4974    4.1063 H   0  0  0  0  0  0  0  0  0  0  0  0
    6.8536   17.7735    4.8654 C   0  0  0  0  0  0  0  0  0  0  0  0
    6.4098   18.7567    4.9169 H   0  0  0  0  0  0  0  0  0  0  0  0
    3.4575   14.1818    6.5217 C   0  0  0  0  0  0  0  0  0  0  0  0
    3.5044   13.2548    7.1029 H   0  0  0  0  0  0  0  0  0  0  0  0
    3.2007   13.9335    5.4852 H   0  0  0  0  0  0  0  0  0  0  0  0
    2.3946   15.1120    7.0256 C   0  0  2  0  0  3  0  0  0  0  0  0
    1.2233   14.6592    7.6133 C   0  0  0  0  0  0  0  0  0  0  0  0
    1.0702   13.6007    7.7516 H   0  0  0  0  0  0  0  0  0  0  0  0
    0.2644   15.5764    8.0079 C   0  0  0  0  0  0  0  0  0  0  0  0
   -0.6563   15.2490    8.4642 H   0  0  0  0  0  0  0  0  0  0  0  0
    0.5200   16.9232    7.8028 C   0  0  0  0  0  0  0  0  0  0  0  0
   -0.1933   17.6772    8.0926 H   0  0  0  0  0  0  0  0  0  0  0  0
    1.7139   17.2971    7.2141 C   0  0  0  0  0  0  0  0  0  0  0  0
    1.9282   18.3424    7.0475 H   0  0  0  0  0  0  0  0  0  0  0  0
  1  6  1  0  0  0  0
  1  8  1  0  0  0  0
  1  5  1  0  0  0  0
  2  1  1  0  0  0  0
  4  1  1  0  0  0  0
  4 17  1  0  0  0  0
  5 18  1  0  0  0  0
  5 21  1  0  0  0  0
  6 25  1  6  0  0  0
  6 22  1  0  0  0  0
  7  1  1  0  0  0  0
  8 40  1  0  0  0  0
  8 47  1  0  0  0  0
  9  4  1  0  0  0  0
 10  9  1  0  0  0  0
 11  9  1  0  0  0  0
 11 13  2  0  0  0  0
 12 11  1  0  0  0  0
 13 15  1  0  0  0  0
 14 13  1  0  0  0  0
 15 17  2  0  0  0  0
 15 16  1  0  0  0  0
 17 18  1  0  0  0  0
 18 19  1  0  0  0  0
 18 20  1  0  0  0  0
 21  3  2  0  0  0  0
 22 23  1  0  0  0  0
 22 21  1  0  0  0  0
 22 24  1  0  0  0  0
 25 27  1  0  0  0  0
 26 25  1  0  0  0  0
 28 29  1  6  0  0  0
 28  7  1  0  0  0  0
 28 25  1  0  0  0  0
 30 29  1  0  0  0  0
 31 33  1  0  0  0  0
 31 29  2  0  0  0  0
 32 31  1  0  0  0  0
 33 35  2  0  0  0  0
 34 33  1  0  0  0  0
 35 36  1  0  0  0  0
 35  7  1  0  0  0  0
 37  6  1  0  0  0  0
 37 40  1  0  0  0  0
 37 38  1  0  0  0  0
 39 37  1  0  0  0  0
 40 41  1  6  0  0  0
 41 42  1  0  0  0  0
 41 43  2  0  0  0  0
 43 44  1  0  0  0  0
 45 43  1  0  0  0  0
 45 46  1  0  0  0  0
 47 45  2  0  0  0  0
 48 47  1  0  0  0  0
M  END
$$$$
