CSD_code = RENGIB | q = 0 | S = 0 | Stoichiometry = C17H22Cl2Zr | MND = 12
 OpenBabel04212202093D

 42 43  0  0  1  0  0  0  0  0999 V2000
    3.4624    4.1956    2.4793 Zr  0  0  0  0  0  0  0  0  0  0  0  0
    4.3048    2.6344    0.9586 Cl  0  0  0  0  0  0  0  0  0  0  0  0
    2.8240    2.4157    3.8800 Cl  0  0  0  0  0  0  0  0  0  0  0  0
    2.1056    6.1237    1.7766 C   0  0  0  0  0  3  0  0  0  0  0  0
    2.4479    7.1479    1.6971 H   0  0  0  0  0  0  0  0  0  0  0  0
    1.4227    5.5822    2.8934 C   0  0  0  0  0  0  0  0  0  0  0  0
    1.1820    6.1088    3.8091 H   0  0  0  0  0  0  0  0  0  0  0  0
    0.9384    4.3106    2.5275 C   0  0  0  0  0  0  0  0  0  0  0  0
    0.2967    3.6787    3.1285 H   0  0  0  0  0  0  0  0  0  0  0  0
    1.3485    4.0444    1.2025 C   0  0  0  0  0  3  0  0  0  0  0  0
    1.0662    3.1687    0.6308 H   0  0  0  0  0  0  0  0  0  0  0  0
    2.0669    5.1731    0.7207 C   0  0  2  0  0  0  0  0  0  0  0  0
    2.5649    5.4224   -0.6905 C   0  0  0  0  0  0  0  0  0  0  0  0
    2.3740    4.1822   -1.5684 C   0  0  0  0  0  0  0  0  0  0  0  0
    1.3196    3.9316   -1.6557 H   0  0  0  0  0  0  0  0  0  0  0  0
    2.9116    3.3324   -1.1521 H   0  0  0  0  0  0  0  0  0  0  0  0
    2.7583    4.3748   -2.5676 H   0  0  0  0  0  0  0  0  0  0  0  0
    1.7729    6.5925   -1.2951 C   0  0  0  0  0  0  0  0  0  0  0  0
    1.9254    7.5045   -0.7236 H   0  0  0  0  0  0  0  0  0  0  0  0
    0.7098    6.3649   -1.2961 H   0  0  0  0  0  0  0  0  0  0  0  0
    2.0894    6.7715   -2.3200 H   0  0  0  0  0  0  0  0  0  0  0  0
    4.0603    5.7775   -0.6494 C   0  0  0  0  0  0  0  0  0  0  0  0
    4.2280    6.6946   -0.0858 H   0  0  0  0  0  0  0  0  0  0  0  0
    4.4308    5.9351   -1.6609 H   0  0  0  0  0  0  0  0  0  0  0  0
    4.6272    4.9565   -0.1984 H   0  0  0  0  0  0  0  0  0  0  0  0
    5.8098    4.9709    2.4886 C   0  0  0  0  0  0  0  0  0  0  0  0
    6.5050    4.8242    1.6691 H   0  0  0  0  0  0  0  0  0  0  0  0
    5.0530    6.1403    2.7421 C   0  0  0  0  0  0  0  0  0  0  0  0
    5.1047    7.0586    2.1716 H   0  0  0  0  0  0  0  0  0  0  0  0
    4.4084    5.9820    3.9894 C   0  0  0  0  0  0  0  0  0  0  0  0
    3.8576    6.7499    4.5185 H   0  0  0  0  0  0  0  0  0  0  0  0
    4.7629    4.7174    4.5084 C   0  0  0  0  0  0  0  0  0  0  0  0
    4.5060    4.3311    5.4879 H   0  0  0  0  0  0  0  0  0  0  0  0
    5.6312    4.0864    3.5806 C   0  0  1  0  0  0  0  0  0  0  0  0
    6.2763    2.7343    3.7610 C   0  0  0  0  0  0  0  0  0  0  0  0
    5.5062    1.9608    3.8757 H   0  0  0  0  0  0  0  0  0  0  0  0
    6.8750    2.5011    2.8737 H   0  0  0  0  0  0  0  0  0  0  0  0
    7.1544    2.7439    4.9793 C   0  0  0  0  0  0  0  0  0  0  0  0
    7.9950    3.4249    4.9366 H   0  0  0  0  0  0  0  0  0  0  0  0
    6.9287    2.0163    6.0562 C   0  0  0  0  0  0  0  0  0  0  0  0
    6.0893    1.3422    6.1147 H   0  0  0  0  0  0  0  0  0  0  0  0
    7.5703    2.0575    6.9200 H   0  0  0  0  0  0  0  0  0  0  0  0
  1 34  1  0  0  0  0
  1  3  1  0  0  0  0
  2  1  1  0  0  0  0
  4  6  1  0  0  0  0
  5  4  1  0  0  0  0
  6  7  1  0  0  0  0
  8  6  2  0  0  0  0
  8  9  1  0  0  0  0
 10  8  1  0  0  0  0
 11 10  1  0  0  0  0
 12 13  1  6  0  0  0
 12 10  1  0  0  0  0
 12  4  1  0  0  0  0
 12  1  1  0  0  0  0
 13 22  1  0  0  0  0
 14 16  1  0  0  0  0
 14 13  1  0  0  0  0
 15 14  1  0  0  0  0
 17 14  1  0  0  0  0
 18 19  1  0  0  0  0
 18 13  1  0  0  0  0
 20 18  1  0  0  0  0
 21 18  1  0  0  0  0
 22 25  1  0  0  0  0
 22 23  1  0  0  0  0
 24 22  1  0  0  0  0
 26 28  2  0  0  0  0
 26 34  1  0  0  0  0
 27 26  1  0  0  0  0
 28 30  1  0  0  0  0
 29 28  1  0  0  0  0
 30 32  2  0  0  0  0
 30 31  1  0  0  0  0
 32 33  1  0  0  0  0
 34 35  1  1  0  0  0
 34 32  1  0  0  0  0
 35 36  1  0  0  0  0
 35 38  1  0  0  0  0
 37 35  1  0  0  0  0
 38 40  2  0  0  0  0
 39 38  1  0  0  0  0
 40 41  1  0  0  0  0
 40 42  1  0  0  0  0
M  END
$$$$
