CSD_code = REPFID | q = 0 | S = 0 | Stoichiometry = C20H34Br2CdN6O2 | MND = 6
 OpenBabel04212202093D

 65 66  0  0  0  0  0  0  0  0999 V2000
    5.8279    8.5620    3.6219 Cd  0  0  0  0  0  0  0  0  0  0  0  0
    5.9458   10.0060    1.5576 Br  0  0  0  0  0  0  0  0  0  0  0  0
    2.8270    5.4685    3.4206 N   0  0  0  0  0  0  0  0  0  0  0  0
    4.0962    7.1041    4.5444 N   0  0  0  0  0  0  0  0  0  0  0  0
    3.9787    7.3835    6.7986 N   0  0  0  0  0  0  0  0  0  0  0  0
    4.6158    8.1756    6.6916 H   0  0  0  0  0  0  0  0  0  0  0  0
    3.5812    7.1794    7.6978 H   0  0  0  0  0  0  0  0  0  0  0  0
    4.3022    6.8200    2.3359 O   0  0  0  0  0  0  0  0  0  0  0  0
    3.7820    6.4954    3.3928 C   0  0  0  0  0  0  0  0  0  0  0  0
    3.5804    6.7402    5.7101 C   0  0  0  0  0  0  0  0  0  0  0  0
    2.6238    5.6761    5.7630 C   0  0  0  0  0  0  0  0  0  0  0  0
    2.1873    5.3718    6.6981 H   0  0  0  0  0  0  0  0  0  0  0  0
    2.2816    5.0871    4.5937 C   0  0  0  0  0  3  0  0  0  0  0  0
    1.5545    4.2883    4.5420 H   0  0  0  0  0  0  0  0  0  0  0  0
    2.4640    4.8180    2.1771 C   0  0  0  0  0  0  0  0  0  0  0  0
    2.7232    5.5113    1.3735 H   0  0  0  0  0  0  0  0  0  0  0  0
    1.3840    4.6467    2.1771 H   0  0  0  0  0  0  0  0  0  0  0  0
    3.2105    3.4967    1.9797 C   0  0  0  0  0  0  0  0  0  0  0  0
    3.0165    2.8367    2.8300 H   0  0  0  0  0  0  0  0  0  0  0  0
    2.8135    3.0130    1.0853 H   0  0  0  0  0  0  0  0  0  0  0  0
    4.7146    3.7053    1.8210 C   0  0  0  0  0  0  0  0  0  0  0  0
    5.1096    4.2070    2.7079 H   0  0  0  0  0  0  0  0  0  0  0  0
    4.8979    4.3669    0.9724 H   0  0  0  0  0  0  0  0  0  0  0  0
    5.4581    2.3884    1.6200 C   0  0  0  0  0  0  0  0  0  0  0  0
    5.0714    1.8826    0.7323 H   0  0  0  0  0  0  0  0  0  0  0  0
    5.2760    1.7356    2.4773 H   0  0  0  0  0  0  0  0  0  0  0  0
    6.9601    2.6096    1.4634 C   0  0  0  0  0  0  0  0  0  0  0  0
    7.1423    3.2245    0.5792 H   0  0  0  0  0  0  0  0  0  0  0  0
    7.3298    3.1653    2.3277 H   0  0  0  0  0  0  0  0  0  0  0  0
    7.7240    1.2974    1.3383 C   0  0  0  0  0  0  0  0  0  0  0  0
    7.3760    0.7348    0.4751 H   0  0  0  0  0  0  0  0  0  0  0  0
    7.5794    0.6830    2.2248 H   0  0  0  0  0  0  0  0  0  0  0  0
    8.7893    1.4821    1.2188 H   0  0  0  0  0  0  0  0  0  0  0  0
    5.7099   10.0061    5.6864 Br  0  0  0  0  0  0  0  0  0  0  0  0
    8.8288    5.4684    3.8231 N   0  0  0  0  0  0  0  0  0  0  0  0
    7.5594    7.1040    2.6994 N   0  0  0  0  0  0  0  0  0  0  0  0
    7.6767    7.3833    0.4452 N   0  0  0  0  0  0  0  0  0  0  0  0
    7.0396    8.1754    0.5522 H   0  0  0  0  0  0  0  0  0  0  0  0
    8.0741    7.1792   -0.4541 H   0  0  0  0  0  0  0  0  0  0  0  0
    7.3537    6.8200    4.9079 O   0  0  0  0  0  0  0  0  0  0  0  0
    7.8738    6.4953    3.8510 C   0  0  0  0  0  0  0  0  0  0  0  0
    8.0752    6.7401    1.5336 C   0  0  0  0  0  0  0  0  0  0  0  0
    9.0318    5.6760    1.4807 C   0  0  0  0  0  0  0  0  0  0  0  0
    9.4682    5.3717    0.5455 H   0  0  0  0  0  0  0  0  0  0  0  0
    9.3740    5.0870    2.6500 C   0  0  0  0  0  3  0  0  0  0  0  0
   10.1012    4.2882    2.7016 H   0  0  0  0  0  0  0  0  0  0  0  0
    9.1918    4.8179    5.0666 C   0  0  0  0  0  0  0  0  0  0  0  0
    8.9327    5.5112    5.8702 H   0  0  0  0  0  0  0  0  0  0  0  0
   10.2718    4.6466    5.0665 H   0  0  0  0  0  0  0  0  0  0  0  0
    8.4453    3.4966    5.2640 C   0  0  0  0  0  0  0  0  0  0  0  0
    8.6392    2.8366    4.4137 H   0  0  0  0  0  0  0  0  0  0  0  0
    8.8423    3.0129    6.1584 H   0  0  0  0  0  0  0  0  0  0  0  0
    6.9412    3.7052    5.4228 C   0  0  0  0  0  0  0  0  0  0  0  0
    6.5462    4.2069    4.5359 H   0  0  0  0  0  0  0  0  0  0  0  0
    6.7579    4.3669    6.2714 H   0  0  0  0  0  0  0  0  0  0  0  0
    6.1977    2.3884    5.6238 C   0  0  0  0  0  0  0  0  0  0  0  0
    6.5843    1.8827    6.5116 H   0  0  0  0  0  0  0  0  0  0  0  0
    6.3797    1.7355    4.7665 H   0  0  0  0  0  0  0  0  0  0  0  0
    4.6957    2.6096    5.7803 C   0  0  0  0  0  0  0  0  0  0  0  0
    4.5135    3.2246    6.6645 H   0  0  0  0  0  0  0  0  0  0  0  0
    4.3260    3.1653    4.9160 H   0  0  0  0  0  0  0  0  0  0  0  0
    3.9318    1.2974    5.9055 C   0  0  0  0  0  0  0  0  0  0  0  0
    4.2797    0.7349    6.7687 H   0  0  0  0  0  0  0  0  0  0  0  0
    4.0764    0.6829    5.0190 H   0  0  0  0  0  0  0  0  0  0  0  0
    2.8664    1.4822    6.0250 H   0  0  0  0  0  0  0  0  0  0  0  0
  1  4  1  0  0  0  0
  1 34  1  0  0  0  0
  2  1  1  0  0  0  0
  3 13  1  0  0  0  0
  4 10  1  0  0  0  0
  5  7  1  0  0  0  0
  6  5  1  0  0  0  0
  8  9  2  0  0  0  0
  9  3  1  0  0  0  0
  9  4  1  0  0  0  0
 10 11  2  0  0  0  0
 10  5  1  0  0  0  0
 11 12  1  0  0  0  0
 13 11  1  0  0  0  0
 14 13  1  0  0  0  0
 15  3  1  0  0  0  0
 16 15  1  0  0  0  0
 17 15  1  0  0  0  0
 18 15  1  0  0  0  0
 18 19  1  0  0  0  0
 20 18  1  0  0  0  0
 21 18  1  0  0  0  0
 21 22  1  0  0  0  0
 23 21  1  0  0  0  0
 24 21  1  0  0  0  0
 24 26  1  0  0  0  0
 25 24  1  0  0  0  0
 27 24  1  0  0  0  0
 27 29  1  0  0  0  0
 28 27  1  0  0  0  0
 30 27  1  0  0  0  0
 30 32  1  0  0  0  0
 31 30  1  0  0  0  0
 33 30  1  0  0  0  0
 35 41  1  0  0  0  0
 35 47  1  0  0  0  0
 36  1  1  0  0  0  0
 36 41  1  0  0  0  0
 37 38  1  0  0  0  0
 37 42  1  0  0  0  0
 39 37  1  0  0  0  0
 41 40  2  0  0  0  0
 42 36  1  0  0  0  0
 43 42  2  0  0  0  0
 43 45  1  0  0  0  0
 44 43  1  0  0  0  0
 45 46  1  0  0  0  0
 45 35  1  0  0  0  0
 47 50  1  0  0  0  0
 47 48  1  0  0  0  0
 49 47  1  0  0  0  0
 50 53  1  0  0  0  0
 50 52  1  0  0  0  0
 51 50  1  0  0  0  0
 53 56  1  0  0  0  0
 53 55  1  0  0  0  0
 54 53  1  0  0  0  0
 56 59  1  0  0  0  0
 56 57  1  0  0  0  0
 58 56  1  0  0  0  0
 59 62  1  0  0  0  0
 59 60  1  0  0  0  0
 61 59  1  0  0  0  0
 62 65  1  0  0  0  0
 62 63  1  0  0  0  0
 64 62  1  0  0  0  0
M  END
$$$$
