CSD_code = REPMUX | q = 0 | S = 0 | Stoichiometry = C27H23ClN2OPRh | MND = 4
 OpenBabel04212202093D

 56 60  0  0  0  0  0  0  0  0999 V2000
    6.2672    1.1856    3.7092 Rh  0  0  2  0  0  0  0  0  0  0  0  0
    7.8760   -0.3912    4.3245 Cl  0  0  0  0  0  0  0  0  0  0  0  0
    5.4058    2.8025    2.4005 P   0  0  0  0  0  4  0  0  0  0  0  0
    5.1973   -0.9957    1.9878 O   0  0  0  0  0  1  0  0  0  0  0  0
    7.0343    2.5141    4.9533 N   0  0  0  0  0  0  0  0  0  0  0  0
    4.4090    2.5603    6.1573 N   0  0  0  0  0  0  0  0  0  0  0  0
    7.2893    3.7619    4.8327 C   0  0  0  0  0  3  0  0  0  0  0  0
    7.2956    1.9397    6.2585 C   0  0  0  0  0  0  0  0  0  0  0  0
    7.4450    2.7385    6.9955 H   0  0  0  0  0  0  0  0  0  0  0  0
    8.2157    1.3477    6.1771 H   0  0  0  0  0  0  0  0  0  0  0  0
    6.1660    0.9954    6.7192 C   0  0  0  0  0  0  0  0  0  0  0  0
    6.0375    1.1110    7.7981 H   0  0  0  0  0  0  0  0  0  0  0  0
    6.4415   -0.0390    6.5081 H   0  0  0  0  0  0  0  0  0  0  0  0
    5.6017   -0.1417    2.6370 C   0  0  0  0  0  2  0  0  0  0  0  0
    6.2576    4.3985    2.6049 C   0  0  0  0  0  0  0  0  0  0  0  0
    6.0845    5.3774    1.6303 C   0  0  0  0  0  0  0  0  0  0  0  0
    5.4307    5.1728    0.7938 H   0  0  0  0  0  0  0  0  0  0  0  0
    6.7359    6.5922    1.7126 C   0  0  0  0  0  0  0  0  0  0  0  0
    6.5958    7.3358    0.9424 H   0  0  0  0  0  0  0  0  0  0  0  0
    7.5711    6.8482    2.7911 C   0  0  0  0  0  0  0  0  0  0  0  0
    8.0874    7.7935    2.8653 H   0  0  0  0  0  0  0  0  0  0  0  0
    7.7327    5.8964    3.7745 C   0  0  0  0  0  0  0  0  0  0  0  0
    8.3757    6.1067    4.6176 H   0  0  0  0  0  0  0  0  0  0  0  0
    7.0918    4.6508    3.7044 C   0  0  0  0  0  0  0  0  0  0  0  0
    5.8426    2.4788    0.6534 C   0  0  0  0  0  0  0  0  0  0  0  0
    7.0831    1.8790    0.4481 C   0  0  0  0  0  0  0  0  0  0  0  0
    7.6826    1.6026    1.3136 H   0  0  0  0  0  0  0  0  0  0  0  0
    7.5341    1.6248   -0.8324 C   0  0  0  0  0  0  0  0  0  0  0  0
    8.4950    1.1559   -0.9835 H   0  0  0  0  0  0  0  0  0  0  0  0
    6.7464    1.9647   -1.9214 C   0  0  0  0  0  0  0  0  0  0  0  0
    7.0926    1.7613   -2.9239 H   0  0  0  0  0  0  0  0  0  0  0  0
    5.5121    2.5598   -1.7236 C   0  0  0  0  0  0  0  0  0  0  0  0
    4.8957    2.8214   -2.5716 H   0  0  0  0  0  0  0  0  0  0  0  0
    5.0591    2.8225   -0.4418 C   0  0  0  0  0  0  0  0  0  0  0  0
    4.0903    3.2813   -0.2980 H   0  0  0  0  0  0  0  0  0  0  0  0
    3.6533    3.2758    2.2852 C   0  0  0  0  0  0  0  0  0  0  0  0
    3.1488    4.4816    2.7556 C   0  0  0  0  0  0  0  0  0  0  0  0
    3.8199    5.2246    3.1632 H   0  0  0  0  0  0  0  0  0  0  0  0
    1.7884    4.7305    2.6974 C   0  0  0  0  0  0  0  0  0  0  0  0
    1.4003    5.6720    3.0583 H   0  0  0  0  0  0  0  0  0  0  0  0
    0.9253    3.7787    2.1814 C   0  0  0  0  0  0  0  0  0  0  0  0
   -0.1351    3.9787    2.1354 H   0  0  0  0  0  0  0  0  0  0  0  0
    1.4214    2.5635    1.7326 C   0  0  0  0  0  0  0  0  0  0  0  0
    0.7477    1.8160    1.3398 H   0  0  0  0  0  0  0  0  0  0  0  0
    2.7769    2.3088    1.7946 C   0  0  0  0  0  0  0  0  0  0  0  0
    3.1772    1.3601    1.4589 H   0  0  0  0  0  0  0  0  0  0  0  0
    4.8547    1.3097    6.0439 C   0  0  0  0  0  0  0  0  0  0  0  0
    4.0922    0.3027    5.4317 C   0  0  0  0  0  0  0  0  0  0  0  0
    4.4505   -0.7185    5.4102 H   0  0  0  0  0  0  0  0  0  0  0  0
    2.8406    0.6302    4.9333 C   0  0  0  0  0  0  0  0  0  0  0  0
    2.2211   -0.1238    4.4694 H   0  0  0  0  0  0  0  0  0  0  0  0
    2.3863    1.9358    5.0591 C   0  0  0  0  0  0  0  0  0  0  0  0
    1.4136    2.2265    4.6953 H   0  0  0  0  0  0  0  0  0  0  0  0
    3.2160    2.8585    5.6716 C   0  0  0  0  0  0  0  0  0  0  0  0
    2.9105    3.8898    5.7968 H   0  0  0  0  0  0  0  0  0  0  0  0
    7.7055    4.2818    5.7017 H   0  0  0  0  0  0  0  0  0  0  0  0
  1  2  1  6  0  0  0
  1  5  1  0  0  0  0
  3 15  1  0  0  0  0
  3  1  1  0  0  0  0
  4 14  1  0  0  0  0
  5  8  1  0  0  0  0
  7  5  1  0  0  0  0
  7 56  1  0  0  0  0
  8 11  1  0  0  0  0
  8  9  1  0  0  0  0
 10  8  1  0  0  0  0
 11 12  1  0  0  0  0
 13 11  1  0  0  0  0
 14  1  1  0  0  0  0
 15 24  1  0  0  0  0
 16 18  1  0  0  0  0
 16 15  2  0  0  0  0
 17 16  1  0  0  0  0
 18 20  2  0  0  0  0
 19 18  1  0  0  0  0
 20 21  1  0  0  0  0
 20 22  1  0  0  0  0
 22 23  1  0  0  0  0
 24 22  2  0  0  0  0
 24  7  1  0  0  0  0
 25  3  1  0  0  0  0
 26 25  1  0  0  0  0
 26 27  1  0  0  0  0
 28 26  2  0  0  0  0
 29 28  1  0  0  0  0
 30 32  2  0  0  0  0
 30 28  1  0  0  0  0
 31 30  1  0  0  0  0
 32 34  1  0  0  0  0
 33 32  1  0  0  0  0
 34 35  1  0  0  0  0
 34 25  2  0  0  0  0
 36  3  1  0  0  0  0
 36 37  1  0  0  0  0
 37 38  1  0  0  0  0
 39 37  2  0  0  0  0
 39 40  1  0  0  0  0
 41 39  1  0  0  0  0
 42 41  1  0  0  0  0
 43 45  1  0  0  0  0
 43 41  2  0  0  0  0
 44 43  1  0  0  0  0
 45 36  2  0  0  0  0
 46 45  1  0  0  0  0
 47  6  1  0  0  0  0
 47 11  1  0  0  0  0
 48 47  2  0  0  0  0
 49 48  1  0  0  0  0
 50 52  2  0  0  0  0
 50 48  1  0  0  0  0
 51 50  1  0  0  0  0
 52 54  1  0  0  0  0
 53 52  1  0  0  0  0
 54 55  1  0  0  0  0
 54  6  2  0  0  0  0
M  END
$$$$
