CSD_code = REPQEJ | q = 0 | S = 0 | Stoichiometry = C12H6Cl4N2Pd | MND = 4
 OpenBabel04212202093D

 25 28  0  0  0  0  0  0  0  0999 V2000
    9.2705    5.3856   10.4499 Pd  0  0  0  0  0  0  0  0  0  0  0  0
    7.4458    6.0763    9.4203 Cl  0  0  0  0  0  0  0  0  0  0  0  0
   10.0881    4.6568    8.5347 Cl  0  0  0  0  0  0  0  0  0  0  0  0
   14.1807    3.7298   14.4019 Cl  0  0  0  0  0  0  0  0  0  0  0  0
    7.7886    7.1563   16.5441 Cl  0  0  0  0  0  0  0  0  0  0  0  0
   10.8875    4.7994   11.5204 N   0  0  0  0  0  0  0  0  0  0  0  0
    8.6421    6.0073   12.2728 N   0  0  0  0  0  0  0  0  0  0  0  0
   11.9933    4.1992   11.1077 C   0  0  0  0  0  0  0  0  0  0  0  0
   12.0509    3.9857   10.0458 H   0  0  0  0  0  0  0  0  0  0  0  0
   13.0273    3.8570   11.9742 C   0  0  0  0  0  0  0  0  0  0  0  0
   13.9089    3.3701   11.5907 H   0  0  0  0  0  0  0  0  0  0  0  0
   12.9131    4.1459   13.3212 C   0  0  0  0  0  0  0  0  0  0  0  0
   11.7478    4.7844   13.7958 C   0  0  0  0  0  0  0  0  0  0  0  0
   10.7568    5.0913   12.8367 C   0  0  0  0  0  0  0  0  0  0  0  0
    9.5511    5.7391   13.2408 C   0  0  0  0  0  0  0  0  0  0  0  0
    9.3501    6.0710   14.5993 C   0  0  0  0  0  0  0  0  0  0  0  0
    8.1345    6.7102   14.9226 C   0  0  0  0  0  0  0  0  0  0  0  0
    7.2205    6.9758   13.9201 C   0  0  0  0  0  0  0  0  0  0  0  0
    6.2861    7.4633   14.1452 H   0  0  0  0  0  0  0  0  0  0  0  0
    7.5116    6.6090   12.6095 C   0  0  0  0  0  0  0  0  0  0  0  0
    6.8165    6.8030   11.7997 H   0  0  0  0  0  0  0  0  0  0  0  0
   11.5136    5.1316   15.1546 C   0  0  0  0  0  0  0  0  0  0  0  0
   12.2762    4.8923   15.8788 H   0  0  0  0  0  0  0  0  0  0  0  0
   10.3668    5.7466   15.5389 C   0  0  0  0  0  0  0  0  0  0  0  0
   10.2030    6.0036   16.5736 H   0  0  0  0  0  0  0  0  0  0  0  0
  1  6  1  0  0  0  0
  1  7  1  0  0  0  0
  2  1  1  0  0  0  0
  3  1  1  0  0  0  0
  6 14  1  0  0  0  0
  7 20  1  0  0  0  0
  7 15  1  0  0  0  0
  8  6  1  0  0  0  0
  8 10  2  0  0  0  0
  9  8  1  0  0  0  0
 10 12  1  0  0  0  0
 11 10  1  0  0  0  0
 12 13  2  0  0  0  0
 12  4  1  0  0  0  0
 13 22  1  0  0  0  0
 14 15  2  0  0  0  0
 14 13  1  0  0  0  0
 15 16  1  0  0  0  0
 16 17  2  0  0  0  0
 16 24  1  0  0  0  0
 17  5  1  0  0  0  0
 18 19  1  0  0  0  0
 18 17  1  0  0  0  0
 20 18  2  0  0  0  0
 21 20  1  0  0  0  0
 22 24  2  0  0  0  0
 22 23  1  0  0  0  0
 24 25  1  0  0  0  0
M  END
$$$$
