CSD_code = REPTUC | q = 0 | S = 0 | Stoichiometry = C14H16Cl2N3ORhS | MND = 6
 OpenBabel04212202093D

 38 41  0  0  0  0  0  0  0  0999 V2000
    1.9518    6.4956    6.8218 O   0  0  0  0  0  1  0  0  0  0  0  0
   -0.2678    5.3112    7.5564 C   0  0  0  0  0  0  0  0  0  0  0  0
   -0.4944    6.0626    8.3047 H   0  0  0  0  0  0  0  0  0  0  0  0
   -0.6360    4.3470    7.8858 H   0  0  0  0  0  0  0  0  0  0  0  0
   -0.6805    5.5970    6.5958 H   0  0  0  0  0  0  0  0  0  0  0  0
    1.5845    4.0143    6.0321 C   0  0  0  0  0  0  0  0  0  0  0  0
    2.6262    3.7989    5.8159 H   0  0  0  0  0  0  0  0  0  0  0  0
    1.1081    4.4616    5.1674 H   0  0  0  0  0  0  0  0  0  0  0  0
    1.0664    3.1162    6.3493 H   0  0  0  0  0  0  0  0  0  0  0  0
    2.6876    4.4380    9.2370 Rh  0  0  0  0  0  0  0  0  0  0  0  0
    1.5450    5.2268    7.3984 S   0  0  0  0  0  0  0  0  0  0  0  0
    4.4351    3.8971    7.8151 Cl  0  0  0  0  0  0  0  0  0  0  0  0
    0.8419    4.8383   10.5166 Cl  0  0  0  0  0  0  0  0  0  0  0  0
    3.6054    3.7621   10.7700 N   0  0  0  0  0  0  0  0  0  0  0  0
    4.3290    4.5203   11.4746 N   0  0  0  0  0  2  0  0  0  0  0  0
    2.2737    2.0547    9.0550 N   0  0  0  0  0  4  0  0  0  0  0  0
    1.5607    1.4575    8.6441 H   0  0  0  0  0  0  0  0  0  0  0  0
    3.1041    2.0708    8.4467 H   0  0  0  0  0  0  0  0  0  0  0  0
    3.3645    2.4640   11.1933 C   0  0  0  0  0  0  0  0  0  0  0  0
    2.6113    1.6159   10.3576 C   0  0  0  0  0  0  0  0  0  0  0  0
    3.7609    2.0221   12.4581 C   0  0  0  0  0  0  0  0  0  0  0  0
    4.3418    2.6915   13.0725 H   0  0  0  0  0  0  0  0  0  0  0  0
    3.6641    7.3561    9.2951 C   0  0  0  0  0  0  0  0  0  0  0  0
    3.1078    7.5844    8.3962 H   0  0  0  0  0  0  0  0  0  0  0  0
    3.6258    6.0899    9.8359 C   0  0  0  0  0  0  0  0  0  0  0  0
    4.3866    5.7938   10.9939 C   0  0  0  0  0  0  0  0  0  0  0  0
    3.3798    0.7753   12.9061 C   0  0  0  0  0  0  0  0  0  0  0  0
    3.6810    0.4407   13.8863 H   0  0  0  0  0  0  0  0  0  0  0  0
    5.1597    6.7872   11.6049 C   0  0  0  0  0  0  0  0  0  0  0  0
    5.7341    6.5372   12.4828 H   0  0  0  0  0  0  0  0  0  0  0  0
    2.5871   -0.0377   12.1077 C   0  0  0  0  0  0  0  0  0  0  0  0
    2.2675   -1.0034   12.4683 H   0  0  0  0  0  0  0  0  0  0  0  0
    2.2100    0.3790   10.8433 C   0  0  0  0  0  0  0  0  0  0  0  0
    1.5998   -0.2619   10.2223 H   0  0  0  0  0  0  0  0  0  0  0  0
    4.4328    8.3336    9.9150 C   0  0  0  0  0  0  0  0  0  0  0  0
    4.4553    9.3291    9.4965 H   0  0  0  0  0  0  0  0  0  0  0  0
    5.1713    8.0520   11.0603 C   0  0  0  0  0  0  0  0  0  0  0  0
    5.7619    8.8307   11.5195 H   0  0  0  0  0  0  0  0  0  0  0  0
  1 11  1  0  0  0  0
  2  4  1  0  0  0  0
  2  3  1  0  0  0  0
  5  2  1  0  0  0  0
  6  9  1  0  0  0  0
  6 11  1  0  0  0  0
  7  6  1  0  0  0  0
  8  6  1  0  0  0  0
 10 25  1  0  0  0  0
 10 13  1  0  0  0  0
 10 14  1  0  0  0  0
 11  2  1  0  0  0  0
 11 10  1  0  0  0  0
 12 10  1  0  0  0  0
 14 19  1  0  0  0  0
 14 15  1  0  0  0  0
 16 10  1  0  0  0  0
 16 20  1  0  0  0  0
 17 16  1  0  0  0  0
 18 16  1  0  0  0  0
 19 21  1  0  0  0  0
 20 33  1  0  0  0  0
 20 19  2  0  0  0  0
 21 27  2  0  0  0  0
 21 22  1  0  0  0  0
 23 25  2  0  0  0  0
 23 35  1  0  0  0  0
 24 23  1  0  0  0  0
 25 26  1  0  0  0  0
 26 15  1  0  0  0  0
 26 29  2  0  0  0  0
 27 28  1  0  0  0  0
 29 30  1  0  0  0  0
 31 32  1  0  0  0  0
 31 27  1  0  0  0  0
 33 31  2  0  0  0  0
 34 33  1  0  0  0  0
 35 37  2  0  0  0  0
 36 35  1  0  0  0  0
 37 38  1  0  0  0  0
 37 29  1  0  0  0  0
M  END
$$$$
