CSD_code = RERDEA | q = 0 | S = 0 | Stoichiometry = C21H16BrMnNO3P | MND = 6
 OpenBabel04212202093D

 44 47  0  0  0  0  0  0  0  0999 V2000
    1.2744    4.6522   15.4430 C   0  0  0  0  0  2  0  0  0  0  0  0
    0.2380    5.0974   15.2291 O   0  0  0  0  0  1  0  0  0  0  0  0
    3.0898    3.4501   14.0709 C   0  0  0  0  0  2  0  0  0  0  0  0
    3.2136    3.0878   12.9855 O   0  0  0  0  0  1  0  0  0  0  0  0
    3.5487    5.6298   15.2289 C   0  0  0  0  0  2  0  0  0  0  0  0
    3.9252    6.6500   14.8529 O   0  0  0  0  0  1  0  0  0  0  0  0
    2.2795    2.0554   16.3577 N   0  0  0  0  0  0  0  0  0  0  0  0
    1.0839    1.5802   16.0000 C   0  0  0  0  0  3  0  0  0  0  0  0
    0.4771    2.2114   15.3634 H   0  0  0  0  0  0  0  0  0  0  0  0
    0.6094    0.3457   16.3983 C   0  0  0  0  0  0  0  0  0  0  0  0
   -0.3659    0.0179   16.0777 H   0  0  0  0  0  0  0  0  0  0  0  0
    1.4077   -0.4479   17.2081 C   0  0  0  0  0  0  0  0  0  0  0  0
    1.0729   -1.4181   17.5411 H   0  0  0  0  0  0  0  0  0  0  0  0
    2.6466    0.0374   17.5783 C   0  0  0  0  0  0  0  0  0  0  0  0
    3.3047   -0.5408   18.2087 H   0  0  0  0  0  0  0  0  0  0  0  0
    3.0550    1.2942   17.1408 C   0  0  0  0  0  0  0  0  0  0  0  0
    4.3857    1.8349   17.5585 C   0  0  0  0  0  0  0  0  0  0  0  0
    5.1366    1.0430   17.6432 H   0  0  0  0  0  0  0  0  0  0  0  0
    4.2845    2.3297   18.5347 H   0  0  0  0  0  0  0  0  0  0  0  0
    5.8386    2.2212   15.1196 C   0  0  0  0  0  0  0  0  0  0  0  0
    5.4727    0.9340   14.7385 C   0  0  0  0  0  0  0  0  0  0  0  0
    4.6588    0.4248   15.2397 H   0  0  0  0  0  0  0  0  0  0  0  0
    6.1455    0.2992   13.7103 C   0  0  0  0  0  0  0  0  0  0  0  0
    5.8612   -0.7024   13.4217 H   0  0  0  0  0  0  0  0  0  0  0  0
    7.1743    0.9472   13.0473 C   0  0  0  0  0  0  0  0  0  0  0  0
    7.6952    0.4489   12.2435 H   0  0  0  0  0  0  0  0  0  0  0  0
    7.5268    2.2384   13.4069 C   0  0  0  0  0  0  0  0  0  0  0  0
    8.3197    2.7496   12.8815 H   0  0  0  0  0  0  0  0  0  0  0  0
    6.8577    2.8772   14.4331 C   0  0  0  0  0  0  0  0  0  0  0  0
    7.1192    3.8896   14.7136 H   0  0  0  0  0  0  0  0  0  0  0  0
    6.2384    3.9738   17.2863 C   0  0  0  0  0  0  0  0  0  0  0  0
    7.3219    3.2182   17.7305 C   0  0  0  0  0  0  0  0  0  0  0  0
    7.3654    2.1580   17.5179 H   0  0  0  0  0  0  0  0  0  0  0  0
    8.3440    3.8299   18.4289 C   0  0  0  0  0  0  0  0  0  0  0  0
    9.1824    3.2442   18.7766 H   0  0  0  0  0  0  0  0  0  0  0  0
    8.2948    5.1927   18.6822 C   0  0  0  0  0  0  0  0  0  0  0  0
    9.0959    5.6658   19.2303 H   0  0  0  0  0  0  0  0  0  0  0  0
    7.2243    5.9459   18.2326 C   0  0  0  0  0  0  0  0  0  0  0  0
    7.1864    7.0069   18.4271 H   0  0  0  0  0  0  0  0  0  0  0  0
    6.1954    5.3399   17.5328 C   0  0  0  0  0  0  0  0  0  0  0  0
    5.3557    5.9273   17.1874 H   0  0  0  0  0  0  0  0  0  0  0  0
    2.9275    4.0397   15.7314 Mn  0  0  0  0  0  0  0  0  0  0  0  0
    2.7538    4.6764   18.0878 Br  0  0  0  0  0  0  0  0  0  0  0  0
    4.9043    3.1527   16.3719 P   0  0  0  0  0  4  0  0  0  0  0  0
  1 42  1  0  0  0  0
  2  1  1  0  0  0  0
  3 42  1  0  0  0  0
  4  3  1  0  0  0  0
  5 42  1  0  0  0  0
  6  5  1  0  0  0  0
  7 16  1  0  0  0  0
  8  7  1  0  0  0  0
  8 10  1  0  0  0  0
  9  8  1  0  0  0  0
 10 12  2  0  0  0  0
 11 10  1  0  0  0  0
 12 13  1  0  0  0  0
 12 14  1  0  0  0  0
 14 15  1  0  0  0  0
 16 17  1  0  0  0  0
 16 14  2  0  0  0  0
 17 18  1  0  0  0  0
 17 19  1  0  0  0  0
 20 44  1  0  0  0  0
 21 20  1  0  0  0  0
 21 22  1  0  0  0  0
 23 21  2  0  0  0  0
 24 23  1  0  0  0  0
 25 27  2  0  0  0  0
 25 23  1  0  0  0  0
 26 25  1  0  0  0  0
 27 29  1  0  0  0  0
 28 27  1  0  0  0  0
 29 30  1  0  0  0  0
 29 20  2  0  0  0  0
 31 40  2  0  0  0  0
 31 32  1  0  0  0  0
 32 34  2  0  0  0  0
 33 32  1  0  0  0  0
 34 36  1  0  0  0  0
 34 35  1  0  0  0  0
 36 37  1  0  0  0  0
 38 39  1  0  0  0  0
 38 36  2  0  0  0  0
 40 38  1  0  0  0  0
 41 40  1  0  0  0  0
 42  7  1  0  0  0  0
 42 44  1  0  0  0  0
 42 43  1  0  0  0  0
 44 31  1  0  0  0  0
 44 17  1  0  0  0  0
M  END
$$$$
