CSD_code = RERFIF | q = 0 | S = 0 | Stoichiometry = C28H34Cl2N4Pd | MND = 4
 OpenBabel04212202093D

 69 73  0  0  1  0  0  0  0  0999 V2000
    4.4196    8.7245    7.2870 Pd  0  0  0  0  0  0  0  0  0  0  0  0
    5.8094    7.8313    8.8190 Cl  0  0  0  0  0  0  0  0  0  0  0  0
    2.7980    7.2552    7.8607 Cl  0  0  0  0  0  0  0  0  0  0  0  0
    1.9576    9.8934    5.8976 N   0  0  0  0  0  0  0  0  0  0  0  0
    3.7239    9.7954    4.6750 N   0  0  0  0  0  0  0  0  0  0  0  0
    6.0225    9.9752    5.1929 N   0  0  0  0  0  0  0  0  0  0  0  0
    6.9891   10.4830    7.0379 N   0  0  0  0  0  0  0  0  0  0  0  0
    3.2344    9.4759    5.8979 C   0  0  0  0  0  0  0  0  0  0  0  0
    1.6530   10.4791    4.6921 C   0  0  0  0  0  0  0  0  0  0  0  0
    0.6829   10.8834    4.4885 H   0  0  0  0  0  0  0  0  0  0  0  0
    2.7625   10.4251    3.9218 C   0  0  0  0  0  0  0  0  0  0  0  0
    2.9406   10.7640    2.9221 H   0  0  0  0  0  0  0  0  0  0  0  0
    5.0566    9.4266    4.2738 C   0  0  0  0  0  0  0  0  0  0  0  0
    5.1365    8.3230    4.2811 H   0  0  0  0  0  0  0  0  0  0  0  0
    5.2565    9.8034    3.2660 H   0  0  0  0  0  0  0  0  0  0  0  0
    5.9164    9.8477    6.5415 C   0  0  2  0  0  3  0  0  0  0  0  0
    7.7562   10.9998    6.0257 C   0  0  0  0  0  0  0  0  0  0  0  0
    8.6551   11.5484    6.2199 H   0  0  0  0  0  0  0  0  0  0  0  0
    7.1496   10.6839    4.8599 C   0  0  0  0  0  0  0  0  0  0  0  0
    7.4237   10.8895    3.8457 H   0  0  0  0  0  0  0  0  0  0  0  0
    0.9807    9.6306    6.9026 C   0  0  0  0  0  0  0  0  0  0  0  0
   -0.0343    8.7142    6.6060 C   0  0  0  0  0  0  0  0  0  0  0  0
   -1.0125    8.4899    7.5640 C   0  0  0  0  0  0  0  0  0  0  0  0
   -1.8011    7.7824    7.3620 H   0  0  0  0  0  0  0  0  0  0  0  0
   -0.9796    9.1397    8.7814 C   0  0  0  0  0  0  0  0  0  0  0  0
   -1.7448    8.9454    9.5181 H   0  0  0  0  0  0  0  0  0  0  0  0
    0.0438   10.0204    9.0650 C   0  0  0  0  0  0  0  0  0  0  0  0
    0.0737   10.5045   10.0285 H   0  0  0  0  0  0  0  0  0  0  0  0
    1.0401   10.2851    8.1342 C   0  0  0  0  0  0  0  0  0  0  0  0
   -0.0631    7.9166    5.3230 C   0  0  0  0  0  0  0  0  0  0  0  0
    0.7849    8.1985    4.6925 H   0  0  0  0  0  0  0  0  0  0  0  0
    0.0932    6.4291    5.6483 C   0  0  0  0  0  0  0  0  0  0  0  0
    0.9727    6.2870    6.2726 H   0  0  0  0  0  0  0  0  0  0  0  0
    0.2085    5.8547    4.7315 H   0  0  0  0  0  0  0  0  0  0  0  0
   -0.7730    6.0523    6.1849 H   0  0  0  0  0  0  0  0  0  0  0  0
   -1.3449    8.1818    4.5294 C   0  0  0  0  0  0  0  0  0  0  0  0
   -1.4486    9.2414    4.3007 H   0  0  0  0  0  0  0  0  0  0  0  0
   -2.2212    7.8683    5.0900 H   0  0  0  0  0  0  0  0  0  0  0  0
   -1.3237    7.6282    3.5931 H   0  0  0  0  0  0  0  0  0  0  0  0
    2.1478   11.2485    8.4901 C   0  0  0  0  0  0  0  0  0  0  0  0
    2.7830   11.4036    7.6078 H   0  0  0  0  0  0  0  0  0  0  0  0
    1.5828   12.6113    8.9010 C   0  0  0  0  0  0  0  0  0  0  0  0
    2.3934   13.3228    9.0422 H   0  0  0  0  0  0  0  0  0  0  0  0
    1.0289   12.5404    9.8325 H   0  0  0  0  0  0  0  0  0  0  0  0
    0.9149   12.9975    8.1332 H   0  0  0  0  0  0  0  0  0  0  0  0
    3.0104   10.6519    9.6104 C   0  0  0  0  0  0  0  0  0  0  0  0
    3.5420    9.7523    9.2476 H   0  0  0  0  0  0  0  0  0  0  0  0
    2.3909   10.3587   10.4537 H   0  0  0  0  0  0  0  0  0  0  0  0
    3.7464   11.3735    9.9563 H   0  0  0  0  0  0  0  0  0  0  0  0
    7.2839   10.7084    8.4127 C   0  0  0  0  0  0  0  0  0  0  0  0
    8.2521    9.9393    9.0555 C   0  0  0  0  0  0  0  0  0  0  0  0
    8.5134   10.2111   10.3889 C   0  0  0  0  0  0  0  0  0  0  0  0
    9.2457    9.6128   10.9105 H   0  0  0  0  0  0  0  0  0  0  0  0
    7.8477   11.2180   11.0744 C   0  0  0  0  0  0  0  0  0  0  0  0
    6.9172   11.9895   10.3943 C   0  0  0  0  0  0  0  0  0  0  0  0
    6.4058   12.7892   10.9112 H   0  0  0  0  0  0  0  0  0  0  0  0
    6.6289   11.7538    9.0594 C   0  0  0  0  0  0  0  0  0  0  0  0
    8.9493    8.8292    8.3391 C   0  0  0  0  0  0  0  0  0  0  0  0
    8.2308    8.0205    8.1969 H   0  0  0  0  0  0  0  0  0  0  0  0
    9.7826    8.4553    8.9266 H   0  0  0  0  0  0  0  0  0  0  0  0
    9.3147    9.1439    7.3625 H   0  0  0  0  0  0  0  0  0  0  0  0
    8.1358   11.4554   12.5249 C   0  0  0  0  0  0  0  0  0  0  0  0
    7.7590   10.6214   13.1158 H   0  0  0  0  0  0  0  0  0  0  0  0
    7.6609   12.3682   12.8753 H   0  0  0  0  0  0  0  0  0  0  0  0
    9.2083   11.5271   12.6970 H   0  0  0  0  0  0  0  0  0  0  0  0
    5.6623   12.6146    8.3008 C   0  0  0  0  0  0  0  0  0  0  0  0
    6.1853   13.1837    7.5300 H   0  0  0  0  0  0  0  0  0  0  0  0
    5.1676   13.3164    8.9663 H   0  0  0  0  0  0  0  0  0  0  0  0
    4.9098   11.9946    7.8121 H   0  0  0  0  0  0  0  0  0  0  0  0
  1  3  1  0  0  0  0
  1  2  1  0  0  0  0
  4  8  1  0  0  0  0
  4 21  1  0  0  0  0
  5  8  1  0  0  0  0
  7 50  1  0  0  0  0
  8  1  2  0  0  0  0
  9  4  1  0  0  0  0
 10  9  1  0  0  0  0
 11  5  1  0  0  0  0
 11  9  2  0  0  0  0
 12 11  1  0  0  0  0
 13 14  1  0  0  0  0
 13  5  1  0  0  0  0
 13  6  1  0  0  0  0
 15 13  1  0  0  0  0
 16  6  1  6  0  0  0
 16  7  1  0  0  0  0
 16  1  1  0  0  0  0
 17 18  1  0  0  0  0
 17  7  1  0  0  0  0
 19  6  1  0  0  0  0
 19 17  2  0  0  0  0
 20 19  1  0  0  0  0
 21 29  1  0  0  0  0
 22 21  2  0  0  0  0
 22 23  1  0  0  0  0
 23 25  2  0  0  0  0
 24 23  1  0  0  0  0
 25 27  1  0  0  0  0
 25 26  1  0  0  0  0
 27 28  1  0  0  0  0
 29 40  1  0  0  0  0
 29 27  2  0  0  0  0
 30 32  1  0  0  0  0
 30 22  1  0  0  0  0
 31 30  1  0  0  0  0
 32 35  1  0  0  0  0
 32 33  1  0  0  0  0
 34 32  1  0  0  0  0
 36 38  1  0  0  0  0
 36 30  1  0  0  0  0
 37 36  1  0  0  0  0
 39 36  1  0  0  0  0
 40 42  1  0  0  0  0
 40 46  1  0  0  0  0
 41 40  1  0  0  0  0
 42 43  1  0  0  0  0
 42 44  1  0  0  0  0
 45 42  1  0  0  0  0
 46 49  1  0  0  0  0
 46 48  1  0  0  0  0
 47 46  1  0  0  0  0
 50 51  2  0  0  0  0
 50 57  1  0  0  0  0
 51 52  1  0  0  0  0
 52 53  1  0  0  0  0
 52 54  2  0  0  0  0
 54 62  1  0  0  0  0
 55 56  1  0  0  0  0
 55 54  1  0  0  0  0
 57 55  2  0  0  0  0
 58 60  1  0  0  0  0
 58 51  1  0  0  0  0
 59 58  1  0  0  0  0
 61 58  1  0  0  0  0
 62 65  1  0  0  0  0
 62 64  1  0  0  0  0
 62 63  1  0  0  0  0
 66 68  1  0  0  0  0
 66 57  1  0  0  0  0
 67 66  1  0  0  0  0
 69 66  1  0  0  0  0
M  END
$$$$
