CSD_code = RERHOL | q = 0 | S = 0 | Stoichiometry = C10H17Cl2NSiTi | MND = 8
 OpenBabel04212202093D

 32 33  0  0  1  0  0  0  0  0999 V2000
    2.3006    9.0741    0.9798 Ti  0  0  0  0  0  0  0  0  0  0  0  0
    1.8249    7.4067    2.2727 Cl  0  0  0  0  0  0  0  0  0  0  0  0
    1.4861    9.0742   -1.8111 Si  0  0  0  0  0  0  0  0  0  0  0  0
    0.8751    9.0742   -0.1800 N   0  0  0  0  0  0  0  0  0  0  0  0
    3.2427    9.0743   -1.0677 C   0  0  2  0  0  0  0  0  0  0  0  0
    3.7278    7.9358   -0.3668 C   0  0  0  0  0  3  0  0  0  0  0  0
    4.5323    8.3687    0.7095 C   0  0  0  0  0  0  0  0  0  0  0  0
    1.1450    7.4989   -2.8416 C   0  0  0  0  0  0  0  0  0  0  0  0
   -0.4884    9.0743    0.3051 C   0  0  0  0  0  0  0  0  0  0  0  0
   -1.2218    7.8091   -0.1484 C   0  0  0  0  0  0  0  0  0  0  0  0
    3.5951    6.9050   -0.6773 H   0  0  0  0  0  0  0  0  0  0  0  0
    5.1287    7.7331    1.3541 H   0  0  0  0  0  0  0  0  0  0  0  0
    1.1627    6.6072   -2.2219 H   0  0  0  0  0  0  0  0  0  0  0  0
    1.8923    7.3826   -3.6191 H   0  0  0  0  0  0  0  0  0  0  0  0
    0.1767    7.5477   -3.3279 H   0  0  0  0  0  0  0  0  0  0  0  0
   -0.4541    9.0743    1.4116 H   0  0  0  0  0  0  0  0  0  0  0  0
   -1.3246    7.8093   -1.2309 H   0  0  0  0  0  0  0  0  0  0  0  0
   -0.6481    6.9341    0.1556 H   0  0  0  0  0  0  0  0  0  0  0  0
   -2.2089    7.7605    0.3039 H   0  0  0  0  0  0  0  0  0  0  0  0
    1.8249   10.7413    2.2731 Cl  0  0  0  0  0  0  0  0  0  0  0  0
    3.7277   10.2128   -0.3668 C   0  0  0  0  0  3  0  0  0  0  0  0
    4.5322    9.7799    0.7096 C   0  0  0  0  0  0  0  0  0  0  0  0
    3.5949   11.2435   -0.6772 H   0  0  0  0  0  0  0  0  0  0  0  0
    5.1285   10.4155    1.3542 H   0  0  0  0  0  0  0  0  0  0  0  0
    1.1449   10.6493   -2.8416 C   0  0  0  0  0  0  0  0  0  0  0  0
    1.1611   11.5411   -2.2218 H   0  0  0  0  0  0  0  0  0  0  0  0
    1.8931   10.7666   -3.6183 H   0  0  0  0  0  0  0  0  0  0  0  0
    0.1771   10.6000   -3.3293 H   0  0  0  0  0  0  0  0  0  0  0  0
   -1.2216   10.3397   -0.1484 C   0  0  0  0  0  0  0  0  0  0  0  0
   -1.3243   10.3395   -1.2309 H   0  0  0  0  0  0  0  0  0  0  0  0
   -0.6478   11.2146    0.1557 H   0  0  0  0  0  0  0  0  0  0  0  0
   -2.2087   10.3884    0.3039 H   0  0  0  0  0  0  0  0  0  0  0  0
  1  2  1  0  0  0  0
  1 20  1  0  0  0  0
  3  5  1  0  0  0  0
  3  4  1  0  0  0  0
  4  9  1  0  0  0  0
  4  1  1  0  0  0  0
  5  6  1  6  0  0  0
  5 21  1  0  0  0  0
  5  1  1  0  0  0  0
  6  7  1  0  0  0  0
  7 22  2  0  0  0  0
  7 12  1  0  0  0  0
  8 13  1  0  0  0  0
  8  3  1  0  0  0  0
  9 16  1  0  0  0  0
 10 18  1  0  0  0  0
 10 19  1  0  0  0  0
 10  9  1  0  0  0  0
 11  6  1  0  0  0  0
 14  8  1  0  0  0  0
 15  8  1  0  0  0  0
 17 10  1  0  0  0  0
 21 22  1  0  0  0  0
 22 24  1  0  0  0  0
 23 21  1  0  0  0  0
 25 26  1  0  0  0  0
 25  3  1  0  0  0  0
 27 25  1  0  0  0  0
 28 25  1  0  0  0  0
 29 31  1  0  0  0  0
 29 32  1  0  0  0  0
 29  9  1  0  0  0  0
 30 29  1  0  0  0  0
M  END
$$$$
