CSD_code = RERZEW | q = 0 | S = 0 | Stoichiometry = C28H30Cl2P2PdSi | MND = 4
 OpenBabel04212202093D

 64 68  0  0  0  0  0  0  0  0999 V2000
    0.0002    4.8383    3.6911 Pd  0  0  0  0  0  0  0  0  0  0  0  0
    1.6310    6.2822    3.2538 P   0  0  0  0  0  4  0  0  0  0  0  0
    1.6070    3.2669    3.3204 Cl  0  0  0  0  0  0  0  0  0  0  0  0
   -0.0000    8.9623    3.6908 Si  0  0  0  0  0  0  0  0  0  0  0  0
    2.8521    5.7548    2.0205 C   0  0  0  0  0  0  0  0  0  0  0  0
    2.5289    6.6291    4.7898 C   0  0  0  0  0  0  0  0  0  0  0  0
    5.0535    5.2402    1.2295 C   0  0  0  0  0  0  0  0  0  0  0  0
    6.1180    5.1784    1.4029 H   0  0  0  0  0  0  0  0  0  0  0  0
    1.0439   10.0523    4.8572 C   0  0  0  0  0  0  0  0  0  0  0  0
    1.7281   10.6769    4.2926 H   0  0  0  0  0  0  0  0  0  0  0  0
    1.6329    9.4656    5.5559 H   0  0  0  0  0  0  0  0  0  0  0  0
    0.4066   10.7131    5.4356 H   0  0  0  0  0  0  0  0  0  0  0  0
    4.2197    5.6872    2.2411 C   0  0  0  0  0  0  0  0  0  0  0  0
    4.6298    5.9587    3.2033 H   0  0  0  0  0  0  0  0  0  0  0  0
    2.1801    5.8636    5.9010 C   0  0  0  0  0  0  0  0  0  0  0  0
    1.4216    5.0756    5.7935 H   0  0  0  0  0  0  0  0  0  0  0  0
    4.1270    7.8243    6.1267 C   0  0  0  0  0  0  0  0  0  0  0  0
    4.8875    8.5863    6.2177 H   0  0  0  0  0  0  0  0  0  0  0  0
    1.1659    7.9269    2.5829 C   0  0  0  0  0  0  0  0  0  0  0  0
    0.6711    7.7151    1.6305 H   0  0  0  0  0  0  0  0  0  0  0  0
    2.0806    8.4790    2.3585 H   0  0  0  0  0  0  0  0  0  0  0  0
    3.7758    7.0613    7.2295 C   0  0  0  0  0  0  0  0  0  0  0  0
    4.2643    7.2305    8.1776 H   0  0  0  0  0  0  0  0  0  0  0  0
    3.5059    7.6133    4.9086 C   0  0  0  0  0  0  0  0  0  0  0  0
    3.7774    8.2121    4.0506 H   0  0  0  0  0  0  0  0  0  0  0  0
    4.5281    4.8590    0.0073 C   0  0  0  0  0  0  0  0  0  0  0  0
    5.1834    4.5031   -0.7739 H   0  0  0  0  0  0  0  0  0  0  0  0
    2.8029    6.0805    7.1173 C   0  0  0  0  0  0  0  0  0  0  0  0
    2.5356    5.4845    7.9773 H   0  0  0  0  0  0  0  0  0  0  0  0
    3.1589    4.9105   -0.2090 C   0  0  0  0  0  0  0  0  0  0  0  0
    2.7482    4.5906   -1.1554 H   0  0  0  0  0  0  0  0  0  0  0  0
    2.3232    5.3528    0.7959 C   0  0  0  0  0  0  0  0  0  0  0  0
    1.2442    5.3595    0.6599 H   0  0  0  0  0  0  0  0  0  0  0  0
   -1.6308    6.2821    4.1278 P   0  0  0  0  0  4  0  0  0  0  0  0
   -2.8520    5.7547    5.3612 C   0  0  0  0  0  0  0  0  0  0  0  0
   -2.5289    6.6290    2.5918 C   0  0  0  0  0  0  0  0  0  0  0  0
   -5.0533    5.2403    6.1520 C   0  0  0  0  0  0  0  0  0  0  0  0
   -6.1179    5.1785    5.9785 H   0  0  0  0  0  0  0  0  0  0  0  0
   -1.0440   10.0524    2.5243 C   0  0  0  0  0  0  0  0  0  0  0  0
   -1.7283   10.6767    3.0890 H   0  0  0  0  0  0  0  0  0  0  0  0
   -1.6328    9.4657    1.8255 H   0  0  0  0  0  0  0  0  0  0  0  0
   -0.4066   10.7134    1.9461 H   0  0  0  0  0  0  0  0  0  0  0  0
   -4.2195    5.6871    5.1405 C   0  0  0  0  0  0  0  0  0  0  0  0
   -4.6294    5.9584    4.1781 H   0  0  0  0  0  0  0  0  0  0  0  0
   -2.1802    5.8635    1.4806 C   0  0  0  0  0  0  0  0  0  0  0  0
   -1.4218    5.0754    1.5881 H   0  0  0  0  0  0  0  0  0  0  0  0
   -4.1269    7.8243    1.2550 C   0  0  0  0  0  0  0  0  0  0  0  0
   -4.8873    8.5864    1.1640 H   0  0  0  0  0  0  0  0  0  0  0  0
   -1.1660    7.9269    4.7987 C   0  0  0  0  0  0  0  0  0  0  0  0
   -0.6711    7.7153    5.7511 H   0  0  0  0  0  0  0  0  0  0  0  0
   -2.0807    8.4790    5.0231 H   0  0  0  0  0  0  0  0  0  0  0  0
   -3.7759    7.0612    0.1523 C   0  0  0  0  0  0  0  0  0  0  0  0
   -4.2645    7.2304   -0.7958 H   0  0  0  0  0  0  0  0  0  0  0  0
   -3.5058    7.6133    2.4731 C   0  0  0  0  0  0  0  0  0  0  0  0
   -3.7772    8.2121    3.3312 H   0  0  0  0  0  0  0  0  0  0  0  0
   -4.5281    4.8592    7.3742 C   0  0  0  0  0  0  0  0  0  0  0  0
   -5.1835    4.5036    8.1555 H   0  0  0  0  0  0  0  0  0  0  0  0
   -2.8031    6.0803    0.2644 C   0  0  0  0  0  0  0  0  0  0  0  0
   -2.5359    5.4842   -0.5955 H   0  0  0  0  0  0  0  0  0  0  0  0
   -3.1589    4.9104    7.5906 C   0  0  0  0  0  0  0  0  0  0  0  0
   -2.7483    4.5907    8.5371 H   0  0  0  0  0  0  0  0  0  0  0  0
   -2.3231    5.3526    6.5857 C   0  0  0  0  0  0  0  0  0  0  0  0
   -1.2441    5.3593    6.7218 H   0  0  0  0  0  0  0  0  0  0  0  0
   -1.6076    3.2675    4.0599 Cl  0  0  0  0  0  0  0  0  0  0  0  0
  1 64  1  0  0  0  0
  1 34  1  0  0  0  0
  2  1  1  0  0  0  0
  2  6  1  0  0  0  0
  3  1  1  0  0  0  0
  4 49  1  0  0  0  0
  4  9  1  0  0  0  0
  5 13  1  0  0  0  0
  5  2  1  0  0  0  0
  6 24  2  0  0  0  0
  6 15  1  0  0  0  0
  7  8  1  0  0  0  0
  7 13  2  0  0  0  0
  9 12  1  0  0  0  0
  9 11  1  0  0  0  0
 10  9  1  0  0  0  0
 13 14  1  0  0  0  0
 15 28  2  0  0  0  0
 16 15  1  0  0  0  0
 17 18  1  0  0  0  0
 17 22  2  0  0  0  0
 19  2  1  0  0  0  0
 19  4  1  0  0  0  0
 20 19  1  0  0  0  0
 21 19  1  0  0  0  0
 22 23  1  0  0  0  0
 24 17  1  0  0  0  0
 25 24  1  0  0  0  0
 26  7  1  0  0  0  0
 27 26  1  0  0  0  0
 28 22  1  0  0  0  0
 28 29  1  0  0  0  0
 30 26  2  0  0  0  0
 30 32  1  0  0  0  0
 31 30  1  0  0  0  0
 32  5  2  0  0  0  0
 33 32  1  0  0  0  0
 34 49  1  0  0  0  0
 34 35  1  0  0  0  0
 35 62  1  0  0  0  0
 36 34  1  0  0  0  0
 37 56  2  0  0  0  0
 38 37  1  0  0  0  0
 39 40  1  0  0  0  0
 39  4  1  0  0  0  0
 41 39  1  0  0  0  0
 42 39  1  0  0  0  0
 43 35  2  0  0  0  0
 43 37  1  0  0  0  0
 44 43  1  0  0  0  0
 45 46  1  0  0  0  0
 45 36  2  0  0  0  0
 47 54  2  0  0  0  0
 48 47  1  0  0  0  0
 49 51  1  0  0  0  0
 49 50  1  0  0  0  0
 52 58  2  0  0  0  0
 52 47  1  0  0  0  0
 53 52  1  0  0  0  0
 54 36  1  0  0  0  0
 54 55  1  0  0  0  0
 56 60  1  0  0  0  0
 56 57  1  0  0  0  0
 58 45  1  0  0  0  0
 59 58  1  0  0  0  0
 60 61  1  0  0  0  0
 62 63  1  0  0  0  0
 62 60  2  0  0  0  0
M  END
$$$$
