CSD_code = RESCUN | q = 0 | S = 0 | Stoichiometry = C19H26Cl4N2O2Zr | MND = 6
 OpenBabel04212202093D

 54 55  0  0  1  0  0  0  0  0999 V2000
    2.9715    3.2181    4.9231 Zr  0  0  0  0  0  0  0  0  0  0  0  0
    4.3065    5.2095    4.5947 Cl  0  0  0  0  0  0  0  0  0  0  0  0
    1.4244    4.8269    5.9729 Cl  0  0  0  0  0  0  0  0  0  0  0  0
    1.3086    1.5665    5.3239 Cl  0  0  0  0  0  0  0  0  0  0  0  0
    4.8730    1.8033    4.8334 Cl  0  0  0  0  0  0  0  0  0  0  0  0
    3.4740    3.0685    7.0773 O   0  0  0  0  0  0  0  0  0  0  0  0
    4.6236    3.8222    7.5209 C   0  0  0  0  0  0  0  0  0  0  0  0
    4.2868    4.8400    7.7523 H   0  0  0  0  0  0  0  0  0  0  0  0
    5.3676    3.8465    6.7093 H   0  0  0  0  0  0  0  0  0  0  0  0
    5.1804    3.0730    8.7266 C   0  0  0  0  0  0  0  0  0  0  0  0
    6.2407    3.2632    8.8694 H   0  0  0  0  0  0  0  0  0  0  0  0
    4.6403    3.3466    9.6348 H   0  0  0  0  0  0  0  0  0  0  0  0
    4.8746    1.6312    8.3352 C   0  0  0  0  0  0  0  0  0  0  0  0
    5.5747    1.2936    7.5700 H   0  0  0  0  0  0  0  0  0  0  0  0
    4.8840    0.9411    9.1747 H   0  0  0  0  0  0  0  0  0  0  0  0
    3.4885    1.7743    7.7197 C   0  0  0  0  0  0  0  0  0  0  0  0
    3.2759    1.0014    6.9729 H   0  0  0  0  0  0  0  0  0  0  0  0
    2.7005    1.7719    8.4864 H   0  0  0  0  0  0  0  0  0  0  0  0
    2.6606    3.1758    3.0953 O   0  0  0  0  0  0  0  0  0  0  0  0
    1.5045    3.0456    2.3549 C   0  0  0  0  0  0  0  0  0  0  0  0
    1.0743    2.0357    2.4963 H   0  0  0  0  0  0  0  0  0  0  0  0
    1.7469    3.1735    1.2844 H   0  0  0  0  0  0  0  0  0  0  0  0
    0.4676    4.1056    2.7787 C   0  0  0  0  0  0  0  0  0  0  0  0
    0.1810    3.9037    3.8176 H   0  0  0  0  0  0  0  0  0  0  0  0
   -0.4202    4.0273    2.1477 H   0  0  0  0  0  0  0  0  0  0  0  0
    1.0996    5.4953    2.6724 C   0  0  0  0  0  0  0  0  0  0  0  0
    2.0864    5.4616    3.1544 H   0  0  0  0  0  0  0  0  0  0  0  0
    1.2451    5.7482    1.6180 H   0  0  0  0  0  0  0  0  0  0  0  0
    0.2411    6.5661    3.3498 C   0  0  0  0  0  0  0  0  0  0  0  0
   -0.7442    6.6051    2.8779 H   0  0  0  0  0  0  0  0  0  0  0  0
    0.1121    6.3168    4.4043 H   0  0  0  0  0  0  0  0  0  0  0  0
    0.8563    7.8781    3.2091 N   0  0  0  0  0  0  0  0  0  0  0  0
    1.6978    8.3945    4.1523 C   0  0  1  0  0  3  0  0  0  0  0  0
    2.2798    9.6659    3.8851 C   0  0  0  0  0  0  0  0  0  0  0  0
    2.9631   10.0598    4.6190 H   0  0  0  0  0  0  0  0  0  0  0  0
    2.0256   10.3352    2.7275 C   0  0  0  0  0  0  0  0  0  0  0  0
    2.4920   11.2870    2.5300 H   0  0  0  0  0  0  0  0  0  0  0  0
    1.1582    9.7626    1.7797 C   0  0  0  0  0  0  0  0  0  0  0  0
    0.9351   10.2627    0.8534 H   0  0  0  0  0  0  0  0  0  0  0  0
    0.6164    8.5464    2.0574 C   0  0  0  0  0  0  0  0  0  0  0  0
   -0.0462    8.0545    1.3620 H   0  0  0  0  0  0  0  0  0  0  0  0
    1.9578    7.7442    5.2734 N   0  0  0  0  0  0  0  0  0  0  0  0
    1.7850    6.7264    5.3939 H   0  0  0  0  0  0  0  0  0  0  0  0
    2.6165    8.3170    6.3861 C   0  0  0  0  0  0  0  0  0  0  0  0
    2.1248    9.4714    6.9853 C   0  0  0  0  0  0  0  0  0  0  0  0
    1.2478    9.9569    6.5820 H   0  0  0  0  0  0  0  0  0  0  0  0
    2.7516    9.9792    8.1094 C   0  0  0  0  0  0  0  0  0  0  0  0
    2.3675   10.8732    8.5774 H   0  0  0  0  0  0  0  0  0  0  0  0
    3.8608    9.3396    8.6369 C   0  0  0  0  0  0  0  0  0  0  0  0
    4.3447    9.7384    9.5156 H   0  0  0  0  0  0  0  0  0  0  0  0
    4.3459    8.1883    8.0369 C   0  0  0  0  0  0  0  0  0  0  0  0
    5.2145    7.6934    8.4445 H   0  0  0  0  0  0  0  0  0  0  0  0
    3.7274    7.6710    6.9130 C   0  0  0  0  0  0  0  0  0  0  0  0
    4.0995    6.7934    6.4052 H   0  0  0  0  0  0  0  0  0  0  0  0
  1  4  1  0  0  0  0
  1  3  1  0  0  0  0
  2  1  1  0  0  0  0
  5  1  1  0  0  0  0
  6  7  1  0  0  0  0
  6 16  1  0  0  0  0
  7  8  1  0  0  0  0
  7 10  1  0  0  0  0
  9  7  1  0  0  0  0
 10 11  1  0  0  0  0
 10 12  1  0  0  0  0
 13 10  1  0  0  0  0
 13 15  1  0  0  0  0
 14 13  1  0  0  0  0
 16 13  1  0  0  0  0
 16 18  1  0  0  0  0
 17 16  1  0  0  0  0
 19  1  1  0  0  0  0
 20 21  1  0  0  0  0
 20 23  1  0  0  0  0
 20 19  1  0  0  0  0
 22 20  1  0  0  0  0
 23 24  1  0  0  0  0
 25 23  1  0  0  0  0
 26 23  1  0  0  0  0
 26 27  1  0  0  0  0
 26 29  1  0  0  0  0
 28 26  1  0  0  0  0
 29 31  1  0  0  0  0
 30 29  1  0  0  0  0
 32 29  1  0  0  0  0
 32 33  1  0  0  0  0
 33 42  1  1  0  0  0
 34 33  1  0  0  0  0
 34 35  1  0  0  0  0
 36 34  2  0  0  0  0
 37 36  1  0  0  0  0
 38 40  2  0  0  0  0
 38 36  1  0  0  0  0
 39 38  1  0  0  0  0
 40 32  1  0  0  0  0
 41 40  1  0  0  0  0
 42 43  1  0  0  0  0
 42 44  1  0  0  0  0
 44 53  2  0  0  0  0
 44 45  1  0  0  0  0
 45 47  2  0  0  0  0
 46 45  1  0  0  0  0
 47 48  1  0  0  0  0
 47 49  1  0  0  0  0
 49 50  1  0  0  0  0
 51 52  1  0  0  0  0
 51 49  2  0  0  0  0
 53 51  1  0  0  0  0
 54 53  1  0  0  0  0
M  END
$$$$
