CSD_code = RESDUO | q = 0 | S = 0 | Stoichiometry = C10H8Br2N2Pd | MND = 4
 OpenBabel04212202093D

 23 25  0  0  0  0  0  0  0  0999 V2000
   -0.6953   -1.8805    1.7259 Pd  0  0  0  0  0  0  0  0  0  0  0  0
    0.4927   -3.5630    2.8623 Br  0  0  0  0  0  0  0  0  0  0  0  0
    0.2409   -0.3004    2.6612 N   0  0  0  0  0  0  0  0  0  0  0  0
    1.1690   -0.3745    3.6145 C   0  0  0  0  0  0  0  0  0  0  0  0
    1.7180    0.7433    4.2142 C   0  0  0  0  0  0  0  0  0  0  0  0
    1.2852    1.9992    3.8114 C   0  0  0  0  0  0  0  0  0  0  0  0
    0.3254    2.0815    2.8216 C   0  0  0  0  0  0  0  0  0  0  0  0
   -0.1868    0.9145    2.2519 C   0  0  0  0  0  0  0  0  0  0  0  0
    1.4856   -1.3678    3.9095 H   0  0  0  0  0  0  0  0  0  0  0  0
    2.4661    0.6266    4.9806 H   0  0  0  0  0  0  0  0  0  0  0  0
    1.6866    2.8949    4.2591 H   0  0  0  0  0  0  0  0  0  0  0  0
   -0.0262    3.0463    2.4962 H   0  0  0  0  0  0  0  0  0  0  0  0
   -1.8820   -3.5630    0.5881 Br  0  0  0  0  0  0  0  0  0  0  0  0
   -1.2027    0.9145    1.1989 C   0  0  0  0  0  0  0  0  0  0  0  0
   -1.6304   -0.3004    0.7895 N   0  0  0  0  0  0  0  0  0  0  0  0
   -2.5585   -0.3746   -0.1637 C   0  0  0  0  0  0  0  0  0  0  0  0
   -3.1076    0.7433   -0.7633 C   0  0  0  0  0  0  0  0  0  0  0  0
   -2.6748    1.9992   -0.3606 C   0  0  0  0  0  0  0  0  0  0  0  0
   -1.7150    2.0815    0.6292 C   0  0  0  0  0  0  0  0  0  0  0  0
   -1.3634    3.0463    0.9546 H   0  0  0  0  0  0  0  0  0  0  0  0
   -3.0762    2.8949   -0.8084 H   0  0  0  0  0  0  0  0  0  0  0  0
   -3.8557    0.6266   -1.5298 H   0  0  0  0  0  0  0  0  0  0  0  0
   -2.8753   -1.3678   -0.4586 H   0  0  0  0  0  0  0  0  0  0  0  0
  1  3  1  0  0  0  0
  1  2  1  0  0  0  0
  3  4  1  0  0  0  0
  4  9  1  0  0  0  0
  4  5  2  0  0  0  0
  5 10  1  0  0  0  0
  6  5  1  0  0  0  0
  6 11  1  0  0  0  0
  7  6  2  0  0  0  0
  8  3  1  0  0  0  0
  8  7  1  0  0  0  0
 12  7  1  0  0  0  0
 13  1  1  0  0  0  0
 14  8  2  0  0  0  0
 15 14  1  0  0  0  0
 15  1  1  0  0  0  0
 16 15  1  0  0  0  0
 17 18  1  0  0  0  0
 17 16  2  0  0  0  0
 18 19  2  0  0  0  0
 19 20  1  0  0  0  0
 19 14  1  0  0  0  0
 21 18  1  0  0  0  0
 22 17  1  0  0  0  0
 23 16  1  0  0  0  0
M  END
$$$$
