CSD_code = RESKUW | q = 0 | S = 0 | Stoichiometry = C27H30Br3N2NiP | MND = 4
 OpenBabel04212202093D

 64 67  0  0  0  0  0  0  0  0999 V2000
   14.8800    6.2660   22.9300 Br  0  0  0  0  0  0  0  0  0  0  0  0
   11.9903    3.7156   22.7786 Br  0  0  0  0  0  0  0  0  0  0  0  0
   14.0822    3.6630   26.2579 Br  0  0  0  0  0  0  0  0  0  0  0  0
   13.7510    4.6772   24.2224 Ni  0  0  0  0  0  0  0  0  0  0  0  0
   12.6534    6.1772   25.1856 P   0  0  0  0  0  4  0  0  0  0  0  0
   12.4838    5.5175   19.7451 N   0  0  0  0  0  0  0  0  0  0  0  0
   13.6550    7.1981   26.3053 C   0  0  0  0  0  0  0  0  0  0  0  0
   14.0703    2.5523   18.2082 C   0  0  0  0  0  0  0  0  0  0  0  0
   14.9318    1.9186   18.3573 H   0  0  0  0  0  0  0  0  0  0  0  0
   11.4519    6.8838   21.0835 N   0  0  0  0  0  0  0  0  0  0  0  0
   10.4532    7.4412   21.9655 C   0  0  0  0  0  0  0  0  0  0  0  0
    9.4683    7.1617   21.5830 H   0  0  0  0  0  0  0  0  0  0  0  0
   10.5503    8.5292   21.9387 H   0  0  0  0  0  0  0  0  0  0  0  0
   11.4097    5.6767   20.5157 C   0  0  0  0  0  3  0  0  0  0  0  0
   10.6393    4.9471   20.6534 H   0  0  0  0  0  0  0  0  0  0  0  0
   13.8622    3.6105   19.0827 C   0  0  0  0  0  0  0  0  0  0  0  0
   11.2144    5.7164   26.2054 C   0  0  0  0  0  0  0  0  0  0  0  0
   15.2584    8.6719   28.0240 C   0  0  0  0  0  0  0  0  0  0  0  0
   15.8877    9.2421   28.6914 H   0  0  0  0  0  0  0  0  0  0  0  0
   11.8474    4.1737   17.8336 C   0  0  0  0  0  0  0  0  0  0  0  0
   13.2028    2.2837   17.1619 C   0  0  0  0  0  0  0  0  0  0  0  0
   13.2445    6.6453   19.8390 C   0  0  0  0  0  0  0  0  0  0  0  0
   14.1734    6.7625   19.3233 H   0  0  0  0  0  0  0  0  0  0  0  0
   12.7365    4.4121   18.8845 C   0  0  0  0  0  0  0  0  0  0  0  0
   10.6253    6.6909   27.0065 C   0  0  0  0  0  0  0  0  0  0  0  0
   11.0459    7.6872   27.0414 H   0  0  0  0  0  0  0  0  0  0  0  0
   10.5927    6.9298   23.4037 C   0  0  0  0  0  0  0  0  0  0  0  0
    9.7018    7.2175   23.9619 H   0  0  0  0  0  0  0  0  0  0  0  0
   10.6160    5.8379   23.3683 H   0  0  0  0  0  0  0  0  0  0  0  0
   11.8459    7.4636   24.0988 C   0  0  0  0  0  0  0  0  0  0  0  0
   11.6096    8.3244   24.7293 H   0  0  0  0  0  0  0  0  0  0  0  0
   12.5870    7.7741   23.3612 H   0  0  0  0  0  0  0  0  0  0  0  0
    8.9908    5.0977   27.7438 C   0  0  0  0  0  0  0  0  0  0  0  0
    8.1294    4.8572   28.3492 H   0  0  0  0  0  0  0  0  0  0  0  0
   15.1673    9.0243   26.6880 C   0  0  0  0  0  0  0  0  0  0  0  0
   15.7261    9.8673   26.3089 H   0  0  0  0  0  0  0  0  0  0  0  0
   12.0984    3.1072   16.9862 C   0  0  0  0  0  0  0  0  0  0  0  0
   11.4175    2.9123   16.1707 H   0  0  0  0  0  0  0  0  0  0  0  0
    9.5204    6.3788   27.7741 C   0  0  0  0  0  0  0  0  0  0  0  0
    9.0736    7.1357   28.4024 H   0  0  0  0  0  0  0  0  0  0  0  0
   14.8010    3.8421   20.2173 C   0  0  0  0  0  0  0  0  0  0  0  0
   15.5692    3.0746   20.2400 H   0  0  0  0  0  0  0  0  0  0  0  0
   14.2540    3.8076   21.1569 H   0  0  0  0  0  0  0  0  0  0  0  0
   15.2851    4.8148   20.1630 H   0  0  0  0  0  0  0  0  0  0  0  0
   12.6008    7.4978   20.6772 C   0  0  0  0  0  0  0  0  0  0  0  0
   12.8881    8.4742   21.0052 H   0  0  0  0  0  0  0  0  0  0  0  0
   13.7587    6.8389   27.6462 C   0  0  0  0  0  0  0  0  0  0  0  0
   13.2241    5.9744   28.0145 H   0  0  0  0  0  0  0  0  0  0  0  0
   10.6800    4.4365   26.1769 C   0  0  0  0  0  0  0  0  0  0  0  0
   11.1340    3.6696   25.5661 H   0  0  0  0  0  0  0  0  0  0  0  0
   14.3719    8.2901   25.8269 C   0  0  0  0  0  0  0  0  0  0  0  0
   14.3317    8.5540   24.7802 H   0  0  0  0  0  0  0  0  0  0  0  0
    9.5702    4.1287   26.9443 C   0  0  0  0  0  0  0  0  0  0  0  0
    9.1642    3.1288   26.9196 H   0  0  0  0  0  0  0  0  0  0  0  0
   14.5540    7.5781   28.5009 C   0  0  0  0  0  0  0  0  0  0  0  0
   14.6320    7.2916   29.5391 H   0  0  0  0  0  0  0  0  0  0  0  0
   10.6453    5.0421   17.6028 C   0  0  0  0  0  0  0  0  0  0  0  0
    9.8227    4.7332   18.2466 H   0  0  0  0  0  0  0  0  0  0  0  0
   10.3134    4.9479   16.5723 H   0  0  0  0  0  0  0  0  0  0  0  0
   10.8618    6.0906   17.8003 H   0  0  0  0  0  0  0  0  0  0  0  0
   13.4479    1.1433   16.2242 C   0  0  0  0  0  0  0  0  0  0  0  0
   13.7473    1.5207   15.2466 H   0  0  0  0  0  0  0  0  0  0  0  0
   12.5407    0.5574   16.0912 H   0  0  0  0  0  0  0  0  0  0  0  0
   14.2345    0.4936   16.5975 H   0  0  0  0  0  0  0  0  0  0  0  0
  1  4  1  0  0  0  0
  2  4  1  0  0  0  0
  4  5  1  0  0  0  0
  4  3  1  0  0  0  0
  5 17  1  0  0  0  0
  5  7  1  0  0  0  0
  6 22  1  0  0  0  0
  6 14  1  0  0  0  0
  7 47  1  0  0  0  0
  8  9  1  0  0  0  0
  8 16  1  0  0  0  0
 10 11  1  0  0  0  0
 11 27  1  0  0  0  0
 12 11  1  0  0  0  0
 13 11  1  0  0  0  0
 14 15  1  0  0  0  0
 14 10  1  0  0  0  0
 16 41  1  0  0  0  0
 17 25  1  0  0  0  0
 18 55  1  0  0  0  0
 18 19  1  0  0  0  0
 20 24  1  0  0  0  0
 21  8  2  0  0  0  0
 22 45  2  0  0  0  0
 23 22  1  0  0  0  0
 24 16  2  0  0  0  0
 24  6  1  0  0  0  0
 25 26  1  0  0  0  0
 25 39  2  0  0  0  0
 27 28  1  0  0  0  0
 27 30  1  0  0  0  0
 29 27  1  0  0  0  0
 30 31  1  0  0  0  0
 30  5  1  0  0  0  0
 32 30  1  0  0  0  0
 33 39  1  0  0  0  0
 33 34  1  0  0  0  0
 35 18  2  0  0  0  0
 36 35  1  0  0  0  0
 37 21  1  0  0  0  0
 37 20  2  0  0  0  0
 38 37  1  0  0  0  0
 39 40  1  0  0  0  0
 41 42  1  0  0  0  0
 41 43  1  0  0  0  0
 44 41  1  0  0  0  0
 45 46  1  0  0  0  0
 45 10  1  0  0  0  0
 47 48  1  0  0  0  0
 47 55  2  0  0  0  0
 49 17  2  0  0  0  0
 49 53  1  0  0  0  0
 50 49  1  0  0  0  0
 51  7  2  0  0  0  0
 51 35  1  0  0  0  0
 52 51  1  0  0  0  0
 53 33  2  0  0  0  0
 54 53  1  0  0  0  0
 55 56  1  0  0  0  0
 57 60  1  0  0  0  0
 57 20  1  0  0  0  0
 57 58  1  0  0  0  0
 59 57  1  0  0  0  0
 61 64  1  0  0  0  0
 61 21  1  0  0  0  0
 62 61  1  0  0  0  0
 63 61  1  0  0  0  0
M  END
$$$$
