CSD_code = RESKOR | q = 0 | S = 0 | Stoichiometry = C18H26Cl2N2NiO2 | MND = 6
 OpenBabel04212202093D

 51 52  0  0  1  0  0  0  0  0999 V2000
    1.6342    4.8314    7.7362 Ni  0  0  0  0  0  0  0  0  0  0  0  0
    3.2050    5.7120    6.4500 Cl  0  0  0  0  0  0  0  0  0  0  0  0
    3.5176    5.0558    9.3381 O   0  0  0  0  0  0  0  0  0  0  0  0
    1.1144    6.5683    8.2350 N   0  0  0  0  0  0  0  0  0  0  0  0
    3.4034    6.0403   10.3556 C   0  0  0  0  0  0  0  0  0  0  0  0
    4.1891    7.2948    9.9770 C   0  0  0  0  0  0  0  0  0  0  0  0
    5.2540    7.0715    9.9440 H   0  0  0  0  0  0  0  0  0  0  0  0
    4.0245    8.0852   10.7048 H   0  0  0  0  0  0  0  0  0  0  0  0
    3.8808    7.6544    8.9962 H   0  0  0  0  0  0  0  0  0  0  0  0
    3.9528    5.4348   11.6532 C   0  0  0  0  0  0  0  0  0  0  0  0
    3.3705    4.5593   11.9277 H   0  0  0  0  0  0  0  0  0  0  0  0
    3.9113    6.1573   12.4631 H   0  0  0  0  0  0  0  0  0  0  0  0
    4.9856    5.1285   11.5052 H   0  0  0  0  0  0  0  0  0  0  0  0
    1.8996    6.3580   10.5491 C   0  0  0  0  0  0  0  0  0  0  0  0
    1.3771    5.3990   10.6084 H   0  0  0  0  0  0  0  0  0  0  0  0
    1.7616    6.8971   11.4857 H   0  0  0  0  0  0  0  0  0  0  0  0
    1.3165    7.1501    9.4224 C   0  0  2  0  0  3  0  0  0  0  0  0
    0.9872    8.4890    9.6265 C   0  0  0  0  0  0  0  0  0  0  0  0
    1.1686    8.9323   10.5934 H   0  0  0  0  0  0  0  0  0  0  0  0
    0.4330    9.2337    8.6052 C   0  0  0  0  0  0  0  0  0  0  0  0
    0.1762   10.2717    8.7544 H   0  0  0  0  0  0  0  0  0  0  0  0
    0.2135    8.6099    7.3875 C   0  0  0  0  0  0  0  0  0  0  0  0
   -0.2232    9.1383    6.5556 H   0  0  0  0  0  0  0  0  0  0  0  0
    0.5719    7.2836    7.2489 C   0  0  0  0  0  0  0  0  0  0  0  0
    0.4152    6.7709    6.3092 H   0  0  0  0  0  0  0  0  0  0  0  0
    4.0542    5.3978    8.6031 H   0  0  0  0  0  0  0  0  0  0  0  0
    0.0644    3.9500    9.0237 Cl  0  0  0  0  0  0  0  0  0  0  0  0
   -0.2500    4.6083    6.1353 O   0  0  0  0  0  0  0  0  0  0  0  0
    2.1536    3.0946    7.2373 N   0  0  0  0  0  0  0  0  0  0  0  0
   -0.1366    3.6244    5.1172 C   0  0  0  0  0  0  0  0  0  0  0  0
   -0.9241    2.3707    5.4944 C   0  0  0  0  0  0  0  0  0  0  0  0
   -1.9886    2.5958    5.5283 H   0  0  0  0  0  0  0  0  0  0  0  0
   -0.7613    1.5810    4.7653 H   0  0  0  0  0  0  0  0  0  0  0  0
   -0.6159    2.0091    6.4745 H   0  0  0  0  0  0  0  0  0  0  0  0
   -0.6846    4.2319    3.8200 C   0  0  0  0  0  0  0  0  0  0  0  0
   -0.1010    5.1069    3.5466 H   0  0  0  0  0  0  0  0  0  0  0  0
   -0.6438    3.5102    3.0093 H   0  0  0  0  0  0  0  0  0  0  0  0
   -1.7171    4.5394    3.9680 H   0  0  0  0  0  0  0  0  0  0  0  0
    1.3668    3.3046    4.9237 C   0  0  0  0  0  0  0  0  0  0  0  0
    1.8904    4.2629    4.8637 H   0  0  0  0  0  0  0  0  0  0  0  0
    1.5038    2.7648    3.9872 H   0  0  0  0  0  0  0  0  0  0  0  0
    1.9498    2.5124    6.0503 C   0  0  1  0  0  3  0  0  0  0  0  0
    2.2786    1.1734    5.8465 C   0  0  0  0  0  0  0  0  0  0  0  0
    2.0957    0.7297    4.8800 H   0  0  0  0  0  0  0  0  0  0  0  0
    2.8344    0.4292    6.8672 C   0  0  0  0  0  0  0  0  0  0  0  0
    3.0910   -0.6090    6.7180 H   0  0  0  0  0  0  0  0  0  0  0  0
    3.0560    1.0534    8.0842 C   0  0  0  0  0  0  0  0  0  0  0  0
    3.4942    0.5255    8.9156 H   0  0  0  0  0  0  0  0  0  0  0  0
    2.6976    2.3797    8.2229 C   0  0  0  0  0  0  0  0  0  0  0  0
    2.8558    2.8928    9.1621 H   0  0  0  0  0  0  0  0  0  0  0  0
   -0.7854    4.2652    6.8710 H   0  0  0  0  0  0  0  0  0  0  0  0
  1  4  1  0  0  0  0
  1 27  1  0  0  0  0
  2  1  1  0  0  0  0
  3  5  1  0  0  0  0
  4 17  1  0  0  0  0
  5 14  1  0  0  0  0
  5 10  1  0  0  0  0
  6  5  1  0  0  0  0
  6  8  1  0  0  0  0
  7  6  1  0  0  0  0
  9  6  1  0  0  0  0
 10 11  1  0  0  0  0
 10 12  1  0  0  0  0
 13 10  1  0  0  0  0
 14 15  1  0  0  0  0
 14 16  1  0  0  0  0
 17 18  1  0  0  0  0
 17 14  1  1  0  0  0
 18 19  1  0  0  0  0
 20 21  1  0  0  0  0
 20 18  2  0  0  0  0
 22 20  1  0  0  0  0
 23 22  1  0  0  0  0
 24 22  2  0  0  0  0
 24  4  1  0  0  0  0
 25 24  1  0  0  0  0
 26  3  1  0  0  0  0
 28 51  1  0  0  0  0
 29  1  1  0  0  0  0
 29 49  1  0  0  0  0
 30 31  1  0  0  0  0
 30 28  1  0  0  0  0
 31 32  1  0  0  0  0
 31 34  1  0  0  0  0
 33 31  1  0  0  0  0
 35 38  1  0  0  0  0
 35 30  1  0  0  0  0
 36 35  1  0  0  0  0
 37 35  1  0  0  0  0
 39 30  1  0  0  0  0
 40 39  1  0  0  0  0
 41 39  1  0  0  0  0
 42 39  1  6  0  0  0
 42 29  1  0  0  0  0
 43 42  1  0  0  0  0
 43 45  2  0  0  0  0
 44 43  1  0  0  0  0
 45 47  1  0  0  0  0
 46 45  1  0  0  0  0
 47 49  2  0  0  0  0
 47 48  1  0  0  0  0
 49 50  1  0  0  0  0
M  END
$$$$
