CSD_code = RESSIS | q = 0 | S = 0 | Stoichiometry = C16H14Br2N2PdS | MND = 4
 OpenBabel04212202093D

 36 38  0  0  0  0  0  0  0  0999 V2000
   -0.0708    2.6908    1.9894 Pd  0  0  0  0  0  0  0  0  0  0  0  0
   -1.7078    0.9838    2.6099 Br  0  0  0  0  0  0  0  0  0  0  0  0
    1.6304    4.3384    1.4209 Br  0  0  0  0  0  0  0  0  0  0  0  0
    1.8349    0.5432    0.4817 S   0  0  0  0  0  0  0  0  0  0  0  0
    1.8075    0.7326    3.0033 N   0  0  0  0  0  0  0  0  0  0  0  0
   -1.4381    4.0963    2.0141 N   0  0  0  0  0  2  0  0  0  0  0  0
    1.2596    1.2867    1.9259 C   0  0  0  0  0  0  0  0  0  0  0  0
    2.8374   -0.5562    1.3974 C   0  0  0  0  0  0  0  0  0  0  0  0
    3.6752   -1.5549    0.9307 C   0  0  0  0  0  0  0  0  0  0  0  0
    3.7748   -1.7342   -0.1275 H   0  0  0  0  0  0  0  0  0  0  0  0
    4.3686   -2.3044    1.8605 C   0  0  0  0  0  0  0  0  0  0  0  0
    5.0284   -3.0893    1.5255 H   0  0  0  0  0  0  0  0  0  0  0  0
    4.2259   -2.0608    3.2238 C   0  0  0  0  0  0  0  0  0  0  0  0
    4.7773   -2.6622    3.9297 H   0  0  0  0  0  0  0  0  0  0  0  0
    3.3928   -1.0650    3.6933 C   0  0  0  0  0  0  0  0  0  0  0  0
    3.2940   -0.8802    4.7498 H   0  0  0  0  0  0  0  0  0  0  0  0
    2.6921   -0.3025    2.7660 C   0  0  0  0  0  0  0  0  0  0  0  0
    1.4981    1.1927    4.3490 C   0  0  0  0  0  0  0  0  0  0  0  0
    1.0472    0.3662    4.9081 H   0  0  0  0  0  0  0  0  0  0  0  0
    0.7438    2.0064    4.2590 H   0  0  0  0  0  0  0  0  0  0  0  0
    2.7237    1.7204    5.0504 C   0  0  0  0  0  0  0  0  0  0  0  0
    3.0365    1.3061    6.3381 C   0  0  0  0  0  0  0  0  0  0  0  0
    2.3952    0.5999    6.8473 H   0  0  0  0  0  0  0  0  0  0  0  0
    4.1600    1.8033    6.9752 C   0  0  0  0  0  0  0  0  0  0  0  0
    4.3948    1.4786    7.9780 H   0  0  0  0  0  0  0  0  0  0  0  0
    4.9797    2.7122    6.3280 C   0  0  0  0  0  0  0  0  0  0  0  0
    5.8574    3.0967    6.8254 H   0  0  0  0  0  0  0  0  0  0  0  0
    4.6673    3.1327    5.0461 C   0  0  0  0  0  0  0  0  0  0  0  0
    5.2950    3.8497    4.5398 H   0  0  0  0  0  0  0  0  0  0  0  0
    3.5418    2.6423    4.4096 C   0  0  0  0  0  0  0  0  0  0  0  0
    3.2932    2.9908    3.4173 H   0  0  0  0  0  0  0  0  0  0  0  0
   -2.1817    4.9585    1.8698 C   0  0  0  0  0  2  0  0  0  0  0  0
   -3.1059    6.0334    1.7058 C   0  0  0  0  0  0  0  0  0  0  0  0
   -3.5193    6.3102    2.6756 H   0  0  0  0  0  0  0  0  0  0  0  0
   -3.9141    5.7218    1.0438 H   0  0  0  0  0  0  0  0  0  0  0  0
   -2.5902    6.8906    1.2723 H   0  0  0  0  0  0  0  0  0  0  0  0
  1  6  1  0  0  0  0
  1  2  1  0  0  0  0
  3  1  1  0  0  0  0
  4  8  1  0  0  0  0
  4  7  1  0  0  0  0
  5 18  1  0  0  0  0
  7  1  2  0  0  0  0
  7  5  1  0  0  0  0
  8 17  1  0  0  0  0
  9  8  2  0  0  0  0
  9 11  1  0  0  0  0
 10  9  1  0  0  0  0
 11 13  2  0  0  0  0
 12 11  1  0  0  0  0
 13 15  1  0  0  0  0
 13 14  1  0  0  0  0
 15 16  1  0  0  0  0
 17  5  1  0  0  0  0
 17 15  2  0  0  0  0
 18 19  1  0  0  0  0
 18 21  1  0  0  0  0
 20 18  1  0  0  0  0
 21 22  1  0  0  0  0
 22 23  1  0  0  0  0
 22 24  2  0  0  0  0
 24 25  1  0  0  0  0
 26 27  1  0  0  0  0
 26 24  1  0  0  0  0
 28 26  2  0  0  0  0
 29 28  1  0  0  0  0
 30 28  1  0  0  0  0
 30 21  2  0  0  0  0
 31 30  1  0  0  0  0
 32  6  1  0  0  0  0
 33 32  1  0  0  0  0
 33 34  1  0  0  0  0
 35 33  1  0  0  0  0
 36 33  1  0  0  0  0
M  END
$$$$
