CSD_code = RESWAQ | q = 1 | S = 0 | Stoichiometry = C19H25ClN3O2RuS(1+) | MND = 9
 OpenBabel04212202093D

 52 52  0  0  1  0  0  0  0  0999 V2000
    7.0713    4.1590    8.3135 Cl  0  0  0  0  0 15  0  0  0  0  0  0
    8.5175    4.9486    9.9547 Ru  0  0  0  0  0  0  0  0  0  0  0  0
    7.7882    3.1072   11.2384 S   0  0  0  0  0  0  0  0  0  0  0  0
    6.3188    3.7571   11.7376 C   0  0  0  0  0  0  0  0  0  0  0  0
    5.4469    3.0333   12.4455 N   0  0  0  0  0  0  0  0  0  0  0  0
    4.5287    3.3723   12.6821 H   0  0  0  0  0  0  0  0  0  0  0  0
    5.6387    2.0535   12.5796 H   0  0  0  0  0  0  0  0  0  0  0  0
    6.0560    5.0502   11.4772 N   0  0  0  0  0  0  0  0  0  0  0  0
    5.1873    5.4772   11.7979 H   0  0  0  0  0  0  0  0  0  0  0  0
    6.9052    5.8428   10.7381 N   0  0  0  0  0  0  0  0  0  0  0  0
    6.6088    7.1000   10.7061 C   0  0  0  0  0  3  0  0  0  0  0  0
    5.8402    7.4890   11.3736 H   0  0  0  0  0  0  0  0  0  0  0  0
    7.1960    8.0531    9.7974 C   0  0  0  0  0  0  0  0  0  0  0  0
    7.4986    7.7132    8.4693 C   0  0  0  0  0  0  0  0  0  0  0  0
    7.3202    6.7005    8.1289 H   0  0  0  0  0  0  0  0  0  0  0  0
    7.9240    8.6854    7.5940 C   0  0  0  0  0  0  0  0  0  0  0  0
    8.1247    8.4325    6.5647 H   0  0  0  0  0  0  0  0  0  0  0  0
    8.0806   10.0053    8.0081 C   0  0  0  0  0  0  0  0  0  0  0  0
    8.4161   10.7453    7.3001 H   0  0  0  0  0  0  0  0  0  0  0  0
    7.7869   10.3623    9.3128 C   0  0  0  0  0  0  0  0  0  0  0  0
    7.8820   11.6127    9.8495 O   0  0  0  0  0  0  0  0  0  0  0  0
    7.3278    9.3830   10.2138 C   0  0  0  0  0  0  0  0  0  0  0  0
    7.0370    9.7095   11.4928 O   0  0  0  0  0  0  0  0  0  0  0  0
    7.1531   10.6664   11.5967 H   0  0  0  0  0  0  0  0  0  0  0  0
    8.2595   12.6817    9.0077 C   0  0  0  0  0  0  0  0  0  0  0  0
    7.5553   12.8017    8.1806 H   0  0  0  0  0  0  0  0  0  0  0  0
    9.2703   12.5401    8.6161 H   0  0  0  0  0  0  0  0  0  0  0  0
    8.2363   13.5700    9.6357 H   0  0  0  0  0  0  0  0  0  0  0  0
   10.3652    6.6654   10.1776 C   0  0  0  0  0  0  0  0  0  0  0  0
   10.3672    7.6701   10.5850 H   0  0  0  0  0  0  0  0  0  0  0  0
   10.2832    6.4988    8.7857 C   0  0  0  0  0  0  0  0  0  0  0  0
   10.2254    7.3738    8.1523 H   0  0  0  0  0  0  0  0  0  0  0  0
   10.3435    5.2245    8.2004 C   0  0  0  0  0  0  0  0  0  0  0  0
   10.4788    4.1115    9.0611 C   0  0  0  0  0  0  0  0  0  0  0  0
   10.6025    3.1213    8.6334 H   0  0  0  0  0  0  0  0  0  0  0  0
   10.6271    4.2878   10.4522 C   0  0  1  0  0  0  0  0  0  0  0  0
   10.8642    3.4223   11.0617 H   0  0  0  0  0  0  0  0  0  0  0  0
   10.5832    5.5734   11.0384 C   0  0  1  0  0  3  0  0  0  0  0  0
   10.7695    5.8187   12.5196 C   0  0  0  0  0  0  0  0  0  0  0  0
   11.3753    6.7260   12.6278 H   0  0  0  0  0  0  0  0  0  0  0  0
    9.3984    6.0798   13.1567 C   0  0  0  0  0  0  0  0  0  0  0  0
    8.9073    6.9343   12.6925 H   0  0  0  0  0  0  0  0  0  0  0  0
    9.5123    6.2850   14.2177 H   0  0  0  0  0  0  0  0  0  0  0  0
    8.7665    5.1962   13.0433 H   0  0  0  0  0  0  0  0  0  0  0  0
   11.4772    4.6764   13.2438 C   0  0  0  0  0  0  0  0  0  0  0  0
   10.8501    3.7885   13.2857 H   0  0  0  0  0  0  0  0  0  0  0  0
   11.6968    4.9774   14.2646 H   0  0  0  0  0  0  0  0  0  0  0  0
   12.4167    4.4286   12.7557 H   0  0  0  0  0  0  0  0  0  0  0  0
   10.2863    5.0379    6.7211 C   0  0  0  0  0  0  0  0  0  0  0  0
    9.3494    4.5492    6.4489 H   0  0  0  0  0  0  0  0  0  0  0  0
   11.0996    4.3962    6.3863 H   0  0  0  0  0  0  0  0  0  0  0  0
   10.3422    5.9905    6.2013 H   0  0  0  0  0  0  0  0  0  0  0  0
  2 36  1  0  0  0  0
  2 10  1  0  0  0  0
  3  4  2  0  0  0  0
  4  5  1  0  0  0  0
  5  7  1  0  0  0  0
  5  6  1  0  0  0  0
  8  4  1  0  0  0  0
  8  9  1  0  0  0  0
 10  8  1  0  0  0  0
 11 10  1  0  0  0  0
 11 12  1  0  0  0  0
 13 22  1  0  0  0  0
 13 11  1  0  0  0  0
 14 13  2  0  0  0  0
 15 14  1  0  0  0  0
 16 18  2  0  0  0  0
 16 14  1  0  0  0  0
 17 16  1  0  0  0  0
 18 20  1  0  0  0  0
 19 18  1  0  0  0  0
 20 21  1  0  0  0  0
 20 22  2  0  0  0  0
 22 23  1  0  0  0  0
 23 24  1  0  0  0  0
 25 28  1  0  0  0  0
 25 21  1  0  0  0  0
 26 25  1  0  0  0  0
 27 25  1  0  0  0  0
 29 30  1  0  0  0  0
 29 38  1  0  0  0  0
 31 29  2  0  0  0  0
 32 31  1  0  0  0  0
 33 31  1  0  0  0  0
 33 34  2  0  0  0  0
 34 36  1  0  0  0  0
 35 34  1  0  0  0  0
 36 38  1  0  0  0  0
 36 37  1  1  0  0  0
 38 39  1  6  0  0  0
 39 40  1  0  0  0  0
 39 41  1  0  0  0  0
 39 45  1  0  0  0  0
 41 43  1  0  0  0  0
 42 41  1  0  0  0  0
 44 41  1  0  0  0  0
 45 46  1  0  0  0  0
 45 47  1  0  0  0  0
 48 45  1  0  0  0  0
 49 33  1  0  0  0  0
 50 49  1  0  0  0  0
 51 49  1  0  0  0  0
 52 49  1  0  0  0  0
M  END
$$$$
