CSD_code = RESYOD | q = 0 | S = 0 | Stoichiometry = C10H23Cl2N2V | MND = 4
 OpenBabel04212202093D

 38 37  0  0  0  0  0  0  0  0999 V2000
    3.7216    3.2227    5.1523 V   0  0  0  0  0  0  0  0  0  0  0  0
    2.4632    4.5998    6.0832 Cl  0  0  0  0  0  0  0  0  0  0  0  0
    5.0221    4.0957    3.7722 Cl  0  0  0  0  0  0  0  0  0  0  0  0
    4.6205    2.5772    6.2934 N   0  0  0  0  0  2  0  0  0  0  0  0
    2.8473    1.9192    4.4281 N   0  0  0  0  0  0  0  0  0  0  0  0
    5.4874    2.4228    7.3844 C   0  0  0  0  0  0  0  0  0  0  0  0
    4.6636    2.3832    8.6858 C   0  0  0  0  0  0  0  0  0  0  0  0
    6.3418    1.1506    7.2505 C   0  0  0  0  0  0  0  0  0  0  0  0
    6.4006    3.6673    7.3849 C   0  0  0  0  0  0  0  0  0  0  0  0
    2.0088    2.5145    3.4189 C   0  0  0  0  0  0  0  0  0  0  0  0
    0.5186    2.3257    3.7308 C   0  0  0  0  0  0  0  0  0  0  0  0
    2.3633    2.0240    2.0095 C   0  0  0  0  0  0  0  0  0  0  0  0
    2.8022    0.4876    4.5901 C   0  0  0  0  0  0  0  0  0  0  0  0
    2.4015    0.1470    6.0295 C   0  0  0  0  0  0  0  0  0  0  0  0
    4.1760   -0.1053    4.2533 C   0  0  0  0  0  0  0  0  0  0  0  0
    4.0875    1.4622    8.7415 H   0  0  0  0  0  0  0  0  0  0  0  0
    3.9736    3.2260    8.6961 H   0  0  0  0  0  0  0  0  0  0  0  0
    5.3209    2.4428    9.5491 H   0  0  0  0  0  0  0  0  0  0  0  0
    7.0397    1.0847    8.0810 H   0  0  0  0  0  0  0  0  0  0  0  0
    6.9009    1.1823    6.3174 H   0  0  0  0  0  0  0  0  0  0  0  0
    5.7062    0.2680    7.2530 H   0  0  0  0  0  0  0  0  0  0  0  0
    6.9503    3.7117    6.4452 H   0  0  0  0  0  0  0  0  0  0  0  0
    7.1023    3.6253    8.2138 H   0  0  0  0  0  0  0  0  0  0  0  0
    5.7850    4.5630    7.4732 H   0  0  0  0  0  0  0  0  0  0  0  0
    2.2094    3.5992    3.4418 H   0  0  0  0  0  0  0  0  0  0  0  0
    0.2296    1.2785    3.6582 H   0  0  0  0  0  0  0  0  0  0  0  0
   -0.0839    2.8976    3.0284 H   0  0  0  0  0  0  0  0  0  0  0  0
    0.3107    2.6798    4.7412 H   0  0  0  0  0  0  0  0  0  0  0  0
    2.1248    0.9690    1.8856 H   0  0  0  0  0  0  0  0  0  0  0  0
    3.4290    2.1697    1.8306 H   0  0  0  0  0  0  0  0  0  0  0  0
    1.8039    2.5911    1.2684 H   0  0  0  0  0  0  0  0  0  0  0  0
    2.0567    0.0504    3.9113 H   0  0  0  0  0  0  0  0  0  0  0  0
    3.1059    0.6229    6.7096 H   0  0  0  0  0  0  0  0  0  0  0  0
    2.4078   -0.9294    6.1827 H   0  0  0  0  0  0  0  0  0  0  0  0
    1.4045    0.5287    6.2413 H   0  0  0  0  0  0  0  0  0  0  0  0
    4.9326    0.4155    4.8389 H   0  0  0  0  0  0  0  0  0  0  0  0
    4.3984    0.0340    3.1975 H   0  0  0  0  0  0  0  0  0  0  0  0
    4.1992   -1.1684    4.4796 H   0  0  0  0  0  0  0  0  0  0  0  0
  1  2  1  0  0  0  0
  1  4  1  0  0  0  0
  3  1  1  0  0  0  0
  4  6  1  0  0  0  0
  5 13  1  0  0  0  0
  5  1  1  0  0  0  0
  6  9  1  0  0  0  0
  6  7  1  0  0  0  0
  7 17  1  0  0  0  0
  7 16  1  0  0  0  0
  7 18  1  0  0  0  0
  8 21  1  0  0  0  0
  8  6  1  0  0  0  0
  8 19  1  0  0  0  0
  9 24  1  0  0  0  0
  9 23  1  0  0  0  0
 10 25  1  0  0  0  0
 10 11  1  0  0  0  0
 10  5  1  0  0  0  0
 11 28  1  0  0  0  0
 12 10  1  0  0  0  0
 13 14  1  0  0  0  0
 14 34  1  0  0  0  0
 14 35  1  0  0  0  0
 14 33  1  0  0  0  0
 15 38  1  0  0  0  0
 15 13  1  0  0  0  0
 15 36  1  0  0  0  0
 20  8  1  0  0  0  0
 22  9  1  0  0  0  0
 26 11  1  0  0  0  0
 27 11  1  0  0  0  0
 29 12  1  0  0  0  0
 30 12  1  0  0  0  0
 31 12  1  0  0  0  0
 32 13  1  0  0  0  0
 37 15  1  0  0  0  0
M  END
$$$$
