CSD_code = RETFAZ | q = 0 | S = 0 | Stoichiometry = C16H17I2N3Pt | MND = 4
 OpenBabel04212202093D

 39 41  0  0  0  0  0  0  0  0999 V2000
   -1.5117    2.8310   16.2897 C   0  0  0  0  0  0  0  0  0  0  0  0
   -1.6379    4.8061   17.2984 C   0  0  0  0  0  0  0  0  0  0  0  0
   -1.2952    5.7621   17.6354 H   0  0  0  0  0  0  0  0  0  0  0  0
   -2.8281    4.1819   17.4613 C   0  0  0  0  0  0  0  0  0  0  0  0
   -3.7194    4.4967   17.9632 H   0  0  0  0  0  0  0  0  0  0  0  0
    0.5170    4.2251   16.1642 C   0  0  0  0  0  0  0  0  0  0  0  0
    0.5226    5.0331   15.4251 H   0  0  0  0  0  0  0  0  0  0  0  0
    0.8837    3.3053   15.6763 H   0  0  0  0  0  0  0  0  0  0  0  0
    1.3859    4.5746   17.3433 C   0  0  0  0  0  0  0  0  0  0  0  0
    2.0811    5.7747   17.3841 C   0  0  0  0  0  0  0  0  0  0  0  0
    2.0094    6.4658   16.5559 H   0  0  0  0  0  0  0  0  0  0  0  0
    2.8705    6.0861   18.4779 C   0  0  0  0  0  0  0  0  0  0  0  0
    3.4115    7.0206   18.4998 H   0  0  0  0  0  0  0  0  0  0  0  0
    2.9636    5.2040   19.5405 C   0  0  0  0  0  0  0  0  0  0  0  0
    3.5785    5.4488   20.3937 H   0  0  0  0  0  0  0  0  0  0  0  0
    2.2688    4.0062   19.5060 C   0  0  0  0  0  0  0  0  0  0  0  0
    2.3398    3.3123   20.3297 H   0  0  0  0  0  0  0  0  0  0  0  0
    1.4845    3.6916   18.4119 C   0  0  0  0  0  0  0  0  0  0  0  0
    0.9502    2.7538   18.3852 H   0  0  0  0  0  0  0  0  0  0  0  0
   -3.7684    1.9768   16.7499 C   0  0  0  0  0  0  0  0  0  0  0  0
   -3.4078    1.1583   16.1162 H   0  0  0  0  0  0  0  0  0  0  0  0
   -4.6699    2.4014   16.3065 H   0  0  0  0  0  0  0  0  0  0  0  0
   -4.0012    1.5824   17.7406 H   0  0  0  0  0  0  0  0  0  0  0  0
   -0.9613   -1.1611   13.6764 C   0  0  0  0  0  3  0  0  0  0  0  0
   -2.0171   -1.0260   13.8916 H   0  0  0  0  0  0  0  0  0  0  0  0
   -0.5189   -2.2353   12.9281 C   0  0  0  0  0  0  0  0  0  0  0  0
   -1.2266   -2.9566   12.5521 H   0  0  0  0  0  0  0  0  0  0  0  0
    0.8385   -2.3597   12.6746 C   0  0  0  0  0  0  0  0  0  0  0  0
    1.2174   -3.1855   12.0925 H   0  0  0  0  0  0  0  0  0  0  0  0
    1.6984   -1.3996   13.1857 C   0  0  0  0  0  0  0  0  0  0  0  0
    2.7618   -1.4536   13.0157 H   0  0  0  0  0  0  0  0  0  0  0  0
    1.1710   -0.3598   13.9273 C   0  0  0  0  0  0  0  0  0  0  0  0
    1.8129    0.4080   14.3497 H   0  0  0  0  0  0  0  0  0  0  0  0
   -0.8428    3.9596   16.5743 N   0  0  0  0  0  0  0  0  0  0  0  0
   -2.7323    2.9695   16.8314 N   0  0  0  0  0  0  0  0  0  0  0  0
   -0.1323   -0.2436   14.1659 N   0  0  0  0  0  0  0  0  0  0  0  0
   -0.3050   -0.0290   17.4448 I   0  0  0  0  0  0  0  0  0  0  0  0
   -1.4013    2.5768   13.0230 I   0  0  0  0  0  0  0  0  0  0  0  0
   -0.8265    1.2880   15.2359 Pt  0  0  0  0  0  0  0  0  0  0  0  0
  1 34  1  0  0  0  0
  1 35  1  0  0  0  0
  2  4  2  0  0  0  0
  2  3  1  0  0  0  0
  4  5  1  0  0  0  0
  6 34  1  0  0  0  0
  6  9  1  0  0  0  0
  7  6  1  0  0  0  0
  8  6  1  0  0  0  0
  9 10  2  0  0  0  0
  9 18  1  0  0  0  0
 10 12  1  0  0  0  0
 11 10  1  0  0  0  0
 12 13  1  0  0  0  0
 12 14  2  0  0  0  0
 14 15  1  0  0  0  0
 16 14  1  0  0  0  0
 16 17  1  0  0  0  0
 18 16  2  0  0  0  0
 19 18  1  0  0  0  0
 20 35  1  0  0  0  0
 20 23  1  0  0  0  0
 21 20  1  0  0  0  0
 22 20  1  0  0  0  0
 24 25  1  0  0  0  0
 24 36  1  0  0  0  0
 26 24  1  0  0  0  0
 27 26  1  0  0  0  0
 28 26  2  0  0  0  0
 28 30  1  0  0  0  0
 29 28  1  0  0  0  0
 30 32  2  0  0  0  0
 31 30  1  0  0  0  0
 32 36  1  0  0  0  0
 32 33  1  0  0  0  0
 34  2  1  0  0  0  0
 35  4  1  0  0  0  0
 36 39  1  0  0  0  0
 38 39  1  0  0  0  0
 39  1  2  0  0  0  0
 39 37  1  0  0  0  0
M  END
$$$$
