CSD_code = RETHUW | q = 1 | S = 0 | Stoichiometry = C24H16ClN4Pt(1+) | MND = 4
 OpenBabel04212202093D

 46 52  0  0  0  0  0  0  0  0999 V2000
    5.3518   16.5280    0.1943 Pt  0  0  2  0  0  0  0  0  0  0  0  0
    5.4001   18.7470    0.0997 Cl  0  0  0  0  0  0  0  0  0  0  0  0
    5.3137   14.6333    0.2744 N   0  0  0  0  0  0  0  0  0  0  0  0
    5.8828   16.3146    2.1127 N   0  0  0  0  0  0  0  0  0  0  0  0
    4.8160   16.1799   -1.7041 N   0  0  0  0  0  0  0  0  0  0  0  0
    5.2934    9.8834   -0.8186 N   0  0  0  0  0  0  0  0  0  0  0  0
    5.6233   14.0353    1.4341 C   0  0  0  0  0  0  0  0  0  0  0  0
    5.6100   12.6499    1.5175 C   0  0  0  0  0  0  0  0  0  0  0  0
    5.8760   12.1586    2.4378 H   0  0  0  0  0  0  0  0  0  0  0  0
    5.2725   11.9016    0.3837 C   0  0  0  0  0  0  0  0  0  0  0  0
    4.9668   12.5725   -0.8100 C   0  0  0  0  0  0  0  0  0  0  0  0
    4.7286   11.9752   -1.6740 H   0  0  0  0  0  0  0  0  0  0  0  0
    4.9933   13.9554   -0.8400 C   0  0  0  0  0  0  0  0  0  0  0  0
    5.9504   15.0065    2.4877 C   0  0  0  0  0  0  0  0  0  0  0  0
    6.3083   14.6599    3.7853 C   0  0  0  0  0  0  0  0  0  0  0  0
    6.3590   13.6222    4.0713 H   0  0  0  0  0  0  0  0  0  0  0  0
    6.5996   15.6546    4.7053 C   0  0  0  0  0  0  0  0  0  0  0  0
    6.8790   15.3975    5.7148 H   0  0  0  0  0  0  0  0  0  0  0  0
    6.5257   16.9801    4.3050 C   0  0  0  0  0  0  0  0  0  0  0  0
    6.7447   17.7834    4.9889 H   0  0  0  0  0  0  0  0  0  0  0  0
    6.1630   17.2656    2.9987 C   0  0  0  0  0  3  0  0  0  0  0  0
    6.0931   18.2864    2.6434 H   0  0  0  0  0  0  0  0  0  0  0  0
    4.7076   14.8487   -1.9711 C   0  0  0  0  0  0  0  0  0  0  0  0
    4.3501   14.4044   -3.2384 C   0  0  0  0  0  0  0  0  0  0  0  0
    4.2701   13.3475   -3.4323 H   0  0  0  0  0  0  0  0  0  0  0  0
    4.1008   15.3282   -4.2412 C   0  0  0  0  0  0  0  0  0  0  0  0
    3.8226   14.9975   -5.2294 H   0  0  0  0  0  0  0  0  0  0  0  0
    4.2149   16.6795   -3.9514 C   0  0  0  0  0  0  0  0  0  0  0  0
    4.0293   17.4297   -4.7023 H   0  0  0  0  0  0  0  0  0  0  0  0
    4.5753   17.0622   -2.6694 C   0  0  0  0  0  0  0  0  0  0  0  0
    4.6766   18.1064   -2.4005 H   0  0  0  0  0  0  0  0  0  0  0  0
    5.2494   10.4350    0.3766 C   0  0  0  0  0  0  0  0  0  0  0  0
    5.1753    9.6711    1.5635 C   0  0  0  0  0  0  0  0  0  0  0  0
    5.0950   10.1510    2.5256 H   0  0  0  0  0  0  0  0  0  0  0  0
    5.1683    8.3061    1.4695 C   0  0  0  0  0  0  0  0  0  0  0  0
    5.1041    7.6897    2.3546 H   0  0  0  0  0  0  0  0  0  0  0  0
    5.2421    7.6916    0.2038 C   0  0  0  0  0  0  0  0  0  0  0  0
    5.2542    6.2968    0.0142 C   0  0  0  0  0  0  0  0  0  0  0  0
    5.2130    5.6523    0.8799 H   0  0  0  0  0  0  0  0  0  0  0  0
    5.3187    5.7749   -1.2485 C   0  0  0  0  0  0  0  0  0  0  0  0
    5.3298    4.7054   -1.3931 H   0  0  0  0  0  0  0  0  0  0  0  0
    5.3722    6.6195   -2.3719 C   0  0  0  0  0  0  0  0  0  0  0  0
    5.4228    6.1805   -3.3566 H   0  0  0  0  0  0  0  0  0  0  0  0
    5.3623    7.9775   -2.2255 C   0  0  0  0  0  0  0  0  0  0  0  0
    5.4058    8.6402   -3.0753 H   0  0  0  0  0  0  0  0  0  0  0  0
    5.2981    8.5489   -0.9350 C   0  0  0  0  0  0  0  0  0  0  0  0
  1  2  1  1  0  0  0
  1  3  1  0  0  0  0
  1  4  1  0  0  0  0
  3  7  1  0  0  0  0
  4 14  1  0  0  0  0
  4 21  1  0  0  0  0
  5  1  1  0  0  0  0
  6 32  1  0  0  0  0
  7  8  2  0  0  0  0
  7 14  1  0  0  0  0
  8  9  1  0  0  0  0
 10  8  1  0  0  0  0
 11 10  2  0  0  0  0
 12 11  1  0  0  0  0
 13 11  1  0  0  0  0
 13  3  1  0  0  0  0
 14 15  2  0  0  0  0
 15 16  1  0  0  0  0
 15 17  1  0  0  0  0
 17 18  1  0  0  0  0
 19 17  2  0  0  0  0
 19 20  1  0  0  0  0
 21 19  1  0  0  0  0
 22 21  1  0  0  0  0
 23  5  1  0  0  0  0
 23 13  2  0  0  0  0
 24 23  1  0  0  0  0
 25 24  1  0  0  0  0
 26 28  1  0  0  0  0
 26 24  2  0  0  0  0
 27 26  1  0  0  0  0
 28 30  2  0  0  0  0
 29 28  1  0  0  0  0
 30 31  1  0  0  0  0
 30  5  1  0  0  0  0
 32 10  1  0  0  0  0
 32 33  2  0  0  0  0
 33 34  1  0  0  0  0
 35 33  1  0  0  0  0
 35 36  1  0  0  0  0
 37 35  2  0  0  0  0
 38 37  1  0  0  0  0
 38 39  1  0  0  0  0
 40 38  2  0  0  0  0
 41 40  1  0  0  0  0
 42 44  2  0  0  0  0
 42 40  1  0  0  0  0
 43 42  1  0  0  0  0
 44 46  1  0  0  0  0
 45 44  1  0  0  0  0
 46  6  2  0  0  0  0
 46 37  1  0  0  0  0
M  END
$$$$
