CSD_code = RETNAH | q = 0 | S = 0 | Stoichiometry = C20H34Cl2N6O2Pd | MND = 4
 OpenBabel04212202093D

 65 66  0  0  1  0  0  0  0  0999 V2000
    3.5759   -0.0000   -0.0001 Pd  0  0  0  0  0  0  0  0  0  0  0  0
    3.9513    2.1021    0.8420 Cl  0  0  0  0  0  0  0  0  0  0  0  0
    1.9701   -0.2197    1.1128 N   0  0  0  0  0  0  0  0  0  0  0  0
    0.8631    0.4972    1.1405 C   0  0  2  0  0  3  0  0  0  0  0  0
    0.0801    0.0828    2.2325 C   0  0  0  0  0  0  0  0  0  0  0  0
   -0.8628    0.4885    2.5376 H   0  0  0  0  0  0  0  0  0  0  0  0
    0.7774   -0.9341    2.8434 C   0  0  0  0  0  0  0  0  0  0  0  0
    1.9141   -1.1131    2.1138 N   0  0  0  0  0  0  0  0  0  0  0  0
    3.0518   -1.9626    2.3233 C   0  0  0  0  0  0  0  0  0  0  0  0
    4.1512   -1.4472    2.3408 O   0  0  0  0  0  0  0  0  0  0  0  0
    2.7903   -3.2568    2.5522 N   0  0  0  0  0  0  0  0  0  0  0  0
    3.9027   -4.0932    2.9886 C   0  0  0  0  0  0  0  0  0  0  0  0
    3.4761   -5.0458    3.3085 H   0  0  0  0  0  0  0  0  0  0  0  0
    4.3578   -3.6046    3.8562 H   0  0  0  0  0  0  0  0  0  0  0  0
    4.9776   -4.3116    1.9297 C   0  0  0  0  0  0  0  0  0  0  0  0
    4.5455   -4.6591    0.9974 H   0  0  0  0  0  0  0  0  0  0  0  0
    5.6956   -5.0445    2.2895 H   0  0  0  0  0  0  0  0  0  0  0  0
    5.4921   -3.3767    1.7400 H   0  0  0  0  0  0  0  0  0  0  0  0
    1.5782   -3.9332    2.1221 C   0  0  0  0  0  0  0  0  0  0  0  0
    0.8285   -3.1869    1.8670 H   0  0  0  0  0  0  0  0  0  0  0  0
    1.2064   -4.5339    2.9606 H   0  0  0  0  0  0  0  0  0  0  0  0
    1.8015   -4.8107    0.8937 C   0  0  0  0  0  0  0  0  0  0  0  0
    2.2474   -4.2122    0.1007 H   0  0  0  0  0  0  0  0  0  0  0  0
    0.8424   -5.1884    0.5490 H   0  0  0  0  0  0  0  0  0  0  0  0
    2.4427   -5.6583    1.1176 H   0  0  0  0  0  0  0  0  0  0  0  0
    0.6111    1.5420    0.1172 C   0  0  0  0  0  0  0  0  0  0  0  0
    0.9614    2.5072    0.4856 H   0  0  0  0  0  0  0  0  0  0  0  0
   -0.4499    1.6124   -0.1112 H   0  0  0  0  0  0  0  0  0  0  0  0
    1.1768    1.2886   -0.7880 H   0  0  0  0  0  0  0  0  0  0  0  0
    0.4681   -1.6745    4.0950 C   0  0  0  0  0  0  0  0  0  0  0  0
   -0.2899   -2.4392    3.9253 H   0  0  0  0  0  0  0  0  0  0  0  0
    0.0774   -0.9779    4.8342 H   0  0  0  0  0  0  0  0  0  0  0  0
    1.3604   -2.1489    4.4948 H   0  0  0  0  0  0  0  0  0  0  0  0
    3.2004   -2.1025   -0.8419 Cl  0  0  0  0  0  0  0  0  0  0  0  0
    5.1817    0.2197   -1.1128 N   0  0  0  0  0  0  0  0  0  0  0  0
    6.2887   -0.4972   -1.1406 C   0  0  1  0  0  3  0  0  0  0  0  0
    7.0717   -0.0828   -2.2325 C   0  0  0  0  0  0  0  0  0  0  0  0
    8.0146   -0.4884   -2.5377 H   0  0  0  0  0  0  0  0  0  0  0  0
    6.3743    0.9342   -2.8434 C   0  0  0  0  0  0  0  0  0  0  0  0
    5.2376    1.1131   -2.1138 N   0  0  0  0  0  0  0  0  0  0  0  0
    4.0999    1.9626   -2.3233 C   0  0  0  0  0  0  0  0  0  0  0  0
    3.0005    1.4472   -2.3408 O   0  0  0  0  0  0  0  0  0  0  0  0
    4.3614    3.2568   -2.5522 N   0  0  0  0  0  0  0  0  0  0  0  0
    3.2489    4.0932   -2.9885 C   0  0  0  0  0  0  0  0  0  0  0  0
    3.6755    5.0458   -3.3084 H   0  0  0  0  0  0  0  0  0  0  0  0
    2.7939    3.6046   -3.8562 H   0  0  0  0  0  0  0  0  0  0  0  0
    2.1740    4.3115   -1.9296 C   0  0  0  0  0  0  0  0  0  0  0  0
    2.6062    4.6590   -0.9973 H   0  0  0  0  0  0  0  0  0  0  0  0
    1.4561    5.0445   -2.2894 H   0  0  0  0  0  0  0  0  0  0  0  0
    1.6595    3.3766   -1.7401 H   0  0  0  0  0  0  0  0  0  0  0  0
    5.5735    3.9332   -2.1221 C   0  0  0  0  0  0  0  0  0  0  0  0
    6.3232    3.1869   -1.8670 H   0  0  0  0  0  0  0  0  0  0  0  0
    5.9452    4.5339   -2.9606 H   0  0  0  0  0  0  0  0  0  0  0  0
    5.3501    4.8107   -0.8937 C   0  0  0  0  0  0  0  0  0  0  0  0
    4.9043    4.2122   -0.1007 H   0  0  0  0  0  0  0  0  0  0  0  0
    6.3093    5.1885   -0.5490 H   0  0  0  0  0  0  0  0  0  0  0  0
    4.7089    5.6583   -1.1176 H   0  0  0  0  0  0  0  0  0  0  0  0
    6.5407   -1.5420   -0.1172 C   0  0  0  0  0  0  0  0  0  0  0  0
    6.1905   -2.5072   -0.4857 H   0  0  0  0  0  0  0  0  0  0  0  0
    7.6017   -1.6123    0.1111 H   0  0  0  0  0  0  0  0  0  0  0  0
    5.9750   -1.2886    0.7880 H   0  0  0  0  0  0  0  0  0  0  0  0
    6.6836    1.6745   -4.0950 C   0  0  0  0  0  0  0  0  0  0  0  0
    7.4415    2.4393   -3.9254 H   0  0  0  0  0  0  0  0  0  0  0  0
    7.0744    0.9780   -4.8342 H   0  0  0  0  0  0  0  0  0  0  0  0
    5.7912    2.1489   -4.4948 H   0  0  0  0  0  0  0  0  0  0  0  0
  1  2  1  0  0  0  0
  1  3  1  0  0  0  0
  3  4  1  0  0  0  0
  3  8  1  0  0  0  0
  4 26  1  6  0  0  0
  4  5  1  0  0  0  0
  5  6  1  0  0  0  0
  5  7  2  0  0  0  0
  7 30  1  0  0  0  0
  8  9  1  0  0  0  0
  8  7  1  0  0  0  0
  9 10  2  0  0  0  0
  9 11  1  0  0  0  0
 11 12  1  0  0  0  0
 12 13  1  0  0  0  0
 12 14  1  0  0  0  0
 15 17  1  0  0  0  0
 15 12  1  0  0  0  0
 16 15  1  0  0  0  0
 18 15  1  0  0  0  0
 19 11  1  0  0  0  0
 19 21  1  0  0  0  0
 20 19  1  0  0  0  0
 22 25  1  0  0  0  0
 22 19  1  0  0  0  0
 23 22  1  0  0  0  0
 24 22  1  0  0  0  0
 26 27  1  0  0  0  0
 28 26  1  0  0  0  0
 29 26  1  0  0  0  0
 30 33  1  0  0  0  0
 30 32  1  0  0  0  0
 31 30  1  0  0  0  0
 34  1  1  0  0  0  0
 35  1  1  0  0  0  0
 36 35  1  0  0  0  0
 36 58  1  1  0  0  0
 37 36  1  0  0  0  0
 38 37  1  0  0  0  0
 39 37  2  0  0  0  0
 39 40  1  0  0  0  0
 40 35  1  0  0  0  0
 41 40  1  0  0  0  0
 42 41  2  0  0  0  0
 43 41  1  0  0  0  0
 43 51  1  0  0  0  0
 44 43  1  0  0  0  0
 44 47  1  0  0  0  0
 45 44  1  0  0  0  0
 46 44  1  0  0  0  0
 47 50  1  0  0  0  0
 47 48  1  0  0  0  0
 49 47  1  0  0  0  0
 51 52  1  0  0  0  0
 51 54  1  0  0  0  0
 53 51  1  0  0  0  0
 54 56  1  0  0  0  0
 54 55  1  0  0  0  0
 57 54  1  0  0  0  0
 58 60  1  0  0  0  0
 58 61  1  0  0  0  0
 59 58  1  0  0  0  0
 62 63  1  0  0  0  0
 62 39  1  0  0  0  0
 64 62  1  0  0  0  0
 65 62  1  0  0  0  0
M  END
$$$$
