CSD_code = REVFON | q = 0 | S = 0 | Stoichiometry = C28H27ClN3O2Rh | MND = 7
 OpenBabel04212202093D

 62 64  0  0  1  0  0  0  0  0999 V2000
    0.3941    3.2571    1.5018 Rh  0  0  0  0  0  0  0  0  0  0  0  0
   -1.4894    2.1078    1.9752 Cl  0  0  0  0  0 15  0  0  0  0  0  0
   -0.6077    3.3437   -5.2812 O   0  0  0  0  0  0  0  0  0  0  0  0
    0.1007    5.8067    9.6228 O   0  0  0  0  0  0  0  0  0  0  0  0
    0.8452    1.8126   -0.1639 N   0  0  0  0  0  0  0  0  0  0  0  0
    1.5169    1.3560    2.3930 N   0  0  0  0  0  0  0  0  0  0  0  0
    1.6472    2.0625    5.8578 N   0  0  0  0  0  0  0  0  0  0  0  0
    0.1047    2.9529   -6.4298 C   0  0  0  0  0  0  0  0  0  0  0  0
   -0.1768    2.9165   -4.0661 C   0  0  0  0  0  0  0  0  0  0  0  0
    0.9575    2.1399   -3.8484 C   0  0  0  0  0  0  0  0  0  0  0  0
    1.2982    1.7512   -2.5656 C   0  0  0  0  0  0  0  0  0  0  0  0
    0.5285    2.1467   -1.4731 C   0  0  0  0  0  0  0  0  0  0  0  0
   -0.5960    2.9500   -1.6953 C   0  0  0  0  0  0  0  0  0  0  0  0
   -0.9494    3.3168   -2.9696 C   0  0  0  0  0  0  0  0  0  0  0  0
    1.3493    0.6730    0.1335 C   0  0  0  0  0  0  0  0  0  0  0  0
    1.6722    0.3655    1.5067 C   0  0  0  0  0  0  0  0  0  0  0  0
    2.0923   -0.9138    1.8858 C   0  0  0  0  0  0  0  0  0  0  0  0
    2.3404   -1.1688    3.2220 C   0  0  0  0  0  0  0  0  0  0  0  0
    2.1433   -0.1519    4.1397 C   0  0  0  0  0  0  0  0  0  0  0  0
    1.7219    1.1003    3.6856 C   0  0  0  0  0  0  0  0  0  0  0  0
    1.4418    2.1835    4.6109 C   0  0  0  0  0  0  0  0  0  0  0  0
    1.2730    3.0305    6.7631 C   0  0  0  0  0  0  0  0  0  0  0  0
    2.0511    3.1994    7.9081 C   0  0  0  0  0  0  0  0  0  0  0  0
    1.7052    4.1236    8.8737 C   0  0  0  0  0  0  0  0  0  0  0  0
    0.5453    4.8810    8.7299 C   0  0  0  0  0  0  0  0  0  0  0  0
   -0.2549    4.6936    7.5994 C   0  0  0  0  0  0  0  0  0  0  0  0
    0.1042    3.7913    6.6268 C   0  0  0  0  0  0  0  0  0  0  0  0
    0.8357    6.0133   10.8039 C   0  0  0  0  0  0  0  0  0  0  0  0
   -0.5459    5.0989    1.3025 C   0  0  1  0  0  0  0  0  0  0  0  0
   -0.1057    4.9233    2.6388 C   0  0  0  0  0  3  0  0  0  0  0  0
    1.2848    5.5605    2.6983 C   0  0  1  0  0  0  0  0  0  0  0  0
    2.0556    4.5450    1.8540 C   0  0  0  0  0  3  0  0  0  0  0  0
    1.6189    4.7179    0.5477 C   0  0  0  0  0  3  0  0  0  0  0  0
    0.5824    5.8386    0.5852 C   0  0  2  0  0  0  0  0  0  0  0  0
    1.1346    6.7248    1.7098 C   0  0  0  0  0  0  0  0  0  0  0  0
   -0.4323    3.3875   -7.2714 H   0  0  0  0  0  0  0  0  0  0  0  0
    0.1258    1.8638   -6.5385 H   0  0  0  0  0  0  0  0  0  0  0  0
    1.1295    3.3380   -6.4185 H   0  0  0  0  0  0  0  0  0  0  0  0
    1.5868    1.8330   -4.6692 H   0  0  0  0  0  0  0  0  0  0  0  0
    2.1977    1.1720   -2.4117 H   0  0  0  0  0  0  0  0  0  0  0  0
   -1.1919    3.2431   -0.8400 H   0  0  0  0  0  0  0  0  0  0  0  0
   -1.8233    3.9207   -3.1551 H   0  0  0  0  0  0  0  0  0  0  0  0
    1.5037   -0.1113   -0.6102 H   0  0  0  0  0  0  0  0  0  0  0  0
    2.2064   -1.6836    1.1380 H   0  0  0  0  0  0  0  0  0  0  0  0
    2.6666   -2.1467    3.5436 H   0  0  0  0  0  0  0  0  0  0  0  0
    2.2942   -0.2913    5.1975 H   0  0  0  0  0  0  0  0  0  0  0  0
    1.0319    3.0856    4.1366 H   0  0  0  0  0  0  0  0  0  0  0  0
    2.9499    2.6119    8.0166 H   0  0  0  0  0  0  0  0  0  0  0  0
    2.3406    4.2400    9.7377 H   0  0  0  0  0  0  0  0  0  0  0  0
   -1.1614    5.2722    7.5144 H   0  0  0  0  0  0  0  0  0  0  0  0
   -0.5383    3.6280    5.7746 H   0  0  0  0  0  0  0  0  0  0  0  0
    0.8970    5.0999   11.4044 H   0  0  0  0  0  0  0  0  0  0  0  0
    0.2904    6.7735   11.3611 H   0  0  0  0  0  0  0  0  0  0  0  0
    1.8462    6.3774   10.5912 H   0  0  0  0  0  0  0  0  0  0  0  0
   -1.5819    5.1701    0.9952 H   0  0  0  0  0  0  0  0  0  0  0  0
   -0.7621    4.8730    3.4990 H   0  0  0  0  0  0  0  0  0  0  0  0
    1.6839    5.7854    3.6850 H   0  0  0  0  0  0  0  0  0  0  0  0
    2.9846    4.0894    2.1709 H   0  0  0  0  0  0  0  0  0  0  0  0
    2.1392    4.4232   -0.3537 H   0  0  0  0  0  0  0  0  0  0  0  0
    0.3384    6.3123   -0.3621 H   0  0  0  0  0  0  0  0  0  0  0  0
    2.0855    7.1956    1.4558 H   0  0  0  0  0  0  0  0  0  0  0  0
    0.4243    7.4803    2.0460 H   0  0  0  0  0  0  0  0  0  0  0  0
  3  9  1  0  0  0  0
  4 28  1  0  0  0  0
  5 15  2  0  0  0  0
  6 20  1  0  0  0  0
  7 22  1  0  0  0  0
  8 38  1  0  0  0  0
  8  3  1  0  0  0  0
  9 10  2  0  0  0  0
  9 14  1  0  0  0  0
 10 11  1  0  0  0  0
 11 40  1  0  0  0  0
 11 12  2  0  0  0  0
 12  5  1  0  0  0  0
 13 12  1  0  0  0  0
 13 41  1  0  0  0  0
 14 13  2  0  0  0  0
 15 16  1  0  0  0  0
 16 17  1  0  0  0  0
 16  6  2  0  0  0  0
 17 18  2  0  0  0  0
 18 45  1  0  0  0  0
 18 19  1  0  0  0  0
 19 46  1  0  0  0  0
 20 19  2  0  0  0  0
 20 21  1  0  0  0  0
 21  7  2  0  0  0  0
 22 23  1  0  0  0  0
 23 48  1  0  0  0  0
 23 24  2  0  0  0  0
 24 49  1  0  0  0  0
 25 24  1  0  0  0  0
 25  4  1  0  0  0  0
 26 25  2  0  0  0  0
 27 22  2  0  0  0  0
 27 26  1  0  0  0  0
 28 53  1  0  0  0  0
 28 52  1  0  0  0  0
 29 55  1  6  0  0  0
 29  1  1  0  0  0  0
 29 30  1  0  0  0  0
 30 31  1  0  0  0  0
 30 56  1  0  0  0  0
 31 57  1  1  0  0  0
 32 58  1  0  0  0  0
 32 31  1  0  0  0  0
 33 34  1  0  0  0  0
 33 32  1  0  0  0  0
 34 60  1  6  0  0  0
 34 29  1  0  0  0  0
 34 35  1  0  0  0  0
 35 62  1  0  0  0  0
 35 31  1  0  0  0  0
 36  8  1  0  0  0  0
 37  8  1  0  0  0  0
 39 10  1  0  0  0  0
 42 14  1  0  0  0  0
 43 15  1  0  0  0  0
 44 17  1  0  0  0  0
 47 21  1  0  0  0  0
 50 26  1  0  0  0  0
 51 27  1  0  0  0  0
 54 28  1  0  0  0  0
 59 33  1  0  0  0  0
 61 35  1  0  0  0  0
M  END
$$$$
