CSD_code = REVPAL | q = 0 | S = 0 | Stoichiometry = C12H11I2N2ORh | MND = 6
 OpenBabel04212202093D

 29 31  0  0  1  0  0  0  0  0999 V2000
    0.8818    1.0038    3.3109 Rh  0  0  0  0  0  0  0  0  0  0  0  0
   -0.1074   -0.8445    4.9670 I   0  0  0  0  0  0  0  0  0  0  0  0
   -1.1598    0.8286    1.4711 I   0  0  0  0  0  0  0  0  0  0  0  0
    1.6895   -0.4687    2.5510 C   0  0  0  0  0  2  0  0  0  0  0  0
    2.1444   -1.4009    2.0815 O   0  0  0  0  0  1  0  0  0  0  0  0
    2.4814    1.2945    4.6676 C   0  0  0  0  0  0  0  0  0  0  0  0
    3.0107    0.3672    4.8871 H   0  0  0  0  0  0  0  0  0  0  0  0
    2.0925    1.6809    5.6125 H   0  0  0  0  0  0  0  0  0  0  0  0
    3.2065    2.0132    4.2742 H   0  0  0  0  0  0  0  0  0  0  0  0
    1.6516    2.4460    2.1355 N   0  0  0  0  0  0  0  0  0  0  0  0
   -0.0477    2.6377    4.1054 N   0  0  0  0  0  0  0  0  0  0  0  0
    2.5126    2.2532    1.1368 C   0  0  0  0  0  3  0  0  0  0  0  0
    2.8717    1.2440    0.9811 H   0  0  0  0  0  0  0  0  0  0  0  0
    2.9390    3.2741    0.3105 C   0  0  0  0  0  0  0  0  0  0  0  0
    3.6306    3.0629   -0.4884 H   0  0  0  0  0  0  0  0  0  0  0  0
    2.4565    4.5570    0.5278 C   0  0  0  0  0  0  0  0  0  0  0  0
    2.7643    5.3779   -0.1002 H   0  0  0  0  0  0  0  0  0  0  0  0
    1.5665    4.7615    1.5637 C   0  0  0  0  0  0  0  0  0  0  0  0
    1.1733    5.7467    1.7498 H   0  0  0  0  0  0  0  0  0  0  0  0
    1.1727    3.6865    2.3587 C   0  0  0  0  0  0  0  0  0  0  0  0
    0.2132    3.7935    3.4577 C   0  0  1  0  0  3  0  0  0  0  0  0
   -0.4198    4.9824    3.8119 C   0  0  0  0  0  0  0  0  0  0  0  0
   -0.2048    5.8937    3.2794 H   0  0  0  0  0  0  0  0  0  0  0  0
   -1.3389    4.9857    4.8444 C   0  0  0  0  0  0  0  0  0  0  0  0
   -1.8438    5.8971    5.1240 H   0  0  0  0  0  0  0  0  0  0  0  0
   -1.5983    3.7940    5.5016 C   0  0  0  0  0  0  0  0  0  0  0  0
   -2.3096    3.7397    6.3091 H   0  0  0  0  0  0  0  0  0  0  0  0
   -0.9309    2.6502    5.1014 C   0  0  0  0  0  0  0  0  0  0  0  0
   -1.1277    1.7094    5.5987 H   0  0  0  0  0  0  0  0  0  0  0  0
  1 11  1  0  0  0  0
  1  6  1  0  0  0  0
  1  2  1  0  0  0  0
  3  1  1  0  0  0  0
  4  1  1  0  0  0  0
  5  4  1  0  0  0  0
  6  7  1  0  0  0  0
  6  8  1  0  0  0  0
  9  6  1  0  0  0  0
 10 20  1  0  0  0  0
 10  1  1  0  0  0  0
 11 28  1  0  0  0  0
 12 10  1  0  0  0  0
 13 12  1  0  0  0  0
 14 16  2  0  0  0  0
 14 12  1  0  0  0  0
 15 14  1  0  0  0  0
 16 18  1  0  0  0  0
 17 16  1  0  0  0  0
 18 19  1  0  0  0  0
 18 20  2  0  0  0  0
 21 20  1  6  0  0  0
 21 22  1  0  0  0  0
 21 11  1  0  0  0  0
 22 24  2  0  0  0  0
 23 22  1  0  0  0  0
 24 25  1  0  0  0  0
 24 26  1  0  0  0  0
 26 27  1  0  0  0  0
 28 26  2  0  0  0  0
 28 29  1  0  0  0  0
M  END
$$$$
