CSD_code = REVQEO | q = 0 | S = 0 | Stoichiometry = C5H12Cl2N2Pd | MND = 4
 OpenBabel04212202093D

 22 23  0  0  1  0  0  0  0  0999 V2000
    2.2790    2.8817    0.3219 Pd  0  0  0  0  0  0  0  0  0  0  0  0
    2.9772    1.2384    1.6413 Cl  0  0  0  0  0  0  0  0  0  0  0  0
    1.4482    1.5879   -1.1053 N   0  0  2  0  0  4  0  0  0  0  0  0
    1.8249    2.1025   -2.4212 C   0  0  0  0  0  0  0  0  0  0  0  0
    0.0033    1.5915   -0.8444 C   0  0  0  0  0  0  0  0  0  0  0  0
   -0.6711    2.8818   -1.3215 C   0  0  0  0  0  0  0  0  0  0  0  0
    1.8220    0.6525   -0.9456 H   0  0  0  0  0  0  0  0  0  0  0  0
    2.8350    1.7473   -2.6416 H   0  0  0  0  0  0  0  0  0  0  0  0
    1.1529    1.7150   -3.2000 H   0  0  0  0  0  0  0  0  0  0  0  0
   -0.4850    0.7481   -1.3561 H   0  0  0  0  0  0  0  0  0  0  0  0
   -0.1369    1.4663    0.2394 H   0  0  0  0  0  0  0  0  0  0  0  0
   -0.7226    2.8818   -2.4118 H   0  0  0  0  0  0  0  0  0  0  0  0
   -1.6992    2.8818   -0.9561 H   0  0  0  0  0  0  0  0  0  0  0  0
    2.9772    4.5252    1.6413 Cl  0  0  0  0  0  0  0  0  0  0  0  0
    1.8249    3.6610   -2.4212 C   0  0  0  0  0  0  0  0  0  0  0  0
    1.4482    4.1756   -1.1053 N   0  0  1  0  0  4  0  0  0  0  0  0
    0.0033    4.1720   -0.8443 C   0  0  0  0  0  0  0  0  0  0  0  0
   -0.4850    5.0154   -1.3561 H   0  0  0  0  0  0  0  0  0  0  0  0
   -0.1369    4.2972    0.2394 H   0  0  0  0  0  0  0  0  0  0  0  0
    1.8220    5.1110   -0.9456 H   0  0  0  0  0  0  0  0  0  0  0  0
    2.8350    4.0162   -2.6416 H   0  0  0  0  0  0  0  0  0  0  0  0
    1.1529    4.0486   -3.2000 H   0  0  0  0  0  0  0  0  0  0  0  0
  1  2  1  0  0  0  0
  1 14  1  0  0  0  0
  3  7  1  1  0  0  0
  3  5  1  0  0  0  0
  3  1  1  0  0  0  0
  4 15  1  0  0  0  0
  4  3  1  0  0  0  0
  5 11  1  0  0  0  0
  6 13  1  0  0  0  0
  6  5  1  0  0  0  0
  6 17  1  0  0  0  0
  8  4  1  0  0  0  0
  9  4  1  0  0  0  0
 10  5  1  0  0  0  0
 12  6  1  0  0  0  0
 15 16  1  0  0  0  0
 16 20  1  1  0  0  0
 16 17  1  0  0  0  0
 16  1  1  0  0  0  0
 17 19  1  0  0  0  0
 18 17  1  0  0  0  0
 21 15  1  0  0  0  0
 22 15  1  0  0  0  0
M  END
$$$$
