CSD_code = REVZIC | q = 0 | S = 0 | Stoichiometry = C16H20Cl2N2Zn | MND = 4
 OpenBabel04212202093D

 41 43  0  0  0  0  0  0  0  0999 V2000
    6.8652    7.5952    5.6429 Zn  0  0  0  0  0  0  0  0  0  0  0  0
    8.4357    7.4780    7.1747 Cl  0  0  0  0  0  0  0  0  0  0  0  0
    4.7125    7.1241    5.4346 Cl  0  0  0  0  0  0  0  0  0  0  0  0
    6.6944    9.7256    5.0129 N   0  0  0  0  0  4  0  0  0  0  0  0
    5.7573    9.7549    4.6087 H   0  0  0  0  0  0  0  0  0  0  0  0
    8.0261    7.5692    3.7802 N   0  0  0  0  0  4  0  0  0  0  0  0
    8.9766    7.6634    4.1385 H   0  0  0  0  0  0  0  0  0  0  0  0
    6.3545   12.1073    5.5822 C   0  0  0  0  0  0  0  0  0  0  0  0
    5.0280   12.3607    5.2501 C   0  0  0  0  0  0  0  0  0  0  0  0
    4.2865   11.5847    5.3835 H   0  0  0  0  0  0  0  0  0  0  0  0
    4.6492   13.5996    4.7662 C   0  0  0  0  0  0  0  0  0  0  0  0
    3.6153   13.7869    4.5172 H   0  0  0  0  0  0  0  0  0  0  0  0
    5.5939   14.6003    4.6076 C   0  0  0  0  0  0  0  0  0  0  0  0
    5.2979   15.5694    4.2346 H   0  0  0  0  0  0  0  0  0  0  0  0
    6.9167   14.3561    4.9339 C   0  0  0  0  0  0  0  0  0  0  0  0
    7.6560   15.1344    4.8144 H   0  0  0  0  0  0  0  0  0  0  0  0
    7.2953   13.1146    5.4159 C   0  0  0  0  0  0  0  0  0  0  0  0
    8.3281   12.9285    5.6739 H   0  0  0  0  0  0  0  0  0  0  0  0
    6.7466   10.7389    6.0777 C   0  0  0  0  0  0  0  0  0  0  0  0
    7.7583   10.7452    6.4893 H   0  0  0  0  0  0  0  0  0  0  0  0
    6.0598   10.4180    6.8658 H   0  0  0  0  0  0  0  0  0  0  0  0
    7.6606    9.9670    3.9445 C   0  0  0  0  0  0  0  0  0  0  0  0
    8.6434   10.0932    4.4088 H   0  0  0  0  0  0  0  0  0  0  0  0
    7.4253   10.8754    3.3743 H   0  0  0  0  0  0  0  0  0  0  0  0
    7.6972    8.7613    3.0080 C   0  0  0  0  0  0  0  0  0  0  0  0
    6.7081    8.6118    2.5651 H   0  0  0  0  0  0  0  0  0  0  0  0
    8.4193    8.9391    2.1991 H   0  0  0  0  0  0  0  0  0  0  0  0
    7.9586    6.3097    3.0290 C   0  0  0  0  0  0  0  0  0  0  0  0
    8.7101    6.2900    2.2267 H   0  0  0  0  0  0  0  0  0  0  0  0
    6.9632    6.2341    2.5844 H   0  0  0  0  0  0  0  0  0  0  0  0
    8.1782    5.1873    4.0065 C   0  0  0  0  0  0  0  0  0  0  0  0
    9.4657    4.8322    4.3899 C   0  0  0  0  0  0  0  0  0  0  0  0
   10.3168    5.3178    3.9318 H   0  0  0  0  0  0  0  0  0  0  0  0
    9.6656    3.8640    5.3569 C   0  0  0  0  0  0  0  0  0  0  0  0
   10.6695    3.5992    5.6528 H   0  0  0  0  0  0  0  0  0  0  0  0
    8.5795    3.2452    5.9528 C   0  0  0  0  0  0  0  0  0  0  0  0
    8.7370    2.4954    6.7137 H   0  0  0  0  0  0  0  0  0  0  0  0
    7.2941    3.5865    5.5700 C   0  0  0  0  0  0  0  0  0  0  0  0
    6.4446    3.1012    6.0266 H   0  0  0  0  0  0  0  0  0  0  0  0
    7.0912    4.5550    4.6007 C   0  0  0  0  0  0  0  0  0  0  0  0
    6.0870    4.8026    4.2878 H   0  0  0  0  0  0  0  0  0  0  0  0
  1  2  1  0  0  0  0
  3  1  1  0  0  0  0
  4  1  1  0  0  0  0
  4 19  1  0  0  0  0
  5  4  1  0  0  0  0
  6  7  1  0  0  0  0
  6  1  1  0  0  0  0
  8 19  1  0  0  0  0
  9 10  1  0  0  0  0
  9  8  2  0  0  0  0
 11  9  1  0  0  0  0
 12 11  1  0  0  0  0
 13 11  2  0  0  0  0
 13 15  1  0  0  0  0
 14 13  1  0  0  0  0
 15 17  2  0  0  0  0
 16 15  1  0  0  0  0
 17  8  1  0  0  0  0
 17 18  1  0  0  0  0
 19 20  1  0  0  0  0
 19 21  1  0  0  0  0
 22 23  1  0  0  0  0
 22  4  1  0  0  0  0
 24 22  1  0  0  0  0
 25  6  1  0  0  0  0
 25 22  1  0  0  0  0
 26 25  1  0  0  0  0
 27 25  1  0  0  0  0
 28  6  1  0  0  0  0
 28 31  1  0  0  0  0
 29 28  1  0  0  0  0
 30 28  1  0  0  0  0
 31 32  2  0  0  0  0
 31 40  1  0  0  0  0
 32 34  1  0  0  0  0
 33 32  1  0  0  0  0
 34 35  1  0  0  0  0
 34 36  2  0  0  0  0
 36 37  1  0  0  0  0
 38 36  1  0  0  0  0
 38 39  1  0  0  0  0
 40 38  2  0  0  0  0
 41 40  1  0  0  0  0
M  END
$$$$
