CSD_code = REWHAC | q = 0 | S = 0 | Stoichiometry = C18H22BClN7Re | MND = 6
 OpenBabel04212202093D

 50 55  0  0  1  0  0  0  0  0999 V2000
    7.0963    2.7499    3.7014 Re  0  0  0  0  0  0  0  0  0  0  0  0
    4.8433    2.4948    3.3137 Cl  0  0  0  0  0  0  0  0  0  0  0  0
    8.3091    2.1484    6.7706 B   0  0  2  0  0  0  0  0  0  0  0  0
    6.5712    3.5796    5.6734 N   0  0  2  0  0  0  0  0  0  0  0  0
    7.2185    3.2269    6.7931 N   0  0  0  0  0  0  0  0  0  0  0  0
    9.3843    2.5970    5.7662 N   0  0  2  0  0  0  0  0  0  0  0  0
    9.0930    2.9335    4.5064 N   0  0  0  0  0  0  0  0  0  0  0  0
    7.6401    0.8809    6.2178 N   0  0  2  0  0  0  0  0  0  0  0  0
    6.9947    0.9183    5.0503 N   0  0  0  0  0  0  0  0  0  0  0  0
    7.7061    2.2326    2.1439 N   0  0  0  0  0  2  0  0  0  0  0  0
    5.5998    4.4158    6.0210 C   0  0  0  0  0  3  0  0  0  0  0  0
    5.6175    4.6155    7.3981 C   0  0  0  0  0  0  0  0  0  0  0  0
    6.6633    3.8358    7.8477 C   0  0  0  0  0  0  0  0  0  0  0  0
    7.5002   -0.3339    6.7676 C   0  0  0  0  0  3  0  0  0  0  0  0
    6.7396   -1.1085    5.9163 C   0  0  0  0  0  0  0  0  0  0  0  0
    6.4448   -0.2657    4.8447 C   0  0  0  0  0  0  0  0  0  0  0  0
   10.7059    2.6918    5.9625 C   0  0  0  0  0  3  0  0  0  0  0  0
   11.2936    3.0973    4.7824 C   0  0  0  0  0  0  0  0  0  0  0  0
   10.2321    3.2357    3.8929 C   0  0  0  0  0  0  0  0  0  0  0  0
    8.1992    1.8753    0.9595 C   0  0  0  0  0  0  0  0  0  0  0  0
    8.1429    0.5317    0.5363 C   0  0  0  0  0  0  0  0  0  0  0  0
    8.6541    0.1671   -0.6867 C   0  0  0  0  0  0  0  0  0  0  0  0
    9.2361    1.1067   -1.5372 C   0  0  0  0  0  0  0  0  0  0  0  0
    9.2916    2.4342   -1.1220 C   0  0  0  0  0  0  0  0  0  0  0  0
    8.7893    2.8224    0.0997 C   0  0  0  0  0  0  0  0  0  0  0  0
    9.7735    0.6858   -2.8682 C   0  0  0  0  0  0  0  0  0  0  0  0
    6.9027    4.8433    2.9939 C   0  0  0  0  0  0  0  0  0  0  0  0
    7.8726    5.8422    3.6117 C   0  0  0  0  0  0  0  0  0  0  0  0
    8.7705    1.9679    7.8437 H   0  0  0  0  0  0  0  0  0  0  0  0
    4.9294    4.8246    5.2901 H   0  0  0  0  0  0  0  0  0  0  0  0
    4.9620    5.2325    7.9769 H   0  0  0  0  0  0  0  0  0  0  0  0
    7.0406    3.6784    8.8379 H   0  0  0  0  0  0  0  0  0  0  0  0
    7.9410   -0.5662    7.7159 H   0  0  0  0  0  0  0  0  0  0  0  0
    6.4395   -2.1273    6.0489 H   0  0  0  0  0  0  0  0  0  0  0  0
    5.8662   -0.4550    3.9617 H   0  0  0  0  0  0  0  0  0  0  0  0
   11.1409    2.4716    6.9159 H   0  0  0  0  0  0  0  0  0  0  0  0
   12.3328    3.2674    4.5925 H   0  0  0  0  0  0  0  0  0  0  0  0
   10.2395    3.5243    2.8602 H   0  0  0  0  0  0  0  0  0  0  0  0
    7.6888   -0.1930    1.1945 H   0  0  0  0  0  0  0  0  0  0  0  0
    8.6033   -0.8662   -0.9990 H   0  0  0  0  0  0  0  0  0  0  0  0
    9.7375    3.1743   -1.7709 H   0  0  0  0  0  0  0  0  0  0  0  0
    8.8271    3.8520    0.4200 H   0  0  0  0  0  0  0  0  0  0  0  0
   10.3067    1.5007   -3.3506 H   0  0  0  0  0  0  0  0  0  0  0  0
   10.4492   -0.1609   -2.7574 H   0  0  0  0  0  0  0  0  0  0  0  0
    8.9574    0.3737   -3.5196 H   0  0  0  0  0  0  0  0  0  0  0  0
    5.8824    5.1645    3.2217 H   0  0  0  0  0  0  0  0  0  0  0  0
    6.9958    4.9008    1.9052 H   0  0  0  0  0  0  0  0  0  0  0  0
    7.6442    6.8484    3.2565 H   0  0  0  0  0  0  0  0  0  0  0  0
    7.7981    5.8542    4.6982 H   0  0  0  0  0  0  0  0  0  0  0  0
    8.9011    5.6166    3.3393 H   0  0  0  0  0  0  0  0  0  0  0  0
  1  7  1  0  0  0  0
  1  9  1  0  0  0  0
  1  4  1  0  0  0  0
  2  1  1  0  0  0  0
  3  5  1  0  0  0  0
  3 29  1  1  0  0  0
  4 11  1  1  0  0  0
  4  5  1  0  0  0  0
  5 13  1  0  0  0  0
  6 17  1  6  0  0  0
  6  3  1  0  0  0  0
  7  6  1  0  0  0  0
  8 14  1  1  0  0  0
  8  3  1  0  0  0  0
  9  8  1  0  0  0  0
 10  1  1  0  0  0  0
 11 12  1  0  0  0  0
 12 13  2  0  0  0  0
 12 31  1  0  0  0  0
 13 32  1  0  0  0  0
 14 33  1  0  0  0  0
 15 34  1  0  0  0  0
 15 14  1  0  0  0  0
 16  9  1  0  0  0  0
 16 15  2  0  0  0  0
 17 36  1  0  0  0  0
 18 17  1  0  0  0  0
 19  7  1  0  0  0  0
 19 18  2  0  0  0  0
 20 10  1  0  0  0  0
 21 20  1  0  0  0  0
 21 39  1  0  0  0  0
 22 21  2  0  0  0  0
 23 24  2  0  0  0  0
 23 22  1  0  0  0  0
 24 25  1  0  0  0  0
 25 42  1  0  0  0  0
 25 20  2  0  0  0  0
 26 44  1  0  0  0  0
 26 23  1  0  0  0  0
 27 46  1  0  0  0  0
 27 28  1  0  0  0  0
 27  1  1  0  0  0  0
 28 49  1  0  0  0  0
 30 11  1  0  0  0  0
 35 16  1  0  0  0  0
 37 18  1  0  0  0  0
 38 19  1  0  0  0  0
 40 22  1  0  0  0  0
 41 24  1  0  0  0  0
 43 26  1  0  0  0  0
 45 26  1  0  0  0  0
 47 27  1  0  0  0  0
 48 28  1  0  0  0  0
 50 28  1  0  0  0  0
M  END
$$$$
