CSD_code = REWQIT | q = 0 | S = 0 | Stoichiometry = C30H25BrNPPd | MND = 4
 OpenBabel04212202093D

 59 64  0  0  0  0  0  0  0  0999 V2000
    3.7250    1.9846    1.8300 Pd  0  0  1  0  0  0  0  0  0  0  0  0
    4.4903    1.0944   -0.3156 Br  0  0  0  0  0  0  0  0  0  0  0  0
    1.9062    2.9460    1.0226 P   0  0  0  0  0  4  0  0  0  0  0  0
    5.3499    1.0127    2.8051 N   0  0  0  0  0  4  0  0  0  0  0  0
    4.4655   -0.0332    3.2118 C   0  0  0  0  0  0  0  0  0  0  0  0
    4.5974   -1.3131    2.6857 C   0  0  0  0  0  0  0  0  0  0  0  0
    3.7621   -2.3318    3.1154 C   0  0  0  0  0  0  0  0  0  0  0  0
    2.8142   -2.0875    4.0929 C   0  0  0  0  0  0  0  0  0  0  0  0
    2.6719   -0.8128    4.6166 C   0  0  0  0  0  0  0  0  0  0  0  0
    3.4763    0.2327    4.1826 C   0  0  0  0  0  0  0  0  0  0  0  0
    3.2633    1.6215    4.6417 C   0  0  0  0  0  0  0  0  0  0  0  0
    2.9985    1.9112    5.9761 C   0  0  0  0  0  0  0  0  0  0  0  0
    2.7611    3.2153    6.3702 C   0  0  0  0  0  0  0  0  0  0  0  0
    2.7894    4.2347    5.4351 C   0  0  0  0  0  0  0  0  0  0  0  0
    3.0535    3.9522    4.1026 C   0  0  0  0  0  0  0  0  0  0  0  0
    3.2873    2.6503    3.6872 C   0  0  0  0  0  0  0  0  0  0  0  0
    1.0252    2.2819   -0.4250 C   0  0  0  0  0  0  0  0  0  0  0  0
    1.6197    2.4433   -1.6752 C   0  0  0  0  0  0  0  0  0  0  0  0
    1.0108    1.9270   -2.8024 C   0  0  0  0  0  0  0  0  0  0  0  0
   -0.1917    1.2471   -2.6922 C   0  0  0  0  0  0  0  0  0  0  0  0
   -0.7841    1.0838   -1.4512 C   0  0  0  0  0  0  0  0  0  0  0  0
   -0.1787    1.5950   -0.3166 C   0  0  0  0  0  0  0  0  0  0  0  0
    2.3378    4.6167    0.4584 C   0  0  0  0  0  0  0  0  0  0  0  0
    3.6576    5.0272    0.6276 C   0  0  0  0  0  0  0  0  0  0  0  0
    4.0556    6.2794    0.1959 C   0  0  0  0  0  0  0  0  0  0  0  0
    3.1373    7.1233   -0.4081 C   0  0  0  0  0  0  0  0  0  0  0  0
    1.8271    6.7107   -0.5960 C   0  0  0  0  0  0  0  0  0  0  0  0
    1.4252    5.4573   -0.1719 C   0  0  0  0  0  0  0  0  0  0  0  0
    0.6059    3.0963    2.2842 C   0  0  0  0  0  0  0  0  0  0  0  0
   -0.0487    4.2686    2.6289 C   0  0  0  0  0  0  0  0  0  0  0  0
   -0.9593    4.2636    3.6729 C   0  0  0  0  0  0  0  0  0  0  0  0
   -1.2191    3.0965    4.3694 C   0  0  0  0  0  0  0  0  0  0  0  0
   -0.5644    1.9221    4.0286 C   0  0  0  0  0  0  0  0  0  0  0  0
    0.3500    1.9245    2.9955 C   0  0  0  0  0  0  0  0  0  0  0  0
    3.8633   -3.3175    2.6879 H   0  0  0  0  0  0  0  0  0  0  0  0
    2.9955    1.1130    6.7057 H   0  0  0  0  0  0  0  0  0  0  0  0
   -1.7204    0.5522   -1.3632 H   0  0  0  0  0  0  0  0  0  0  0  0
    3.4457    8.1019   -0.7448 H   0  0  0  0  0  0  0  0  0  0  0  0
   -1.4624    5.1792    3.9478 H   0  0  0  0  0  0  0  0  0  0  0  0
   -0.7605    1.0127    4.5774 H   0  0  0  0  0  0  0  0  0  0  0  0
    6.0687    0.6748    2.1619 H   0  0  0  0  0  0  0  0  0  0  0  0
    5.7598    1.5139    3.5938 H   0  0  0  0  0  0  0  0  0  0  0  0
    5.3447   -1.5055    1.9273 H   0  0  0  0  0  0  0  0  0  0  0  0
    2.1719   -2.8843    4.4365 H   0  0  0  0  0  0  0  0  0  0  0  0
    1.9074   -0.6107    5.3528 H   0  0  0  0  0  0  0  0  0  0  0  0
    2.5536    3.4355    7.4074 H   0  0  0  0  0  0  0  0  0  0  0  0
    2.5990    5.2543    5.7394 H   0  0  0  0  0  0  0  0  0  0  0  0
    3.0562    4.7650    3.3828 H   0  0  0  0  0  0  0  0  0  0  0  0
    2.5650    2.9621   -1.7569 H   0  0  0  0  0  0  0  0  0  0  0  0
    1.4797    2.0486   -3.7671 H   0  0  0  0  0  0  0  0  0  0  0  0
   -0.6655    0.8404   -3.5733 H   0  0  0  0  0  0  0  0  0  0  0  0
   -0.6436    1.4630    0.6506 H   0  0  0  0  0  0  0  0  0  0  0  0
    4.3763    4.3388    1.0926 H   0  0  0  0  0  0  0  0  0  0  0  0
    5.0800    6.5966    0.3234 H   0  0  0  0  0  0  0  0  0  0  0  0
    1.1193    7.3665   -1.0817 H   0  0  0  0  0  0  0  0  0  0  0  0
    0.4114    5.1188   -0.3399 H   0  0  0  0  0  0  0  0  0  0  0  0
    0.1636    5.1861    2.0992 H   0  0  0  0  0  0  0  0  0  0  0  0
   -1.9254    3.1018    5.1862 H   0  0  0  0  0  0  0  0  0  0  0  0
    0.8967    1.0203    2.7335 H   0  0  0  0  0  0  0  0  0  0  0  0
  1  2  1  6  0  0  0
  1  4  1  0  0  0  0
  1 16  1  0  0  0  0
  3  1  1  0  0  0  0
  3 29  1  0  0  0  0
  4  5  1  0  0  0  0
  4 42  1  0  0  0  0
  5 10  1  0  0  0  0
  6  7  1  0  0  0  0
  6  5  2  0  0  0  0
  7  8  2  0  0  0  0
  8 44  1  0  0  0  0
  8  9  1  0  0  0  0
  9 45  1  0  0  0  0
 10  9  2  0  0  0  0
 10 11  1  0  0  0  0
 11 12  1  0  0  0  0
 12 13  2  0  0  0  0
 12 36  1  0  0  0  0
 13 46  1  0  0  0  0
 14 47  1  0  0  0  0
 14 13  1  0  0  0  0
 15 14  2  0  0  0  0
 16 15  1  0  0  0  0
 16 11  2  0  0  0  0
 17 22  1  0  0  0  0
 17  3  1  0  0  0  0
 18 17  2  0  0  0  0
 19 20  2  0  0  0  0
 19 18  1  0  0  0  0
 20 21  1  0  0  0  0
 21 37  1  0  0  0  0
 21 22  2  0  0  0  0
 22 52  1  0  0  0  0
 23 24  1  0  0  0  0
 23  3  1  0  0  0  0
 24 53  1  0  0  0  0
 25 54  1  0  0  0  0
 25 24  2  0  0  0  0
 26 25  1  0  0  0  0
 27 26  2  0  0  0  0
 27 28  1  0  0  0  0
 28 23  2  0  0  0  0
 29 30  2  0  0  0  0
 29 34  1  0  0  0  0
 30 31  1  0  0  0  0
 31 39  1  0  0  0  0
 31 32  2  0  0  0  0
 32 58  1  0  0  0  0
 33 32  1  0  0  0  0
 33 40  1  0  0  0  0
 34 33  2  0  0  0  0
 35  7  1  0  0  0  0
 38 26  1  0  0  0  0
 41  4  1  0  0  0  0
 43  6  1  0  0  0  0
 48 15  1  0  0  0  0
 49 18  1  0  0  0  0
 50 19  1  0  0  0  0
 51 20  1  0  0  0  0
 55 27  1  0  0  0  0
 56 28  1  0  0  0  0
 57 30  1  0  0  0  0
 59 34  1  0  0  0  0
M  END
$$$$
