CSD_code = REXNUG | q = 0 | S = 0 | Stoichiometry = C21H15Cl2N3OZn | MND = 5
 OpenBabel04212202093D

 43 48  0  0  1  0  0  0  0  0999 V2000
    4.5229    6.8647    2.5305 Zn  0  0  0  0  0  0  0  0  0  0  0  0
    2.6875    5.9593    3.4685 Cl  0  0  0  0  0  0  0  0  0  0  0  0
    6.0782    8.0616    3.5621 Cl  0  0  0  0  0  0  0  0  0  0  0  0
   -1.2841    1.6704   -4.1860 O   0  0  0  0  0  0  0  0  0  0  0  0
   -2.2042    1.9335   -4.0595 H   0  0  0  0  0  0  0  0  0  0  0  0
    3.9415    6.0761    0.6454 N   0  0  0  0  0  0  0  0  0  0  0  0
    2.9216    6.6963    0.0675 C   0  0  1  0  0  3  0  0  0  0  0  0
    1.2855    3.8732   -1.7900 C   0  0  0  0  0  0  0  0  0  0  0  0
   -0.4708    2.4058   -3.3921 C   0  0  0  0  0  0  0  0  0  0  0  0
    3.5315    8.5131    1.4581 N   0  0  0  0  0  0  0  0  0  0  0  0
    5.6932    5.0196    2.2517 N   0  0  0  0  0  0  0  0  0  0  0  0
    2.0297    6.0088   -0.7469 C   0  0  0  0  0  0  0  0  0  0  0  0
    1.1984    6.5138   -1.2111 H   0  0  0  0  0  0  0  0  0  0  0  0
    2.2084    4.6399   -0.9476 C   0  0  0  0  0  0  0  0  0  0  0  0
    4.1212    4.7701    0.4984 C   0  0  0  0  0  0  0  0  0  0  0  0
   -0.0842    4.1243   -1.7570 C   0  0  0  0  0  0  0  0  0  0  0  0
   -0.4761    4.8724   -1.0846 H   0  0  0  0  0  0  0  0  0  0  0  0
    3.2770    4.0136   -0.3055 C   0  0  0  0  0  0  0  0  0  0  0  0
    3.4018    2.9468   -0.3943 H   0  0  0  0  0  0  0  0  0  0  0  0
    2.7984    8.1214    0.4143 C   0  0  2  0  0  3  0  0  0  0  0  0
   -0.9546    3.3955   -2.5421 C   0  0  0  0  0  0  0  0  0  0  0  0
   -2.0177    3.5906   -2.4955 H   0  0  0  0  0  0  0  0  0  0  0  0
    1.7606    2.8731   -2.6392 C   0  0  0  0  0  0  0  0  0  0  0  0
    2.8213    2.6790   -2.6951 H   0  0  0  0  0  0  0  0  0  0  0  0
    5.2238    4.2126    1.2984 C   0  0  2  0  0  3  0  0  0  0  0  0
    5.7498    2.9376    1.1074 C   0  0  0  0  0  0  0  0  0  0  0  0
    5.3785    2.2984    0.3227 H   0  0  0  0  0  0  0  0  0  0  0  0
    0.8990    2.1529   -3.4371 C   0  0  0  0  0  0  0  0  0  0  0  0
    1.2615    1.3871   -4.1038 H   0  0  0  0  0  0  0  0  0  0  0  0
    7.2427    3.3538    2.9247 C   0  0  0  0  0  0  0  0  0  0  0  0
    8.0354    3.0524    3.5901 H   0  0  0  0  0  0  0  0  0  0  0  0
    6.7714    2.5047    1.9369 C   0  0  0  0  0  0  0  0  0  0  0  0
    7.1931    1.5184    1.8100 H   0  0  0  0  0  0  0  0  0  0  0  0
    6.6692    4.6122    3.0403 C   0  0  0  0  0  0  0  0  0  0  0  0
    7.0005    5.3253    3.7826 H   0  0  0  0  0  0  0  0  0  0  0  0
    2.6806   10.7181    1.2520 C   0  0  0  0  0  0  0  0  0  0  0  0
    2.6599   11.7321    1.6174 H   0  0  0  0  0  0  0  0  0  0  0  0
    1.9775    9.0154   -0.2681 C   0  0  0  0  0  0  0  0  0  0  0  0
    1.4053    8.6968   -1.1246 H   0  0  0  0  0  0  0  0  0  0  0  0
    3.4806    9.7660    1.8679 C   0  0  0  0  0  0  0  0  0  0  0  0
    4.1086   10.0080    2.7143 H   0  0  0  0  0  0  0  0  0  0  0  0
    1.9183   10.3309    0.1622 C   0  0  0  0  0  0  0  0  0  0  0  0
    1.2865   11.0419   -0.3495 H   0  0  0  0  0  0  0  0  0  0  0  0
  1  2  1  0  0  0  0
  1  3  1  0  0  0  0
  4  5  1  0  0  0  0
  4  9  1  0  0  0  0
  6  1  1  0  0  0  0
  7 12  1  1  0  0  0
  7 20  1  0  0  0  0
  7  6  1  0  0  0  0
  8 16  1  0  0  0  0
  8 14  1  0  0  0  0
  9 21  1  0  0  0  0
 10 40  1  0  0  0  0
 10  1  1  0  0  0  0
 11  1  1  0  0  0  0
 11 34  1  0  0  0  0
 13 12  1  0  0  0  0
 14 12  2  0  0  0  0
 14 18  1  0  0  0  0
 15  6  1  0  0  0  0
 16 17  1  0  0  0  0
 18 15  2  0  0  0  0
 19 18  1  0  0  0  0
 20 38  1  1  0  0  0
 20 10  1  0  0  0  0
 21 22  1  0  0  0  0
 21 16  2  0  0  0  0
 23  8  2  0  0  0  0
 24 23  1  0  0  0  0
 25 15  1  1  0  0  0
 25 11  1  0  0  0  0
 26 25  1  0  0  0  0
 26 32  2  0  0  0  0
 27 26  1  0  0  0  0
 28  9  2  0  0  0  0
 28 23  1  0  0  0  0
 29 28  1  0  0  0  0
 30 34  2  0  0  0  0
 30 31  1  0  0  0  0
 32 30  1  0  0  0  0
 33 32  1  0  0  0  0
 34 35  1  0  0  0  0
 36 37  1  0  0  0  0
 36 40  2  0  0  0  0
 38 42  2  0  0  0  0
 39 38  1  0  0  0  0
 40 41  1  0  0  0  0
 42 36  1  0  0  0  0
 43 42  1  0  0  0  0
M  END
$$$$
