CSD_code = REXYEA | q = 0 | S = 0 | Stoichiometry = C2H8I2N4S2Zn | MND = 4
 OpenBabel04212202093D

 19 18  0  0  0  0  0  0  0  0999 V2000
    1.7460    1.7430   13.9020 I   0  0  0  0  0  0  0  0  0  0  0  0
    1.4227    5.5986   11.8307 I   0  0  0  0  0  0  0  0  0  0  0  0
    2.9132    3.9322   13.1441 Zn  0  0  0  0  0  0  0  0  0  0  0  0
    4.8013    3.3246   11.4697 S   0  0  0  0  0  0  0  0  0  0  0  0
    3.7838    2.9694   10.1770 C   0  0  0  0  0  0  0  0  0  0  0  0
    2.6490    2.2854   10.3214 N   0  0  0  0  0  0  0  0  0  0  0  0
    2.0470    2.0937    9.5369 H   0  0  0  0  0  0  0  0  0  0  0  0
    2.4000    1.8791   11.2142 H   0  0  0  0  0  0  0  0  0  0  0  0
    4.1481    3.3603    8.9504 N   0  0  0  0  0  4  0  0  0  0  0  0
    3.5526    3.2235    8.1503 H   0  0  0  0  0  0  0  0  0  0  0  0
    4.9576    3.9497    8.8560 H   0  0  0  0  0  0  0  0  0  0  0  0
    3.6462    5.0533   15.3671 S   0  0  0  0  0  0  0  0  0  0  0  0
    2.1559    4.9117   16.1363 C   0  0  0  0  0  0  0  0  0  0  0  0
    1.0006    5.1455   15.5140 N   0  0  0  0  0  4  0  0  0  0  0  0
    0.1178    5.0421   15.9880 H   0  0  0  0  0  0  0  0  0  0  0  0
    0.9865    5.5036   14.5676 H   0  0  0  0  0  0  0  0  0  0  0  0
    2.1341    4.5827   17.4329 N   0  0  0  0  0  0  0  0  0  0  0  0
    1.2706    4.4310   17.9280 H   0  0  0  0  0  0  0  0  0  0  0  0
    2.9988    4.3234   17.8762 H   0  0  0  0  0  0  0  0  0  0  0  0
  2  3  1  0  0  0  0
  3  1  1  0  0  0  0
  3 12  1  0  0  0  0
  4  3  1  0  0  0  0
  5  6  1  0  0  0  0
  5  4  1  0  0  0  0
  6  8  1  0  0  0  0
  7  6  1  0  0  0  0
  9  5  2  0  0  0  0
 10  9  1  0  0  0  0
 11  9  1  0  0  0  0
 12 13  1  0  0  0  0
 13 17  1  0  0  0  0
 14 15  1  0  0  0  0
 14 13  2  0  0  0  0
 16 14  1  0  0  0  0
 17 19  1  0  0  0  0
 17 18  1  0  0  0  0
M  END
$$$$
