CSD_code = REXZEZ | q = 0 | S = 0 | Stoichiometry = C7H9AuBrP | MND = 2
 OpenBabel04212202093D

 19 19  0  0  0  0  0  0  0  0999 V2000
    7.4336    3.8765    1.2198 Au  0  0  0  0  0  0  0  0  0  0  0  0
    8.8558    5.2726    2.4883 Br  0  0  0  0  0  0  0  0  0  0  0  0
    6.0547    2.4873    0.0987 P   0  0  1  0  0  4  0  0  0  0  0  0
    6.6034    0.7457    0.0314 C   0  0  0  0  0  0  0  0  0  0  0  0
    4.3705    2.3619    0.7447 C   0  0  0  0  0  0  0  0  0  0  0  0
    4.1729    2.5443    2.1096 C   0  0  0  0  0  0  0  0  0  0  0  0
    2.9015    2.4388    2.6432 C   0  0  0  0  0  0  0  0  0  0  0  0
    1.8263    2.1622    1.8143 C   0  0  0  0  0  0  0  0  0  0  0  0
    2.0194    1.9886    0.4525 C   0  0  0  0  0  0  0  0  0  0  0  0
    3.2888    2.0868   -0.0862 C   0  0  0  0  0  0  0  0  0  0  0  0
    5.7671    2.6810   -1.2462 H   0  0  0  0  0  0  0  0  0  0  0  0
    5.0192    2.7760    2.7446 H   0  0  0  0  0  0  0  0  0  0  0  0
    2.7489    2.5802    3.7024 H   0  0  0  0  0  0  0  0  0  0  0  0
    0.8325    2.0873    2.2291 H   0  0  0  0  0  0  0  0  0  0  0  0
    1.1779    1.7792   -0.1909 H   0  0  0  0  0  0  0  0  0  0  0  0
    3.4447    1.9568   -1.1491 H   0  0  0  0  0  0  0  0  0  0  0  0
    5.8590    0.1209   -0.4635 H   0  0  0  0  0  0  0  0  0  0  0  0
    7.5529    0.6923   -0.5018 H   0  0  0  0  0  0  0  0  0  0  0  0
    6.7535    0.3933    1.0533 H   0  0  0  0  0  0  0  0  0  0  0  0
  1  2  1  0  0  0  0
  3 11  1  6  0  0  0
  3  5  1  0  0  0  0
  3  1  1  0  0  0  0
  4  3  1  0  0  0  0
  4 19  1  0  0  0  0
  5  6  1  0  0  0  0
  6  7  2  0  0  0  0
  6 12  1  0  0  0  0
  7 13  1  0  0  0  0
  8 14  1  0  0  0  0
  8  7  1  0  0  0  0
  9  8  2  0  0  0  0
 10  9  1  0  0  0  0
 10  5  2  0  0  0  0
 15  9  1  0  0  0  0
 16 10  1  0  0  0  0
 17  4  1  0  0  0  0
 18  4  1  0  0  0  0
M  END
$$$$
