CSD_code = REYJEL | q = 0 | S = 0 | Stoichiometry = C21H20Br2N4O2Pd | MND = 4
 OpenBabel04212202093D

 50 54  0  0  1  0  0  0  0  0999 V2000
    5.4508    5.3889    2.5529 Pd  0  0  0  0  0  0  0  0  0  0  0  0
    7.7311    5.2144    1.7996 Br  0  0  0  0  0  0  0  0  0  0  0  0
    5.4921    7.7944    2.4103 Br  0  0  0  0  0  0  0  0  0  0  0  0
    4.6191    9.7131    7.6136 O   0  0  0  0  0  0  0  0  0  0  0  0
   10.5984    2.7825    5.7769 O   0  0  0  0  0  0  0  0  0  0  0  0
    2.7444    6.0140    3.9299 N   0  0  0  0  0  0  0  0  0  0  0  0
    2.6558    4.6386    2.2732 N   0  0  0  0  0  0  0  0  0  0  0  0
    4.1595    2.9120    1.7451 N   0  0  0  0  0  0  0  0  0  0  0  0
    5.9374    2.3320    2.8115 N   0  0  0  0  0  0  0  0  0  0  0  0
    3.5023    5.4103    2.9955 C   0  0  0  0  0  0  0  0  0  0  0  0
    1.4313    5.6319    3.7848 C   0  0  0  0  0  0  0  0  0  0  0  0
    1.3747    4.7603    2.7527 C   0  0  0  0  0  0  0  0  0  0  0  0
    3.1320    3.7782    1.2187 C   0  0  0  0  0  0  0  0  0  0  0  0
    5.2247    3.4036    2.4216 C   0  0  1  0  0  3  0  0  0  0  0  0
    4.2111    1.5404    1.7078 C   0  0  0  0  0  0  0  0  0  0  0  0
    5.3346    1.1794    2.3687 C   0  0  0  0  0  0  0  0  0  0  0  0
    3.2283    6.9217    4.8961 C   0  0  0  0  0  0  0  0  0  0  0  0
    2.4400    7.9894    5.3137 C   0  0  0  0  0  0  0  0  0  0  0  0
    2.9335    8.8935    6.2263 C   0  0  0  0  0  0  0  0  0  0  0  0
    4.2284    8.7616    6.7346 C   0  0  0  0  0  0  0  0  0  0  0  0
    5.0107    7.6856    6.3224 C   0  0  0  0  0  0  0  0  0  0  0  0
    4.5096    6.7746    5.4130 C   0  0  0  0  0  0  0  0  0  0  0  0
    7.1269    2.3986    3.5675 C   0  0  0  0  0  0  0  0  0  0  0  0
    8.1880    1.5531    3.2890 C   0  0  0  0  0  0  0  0  0  0  0  0
    9.3664    1.6514    4.0067 C   0  0  0  0  0  0  0  0  0  0  0  0
    9.4942    2.6017    5.0152 C   0  0  0  0  0  0  0  0  0  0  0  0
    8.4142    3.4435    5.2996 C   0  0  0  0  0  0  0  0  0  0  0  0
    7.2455    3.3463    4.5825 C   0  0  0  0  0  0  0  0  0  0  0  0
    5.9561    9.7111    8.0609 C   0  0  0  0  0  0  0  0  0  0  0  0
   11.7588    2.0438    5.4740 C   0  0  0  0  0  0  0  0  0  0  0  0
    0.6550    5.9849    4.4309 H   0  0  0  0  0  0  0  0  0  0  0  0
    0.5457    4.2399    2.3194 H   0  0  0  0  0  0  0  0  0  0  0  0
    3.5617    4.4006    0.4099 H   0  0  0  0  0  0  0  0  0  0  0  0
    2.3068    3.1799    0.8232 H   0  0  0  0  0  0  0  0  0  0  0  0
    3.4677    0.9498    1.2135 H   0  0  0  0  0  0  0  0  0  0  0  0
    5.7357    0.2087    2.5733 H   0  0  0  0  0  0  0  0  0  0  0  0
    6.0605   10.6021    8.6777 H   0  0  0  0  0  0  0  0  0  0  0  0
    6.6561    9.7649    7.2225 H   0  0  0  0  0  0  0  0  0  0  0  0
    6.1750    8.8255    8.6663 H   0  0  0  0  0  0  0  0  0  0  0  0
    1.4552    8.1343    4.8974 H   0  0  0  0  0  0  0  0  0  0  0  0
    2.3409    9.7349    6.5463 H   0  0  0  0  0  0  0  0  0  0  0  0
    6.0162    7.5548    6.6868 H   0  0  0  0  0  0  0  0  0  0  0  0
    5.1399    5.9441    5.0890 H   0  0  0  0  0  0  0  0  0  0  0  0
   12.5219    2.3995    6.1642 H   0  0  0  0  0  0  0  0  0  0  0  0
   12.0880    2.2229    4.4463 H   0  0  0  0  0  0  0  0  0  0  0  0
   11.6042    0.9708    5.6286 H   0  0  0  0  0  0  0  0  0  0  0  0
    8.1136    0.8373    2.4846 H   0  0  0  0  0  0  0  0  0  0  0  0
   10.1822    0.9938    3.7547 H   0  0  0  0  0  0  0  0  0  0  0  0
    8.5303    4.1795    6.0782 H   0  0  0  0  0  0  0  0  0  0  0  0
    6.4124    4.0117    4.8001 H   0  0  0  0  0  0  0  0  0  0  0  0
  1 10  2  0  0  0  0
  2  1  1  0  0  0  0
  3  1  1  0  0  0  0
  4 29  1  0  0  0  0
  6 17  1  0  0  0  0
  7 12  1  0  0  0  0
  7 10  1  0  0  0  0
  9 23  1  0  0  0  0
 10  6  1  0  0  0  0
 11  6  1  0  0  0  0
 11 31  1  0  0  0  0
 12 11  2  0  0  0  0
 13  8  1  0  0  0  0
 13  7  1  0  0  0  0
 14  8  1  6  0  0  0
 14  1  1  0  0  0  0
 14  9  1  0  0  0  0
 15  8  1  0  0  0  0
 15 16  2  0  0  0  0
 16 36  1  0  0  0  0
 16  9  1  0  0  0  0
 17 18  2  0  0  0  0
 17 22  1  0  0  0  0
 18 19  1  0  0  0  0
 19 41  1  0  0  0  0
 19 20  2  0  0  0  0
 20  4  1  0  0  0  0
 21 42  1  0  0  0  0
 21 20  1  0  0  0  0
 22 21  2  0  0  0  0
 23 28  1  0  0  0  0
 24 23  2  0  0  0  0
 24 25  1  0  0  0  0
 25 26  2  0  0  0  0
 26 27  1  0  0  0  0
 26  5  1  0  0  0  0
 27 49  1  0  0  0  0
 28 50  1  0  0  0  0
 28 27  2  0  0  0  0
 29 39  1  0  0  0  0
 29 37  1  0  0  0  0
 30 46  1  0  0  0  0
 30  5  1  0  0  0  0
 30 44  1  0  0  0  0
 32 12  1  0  0  0  0
 33 13  1  0  0  0  0
 34 13  1  0  0  0  0
 35 15  1  0  0  0  0
 38 29  1  0  0  0  0
 40 18  1  0  0  0  0
 43 22  1  0  0  0  0
 45 30  1  0  0  0  0
 47 24  1  0  0  0  0
 48 25  1  0  0  0  0
M  END
$$$$
