CSD_code = REYSEV | q = 0 | S = 0 | Stoichiometry = C21H12ClN4O3Re | MND = 6
 OpenBabel04212202093D

 42 46  0  0  1  0  0  0  0  0999 V2000
    3.1385    7.8994    7.0738 Re  0  0  0  0  0  0  0  0  0  0  0  0
    3.2740   10.2804    7.2617 Cl  0  0  0  0  0  0  0  0  0  0  0  0
    2.9660    4.8146    7.1096 O   0  0  0  0  0  1  0  0  0  0  0  0
    6.1405    8.2413    6.4356 O   0  0  0  0  0  1  0  0  0  0  0  0
    2.4046    8.2470    4.0914 O   0  0  0  0  0  1  0  0  0  0  0  0
    1.1648    8.2999    7.8078 N   0  0  0  0  0  0  0  0  0  0  0  0
    3.3530    8.0640    9.1747 N   0  0  0  0  0  0  0  0  0  0  0  0
    5.4339    7.1613    9.0976 N   0  0  0  0  0  0  0  0  0  0  0  0
    8.8141    6.0795    9.2757 N   0  0  0  0  0  0  0  0  0  0  0  0
    3.0250    5.9627    7.0736 C   0  0  0  0  0  2  0  0  0  0  0  0
    5.0500    7.9947    6.6647 C   0  0  0  0  0  2  0  0  0  0  0  0
    2.7061    8.0621    5.1815 C   0  0  0  0  0  2  0  0  0  0  0  0
    0.0666    8.3609    7.0617 C   0  0  0  0  0  3  0  0  0  0  0  0
    0.1343    7.9243    6.0736 H   0  0  0  0  0  0  0  0  0  0  0  0
   -1.1101    8.9476    7.4897 C   0  0  0  0  0  0  0  0  0  0  0  0
   -1.9662    8.9797    6.8356 H   0  0  0  0  0  0  0  0  0  0  0  0
   -1.1536    9.5003    8.7614 C   0  0  0  0  0  0  0  0  0  0  0  0
   -2.0475    9.9814    9.1275 H   0  0  0  0  0  0  0  0  0  0  0  0
   -0.0250    9.4227    9.5537 C   0  0  0  0  0  0  0  0  0  0  0  0
   -0.0340    9.8431   10.5458 H   0  0  0  0  0  0  0  0  0  0  0  0
    1.1268    8.8167    9.0534 C   0  0  0  0  0  0  0  0  0  0  0  0
    2.3644    8.6706    9.8236 C   0  0  0  0  0  0  0  0  0  0  0  0
    2.5136    9.1088   11.1560 C   0  0  0  0  0  0  0  0  0  0  0  0
    1.6994    9.6087   11.6541 H   0  0  0  0  0  0  0  0  0  0  0  0
    3.7018    8.9190   11.8064 C   0  0  0  0  0  0  0  0  0  0  0  0
    3.8464    9.2687   12.8182 H   0  0  0  0  0  0  0  0  0  0  0  0
    4.7511    8.2555   11.1430 C   0  0  0  0  0  0  0  0  0  0  0  0
    4.5192    7.8285    9.8089 C   0  0  2  0  0  3  0  0  0  0  0  0
    6.0245    7.9912   11.6904 C   0  0  0  0  0  0  0  0  0  0  0  0
    6.2439    8.3228   12.6956 H   0  0  0  0  0  0  0  0  0  0  0  0
    6.9497    7.3222   10.9406 C   0  0  0  0  0  0  0  0  0  0  0  0
    7.9387    7.0978   11.3047 H   0  0  0  0  0  0  0  0  0  0  0  0
    6.6045    6.8996    9.6330 C   0  0  0  0  0  0  0  0  0  0  0  0
    7.5621    6.1390    8.8235 C   0  0  0  0  0  0  0  0  0  0  0  0
    7.1560    5.5096    7.6454 C   0  0  0  0  0  0  0  0  0  0  0  0
    6.1242    5.5726    7.3368 H   0  0  0  0  0  0  0  0  0  0  0  0
    8.1023    4.8183    6.9099 C   0  0  0  0  0  0  0  0  0  0  0  0
    7.8246    4.3242    5.9907 H   0  0  0  0  0  0  0  0  0  0  0  0
    9.4086    4.7725    7.3728 C   0  0  0  0  0  0  0  0  0  0  0  0
   10.1780    4.2491    6.8270 H   0  0  0  0  0  0  0  0  0  0  0  0
    9.7054    5.4175    8.5665 C   0  0  0  0  0  0  0  0  0  0  0  0
   10.7076    5.4049    8.9757 H   0  0  0  0  0  0  0  0  0  0  0  0
  1  2  1  0  0  0  0
  1  6  1  0  0  0  0
  1  7  1  0  0  0  0
  4 11  1  0  0  0  0
  5 12  1  0  0  0  0
  6 21  1  0  0  0  0
  7 28  1  0  0  0  0
  7 22  1  0  0  0  0
  8 33  2  0  0  0  0
 10  1  1  0  0  0  0
 10  3  1  0  0  0  0
 11  1  1  0  0  0  0
 12  1  1  0  0  0  0
 13 15  1  0  0  0  0
 13  6  1  0  0  0  0
 14 13  1  0  0  0  0
 15 17  2  0  0  0  0
 16 15  1  0  0  0  0
 17 18  1  0  0  0  0
 17 19  1  0  0  0  0
 19 20  1  0  0  0  0
 21 19  2  0  0  0  0
 21 22  1  0  0  0  0
 22 23  2  0  0  0  0
 23 24  1  0  0  0  0
 23 25  1  0  0  0  0
 25 26  1  0  0  0  0
 27 29  1  0  0  0  0
 27 25  2  0  0  0  0
 28  8  1  1  0  0  0
 28 27  1  0  0  0  0
 29 30  1  0  0  0  0
 31 32  1  0  0  0  0
 31 29  2  0  0  0  0
 33 31  1  0  0  0  0
 34  9  1  0  0  0  0
 34 33  1  0  0  0  0
 35 34  2  0  0  0  0
 36 35  1  0  0  0  0
 37 39  2  0  0  0  0
 37 35  1  0  0  0  0
 38 37  1  0  0  0  0
 39 41  1  0  0  0  0
 40 39  1  0  0  0  0
 41 42  1  0  0  0  0
 41  9  2  0  0  0  0
M  END
$$$$
