CSD_code = REYYEZ | q = 0 | S = 0 | Stoichiometry = C11H16ClN4ORh | MND = 4
 OpenBabel04212202093D

 34 35  0  0  1  0  0  0  0  0999 V2000
    1.0929    3.0427    0.4812 Rh  0  0  2  0  0  0  0  0  0  0  0  0
    2.1172    4.6707    1.6795 Cl  0  0  0  0  0  0  0  0  0  0  0  0
   -0.2515    0.9044   -1.0935 O   0  0  0  0  0  1  0  0  0  0  0  0
    3.0730    1.3400    2.0066 N   0  0  0  0  0  0  0  0  0  0  0  0
    3.9056    1.9187    0.1188 N   0  0  0  0  0  0  0  0  0  0  0  0
   -1.4545    4.5671    1.1618 N   0  0  0  0  0  0  0  0  0  0  0  0
   -0.4729    5.4251   -0.5388 N   0  0  0  0  0  0  0  0  0  0  0  0
    2.7748    1.9661    0.8510 C   0  0  0  0  0  0  0  0  0  0  0  0
    2.1553    1.1907    3.1003 C   0  0  0  0  0  0  0  0  0  0  0  0
    4.3703    0.9039    1.9976 C   0  0  0  0  0  0  0  0  0  0  0  0
    4.8969    1.2698    0.8059 C   0  0  0  0  0  0  0  0  0  0  0  0
    4.0526    2.5047   -1.1832 C   0  0  0  0  0  0  0  0  0  0  0  0
    0.2716    1.7375   -0.4788 C   0  0  0  0  0  2  0  0  0  0  0  0
   -0.4243    4.3815    0.3125 C   0  0  1  0  0  3  0  0  0  0  0  0
   -1.7556    3.7055    2.2696 C   0  0  0  0  0  0  0  0  0  0  0  0
   -2.1395    5.7099    0.8449 C   0  0  0  0  0  0  0  0  0  0  0  0
   -1.5200    6.2507   -0.2298 C   0  0  0  0  0  0  0  0  0  0  0  0
    0.4722    5.6453   -1.5965 C   0  0  0  0  0  0  0  0  0  0  0  0
    2.5772    1.6170    4.0116 H   0  0  0  0  0  0  0  0  0  0  0  0
    1.2420    1.7388    2.8365 H   0  0  0  0  0  0  0  0  0  0  0  0
    1.9184    0.1376    3.2687 H   0  0  0  0  0  0  0  0  0  0  0  0
    4.8084    0.3833    2.8245 H   0  0  0  0  0  0  0  0  0  0  0  0
    5.8783    1.1271    0.4020 H   0  0  0  0  0  0  0  0  0  0  0  0
    4.7758    3.3223   -1.1556 H   0  0  0  0  0  0  0  0  0  0  0  0
    3.0742    2.8997   -1.4796 H   0  0  0  0  0  0  0  0  0  0  0  0
    4.3820    1.7574   -1.9077 H   0  0  0  0  0  0  0  0  0  0  0  0
   -2.8003    3.3908    2.2396 H   0  0  0  0  0  0  0  0  0  0  0  0
   -1.1025    2.8287    2.1939 H   0  0  0  0  0  0  0  0  0  0  0  0
   -1.5602    4.2156    3.2154 H   0  0  0  0  0  0  0  0  0  0  0  0
   -2.9925    6.0421    1.4006 H   0  0  0  0  0  0  0  0  0  0  0  0
   -1.7345    7.1412   -0.7846 H   0  0  0  0  0  0  0  0  0  0  0  0
    1.2466    4.8730   -1.5082 H   0  0  0  0  0  0  0  0  0  0  0  0
    0.9344    6.6284   -1.4949 H   0  0  0  0  0  0  0  0  0  0  0  0
   -0.0119    5.5719   -2.5731 H   0  0  0  0  0  0  0  0  0  0  0  0
  1  8  2  0  0  0  0
  1  2  1  6  0  0  0
  3 13  1  0  0  0  0
  4  9  1  0  0  0  0
  5 11  1  0  0  0  0
  5  8  1  0  0  0  0
  6 15  1  0  0  0  0
  7 17  1  0  0  0  0
  7 14  1  0  0  0  0
  8  4  1  0  0  0  0
  9 21  1  0  0  0  0
  9 19  1  0  0  0  0
 10  4  1  0  0  0  0
 10 22  1  0  0  0  0
 11 10  2  0  0  0  0
 12 24  1  0  0  0  0
 12  5  1  0  0  0  0
 13  1  1  0  0  0  0
 14  1  1  1  0  0  0
 14  6  1  0  0  0  0
 15 29  1  0  0  0  0
 16  6  1  0  0  0  0
 16 30  1  0  0  0  0
 17 16  2  0  0  0  0
 18 32  1  0  0  0  0
 18 33  1  0  0  0  0
 18  7  1  0  0  0  0
 20  9  1  0  0  0  0
 23 11  1  0  0  0  0
 25 12  1  0  0  0  0
 26 12  1  0  0  0  0
 27 15  1  0  0  0  0
 28 15  1  0  0  0  0
 31 17  1  0  0  0  0
 34 18  1  0  0  0  0
M  END
$$$$
