CSD_code = REZHIP | q = 1 | S = 0 | Stoichiometry = C5H17Cl2N2O2Pt(1+) | MND = 6
 OpenBabel04212202093D

 29 28  0  0  0  0  0  0  0  0999 V2000
    2.2199   -1.7253   12.1823 Pt  0  0  0  0  0  0  0  0  0  0  0  0
    1.5200   -3.9271   11.9778 Cl  0  0  0  0  0  0  0  0  0  0  0  0
    1.2942   -1.5724   14.2711 Cl  0  0  0  0  0  0  0  0  0  0  0  0
    0.0203   -1.3751   11.4911 O   0  0  0  0  0  0  0  0  0  0  0  0
   -0.4732   -1.1519   12.2955 H   0  0  0  0  0  0  0  0  0  0  0  0
   -0.2688   -2.2702   11.2479 H   0  0  0  0  0  0  0  0  0  0  0  0
    4.1287   -2.1276   12.6724 O   0  0  0  0  0  0  0  0  0  0  0  0
    3.0295   -1.7601   10.2008 N   0  0  0  0  0  4  0  0  0  0  0  0
    3.9597   -2.1736   10.3026 H   0  0  0  0  0  0  0  0  0  0  0  0
    2.5020   -2.3259    9.5364 H   0  0  0  0  0  0  0  0  0  0  0  0
    2.8361    0.3508   12.1584 N   0  0  0  0  0  4  0  0  0  0  0  0
    3.1226   -0.3560    9.7887 C   0  0  0  0  0  0  0  0  0  0  0  0
    2.1245   -0.0080    9.5119 H   0  0  0  0  0  0  0  0  0  0  0  0
    3.7780   -0.2351    8.9191 H   0  0  0  0  0  0  0  0  0  0  0  0
    3.6838    0.4549   10.9568 C   0  0  0  0  0  0  0  0  0  0  0  0
    3.7955    1.5048   10.6642 H   0  0  0  0  0  0  0  0  0  0  0  0
    4.6698    0.0565   11.2111 H   0  0  0  0  0  0  0  0  0  0  0  0
    1.6442    1.1925   12.0560 C   0  0  0  0  0  0  0  0  0  0  0  0
    1.0364    0.9147   11.1970 H   0  0  0  0  0  0  0  0  0  0  0  0
    1.9274    2.2446   11.9580 H   0  0  0  0  0  0  0  0  0  0  0  0
    1.0476    1.0813   12.9602 H   0  0  0  0  0  0  0  0  0  0  0  0
    3.5954    0.7356   13.3482 C   0  0  0  0  0  0  0  0  0  0  0  0
    4.4531    0.0766   13.4693 H   0  0  0  0  0  0  0  0  0  0  0  0
    2.9605    0.6479   14.2277 H   0  0  0  0  0  0  0  0  0  0  0  0
    3.9450    1.7677   13.2645 H   0  0  0  0  0  0  0  0  0  0  0  0
    4.3572   -3.0161   13.7056 C   0  0  0  0  0  0  0  0  0  0  0  0
    5.4507   -3.1108   13.7528 H   0  0  0  0  0  0  0  0  0  0  0  0
    3.9500   -4.0142   13.5108 H   0  0  0  0  0  0  0  0  0  0  0  0
    4.0097   -2.6402   14.6748 H   0  0  0  0  0  0  0  0  0  0  0  0
  1  7  1  0  0  0  0
  1  3  1  0  0  0  0
  2  1  1  0  0  0  0
  4  5  1  0  0  0  0
  6  4  1  0  0  0  0
  7 26  1  0  0  0  0
  8  9  1  0  0  0  0
  8  1  1  0  0  0  0
 10  8  1  0  0  0  0
 11  1  1  0  0  0  0
 11 22  1  0  0  0  0
 12  8  1  0  0  0  0
 12 15  1  0  0  0  0
 13 12  1  0  0  0  0
 14 12  1  0  0  0  0
 15 17  1  0  0  0  0
 15 11  1  0  0  0  0
 16 15  1  0  0  0  0
 18 11  1  0  0  0  0
 18 21  1  0  0  0  0
 19 18  1  0  0  0  0
 20 18  1  0  0  0  0
 22 23  1  0  0  0  0
 22 24  1  0  0  0  0
 25 22  1  0  0  0  0
 26 27  1  0  0  0  0
 26 29  1  0  0  0  0
 28 26  1  0  0  0  0
M  END
$$$$
