CSD_code = RIBXIK | q = 0 | S = 0 | Stoichiometry = C23H22ClN2O7Re | MND = 6
 OpenBabel04212202093D

 56 57  0  0  0  0  0  0  0  0999 V2000
    2.5123    7.1715    7.0339 Re  0  0  0  0  0  0  0  0  0  0  0  0
    3.7007    9.1666    7.4751 Cl  0  0  0  0  0  0  0  0  0  0  0  0
    1.2551    4.4429    6.3107 O   0  0  0  0  0  1  0  0  0  0  0  0
    1.0178    7.4752    9.7198 O   0  0  0  0  0  1  0  0  0  0  0  0
    0.4541    8.9163    5.5302 O   0  0  0  0  0  1  0  0  0  0  0  0
    7.3067    6.2740   -0.0649 O   0  0  0  0  0  0  0  0  0  0  0  0
    7.2146    8.8052    0.0441 O   0  0  0  0  0  0  0  0  0  0  0  0
    7.4555    7.8951   -0.3024 H   0  0  0  0  0  0  0  0  0  0  0  0
   10.2170    4.6076    9.4260 O   0  0  0  0  0  0  0  0  0  0  0  0
    9.0200    3.5773   11.4114 O   0  0  0  0  0  0  0  0  0  0  0  0
    9.7851    3.8404   10.8186 H   0  0  0  0  0  0  0  0  0  0  0  0
    3.7996    7.1140    5.1864 N   0  0  0  0  0  0  0  0  0  0  0  0
    4.2322    6.1956    8.0299 N   0  0  0  0  0  0  0  0  0  0  0  0
    1.7096    5.4638    6.5911 C   0  0  0  0  0  2  0  0  0  0  0  0
    1.5377    7.3291    8.7103 C   0  0  0  0  0  2  0  0  0  0  0  0
    1.1744    8.2257    6.0905 C   0  0  0  0  0  2  0  0  0  0  0  0
    5.0652    7.5259    5.2315 C   0  0  0  0  0  3  0  0  0  0  0  0
    5.4503    7.8196    6.1996 H   0  0  0  0  0  0  0  0  0  0  0  0
    5.8680    7.6327    4.1116 C   0  0  0  0  0  0  0  0  0  0  0  0
    6.8860    7.9759    4.2114 H   0  0  0  0  0  0  0  0  0  0  0  0
    5.3523    7.3026    2.8621 C   0  0  0  0  0  0  0  0  0  0  0  0
    4.0296    6.8630    2.8227 C   0  0  0  0  0  0  0  0  0  0  0  0
    3.5653    6.6062    1.8833 H   0  0  0  0  0  0  0  0  0  0  0  0
    3.3010    6.7852    3.9920 C   0  0  0  0  0  0  0  0  0  0  0  0
    2.2711    6.4515    3.9731 H   0  0  0  0  0  0  0  0  0  0  0  0
    6.2884    4.8941    1.5877 C   0  0  0  0  0  0  0  0  0  0  0  0
    6.8587    4.1098    1.0967 H   0  0  0  0  0  0  0  0  0  0  0  0
    5.2272    4.6905    1.4579 H   0  0  0  0  0  0  0  0  0  0  0  0
    6.5060    4.9016    2.6535 H   0  0  0  0  0  0  0  0  0  0  0  0
    6.6331    6.2215    0.9651 C   0  0  0  0  0  0  0  0  0  0  0  0
    6.1653    7.4182    1.6359 C   0  0  0  0  0  0  0  0  0  0  0  0
    6.4934    8.6522    1.1343 C   0  0  0  0  0  0  0  0  0  0  0  0
    6.0564    9.9335    1.7689 C   0  0  0  0  0  0  0  0  0  0  0  0
    6.8024   10.2566    2.4944 H   0  0  0  0  0  0  0  0  0  0  0  0
    5.1043    9.8235    2.2796 H   0  0  0  0  0  0  0  0  0  0  0  0
    5.9842   10.7010    1.0025 H   0  0  0  0  0  0  0  0  0  0  0  0
    4.8777    5.1622    7.4858 C   0  0  0  0  0  3  0  0  0  0  0  0
    4.4282    4.7133    6.6082 H   0  0  0  0  0  0  0  0  0  0  0  0
    6.0580    4.6557    7.9905 C   0  0  0  0  0  0  0  0  0  0  0  0
    6.5333    3.8151    7.5084 H   0  0  0  0  0  0  0  0  0  0  0  0
    6.6174    5.2261    9.1330 C   0  0  0  0  0  0  0  0  0  0  0  0
    5.9229    6.2836    9.7131 C   0  0  0  0  0  0  0  0  0  0  0  0
    6.3000    6.7638   10.6022 H   0  0  0  0  0  0  0  0  0  0  0  0
    4.7512    6.7328    9.1343 C   0  0  0  0  0  0  0  0  0  0  0  0
    4.2195    7.5708    9.5644 H   0  0  0  0  0  0  0  0  0  0  0  0
    9.0603    5.8519    7.7555 C   0  0  0  0  0  0  0  0  0  0  0  0
   10.0676    6.1075    7.4368 H   0  0  0  0  0  0  0  0  0  0  0  0
    8.4892    6.7592    7.9412 H   0  0  0  0  0  0  0  0  0  0  0  0
    8.5675    5.2945    6.9611 H   0  0  0  0  0  0  0  0  0  0  0  0
    9.1332    5.0129    9.0044 C   0  0  0  0  0  0  0  0  0  0  0  0
    7.8894    4.7326    9.6951 C   0  0  0  0  0  0  0  0  0  0  0  0
    7.9087    4.0357   10.8756 C   0  0  0  0  0  0  0  0  0  0  0  0
    6.6723    3.7251   11.6577 C   0  0  0  0  0  0  0  0  0  0  0  0
    6.8427    2.8274   12.2464 H   0  0  0  0  0  0  0  0  0  0  0  0
    5.8125    3.5902   11.0078 H   0  0  0  0  0  0  0  0  0  0  0  0
    6.4599    4.5417   12.3468 H   0  0  0  0  0  0  0  0  0  0  0  0
  1  2  1  0  0  0  0
  1 13  1  0  0  0  0
  1 15  1  0  0  0  0
  3 14  1  0  0  0  0
  5 16  1  0  0  0  0
  6 30  2  0  0  0  0
  7 32  1  0  0  0  0
  8  7  1  0  0  0  0
 11 10  1  0  0  0  0
 12 17  1  0  0  0  0
 12  1  1  0  0  0  0
 13 44  1  0  0  0  0
 14  1  1  0  0  0  0
 15  4  1  0  0  0  0
 16  1  1  0  0  0  0
 17 18  1  0  0  0  0
 19 20  1  0  0  0  0
 19 17  1  0  0  0  0
 21 19  2  0  0  0  0
 22 21  1  0  0  0  0
 22 24  2  0  0  0  0
 23 22  1  0  0  0  0
 24 12  1  0  0  0  0
 25 24  1  0  0  0  0
 26 29  1  0  0  0  0
 27 26  1  0  0  0  0
 28 26  1  0  0  0  0
 30 26  1  0  0  0  0
 30 31  1  0  0  0  0
 31 21  1  0  0  0  0
 32 31  2  0  0  0  0
 32 33  1  0  0  0  0
 33 35  1  0  0  0  0
 33 34  1  0  0  0  0
 36 33  1  0  0  0  0
 37 39  1  0  0  0  0
 37 13  1  0  0  0  0
 38 37  1  0  0  0  0
 39 41  2  0  0  0  0
 40 39  1  0  0  0  0
 41 51  1  0  0  0  0
 41 42  1  0  0  0  0
 42 43  1  0  0  0  0
 44 45  1  0  0  0  0
 44 42  2  0  0  0  0
 46 48  1  0  0  0  0
 46 50  1  0  0  0  0
 47 46  1  0  0  0  0
 49 46  1  0  0  0  0
 50  9  2  0  0  0  0
 50 51  1  0  0  0  0
 51 52  2  0  0  0  0
 52 10  1  0  0  0  0
 52 53  1  0  0  0  0
 53 54  1  0  0  0  0
 53 56  1  0  0  0  0
 55 53  1  0  0  0  0
M  END
$$$$
