CSD_code = RIDZUZ | q = 0 | S = 0 | Stoichiometry = C18H17ClN2Pd | MND = 5
 OpenBabel04212202093D

 39 40  0  0  1  0  0  0  0  0999 V2000
   10.1708    2.4788    4.8091 Pd  0  0  0  0  0  0  0  0  0  0  0  0
   10.8878    3.3364    6.8019 Cl  0  0  0  0  0 15  0  0  0  0  0  0
    8.3385    2.0684    5.6973 N   0  0  0  0  0  0  0  0  0  0  0  0
    5.5791    3.0452    3.1185 N   0  0  0  0  0  0  0  0  0  0  0  0
    8.2598    1.1068    6.6111 C   0  0  0  0  0  3  0  0  0  0  0  0
    7.0724    0.7867    7.2455 C   0  0  0  0  0  0  0  0  0  0  0  0
    5.9267    1.4938    6.9091 C   0  0  0  0  0  0  0  0  0  0  0  0
    6.0135    2.5021    5.9658 C   0  0  0  0  0  0  0  0  0  0  0  0
    7.2458    2.7725    5.3798 C   0  0  0  0  0  0  0  0  0  0  0  0
    7.4345    3.8472    4.3876 C   0  0  0  0  0  0  0  0  0  0  0  0
    8.4654    4.7582    4.5464 C   0  0  0  0  0  0  0  0  0  0  0  0
    8.6524    5.7927    3.6128 C   0  0  0  0  0  0  0  0  0  0  0  0
    7.8413    5.9009    2.5166 C   0  0  0  0  0  0  0  0  0  0  0  0
    6.7904    4.9840    2.3145 C   0  0  0  0  0  0  0  0  0  0  0  0
    5.9241    5.0407    1.2024 C   0  0  0  0  0  0  0  0  0  0  0  0
    4.9253    4.1139    1.0802 C   0  0  0  0  0  0  0  0  0  0  0  0
    4.7994    3.1311    2.0785 C   0  0  0  0  0  0  0  0  0  0  0  0
    6.5709    3.9468    3.2641 C   0  0  0  0  0  0  0  0  0  0  0  0
   10.9049    2.4494    2.8496 C   0  0  1  0  0  3  0  0  0  0  0  0
   11.9742    2.4778    3.7809 C   0  0  0  0  0  0  0  0  0  0  0  0
    9.9610    1.4196    2.9859 C   0  0  0  0  0  3  0  0  0  0  0  0
   10.6583    3.6184    1.9379 C   0  0  0  0  0  0  0  0  0  0  0  0
    9.1863    0.5859    6.8424 H   0  0  0  0  0  0  0  0  0  0  0  0
    7.0464    0.0007    7.9831 H   0  0  0  0  0  0  0  0  0  0  0  0
    4.9827    1.2658    7.3806 H   0  0  0  0  0  0  0  0  0  0  0  0
    5.1509    3.0808    5.6804 H   0  0  0  0  0  0  0  0  0  0  0  0
    9.0713    4.7502    5.4538 H   0  0  0  0  0  0  0  0  0  0  0  0
    9.4436    6.5087    3.7790 H   0  0  0  0  0  0  0  0  0  0  0  0
    7.9858    6.6914    1.7938 H   0  0  0  0  0  0  0  0  0  0  0  0
    6.0660    5.8163    0.4623 H   0  0  0  0  0  0  0  0  0  0  0  0
    4.2450    4.1238    0.2429 H   0  0  0  0  0  0  0  0  0  0  0  0
    4.0201    2.3821    2.0130 H   0  0  0  0  0  0  0  0  0  0  0  0
   12.6618    3.3197    3.7468 H   0  0  0  0  0  0  0  0  0  0  0  0
   12.4365    1.5331    4.0877 H   0  0  0  0  0  0  0  0  0  0  0  0
   10.2945    0.4230    3.2832 H   0  0  0  0  0  0  0  0  0  0  0  0
    9.0799    1.4313    2.3532 H   0  0  0  0  0  0  0  0  0  0  0  0
   11.2666    3.4997    1.0397 H   0  0  0  0  0  0  0  0  0  0  0  0
   10.9449    4.5549    2.4188 H   0  0  0  0  0  0  0  0  0  0  0  0
    9.6122    3.6742    1.6383 H   0  0  0  0  0  0  0  0  0  0  0  0
  1  3  1  0  0  0  0
  3  5  1  0  0  0  0
  4 18  1  0  0  0  0
  5 23  1  0  0  0  0
  5  6  1  0  0  0  0
  6 24  1  0  0  0  0
  7  6  2  0  0  0  0
  7 25  1  0  0  0  0
  8  7  1  0  0  0  0
  9  3  1  0  0  0  0
  9  8  2  0  0  0  0
 10 11  1  0  0  0  0
 10  9  1  0  0  0  0
 11 27  1  0  0  0  0
 12 28  1  0  0  0  0
 12 11  2  0  0  0  0
 13 12  1  0  0  0  0
 14 13  2  0  0  0  0
 14 18  1  0  0  0  0
 15 14  1  0  0  0  0
 16 15  2  0  0  0  0
 16 17  1  0  0  0  0
 17  4  2  0  0  0  0
 18 10  2  0  0  0  0
 19 21  1  1  0  0  0
 19 20  1  0  0  0  0
 20 34  1  0  0  0  0
 20  1  1  0  0  0  0
 21 35  1  0  0  0  0
 22 38  1  0  0  0  0
 22 19  1  0  0  0  0
 26  8  1  0  0  0  0
 29 13  1  0  0  0  0
 30 15  1  0  0  0  0
 31 16  1  0  0  0  0
 32 17  1  0  0  0  0
 33 20  1  0  0  0  0
 36 21  1  0  0  0  0
 37 22  1  0  0  0  0
 39 22  1  0  0  0  0
M  END
$$$$
