CSD_code = RIDZEJ | q = 0 | S = 0 | Stoichiometry = C30H22Cl2Zr | MND = 12
 OpenBabel04212202093D

 55 61  0  0  1  0  0  0  0  0999 V2000
    8.1870    0.9768   12.9497 Zr  0  0  0  0  0  0  0  0  0  0  0  0
    6.6784   -0.6479   13.6328 Cl  0  0  0  0  0  0  0  0  0  0  0  0
    8.5899    1.6568   15.1429 Cl  0  0  0  0  0  0  0  0  0  0  0  0
    9.8802    1.5739    9.9942 C   0  0  0  0  0  0  0  0  0  0  0  0
    8.4459    2.1097    9.7237 C   0  0  1  0  0  0  0  0  0  0  0  0
    7.7120    2.2939   11.0337 C   0  0  0  0  0  0  0  0  0  0  0  0
    9.1167    4.1552   12.1963 C   0  0  0  0  0  0  0  0  0  0  0  0
    9.1480    4.9902   13.2881 C   0  0  0  0  0  0  0  0  0  0  0  0
    8.1248    4.9890   14.2467 C   0  0  0  0  0  0  0  0  0  0  0  0
    7.0450    4.1440   14.1303 C   0  0  0  0  0  0  0  0  0  0  0  0
    4.7802    1.9019   13.2021 C   0  0  0  0  0  0  0  0  0  0  0  0
    4.0154    0.9624   12.5491 C   0  0  0  0  0  0  0  0  0  0  0  0
    4.4382    0.4010   11.3351 C   0  0  0  0  0  0  0  0  0  0  0  0
    5.6273    0.7600   10.7481 C   0  0  0  0  0  0  0  0  0  0  0  0
    8.0316    3.2662   12.0448 C   0  0  0  0  0  0  0  0  0  0  0  0
    6.9847    3.2657   13.0420 C   0  0  0  0  0  0  0  0  0  0  0  0
    5.9991    2.2957   12.6369 C   0  0  0  0  0  0  0  0  0  0  0  0
    6.4423    1.7213   11.3832 C   0  0  0  0  0  0  0  0  0  0  0  0
    9.9224    0.7447   11.2481 C   0  0  0  0  0  0  0  0  0  0  0  0
   10.6186    1.0685   12.4398 C   0  0  0  0  0  0  0  0  0  0  0  0
   10.4878    0.0152   13.3695 C   0  0  0  0  0  0  0  0  0  0  0  0
    9.3049   -2.2873   13.1979 C   0  0  0  0  0  0  0  0  0  0  0  0
    8.5380   -3.0600   12.3653 C   0  0  0  0  0  0  0  0  0  0  0  0
    8.1446   -2.6030   11.0932 C   0  0  0  0  0  0  0  0  0  0  0  0
    8.5243   -1.3722   10.6220 C   0  0  0  0  0  0  0  0  0  0  0  0
    9.3274   -0.5453   11.4390 C   0  0  2  0  0  0  0  0  0  0  0  0
    9.7054   -1.0077   12.7633 C   0  0  0  0  0  0  0  0  0  0  0  0
    7.4529    4.3387    9.0758 C   0  0  0  0  0  0  0  0  0  0  0  0
    7.4437    5.5016    8.3272 C   0  0  0  0  0  0  0  0  0  0  0  0
    8.4296    5.7320    7.3837 C   0  0  0  0  0  0  0  0  0  0  0  0
    9.4165    4.7828    7.1868 C   0  0  0  0  0  0  0  0  0  0  0  0
    9.4254    3.6190    7.9359 C   0  0  0  0  0  0  0  0  0  0  0  0
    8.4514    3.3872    8.9001 C   0  0  0  0  0  0  0  0  0  0  0  0
   10.5706    2.4140   10.1041 H   0  0  0  0  0  0  0  0  0  0  0  0
   10.2156    0.9733    9.1436 H   0  0  0  0  0  0  0  0  0  0  0  0
    7.9021    1.3528    9.1413 H   0  0  0  0  0  0  0  0  0  0  0  0
    9.8864    4.2153   11.4381 H   0  0  0  0  0  0  0  0  0  0  0  0
    9.9723    5.6779   13.4076 H   0  0  0  0  0  0  0  0  0  0  0  0
    8.1883    5.6680   15.0826 H   0  0  0  0  0  0  0  0  0  0  0  0
    6.2522    4.1543   14.8654 H   0  0  0  0  0  0  0  0  0  0  0  0
    4.4478    2.3365   14.1352 H   0  0  0  0  0  0  0  0  0  0  0  0
    3.0749    0.6463   12.9726 H   0  0  0  0  0  0  0  0  0  0  0  0
    3.8078   -0.3316   10.8538 H   0  0  0  0  0  0  0  0  0  0  0  0
    5.9196    0.3289    9.7989 H   0  0  0  0  0  0  0  0  0  0  0  0
   11.2497    1.9407   12.5774 H   0  0  0  0  0  0  0  0  0  0  0  0
   10.9901   -0.0536   14.3260 H   0  0  0  0  0  0  0  0  0  0  0  0
    9.6061   -2.6447   14.1737 H   0  0  0  0  0  0  0  0  0  0  0  0
    8.2217   -4.0415   12.6834 H   0  0  0  0  0  0  0  0  0  0  0  0
    7.5369   -3.2480   10.4764 H   0  0  0  0  0  0  0  0  0  0  0  0
    8.2552   -1.0589    9.6207 H   0  0  0  0  0  0  0  0  0  0  0  0
    6.6728    4.1707    9.8034 H   0  0  0  0  0  0  0  0  0  0  0  0
    6.6620    6.2302    8.4828 H   0  0  0  0  0  0  0  0  0  0  0  0
    8.4256    6.6415    6.8017 H   0  0  0  0  0  0  0  0  0  0  0  0
   10.1850    4.9460    6.4454 H   0  0  0  0  0  0  0  0  0  0  0  0
   10.1996    2.8887    7.7560 H   0  0  0  0  0  0  0  0  0  0  0  0
  1  2  1  0  0  0  0
  1  3  1  0  0  0  0
  4 34  1  0  0  0  0
  4 19  1  0  0  0  0
  5 36  1  6  0  0  0
  5  4  1  0  0  0  0
  5  6  1  0  0  0  0
  6 18  1  0  0  0  0
  6 15  1  0  0  0  0
  6  1  1  0  0  0  0
  7  8  1  0  0  0  0
  8 38  1  0  0  0  0
  8  9  2  0  0  0  0
  9 39  1  0  0  0  0
 10  9  1  0  0  0  0
 10 40  1  0  0  0  0
 11 41  1  0  0  0  0
 12 42  1  0  0  0  0
 12 11  2  0  0  0  0
 13 12  1  0  0  0  0
 14 13  2  0  0  0  0
 14 18  1  0  0  0  0
 15  7  2  0  0  0  0
 15 16  1  0  0  0  0
 16 10  2  0  0  0  0
 17 16  1  0  0  0  0
 17 11  1  0  0  0  0
 18 17  2  0  0  0  0
 19 26  1  0  0  0  0
 19 20  2  0  0  0  0
 20 45  1  0  0  0  0
 20 21  1  0  0  0  0
 21 46  1  0  0  0  0
 22 47  1  0  0  0  0
 23 48  1  0  0  0  0
 23 22  2  0  0  0  0
 24 23  1  0  0  0  0
 25 24  2  0  0  0  0
 26 25  1  6  0  0  0
 26 27  1  0  0  0  0
 26  1  1  0  0  0  0
 27 22  1  0  0  0  0
 27 21  2  0  0  0  0
 28 51  1  0  0  0  0
 29 52  1  0  0  0  0
 29 28  2  0  0  0  0
 30 29  1  0  0  0  0
 31 30  2  0  0  0  0
 31 32  1  0  0  0  0
 32 33  2  0  0  0  0
 33 28  1  0  0  0  0
 33  5  1  0  0  0  0
 35  4  1  0  0  0  0
 37  7  1  0  0  0  0
 43 13  1  0  0  0  0
 44 14  1  0  0  0  0
 49 24  1  0  0  0  0
 50 25  1  0  0  0  0
 53 30  1  0  0  0  0
 54 31  1  0  0  0  0
 55 32  1  0  0  0  0
M  END
$$$$
