CSD_code = RIFGAR | q = 0 | S = 0 | Stoichiometry = C16H15AuClN3O2 | MND = 2
 OpenBabel04212202093D

 38 40  0  0  1  0  0  0  0  0999 V2000
    2.7133   14.0861    0.3385 Au  0  0  0  0  0  0  0  0  0  0  0  0
    3.4919   12.7474    1.5928 C   0  0  0  0  0  0  0  0  0  0  0  0
    4.7540   12.0986    1.4622 C   0  0  0  0  0  0  0  0  0  0  0  0
    5.7294   12.1252    0.4492 C   0  0  1  0  0  3  0  0  0  0  0  0
    6.9102   11.4485    0.6869 C   0  0  0  0  0  0  0  0  0  0  0  0
    7.6820   11.4562   -0.0678 H   0  0  0  0  0  0  0  0  0  0  0  0
    7.1177   10.7248    1.8645 C   0  0  0  0  0  0  0  0  0  0  0  0
    8.0529   10.2015    1.9955 H   0  0  0  0  0  0  0  0  0  0  0  0
    6.1622   10.6508    2.8532 C   0  0  0  0  0  0  0  0  0  0  0  0
    6.3330   10.0747    3.7493 H   0  0  0  0  0  0  0  0  0  0  0  0
    4.9788   11.3544    2.6451 C   0  0  0  0  0  0  0  0  0  0  0  0
    3.6693   11.0246    4.7618 C   0  0  0  0  0  0  0  0  0  0  0  0
    4.4488   10.3011    4.9896 H   0  0  0  0  0  0  0  0  0  0  0  0
    2.7015   10.5289    4.8545 H   0  0  0  0  0  0  0  0  0  0  0  0
    3.7290   11.8388    5.4907 H   0  0  0  0  0  0  0  0  0  0  0  0
    1.7347   12.6963    3.3144 C   0  0  0  0  0  0  0  0  0  0  0  0
    1.4758   13.6853    2.9298 H   0  0  0  0  0  0  0  0  0  0  0  0
    1.7970   12.7470    4.4034 H   0  0  0  0  0  0  0  0  0  0  0  0
    0.6750   11.6896    2.8728 C   0  0  0  0  0  0  0  0  0  0  0  0
    0.6048   11.6846    1.7880 H   0  0  0  0  0  0  0  0  0  0  0  0
   -0.2906   11.9717    3.2813 H   0  0  0  0  0  0  0  0  0  0  0  0
    0.9150   10.6834    3.2101 H   0  0  0  0  0  0  0  0  0  0  0  0
    5.4767   12.8227   -0.8207 C   0  0  0  0  0  0  0  0  0  0  0  0
    6.3317   13.8145   -1.2903 C   0  0  0  0  0  0  0  0  0  0  0  0
    7.2058   14.0754   -0.7115 H   0  0  0  0  0  0  0  0  0  0  0  0
    6.0524   14.4904   -2.4682 C   0  0  0  0  0  0  0  0  0  0  0  0
    6.7118   15.2756   -2.8042 H   0  0  0  0  0  0  0  0  0  0  0  0
    4.9301   14.1715   -3.2095 C   0  0  0  0  0  0  0  0  0  0  0  0
    4.6843   14.6908   -4.1224 H   0  0  0  0  0  0  0  0  0  0  0  0
    4.0944   13.1597   -2.7568 C   0  0  0  0  0  0  0  0  0  0  0  0
    4.3461   12.4970   -1.5644 C   0  0  0  0  0  0  0  0  0  0  0  0
    3.6893   11.6982   -1.2557 H   0  0  0  0  0  0  0  0  0  0  0  0
    2.0380   15.6220   -1.1580 Cl  0  0  0  0  0  0  0  0  0  0  0  0
    3.0270   12.3642    2.7735 N   0  0  0  0  0  0  0  0  0  0  0  0
    3.8781   11.4985    3.4270 N   0  0  0  0  0  0  0  0  0  0  0  0
    2.9311   12.7907   -3.5235 N   0  0  0  0  0  0  0  0  0  0  0  0
    2.1536   12.0087   -3.0172 O   0  0  0  0  0  0  0  0  0  0  0  0
    2.8170   13.2582   -4.6343 O   0  0  0  0  0  0  0  0  0  0  0  0
  1  2  1  0  0  0  0
  2 34  1  0  0  0  0
  3  2  2  0  0  0  0
  3 11  1  0  0  0  0
  4 23  1  6  0  0  0
  4  5  1  0  0  0  0
  4  3  1  0  0  0  0
  5  7  2  0  0  0  0
  6  5  1  0  0  0  0
  7  8  1  0  0  0  0
  7  9  1  0  0  0  0
  9 10  1  0  0  0  0
 11  9  2  0  0  0  0
 11 35  1  0  0  0  0
 12 14  1  0  0  0  0
 12 13  1  0  0  0  0
 12 15  1  0  0  0  0
 16 18  1  0  0  0  0
 17 16  1  0  0  0  0
 19 22  1  0  0  0  0
 19 21  1  0  0  0  0
 19 16  1  0  0  0  0
 20 19  1  0  0  0  0
 24 23  1  0  0  0  0
 24 25  1  0  0  0  0
 26 24  2  0  0  0  0
 27 26  1  0  0  0  0
 28 30  2  0  0  0  0
 28 26  1  0  0  0  0
 29 28  1  0  0  0  0
 30 31  1  0  0  0  0
 31 32  1  0  0  0  0
 31 23  2  0  0  0  0
 33  1  1  0  0  0  0
 34 16  1  0  0  0  0
 34 35  1  0  0  0  0
 35 12  1  0  0  0  0
 36 37  2  0  0  0  0
 36 30  1  0  0  0  0
 38 36  2  0  0  0  0
M  END
$$$$
