CSD_code = RIFPIF | q = 0 | S = 0 | Stoichiometry = C15H19Cl2NSiTi | MND = 8
 OpenBabel04212202093D

 39 41  0  0  1  0  0  0  0  0999 V2000
   13.5472   12.4443    1.9431 Ti  0  0  0  0  0  0  0  0  0  0  0  0
   12.2719   14.0672    1.2884 Cl  0  0  0  0  0  0  0  0  0  0  0  0
   13.0053   10.9631    0.4612 Cl  0  0  0  0  0  0  0  0  0  0  0  0
   13.8980   11.6707    4.7324 Si  0  0  0  0  0  0  0  0  0  0  0  0
   12.7226   11.8001    3.4516 N   0  0  0  0  0  0  0  0  0  0  0  0
   15.1782   12.3671    3.5005 C   0  0  2  0  0  0  0  0  0  0  0  0
   15.0803   13.7088    3.0388 C   0  0  0  0  0  0  0  0  0  0  0  0
   15.4887   13.7595    1.6881 C   0  0  0  0  0  0  0  0  0  0  0  0
   15.8130   12.4471    1.2846 C   0  0  0  0  0  0  0  0  0  0  0  0
   15.6050   11.5911    2.3877 C   0  0  0  0  0  0  0  0  0  0  0  0
   11.3183   11.4301    3.4786 C   0  0  1  0  0  0  0  0  0  0  0  0
   11.1747    9.9062    3.4454 C   0  0  0  0  0  0  0  0  0  0  0  0
   10.6669   12.1099    4.6654 C   0  0  0  0  0  0  0  0  0  0  0  0
   10.1000   11.4303    5.7331 C   0  0  0  0  0  0  0  0  0  0  0  0
    9.5671   12.1310    6.8040 C   0  0  0  0  0  0  0  0  0  0  0  0
    9.5973   13.5133    6.8213 C   0  0  0  0  0  0  0  0  0  0  0  0
   10.1629   14.1994    5.7580 C   0  0  0  0  0  0  0  0  0  0  0  0
   10.6935   13.5022    4.6897 C   0  0  0  0  0  0  0  0  0  0  0  0
   14.3245    9.8916    5.2927 C   0  0  0  0  0  0  0  0  0  0  0  0
   13.6274   12.7989    6.2488 C   0  0  0  0  0  0  0  0  0  0  0  0
   14.8441   14.5686    3.6566 H   0  0  0  0  0  0  0  0  0  0  0  0
   15.6293   14.6586    1.0991 H   0  0  0  0  0  0  0  0  0  0  0  0
   16.2440   12.1633    0.3313 H   0  0  0  0  0  0  0  0  0  0  0  0
   15.8410   10.5329    2.4152 H   0  0  0  0  0  0  0  0  0  0  0  0
   10.8456   11.8329    2.5599 H   0  0  0  0  0  0  0  0  0  0  0  0
   10.1266    9.6218    3.3932 H   0  0  0  0  0  0  0  0  0  0  0  0
   11.6879    9.5313    2.5589 H   0  0  0  0  0  0  0  0  0  0  0  0
   11.6332    9.4647    4.3265 H   0  0  0  0  0  0  0  0  0  0  0  0
   10.0621   10.3525    5.7406 H   0  0  0  0  0  0  0  0  0  0  0  0
    9.1258   11.5903    7.6288 H   0  0  0  0  0  0  0  0  0  0  0  0
    9.1804   14.0550    7.6574 H   0  0  0  0  0  0  0  0  0  0  0  0
   10.1859   15.2792    5.7627 H   0  0  0  0  0  0  0  0  0  0  0  0
   11.1412   14.0311    3.8553 H   0  0  0  0  0  0  0  0  0  0  0  0
   15.3049    9.8621    5.7564 H   0  0  0  0  0  0  0  0  0  0  0  0
   14.3272    9.1966    4.4577 H   0  0  0  0  0  0  0  0  0  0  0  0
   13.6091    9.5343    6.0261 H   0  0  0  0  0  0  0  0  0  0  0  0
   13.3806   13.8142    5.9542 H   0  0  0  0  0  0  0  0  0  0  0  0
   14.5184   12.8327    6.8663 H   0  0  0  0  0  0  0  0  0  0  0  0
   12.8122   12.4309    6.8625 H   0  0  0  0  0  0  0  0  0  0  0  0
  1  5  1  0  0  0  0
  1  6  1  0  0  0  0
  2  1  1  0  0  0  0
  3  1  1  0  0  0  0
  4 19  1  0  0  0  0
  4 20  1  0  0  0  0
  5 11  1  0  0  0  0
  5  4  1  0  0  0  0
  6 10  1  6  0  0  0
  6  4  1  0  0  0  0
  7  6  1  0  0  0  0
  7 21  1  0  0  0  0
  8  7  2  0  0  0  0
  9  8  1  0  0  0  0
  9 10  2  0  0  0  0
 10 24  1  0  0  0  0
 11 25  1  6  0  0  0
 11 13  1  0  0  0  0
 12 11  1  0  0  0  0
 12 28  1  0  0  0  0
 13 18  2  0  0  0  0
 13 14  1  0  0  0  0
 14 29  1  0  0  0  0
 14 15  2  0  0  0  0
 15 16  1  0  0  0  0
 15 30  1  0  0  0  0
 16 31  1  0  0  0  0
 17 32  1  0  0  0  0
 17 16  2  0  0  0  0
 18 17  1  0  0  0  0
 19 34  1  0  0  0  0
 19 36  1  0  0  0  0
 20 39  1  0  0  0  0
 20 38  1  0  0  0  0
 22  8  1  0  0  0  0
 23  9  1  0  0  0  0
 26 12  1  0  0  0  0
 27 12  1  0  0  0  0
 33 18  1  0  0  0  0
 35 19  1  0  0  0  0
 37 20  1  0  0  0  0
M  END
$$$$
