CSD_code = RIFRUT | q = 0 | S = 0 | Stoichiometry = C16H44ClN2OSi4V | MND = 4
 OpenBabel04212202093D

 69 68  0  0  0  0  0  0  0  0999 V2000
    6.4860    2.5398    4.8009 V   0  0  0  0  0  0  0  0  0  0  0  0
    5.2098    1.0665    5.8793 Cl  0  0  0  0  0  0  0  0  0  0  0  0
    4.1231    3.5726    3.0586 Si  0  0  0  0  0  0  0  0  0  0  0  0
    4.7366    4.7099    5.8064 Si  0  0  0  0  0  0  0  0  0  0  0  0
    8.7861    1.4020    6.5163 Si  0  0  0  0  0  0  0  0  0  0  0  0
    9.1018    4.0573    4.9897 Si  0  0  0  0  0  0  0  0  0  0  0  0
    6.8391    1.2898    3.3232 O   0  0  0  0  0  0  0  0  0  0  0  0
    5.1770    3.7432    4.4240 N   0  0  0  0  0  0  0  0  0  0  0  0
    8.2203    2.6279    5.4193 N   0  0  0  0  0  0  0  0  0  0  0  0
    5.1365    3.2866    1.4516 C   0  0  0  0  0  0  0  0  0  0  0  0
    2.9087    2.1096    3.3020 C   0  0  0  0  0  0  0  0  0  0  0  0
    3.1171    5.1511    2.6713 C   0  0  0  0  0  0  0  0  0  0  0  0
    5.8235    4.1973    7.2947 C   0  0  0  0  0  0  0  0  0  0  0  0
    2.9214    4.3977    6.3303 C   0  0  0  0  0  0  0  0  0  0  0  0
    5.0123    6.5747    5.4700 C   0  0  0  0  0  0  0  0  0  0  0  0
    9.3431    5.2624    6.4597 C   0  0  0  0  0  0  0  0  0  0  0  0
   10.8343    3.6800    4.2589 C   0  0  0  0  0  0  0  0  0  0  0  0
    8.1363    4.9709    3.6109 C   0  0  0  0  0  0  0  0  0  0  0  0
    7.8884    1.4729    8.2040 C   0  0  0  0  0  0  0  0  0  0  0  0
   10.6543    1.5364    6.8933 C   0  0  0  0  0  0  0  0  0  0  0  0
    8.5290   -0.3471    5.7759 C   0  0  0  0  0  0  0  0  0  0  0  0
    7.9230    1.5028    2.4270 C   0  0  0  0  0  0  0  0  0  0  0  0
    7.8402    0.3999    1.3748 C   0  0  0  0  0  0  0  0  0  0  0  0
    7.2197   -0.7427    2.1759 C   0  0  0  0  0  0  0  0  0  0  0  0
    6.2483    0.0059    3.0819 C   0  0  0  0  0  0  0  0  0  0  0  0
    9.0418   -1.0824    6.3879 H   0  0  0  0  0  0  0  0  0  0  0  0
    7.4753   -0.6065    5.7666 H   0  0  0  0  0  0  0  0  0  0  0  0
    8.9232   -0.4335    4.7673 H   0  0  0  0  0  0  0  0  0  0  0  0
   11.2618    1.3321    6.0198 H   0  0  0  0  0  0  0  0  0  0  0  0
   10.9280    0.8176    7.6577 H   0  0  0  0  0  0  0  0  0  0  0  0
   10.9184    2.5212    7.2592 H   0  0  0  0  0  0  0  0  0  0  0  0
    8.8563    1.4332    3.0058 H   0  0  0  0  0  0  0  0  0  0  0  0
    7.8436    2.5083    2.0061 H   0  0  0  0  0  0  0  0  0  0  0  0
   11.1534    4.4913    3.6124 H   0  0  0  0  0  0  0  0  0  0  0  0
   10.8504    2.7663    3.6729 H   0  0  0  0  0  0  0  0  0  0  0  0
   11.5750    3.5797    5.0424 H   0  0  0  0  0  0  0  0  0  0  0  0
    9.6807    4.7374    7.3478 H   0  0  0  0  0  0  0  0  0  0  0  0
    8.2606    0.6903    8.8583 H   0  0  0  0  0  0  0  0  0  0  0  0
    8.0407    2.4230    8.7076 H   0  0  0  0  0  0  0  0  0  0  0  0
    1.9906    2.4494    3.7700 H   0  0  0  0  0  0  0  0  0  0  0  0
    3.7659    5.9734    2.3890 H   0  0  0  0  0  0  0  0  0  0  0  0
    2.4417    4.9680    1.8421 H   0  0  0  0  0  0  0  0  0  0  0  0
    2.5206    5.4749    3.5151 H   0  0  0  0  0  0  0  0  0  0  0  0
    2.7329    3.3316    6.4139 H   0  0  0  0  0  0  0  0  0  0  0  0
    2.2120    4.8052    5.6194 H   0  0  0  0  0  0  0  0  0  0  0  0
    2.7166    4.8492    7.2958 H   0  0  0  0  0  0  0  0  0  0  0  0
    5.9404    5.0199    7.9945 H   0  0  0  0  0  0  0  0  0  0  0  0
   10.0880    6.0146    6.2189 H   0  0  0  0  0  0  0  0  0  0  0  0
    8.2429    6.0450    3.7269 H   0  0  0  0  0  0  0  0  0  0  0  0
    2.6417    1.6426    2.3586 H   0  0  0  0  0  0  0  0  0  0  0  0
    3.3406    1.3506    3.9499 H   0  0  0  0  0  0  0  0  0  0  0  0
    4.4083    6.9227    4.6407 H   0  0  0  0  0  0  0  0  0  0  0  0
    7.0744    4.7335    3.6539 H   0  0  0  0  0  0  0  0  0  0  0  0
    4.7414    7.1597    6.3424 H   0  0  0  0  0  0  0  0  0  0  0  0
    6.0505    6.7877    5.2364 H   0  0  0  0  0  0  0  0  0  0  0  0
    8.5115    4.7204    2.6220 H   0  0  0  0  0  0  0  0  0  0  0  0
    5.3620    3.3710    7.8301 H   0  0  0  0  0  0  0  0  0  0  0  0
    5.4299    2.2510    1.3243 H   0  0  0  0  0  0  0  0  0  0  0  0
    4.5248    3.5532    0.5954 H   0  0  0  0  0  0  0  0  0  0  0  0
    6.0262    3.9083    1.4178 H   0  0  0  0  0  0  0  0  0  0  0  0
    6.8204    1.3200    8.0820 H   0  0  0  0  0  0  0  0  0  0  0  0
    8.4211    5.7776    6.7119 H   0  0  0  0  0  0  0  0  0  0  0  0
    6.8129    3.8786    6.9708 H   0  0  0  0  0  0  0  0  0  0  0  0
    7.1778    0.6955    0.5595 H   0  0  0  0  0  0  0  0  0  0  0  0
    8.8148    0.1517    0.9604 H   0  0  0  0  0  0  0  0  0  0  0  0
    6.7160   -1.4764    1.5508 H   0  0  0  0  0  0  0  0  0  0  0  0
    7.9819   -1.2495    2.7684 H   0  0  0  0  0  0  0  0  0  0  0  0
    6.0699   -0.4838    4.0418 H   0  0  0  0  0  0  0  0  0  0  0  0
    5.2827    0.1647    2.5808 H   0  0  0  0  0  0  0  0  0  0  0  0
  1  9  1  0  0  0  0
  1  2  1  0  0  0  0
  3 11  1  0  0  0  0
  3  8  1  0  0  0  0
  4 14  1  0  0  0  0
  4 13  1  0  0  0  0
  5 20  1  0  0  0  0
  5 19  1  0  0  0  0
  6  9  1  0  0  0  0
  6 16  1  0  0  0  0
  8  1  1  0  0  0  0
  8  4  1  0  0  0  0
  9  5  1  0  0  0  0
 10  3  1  0  0  0  0
 11 40  1  0  0  0  0
 11 51  1  0  0  0  0
 12  3  1  0  0  0  0
 12 43  1  0  0  0  0
 13 57  1  0  0  0  0
 13 47  1  0  0  0  0
 14 44  1  0  0  0  0
 14 46  1  0  0  0  0
 15  4  1  0  0  0  0
 15 54  1  0  0  0  0
 16 62  1  0  0  0  0
 16 37  1  0  0  0  0
 17  6  1  0  0  0  0
 17 36  1  0  0  0  0
 18 53  1  0  0  0  0
 18 49  1  0  0  0  0
 18  6  1  0  0  0  0
 19 39  1  0  0  0  0
 19 38  1  0  0  0  0
 20 31  1  0  0  0  0
 20 30  1  0  0  0  0
 21 26  1  0  0  0  0
 21  5  1  0  0  0  0
 22 32  1  0  0  0  0
 22  7  1  0  0  0  0
 23 24  1  0  0  0  0
 23 22  1  0  0  0  0
 24 67  1  0  0  0  0
 24 25  1  0  0  0  0
 25  7  1  0  0  0  0
 25 68  1  0  0  0  0
 27 21  1  0  0  0  0
 28 21  1  0  0  0  0
 29 20  1  0  0  0  0
 33 22  1  0  0  0  0
 34 17  1  0  0  0  0
 35 17  1  0  0  0  0
 41 12  1  0  0  0  0
 42 12  1  0  0  0  0
 45 14  1  0  0  0  0
 48 16  1  0  0  0  0
 50 11  1  0  0  0  0
 52 15  1  0  0  0  0
 55 15  1  0  0  0  0
 56 18  1  0  0  0  0
 58 10  1  0  0  0  0
 59 10  1  0  0  0  0
 60 10  1  0  0  0  0
 61 19  1  0  0  0  0
 63 13  1  0  0  0  0
 64 23  1  0  0  0  0
 65 23  1  0  0  0  0
 66 24  1  0  0  0  0
 69 25  1  0  0  0  0
M  END
$$$$
