CSD_code = RIGCAN | q = 0 | S = 0 | Stoichiometry = C15H21AuClN7O2 | MND = 2
 OpenBabel04212202093D

 47 50  0  0  1  0  0  0  0  0999 V2000
    2.2991   19.3108   -1.0609 C   0  0  2  0  0  3  0  0  0  0  0  0
    2.4197   20.1360   -3.1297 C   0  0  0  0  0  0  0  0  0  0  0  0
    2.6057   20.1192   -4.1837 H   0  0  0  0  0  0  0  0  0  0  0  0
    1.9954   21.1349   -2.3259 C   0  0  0  0  0  0  0  0  0  0  0  0
    1.7351   22.1526   -2.5240 H   0  0  0  0  0  0  0  0  0  0  0  0
    3.0542   17.7571   -2.8186 C   0  0  0  0  0  0  0  0  0  0  0  0
    3.1213   17.0708   -1.9755 H   0  0  0  0  0  0  0  0  0  0  0  0
    4.0360   17.8554   -3.2843 H   0  0  0  0  0  0  0  0  0  0  0  0
    2.3522   17.3593   -3.5532 H   0  0  0  0  0  0  0  0  0  0  0  0
    1.5173   21.3393    0.0647 C   0  0  0  0  0  0  0  0  0  0  0  0
    1.1243   23.3294    1.0056 C   0  0  0  0  0  0  0  0  0  0  0  0
    0.8206   21.4236    2.1928 C   0  0  0  0  0  0  0  0  0  0  0  0
    1.5498   25.3867   -0.2376 C   0  0  0  0  0  0  0  0  0  0  0  0
    0.7659   26.0642   -0.5941 H   0  0  0  0  0  0  0  0  0  0  0  0
    1.8101   24.6726   -1.0168 H   0  0  0  0  0  0  0  0  0  0  0  0
    2.7758   26.2050    0.1880 C   0  0  0  0  0  0  0  0  0  0  0  0
    3.5903   25.5183    0.4657 H   0  0  0  0  0  0  0  0  0  0  0  0
    3.1095   26.8541   -0.6228 H   0  0  0  0  0  0  0  0  0  0  0  0
    2.0227   26.3186    2.3881 C   0  0  0  0  0  0  0  0  0  0  0  0
    1.8105   27.0502    3.1689 H   0  0  0  0  0  0  0  0  0  0  0  0
    2.8147   25.6358    2.7318 H   0  0  0  0  0  0  0  0  0  0  0  0
    0.7681   25.5058    2.0463 C   0  0  0  0  0  0  0  0  0  0  0  0
    0.4696   24.8749    2.8813 H   0  0  0  0  0  0  0  0  0  0  0  0
   -0.0463   26.1891    1.7812 H   0  0  0  0  0  0  0  0  0  0  0  0
    0.1220   21.5538    4.5151 C   0  0  0  0  0  0  0  0  0  0  0  0
   -0.8894   21.2842    4.8384 H   0  0  0  0  0  0  0  0  0  0  0  0
    0.1742   22.6204    4.3036 H   0  0  0  0  0  0  0  0  0  0  0  0
    1.1239   21.1554    5.6081 C   0  0  0  0  0  0  0  0  0  0  0  0
    2.1322   21.4830    5.3081 H   0  0  0  0  0  0  0  0  0  0  0  0
    0.8599   21.6228    6.5588 H   0  0  0  0  0  0  0  0  0  0  0  0
    1.4455   19.0654    4.6481 C   0  0  0  0  0  0  0  0  0  0  0  0
    1.4090   18.0036    4.8875 H   0  0  0  0  0  0  0  0  0  0  0  0
    2.4658   19.3210    4.3307 H   0  0  0  0  0  0  0  0  0  0  0  0
    0.4687   19.3870    3.5140 C   0  0  0  0  0  0  0  0  0  0  0  0
    0.7849   18.8898    2.5995 H   0  0  0  0  0  0  0  0  0  0  0  0
   -0.5363   19.0526    3.7928 H   0  0  0  0  0  0  0  0  0  0  0  0
    2.4110   18.1623    0.5685 Au  0  0  0  0  0  0  0  0  0  0  0  0
    2.5792   16.8497    2.3928 Cl  0  0  0  0  0  0  0  0  0  0  0  0
    2.6017   19.0302   -2.3353 N   0  0  0  0  0  0  0  0  0  0  0  0
    1.9199   20.6088   -1.0596 N   0  0  0  0  0  0  0  0  0  0  0  0
    1.5035   22.6477   -0.0956 N   0  0  0  0  0  4  0  0  0  0  0  0
    0.7916   22.7614    2.1592 N   0  0  0  0  0  0  0  0  0  0  0  0
    1.1922   20.6609    1.1389 N   0  0  0  0  0  2  0  0  0  0  0  0
    1.0493   24.6634    0.9074 N   0  0  0  0  0  0  0  0  0  0  0  0
    0.4326   20.8182    3.3109 N   0  0  0  0  0  0  0  0  0  0  0  0
    2.4705   27.0530    1.2711 O   0  0  0  0  0  0  0  0  0  0  0  0
    1.1092   19.7686    5.8267 O   0  0  0  0  0  0  0  0  0  0  0  0
  1 40  1  0  0  0  0
  1 37  1  1  0  0  0
  2 39  1  0  0  0  0
  2  4  2  0  0  0  0
  3  2  1  0  0  0  0
  4 40  1  0  0  0  0
  5  4  1  0  0  0  0
  6 39  1  0  0  0  0
  6  7  1  0  0  0  0
  8  6  1  0  0  0  0
  9  6  1  0  0  0  0
 10 43  1  0  0  0  0
 11 42  1  0  0  0  0
 12 45  1  0  0  0  0
 13 16  1  0  0  0  0
 13 44  1  0  0  0  0
 14 13  1  0  0  0  0
 15 13  1  0  0  0  0
 16 17  1  0  0  0  0
 16 46  1  0  0  0  0
 18 16  1  0  0  0  0
 19 21  1  0  0  0  0
 19 20  1  0  0  0  0
 22 19  1  0  0  0  0
 22 23  1  0  0  0  0
 24 22  1  0  0  0  0
 25 26  1  0  0  0  0
 25 28  1  0  0  0  0
 27 25  1  0  0  0  0
 28 47  1  0  0  0  0
 28 30  1  0  0  0  0
 29 28  1  0  0  0  0
 31 32  1  0  0  0  0
 31 47  1  0  0  0  0
 33 31  1  0  0  0  0
 34 36  1  0  0  0  0
 34 31  1  0  0  0  0
 35 34  1  0  0  0  0
 37 38  1  0  0  0  0
 39  1  1  0  0  0  0
 40 10  1  0  0  0  0
 41 10  2  0  0  0  0
 41 11  2  0  0  0  0
 42 12  2  0  0  0  0
 43 12  1  0  0  0  0
 44 11  1  0  0  0  0
 44 22  1  0  0  0  0
 45 34  1  0  0  0  0
 45 25  1  0  0  0  0
 46 19  1  0  0  0  0
M  END
$$$$
