CSD_code = RIGTOR | q = 0 | S = 0 | Stoichiometry = C13H11Cl3N2PtS | MND = 6
 OpenBabel04212202093D

 31 34  0  0  0  0  0  0  0  0999 V2000
    1.6217    6.1411    4.9208 N   0  0  0  0  0  2  0  0  0  0  0  0
   -1.8321    8.4739    1.4156 C   0  0  0  0  0  0  0  0  0  0  0  0
   -2.3456    9.4067    1.6247 H   0  0  0  0  0  0  0  0  0  0  0  0
   -2.2461    7.6500    1.9912 H   0  0  0  0  0  0  0  0  0  0  0  0
   -1.8787    8.2469    0.3544 H   0  0  0  0  0  0  0  0  0  0  0  0
   -0.1437    9.5696    6.2773 C   0  0  0  0  0  0  0  0  0  0  0  0
   -0.1479    9.8189    7.3269 H   0  0  0  0  0  0  0  0  0  0  0  0
    3.1078    2.8183    4.6848 C   0  0  0  0  0  0  0  0  0  0  0  0
    3.6182    2.0911    5.2977 H   0  0  0  0  0  0  0  0  0  0  0  0
    0.8763    6.2238    2.2080 Pt  0  0  0  0  0  0  0  0  0  0  0  0
   -0.0609    8.6462    1.7990 S   0  0  2  0  0  3  0  0  0  0  0  0
   -1.2720    5.4593    2.8783 Cl  0  0  0  0  0  0  0  0  0  0  0  0
    3.0313    7.0117    1.6812 Cl  0  0  0  0  0  0  0  0  0  0  0  0
    0.5442    5.4762    0.0583 Cl  0  0  0  0  0  0  0  0  0  0  0  0
    1.0743    6.8967    4.0735 N   0  0  0  0  0  0  0  0  0  0  0  0
    1.7991    4.6480    3.0631 C   0  0  0  0  0  0  0  0  0  0  0  0
   -0.1272    8.9370    3.5643 C   0  0  0  0  0  0  0  0  0  0  0  0
    0.5023    8.0857    4.4865 C   0  0  0  0  0  0  0  0  0  0  0  0
    2.0497    4.9516    4.4217 C   0  0  0  0  0  0  0  0  0  0  0  0
    2.7111    4.0187    5.2318 C   0  0  0  0  0  0  0  0  0  0  0  0
    2.9002    4.2666    6.2640 H   0  0  0  0  0  0  0  0  0  0  0  0
   -0.7784   10.4000    5.3616 C   0  0  0  0  0  0  0  0  0  0  0  0
   -1.2741   11.2984    5.6952 H   0  0  0  0  0  0  0  0  0  0  0  0
    2.8599    2.5349    3.3461 C   0  0  0  0  0  0  0  0  0  0  0  0
    3.1744    1.5895    2.9305 H   0  0  0  0  0  0  0  0  0  0  0  0
    0.4899    8.4260    5.8474 C   0  0  0  0  0  0  0  0  0  0  0  0
    0.9824    7.7593    6.5376 H   0  0  0  0  0  0  0  0  0  0  0  0
    2.2101    3.4531    2.5259 C   0  0  0  0  0  0  0  0  0  0  0  0
    2.0281    3.2247    1.4861 H   0  0  0  0  0  0  0  0  0  0  0  0
   -0.7596   10.0863    4.0154 C   0  0  0  0  0  0  0  0  0  0  0  0
   -1.2260   10.7454    3.2996 H   0  0  0  0  0  0  0  0  0  0  0  0
  2  3  1  0  0  0  0
  2  4  1  0  0  0  0
  5  2  1  0  0  0  0
  6  7  1  0  0  0  0
  8 20  1  0  0  0  0
  8  9  1  0  0  0  0
 10 12  1  0  0  0  0
 10 16  1  0  0  0  0
 10 15  1  0  0  0  0
 11  2  1  1  0  0  0
 11 10  1  0  0  0  0
 11 17  1  0  0  0  0
 13 10  1  0  0  0  0
 14 10  1  0  0  0  0
 15 18  1  0  0  0  0
 15  1  1  0  0  0  0
 16 19  1  0  0  0  0
 17 30  2  0  0  0  0
 17 18  1  0  0  0  0
 18 26  2  0  0  0  0
 19  1  1  0  0  0  0
 19 20  2  0  0  0  0
 20 21  1  0  0  0  0
 22 23  1  0  0  0  0
 22  6  2  0  0  0  0
 24  8  2  0  0  0  0
 25 24  1  0  0  0  0
 26  6  1  0  0  0  0
 26 27  1  0  0  0  0
 28 16  2  0  0  0  0
 28 24  1  0  0  0  0
 29 28  1  0  0  0  0
 30 22  1  0  0  0  0
 31 30  1  0  0  0  0
M  END
$$$$
