CSD_code = RIHNAX | q = 0 | S = 0 | Stoichiometry = C6H12Cl3S3V | MND = 6
 OpenBabel04212202093D

 25 27  0  0  0  0  0  0  0  0999 V2000
    4.7645    0.3098    1.7059 V   0  0  0  0  0  0  0  0  0  0  0  0
    4.5288   -0.0175    4.2561 S   0  0  2  0  0  3  0  0  0  0  0  0
    4.1597   -1.8110    4.4291 C   0  0  0  0  0  0  0  0  0  0  0  0
    4.7294   -2.6377    3.2909 C   0  0  0  0  0  0  0  0  0  0  0  0
    4.3173   -2.0735    1.6073 S   0  0  1  0  0  3  0  0  0  0  0  0
    2.5058   -2.3758    1.5424 C   0  0  0  0  0  0  0  0  0  0  0  0
    1.8257   -1.1615    0.9416 C   0  0  0  0  0  0  0  0  0  0  0  0
    2.3807    0.4151    1.6648 S   0  0  1  0  0  3  0  0  0  0  0  0
    1.8179    0.2466    3.4103 C   0  0  0  0  0  0  0  0  0  0  0  0
    2.8643    0.7275    4.3977 C   0  0  0  0  0  0  0  0  0  0  0  0
    4.7885    0.4184   -0.5397 Cl  0  0  0  0  0  0  0  0  0  0  0  0
    6.7252   -0.4960    1.8350 Cl  0  0  0  0  0  0  0  0  0  0  0  0
    4.6325    2.3456    2.0371 Cl  0  0  0  0  0  0  0  0  0  0  0  0
    3.0807   -1.9208    4.5198 H   0  0  0  0  0  0  0  0  0  0  0  0
    4.6208   -2.1331    5.3646 H   0  0  0  0  0  0  0  0  0  0  0  0
    5.8193   -2.5798    3.2969 H   0  0  0  0  0  0  0  0  0  0  0  0
    4.4175   -3.6804    3.3763 H   0  0  0  0  0  0  0  0  0  0  0  0
    2.1509   -2.6000    2.5471 H   0  0  0  0  0  0  0  0  0  0  0  0
    2.3410   -3.2477    0.9075 H   0  0  0  0  0  0  0  0  0  0  0  0
    2.1184   -1.0480   -0.1046 H   0  0  0  0  0  0  0  0  0  0  0  0
    0.7387   -1.2227    1.0178 H   0  0  0  0  0  0  0  0  0  0  0  0
    1.5373   -0.7915    3.5791 H   0  0  0  0  0  0  0  0  0  0  0  0
    0.9269    0.8691    3.5093 H   0  0  0  0  0  0  0  0  0  0  0  0
    3.0669    1.7886    4.2396 H   0  0  0  0  0  0  0  0  0  0  0  0
    2.5193    0.5707    5.4219 H   0  0  0  0  0  0  0  0  0  0  0  0
  1 12  1  0  0  0  0
  1 13  1  0  0  0  0
  1  2  1  0  0  0  0
  2 10  1  6  0  0  0
  2  3  1  0  0  0  0
  3 14  1  0  0  0  0
  3 15  1  0  0  0  0
  4 16  1  0  0  0  0
  4 17  1  0  0  0  0
  4  3  1  0  0  0  0
  5  6  1  1  0  0  0
  5  1  1  0  0  0  0
  5  4  1  0  0  0  0
  6 18  1  0  0  0  0
  7 21  1  0  0  0  0
  7  6  1  0  0  0  0
  8  7  1  6  0  0  0
  8  1  1  0  0  0  0
  8  9  1  0  0  0  0
  9 23  1  0  0  0  0
  9 22  1  0  0  0  0
  9 10  1  0  0  0  0
 10 25  1  0  0  0  0
 11  1  1  0  0  0  0
 19  6  1  0  0  0  0
 20  7  1  0  0  0  0
 24 10  1  0  0  0  0
M  END
$$$$
