CSD_code = RIJQOQ | q = 0 | S = 0 | Stoichiometry = C25H36BrCrNO2P2 | MND = 6
 OpenBabel04212202093D

 68 66  0  0  1  0  0  0  0  0999 V2000
    0.4586    9.5271   12.6586 Cr  0  0  0  0  0  0  0  0  0  0  0  0
    2.3225    8.3649   13.9353 Br  0  0  0  0  0 15  0  0  0  0  0  0
    1.4395   11.1327   12.2567 C   0  0  0  0  0  3  0  0  0  0  0  0
    2.3418   11.9125   12.4293 O   0  0  0  0  0  0  0  0  0  0  0  0
    0.9281    8.9610   10.9840 C   0  0  0  0  0  2  0  0  0  0  0  0
    1.1282    8.8204    9.8492 O   0  0  0  0  0  1  0  0  0  0  0  0
    0.1517   11.0479   11.6368 C   0  0  1  0  0  3  0  0  0  0  0  0
   -0.4261   11.7886   10.7013 N   0  0  0  0  0  0  0  0  0  0  0  0
   -1.7400   11.3713   10.2112 C   0  0  0  0  0  0  0  0  0  0  0  0
   -2.0355   10.5245   10.8457 H   0  0  0  0  0  0  0  0  0  0  0  0
   -2.7838   12.4765   10.3788 C   0  0  0  0  0  0  0  0  0  0  0  0
   -2.7944   12.8378   11.4056 H   0  0  0  0  0  0  0  0  0  0  0  0
   -3.7696   12.0831   10.1434 H   0  0  0  0  0  0  0  0  0  0  0  0
   -2.5878   13.3180    9.7190 H   0  0  0  0  0  0  0  0  0  0  0  0
   -1.6722   10.8710    8.7680 C   0  0  0  0  0  0  0  0  0  0  0  0
   -0.9067   10.1037    8.6750 H   0  0  0  0  0  0  0  0  0  0  0  0
   -1.4413   11.6763    8.0751 H   0  0  0  0  0  0  0  0  0  0  0  0
   -2.6298   10.4416    8.4844 H   0  0  0  0  0  0  0  0  0  0  0  0
    0.2358   12.9128   10.0300 C   0  0  0  0  0  0  0  0  0  0  0  0
   -0.4577   13.2700    9.2627 H   0  0  0  0  0  0  0  0  0  0  0  0
    0.4949   14.0543   11.0135 C   0  0  0  0  0  0  0  0  0  0  0  0
   -0.4263   14.3446   11.5164 H   0  0  0  0  0  0  0  0  0  0  0  0
    0.8828   14.9169   10.4775 H   0  0  0  0  0  0  0  0  0  0  0  0
    1.2285   13.7574   11.7580 H   0  0  0  0  0  0  0  0  0  0  0  0
    1.5259   12.4664    9.3423 C   0  0  0  0  0  0  0  0  0  0  0  0
    1.3452   11.5937    8.7180 H   0  0  0  0  0  0  0  0  0  0  0  0
    2.2894   12.2165   10.0735 H   0  0  0  0  0  0  0  0  0  0  0  0
    1.9040   13.2707    8.7159 H   0  0  0  0  0  0  0  0  0  0  0  0
   -0.5560    7.4310   13.2694 P   0  0  0  0  0  0  0  0  0  0  0  0
    0.1345    6.0057   12.3443 C   0  0  0  0  0  0  0  0  0  0  0  0
    0.1415    6.2243   11.2767 H   0  0  0  0  0  0  0  0  0  0  0  0
   -0.4563    5.1082   12.5343 H   0  0  0  0  0  0  0  0  0  0  0  0
    1.1618    5.8561   12.6814 H   0  0  0  0  0  0  0  0  0  0  0  0
   -0.6218    6.6806   14.9409 C   0  0  0  0  0  0  0  0  0  0  0  0
    0.4078    6.5615   15.2832 H   0  0  0  0  0  0  0  0  0  0  0  0
   -1.1056    5.7043   14.8943 H   0  0  0  0  0  0  0  0  0  0  0  0
   -1.1587    7.3320   15.6305 H   0  0  0  0  0  0  0  0  0  0  0  0
   -2.2949    7.3859   12.7102 C   0  0  0  0  0  0  0  0  0  0  0  0
   -2.5173    7.7953   11.3961 C   0  0  0  0  0  0  0  0  0  0  0  0
   -1.6670    8.0555   10.7748 H   0  0  0  0  0  0  0  0  0  0  0  0
   -3.7990    7.8620   10.8862 C   0  0  0  0  0  0  0  0  0  0  0  0
   -3.9597    8.1736    9.8642 H   0  0  0  0  0  0  0  0  0  0  0  0
   -4.8786    7.5301   11.6900 C   0  0  0  0  0  0  0  0  0  0  0  0
   -5.8828    7.5834   11.2961 H   0  0  0  0  0  0  0  0  0  0  0  0
   -4.6669    7.1325   12.9987 C   0  0  0  0  0  0  0  0  0  0  0  0
   -5.5067    6.8755   13.6276 H   0  0  0  0  0  0  0  0  0  0  0  0
   -3.3828    7.0638   13.5113 C   0  0  0  0  0  0  0  0  0  0  0  0
   -3.2375    6.7619   14.5375 H   0  0  0  0  0  0  0  0  0  0  0  0
   -0.2476   10.4607   14.7055 P   0  0  0  0  0  0  0  0  0  0  0  0
    0.6270   10.1632   16.2824 C   0  0  0  0  0  0  0  0  0  0  0  0
    0.6276    9.1017   16.5268 H   0  0  0  0  0  0  0  0  0  0  0  0
    0.1913   10.7503   17.0918 H   0  0  0  0  0  0  0  0  0  0  0  0
    1.6652   10.4613   16.1249 H   0  0  0  0  0  0  0  0  0  0  0  0
   -0.2511   12.2987   14.7174 C   0  0  0  0  0  0  0  0  0  0  0  0
   -0.8501   12.6748   13.8881 H   0  0  0  0  0  0  0  0  0  0  0  0
    0.7773   12.6398   14.5908 H   0  0  0  0  0  0  0  0  0  0  0  0
   -0.6509   12.6762   15.6599 H   0  0  0  0  0  0  0  0  0  0  0  0
   -2.0071   10.1607   15.1015 C   0  0  0  0  0  0  0  0  0  0  0  0
   -2.9076   10.4152   14.0697 C   0  0  0  0  0  0  0  0  0  0  0  0
   -2.5293   10.7897   13.1242 H   0  0  0  0  0  0  0  0  0  0  0  0
   -4.2594   10.1943   14.2398 C   0  0  0  0  0  0  0  0  0  0  0  0
   -4.9484   10.4029   13.4345 H   0  0  0  0  0  0  0  0  0  0  0  0
   -4.7266    9.6928   15.4446 C   0  0  0  0  0  0  0  0  0  0  0  0
   -5.7824    9.5133   15.5823 H   0  0  0  0  0  0  0  0  0  0  0  0
   -3.8374    9.4174   16.4690 C   0  0  0  0  0  0  0  0  0  0  0  0
   -4.2000    9.0200   17.4062 H   0  0  0  0  0  0  0  0  0  0  0  0
   -2.4822    9.6499   16.3025 C   0  0  0  0  0  0  0  0  0  0  0  0
   -1.8004    9.4340   17.1125 H   0  0  0  0  0  0  0  0  0  0  0  0
  3  4  2  0  0  0  0
  5  1  1  0  0  0  0
  6  5  1  0  0  0  0
  7  3  1  6  0  0  0
  7  1  1  0  0  0  0
  8  7  1  0  0  0  0
  9 11  1  0  0  0  0
  9  8  1  0  0  0  0
  9 10  1  0  0  0  0
 11 12  1  0  0  0  0
 13 11  1  0  0  0  0
 14 11  1  0  0  0  0
 15  9  1  0  0  0  0
 16 15  1  0  0  0  0
 17 15  1  0  0  0  0
 18 15  1  0  0  0  0
 19  8  1  0  0  0  0
 19 21  1  0  0  0  0
 20 19  1  0  0  0  0
 21 22  1  0  0  0  0
 21 24  1  0  0  0  0
 23 21  1  0  0  0  0
 25 19  1  0  0  0  0
 25 27  1  0  0  0  0
 26 25  1  0  0  0  0
 28 25  1  0  0  0  0
 29 34  1  0  0  0  0
 30 32  1  0  0  0  0
 30 33  1  0  0  0  0
 30 29  1  0  0  0  0
 31 30  1  0  0  0  0
 34 35  1  0  0  0  0
 34 37  1  0  0  0  0
 36 34  1  0  0  0  0
 38 29  1  0  0  0  0
 38 47  1  0  0  0  0
 39 38  2  0  0  0  0
 40 39  1  0  0  0  0
 41 39  1  0  0  0  0
 41 43  2  0  0  0  0
 42 41  1  0  0  0  0
 43 45  1  0  0  0  0
 44 43  1  0  0  0  0
 45 47  2  0  0  0  0
 45 46  1  0  0  0  0
 47 48  1  0  0  0  0
 49 54  1  0  0  0  0
 49 58  1  0  0  0  0
 49 50  1  0  0  0  0
 50 51  1  0  0  0  0
 50 52  1  0  0  0  0
 53 50  1  0  0  0  0
 54 57  1  0  0  0  0
 55 54  1  0  0  0  0
 56 54  1  0  0  0  0
 58 67  1  0  0  0  0
 59 61  1  0  0  0  0
 59 58  2  0  0  0  0
 60 59  1  0  0  0  0
 61 63  2  0  0  0  0
 62 61  1  0  0  0  0
 63 64  1  0  0  0  0
 63 65  1  0  0  0  0
 65 66  1  0  0  0  0
 67 65  2  0  0  0  0
 67 68  1  0  0  0  0
M  END
$$$$
