CSD_code = RIKWEP | q = -1 | S = 0 | Stoichiometry = C28H34Cl3NSc(1-) | MND = 8
 OpenBabel04212202093D

 67 69  0  0  1  0  0  0  0  0999 V2000
   14.5330    1.9749   13.2604 C   0  0  2  0  0  3  0  0  0  0  0  0
   15.0797    3.1410   13.8823 C   0  0  1  0  0  0  0  0  0  0  0  0
   14.0159    4.0618   14.0703 C   0  0  1  0  0  3  0  0  0  0  0  0
   12.8196    3.4709   13.5615 C   0  0  0  0  0  0  0  0  0  0  0  0
   13.1341    2.1821   13.0750 C   0  0  0  0  0  0  0  0  0  0  0  0
   16.4628    3.2434   14.4711 C   0  0  0  0  0  0  0  0  0  0  0  0
   16.9954    2.3037   14.3320 H   0  0  0  0  0  0  0  0  0  0  0  0
   16.4031    3.4548   15.5410 H   0  0  0  0  0  0  0  0  0  0  0  0
   17.0426    4.0360   13.9957 H   0  0  0  0  0  0  0  0  0  0  0  0
   14.0837    5.3606   14.8260 C   0  0  0  0  0  0  0  0  0  0  0  0
   13.5254    6.1365   14.3008 H   0  0  0  0  0  0  0  0  0  0  0  0
   15.1165    5.6877   14.9312 H   0  0  0  0  0  0  0  0  0  0  0  0
   13.6510    5.2471   15.8241 H   0  0  0  0  0  0  0  0  0  0  0  0
   11.4498    4.0805   13.6713 C   0  0  0  0  0  0  0  0  0  0  0  0
   11.1857    4.2334   14.7207 H   0  0  0  0  0  0  0  0  0  0  0  0
   10.7052    3.4320   13.2155 H   0  0  0  0  0  0  0  0  0  0  0  0
   11.4166    5.0482   13.1689 H   0  0  0  0  0  0  0  0  0  0  0  0
   12.1810    1.2019   12.4491 C   0  0  0  0  0  0  0  0  0  0  0  0
   11.8988    1.5199   11.4429 H   0  0  0  0  0  0  0  0  0  0  0  0
   11.2737    1.1104   13.0453 H   0  0  0  0  0  0  0  0  0  0  0  0
   12.6488    0.2222   12.3667 H   0  0  0  0  0  0  0  0  0  0  0  0
   15.2809    0.7625   12.9127 C   0  0  0  0  0  0  0  0  0  0  0  0
   16.2777    0.8312   11.9373 C   0  0  0  0  0  0  0  0  0  0  0  0
   16.4984    1.7933   11.4789 H   0  0  0  0  0  0  0  0  0  0  0  0
   16.9520   -0.3031   11.5327 C   0  0  0  0  0  0  0  0  0  0  0  0
   17.7072   -0.2330   10.7634 H   0  0  0  0  0  0  0  0  0  0  0  0
   16.6484   -1.5367   12.0987 C   0  0  0  0  0  0  0  0  0  0  0  0
   17.1644   -2.4264   11.7659 H   0  0  0  0  0  0  0  0  0  0  0  0
   15.7000   -1.6176   13.0938 C   0  0  0  0  0  0  0  0  0  0  0  0
   15.4705   -2.5580   13.5721 H   0  0  0  0  0  0  0  0  0  0  0  0
   15.0182   -0.4763   13.5270 C   0  0  0  0  0  0  0  0  0  0  0  0
   14.1424   -0.5489   14.6804 C   0  0  0  0  0  0  0  0  0  0  0  0
   13.7675    0.4110   15.0545 H   0  0  0  0  0  0  0  0  0  0  0  0
   13.1898   -1.8368   16.4206 C   0  0  0  0  0  0  0  0  0  0  0  0
   13.8872   -2.3587   17.5286 C   0  0  0  0  0  0  0  0  0  0  0  0
   13.1897   -2.6784   18.6774 C   0  0  0  0  0  0  0  0  0  0  0  0
   13.7126   -3.0778   19.5330 H   0  0  0  0  0  0  0  0  0  0  0  0
   11.8187   -2.4953   18.7493 C   0  0  0  0  0  0  0  0  0  0  0  0
   11.2844   -2.7494   19.6541 H   0  0  0  0  0  0  0  0  0  0  0  0
   11.1395   -1.9890   17.6602 C   0  0  0  0  0  0  0  0  0  0  0  0
   10.0701   -1.8479   17.7252 H   0  0  0  0  0  0  0  0  0  0  0  0
   11.8009   -1.6498   16.4879 C   0  0  0  0  0  0  0  0  0  0  0  0
   15.3793   -2.5763   17.4063 C   0  0  0  0  0  0  0  0  0  0  0  0
   15.7711   -1.8239   16.7136 H   0  0  0  0  0  0  0  0  0  0  0  0
   15.6287   -3.9568   16.7913 C   0  0  0  0  0  0  0  0  0  0  0  0
   15.2387   -4.7364   17.4437 H   0  0  0  0  0  0  0  0  0  0  0  0
   16.6943   -4.1229   16.6446 H   0  0  0  0  0  0  0  0  0  0  0  0
   15.1270   -4.0259   15.8301 H   0  0  0  0  0  0  0  0  0  0  0  0
   16.1305   -2.4349   18.7288 C   0  0  0  0  0  0  0  0  0  0  0  0
   15.8601   -1.5057   19.2257 H   0  0  0  0  0  0  0  0  0  0  0  0
   17.2029   -2.4262   18.5424 H   0  0  0  0  0  0  0  0  0  0  0  0
   15.9145   -3.2654   19.3975 H   0  0  0  0  0  0  0  0  0  0  0  0
   11.0159   -1.1099   15.3152 C   0  0  0  0  0  0  0  0  0  0  0  0
   11.6944   -0.9775   14.4681 H   0  0  0  0  0  0  0  0  0  0  0  0
    9.9255   -2.0933   14.8822 C   0  0  0  0  0  0  0  0  0  0  0  0
   10.3600   -3.0692   14.6754 H   0  0  0  0  0  0  0  0  0  0  0  0
    9.4373   -1.7342   13.9783 H   0  0  0  0  0  0  0  0  0  0  0  0
    9.1697   -2.2100   15.6557 H   0  0  0  0  0  0  0  0  0  0  0  0
   10.4106    0.2529   15.6613 C   0  0  0  0  0  0  0  0  0  0  0  0
    9.7722    0.1812   16.5395 H   0  0  0  0  0  0  0  0  0  0  0  0
    9.8096    0.6217   14.8323 H   0  0  0  0  0  0  0  0  0  0  0  0
   11.1960    0.9771   15.8657 H   0  0  0  0  0  0  0  0  0  0  0  0
   13.2267    5.8304   11.2231 Cl  0  0  0  0  0  0  0  0  0  0  0  0
   16.5897    4.6376   11.3026 Cl  0  0  0  0  0  0  0  0  0  0  0  0
   13.9723    2.5958    9.8017 Cl  0  0  0  0  0  0  0  0  0  0  0  0
   13.9159   -1.6513   15.2649 N   0  0  0  0  0  0  0  0  0  0  0  0
   14.4262    3.8981   11.6482 Sc  0  0  0  0  0  0  0  0  0  0  0  0
  1 22  1  1  0  0  0
  1  2  1  0  0  0  0
  2  3  1  0  0  0  0
  2  6  1  1  0  0  0
  3 10  1  1  0  0  0
  4 14  1  0  0  0  0
  4  3  1  0  0  0  0
  5  1  1  0  0  0  0
  5  4  2  0  0  0  0
  6  8  1  0  0  0  0
  7  6  1  0  0  0  0
  9  6  1  0  0  0  0
 10 12  1  0  0  0  0
 10 13  1  0  0  0  0
 11 10  1  0  0  0  0
 14 15  1  0  0  0  0
 16 14  1  0  0  0  0
 17 14  1  0  0  0  0
 18 20  1  0  0  0  0
 18  5  1  0  0  0  0
 19 18  1  0  0  0  0
 21 18  1  0  0  0  0
 22 31  1  0  0  0  0
 23 22  2  0  0  0  0
 24 23  1  0  0  0  0
 25 23  1  0  0  0  0
 25 27  2  0  0  0  0
 26 25  1  0  0  0  0
 27 29  1  0  0  0  0
 28 27  1  0  0  0  0
 29 31  2  0  0  0  0
 29 30  1  0  0  0  0
 31 32  1  0  0  0  0
 32 33  1  0  0  0  0
 32 66  2  0  0  0  0
 34 42  2  0  0  0  0
 34 35  1  0  0  0  0
 35 36  2  0  0  0  0
 36 38  1  0  0  0  0
 36 37  1  0  0  0  0
 38 39  1  0  0  0  0
 40 41  1  0  0  0  0
 40 38  2  0  0  0  0
 42 40  1  0  0  0  0
 43 35  1  0  0  0  0
 43 49  1  0  0  0  0
 44 43  1  0  0  0  0
 45 43  1  0  0  0  0
 45 46  1  0  0  0  0
 47 45  1  0  0  0  0
 48 45  1  0  0  0  0
 49 50  1  0  0  0  0
 49 52  1  0  0  0  0
 51 49  1  0  0  0  0
 53 59  1  0  0  0  0
 53 42  1  0  0  0  0
 54 53  1  0  0  0  0
 55 53  1  0  0  0  0
 55 58  1  0  0  0  0
 56 55  1  0  0  0  0
 57 55  1  0  0  0  0
 59 62  1  0  0  0  0
 59 60  1  0  0  0  0
 61 59  1  0  0  0  0
 63 67  1  0  0  0  0
 64 67  1  0  0  0  0
 65 67  1  0  0  0  0
 66 34  1  0  0  0  0
 67  2  1  0  0  0  0
M  END
$$$$
