CSD_code = RILDUL | q = 0 | S = 0 | Stoichiometry = C12H16Cl2N2O3PtS2 | MND = 4
 OpenBabel04212202093D

 38 39  0  0  0  0  0  0  0  0999 V2000
    0.3951    2.0957    1.0831 Pt  0  0  0  0  0  0  0  0  0  0  0  0
    0.3250    3.6989   -0.5057 Cl  0  0  0  0  0  0  0  0  0  0  0  0
   -1.4066    3.0607    2.0602 Cl  0  0  0  0  0  0  0  0  0  0  0  0
    0.4848    0.4666    2.7476 S   0  0  1  0  0  3  0  0  0  0  0  0
    2.3001    1.0690    0.0783 S   0  0  2  0  0  3  0  0  0  0  0  0
    5.5587    1.4772   -0.1599 O   0  0  0  0  0  0  0  0  0  0  0  0
    5.2575    1.9055    2.6587 O   0  0  0  0  0  0  0  0  0  0  0  0
    2.6183    2.2472    3.7996 O   0  0  0  0  0  0  0  0  0  0  0  0
    3.0737   -1.1939    4.7002 N   0  0  0  0  0  0  0  0  0  0  0  0
    5.1513   -1.0766    1.2713 N   0  0  0  0  0  0  0  0  0  0  0  0
    2.1892   -0.0273    2.6095 C   0  0  0  0  0  0  0  0  0  0  0  0
    2.9208    0.1457    1.4840 C   0  0  0  0  0  0  0  0  0  0  0  0
    3.3796    2.5518    0.1253 C   0  0  0  0  0  0  0  0  0  0  0  0
    2.7495    3.3481   -0.2811 H   0  0  0  0  0  0  0  0  0  0  0  0
    3.6054    2.7315    1.1730 H   0  0  0  0  0  0  0  0  0  0  0  0
    4.6415    2.3863   -0.7148 C   0  0  0  0  0  0  0  0  0  0  0  0
    4.3693    1.9837   -1.6967 H   0  0  0  0  0  0  0  0  0  0  0  0
    5.1027    3.3728   -0.8627 H   0  0  0  0  0  0  0  0  0  0  0  0
    6.5706    2.0038    0.6577 C   0  0  0  0  0  0  0  0  0  0  0  0
    7.1413    1.1252    0.9634 H   0  0  0  0  0  0  0  0  0  0  0  0
    7.2157    2.6842    0.0803 H   0  0  0  0  0  0  0  0  0  0  0  0
    6.1014    2.7544    1.9123 C   0  0  0  0  0  0  0  0  0  0  0  0
    6.9929    3.0195    2.4989 H   0  0  0  0  0  0  0  0  0  0  0  0
    5.5888    3.6903    1.6391 H   0  0  0  0  0  0  0  0  0  0  0  0
    4.9815    2.3093    3.9769 C   0  0  0  0  0  0  0  0  0  0  0  0
    5.8152    2.8891    4.3914 H   0  0  0  0  0  0  0  0  0  0  0  0
    4.8623    1.3855    4.5515 H   0  0  0  0  0  0  0  0  0  0  0  0
    3.6830    3.1176    4.1054 C   0  0  0  0  0  0  0  0  0  0  0  0
    3.5940    3.4827    5.1373 H   0  0  0  0  0  0  0  0  0  0  0  0
    3.6800    3.9842    3.4282 H   0  0  0  0  0  0  0  0  0  0  0  0
    1.3382    2.6147    4.2723 C   0  0  0  0  0  0  0  0  0  0  0  0
    0.8672    3.3452    3.5950 H   0  0  0  0  0  0  0  0  0  0  0  0
    1.4079    3.0543    5.2772 H   0  0  0  0  0  0  0  0  0  0  0  0
    0.4953    1.3500    4.3429 C   0  0  0  0  0  0  0  0  0  0  0  0
   -0.5479    1.5961    4.5350 H   0  0  0  0  0  0  0  0  0  0  0  0
    0.8771    0.6550    5.0904 H   0  0  0  0  0  0  0  0  0  0  0  0
    2.7041   -0.6900    3.7391 C   0  0  0  0  0  0  0  0  0  0  0  0
    4.1766   -0.4806    1.3595 C   0  0  0  0  0  0  0  0  0  0  0  0
  1  3  1  0  0  0  0
  1  4  1  0  0  0  0
  2  1  1  0  0  0  0
  4 11  1  6  0  0  0
  4 34  1  0  0  0  0
  5 13  1  0  0  0  0
  5  1  1  0  0  0  0
  5 12  1  1  0  0  0
  6 19  1  0  0  0  0
  7 25  1  0  0  0  0
  8 28  1  0  0  0  0
  8 31  1  0  0  0  0
 10 38  3  0  0  0  0
 11 37  1  0  0  0  0
 12 11  2  0  0  0  0
 13 15  1  0  0  0  0
 14 13  1  0  0  0  0
 16  6  1  0  0  0  0
 16 13  1  0  0  0  0
 17 16  1  0  0  0  0
 18 16  1  0  0  0  0
 19 20  1  0  0  0  0
 19 22  1  0  0  0  0
 21 19  1  0  0  0  0
 22 23  1  0  0  0  0
 22  7  1  0  0  0  0
 24 22  1  0  0  0  0
 25 28  1  0  0  0  0
 25 26  1  0  0  0  0
 25 27  1  0  0  0  0
 28 29  1  0  0  0  0
 30 28  1  0  0  0  0
 31 34  1  0  0  0  0
 31 33  1  0  0  0  0
 32 31  1  0  0  0  0
 34 35  1  0  0  0  0
 34 36  1  0  0  0  0
 37  9  3  0  0  0  0
 38 12  1  0  0  0  0
M  END
$$$$
