CSD_code = RILFUN | q = 0 | S = 0 | Stoichiometry = C14H20Cl2N2O4PdS2 | MND = 4
 OpenBabel04212202093D

 45 45  0  0  0  0  0  0  0  0999 V2000
    3.5520    1.5372    2.5299 Pd  0  0  0  0  0  0  0  0  0  0  0  0
    1.4759    1.8660    3.3365 Cl  0  0  0  0  0  0  0  0  0  0  0  0
    4.3353    2.3295    4.4753 Cl  0  0  0  0  0  0  0  0  0  0  0  0
    1.9253    0.0078    1.1635 S   0  0  1  0  0  3  0  0  0  0  0  0
    4.0770    1.6182   -0.4960 S   0  0  0  0  0  0  0  0  0  0  0  0
    2.6634    3.6278    1.0482 O   0  0  0  0  0  0  0  0  0  0  0  0
    5.3238    3.3170    1.3788 O   0  0  0  0  0  0  0  0  0  0  0  0
    5.8417    0.7800    2.2778 O   0  0  0  0  0  0  0  0  0  0  0  0
    3.9417   -1.2450    2.6462 O   0  0  0  0  0  0  0  0  0  0  0  0
    2.8160   -3.3807   -0.1328 N   0  0  0  0  0  0  0  0  0  0  0  0
    5.7116   -1.2186   -2.0966 N   0  0  0  0  0  0  0  0  0  0  0  0
    2.9936   -0.8446    0.0593 C   0  0  0  0  0  0  0  0  0  0  0  0
    3.8988   -0.1295   -0.6736 C   0  0  0  0  0  0  0  0  0  0  0  0
    2.4594    2.3218   -1.0413 C   0  0  0  0  0  0  0  0  0  0  0  0
    2.7149    2.9209   -1.9157 H   0  0  0  0  0  0  0  0  0  0  0  0
    1.8132    1.5037   -1.3494 H   0  0  0  0  0  0  0  0  0  0  0  0
    1.7834    3.1815    0.0486 C   0  0  0  0  0  0  0  0  0  0  0  0
    1.2778    4.0317   -0.4310 H   0  0  0  0  0  0  0  0  0  0  0  0
    1.0399    2.5881    0.5892 H   0  0  0  0  0  0  0  0  0  0  0  0
    3.5446    4.6748    0.6864 C   0  0  0  0  0  0  0  0  0  0  0  0
    3.0411    5.6460    0.7911 H   0  0  0  0  0  0  0  0  0  0  0  0
    3.8946    4.5511   -0.3460 H   0  0  0  0  0  0  0  0  0  0  0  0
    4.7467    4.5856    1.6248 C   0  0  0  0  0  0  0  0  0  0  0  0
    5.4655    5.3877    1.4051 H   0  0  0  0  0  0  0  0  0  0  0  0
    4.4118    4.6586    2.6698 H   0  0  0  0  0  0  0  0  0  0  0  0
    6.5299    3.0523    2.0564 C   0  0  0  0  0  0  0  0  0  0  0  0
    6.4023    3.1945    3.1382 H   0  0  0  0  0  0  0  0  0  0  0  0
    7.3319    3.7093    1.6874 H   0  0  0  0  0  0  0  0  0  0  0  0
    6.8820    1.5929    1.7741 C   0  0  0  0  0  0  0  0  0  0  0  0
    6.9924    1.4356    0.6913 H   0  0  0  0  0  0  0  0  0  0  0  0
    7.8269    1.3464    2.2760 H   0  0  0  0  0  0  0  0  0  0  0  0
    6.2008   -0.5626    2.5304 C   0  0  0  0  0  0  0  0  0  0  0  0
    7.1667   -0.6027    3.0518 H   0  0  0  0  0  0  0  0  0  0  0  0
    6.2738   -1.1257    1.5876 H   0  0  0  0  0  0  0  0  0  0  0  0
    5.1210   -1.1736    3.4196 C   0  0  0  0  0  0  0  0  0  0  0  0
    5.4217   -2.1757    3.7554 H   0  0  0  0  0  0  0  0  0  0  0  0
    4.9677   -0.5166    4.2915 H   0  0  0  0  0  0  0  0  0  0  0  0
    2.7395   -1.3934    3.3840 C   0  0  0  0  0  0  0  0  0  0  0  0
    2.6580   -0.5880    4.1376 H   0  0  0  0  0  0  0  0  0  0  0  0
    2.7154   -2.3693    3.8909 H   0  0  0  0  0  0  0  0  0  0  0  0
    1.5847   -1.2947    2.3896 C   0  0  0  0  0  0  0  0  0  0  0  0
    0.6665   -0.9933    2.8905 H   0  0  0  0  0  0  0  0  0  0  0  0
    1.4388   -2.2259    1.8443 H   0  0  0  0  0  0  0  0  0  0  0  0
    4.8789   -0.7456   -1.4623 C   0  0  0  0  0  0  0  0  0  0  0  0
    2.9122   -2.2394   -0.0513 C   0  0  0  0  0  0  0  0  0  0  0  0
  1  2  1  0  0  0  0
  1  3  1  0  0  0  0
  4 41  1  0  0  0  0
  4  1  1  1  0  0  0
  7 23  1  0  0  0  0
  7 26  1  0  0  0  0
  8 32  1  0  0  0  0
  9 38  1  0  0  0  0
  9 35  1  0  0  0  0
 10 45  3  0  0  0  0
 11 44  3  0  0  0  0
 12  4  1  0  0  0  0
 13  5  1  0  0  0  0
 13 12  2  0  0  0  0
 14  5  1  0  0  0  0
 14 17  1  0  0  0  0
 15 14  1  0  0  0  0
 16 14  1  0  0  0  0
 17 19  1  0  0  0  0
 17  6  1  0  0  0  0
 18 17  1  0  0  0  0
 20 21  1  0  0  0  0
 20  6  1  0  0  0  0
 20 23  1  0  0  0  0
 22 20  1  0  0  0  0
 23 25  1  0  0  0  0
 24 23  1  0  0  0  0
 26 27  1  0  0  0  0
 28 26  1  0  0  0  0
 29 26  1  0  0  0  0
 29 31  1  0  0  0  0
 29  8  1  0  0  0  0
 30 29  1  0  0  0  0
 32 33  1  0  0  0  0
 32 35  1  0  0  0  0
 34 32  1  0  0  0  0
 35 36  1  0  0  0  0
 35 37  1  0  0  0  0
 38 40  1  0  0  0  0
 38 39  1  0  0  0  0
 41 42  1  0  0  0  0
 41 38  1  0  0  0  0
 43 41  1  0  0  0  0
 44 13  1  0  0  0  0
 45 12  1  0  0  0  0
M  END
$$$$
