CSD_code = RIMRIO | q = 0 | S = 0 | Stoichiometry = C6H16Cl4N2Ti | MND = 6
 OpenBabel04212202093D

 29 29  0  0  0  0  0  0  0  0999 V2000
    1.4086   -0.1103    1.9867 Ti  0  0  0  0  0  0  0  0  0  0  0  0
    3.0243    0.0823    3.4419 Cl  0  0  0  0  0  0  0  0  0  0  0  0
    2.2888    1.0856    0.3871 Cl  0  0  0  0  0  0  0  0  0  0  0  0
    2.2529   -2.0092    1.1173 Cl  0  0  0  0  0  0  0  0  0  0  0  0
    0.3192    1.6612    2.8601 Cl  0  0  0  0  0  0  0  0  0  0  0  0
   -0.4593   -0.4379    0.7481 N   0  0  0  0  0  4  0  0  0  0  0  0
    0.2750   -1.4551    3.4182 N   0  0  0  0  0  4  0  0  0  0  0  0
   -1.4458   -0.9647    1.7040 C   0  0  0  0  0  0  0  0  0  0  0  0
   -0.8237   -2.0205    2.6193 C   0  0  0  0  0  0  0  0  0  0  0  0
   -0.2912   -1.3717   -0.3745 C   0  0  0  0  0  0  0  0  0  0  0  0
   -0.9751    0.8096    0.1624 C   0  0  0  0  0  0  0  0  0  0  0  0
    1.1034   -2.5509    3.9454 C   0  0  0  0  0  0  0  0  0  0  0  0
   -0.2624   -0.7530    4.5928 C   0  0  0  0  0  0  0  0  0  0  0  0
   -2.3022   -1.4045    1.1690 H   0  0  0  0  0  0  0  0  0  0  0  0
   -1.8090   -0.1265    2.3074 H   0  0  0  0  0  0  0  0  0  0  0  0
   -1.6029   -2.4359    3.2772 H   0  0  0  0  0  0  0  0  0  0  0  0
   -0.4157   -2.8359    2.0139 H   0  0  0  0  0  0  0  0  0  0  0  0
   -1.2306   -1.4631   -0.9360 H   0  0  0  0  0  0  0  0  0  0  0  0
    0.4863   -0.9923   -1.0388 H   0  0  0  0  0  0  0  0  0  0  0  0
    0.0167   -2.3568   -0.0307 H   0  0  0  0  0  0  0  0  0  0  0  0
   -1.9188    0.6210   -0.3653 H   0  0  0  0  0  0  0  0  0  0  0  0
   -1.1403    1.5564    0.9381 H   0  0  0  0  0  0  0  0  0  0  0  0
   -0.2428    1.2029   -0.5430 H   0  0  0  0  0  0  0  0  0  0  0  0
    0.5024   -3.2095    4.5854 H   0  0  0  0  0  0  0  0  0  0  0  0
    1.5308   -3.1334    3.1301 H   0  0  0  0  0  0  0  0  0  0  0  0
    1.9207   -2.1301    4.5316 H   0  0  0  0  0  0  0  0  0  0  0  0
   -0.7638   -1.4638    5.2631 H   0  0  0  0  0  0  0  0  0  0  0  0
    0.5597   -0.2758    5.1281 H   0  0  0  0  0  0  0  0  0  0  0  0
   -0.9683    0.0226    4.3033 H   0  0  0  0  0  0  0  0  0  0  0  0
  1  5  1  0  0  0  0
  1  7  1  0  0  0  0
  1  2  1  0  0  0  0
  3  1  1  0  0  0  0
  4  1  1  0  0  0  0
  6  8  1  0  0  0  0
  6  1  1  0  0  0  0
  7 12  1  0  0  0  0
  7 13  1  0  0  0  0
  8 15  1  0  0  0  0
  8  9  1  0  0  0  0
  9 16  1  0  0  0  0
  9  7  1  0  0  0  0
 10 20  1  0  0  0  0
 10  6  1  0  0  0  0
 11  6  1  0  0  0  0
 11 22  1  0  0  0  0
 12 26  1  0  0  0  0
 12 24  1  0  0  0  0
 13 28  1  0  0  0  0
 13 27  1  0  0  0  0
 14  8  1  0  0  0  0
 17  9  1  0  0  0  0
 18 10  1  0  0  0  0
 19 10  1  0  0  0  0
 21 11  1  0  0  0  0
 23 11  1  0  0  0  0
 25 12  1  0  0  0  0
 29 13  1  0  0  0  0
M  END
$$$$
