CSD_code = RIMTUC | q = 0 | S = 0 | Stoichiometry = C18H46Cl2IrP3 | MND = 6
 OpenBabel04212202093D

 70 69  0  0  0  0  0  0  0  0999 V2000
    3.8758    0.3451    1.7996 Ir  0  0  0  0  0  0  0  0  0  0  0  0
    3.8200    2.0959    0.2085 Cl  0  0  0  0  0  0  0  0  0  0  0  0
    3.9131   -1.1920    3.5988 Cl  0  0  0  0  0  0  0  0  0  0  0  0
    5.0749   -1.2530    0.4595 P   0  0  0  0  0  4  0  0  0  0  0  0
    5.6193    1.6855    2.8092 P   0  0  0  0  0  4  0  0  0  0  0  0
    2.1421    1.2853    3.0862 P   0  0  0  0  0  4  0  0  0  0  0  0
    5.8068   -0.6772   -1.1671 C   0  0  0  0  0  0  0  0  0  0  0  0
    6.5307   -1.7356   -1.9939 C   0  0  0  0  0  0  0  0  0  0  0  0
    6.6793    0.5640   -1.0237 C   0  0  0  0  0  0  0  0  0  0  0  0
    3.9398   -2.6030   -0.1760 C   0  0  0  0  0  0  0  0  0  0  0  0
    2.9774   -2.0938   -1.2479 C   0  0  0  0  0  0  0  0  0  0  0  0
    3.1598   -3.2483    0.9664 C   0  0  0  0  0  0  0  0  0  0  0  0
    6.3294   -2.2726    1.4198 C   0  0  0  0  0  0  0  0  0  0  0  0
    7.6090   -1.4737    1.6378 C   0  0  0  0  0  0  0  0  0  0  0  0
    6.6662   -3.6705    0.9065 C   0  0  0  0  0  0  0  0  0  0  0  0
    6.4084    1.0882    4.3585 C   0  0  0  0  0  0  0  0  0  0  0  0
    5.0303    3.3452    3.3417 C   0  0  0  0  0  0  0  0  0  0  0  0
    7.0941    2.3295    1.9157 C   0  0  0  0  0  0  0  0  0  0  0  0
    1.5177    2.9463    2.5630 C   0  0  0  0  0  0  0  0  0  0  0  0
    0.2562    3.4559    3.2483 C   0  0  0  0  0  0  0  0  0  0  0  0
    0.5954    0.2765    3.0456 C   0  0  0  0  0  0  0  0  0  0  0  0
   -0.0901    0.2346    1.6866 C   0  0  0  0  0  0  0  0  0  0  0  0
    2.4236    1.4801    4.9184 C   0  0  0  0  0  0  0  0  0  0  0  0
    1.8428    0.3965    5.8184 C   0  0  0  0  0  0  0  0  0  0  0  0
    4.9053   -0.3563   -1.7044 H   0  0  0  0  0  0  0  0  0  0  0  0
    5.9419   -2.6401   -2.1194 H   0  0  0  0  0  0  0  0  0  0  0  0
    7.4857   -1.9950   -1.5429 H   0  0  0  0  0  0  0  0  0  0  0  0
    6.7350   -1.3317   -2.9854 H   0  0  0  0  0  0  0  0  0  0  0  0
    6.1373    1.3285   -0.4759 H   0  0  0  0  0  0  0  0  0  0  0  0
    6.9104    0.9610   -2.0115 H   0  0  0  0  0  0  0  0  0  0  0  0
    7.6183    0.3469   -0.5222 H   0  0  0  0  0  0  0  0  0  0  0  0
    4.5886   -3.3633   -0.6230 H   0  0  0  0  0  0  0  0  0  0  0  0
    3.4714   -1.9635   -2.2075 H   0  0  0  0  0  0  0  0  0  0  0  0
    2.5420   -1.1417   -0.9495 H   0  0  0  0  0  0  0  0  0  0  0  0
    2.1679   -2.8095   -1.3823 H   0  0  0  0  0  0  0  0  0  0  0  0
    3.8086   -3.5282    1.7922 H   0  0  0  0  0  0  0  0  0  0  0  0
    2.6454   -4.1400    0.6093 H   0  0  0  0  0  0  0  0  0  0  0  0
    2.4180   -2.5553    1.3538 H   0  0  0  0  0  0  0  0  0  0  0  0
    5.8377   -2.3809    2.3955 H   0  0  0  0  0  0  0  0  0  0  0  0
    7.3610   -0.4594    1.9404 H   0  0  0  0  0  0  0  0  0  0  0  0
    8.2120   -1.4383    0.7326 H   0  0  0  0  0  0  0  0  0  0  0  0
    8.2097   -1.9295    2.4247 H   0  0  0  0  0  0  0  0  0  0  0  0
    5.8027   -4.3284    0.9176 H   0  0  0  0  0  0  0  0  0  0  0  0
    7.4156   -4.1051    1.5684 H   0  0  0  0  0  0  0  0  0  0  0  0
    7.0822   -3.6501   -0.0965 H   0  0  0  0  0  0  0  0  0  0  0  0
    5.6464    0.6872    5.0240 H   0  0  0  0  0  0  0  0  0  0  0  0
    6.9499    1.8924    4.8560 H   0  0  0  0  0  0  0  0  0  0  0  0
    7.0950    0.2770    4.1245 H   0  0  0  0  0  0  0  0  0  0  0  0
    4.2170    3.2735    4.0584 H   0  0  0  0  0  0  0  0  0  0  0  0
    4.6792    3.8657    2.4512 H   0  0  0  0  0  0  0  0  0  0  0  0
    5.8523    3.9070    3.7864 H   0  0  0  0  0  0  0  0  0  0  0  0
    7.7345    1.5346    1.5461 H   0  0  0  0  0  0  0  0  0  0  0  0
    7.6700    2.9665    2.5875 H   0  0  0  0  0  0  0  0  0  0  0  0
    6.7450    2.9208    1.0712 H   0  0  0  0  0  0  0  0  0  0  0  0
    1.3640    2.8685    1.4834 H   0  0  0  0  0  0  0  0  0  0  0  0
    2.3320    3.6585    2.7086 H   0  0  0  0  0  0  0  0  0  0  0  0
    0.0464    4.4689    2.9086 H   0  0  0  0  0  0  0  0  0  0  0  0
    0.3679    3.4841    4.3306 H   0  0  0  0  0  0  0  0  0  0  0  0
   -0.6064    2.8395    3.0113 H   0  0  0  0  0  0  0  0  0  0  0  0
   -0.0888    0.6763    3.7982 H   0  0  0  0  0  0  0  0  0  0  0  0
    0.8873   -0.7333    3.3452 H   0  0  0  0  0  0  0  0  0  0  0  0
   -0.9120   -0.4791    1.7082 H   0  0  0  0  0  0  0  0  0  0  0  0
    0.6115   -0.0742    0.9151 H   0  0  0  0  0  0  0  0  0  0  0  0
   -0.4882    1.2072    1.4086 H   0  0  0  0  0  0  0  0  0  0  0  0
    2.0451    2.4619    5.2178 H   0  0  0  0  0  0  0  0  0  0  0  0
    3.5068    1.4809    5.0599 H   0  0  0  0  0  0  0  0  0  0  0  0
    2.1786    0.5646    6.8410 H   0  0  0  0  0  0  0  0  0  0  0  0
    2.1954   -0.5816    5.5019 H   0  0  0  0  0  0  0  0  0  0  0  0
    0.7563    0.4025    5.8177 H   0  0  0  0  0  0  0  0  0  0  0  0
    2.7081   -0.3323    1.1124 H   0  0  0  0  0  0  0  0  0  0  0  0
  1  5  1  0  0  0  0
  1  6  1  0  0  0  0
  1  3  1  0  0  0  0
  2  1  1  0  0  0  0
  4 13  1  0  0  0  0
  4  1  1  0  0  0  0
  5 17  1  0  0  0  0
  5 16  1  0  0  0  0
  6 23  1  0  0  0  0
  7  9  1  0  0  0  0
  7  4  1  0  0  0  0
  8 27  1  0  0  0  0
  8  7  1  0  0  0  0
  9 31  1  0  0  0  0
  9 29  1  0  0  0  0
 10  4  1  0  0  0  0
 10 12  1  0  0  0  0
 11 34  1  0  0  0  0
 11 10  1  0  0  0  0
 12 38  1  0  0  0  0
 12 36  1  0  0  0  0
 13 14  1  0  0  0  0
 13 39  1  0  0  0  0
 14 40  1  0  0  0  0
 14 42  1  0  0  0  0
 15 43  1  0  0  0  0
 15 13  1  0  0  0  0
 15 44  1  0  0  0  0
 16 47  1  0  0  0  0
 16 46  1  0  0  0  0
 17 51  1  0  0  0  0
 17 49  1  0  0  0  0
 18 53  1  0  0  0  0
 18  5  1  0  0  0  0
 19 56  1  0  0  0  0
 19  6  1  0  0  0  0
 19 20  1  0  0  0  0
 20 58  1  0  0  0  0
 21  6  1  0  0  0  0
 21 61  1  0  0  0  0
 21 60  1  0  0  0  0
 22 62  1  0  0  0  0
 22 21  1  0  0  0  0
 23 66  1  0  0  0  0
 23 65  1  0  0  0  0
 23 24  1  0  0  0  0
 24 67  1  0  0  0  0
 25  7  1  0  0  0  0
 26  8  1  0  0  0  0
 28  8  1  0  0  0  0
 30  9  1  0  0  0  0
 32 10  1  0  0  0  0
 33 11  1  0  0  0  0
 35 11  1  0  0  0  0
 37 12  1  0  0  0  0
 41 14  1  0  0  0  0
 45 15  1  0  0  0  0
 48 16  1  0  0  0  0
 50 17  1  0  0  0  0
 52 18  1  0  0  0  0
 54 18  1  0  0  0  0
 55 19  1  0  0  0  0
 57 20  1  0  0  0  0
 59 20  1  0  0  0  0
 63 22  1  0  0  0  0
 64 22  1  0  0  0  0
 68 24  1  0  0  0  0
 69 24  1  0  0  0  0
 70  1  1  0  0  0  0
M  END
$$$$
