CSD_code = RIMVEO | q = 0 | S = 0 | Stoichiometry = C27H35CdI2N2O2P | MND = 6
 OpenBabel04212202093D

 70 71  0  0  0  0  0  0  0  0999 V2000
    3.9753    2.5416    3.4597 Cd  0  0  0  0  0  0  0  0  0  0  0  0
    2.9389    0.0622    3.8219 I   0  0  0  0  0 15  0  0  0  0  0  0
    2.0795    3.7722    1.8345 I   0  0  0  0  0 15  0  0  0  0  0  0
    0.6951    7.2845    4.1635 P   0  0  0  0  0  4  0  0  0  0  0  0
    0.2720    9.9899    4.4965 C   0  0  0  0  0  0  0  0  0  0  0  0
    0.2882   11.1846    5.1908 C   0  0  0  0  0  0  0  0  0  0  0  0
    0.7931   11.2293    6.4819 C   0  0  0  0  0  0  0  0  0  0  0  0
    1.2789   10.0785    7.0805 C   0  0  0  0  0  0  0  0  0  0  0  0
    1.2624    8.8766    6.3935 C   0  0  0  0  0  0  0  0  0  0  0  0
    0.7617    8.8312    5.0977 C   0  0  0  0  0  0  0  0  0  0  0  0
    2.2825    8.5547    2.3055 C   0  0  0  0  0  0  0  0  0  0  0  0
    2.7544    8.8110    1.0324 C   0  0  0  0  0  0  0  0  0  0  0  0
    2.1638    8.1983   -0.0624 C   0  0  0  0  0  0  0  0  0  0  0  0
    1.0903    7.3416    0.1119 C   0  0  0  0  0  0  0  0  0  0  0  0
    0.6097    7.0753    1.3817 C   0  0  0  0  0  0  0  0  0  0  0  0
    1.2138    7.6760    2.4799 C   0  0  0  0  0  0  0  0  0  0  0  0
   -1.2393    5.3761    3.6745 C   0  0  0  0  0  0  0  0  0  0  0  0
   -2.5259    4.8690    3.6979 C   0  0  0  0  0  0  0  0  0  0  0  0
   -3.5624    5.6192    4.2307 C   0  0  0  0  0  0  0  0  0  0  0  0
   -3.3167    6.8840    4.7412 C   0  0  0  0  0  0  0  0  0  0  0  0
   -2.0354    7.4047    4.7208 C   0  0  0  0  0  0  0  0  0  0  0  0
   -0.9954    6.6506    4.1851 C   0  0  0  0  0  0  0  0  0  0  0  0
    1.7682    6.0196    4.8973 C   0  0  0  0  0  0  0  0  0  0  0  0
    3.2618    6.2872    4.7359 C   0  0  0  0  0  0  0  0  0  0  0  0
    3.9764    4.9154    4.5357 C   0  0  0  0  0  3  0  0  0  0  0  0
    3.4959    3.9480    5.1590 O   0  0  0  0  0  0  0  0  0  0  0  0
    4.9189    4.8749    3.7400 O   0  0  0  0  0  0  0  0  0  0  0  0
    6.8412    2.9694    5.2747 C   0  0  0  0  0  0  0  0  0  0  0  0
    6.1015    0.7470    5.6042 C   0  0  0  0  0  0  0  0  0  0  0  0
    6.2716    1.8042    4.6156 N   0  0  0  0  0  0  0  0  0  0  0  0
    7.1289    1.3369    3.5309 C   0  0  0  0  0  0  0  0  0  0  0  0
    7.0594    2.2243    2.2873 C   0  0  0  0  0  0  0  0  0  0  0  0
    5.7429    2.2413    1.6512 N   0  0  0  0  0  4  0  0  0  0  0  0
    5.5010    1.0104    0.9060 C   0  0  0  0  0  0  0  0  0  0  0  0
    5.6718    3.3765    0.7361 C   0  0  0  0  0  0  0  0  0  0  0  0
   -0.1133    9.9437    3.4866 H   0  0  0  0  0  0  0  0  0  0  0  0
   -0.0908   12.0820    4.7259 H   0  0  0  0  0  0  0  0  0  0  0  0
    0.8084   12.1641    7.0212 H   0  0  0  0  0  0  0  0  0  0  0  0
    1.6721   10.1162    8.0851 H   0  0  0  0  0  0  0  0  0  0  0  0
    1.6403    7.9809    6.8633 H   0  0  0  0  0  0  0  0  0  0  0  0
    2.7351    9.0374    3.1621 H   0  0  0  0  0  0  0  0  0  0  0  0
    3.5889    9.4821    0.8955 H   0  0  0  0  0  0  0  0  0  0  0  0
    2.5446    8.3904   -1.0538 H   0  0  0  0  0  0  0  0  0  0  0  0
    0.6342    6.8593   -0.7375 H   0  0  0  0  0  0  0  0  0  0  0  0
   -0.2170    6.3956    1.5139 H   0  0  0  0  0  0  0  0  0  0  0  0
   -0.4385    4.7834    3.2542 H   0  0  0  0  0  0  0  0  0  0  0  0
   -2.7131    3.8835    3.3010 H   0  0  0  0  0  0  0  0  0  0  0  0
   -4.5638    5.2171    4.2512 H   0  0  0  0  0  0  0  0  0  0  0  0
   -4.1238    7.4666    5.1593 H   0  0  0  0  0  0  0  0  0  0  0  0
   -1.8415    8.3893    5.1230 H   0  0  0  0  0  0  0  0  0  0  0  0
    1.5183    5.0892    4.3701 H   0  0  0  0  0  0  0  0  0  0  0  0
    1.4780    5.8749    5.9425 H   0  0  0  0  0  0  0  0  0  0  0  0
    3.6879    6.7918    5.6042 H   0  0  0  0  0  0  0  0  0  0  0  0
    3.4750    6.8801    3.8445 H   0  0  0  0  0  0  0  0  0  0  0  0
    7.8475    2.7581    5.6721 H   0  0  0  0  0  0  0  0  0  0  0  0
    6.8973    3.8092    4.5867 H   0  0  0  0  0  0  0  0  0  0  0  0
    6.1926    3.2613    6.0998 H   0  0  0  0  0  0  0  0  0  0  0  0
    7.0571    0.4844    6.0838 H   0  0  0  0  0  0  0  0  0  0  0  0
    5.4041    1.0815    6.3718 H   0  0  0  0  0  0  0  0  0  0  0  0
    5.6918   -0.1463    5.1370 H   0  0  0  0  0  0  0  0  0  0  0  0
    6.8191    0.3217    3.2681 H   0  0  0  0  0  0  0  0  0  0  0  0
    8.1834    1.2877    3.8593 H   0  0  0  0  0  0  0  0  0  0  0  0
    7.8268    1.8804    1.5706 H   0  0  0  0  0  0  0  0  0  0  0  0
    7.3010    3.2509    2.5710 H   0  0  0  0  0  0  0  0  0  0  0  0
    6.2517    0.8661    0.1141 H   0  0  0  0  0  0  0  0  0  0  0  0
    5.5242    0.1478    1.5694 H   0  0  0  0  0  0  0  0  0  0  0  0
    4.5130    1.0522    0.4462 H   0  0  0  0  0  0  0  0  0  0  0  0
    6.4893    3.3519   -0.0002 H   0  0  0  0  0  0  0  0  0  0  0  0
    4.7258    3.3558    0.1972 H   0  0  0  0  0  0  0  0  0  0  0  0
    5.7278    4.3052    1.3038 H   0  0  0  0  0  0  0  0  0  0  0  0
  1 27  1  0  0  0  0
  1 26  1  0  0  0  0
  4 22  1  0  0  0  0
  4 23  1  0  0  0  0
  4 10  1  0  0  0  0
  5 10  2  0  0  0  0
  5  6  1  0  0  0  0
  6  7  2  0  0  0  0
  7 38  1  0  0  0  0
  7  8  1  0  0  0  0
  8 39  1  0  0  0  0
  9 40  1  0  0  0  0
  9  8  2  0  0  0  0
 10  9  1  0  0  0  0
 11 16  1  0  0  0  0
 11 41  1  0  0  0  0
 12 11  2  0  0  0  0
 13 14  2  0  0  0  0
 13 12  1  0  0  0  0
 14 15  1  0  0  0  0
 15 45  1  0  0  0  0
 15 16  2  0  0  0  0
 16  4  1  0  0  0  0
 17 18  2  0  0  0  0
 17 22  1  0  0  0  0
 18 19  1  0  0  0  0
 19 48  1  0  0  0  0
 19 20  2  0  0  0  0
 20 49  1  0  0  0  0
 21 20  1  0  0  0  0
 21 50  1  0  0  0  0
 22 21  2  0  0  0  0
 23 52  1  0  0  0  0
 24 23  1  0  0  0  0
 24 53  1  0  0  0  0
 25 24  1  0  0  0  0
 25 26  1  0  0  0  0
 27 25  1  0  0  0  0
 28 55  1  0  0  0  0
 28 57  1  0  0  0  0
 29 58  1  0  0  0  0
 29 59  1  0  0  0  0
 30 28  1  0  0  0  0
 30 29  1  0  0  0  0
 31 62  1  0  0  0  0
 31 30  1  0  0  0  0
 32 64  1  0  0  0  0
 32 31  1  0  0  0  0
 33 32  1  0  0  0  0
 33  1  1  0  0  0  0
 34 66  1  0  0  0  0
 34 33  1  0  0  0  0
 35 70  1  0  0  0  0
 35 33  1  0  0  0  0
 36  5  1  0  0  0  0
 37  6  1  0  0  0  0
 42 12  1  0  0  0  0
 43 13  1  0  0  0  0
 44 14  1  0  0  0  0
 46 17  1  0  0  0  0
 47 18  1  0  0  0  0
 51 23  1  0  0  0  0
 54 24  1  0  0  0  0
 56 28  1  0  0  0  0
 60 29  1  0  0  0  0
 61 31  1  0  0  0  0
 63 32  1  0  0  0  0
 65 34  1  0  0  0  0
 67 34  1  0  0  0  0
 68 35  1  0  0  0  0
 69 35  1  0  0  0  0
M  END
$$$$
