CSD_code = RINBOH | q = 0 | S = 0 | Stoichiometry = C26H24I2NiP2 | MND = 4
 OpenBabel04212202093D

 55 59  0  0  0  0  0  0  0  0999 V2000
    7.6294   26.6055    5.3868 Ni  0  0  0  0  0  0  0  0  0  0  0  0
    6.5735   28.2527    6.8804 I   0  0  0  0  0  0  0  0  0  0  0  0
    8.8997   25.2944    7.0275 I   0  0  0  0  0  0  0  0  0  0  0  0
    8.5401   25.4406    3.8454 P   0  0  0  0  0  4  0  0  0  0  0  0
    6.5404   27.5163    3.7882 P   0  0  0  0  0  4  0  0  0  0  0  0
    7.5834   25.5335    2.2543 C   0  0  0  0  0  0  0  0  0  0  0  0
    8.1979   25.1903    1.4170 H   0  0  0  0  0  0  0  0  0  0  0  0
    6.7100   24.8766    2.3355 H   0  0  0  0  0  0  0  0  0  0  0  0
    7.1404   26.9778    2.1100 C   0  0  0  0  0  0  0  0  0  0  0  0
    6.3438   27.1044    1.3711 H   0  0  0  0  0  0  0  0  0  0  0  0
    7.9869   27.6075    1.8174 H   0  0  0  0  0  0  0  0  0  0  0  0
    9.1822   23.7492    3.8485 C   0  0  0  0  0  0  0  0  0  0  0  0
   10.4932   23.5026    4.2455 C   0  0  0  0  0  0  0  0  0  0  0  0
   11.1358   24.3252    4.5273 H   0  0  0  0  0  0  0  0  0  0  0  0
   10.9634   22.2046    4.2952 C   0  0  0  0  0  0  0  0  0  0  0  0
   11.9808   22.0167    4.6030 H   0  0  0  0  0  0  0  0  0  0  0  0
   10.1284   21.1490    3.9661 C   0  0  0  0  0  0  0  0  0  0  0  0
   10.4969   20.1353    4.0107 H   0  0  0  0  0  0  0  0  0  0  0  0
    8.8163   21.3905    3.5939 C   0  0  0  0  0  0  0  0  0  0  0  0
    8.1601   20.5672    3.3530 H   0  0  0  0  0  0  0  0  0  0  0  0
    8.3382   22.6869    3.5413 C   0  0  0  0  0  0  0  0  0  0  0  0
    7.3057   22.8690    3.2732 H   0  0  0  0  0  0  0  0  0  0  0  0
    9.9637   26.4938    3.4445 C   0  0  0  0  0  0  0  0  0  0  0  0
   10.1550   27.6563    4.1855 C   0  0  0  0  0  0  0  0  0  0  0  0
    9.5030   27.8852    5.0385 H   0  0  0  0  0  0  0  0  0  0  0  0
   11.1839   28.5242    3.8682 C   0  0  0  0  0  0  0  0  0  0  0  0
   11.3278   29.4237    4.4477 H   0  0  0  0  0  0  0  0  0  0  0  0
   12.0264   28.2291    2.8095 C   0  0  0  0  0  0  0  0  0  0  0  0
   12.8322   28.9027    2.5590 H   0  0  0  0  0  0  0  0  0  0  0  0
   11.8454   27.0670    2.0735 C   0  0  0  0  0  0  0  0  0  0  0  0
   12.5103   26.8380    1.2535 H   0  0  0  0  0  0  0  0  0  0  0  0
   10.8172   26.1981    2.3855 C   0  0  0  0  0  0  0  0  0  0  0  0
   10.6780   25.2865    1.8190 H   0  0  0  0  0  0  0  0  0  0  0  0
    4.9568   26.6359    3.8608 C   0  0  0  0  0  0  0  0  0  0  0  0
    3.9246   26.8971    2.9645 C   0  0  0  0  0  0  0  0  0  0  0  0
    4.0328   27.6856    2.2308 H   0  0  0  0  0  0  0  0  0  0  0  0
    2.7603   26.1554    3.0298 C   0  0  0  0  0  0  0  0  0  0  0  0
    1.9539   26.3628    2.3417 H   0  0  0  0  0  0  0  0  0  0  0  0
    2.6240   25.1502    3.9758 C   0  0  0  0  0  0  0  0  0  0  0  0
    1.7100   24.5772    4.0215 H   0  0  0  0  0  0  0  0  0  0  0  0
    3.6522   24.8811    4.8639 C   0  0  0  0  0  0  0  0  0  0  0  0
    3.5464   24.1001    5.6017 H   0  0  0  0  0  0  0  0  0  0  0  0
    4.8163   25.6244    4.8064 C   0  0  0  0  0  0  0  0  0  0  0  0
    5.6230   25.4210    5.5226 H   0  0  0  0  0  0  0  0  0  0  0  0
    6.1675   29.2678    3.5320 C   0  0  0  0  0  0  0  0  0  0  0  0
    4.9640   29.8191    3.9597 C   0  0  0  0  0  0  0  0  0  0  0  0
    4.2181   29.1928    4.4286 H   0  0  0  0  0  0  0  0  0  0  0  0
    4.7364   31.1732    3.8034 C   0  0  0  0  0  0  0  0  0  0  0  0
    3.8008   31.5982    4.1336 H   0  0  0  0  0  0  0  0  0  0  0  0
    5.7096   31.9838    3.2419 C   0  0  0  0  0  0  0  0  0  0  0  0
    5.5302   33.0421    3.1269 H   0  0  0  0  0  0  0  0  0  0  0  0
    6.9216   31.4424    2.8460 C   0  0  0  0  0  0  0  0  0  0  0  0
    7.6902   32.0768    2.4295 H   0  0  0  0  0  0  0  0  0  0  0  0
    7.1559   30.0886    2.9962 C   0  0  0  0  0  0  0  0  0  0  0  0
    8.1154   29.6740    2.7125 H   0  0  0  0  0  0  0  0  0  0  0  0
  1  2  1  0  0  0  0
  1  3  1  0  0  0  0
  4 12  1  0  0  0  0
  4  1  1  0  0  0  0
  5 34  1  0  0  0  0
  5  1  1  0  0  0  0
  6  8  1  0  0  0  0
  6  4  1  0  0  0  0
  7  6  1  0  0  0  0
  9  6  1  0  0  0  0
  9  5  1  0  0  0  0
 10  9  1  0  0  0  0
 11  9  1  0  0  0  0
 12 13  1  0  0  0  0
 13 15  2  0  0  0  0
 13 14  1  0  0  0  0
 15 16  1  0  0  0  0
 17 18  1  0  0  0  0
 17 15  1  0  0  0  0
 19 17  2  0  0  0  0
 20 19  1  0  0  0  0
 21 19  1  0  0  0  0
 21 12  2  0  0  0  0
 22 21  1  0  0  0  0
 23  4  1  0  0  0  0
 23 24  1  0  0  0  0
 24 25  1  0  0  0  0
 26 24  2  0  0  0  0
 26 27  1  0  0  0  0
 28 26  1  0  0  0  0
 29 28  1  0  0  0  0
 30 32  1  0  0  0  0
 30 28  2  0  0  0  0
 31 30  1  0  0  0  0
 32 23  2  0  0  0  0
 33 32  1  0  0  0  0
 34 43  1  0  0  0  0
 35 37  1  0  0  0  0
 35 34  2  0  0  0  0
 36 35  1  0  0  0  0
 37 39  2  0  0  0  0
 38 37  1  0  0  0  0
 39 40  1  0  0  0  0
 39 41  1  0  0  0  0
 41 42  1  0  0  0  0
 43 41  2  0  0  0  0
 43 44  1  0  0  0  0
 45  5  1  0  0  0  0
 45 46  1  0  0  0  0
 46 47  1  0  0  0  0
 48 46  2  0  0  0  0
 48 49  1  0  0  0  0
 50 48  1  0  0  0  0
 51 50  1  0  0  0  0
 52 54  1  0  0  0  0
 52 50  2  0  0  0  0
 53 52  1  0  0  0  0
 54 45  2  0  0  0  0
 55 54  1  0  0  0  0
M  END
$$$$
