CSD_code = RINBEX | q = 0 | S = 0 | Stoichiometry = C18H40Br2NiP2 | MND = 4
 OpenBabel04212202093D

 63 63  0  0  0  0  0  0  0  0999 V2000
   14.1776    1.4338    8.1586 Br  0  0  0  0  0  0  0  0  0  0  0  0
   11.5306    2.6218    6.5649 Br  0  0  0  0  0  0  0  0  0  0  0  0
   12.4609    2.8478    8.6260 Ni  0  0  0  0  0  0  0  0  0  0  0  0
   13.5909    4.0093   10.1302 P   0  0  0  0  0  4  0  0  0  0  0  0
   10.5496    3.3147    9.6344 P   0  0  0  0  0  4  0  0  0  0  0  0
   12.3861    4.5679   11.4398 C   0  0  0  0  0  0  0  0  0  0  0  0
   12.5520    3.8992   12.2863 H   0  0  0  0  0  0  0  0  0  0  0  0
   12.6480    5.5784   11.7646 H   0  0  0  0  0  0  0  0  0  0  0  0
   15.0861    3.5147   11.1998 C   0  0  0  0  0  0  0  0  0  0  0  0
   10.9153    4.5045   11.0234 C   0  0  0  0  0  0  0  0  0  0  0  0
   10.6010    5.4822   10.6538 H   0  0  0  0  0  0  0  0  0  0  0  0
   10.2850    4.2613   11.8830 H   0  0  0  0  0  0  0  0  0  0  0  0
   10.1766    1.6520   10.4814 C   0  0  0  0  0  0  0  0  0  0  0  0
   10.2027    0.5755    9.3915 C   0  0  0  0  0  0  0  0  0  0  0  0
    9.4180    0.7111    8.6532 H   0  0  0  0  0  0  0  0  0  0  0  0
   10.0846   -0.4107    9.8384 H   0  0  0  0  0  0  0  0  0  0  0  0
   11.1664    0.5870    8.8709 H   0  0  0  0  0  0  0  0  0  0  0  0
    8.8844    1.5726   11.2879 C   0  0  0  0  0  0  0  0  0  0  0  0
    8.8324    2.3589   12.0399 H   0  0  0  0  0  0  0  0  0  0  0  0
    8.8603    0.6163   11.8109 H   0  0  0  0  0  0  0  0  0  0  0  0
    8.0016    1.6202   10.6572 H   0  0  0  0  0  0  0  0  0  0  0  0
   11.3504    1.3745   11.4223 C   0  0  0  0  0  0  0  0  0  0  0  0
   11.3064    0.3446   11.7747 H   0  0  0  0  0  0  0  0  0  0  0  0
   11.3316    2.0262   12.2937 H   0  0  0  0  0  0  0  0  0  0  0  0
   12.2971    1.4979   10.8922 H   0  0  0  0  0  0  0  0  0  0  0  0
   12.6746    6.1920    8.7160 C   0  0  0  0  0  0  0  0  0  0  0  0
   12.0314    5.4331    8.2656 H   0  0  0  0  0  0  0  0  0  0  0  0
   12.8418    6.9640    7.9658 H   0  0  0  0  0  0  0  0  0  0  0  0
   12.1626    6.6517    9.5591 H   0  0  0  0  0  0  0  0  0  0  0  0
   14.8312    6.6412    9.8496 C   0  0  0  0  0  0  0  0  0  0  0  0
   14.8935    7.5203    9.2077 H   0  0  0  0  0  0  0  0  0  0  0  0
   15.8468    6.3137   10.0511 H   0  0  0  0  0  0  0  0  0  0  0  0
   14.3604    6.9491   10.7824 H   0  0  0  0  0  0  0  0  0  0  0  0
   14.7183    5.1150    7.8532 C   0  0  0  0  0  0  0  0  0  0  0  0
   15.6685    4.6295    8.0545 H   0  0  0  0  0  0  0  0  0  0  0  0
   14.9018    5.9682    7.2015 H   0  0  0  0  0  0  0  0  0  0  0  0
   14.0854    4.4108    7.3023 H   0  0  0  0  0  0  0  0  0  0  0  0
   14.0107    5.5742    9.1323 C   0  0  0  0  0  0  0  0  0  0  0  0
    8.9381    4.0523    8.9392 C   0  0  0  0  0  0  0  0  0  0  0  0
   15.3307    4.4590   12.3803 C   0  0  0  0  0  0  0  0  0  0  0  0
   15.4987    5.4836   12.0684 H   0  0  0  0  0  0  0  0  0  0  0  0
   16.2250    4.1233   12.9043 H   0  0  0  0  0  0  0  0  0  0  0  0
   14.5118    4.4430   13.0955 H   0  0  0  0  0  0  0  0  0  0  0  0
    7.9896    4.5755   10.0216 C   0  0  0  0  0  0  0  0  0  0  0  0
    7.0844    4.9366    9.5345 H   0  0  0  0  0  0  0  0  0  0  0  0
    8.4155    5.4109   10.5722 H   0  0  0  0  0  0  0  0  0  0  0  0
    7.6974    3.8072   10.7285 H   0  0  0  0  0  0  0  0  0  0  0  0
    9.3254    5.2273    8.0345 C   0  0  0  0  0  0  0  0  0  0  0  0
    8.4275    5.6419    7.5792 H   0  0  0  0  0  0  0  0  0  0  0  0
    9.9773    4.8982    7.2280 H   0  0  0  0  0  0  0  0  0  0  0  0
    9.8090    6.0284    8.5900 H   0  0  0  0  0  0  0  0  0  0  0  0
    8.2065    3.0253    8.0732 C   0  0  0  0  0  0  0  0  0  0  0  0
    8.8727    2.6020    7.3250 H   0  0  0  0  0  0  0  0  0  0  0  0
    7.3919    3.5191    7.5450 H   0  0  0  0  0  0  0  0  0  0  0  0
    7.7739    2.2250    8.6671 H   0  0  0  0  0  0  0  0  0  0  0  0
   16.3522    3.4265   10.3461 C   0  0  0  0  0  0  0  0  0  0  0  0
   17.1481    2.9709   10.9337 H   0  0  0  0  0  0  0  0  0  0  0  0
   16.6994    4.4058   10.0287 H   0  0  0  0  0  0  0  0  0  0  0  0
   16.1899    2.7990    9.4728 H   0  0  0  0  0  0  0  0  0  0  0  0
   14.8067    2.1148   11.7577 C   0  0  0  0  0  0  0  0  0  0  0  0
   13.9430    2.1038   12.4198 H   0  0  0  0  0  0  0  0  0  0  0  0
   15.6659    1.7803   12.3369 H   0  0  0  0  0  0  0  0  0  0  0  0
   14.6575    1.3983   10.9527 H   0  0  0  0  0  0  0  0  0  0  0  0
  1  3  1  0  0  0  0
  2  3  1  0  0  0  0
  3  5  1  0  0  0  0
  3  4  1  0  0  0  0
  4  9  1  0  0  0  0
  4  6  1  0  0  0  0
  5 13  1  0  0  0  0
  5 10  1  0  0  0  0
  6  8  1  0  0  0  0
  6  7  1  0  0  0  0
  9 60  1  0  0  0  0
  9 40  1  0  0  0  0
 10  6  1  0  0  0  0
 10 12  1  0  0  0  0
 11 10  1  0  0  0  0
 13 18  1  0  0  0  0
 13 22  1  0  0  0  0
 14 16  1  0  0  0  0
 14 13  1  0  0  0  0
 15 14  1  0  0  0  0
 17 14  1  0  0  0  0
 18 20  1  0  0  0  0
 18 19  1  0  0  0  0
 21 18  1  0  0  0  0
 22 23  1  0  0  0  0
 22 24  1  0  0  0  0
 25 22  1  0  0  0  0
 26 38  1  0  0  0  0
 26 29  1  0  0  0  0
 27 26  1  0  0  0  0
 28 26  1  0  0  0  0
 30 32  1  0  0  0  0
 30 33  1  0  0  0  0
 31 30  1  0  0  0  0
 34 35  1  0  0  0  0
 34 38  1  0  0  0  0
 36 34  1  0  0  0  0
 37 34  1  0  0  0  0
 38 30  1  0  0  0  0
 38  4  1  0  0  0  0
 39  5  1  0  0  0  0
 39 44  1  0  0  0  0
 40 42  1  0  0  0  0
 40 43  1  0  0  0  0
 41 40  1  0  0  0  0
 44 46  1  0  0  0  0
 44 47  1  0  0  0  0
 45 44  1  0  0  0  0
 48 51  1  0  0  0  0
 48 39  1  0  0  0  0
 49 48  1  0  0  0  0
 50 48  1  0  0  0  0
 52 55  1  0  0  0  0
 52 39  1  0  0  0  0
 53 52  1  0  0  0  0
 54 52  1  0  0  0  0
 56 57  1  0  0  0  0
 56  9  1  0  0  0  0
 58 56  1  0  0  0  0
 59 56  1  0  0  0  0
 60 62  1  0  0  0  0
 60 61  1  0  0  0  0
 63 60  1  0  0  0  0
M  END
$$$$
