CSD_code = RINNIL | q = 0 | S = 0 | Stoichiometry = C6H16Cl2N2Pt | MND = 4
 OpenBabel04212202093D

 27 27  0  0  0  0  0  0  0  0999 V2000
   -1.5974    2.8493    8.3062 Pt  0  0  0  0  0  0  0  0  0  0  0  0
   -3.4506    4.1826    7.9633 Cl  0  0  0  0  0  0  0  0  0  0  0  0
    0.2468    1.5100    8.6992 Cl  0  0  0  0  0  0  0  0  0  0  0  0
   -0.3702    4.1637    7.3381 N   0  0  0  0  0  4  0  0  0  0  0  0
   -2.8076    1.5330    9.3323 N   0  0  0  0  0  4  0  0  0  0  0  0
   -0.6507    4.3271    5.9011 C   0  0  0  0  0  0  0  0  0  0  0  0
    0.3944    5.2185    5.2290 C   0  0  0  0  0  0  0  0  0  0  0  0
    0.0886    5.3516    3.7388 C   0  0  0  0  0  0  0  0  0  0  0  0
    0.0564    3.9781    3.0756 C   0  0  0  0  0  0  0  0  0  0  0  0
   -0.9827    3.0859    3.7488 C   0  0  0  0  0  0  0  0  0  0  0  0
   -0.6801    2.9511    5.2373 C   0  0  0  0  0  0  0  0  0  0  0  0
   -1.6406    4.7891    5.8111 H   0  0  0  0  0  0  0  0  0  0  0  0
   -0.4170    5.0748    7.8049 H   0  0  0  0  0  0  0  0  0  0  0  0
    0.5791    3.7883    7.4577 H   0  0  0  0  0  0  0  0  0  0  0  0
    0.4022    6.2070    5.6953 H   0  0  0  0  0  0  0  0  0  0  0  0
   -2.9132    0.6550    8.8215 H   0  0  0  0  0  0  0  0  0  0  0  0
   -3.7234    1.9714    9.4572 H   0  0  0  0  0  0  0  0  0  0  0  0
   -2.3874    1.3325   10.2410 H   0  0  0  0  0  0  0  0  0  0  0  0
    1.3853    4.7739    5.3565 H   0  0  0  0  0  0  0  0  0  0  0  0
   -0.8807    5.8380    3.6125 H   0  0  0  0  0  0  0  0  0  0  0  0
    0.8434    5.9798    3.2630 H   0  0  0  0  0  0  0  0  0  0  0  0
   -0.1772    4.0858    2.0152 H   0  0  0  0  0  0  0  0  0  0  0  0
    1.0414    3.5129    3.1560 H   0  0  0  0  0  0  0  0  0  0  0  0
   -0.9860    2.0997    3.2826 H   0  0  0  0  0  0  0  0  0  0  0  0
   -1.9751    3.5225    3.6198 H   0  0  0  0  0  0  0  0  0  0  0  0
   -1.4469    2.3377    5.7287 H   0  0  0  0  0  0  0  0  0  0  0  0
    0.2866    2.4615    5.3755 H   0  0  0  0  0  0  0  0  0  0  0  0
  1  3  1  0  0  0  0
  1  5  1  0  0  0  0
  2  1  1  0  0  0  0
  4 14  1  0  0  0  0
  4 13  1  0  0  0  0
  4  1  1  0  0  0  0
  5 17  1  0  0  0  0
  5 18  1  0  0  0  0
  6  4  1  0  0  0  0
  7 19  1  0  0  0  0
  7 15  1  0  0  0  0
  7  6  1  0  0  0  0
  8  7  1  0  0  0  0
  9 23  1  0  0  0  0
  9  8  1  0  0  0  0
  9 10  1  0  0  0  0
 10 11  1  0  0  0  0
 11 27  1  0  0  0  0
 11 26  1  0  0  0  0
 11  6  1  0  0  0  0
 12  6  1  0  0  0  0
 16  5  1  0  0  0  0
 20  8  1  0  0  0  0
 21  8  1  0  0  0  0
 22  9  1  0  0  0  0
 24 10  1  0  0  0  0
 25 10  1  0  0  0  0
M  END
$$$$
