CSD_code = RINTAK | q = 0 | S = 0 | Stoichiometry = C20H21Cl2NO3Ti | MND = 6
 OpenBabel04212202093D

 48 52  0  0  1  0  0  0  0  0999 V2000
    4.2857    1.2964    3.4165 Ti  0  0  0  0  0  0  0  0  0  0  0  0
    4.6882    0.5390    1.3618 Cl  0  0  0  0  0  0  0  0  0  0  0  0
    2.3065    0.3600    3.6871 Cl  0  0  0  0  0  0  0  0  0  0  0  0
    3.6927    2.8649    2.7957 O   0  0  0  0  0  0  0  0  0  0  0  0
    4.1489    3.7113    1.9227 C   0  0  0  0  0  0  0  0  0  0  0  0
    3.2631    4.4880    1.1489 C   0  0  0  0  0  0  0  0  0  0  0  0
    2.2037    4.3361    1.2987 H   0  0  0  0  0  0  0  0  0  0  0  0
    3.7334    5.3798    0.2163 C   0  0  0  0  0  0  0  0  0  0  0  0
    3.0343    5.9503   -0.3774 H   0  0  0  0  0  0  0  0  0  0  0  0
    5.1048    5.5547    0.0221 C   0  0  0  0  0  0  0  0  0  0  0  0
    5.4595    6.2566   -0.7163 H   0  0  0  0  0  0  0  0  0  0  0  0
    5.9943    4.8248    0.7711 C   0  0  0  0  0  0  0  0  0  0  0  0
    7.0584    4.9491    0.6269 H   0  0  0  0  0  0  0  0  0  0  0  0
    5.5498    3.9001    1.7290 C   0  0  0  0  0  0  0  0  0  0  0  0
    6.4910    3.1575    2.5067 C   0  0  0  0  0  3  0  0  0  0  0  0
    7.5551    3.3654    2.3289 H   0  0  0  0  0  0  0  0  0  0  0  0
    6.1442    2.2970    3.3891 N   0  0  2  0  0  0  0  0  0  0  0  0
    7.1105    1.5775    4.1544 C   0  0  2  0  0  0  0  0  0  0  0  0
    8.1260    1.6554    3.7276 H   0  0  0  0  0  0  0  0  0  0  0  0
    6.6288    0.0895    4.2546 C   0  0  1  0  0  0  0  0  0  0  0  0
    7.0494   -0.5204    3.4338 H   0  0  0  0  0  0  0  0  0  0  0  0
    7.1186   -0.3788    5.6468 C   0  0  0  0  0  0  0  0  0  0  0  0
    6.4462   -1.1371    6.0507 H   0  0  0  0  0  0  0  0  0  0  0  0
    8.1238   -0.8013    5.5814 H   0  0  0  0  0  0  0  0  0  0  0  0
    7.1229    0.8900    6.4448 C   0  0  0  0  0  0  0  0  0  0  0  0
    7.1256    1.0597    7.8162 C   0  0  0  0  0  0  0  0  0  0  0  0
    7.1384    0.2053    8.4766 H   0  0  0  0  0  0  0  0  0  0  0  0
    7.1028    2.3486    8.3324 C   0  0  0  0  0  0  0  0  0  0  0  0
    7.1049    2.4944    9.4028 H   0  0  0  0  0  0  0  0  0  0  0  0
    7.0732    3.4491    7.4915 C   0  0  0  0  0  0  0  0  0  0  0  0
    7.0506    4.4438    7.9118 H   0  0  0  0  0  0  0  0  0  0  0  0
    7.0742    3.2836    6.1130 C   0  0  0  0  0  0  0  0  0  0  0  0
    7.0472    4.1387    5.4521 H   0  0  0  0  0  0  0  0  0  0  0  0
    7.1061    2.0009    5.6041 C   0  0  0  0  0  0  0  0  0  0  0  0
    5.2615    0.0813    4.1730 O   0  0  0  0  0  0  0  0  0  0  0  0
    4.0146    2.1661    5.3987 O   0  0  0  0  0  0  0  0  0  0  0  0
    3.2080    3.3200    5.6003 C   0  0  0  0  0  0  0  0  0  0  0  0
    2.1817    3.1121    5.2612 H   0  0  0  0  0  0  0  0  0  0  0  0
    3.6317    4.1395    5.0140 H   0  0  0  0  0  0  0  0  0  0  0  0
    3.2532    3.5644    7.1135 C   0  0  0  0  0  0  0  0  0  0  0  0
    4.0949    4.2089    7.3645 H   0  0  0  0  0  0  0  0  0  0  0  0
    2.3384    4.0317    7.4698 H   0  0  0  0  0  0  0  0  0  0  0  0
    3.4633    2.1562    7.6937 C   0  0  0  0  0  0  0  0  0  0  0  0
    4.3517    2.1259    8.3226 H   0  0  0  0  0  0  0  0  0  0  0  0
    2.6106    1.8256    8.2824 H   0  0  0  0  0  0  0  0  0  0  0  0
    3.6425    1.2735    6.4492 C   0  0  0  0  0  0  0  0  0  0  0  0
    2.7020    0.7732    6.1782 H   0  0  0  0  0  0  0  0  0  0  0  0
    4.4364    0.5312    6.5456 H   0  0  0  0  0  0  0  0  0  0  0  0
  1  3  1  0  0  0  0
  1 35  1  0  0  0  0
  2  1  1  0  0  0  0
  4  1  1  0  0  0  0
  5  4  1  0  0  0  0
  6  7  1  0  0  0  0
  6  5  2  0  0  0  0
  8  6  1  0  0  0  0
  9  8  1  0  0  0  0
 10  8  2  0  0  0  0
 10 12  1  0  0  0  0
 11 10  1  0  0  0  0
 12 14  2  0  0  0  0
 13 12  1  0  0  0  0
 14  5  1  0  0  0  0
 14 15  1  0  0  0  0
 16 15  1  0  0  0  0
 17 15  1  6  0  0  0
 17  1  1  0  0  0  0
 17 18  1  0  0  0  0
 18 19  1  6  0  0  0
 18 20  1  0  0  0  0
 18 34  1  0  0  0  0
 20 21  1  6  0  0  0
 20 22  1  0  0  0  0
 22 23  1  0  0  0  0
 22 25  1  0  0  0  0
 24 22  1  0  0  0  0
 25 26  1  0  0  0  0
 26 28  2  0  0  0  0
 26 27  1  0  0  0  0
 28 29  1  0  0  0  0
 30 31  1  0  0  0  0
 30 28  1  0  0  0  0
 32 30  2  0  0  0  0
 33 32  1  0  0  0  0
 34 32  1  0  0  0  0
 34 25  2  0  0  0  0
 35 20  1  0  0  0  0
 36 37  1  0  0  0  0
 36 46  1  0  0  0  0
 37 40  1  0  0  0  0
 38 37  1  0  0  0  0
 39 37  1  0  0  0  0
 40 41  1  0  0  0  0
 40 42  1  0  0  0  0
 40 43  1  0  0  0  0
 43 45  1  0  0  0  0
 43 44  1  0  0  0  0
 46 48  1  0  0  0  0
 46 43  1  0  0  0  0
 47 46  1  0  0  0  0
M  END
$$$$
