CSD_code = RINWUI | q = 0 | S = 0 | Stoichiometry = C10H22Cl2N2O2Pd | MND = 4
 OpenBabel04212202093D

 39 40  0  0  1  0  0  0  0  0999 V2000
    9.3809    5.8082    4.5641 Pd  0  0  0  0  0  0  0  0  0  0  0  0
    7.6783    6.8836    5.5212 Cl  0  0  0  0  0  0  0  0  0  0  0  0
    9.9746    4.8858    6.5145 Cl  0  0  0  0  0  0  0  0  0  0  0  0
    9.0078    6.7850    2.7138 N   0  0  1  0  0  4  0  0  0  0  0  0
    9.0368    7.7857    2.9241 H   0  0  0  0  0  0  0  0  0  0  0  0
   10.9903    4.8918    3.5066 N   0  0  0  0  0  4  0  0  0  0  0  0
   11.7965    5.4665    3.7653 H   0  0  0  0  0  0  0  0  0  0  0  0
    7.5725    8.6982    1.1853 O   0  0  0  0  0  0  0  0  0  0  0  0
    6.9967    9.0671    1.8666 H   0  0  0  0  0  0  0  0  0  0  0  0
    9.5969    2.3093    2.5966 O   0  0  0  0  0  0  0  0  0  0  0  0
    8.8507    1.7055    2.6576 H   0  0  0  0  0  0  0  0  0  0  0  0
   10.6981    5.0699    2.0799 C   0  0  0  0  0  0  0  0  0  0  0  0
    9.9840    4.2945    1.8005 H   0  0  0  0  0  0  0  0  0  0  0  0
   11.6053    4.9316    1.4724 H   0  0  0  0  0  0  0  0  0  0  0  0
    7.3439    5.0375    2.0648 C   0  0  0  0  0  0  0  0  0  0  0  0
    7.6264    4.5114    2.9924 H   0  0  0  0  0  0  0  0  0  0  0  0
    7.9213    4.6372    1.2294 H   0  0  0  0  0  0  0  0  0  0  0  0
   10.1231    6.4647    1.8091 C   0  0  0  0  0  0  0  0  0  0  0  0
   10.9124    7.2066    1.9744 H   0  0  0  0  0  0  0  0  0  0  0  0
    9.8215    6.5311    0.7587 H   0  0  0  0  0  0  0  0  0  0  0  0
    5.4457    5.6387    0.5450 C   0  0  0  0  0  0  0  0  0  0  0  0
    5.9840    5.2611   -0.3275 H   0  0  0  0  0  0  0  0  0  0  0  0
    4.3785    5.5105    0.3595 H   0  0  0  0  0  0  0  0  0  0  0  0
    5.7545    7.1219    0.7281 C   0  0  0  0  0  0  0  0  0  0  0  0
    5.4735    7.6833   -0.1648 H   0  0  0  0  0  0  0  0  0  0  0  0
    5.1767    7.5132    1.5699 H   0  0  0  0  0  0  0  0  0  0  0  0
    7.6319    6.5232    2.2597 C   0  0  2  0  0  0  0  0  0  0  0  0
    7.0010    6.8726    3.0916 H   0  0  0  0  0  0  0  0  0  0  0  0
    7.2433    7.3368    1.0107 C   0  0  2  0  0  0  0  0  0  0  0  0
    7.8244    7.0179    0.1382 H   0  0  0  0  0  0  0  0  0  0  0  0
    5.8566    4.8427    1.7816 C   0  0  0  0  0  0  0  0  0  0  0  0
    5.6441    3.7839    1.6264 H   0  0  0  0  0  0  0  0  0  0  0  0
    5.2782    5.1795    2.6435 H   0  0  0  0  0  0  0  0  0  0  0  0
   10.0178    2.6444    3.9093 C   0  0  0  0  0  0  0  0  0  0  0  0
   10.2410    1.7341    4.4781 H   0  0  0  0  0  0  0  0  0  0  0  0
    9.2306    3.2134    4.4450 H   0  0  0  0  0  0  0  0  0  0  0  0
   11.2836    3.5009    3.8577 C   0  0  0  0  0  0  0  0  0  0  0  0
   11.7213    3.4938    4.8578 H   0  0  0  0  0  0  0  0  0  0  0  0
   11.9842    3.0569    3.1381 H   0  0  0  0  0  0  0  0  0  0  0  0
  1  2  1  0  0  0  0
  1  3  1  0  0  0  0
  4  5  1  1  0  0  0
  4  1  1  0  0  0  0
  6  7  1  0  0  0  0
  6 37  1  0  0  0  0
  6  1  1  0  0  0  0
  8  9  1  0  0  0  0
 10 11  1  0  0  0  0
 10 34  1  0  0  0  0
 12  6  1  0  0  0  0
 13 12  1  0  0  0  0
 14 12  1  0  0  0  0
 15 27  1  0  0  0  0
 15 16  1  0  0  0  0
 17 15  1  0  0  0  0
 18 19  1  0  0  0  0
 18 12  1  0  0  0  0
 18  4  1  0  0  0  0
 20 18  1  0  0  0  0
 21 24  1  0  0  0  0
 21 31  1  0  0  0  0
 22 21  1  0  0  0  0
 23 21  1  0  0  0  0
 24 29  1  0  0  0  0
 24 26  1  0  0  0  0
 25 24  1  0  0  0  0
 27  4  1  0  0  0  0
 27 28  1  1  0  0  0
 29 30  1  6  0  0  0
 29  8  1  0  0  0  0
 29 27  1  0  0  0  0
 31 15  1  0  0  0  0
 31 33  1  0  0  0  0
 32 31  1  0  0  0  0
 34 36  1  0  0  0  0
 34 35  1  0  0  0  0
 37 34  1  0  0  0  0
 37 38  1  0  0  0  0
 39 37  1  0  0  0  0
M  END
$$$$
