CSD_code = RINXET | q = 0 | S = 0 | Stoichiometry = C10H22Cl2HgN2O2 | MND = 5
 OpenBabel04212202093D

 39 38  0  0  1  0  0  0  0  0999 V2000
    1.0469    1.1236    6.0887 Hg  0  0  0  0  0  0  0  0  0  0  0  0
    3.2618    1.2661    5.5251 Cl  0  0  0  0  0  0  0  0  0  0  0  0
   -1.1165    0.2866    6.0577 Cl  0  0  0  0  0  0  0  0  0  0  0  0
   -0.2364    2.9804    4.6442 O   0  0  0  0  0  0  0  0  0  0  0  0
   -1.0646    2.4729    4.6395 H   0  0  0  0  0  0  0  0  0  0  0  0
    1.5453    0.8100    8.5872 N   0  0  0  0  0  0  0  0  0  0  0  0
    0.7407    0.3148    8.9791 H   0  0  0  0  0  0  0  0  0  0  0  0
    1.4386   -2.0035    9.3815 O   0  0  0  0  0  0  0  0  0  0  0  0
    1.8113   -2.1046   10.2652 H   0  0  0  0  0  0  0  0  0  0  0  0
   -0.6522    4.0226    6.8265 C   0  0  1  0  0  0  0  0  0  0  0  0
   -1.5079    3.3591    7.0032 H   0  0  0  0  0  0  0  0  0  0  0  0
    0.5307    3.3395    7.3614 N   0  0  0  0  0  0  0  0  0  0  0  0
    1.3424    3.9387    7.2083 H   0  0  0  0  0  0  0  0  0  0  0  0
   -0.9100    5.3893    7.4757 C   0  0  0  0  0  0  0  0  0  0  0  0
   -1.0676    5.2666    8.5483 H   0  0  0  0  0  0  0  0  0  0  0  0
   -0.0307    6.0232    7.3309 H   0  0  0  0  0  0  0  0  0  0  0  0
    2.7267   -0.0096    8.8571 C   0  0  0  0  0  0  0  0  0  0  0  0
    3.0175    0.0657    9.9182 H   0  0  0  0  0  0  0  0  0  0  0  0
    3.5530    0.3463    8.2378 H   0  0  0  0  0  0  0  0  0  0  0  0
    1.6321    2.1313    9.1984 C   0  0  0  0  0  0  0  0  0  0  0  0
    2.5661    2.5911    8.8602 H   0  0  0  0  0  0  0  0  0  0  0  0
    1.6585    2.0640   10.2972 H   0  0  0  0  0  0  0  0  0  0  0  0
    0.4561    3.0128    8.7833 C   0  0  0  0  0  0  0  0  0  0  0  0
   -0.4806    2.4739    8.9528 H   0  0  0  0  0  0  0  0  0  0  0  0
    0.4632    3.9127    9.4137 H   0  0  0  0  0  0  0  0  0  0  0  0
    2.4181   -1.4692    8.5243 C   0  0  0  0  0  0  0  0  0  0  0  0
    1.9972   -1.5303    7.5144 H   0  0  0  0  0  0  0  0  0  0  0  0
    3.3407   -2.0614    8.5553 H   0  0  0  0  0  0  0  0  0  0  0  0
   -0.4819    4.2051    5.3045 C   0  0  2  0  0  0  0  0  0  0  0  0
    0.4156    4.8087    5.1195 H   0  0  0  0  0  0  0  0  0  0  0  0
   -2.1334    6.0694    6.8682 C   0  0  0  0  0  0  0  0  0  0  0  0
   -3.0177    5.4579    7.0592 H   0  0  0  0  0  0  0  0  0  0  0  0
   -2.2868    7.0385    7.3458 H   0  0  0  0  0  0  0  0  0  0  0  0
   -1.7096    4.8960    4.7085 C   0  0  0  0  0  0  0  0  0  0  0  0
   -2.5806    4.2521    4.8588 H   0  0  0  0  0  0  0  0  0  0  0  0
   -1.5580    5.0145    3.6343 H   0  0  0  0  0  0  0  0  0  0  0  0
   -1.9551    6.2486    5.3657 C   0  0  0  0  0  0  0  0  0  0  0  0
   -1.1063    6.9080    5.1730 H   0  0  0  0  0  0  0  0  0  0  0  0
   -2.8442    6.7115    4.9354 H   0  0  0  0  0  0  0  0  0  0  0  0
  2  1  1  0  0  0  0
  3  1  1  0  0  0  0
  4 29  1  0  0  0  0
  5  4  1  0  0  0  0
  6 17  1  0  0  0  0
  6  7  1  0  0  0  0
  6 20  1  0  0  0  0
  8  9  1  0  0  0  0
 10 11  1  1  0  0  0
 10 12  1  0  0  0  0
 10 14  1  0  0  0  0
 12 23  1  0  0  0  0
 13 12  1  0  0  0  0
 14 15  1  0  0  0  0
 16 14  1  0  0  0  0
 17 18  1  0  0  0  0
 19 17  1  0  0  0  0
 20 22  1  0  0  0  0
 21 20  1  0  0  0  0
 23 24  1  0  0  0  0
 23 20  1  0  0  0  0
 23 25  1  0  0  0  0
 26 28  1  0  0  0  0
 26 17  1  0  0  0  0
 26  8  1  0  0  0  0
 27 26  1  0  0  0  0
 29 30  1  6  0  0  0
 29 10  1  0  0  0  0
 31 32  1  0  0  0  0
 31 33  1  0  0  0  0
 31 14  1  0  0  0  0
 34 35  1  0  0  0  0
 34 29  1  0  0  0  0
 34 37  1  0  0  0  0
 36 34  1  0  0  0  0
 37 31  1  0  0  0  0
 38 37  1  0  0  0  0
 39 37  1  0  0  0  0
M  END
$$$$
