CSD_code = RIPHUT | q = 0 | S = 0 | Stoichiometry = C13H12Cl3N2ORe | MND = 6
 OpenBabel04212202093D

 32 34  0  0  0  0  0  0  0  0999 V2000
    1.5105    2.0063    3.2422 Re  0  0  0  0  0  0  0  0  0  0  0  0
   -0.1218    0.7630    2.3271 Cl  0  0  0  0  0  0  0  0  0  0  0  0
    0.5688    3.8425    2.1462 Cl  0  0  0  0  0  0  0  0  0  0  0  0
    2.7194    0.0302    3.4895 Cl  0  0  0  0  0  0  0  0  0  0  0  0
    0.9752    2.2570    4.7927 O   0  0  0  0  0  1  0  0  0  0  0  0
    2.6050    1.9652    1.2910 N   0  0  0  0  0  0  0  0  0  0  0  0
    3.2273    3.1409    3.5179 N   0  0  0  0  0  0  0  0  0  0  0  0
    3.7179    2.7278    1.2693 C   0  0  0  0  0  0  0  0  0  0  0  0
    4.5000    2.8593    0.1184 C   0  0  0  0  0  0  0  0  0  0  0  0
    4.1190    2.1880   -1.0251 C   0  0  0  0  0  0  0  0  0  0  0  0
    2.9725    1.4027   -0.9891 C   0  0  0  0  0  0  0  0  0  0  0  0
    2.2478    1.3205    0.1875 C   0  0  0  0  0  0  0  0  0  0  0  0
    4.0178    3.3653    2.5159 C   0  0  0  0  0  0  0  0  0  0  0  0
    3.4875    3.7686    4.7444 C   0  0  0  0  0  0  0  0  0  0  0  0
    3.4013    3.0357    5.9285 C   0  0  0  0  0  0  0  0  0  0  0  0
    3.6564    3.6506    7.1353 C   0  0  0  0  0  0  0  0  0  0  0  0
    3.9806    5.0044    7.2011 C   0  0  0  0  0  0  0  0  0  0  0  0
    4.0520    5.7271    6.0164 C   0  0  0  0  0  0  0  0  0  0  0  0
    3.8195    5.1211    4.7969 C   0  0  0  0  0  0  0  0  0  0  0  0
    4.2419    5.6523    8.5231 C   0  0  0  0  0  0  0  0  0  0  0  0
    5.3813    3.4801    0.1429 H   0  0  0  0  0  0  0  0  0  0  0  0
    4.7006    2.2709   -1.9305 H   0  0  0  0  0  0  0  0  0  0  0  0
    2.6408    0.8609   -1.8594 H   0  0  0  0  0  0  0  0  0  0  0  0
    1.3480    0.7225    0.2555 H   0  0  0  0  0  0  0  0  0  0  0  0
    4.8971    3.9915    2.6135 H   0  0  0  0  0  0  0  0  0  0  0  0
    3.1489    1.9862    5.8838 H   0  0  0  0  0  0  0  0  0  0  0  0
    3.5956    3.0757    8.0471 H   0  0  0  0  0  0  0  0  0  0  0  0
    4.2833    6.7816    6.0460 H   0  0  0  0  0  0  0  0  0  0  0  0
    3.8391    5.7035    3.8877 H   0  0  0  0  0  0  0  0  0  0  0  0
    4.3324    6.7303    8.4214 H   0  0  0  0  0  0  0  0  0  0  0  0
    3.4364    5.4301    9.2202 H   0  0  0  0  0  0  0  0  0  0  0  0
    5.1661    5.2659    8.9523 H   0  0  0  0  0  0  0  0  0  0  0  0
  1  4  1  0  0  0  0
  1  7  1  0  0  0  0
  1  5  1  0  0  0  0
  2  1  1  0  0  0  0
  3  1  1  0  0  0  0
  6  1  1  0  0  0  0
  7 14  1  0  0  0  0
  8  6  1  0  0  0  0
  8 13  2  0  0  0  0
  9 21  1  0  0  0  0
  9  8  1  0  0  0  0
 10 11  1  0  0  0  0
 10  9  2  0  0  0  0
 11 12  2  0  0  0  0
 12 24  1  0  0  0  0
 12  6  1  0  0  0  0
 13 25  1  0  0  0  0
 13  7  1  0  0  0  0
 14 19  2  0  0  0  0
 14 15  1  0  0  0  0
 15 16  2  0  0  0  0
 16 17  1  0  0  0  0
 16 27  1  0  0  0  0
 17 20  1  0  0  0  0
 18 28  1  0  0  0  0
 18 17  2  0  0  0  0
 19 18  1  0  0  0  0
 20 32  1  0  0  0  0
 20 31  1  0  0  0  0
 22 10  1  0  0  0  0
 23 11  1  0  0  0  0
 26 15  1  0  0  0  0
 29 19  1  0  0  0  0
 30 20  1  0  0  0  0
M  END
$$$$
