CSD_code = RIPJIJ | q = 0 | S = 0 | Stoichiometry = C16H16CdCl2I2N6S2 | MND = 4
 OpenBabel04212202093D

 45 45  0  0  0  0  0  0  0  0999 V2000
    4.2078    6.9395    2.8786 Cd  0  0  0  0  0  0  0  0  0  0  0  0
    3.1031    9.3790    3.3073 I   0  0  0  0  0  0  0  0  0  0  0  0
    5.3596    4.8786    4.1911 I   0  0  0  0  0  0  0  0  0  0  0  0
    2.6405    5.7848    0.6532 S   0  0  0  0  0  0  0  0  0  0  0  0
    6.1059    7.3806    0.7257 S   0  0  0  0  0  0  0  0  0  0  0  0
    3.6711   13.1990    0.0323 Cl  0  0  0  0  0  0  0  0  0  0  0  0
    3.2455    0.4730    0.4086 Cl  0  0  0  0  0  0  0  0  0  0  0  0
    2.3725    6.6166   -1.8202 N   0  0  0  0  0  0  0  0  0  0  0  0
    2.8439    8.2435   -0.2795 N   0  0  0  0  0  0  0  0  0  0  0  0
    2.8420    9.1603   -1.2671 N   0  0  0  0  0  0  0  0  0  0  0  0
    8.0071    5.5545    0.6371 N   0  0  0  0  0  4  0  0  0  0  0  0
    5.8523    4.7729    0.6004 N   0  0  0  0  0  0  0  0  0  0  0  0
    6.3075    3.5083    0.6257 N   0  0  0  0  0  0  0  0  0  0  0  0
    2.6188    6.9501   -0.5506 C   0  0  0  0  0  0  0  0  0  0  0  0
    3.0870   10.3750   -0.9572 C   0  0  0  0  0  0  0  0  0  0  0  0
    3.3638   12.7513   -1.6072 C   0  0  0  0  0  0  0  0  0  0  0  0
    3.3790   13.7444   -2.5741 C   0  0  0  0  0  0  0  0  0  0  0  0
    3.1365   13.4274   -3.8983 C   0  0  0  0  0  0  0  0  0  0  0  0
    2.8775   12.1137   -4.2627 C   0  0  0  0  0  0  0  0  0  0  0  0
    2.8624   11.1260   -3.3021 C   0  0  0  0  0  0  0  0  0  0  0  0
    3.1042   11.4183   -1.9550 C   0  0  0  0  0  0  0  0  0  0  0  0
    6.6986    5.8170    0.6699 C   0  0  0  0  0  0  0  0  0  0  0  0
    5.4517    2.5626    0.6632 C   0  0  0  0  0  0  0  0  0  0  0  0
    4.9264    0.1386    0.6278 C   0  0  0  0  0  0  0  0  0  0  0  0
    5.3258   -1.1855    0.7020 C   0  0  0  0  0  0  0  0  0  0  0  0
    6.6640   -1.4945    0.8674 C   0  0  0  0  0  0  0  0  0  0  0  0
    7.6057   -0.4796    0.9572 C   0  0  0  0  0  0  0  0  0  0  0  0
    7.2062    0.8373    0.8840 C   0  0  0  0  0  0  0  0  0  0  0  0
    5.8596    1.1788    0.7185 C   0  0  0  0  0  0  0  0  0  0  0  0
    2.1575    5.6649   -2.0575 H   0  0  0  0  0  0  0  0  0  0  0  0
    2.3332    7.3538   -2.5068 H   0  0  0  0  0  0  0  0  0  0  0  0
    3.0263    8.5365    0.6886 H   0  0  0  0  0  0  0  0  0  0  0  0
    8.6657    6.2983    0.7883 H   0  0  0  0  0  0  0  0  0  0  0  0
    8.2948    4.5892    0.6958 H   0  0  0  0  0  0  0  0  0  0  0  0
    4.8385    4.9585    0.6089 H   0  0  0  0  0  0  0  0  0  0  0  0
    3.2905   10.6651    0.0743 H   0  0  0  0  0  0  0  0  0  0  0  0
    3.5811   14.7631   -2.2827 H   0  0  0  0  0  0  0  0  0  0  0  0
    3.1502   14.2063   -4.6451 H   0  0  0  0  0  0  0  0  0  0  0  0
    2.6884   11.8664   -5.2961 H   0  0  0  0  0  0  0  0  0  0  0  0
    2.6642   10.0998   -3.5672 H   0  0  0  0  0  0  0  0  0  0  0  0
    4.3798    2.7739    0.6621 H   0  0  0  0  0  0  0  0  0  0  0  0
    4.5868   -1.9685    0.6312 H   0  0  0  0  0  0  0  0  0  0  0  0
    6.9691   -2.5278    0.9281 H   0  0  0  0  0  0  0  0  0  0  0  0
    8.6493   -0.7210    1.0896 H   0  0  0  0  0  0  0  0  0  0  0  0
    7.9222    1.6392    0.9639 H   0  0  0  0  0  0  0  0  0  0  0  0
  1  2  1  0  0  0  0
  1  3  1  0  0  0  0
  5  1  1  0  0  0  0
  7 24  1  0  0  0  0
  8 14  1  0  0  0  0
  9 32  1  0  0  0  0
 10 15  2  0  0  0  0
 10  9  1  0  0  0  0
 11 22  2  0  0  0  0
 11 34  1  0  0  0  0
 11 33  1  0  0  0  0
 12 35  1  0  0  0  0
 12 13  1  0  0  0  0
 12 22  1  0  0  0  0
 13 23  2  0  0  0  0
 14  9  1  0  0  0  0
 14  4  2  0  0  0  0
 15 36  1  0  0  0  0
 16  6  1  0  0  0  0
 17 37  1  0  0  0  0
 17 16  2  0  0  0  0
 18 17  1  0  0  0  0
 19 18  2  0  0  0  0
 19 20  1  0  0  0  0
 20 21  2  0  0  0  0
 21 16  1  0  0  0  0
 21 15  1  0  0  0  0
 22  5  1  0  0  0  0
 23 29  1  0  0  0  0
 24 25  2  0  0  0  0
 24 29  1  0  0  0  0
 25 26  1  0  0  0  0
 26 43  1  0  0  0  0
 26 27  2  0  0  0  0
 27 44  1  0  0  0  0
 28 27  1  0  0  0  0
 28 45  1  0  0  0  0
 29 28  2  0  0  0  0
 30  8  1  0  0  0  0
 31  8  1  0  0  0  0
 38 18  1  0  0  0  0
 39 19  1  0  0  0  0
 40 20  1  0  0  0  0
 41 23  1  0  0  0  0
 42 25  1  0  0  0  0
M  END
$$$$
