CSD_code = RIPJEF | q = 0 | S = 0 | Stoichiometry = C16H16Br2CdCl2N6S2 | MND = 4
 OpenBabel04212202093D

 45 46  0  0  0  0  0  0  0  0999 V2000
    3.3979    2.0385   10.5519 Cd  0  0  0  0  0  0  0  0  0  0  0  0
    3.4608    1.6064   13.0467 Br  0  0  0  0  0  0  0  0  0  0  0  0
    3.2269    0.2868    8.7295 Br  0  0  0  0  0  0  0  0  0  0  0  0
    5.2353    3.9322    9.5711 S   0  0  0  0  0  0  0  0  0  0  0  0
    1.4224    4.0742   10.1847 S   0  0  0  0  0  0  0  0  0  0  0  0
    6.7168    8.9669    4.2648 Cl  0  0  0  0  0  0  0  0  0  0  0  0
    3.6613    3.9467   17.3815 Cl  0  0  0  0  0  0  0  0  0  0  0  0
    4.2538    3.1343    7.2143 N   0  0  0  0  0  4  0  0  0  0  0  0
    5.3330    5.1550    7.2967 N   0  0  0  0  0  0  0  0  0  0  0  0
    5.1360    5.3229    5.9832 N   0  0  0  0  0  0  0  0  0  0  0  0
    0.5940    6.1507   11.5455 N   0  0  0  0  0  4  0  0  0  0  0  0
    1.8416    4.6464   12.7363 N   0  0  0  0  0  0  0  0  0  0  0  0
    1.6864    5.4222   13.8294 N   0  0  0  0  0  0  0  0  0  0  0  0
    4.8948    4.0406    7.9347 C   0  0  0  0  0  0  0  0  0  0  0  0
    5.5696    6.3806    5.4157 C   0  0  0  0  0  0  0  0  0  0  0  0
    5.8652    7.7558    3.3700 C   0  0  0  0  0  0  0  0  0  0  0  0
    5.6793    7.9588    2.0129 C   0  0  0  0  0  0  0  0  0  0  0  0
    5.0037    7.0150    1.2599 C   0  0  0  0  0  0  0  0  0  0  0  0
    4.5134    5.8664    1.8642 C   0  0  0  0  0  0  0  0  0  0  0  0
    4.7002    5.6663    3.2149 C   0  0  0  0  0  0  0  0  0  0  0  0
    5.3797    6.6037    4.0011 C   0  0  0  0  0  0  0  0  0  0  0  0
    1.2828    5.0044   11.5690 C   0  0  0  0  0  0  0  0  0  0  0  0
    2.2204    5.0289   14.9220 C   0  0  0  0  0  0  0  0  0  0  0  0
    2.7144    5.3901   17.3258 C   0  0  0  0  0  0  0  0  0  0  0  0
    2.5827    6.1359   18.4868 C   0  0  0  0  0  0  0  0  0  0  0  0
    1.8343    7.2990   18.4835 C   0  0  0  0  0  0  0  0  0  0  0  0
    1.2147    7.7231   17.3165 C   0  0  0  0  0  0  0  0  0  0  0  0
    1.3461    6.9824   16.1621 C   0  0  0  0  0  0  0  0  0  0  0  0
    2.0956    5.8007   16.1368 C   0  0  0  0  0  0  0  0  0  0  0  0
    3.9440    2.2453    7.6023 H   0  0  0  0  0  0  0  0  0  0  0  0
    4.1288    3.3201    6.2304 H   0  0  0  0  0  0  0  0  0  0  0  0
    5.8254    5.8548    7.8549 H   0  0  0  0  0  0  0  0  0  0  0  0
    0.1384    6.4419   10.6999 H   0  0  0  0  0  0  0  0  0  0  0  0
    0.5008    6.6676   12.4058 H   0  0  0  0  0  0  0  0  0  0  0  0
    2.3580    3.7596   12.8150 H   0  0  0  0  0  0  0  0  0  0  0  0
    6.0995    7.1504    5.9816 H   0  0  0  0  0  0  0  0  0  0  0  0
    6.0645    8.8550    1.5517 H   0  0  0  0  0  0  0  0  0  0  0  0
    4.8619    7.1781    0.2028 H   0  0  0  0  0  0  0  0  0  0  0  0
    3.9865    5.1297    1.2777 H   0  0  0  0  0  0  0  0  0  0  0  0
    4.3258    4.7794    3.6999 H   0  0  0  0  0  0  0  0  0  0  0  0
    2.7832    4.0965   14.9714 H   0  0  0  0  0  0  0  0  0  0  0  0
    3.0684    5.7993   19.3891 H   0  0  0  0  0  0  0  0  0  0  0  0
    1.7353    7.8733   19.3919 H   0  0  0  0  0  0  0  0  0  0  0  0
    0.6304    8.6306   17.3137 H   0  0  0  0  0  0  0  0  0  0  0  0
    0.8702    7.2963   15.2468 H   0  0  0  0  0  0  0  0  0  0  0  0
  1  2  1  0  0  0  0
  3  1  1  0  0  0  0
  4  1  1  0  0  0  0
  5  1  1  0  0  0  0
  5 22  1  0  0  0  0
  8 30  1  0  0  0  0
  8 14  2  0  0  0  0
  9 32  1  0  0  0  0
  9 14  1  0  0  0  0
 10  9  1  0  0  0  0
 11 22  2  0  0  0  0
 11 34  1  0  0  0  0
 12 35  1  0  0  0  0
 12 13  1  0  0  0  0
 13 23  2  0  0  0  0
 14  4  1  0  0  0  0
 15 36  1  0  0  0  0
 15 10  2  0  0  0  0
 16 21  1  0  0  0  0
 16  6  1  0  0  0  0
 17 16  2  0  0  0  0
 18 19  2  0  0  0  0
 18 17  1  0  0  0  0
 19 20  1  0  0  0  0
 20 40  1  0  0  0  0
 20 21  2  0  0  0  0
 21 15  1  0  0  0  0
 22 12  1  0  0  0  0
 23 41  1  0  0  0  0
 23 29  1  0  0  0  0
 24  7  1  0  0  0  0
 24 25  1  0  0  0  0
 25 42  1  0  0  0  0
 26 25  2  0  0  0  0
 26 43  1  0  0  0  0
 27 26  1  0  0  0  0
 28 27  2  0  0  0  0
 29 28  1  0  0  0  0
 29 24  2  0  0  0  0
 31  8  1  0  0  0  0
 33 11  1  0  0  0  0
 37 17  1  0  0  0  0
 38 18  1  0  0  0  0
 39 19  1  0  0  0  0
 44 27  1  0  0  0  0
 45 28  1  0  0  0  0
M  END
$$$$
