CSD_code = RIPLEI | q = 0 | S = 0 | Stoichiometry = C15H18Cl2N2Pd | MND = 4
 OpenBabel04212202093D

 38 41  0  0  1  0  0  0  0  0999 V2000
   12.2897   14.4796    3.1083 Pd  0  0  0  0  0  0  0  0  0  0  0  0
   10.9097   13.1077    4.2160 Cl  0  0  0  0  0  0  0  0  0  0  0  0
   12.8525   15.3049    5.1028 Cl  0  0  0  0  0  0  0  0  0  0  0  0
   11.6705   13.8759    1.3229 N   0  0  0  0  0  0  0  0  0  0  0  0
   13.6074   15.7635    1.8780 N   0  0  0  0  0  4  0  0  0  0  0  0
   10.7701   12.9419    1.0917 C   0  0  0  0  0  0  0  0  0  0  0  0
   10.4222   12.3892    1.9571 H   0  0  0  0  0  0  0  0  0  0  0  0
   10.2652   12.6656   -0.1844 C   0  0  0  0  0  0  0  0  0  0  0  0
    9.5219   11.8933   -0.2987 H   0  0  0  0  0  0  0  0  0  0  0  0
   10.7274   13.3777   -1.2577 C   0  0  0  0  0  0  0  0  0  0  0  0
   10.3670   13.1933   -2.2586 H   0  0  0  0  0  0  0  0  0  0  0  0
   11.7112   14.3676   -1.0505 C   0  0  0  0  0  0  0  0  0  0  0  0
   12.2744   15.1050   -2.1086 C   0  0  0  0  0  3  0  0  0  0  0  0
   11.9190   14.9289   -3.1123 H   0  0  0  0  0  0  0  0  0  0  0  0
   13.2732   16.0046   -1.8612 C   0  0  0  0  0  0  0  0  0  0  0  0
   13.7257   16.5550   -2.6719 H   0  0  0  0  0  0  0  0  0  0  0  0
   13.7291   16.2231   -0.5564 C   0  0  0  0  0  0  0  0  0  0  0  0
   14.5417   16.9154   -0.4126 H   0  0  0  0  0  0  0  0  0  0  0  0
   13.1676   15.5688    0.5190 C   0  0  0  0  0  0  0  0  0  0  0  0
   12.1598   14.6015    0.2780 C   0  0  0  0  0  0  0  0  0  0  0  0
   15.4486   14.6891    3.1222 C   0  0  0  0  0  0  0  0  0  0  0  0
   14.9015   13.7390    3.0141 H   0  0  0  0  0  0  0  0  0  0  0  0
   15.1874   15.1318    4.0827 H   0  0  0  0  0  0  0  0  0  0  0  0
   16.5155   14.4773    3.1057 H   0  0  0  0  0  0  0  0  0  0  0  0
   15.0835   15.6329    1.9804 C   0  0  2  0  0  0  0  0  0  0  0  0
   15.4512   15.1926    1.0462 H   0  0  0  0  0  0  0  0  0  0  0  0
   15.6484   17.0606    2.1712 C   0  0  0  0  0  0  0  0  0  0  0  0
   16.4354   17.2779    1.4503 H   0  0  0  0  0  0  0  0  0  0  0  0
   16.0718   17.1498    3.1705 H   0  0  0  0  0  0  0  0  0  0  0  0
   14.4515   18.0069    2.0322 C   0  0  0  0  0  0  0  0  0  0  0  0
   14.5337   18.8650    2.6963 H   0  0  0  0  0  0  0  0  0  0  0  0
   14.3311   18.3842    1.0163 H   0  0  0  0  0  0  0  0  0  0  0  0
   13.2894   17.1063    2.4432 C   0  0  1  0  0  0  0  0  0  0  0  0
   13.3420   16.9872    3.5347 H   0  0  0  0  0  0  0  0  0  0  0  0
   11.8867   17.5654    2.0788 C   0  0  0  0  0  0  0  0  0  0  0  0
   11.1563   16.8186    2.4329 H   0  0  0  0  0  0  0  0  0  0  0  0
   11.7665   17.7052    1.0049 H   0  0  0  0  0  0  0  0  0  0  0  0
   11.6737   18.5066    2.5791 H   0  0  0  0  0  0  0  0  0  0  0  0
  1  2  1  0  0  0  0
  1  3  1  0  0  0  0
  4  1  1  0  0  0  0
  5 25  1  0  0  0  0
  5 33  1  0  0  0  0
  5  1  1  0  0  0  0
  6  4  1  0  0  0  0
  6  7  1  0  0  0  0
  8  6  2  0  0  0  0
  9  8  1  0  0  0  0
 10 12  2  0  0  0  0
 10  8  1  0  0  0  0
 11 10  1  0  0  0  0
 12 20  1  0  0  0  0
 13 15  1  0  0  0  0
 13 12  1  0  0  0  0
 14 13  1  0  0  0  0
 15 17  2  0  0  0  0
 16 15  1  0  0  0  0
 17 18  1  0  0  0  0
 17 19  1  0  0  0  0
 19  5  1  0  0  0  0
 20 19  2  0  0  0  0
 20  4  1  0  0  0  0
 21 23  1  0  0  0  0
 22 21  1  0  0  0  0
 24 21  1  0  0  0  0
 25 26  1  6  0  0  0
 25 27  1  0  0  0  0
 25 21  1  0  0  0  0
 27 29  1  0  0  0  0
 28 27  1  0  0  0  0
 30 27  1  0  0  0  0
 30 33  1  0  0  0  0
 30 31  1  0  0  0  0
 32 30  1  0  0  0  0
 33 34  1  1  0  0  0
 35 36  1  0  0  0  0
 35 33  1  0  0  0  0
 35 38  1  0  0  0  0
 37 35  1  0  0  0  0
M  END
$$$$
