CSD_code = RIPPOW | q = 0 | S = 0 | Stoichiometry = C24H30HgI2N4O2 | MND = 4
 OpenBabel04212202093D

 63 67  0  0  1  0  0  0  0  0999 V2000
    1.5846    3.0828    4.2285 Hg  0  0  0  0  0  0  0  0  0  0  0  0
    3.1694    3.7297    2.1470 I   0  0  0  0  0  0  0  0  0  0  0  0
   -0.1369    4.8660    5.3022 I   0  0  0  0  0  0  0  0  0  0  0  0
    2.6855    0.0281    4.0060 O   0  0  0  0  0  0  0  0  0  0  0  0
    5.2321    0.8483    5.3366 O   0  0  0  0  0  0  0  0  0  0  0  0
   -0.5953    2.0976    1.8554 N   0  0  0  0  0  0  0  0  0  0  0  0
   -0.1497    0.3872    3.1058 N   0  0  0  0  0  0  0  0  0  0  0  0
    4.0286    3.0758    6.6248 N   0  0  0  0  0  0  0  0  0  0  0  0
    2.1367    2.4323    7.4570 N   0  0  0  0  0  0  0  0  0  0  0  0
   -2.1595    3.9771    1.7341 C   0  0  0  0  0  0  0  0  0  0  0  0
   -2.9303    3.3456    1.2967 H   0  0  0  0  0  0  0  0  0  0  0  0
   -2.2728    4.9873    1.3519 H   0  0  0  0  0  0  0  0  0  0  0  0
   -2.2970    4.0031    2.8125 H   0  0  0  0  0  0  0  0  0  0  0  0
   -0.7671    3.4562    1.3947 C   0  0  0  0  0  0  0  0  0  0  0  0
   -0.5944    3.4791    0.3151 H   0  0  0  0  0  0  0  0  0  0  0  0
   -0.0171    4.0890    1.8764 H   0  0  0  0  0  0  0  0  0  0  0  0
   -1.1359    1.0059    1.2160 C   0  0  0  0  0  0  0  0  0  0  0  0
   -1.8367    0.8646    0.0265 C   0  0  0  0  0  0  0  0  0  0  0  0
   -2.0637    1.7118   -0.6007 H   0  0  0  0  0  0  0  0  0  0  0  0
   -2.2285   -0.4112   -0.3260 C   0  0  0  0  0  0  0  0  0  0  0  0
   -2.7742   -0.5617   -1.2448 H   0  0  0  0  0  0  0  0  0  0  0  0
   -1.9358   -1.5150    0.4752 C   0  0  0  0  0  0  0  0  0  0  0  0
   -2.2616   -2.4941    0.1590 H   0  0  0  0  0  0  0  0  0  0  0  0
   -1.2368   -1.3853    1.6590 C   0  0  0  0  0  0  0  0  0  0  0  0
   -1.0077   -2.2448    2.2702 H   0  0  0  0  0  0  0  0  0  0  0  0
   -0.8396   -0.1063    2.0210 C   0  0  0  0  0  0  0  0  0  0  0  0
    0.0093    1.7265    2.9996 C   0  0  1  0  0  3  0  0  0  0  0  0
    0.3410   -0.4174    4.1891 C   0  0  0  0  0  0  0  0  0  0  0  0
   -0.3639   -1.2326    4.3716 H   0  0  0  0  0  0  0  0  0  0  0  0
    0.4084    0.2066    5.0823 H   0  0  0  0  0  0  0  0  0  0  0  0
    1.7270   -0.9937    3.9007 C   0  0  0  0  0  0  0  0  0  0  0  0
    1.9471   -1.7930    4.6271 H   0  0  0  0  0  0  0  0  0  0  0  0
    1.7496   -1.4340    2.8902 H   0  0  0  0  0  0  0  0  0  0  0  0
    3.9916   -0.4473    3.7577 C   0  0  0  0  0  0  0  0  0  0  0  0
    4.0585   -0.8211    2.7250 H   0  0  0  0  0  0  0  0  0  0  0  0
    4.2227   -1.2709    4.4490 H   0  0  0  0  0  0  0  0  0  0  0  0
    5.0088    0.6647    3.9530 C   0  0  0  0  0  0  0  0  0  0  0  0
    5.9511    0.3820    3.4600 H   0  0  0  0  0  0  0  0  0  0  0  0
    4.6301    1.5747    3.4826 H   0  0  0  0  0  0  0  0  0  0  0  0
    5.9805    1.9944    5.6563 C   0  0  0  0  0  0  0  0  0  0  0  0
    6.8049    2.1401    4.9458 H   0  0  0  0  0  0  0  0  0  0  0  0
    6.3949    1.7984    6.6503 H   0  0  0  0  0  0  0  0  0  0  0  0
    5.1182    3.2710    5.7070 C   0  0  0  0  0  0  0  0  0  0  0  0
    5.7306    4.1141    6.0357 H   0  0  0  0  0  0  0  0  0  0  0  0
    4.7173    3.4985    4.7186 H   0  0  0  0  0  0  0  0  0  0  0  0
    4.1857    3.1003    7.9921 C   0  0  0  0  0  0  0  0  0  0  0  0
    5.2487    3.4539    8.8111 C   0  0  0  0  0  0  0  0  0  0  0  0
    6.1953    3.7762    8.4062 H   0  0  0  0  0  0  0  0  0  0  0  0
    5.0422    3.3856   10.1744 C   0  0  0  0  0  0  0  0  0  0  0  0
    5.8448    3.6534   10.8444 H   0  0  0  0  0  0  0  0  0  0  0  0
    3.8178    2.9857   10.7101 C   0  0  0  0  0  0  0  0  0  0  0  0
    3.7000    2.9553   11.7824 H   0  0  0  0  0  0  0  0  0  0  0  0
    2.7548    2.6341    9.9029 C   0  0  0  0  0  0  0  0  0  0  0  0
    1.8072    2.3397   10.3257 H   0  0  0  0  0  0  0  0  0  0  0  0
    2.9566    2.6917    8.5310 C   0  0  0  0  0  0  0  0  0  0  0  0
    2.7846    2.6652    6.2943 C   0  0  1  0  0  3  0  0  0  0  0  0
    0.8148    1.8786    7.6003 C   0  0  0  0  0  0  0  0  0  0  0  0
    0.2782    2.0031    6.6564 H   0  0  0  0  0  0  0  0  0  0  0  0
    0.2783    2.4430    8.3685 H   0  0  0  0  0  0  0  0  0  0  0  0
    0.8874    0.3993    7.9700 C   0  0  0  0  0  0  0  0  0  0  0  0
    1.4665   -0.1447    7.2262 H   0  0  0  0  0  0  0  0  0  0  0  0
   -0.1133   -0.0218    8.0169 H   0  0  0  0  0  0  0  0  0  0  0  0
    1.3667    0.2670    8.9370 H   0  0  0  0  0  0  0  0  0  0  0  0
  1  3  1  0  0  0  0
  1 56  1  0  0  0  0
  2  1  1  0  0  0  0
  5 40  1  0  0  0  0
  7 28  1  0  0  0  0
  8 46  1  0  0  0  0
  9 57  1  0  0  0  0
  9 55  1  0  0  0  0
 10 13  1  0  0  0  0
 11 10  1  0  0  0  0
 12 10  1  0  0  0  0
 14 10  1  0  0  0  0
 14  6  1  0  0  0  0
 14 16  1  0  0  0  0
 15 14  1  0  0  0  0
 17  6  1  0  0  0  0
 17 26  1  0  0  0  0
 18 17  2  0  0  0  0
 19 18  1  0  0  0  0
 20 18  1  0  0  0  0
 20 22  2  0  0  0  0
 21 20  1  0  0  0  0
 22 24  1  0  0  0  0
 23 22  1  0  0  0  0
 24 26  2  0  0  0  0
 24 25  1  0  0  0  0
 26  7  1  0  0  0  0
 27  6  1  6  0  0  0
 27  7  1  0  0  0  0
 27  1  1  0  0  0  0
 28 29  1  0  0  0  0
 28 30  1  0  0  0  0
 31  4  1  0  0  0  0
 31 28  1  0  0  0  0
 31 32  1  0  0  0  0
 33 31  1  0  0  0  0
 34 37  1  0  0  0  0
 34  4  1  0  0  0  0
 34 36  1  0  0  0  0
 35 34  1  0  0  0  0
 37  5  1  0  0  0  0
 38 37  1  0  0  0  0
 39 37  1  0  0  0  0
 40 43  1  0  0  0  0
 40 42  1  0  0  0  0
 41 40  1  0  0  0  0
 43 44  1  0  0  0  0
 43  8  1  0  0  0  0
 45 43  1  0  0  0  0
 46 55  2  0  0  0  0
 46 47  1  0  0  0  0
 47 49  2  0  0  0  0
 48 47  1  0  0  0  0
 49 51  1  0  0  0  0
 49 50  1  0  0  0  0
 51 52  1  0  0  0  0
 53 54  1  0  0  0  0
 53 51  2  0  0  0  0
 55 53  1  0  0  0  0
 56  8  1  1  0  0  0
 56  9  1  0  0  0  0
 57 60  1  0  0  0  0
 57 59  1  0  0  0  0
 58 57  1  0  0  0  0
 60 62  1  0  0  0  0
 60 63  1  0  0  0  0
 61 60  1  0  0  0  0
M  END
$$$$
