CSD_code = RIPWAR | q = 0 | S = 0 | Stoichiometry = C11H20ClCuN2 | MND = 2
 OpenBabel04212202093D

 35 35  0  0  1  0  0  0  0  0999 V2000
   -2.4587    3.3838    7.8772 Cu  0  0  0  0  0  0  0  0  0  0  0  0
   -2.4587    1.2891    7.8772 Cl  0  0  0  0  0  0  0  0  0  0  0  0
   -2.4588    5.3166    7.8772 C   0  0  2  0  0  3  0  0  0  0  0  0
   -3.1831    6.1316    7.0765 N   0  0  0  0  0  0  0  0  0  0  0  0
   -2.9124    7.4371    7.3754 C   0  0  0  0  0  0  0  0  0  0  0  0
   -3.3599    8.2709    6.8803 H   0  0  0  0  0  0  0  0  0  0  0  0
   -3.3286    4.8401    5.0152 C   0  0  0  0  0  0  0  0  0  0  0  0
   -2.8842    3.9665    5.4897 H   0  0  0  0  0  0  0  0  0  0  0  0
   -2.5339    5.4387    4.5749 H   0  0  0  0  0  0  0  0  0  0  0  0
   -3.9924    4.5039    4.2242 H   0  0  0  0  0  0  0  0  0  0  0  0
   -4.7703    6.8501    5.3371 C   0  0  0  0  0  0  0  0  0  0  0  0
   -4.0321    7.4717    4.8354 H   0  0  0  0  0  0  0  0  0  0  0  0
   -5.3423    7.4569    6.0354 H   0  0  0  0  0  0  0  0  0  0  0  0
   -5.4561    6.4726    4.5835 H   0  0  0  0  0  0  0  0  0  0  0  0
   -5.1982    4.8095    6.7036 C   0  0  0  0  0  0  0  0  0  0  0  0
   -4.7569    3.9338    7.1773 H   0  0  0  0  0  0  0  0  0  0  0  0
   -5.9126    4.4749    5.9572 H   0  0  0  0  0  0  0  0  0  0  0  0
   -5.7263    5.3851    7.4608 H   0  0  0  0  0  0  0  0  0  0  0  0
   -4.1125    5.6627    6.0418 C   0  0  0  0  0  0  0  0  0  0  0  0
   -1.7344    6.1316    8.6779 N   0  0  0  0  0  0  0  0  0  0  0  0
   -2.0051    7.4371    8.3791 C   0  0  0  0  0  0  0  0  0  0  0  0
   -1.5576    8.2709    8.8742 H   0  0  0  0  0  0  0  0  0  0  0  0
   -1.5889    4.8402   10.7392 C   0  0  0  0  0  0  0  0  0  0  0  0
   -2.0333    3.9665   10.2647 H   0  0  0  0  0  0  0  0  0  0  0  0
   -2.3836    5.4387   11.1795 H   0  0  0  0  0  0  0  0  0  0  0  0
   -0.9252    4.5039   11.5303 H   0  0  0  0  0  0  0  0  0  0  0  0
   -0.1472    6.8501   10.4173 C   0  0  0  0  0  0  0  0  0  0  0  0
   -0.8854    7.4717   10.9190 H   0  0  0  0  0  0  0  0  0  0  0  0
    0.4248    7.4569    9.7190 H   0  0  0  0  0  0  0  0  0  0  0  0
    0.5386    6.4726   11.1709 H   0  0  0  0  0  0  0  0  0  0  0  0
    0.2807    4.8095    9.0508 C   0  0  0  0  0  0  0  0  0  0  0  0
   -0.1606    3.9338    8.5771 H   0  0  0  0  0  0  0  0  0  0  0  0
    0.9951    4.4749    9.7972 H   0  0  0  0  0  0  0  0  0  0  0  0
    0.8088    5.3851    8.2937 H   0  0  0  0  0  0  0  0  0  0  0  0
   -0.8050    5.6627    9.7126 C   0  0  0  0  0  0  0  0  0  0  0  0
  2  1  1  0  0  0  0
  3  1  1  6  0  0  0
  3 20  1  0  0  0  0
  4  5  1  0  0  0  0
  4  3  1  0  0  0  0
  5 21  2  0  0  0  0
  6  5  1  0  0  0  0
  7  8  1  0  0  0  0
  7 19  1  0  0  0  0
  9  7  1  0  0  0  0
 10  7  1  0  0  0  0
 11 13  1  0  0  0  0
 11 19  1  0  0  0  0
 12 11  1  0  0  0  0
 14 11  1  0  0  0  0
 15 16  1  0  0  0  0
 15 18  1  0  0  0  0
 17 15  1  0  0  0  0
 19 15  1  0  0  0  0
 19  4  1  0  0  0  0
 20 35  1  0  0  0  0
 21 20  1  0  0  0  0
 21 22  1  0  0  0  0
 23 25  1  0  0  0  0
 23 26  1  0  0  0  0
 24 23  1  0  0  0  0
 27 28  1  0  0  0  0
 27 30  1  0  0  0  0
 29 27  1  0  0  0  0
 31 35  1  0  0  0  0
 31 33  1  0  0  0  0
 32 31  1  0  0  0  0
 34 31  1  0  0  0  0
 35 27  1  0  0  0  0
 35 23  1  0  0  0  0
M  END
$$$$
