CSD_code = RIQBOJ | q = 0 | S = 0 | Stoichiometry = C16H16Cl2F6Zr | MND = 12
 OpenBabel04212202093D

 41 42  0  0  1  0  0  0  0  0999 V2000
    8.7585    1.0277    3.3392 Zr  0  0  0  0  0  0  0  0  0  0  0  0
   10.2785   -0.5881    2.6293 Cl  0  0  0  0  0  0  0  0  0  0  0  0
    6.1034   -1.5637   -2.7336 F   0  0  0  0  0  0  0  0  0  0  0  0
    7.9340   -2.2436   -1.8352 F   0  0  0  0  0  0  0  0  0  0  0  0
    6.0601   -2.5600   -0.8292 F   0  0  0  0  0  0  0  0  0  0  0  0
    6.8316    1.5564    1.8785 C   0  0  0  0  0  0  0  0  0  0  0  0
    5.8244    1.2060    2.0725 H   0  0  0  0  0  0  0  0  0  0  0  0
    7.3588    2.8138    2.2486 C   0  0  0  0  0  0  0  0  0  0  0  0
    6.8042    3.6081    2.7320 H   0  0  0  0  0  0  0  0  0  0  0  0
    8.6562    2.9248    1.6960 C   0  0  0  0  0  0  0  0  0  0  0  0
    9.2636    3.8208    1.6842 H   0  0  0  0  0  0  0  0  0  0  0  0
    8.9371    1.7312    0.9922 C   0  0  0  0  0  0  0  0  0  0  0  0
    9.8142    1.5388    0.3841 H   0  0  0  0  0  0  0  0  0  0  0  0
    7.8084    0.8772    1.1071 C   0  0  1  0  0  0  0  0  0  0  0  0
    7.6439   -0.4750    0.4668 C   0  0  0  0  0  0  0  0  0  0  0  0
    7.0768   -1.1381    1.1311 H   0  0  0  0  0  0  0  0  0  0  0  0
    8.6261   -0.9243    0.2860 H   0  0  0  0  0  0  0  0  0  0  0  0
    6.8975   -0.3361   -0.8696 C   0  0  0  0  0  0  0  0  0  0  0  0
    5.8959    0.0673   -0.7106 H   0  0  0  0  0  0  0  0  0  0  0  0
    7.4420    0.3277   -1.5439 H   0  0  0  0  0  0  0  0  0  0  0  0
    6.7511   -1.6753   -1.5609 C   0  0  0  0  0  0  0  0  0  0  0  0
    7.2404   -0.5874    4.0488 Cl  0  0  0  0  0  0  0  0  0  0  0  0
   11.4138   -1.5637    9.4120 F   0  0  0  0  0  0  0  0  0  0  0  0
    9.5833   -2.2437    8.5134 F   0  0  0  0  0  0  0  0  0  0  0  0
   11.4573   -2.5599    7.5075 F   0  0  0  0  0  0  0  0  0  0  0  0
   10.6857    1.5564    4.7998 C   0  0  0  0  0  0  0  0  0  0  0  0
   11.6929    1.2061    4.6060 H   0  0  0  0  0  0  0  0  0  0  0  0
   10.1585    2.8138    4.4297 C   0  0  0  0  0  0  0  0  0  0  0  0
   10.7132    3.6081    3.9465 H   0  0  0  0  0  0  0  0  0  0  0  0
    8.8611    2.9248    4.9823 C   0  0  0  0  0  0  0  0  0  0  0  0
    8.2538    3.8208    4.9942 H   0  0  0  0  0  0  0  0  0  0  0  0
    8.5801    1.7312    5.6859 C   0  0  0  0  0  0  0  0  0  0  0  0
    7.7030    1.5388    6.2940 H   0  0  0  0  0  0  0  0  0  0  0  0
    9.7088    0.8772    5.5711 C   0  0  1  0  0  0  0  0  0  0  0  0
    9.8733   -0.4750    6.2115 C   0  0  0  0  0  0  0  0  0  0  0  0
   10.4404   -1.1381    5.5473 H   0  0  0  0  0  0  0  0  0  0  0  0
    8.8911   -0.9243    6.3923 H   0  0  0  0  0  0  0  0  0  0  0  0
   10.6197   -0.3361    7.5480 C   0  0  0  0  0  0  0  0  0  0  0  0
   11.6213    0.0674    7.3890 H   0  0  0  0  0  0  0  0  0  0  0  0
   10.0752    0.3277    8.2223 H   0  0  0  0  0  0  0  0  0  0  0  0
   10.7661   -1.6753    8.2392 C   0  0  0  0  0  0  0  0  0  0  0  0
  1 22  1  0  0  0  0
  1 34  1  0  0  0  0
  2  1  1  0  0  0  0
  3 21  1  0  0  0  0
  4 21  1  0  0  0  0
  6  7  1  0  0  0  0
  6  8  2  0  0  0  0
  8  9  1  0  0  0  0
 10  8  1  0  0  0  0
 11 10  1  0  0  0  0
 12 14  1  0  0  0  0
 12 10  2  0  0  0  0
 13 12  1  0  0  0  0
 14 15  1  6  0  0  0
 14  6  1  0  0  0  0
 14  1  1  0  0  0  0
 15 16  1  0  0  0  0
 17 15  1  0  0  0  0
 18 19  1  0  0  0  0
 18 15  1  0  0  0  0
 20 18  1  0  0  0  0
 21 18  1  0  0  0  0
 21  5  1  0  0  0  0
 25 41  1  0  0  0  0
 26 34  1  0  0  0  0
 27 26  1  0  0  0  0
 28 26  2  0  0  0  0
 28 30  1  0  0  0  0
 29 28  1  0  0  0  0
 30 31  1  0  0  0  0
 30 32  2  0  0  0  0
 32 33  1  0  0  0  0
 34 32  1  0  0  0  0
 34 35  1  1  0  0  0
 35 37  1  0  0  0  0
 35 38  1  0  0  0  0
 36 35  1  0  0  0  0
 38 40  1  0  0  0  0
 38 41  1  0  0  0  0
 39 38  1  0  0  0  0
 41 24  1  0  0  0  0
 41 23  1  0  0  0  0
M  END
$$$$
