CSD_code = RIQYOF | q = 1 | S = 0 | Stoichiometry = C10H10Cl2N3O2Ru(1+) | MND = 6
 OpenBabel04212202093D

 28 29  0  0  1  0  0  0  0  0999 V2000
    0.1959    1.8871    3.5700 Ru  0  0  0  0  0  0  0  0  0  0  0  0
   -0.3811    3.6516    4.9504 Cl  0  0  0  0  0  0  0  0  0  0  0  0
   -0.0800    3.3025    1.7608 Cl  0  0  0  0  0  0  0  0  0  0  0  0
    2.1835    2.9536    3.6391 O   0  0  0  0  0  0  0  0  0  0  0  0
    1.0023    0.7512    5.1087 N   0  0  0  0  0  0  0  0  0  0  0  0
    1.2430    0.4626    2.4827 N   0  0  0  0  0  0  0  0  0  0  0  0
   -1.3365    1.2193    3.4974 N   0  0  0  0  0  2  0  0  0  0  0  0
   -2.4119    0.8456    3.4349 O   0  0  0  0  0  1  0  0  0  0  0  0
    0.7988    0.9625    6.4014 C   0  0  0  0  0  3  0  0  0  0  0  0
    1.4363    0.2144    7.3791 C   0  0  0  0  0  0  0  0  0  0  0  0
    2.3148   -0.7817    6.9820 C   0  0  0  0  0  0  0  0  0  0  0  0
    2.5213   -0.9992    5.6283 C   0  0  0  0  0  0  0  0  0  0  0  0
    1.8452   -0.2150    4.6959 C   0  0  0  0  0  0  0  0  0  0  0  0
    1.9732   -0.3801    3.2384 C   0  0  1  0  0  3  0  0  0  0  0  0
    2.7727   -1.3480    2.6339 C   0  0  0  0  0  0  0  0  0  0  0  0
    2.8077   -1.4389    1.2509 C   0  0  0  0  0  0  0  0  0  0  0  0
    2.0435   -0.5612    0.4973 C   0  0  0  0  0  0  0  0  0  0  0  0
    1.2713    0.3803    1.1600 C   0  0  0  0  0  0  0  0  0  0  0  0
    0.1131    1.7633    6.6521 H   0  0  0  0  0  0  0  0  0  0  0  0
    1.2460    0.4141    8.4208 H   0  0  0  0  0  0  0  0  0  0  0  0
    2.8335   -1.3830    7.7123 H   0  0  0  0  0  0  0  0  0  0  0  0
    3.2025   -1.7693    5.3077 H   0  0  0  0  0  0  0  0  0  0  0  0
    3.3619   -2.0245    3.2298 H   0  0  0  0  0  0  0  0  0  0  0  0
    3.4230   -2.1849    0.7726 H   0  0  0  0  0  0  0  0  0  0  0  0
    2.0415   -0.5992   -0.5796 H   0  0  0  0  0  0  0  0  0  0  0  0
    0.6637    1.0998    0.6238 H   0  0  0  0  0  0  0  0  0  0  0  0
    2.2126    3.4576    2.8012 H   0  0  0  0  0  0  0  0  0  0  0  0
    2.0677    3.6266    4.3395 H   0  0  0  0  0  0  0  0  0  0  0  0
  1  2  1  0  0  0  0
  1  5  1  0  0  0  0
  3  1  1  0  0  0  0
  4 28  1  0  0  0  0
  5  9  1  0  0  0  0
  6 14  1  0  0  0  0
  6  1  1  0  0  0  0
  7  1  1  0  0  0  0
  8  7  1  0  0  0  0
  9 19  1  0  0  0  0
  9 10  1  0  0  0  0
 10 20  1  0  0  0  0
 11 10  2  0  0  0  0
 11 21  1  0  0  0  0
 12 11  1  0  0  0  0
 13  5  1  0  0  0  0
 13 12  2  0  0  0  0
 14 15  1  1  0  0  0
 14 13  1  0  0  0  0
 15 23  1  0  0  0  0
 16 15  2  0  0  0  0
 17 18  2  0  0  0  0
 17 16  1  0  0  0  0
 18  6  1  0  0  0  0
 22 12  1  0  0  0  0
 24 16  1  0  0  0  0
 25 17  1  0  0  0  0
 26 18  1  0  0  0  0
 27  4  1  0  0  0  0
M  END
$$$$
