CSD_code = RIRPEO | q = 0 | S = 0 | Stoichiometry = C12H20Cl2FeN2O2 | MND = 4
 OpenBabel04212202093D

 39 41  0  0  1  0  0  0  0  0999 V2000
   -2.5424    2.4991    1.7134 Fe  0  0  0  0  0  0  0  0  0  0  0  0
   -3.3664    4.2615    1.1774 Cl  0  0  0  0  0  0  0  0  0  0  0  0
   -1.9963    0.7077    2.4164 Cl  0  0  0  0  0  0  0  0  0  0  0  0
   -0.9124    3.0625   -2.4929 O   0  0  0  0  0  0  0  0  0  0  0  0
    1.0895    5.1764    1.2441 O   0  0  0  0  0  0  0  0  0  0  0  0
   -1.5647    2.2462   -0.5218 N   0  0  1  0  0  0  0  0  0  0  0  0
   -0.3140    3.5250    1.7742 N   0  0  1  0  0  0  0  0  0  0  0  0
   -2.3664    1.5026   -1.4912 C   0  0  0  0  0  0  0  0  0  0  0  0
   -1.9351    2.1356   -2.8427 C   0  0  0  0  0  0  0  0  0  0  0  0
   -1.5197    1.4036   -3.5394 H   0  0  0  0  0  0  0  0  0  0  0  0
   -2.7487    2.6805   -3.3290 H   0  0  0  0  0  0  0  0  0  0  0  0
   -0.8040    3.0395   -1.1473 C   0  0  1  0  0  3  0  0  0  0  0  0
   -3.8511    1.6965   -1.1955 C   0  0  0  0  0  0  0  0  0  0  0  0
   -4.0678    1.3284   -0.1893 H   0  0  0  0  0  0  0  0  0  0  0  0
   -4.4540    1.1430   -1.9108 H   0  0  0  0  0  0  0  0  0  0  0  0
   -4.1150    2.7508   -1.2407 H   0  0  0  0  0  0  0  0  0  0  0  0
   -1.9878    0.0254   -1.3884 C   0  0  0  0  0  0  0  0  0  0  0  0
   -0.9378   -0.1166   -1.6344 H   0  0  0  0  0  0  0  0  0  0  0  0
   -2.5975   -0.5682   -2.0648 H   0  0  0  0  0  0  0  0  0  0  0  0
   -2.1478   -0.3125   -0.3676 H   0  0  0  0  0  0  0  0  0  0  0  0
    0.2857    3.9114   -0.6124 C   0  0  2  0  0  0  0  0  0  0  0  0
    0.2298    4.8776   -1.1254 H   0  0  0  0  0  0  0  0  0  0  0  0
    1.6329    3.2506   -0.9667 C   0  0  0  0  0  0  0  0  0  0  0  0
    1.7138    2.2887   -0.4651 H   0  0  0  0  0  0  0  0  0  0  0  0
    2.4514    3.8904   -0.6477 H   0  0  0  0  0  0  0  0  0  0  0  0
    1.6968    3.1003   -2.0411 H   0  0  0  0  0  0  0  0  0  0  0  0
    0.2779    4.1680    0.8599 C   0  0  2  0  0  3  0  0  0  0  0  0
    1.0213    5.2454    2.6647 C   0  0  0  0  0  0  0  0  0  0  0  0
    0.5970    6.2128    2.9470 H   0  0  0  0  0  0  0  0  0  0  0  0
    2.0329    5.1598    3.0679 H   0  0  0  0  0  0  0  0  0  0  0  0
    0.1083    4.0554    3.0689 C   0  0  0  0  0  0  0  0  0  0  0  0
   -1.1101    4.4923    3.8771 C   0  0  0  0  0  0  0  0  0  0  0  0
   -1.6678    5.2589    3.3437 H   0  0  0  0  0  0  0  0  0  0  0  0
   -0.8022    4.8788    4.8453 H   0  0  0  0  0  0  0  0  0  0  0  0
   -1.7655    3.6312    4.0319 H   0  0  0  0  0  0  0  0  0  0  0  0
    0.8728    2.9551    3.8049 C   0  0  0  0  0  0  0  0  0  0  0  0
    0.2348    2.0799    3.8976 H   0  0  0  0  0  0  0  0  0  0  0  0
    1.1640    3.2959    4.7951 H   0  0  0  0  0  0  0  0  0  0  0  0
    1.7630    2.6717    3.2476 H   0  0  0  0  0  0  0  0  0  0  0  0
  1  7  1  0  0  0  0
  1  3  1  0  0  0  0
  2  1  1  0  0  0  0
  5 28  1  0  0  0  0
  6  8  1  6  0  0  0
  6  1  1  0  0  0  0
  7 31  1  1  0  0  0
  8 17  1  0  0  0  0
  8 13  1  0  0  0  0
  9  4  1  0  0  0  0
  9  8  1  0  0  0  0
 10  9  1  0  0  0  0
 11  9  1  0  0  0  0
 12  4  1  6  0  0  0
 12 21  1  0  0  0  0
 12  6  1  0  0  0  0
 13 14  1  0  0  0  0
 15 13  1  0  0  0  0
 16 13  1  0  0  0  0
 17 20  1  0  0  0  0
 18 17  1  0  0  0  0
 19 17  1  0  0  0  0
 21 22  1  6  0  0  0
 21 27  1  0  0  0  0
 23 25  1  0  0  0  0
 23 21  1  0  0  0  0
 23 24  1  0  0  0  0
 26 23  1  0  0  0  0
 27  5  1  1  0  0  0
 27  7  1  0  0  0  0
 28 29  1  0  0  0  0
 28 30  1  0  0  0  0
 28 31  1  0  0  0  0
 31 36  1  0  0  0  0
 31 32  1  0  0  0  0
 32 35  1  0  0  0  0
 32 34  1  0  0  0  0
 33 32  1  0  0  0  0
 36 37  1  0  0  0  0
 36 38  1  0  0  0  0
 39 36  1  0  0  0  0
M  END
$$$$
