CSD_code = RIRWUK | q = 0 | S = 0 | Stoichiometry = C13H11ClTi | MND = 14
 OpenBabel04212202093D

 26 26  0  0  1  0  0  0  0  0999 V2000
    0.0000    3.2152    4.4268 Ti  0  0  0  0  0  0  0  0  0  0  0  0
   -0.0000    3.0300    2.1800 Cl  0  0  0  0  0 15  0  0  0  0  0  0
    0.7090    5.3238    3.9389 C   0  0  0  0  0  0  0  0  0  0  0  0
    1.1433    5.0640    5.2558 C   0  0  0  0  0  3  0  0  0  0  0  0
    0.0000    4.9085    6.0681 C   0  0  0  0  0  0  0  0  0  0  0  0
    2.1006    1.6839    4.7929 C   0  0  0  0  0  0  0  0  0  0  0  0
    1.3282    0.9115    3.9345 C   0  0  0  0  0  0  0  0  0  0  0  0
   -0.0000    0.9177    4.4425 C   0  0  1  0  0  3  0  0  0  0  0  0
   -0.0000    1.5915    5.7256 C   0  0  1  0  0  0  0  0  0  0  0  0
    1.3056    2.1635    5.8848 C   0  0  0  0  0  3  0  0  0  0  0  0
    1.3395    5.5840    3.0969 H   0  0  0  0  0  0  0  0  0  0  0  0
    2.1704    5.0998    5.5998 H   0  0  0  0  0  0  0  0  0  0  0  0
    0.0000    4.7882    7.1425 H   0  0  0  0  0  0  0  0  0  0  0  0
    3.1673    1.8481    4.6935 H   0  0  0  0  0  0  0  0  0  0  0  0
    1.6622    0.4477    3.0190 H   0  0  0  0  0  0  0  0  0  0  0  0
    1.7215    2.5780    6.7972 H   0  0  0  0  0  0  0  0  0  0  0  0
   -0.7090    5.3238    3.9389 C   0  0  0  0  0  0  0  0  0  0  0  0
   -1.1433    5.0640    5.2558 C   0  0  0  0  0  0  0  0  0  0  0  0
   -1.3395    5.5840    3.0969 H   0  0  0  0  0  0  0  0  0  0  0  0
   -2.1704    5.0998    5.5998 H   0  0  0  0  0  0  0  0  0  0  0  0
   -2.1006    1.6839    4.7929 C   0  0  0  0  0  0  0  0  0  0  0  0
   -1.3282    0.9115    3.9345 C   0  0  0  0  0  0  0  0  0  0  0  0
   -1.6622    0.4477    3.0190 H   0  0  0  0  0  0  0  0  0  0  0  0
   -1.3056    2.1635    5.8848 C   0  0  0  0  0  3  0  0  0  0  0  0
   -3.1673    1.8481    4.6935 H   0  0  0  0  0  0  0  0  0  0  0  0
   -1.7215    2.5780    6.7972 H   0  0  0  0  0  0  0  0  0  0  0  0
  3  4  1  0  0  0  0
  4 12  1  0  0  0  0
  4  5  1  0  0  0  0
  5 13  1  0  0  0  0
  6 10  1  0  0  0  0
  7  8  1  0  0  0  0
  7  6  2  0  0  0  0
  8 22  1  6  0  0  0
  8  9  1  0  0  0  0
  9  1  1  6  0  0  0
  9 24  1  0  0  0  0
  9 10  1  0  0  0  0
 10 16  1  0  0  0  0
 11  3  1  0  0  0  0
 14  6  1  0  0  0  0
 15  7  1  0  0  0  0
 17  3  2  0  0  0  0
 17 18  1  0  0  0  0
 18 20  1  0  0  0  0
 18  5  2  0  0  0  0
 19 17  1  0  0  0  0
 21 24  1  0  0  0  0
 22 21  2  0  0  0  0
 23 22  1  0  0  0  0
 24 26  1  0  0  0  0
 25 21  1  0  0  0  0
M  END
$$$$
