CSD_code = RIRXAR | q = 0 | S = 0 | Stoichiometry = C13H11ClZr | MND = 14
 OpenBabel04212202093D

 26 26  0  0  1  0  0  0  0  0999 V2000
   -0.0000   10.4052    4.4400 Zr  0  0  0  0  0  0  0  0  0  0  0  0
    0.0000   10.4526    2.0840 Cl  0  0  0  0  0 15  0  0  0  0  0  0
   -0.7085    8.0857    4.0471 C   0  0  0  0  0  0  0  0  0  0  0  0
   -1.1468    8.4184    5.3495 C   0  0  0  0  0  3  0  0  0  0  0  0
   -0.0000    8.6173    6.1565 C   0  0  0  0  0  0  0  0  0  0  0  0
   -2.1007   11.8522    5.0358 C   0  0  0  0  0  0  0  0  0  0  0  0
   -1.3216   12.5382    4.0833 C   0  0  0  0  0  0  0  0  0  0  0  0
   -0.0000   12.6676    4.6269 C   0  0  1  0  0  3  0  0  0  0  0  0
    0.0000   12.0574    5.9539 C   0  0  1  0  0  0  0  0  0  0  0  0
   -1.3188   11.5254    6.1771 C   0  0  0  0  0  3  0  0  0  0  0  0
   -1.3387    7.7785    3.2202 H   0  0  0  0  0  0  0  0  0  0  0  0
   -2.1732    8.3839    5.7011 H   0  0  0  0  0  0  0  0  0  0  0  0
   -0.0000    8.7664    7.2288 H   0  0  0  0  0  0  0  0  0  0  0  0
   -3.1765   11.7109    4.9661 H   0  0  0  0  0  0  0  0  0  0  0  0
   -1.6798   12.9545    3.1497 H   0  0  0  0  0  0  0  0  0  0  0  0
   -1.7139   11.1398    7.1107 H   0  0  0  0  0  0  0  0  0  0  0  0
    0.7085    8.0857    4.0471 C   0  0  0  0  0  0  0  0  0  0  0  0
    1.1468    8.4184    5.3495 C   0  0  0  0  0  0  0  0  0  0  0  0
    1.3387    7.7785    3.2202 H   0  0  0  0  0  0  0  0  0  0  0  0
    2.1732    8.3839    5.7011 H   0  0  0  0  0  0  0  0  0  0  0  0
    2.1007   11.8522    5.0358 C   0  0  0  0  0  0  0  0  0  0  0  0
    1.3216   12.5382    4.0833 C   0  0  0  0  0  0  0  0  0  0  0  0
    1.6798   12.9545    3.1497 H   0  0  0  0  0  0  0  0  0  0  0  0
    1.3188   11.5254    6.1771 C   0  0  0  0  0  3  0  0  0  0  0  0
    3.1765   11.7109    4.9661 H   0  0  0  0  0  0  0  0  0  0  0  0
    1.7139   11.1398    7.1107 H   0  0  0  0  0  0  0  0  0  0  0  0
  3 17  2  0  0  0  0
  3  4  1  0  0  0  0
  4 12  1  0  0  0  0
  4  5  1  0  0  0  0
  5 13  1  0  0  0  0
  6 10  1  0  0  0  0
  7  8  1  0  0  0  0
  7  6  2  0  0  0  0
  8 22  1  6  0  0  0
  8  9  1  0  0  0  0
  9  1  1  6  0  0  0
  9 24  1  0  0  0  0
  9 10  1  0  0  0  0
 10 16  1  0  0  0  0
 11  3  1  0  0  0  0
 14  6  1  0  0  0  0
 15  7  1  0  0  0  0
 17 18  1  0  0  0  0
 18 20  1  0  0  0  0
 18  5  2  0  0  0  0
 19 17  1  0  0  0  0
 21 24  1  0  0  0  0
 22 21  2  0  0  0  0
 23 22  1  0  0  0  0
 24 26  1  0  0  0  0
 25 21  1  0  0  0  0
M  END
$$$$
