CSD_code = RISKUC | q = 0 | S = 0 | Stoichiometry = C28H22ClN4O3Re | MND = 6
 OpenBabel04212202093D

 59 64  0  0  1  0  0  0  0  0999 V2000
    0.6423    4.6815   10.6971 Re  0  0  0  0  0  0  0  0  0  0  0  0
    1.5698    5.6801   12.6423 Cl  0  0  0  0  0  0  0  0  0  0  0  0
    0.9693    7.4474    9.3492 O   0  0  0  0  0  1  0  0  0  0  0  0
    3.5100    3.9354    9.8307 O   0  0  0  0  0  1  0  0  0  0  0  0
   -0.7055    3.1890    8.3505 O   0  0  0  0  0  1  0  0  0  0  0  0
    0.4030    3.0199   12.0147 N   0  0  0  0  0  0  0  0  0  0  0  0
   -1.2013    5.1414   11.8446 N   0  0  0  0  0  0  0  0  0  0  0  0
   -1.9036    8.3350   10.5974 N   0  0  0  0  0  0  0  0  0  0  0  0
   -5.4651    8.1137   18.5105 N   0  0  0  0  0  0  0  0  0  0  0  0
    0.8125    6.4025    9.7906 C   0  0  0  0  0  2  0  0  0  0  0  0
    2.4287    4.2110   10.0898 C   0  0  0  0  0  2  0  0  0  0  0  0
   -0.2081    3.7629    9.2186 C   0  0  0  0  0  2  0  0  0  0  0  0
    1.1389    1.9113   11.9927 C   0  0  0  0  0  3  0  0  0  0  0  0
    1.8140    1.8004   11.1536 H   0  0  0  0  0  0  0  0  0  0  0  0
    1.0700    0.9360   12.9687 C   0  0  0  0  0  0  0  0  0  0  0  0
    1.6989    0.0629   12.9059 H   0  0  0  0  0  0  0  0  0  0  0  0
    0.1787    1.1104   14.0171 C   0  0  0  0  0  0  0  0  0  0  0  0
    0.0875    0.3703   14.7974 H   0  0  0  0  0  0  0  0  0  0  0  0
   -0.5954    2.2534   14.0413 C   0  0  0  0  0  0  0  0  0  0  0  0
   -1.3069    2.4020   14.8367 H   0  0  0  0  0  0  0  0  0  0  0  0
   -0.4540    3.2069   13.0328 C   0  0  0  0  0  0  0  0  0  0  0  0
   -1.2417    4.4486   12.9996 C   0  0  1  0  0  3  0  0  0  0  0  0
   -1.9642    4.8862   14.0998 C   0  0  0  0  0  0  0  0  0  0  0  0
   -1.9216    4.3394   15.0270 H   0  0  0  0  0  0  0  0  0  0  0  0
   -2.6755    6.0861   14.0473 C   0  0  0  0  0  0  0  0  0  0  0  0
   -2.6568    6.7631   12.8289 C   0  0  0  0  0  0  0  0  0  0  0  0
   -3.2002    7.6827   12.6868 H   0  0  0  0  0  0  0  0  0  0  0  0
   -1.9269    6.2619   11.7616 C   0  0  0  0  0  0  0  0  0  0  0  0
   -1.9690    7.0116   10.4895 C   0  0  0  0  0  0  0  0  0  0  0  0
   -2.1240    6.3663    9.2627 C   0  0  0  0  0  0  0  0  0  0  0  0
   -2.2503    5.2960    9.2196 H   0  0  0  0  0  0  0  0  0  0  0  0
   -2.1423    7.1355    8.1115 C   0  0  0  0  0  0  0  0  0  0  0  0
   -2.2545    6.6658    7.1458 H   0  0  0  0  0  0  0  0  0  0  0  0
   -2.0107    8.5101    8.2228 C   0  0  0  0  0  0  0  0  0  0  0  0
   -1.9985    9.1435    7.3500 H   0  0  0  0  0  0  0  0  0  0  0  0
   -1.9117    9.0569    9.4945 C   0  0  0  0  0  0  0  0  0  0  0  0
   -1.8369   10.1264    9.6415 H   0  0  0  0  0  0  0  0  0  0  0  0
   -3.3956    6.6026   15.2027 C   0  0  0  0  0  0  0  0  0  0  0  0
   -3.9921    5.7499   16.1341 C   0  0  0  0  0  0  0  0  0  0  0  0
   -3.9507    4.6802   15.9855 H   0  0  0  0  0  0  0  0  0  0  0  0
   -4.6816    6.2404   17.2176 C   0  0  0  0  0  0  0  0  0  0  0  0
   -5.1518    5.5465   17.8961 H   0  0  0  0  0  0  0  0  0  0  0  0
   -4.7919    7.6235   17.4400 C   0  0  0  0  0  0  0  0  0  0  0  0
   -4.1780    8.4793   16.5092 C   0  0  0  0  0  0  0  0  0  0  0  0
   -4.2158    9.5470   16.6536 H   0  0  0  0  0  0  0  0  0  0  0  0
   -3.5107    7.9785   15.4176 C   0  0  0  0  0  0  0  0  0  0  0  0
   -3.0318    8.6642   14.7348 H   0  0  0  0  0  0  0  0  0  0  0  0
   -6.0092    7.2925   19.5716 C   0  0  0  0  0  0  0  0  0  0  0  0
   -5.2660    6.5746   19.9301 H   0  0  0  0  0  0  0  0  0  0  0  0
   -6.8888    6.7365   19.2179 H   0  0  0  0  0  0  0  0  0  0  0  0
   -6.4025    8.2961   20.6535 C   0  0  0  0  0  0  0  0  0  0  0  0
   -7.2179    7.9348   21.2761 H   0  0  0  0  0  0  0  0  0  0  0  0
   -5.5449    8.5139   21.2910 H   0  0  0  0  0  0  0  0  0  0  0  0
   -6.7761    9.5325   19.8411 C   0  0  0  0  0  0  0  0  0  0  0  0
   -6.7441   10.4495   20.4248 H   0  0  0  0  0  0  0  0  0  0  0  0
   -7.7774    9.4169   19.4246 H   0  0  0  0  0  0  0  0  0  0  0  0
   -5.7386    9.5203   18.7206 C   0  0  0  0  0  0  0  0  0  0  0  0
   -6.1181    9.9851   17.8063 H   0  0  0  0  0  0  0  0  0  0  0  0
   -4.8263   10.0496   19.0284 H   0  0  0  0  0  0  0  0  0  0  0  0
  1  7  1  0  0  0  0
  1  6  1  0  0  0  0
  1  2  1  0  0  0  0
  3 10  1  0  0  0  0
  4 11  1  0  0  0  0
  5 12  1  0  0  0  0
  6 21  1  0  0  0  0
  7 22  1  0  0  0  0
  9 57  1  0  0  0  0
  9 48  1  0  0  0  0
 10  1  1  0  0  0  0
 11  1  1  0  0  0  0
 12  1  1  0  0  0  0
 13  6  1  0  0  0  0
 13 15  1  0  0  0  0
 14 13  1  0  0  0  0
 15 17  2  0  0  0  0
 16 15  1  0  0  0  0
 17 19  1  0  0  0  0
 17 18  1  0  0  0  0
 19 20  1  0  0  0  0
 21 19  2  0  0  0  0
 22 21  1  1  0  0  0
 22 23  1  0  0  0  0
 23 24  1  0  0  0  0
 25 23  2  0  0  0  0
 25 38  1  0  0  0  0
 26 25  1  0  0  0  0
 27 26  1  0  0  0  0
 28  7  1  0  0  0  0
 28 26  2  0  0  0  0
 29  8  1  0  0  0  0
 29 28  1  0  0  0  0
 30 29  2  0  0  0  0
 31 30  1  0  0  0  0
 32 34  2  0  0  0  0
 32 30  1  0  0  0  0
 33 32  1  0  0  0  0
 34 36  1  0  0  0  0
 35 34  1  0  0  0  0
 36 37  1  0  0  0  0
 36  8  2  0  0  0  0
 38 46  2  0  0  0  0
 38 39  1  0  0  0  0
 39 41  2  0  0  0  0
 40 39  1  0  0  0  0
 41 43  1  0  0  0  0
 41 42  1  0  0  0  0
 43  9  1  0  0  0  0
 44 45  1  0  0  0  0
 44 43  2  0  0  0  0
 46 44  1  0  0  0  0
 47 46  1  0  0  0  0
 48 49  1  0  0  0  0
 48 51  1  0  0  0  0
 50 48  1  0  0  0  0
 51 52  1  0  0  0  0
 51 53  1  0  0  0  0
 54 55  1  0  0  0  0
 54 51  1  0  0  0  0
 56 54  1  0  0  0  0
 57 59  1  0  0  0  0
 57 54  1  0  0  0  0
 58 57  1  0  0  0  0
M  END
$$$$
