CSD_code = RISLIR | q = 0 | S = 0 | Stoichiometry = C26H20ClN6O3Re | MND = 6
 OpenBabel04212202093D

 57 62  0  0  1  0  0  0  0  0999 V2000
   -4.6809    9.4416    4.2747 Re  0  0  0  0  0  0  0  0  0  0  0  0
   -5.7292    8.5785    2.3036 Cl  0  0  0  0  0  0  0  0  0  0  0  0
   -5.3020    6.6166    5.3680 O   0  0  0  0  0  1  0  0  0  0  0  0
   -7.3806   10.4850    5.3531 O   0  0  0  0  0  1  0  0  0  0  0  0
   -3.0219   10.5144    6.6532 O   0  0  0  0  0  1  0  0  0  0  0  0
   -4.3586   11.0942    3.0321 N   0  0  0  0  0  0  0  0  0  0  0  0
   -2.9121    8.8837    3.0771 N   0  0  0  0  0  0  0  0  0  0  0  0
   -2.3194    7.7148    5.5570 N   0  0  0  0  0  0  0  0  0  0  0  0
   -4.2040   12.9405    0.9530 N   0  0  0  0  0  0  0  0  0  0  0  0
   -2.1356    4.9571    5.6126 N   0  0  0  0  0  0  0  0  0  0  0  0
    1.8512    6.2774   -3.3998 N   0  0  0  0  0  0  0  0  0  0  0  0
   -5.0469    7.6851    5.0466 C   0  0  0  0  0  2  0  0  0  0  0  0
   -6.3650   10.0879    5.0008 C   0  0  0  0  0  2  0  0  0  0  0  0
   -3.6405   10.1110    5.7756 C   0  0  0  0  0  2  0  0  0  0  0  0
   -5.0226   12.2515    3.0666 C   0  0  0  0  0  3  0  0  0  0  0  0
   -5.6292   12.4464    3.9410 H   0  0  0  0  0  0  0  0  0  0  0  0
   -4.9469   13.1639    2.0295 C   0  0  0  0  0  0  0  0  0  0  0  0
   -5.4954   14.0938    2.0540 H   0  0  0  0  0  0  0  0  0  0  0  0
   -3.5333   11.8076    0.9203 C   0  0  0  0  0  0  0  0  0  0  0  0
   -2.9309   11.6523    0.0375 H   0  0  0  0  0  0  0  0  0  0  0  0
   -3.5916   10.8599    1.9462 C   0  0  0  0  0  0  0  0  0  0  0  0
   -2.8224    9.6127    1.9504 C   0  0  1  0  0  3  0  0  0  0  0  0
   -2.0371    9.2217    0.8748 C   0  0  0  0  0  0  0  0  0  0  0  0
   -2.0349    9.8035   -0.0312 H   0  0  0  0  0  0  0  0  0  0  0  0
   -1.2885    8.0454    0.9389 C   0  0  0  0  0  0  0  0  0  0  0  0
   -1.3602    7.3300    2.1370 C   0  0  0  0  0  0  0  0  0  0  0  0
   -0.7600    6.4460    2.2808 H   0  0  0  0  0  0  0  0  0  0  0  0
   -2.1768    7.7709    3.1677 C   0  0  0  0  0  0  0  0  0  0  0  0
   -2.2159    7.0116    4.4284 C   0  0  0  0  0  0  0  0  0  0  0  0
   -2.1521    5.6165    4.4691 C   0  0  0  0  0  0  0  0  0  0  0  0
   -2.1338    5.0145    3.5710 H   0  0  0  0  0  0  0  0  0  0  0  0
   -2.2081    5.6655    6.7287 C   0  0  0  0  0  0  0  0  0  0  0  0
   -2.1790    5.1078    7.6538 H   0  0  0  0  0  0  0  0  0  0  0  0
   -2.3226    7.0502    6.6988 C   0  0  0  0  0  0  0  0  0  0  0  0
   -2.4141    7.6459    7.5957 H   0  0  0  0  0  0  0  0  0  0  0  0
   -0.4735    7.5932   -0.1782 C   0  0  0  0  0  0  0  0  0  0  0  0
    0.1124    8.4983   -1.0681 C   0  0  0  0  0  0  0  0  0  0  0  0
   -0.0052    9.5601   -0.9079 H   0  0  0  0  0  0  0  0  0  0  0  0
    0.8840    8.0725   -2.1218 C   0  0  0  0  0  0  0  0  0  0  0  0
    1.3389    8.8070   -2.7667 H   0  0  0  0  0  0  0  0  0  0  0  0
    1.0994    6.7030   -2.3570 C   0  0  0  0  0  0  0  0  0  0  0  0
    0.5043    5.7935   -1.4649 C   0  0  0  0  0  0  0  0  0  0  0  0
    0.6252    4.7332   -1.6175 H   0  0  0  0  0  0  0  0  0  0  0  0
   -0.2509    6.2315   -0.4047 C   0  0  0  0  0  0  0  0  0  0  0  0
   -0.7146    5.5000    0.2403 H   0  0  0  0  0  0  0  0  0  0  0  0
    2.3619    7.1468   -4.4397 C   0  0  0  0  0  0  0  0  0  0  0  0
    3.1925    7.7570   -4.0590 H   0  0  0  0  0  0  0  0  0  0  0  0
    1.5793    7.8157   -4.8082 H   0  0  0  0  0  0  0  0  0  0  0  0
    2.8485    6.1847   -5.5211 C   0  0  0  0  0  0  0  0  0  0  0  0
    2.0224    5.9127   -6.1790 H   0  0  0  0  0  0  0  0  0  0  0  0
    3.6491    6.6089   -6.1226 H   0  0  0  0  0  0  0  0  0  0  0  0
    3.2915    4.9703   -4.7104 C   0  0  0  0  0  0  0  0  0  0  0  0
    4.2713    5.1540   -4.2681 H   0  0  0  0  0  0  0  0  0  0  0  0
    3.3405    4.0594   -5.3024 H   0  0  0  0  0  0  0  0  0  0  0  0
    2.2286    4.8958   -3.6166 C   0  0  0  0  0  0  0  0  0  0  0  0
    1.3642    4.3073   -3.9532 H   0  0  0  0  0  0  0  0  0  0  0  0
    2.6168    4.4492   -2.6970 H   0  0  0  0  0  0  0  0  0  0  0  0
  1 13  1  0  0  0  0
  1 12  1  0  0  0  0
  1 14  1  0  0  0  0
  2  1  1  0  0  0  0
  6 15  1  0  0  0  0
  6  1  1  0  0  0  0
  7 28  1  0  0  0  0
  7  1  1  0  0  0  0
  8 34  1  0  0  0  0
  9 17  2  0  0  0  0
 10 32  1  0  0  0  0
 11 41  1  0  0  0  0
 12  3  1  0  0  0  0
 13  4  1  0  0  0  0
 14  5  1  0  0  0  0
 15 16  1  0  0  0  0
 17 18  1  0  0  0  0
 17 15  1  0  0  0  0
 19  9  1  0  0  0  0
 19 21  2  0  0  0  0
 20 19  1  0  0  0  0
 21 22  1  0  0  0  0
 21  6  1  0  0  0  0
 22 23  1  1  0  0  0
 22  7  1  0  0  0  0
 23 25  2  0  0  0  0
 24 23  1  0  0  0  0
 25 26  1  0  0  0  0
 26 27  1  0  0  0  0
 26 28  2  0  0  0  0
 28 29  1  0  0  0  0
 29 30  1  0  0  0  0
 29  8  2  0  0  0  0
 30 10  2  0  0  0  0
 31 30  1  0  0  0  0
 32 33  1  0  0  0  0
 34 32  2  0  0  0  0
 34 35  1  0  0  0  0
 36 25  1  0  0  0  0
 37 38  1  0  0  0  0
 37 36  2  0  0  0  0
 39 37  1  0  0  0  0
 40 39  1  0  0  0  0
 41 39  2  0  0  0  0
 41 42  1  0  0  0  0
 42 44  2  0  0  0  0
 43 42  1  0  0  0  0
 44 36  1  0  0  0  0
 44 45  1  0  0  0  0
 46 47  1  0  0  0  0
 46 11  1  0  0  0  0
 48 46  1  0  0  0  0
 49 52  1  0  0  0  0
 49 46  1  0  0  0  0
 50 49  1  0  0  0  0
 51 49  1  0  0  0  0
 52 53  1  0  0  0  0
 52 55  1  0  0  0  0
 54 52  1  0  0  0  0
 55 11  1  0  0  0  0
 55 57  1  0  0  0  0
 56 55  1  0  0  0  0
M  END
$$$$
