CSD_code = RISRIX | q = 0 | S = 0 | Stoichiometry = C28H18As2Cl2PdS4 | MND = 4
 OpenBabel04212202093D

 55 60  0  0  0  0  0  0  0  0999 V2000
    2.8226    8.6321    4.2429 As  0  0  0  0  0  0  0  0  0  0  0  0
    7.4574    8.8856    4.1781 As  0  0  0  0  0  0  0  0  0  0  0  0
    1.6174    7.3928    5.1198 C   0  0  0  0  0  0  0  0  0  0  0  0
    1.5862    6.6900    6.3400 C   0  0  0  0  0  0  0  0  0  0  0  0
    2.3679    6.7441    7.0791 H   0  0  0  0  0  0  0  0  0  0  0  0
    0.4632    5.9328    6.4628 C   0  0  0  0  0  0  0  0  0  0  0  0
    0.1741    5.3001    7.2787 H   0  0  0  0  0  0  0  0  0  0  0  0
    0.5052    7.1391    4.3312 C   0  0  0  0  0  0  0  0  0  0  0  0
    0.4662    7.8112    3.0714 C   0  0  0  0  0  0  0  0  0  0  0  0
    0.2940    8.8978    0.8822 C   0  0  0  0  0  0  0  0  0  0  0  0
   -0.0483    9.2092   -0.0850 H   0  0  0  0  0  0  0  0  0  0  0  0
    1.4357    9.2562    1.5281 C   0  0  0  0  0  0  0  0  0  0  0  0
    2.1788    9.9253    1.1280 H   0  0  0  0  0  0  0  0  0  0  0  0
    1.5421    8.6417    2.7915 C   0  0  0  0  0  0  0  0  0  0  0  0
    2.4245   10.2908    5.1936 C   0  0  0  0  0  0  0  0  0  0  0  0
    1.1230   10.7585    5.3447 C   0  0  0  0  0  0  0  0  0  0  0  0
    0.3006   10.1948    4.9151 H   0  0  0  0  0  0  0  0  0  0  0  0
    0.8858   11.9337    6.0344 C   0  0  0  0  0  0  0  0  0  0  0  0
   -0.1253   12.2966    6.1481 H   0  0  0  0  0  0  0  0  0  0  0  0
    1.9436   12.6448    6.5786 C   0  0  0  0  0  0  0  0  0  0  0  0
    1.7553   13.5619    7.1168 H   0  0  0  0  0  0  0  0  0  0  0  0
    3.2408   12.1827    6.4346 C   0  0  0  0  0  0  0  0  0  0  0  0
    4.0638   12.7377    6.8605 H   0  0  0  0  0  0  0  0  0  0  0  0
    3.4839   11.0079    5.7429 C   0  0  0  0  0  0  0  0  0  0  0  0
    4.5208   10.6449    5.6323 H   0  0  0  0  0  0  0  0  0  0  0  0
    8.7445    8.8339    5.6229 C   0  0  0  0  0  0  0  0  0  0  0  0
    8.8689    8.1622    6.8550 C   0  0  0  0  0  0  0  0  0  0  0  0
    8.1364    7.4670    7.2296 H   0  0  0  0  0  0  0  0  0  0  0  0
   10.0117    8.5039    7.5079 C   0  0  0  0  0  0  0  0  0  0  0  0
   10.3659    8.1516    8.4565 H   0  0  0  0  0  0  0  0  0  0  0  0
    9.8079    9.6894    5.3734 C   0  0  0  0  0  0  0  0  0  0  0  0
    9.7507   10.4170    4.1453 C   0  0  0  0  0  0  0  0  0  0  0  0
    9.7592   11.7212    2.0716 C   0  0  0  0  0  0  0  0  0  0  0  0
   10.0327   12.3959    1.2844 H   0  0  0  0  0  0  0  0  0  0  0  0
    8.6499   10.9400    2.1651 C   0  0  0  0  0  0  0  0  0  0  0  0
    7.8649   10.9059    1.4284 H   0  0  0  0  0  0  0  0  0  0  0  0
    8.6379   10.1812    3.3517 C   0  0  0  0  0  0  0  0  0  0  0  0
    7.8814    7.2668    3.1725 C   0  0  0  0  0  0  0  0  0  0  0  0
    6.8299    6.5146    2.6563 C   0  0  0  0  0  0  0  0  0  0  0  0
    5.7846    6.8311    2.8198 H   0  0  0  0  0  0  0  0  0  0  0  0
    7.0920    5.3633    1.9327 C   0  0  0  0  0  0  0  0  0  0  0  0
    6.2754    4.7802    1.5328 H   0  0  0  0  0  0  0  0  0  0  0  0
    8.4001    4.9605    1.7235 C   0  0  0  0  0  0  0  0  0  0  0  0
    8.6031    4.0616    1.1605 H   0  0  0  0  0  0  0  0  0  0  0  0
    9.4500    5.7070    2.2347 C   0  0  0  0  0  0  0  0  0  0  0  0
   10.4695    5.3904    2.0701 H   0  0  0  0  0  0  0  0  0  0  0  0
    9.1938    6.8584    2.9568 C   0  0  0  0  0  0  0  0  0  0  0  0
   10.0098    7.4498    3.3611 H   0  0  0  0  0  0  0  0  0  0  0  0
    5.3153    7.4801    6.0987 Cl  0  0  0  0  0  0  0  0  0  0  0  0
    4.9648   10.0102    2.3307 Cl  0  0  0  0  0  0  0  0  0  0  0  0
    5.1407    8.7454    4.2141 Pd  0  0  0  0  0  0  0  0  0  0  0  0
   -0.5843    6.0475    5.0961 S   0  0  0  0  0  0  0  0  0  0  0  0
   -0.6808    7.7981    1.7879 S   0  0  0  0  0  0  0  0  0  0  0  0
   10.9655    9.6566    6.6470 S   0  0  0  0  0  0  0  0  0  0  0  0
   10.8168   11.5612    3.4259 S   0  0  0  0  0  0  0  0  0  0  0  0
  1  3  1  0  0  0  0
  1 15  1  0  0  0  0
  2 26  1  0  0  0  0
  3  4  1  0  0  0  0
  4  6  2  0  0  0  0
  4  5  1  0  0  0  0
  6  7  1  0  0  0  0
  8 52  1  0  0  0  0
  8  3  2  0  0  0  0
  9  8  1  0  0  0  0
 10 12  2  0  0  0  0
 10 53  1  0  0  0  0
 11 10  1  0  0  0  0
 12 14  1  0  0  0  0
 13 12  1  0  0  0  0
 14  9  2  0  0  0  0
 14  1  1  0  0  0  0
 15 16  2  0  0  0  0
 15 24  1  0  0  0  0
 16 18  1  0  0  0  0
 17 16  1  0  0  0  0
 18 19  1  0  0  0  0
 18 20  2  0  0  0  0
 20 21  1  0  0  0  0
 22 20  1  0  0  0  0
 22 23  1  0  0  0  0
 24 22  2  0  0  0  0
 25 24  1  0  0  0  0
 26 27  1  0  0  0  0
 27 28  1  0  0  0  0
 27 29  2  0  0  0  0
 29 30  1  0  0  0  0
 31 26  2  0  0  0  0
 31 54  1  0  0  0  0
 32 31  1  0  0  0  0
 33 35  2  0  0  0  0
 33 55  1  0  0  0  0
 34 33  1  0  0  0  0
 35 37  1  0  0  0  0
 36 35  1  0  0  0  0
 37 32  2  0  0  0  0
 37  2  1  0  0  0  0
 38  2  1  0  0  0  0
 39 40  1  0  0  0  0
 39 38  2  0  0  0  0
 41 39  1  0  0  0  0
 42 41  1  0  0  0  0
 43 41  2  0  0  0  0
 43 45  1  0  0  0  0
 44 43  1  0  0  0  0
 45 47  2  0  0  0  0
 46 45  1  0  0  0  0
 47 38  1  0  0  0  0
 47 48  1  0  0  0  0
 50 51  1  0  0  0  0
 51 49  1  0  0  0  0
 52  6  1  0  0  0  0
 53  9  1  0  0  0  0
 54 29  1  0  0  0  0
 55 32  1  0  0  0  0
M  END
$$$$
