CSD_code = RISRUH | q = 0 | S = 0 | Stoichiometry = C18H22Cl2N4OPd | MND = 4
 OpenBabel04212202093D

 48 50  0  0  1  0  0  0  0  0999 V2000
    2.9485   -2.9489    7.5092 C   0  0  2  0  0  3  0  0  0  0  0  0
    2.2114   -3.4402    6.4516 C   0  0  0  0  0  0  0  0  0  0  0  0
    2.0589   -4.4661    6.1868 H   0  0  0  0  0  0  0  0  0  0  0  0
    1.6944   -2.3217    5.7793 C   0  0  0  0  0  0  0  0  0  0  0  0
    3.7191   -3.6373    8.5740 C   0  0  0  0  0  0  0  0  0  0  0  0
    4.0091   -4.6310    8.2435 H   0  0  0  0  0  0  0  0  0  0  0  0
    3.1136   -3.7381    9.4750 H   0  0  0  0  0  0  0  0  0  0  0  0
    4.6105   -3.0664    8.8256 H   0  0  0  0  0  0  0  0  0  0  0  0
    0.8329   -2.3365    4.5697 C   0  0  0  0  0  0  0  0  0  0  0  0
    0.6104   -1.3208    4.2535 H   0  0  0  0  0  0  0  0  0  0  0  0
   -0.1040   -2.8461    4.7900 H   0  0  0  0  0  0  0  0  0  0  0  0
    1.3302   -2.8726    3.7633 H   0  0  0  0  0  0  0  0  0  0  0  0
    1.3458    4.9328    5.8362 C   0  0  1  0  0  3  0  0  0  0  0  0
    0.9811    4.7088    7.1361 C   0  0  0  0  0  0  0  0  0  0  0  0
    0.6283    5.4332    7.8410 H   0  0  0  0  0  0  0  0  0  0  0  0
    1.1501    3.3264    7.3652 C   0  0  0  0  0  0  0  0  0  0  0  0
    1.3595    6.1963    5.0682 C   0  0  0  0  0  0  0  0  0  0  0  0
    0.6590    6.1428    4.2358 H   0  0  0  0  0  0  0  0  0  0  0  0
    2.3455    6.3815    4.6450 H   0  0  0  0  0  0  0  0  0  0  0  0
    1.0833    7.0192    5.7221 H   0  0  0  0  0  0  0  0  0  0  0  0
    0.8790    2.5424    8.5995 C   0  0  0  0  0  0  0  0  0  0  0  0
    0.4982    1.5414    8.3330 H   0  0  0  0  0  0  0  0  0  0  0  0
    0.1514    3.0567    9.2223 H   0  0  0  0  0  0  0  0  0  0  0  0
    1.8048    2.4164    9.1671 H   0  0  0  0  0  0  0  0  0  0  0  0
    2.0764    3.4487    3.9820 C   0  0  0  0  0  0  0  0  0  0  0  0
    3.7361    1.6439    4.3613 C   0  0  0  0  0  0  0  0  0  0  0  0
    4.2973    2.3397    4.9754 H   0  0  0  0  0  0  0  0  0  0  0  0
    2.5573    2.0653    3.7295 C   0  0  0  0  0  0  0  0  0  0  0  0
    4.2295    0.3658    4.1349 C   0  0  0  0  0  0  0  0  0  0  0  0
    5.1428    0.0507    4.6184 H   0  0  0  0  0  0  0  0  0  0  0  0
    3.5502   -0.4858    3.2759 C   0  0  0  0  0  0  0  0  0  0  0  0
    3.9234   -1.4846    3.1022 H   0  0  0  0  0  0  0  0  0  0  0  0
    2.4113   -0.0509    2.6200 C   0  0  0  0  0  0  0  0  0  0  0  0
    1.9040   -0.7116    1.9323 H   0  0  0  0  0  0  0  0  0  0  0  0
    1.8948    1.2246    2.8239 C   0  0  0  0  0  0  0  0  0  0  0  0
    0.6385    1.6568    2.1404 C   0  0  0  0  0  0  0  0  0  0  0  0
    0.7086    2.6888    1.8071 H   0  0  0  0  0  0  0  0  0  0  0  0
   -0.1910    1.5775    2.8449 H   0  0  0  0  0  0  0  0  0  0  0  0
    0.4265    1.0176    1.2877 H   0  0  0  0  0  0  0  0  0  0  0  0
    2.0984   -1.2186    6.4027 N   0  0  0  0  0  0  0  0  0  0  0  0
    2.8394   -1.6113    7.4541 N   0  0  0  0  0  0  0  0  0  0  0  0
    3.3491   -0.8854    7.9736 H   0  0  0  0  0  0  0  0  0  0  0  0
    1.6110    2.7584    6.2706 N   0  0  0  0  0  0  0  0  0  0  0  0
    1.7338    3.7150    5.3193 N   0  0  0  0  0  0  0  0  0  0  0  0
    1.9941    4.3121    3.1454 O   0  0  0  0  0  0  0  0  0  0  0  0
    3.7908    1.1240    7.5815 Cl  0  0  0  0  0  0  0  0  0  0  0  0
   -0.2532    0.7145    5.3875 Cl  0  0  0  0  0  0  0  0  0  0  0  0
    1.8707    0.7785    6.2499 Pd  0  0  0  0  0  0  0  0  0  0  0  0
  1  5  1  1  0  0  0
  2  1  1  0  0  0  0
  3  2  1  0  0  0  0
  4 40  1  0  0  0  0
  4  2  2  0  0  0  0
  5  8  1  0  0  0  0
  5  7  1  0  0  0  0
  6  5  1  0  0  0  0
  9 11  1  0  0  0  0
  9  4  1  0  0  0  0
 10  9  1  0  0  0  0
 12  9  1  0  0  0  0
 13 17  1  1  0  0  0
 13 14  1  0  0  0  0
 14 16  2  0  0  0  0
 14 15  1  0  0  0  0
 16 21  1  0  0  0  0
 17 20  1  0  0  0  0
 18 17  1  0  0  0  0
 19 17  1  0  0  0  0
 21 24  1  0  0  0  0
 21 23  1  0  0  0  0
 22 21  1  0  0  0  0
 25 44  1  0  0  0  0
 26 27  1  0  0  0  0
 28 25  1  0  0  0  0
 28 26  2  0  0  0  0
 29 26  1  0  0  0  0
 29 30  1  0  0  0  0
 31 29  2  0  0  0  0
 32 31  1  0  0  0  0
 33 35  2  0  0  0  0
 33 31  1  0  0  0  0
 34 33  1  0  0  0  0
 35 28  1  0  0  0  0
 36 35  1  0  0  0  0
 36 38  1  0  0  0  0
 37 36  1  0  0  0  0
 39 36  1  0  0  0  0
 40 41  1  0  0  0  0
 41  1  1  0  0  0  0
 41 42  1  0  0  0  0
 43 16  1  0  0  0  0
 44 13  1  0  0  0  0
 44 43  1  0  0  0  0
 45 25  2  0  0  0  0
 47 48  1  0  0  0  0
 48 43  1  0  0  0  0
 48 40  1  0  0  0  0
 48 46  1  0  0  0  0
M  END
$$$$
