CSD_code = RISSIW | q = 0 | S = 0 | Stoichiometry = C14H25Cl3CoNP2 | MND = 6
 OpenBabel04212202093D

 46 47  0  0  0  0  0  0  0  0999 V2000
    0.2714    4.7121    4.1088 N   0  0  0  0  0  0  0  0  0  0  0  0
    1.7516    5.3755    3.1117 Co  0  0  0  0  0  0  0  0  0  0  0  0
    3.4491    6.0879    1.9043 Cl  0  0  0  0  0  0  0  0  0  0  0  0
    1.9046    7.1637    4.4873 Cl  0  0  0  0  0  0  0  0  0  0  0  0
   -1.2453    0.8927    2.5372 Cl  0  0  0  0  0  0  0  0  0  0  0  0
    0.5700    6.5614    1.6803 P   0  0  0  0  0  4  0  0  0  0  0  0
    3.3182    4.3888    4.3065 P   0  0  0  0  0  4  0  0  0  0  0  0
    1.5089    3.8021    2.0441 C   0  0  0  0  0  0  0  0  0  0  0  0
    2.1919    3.3303    0.9288 C   0  0  0  0  0  0  0  0  0  0  0  0
    3.0179    3.8936    0.5218 H   0  0  0  0  0  0  0  0  0  0  0  0
    1.8270    2.1389    0.3260 C   0  0  0  0  0  0  0  0  0  0  0  0
    2.3710    1.7886   -0.5393 H   0  0  0  0  0  0  0  0  0  0  0  0
    0.7706    1.3787    0.8123 C   0  0  0  0  0  0  0  0  0  0  0  0
    0.4930    0.4511    0.3367 H   0  0  0  0  0  0  0  0  0  0  0  0
    0.0788    1.8290    1.9161 C   0  0  0  0  0  0  0  0  0  0  0  0
    0.4366    3.0295    2.5347 C   0  0  0  0  0  0  0  0  0  0  0  0
   -0.2007    3.5985    3.6770 C   0  0  0  0  0  3  0  0  0  0  0  0
   -1.0471    3.1121    4.1571 H   0  0  0  0  0  0  0  0  0  0  0  0
   -0.3408    5.3247    5.2545 C   0  0  0  0  0  0  0  0  0  0  0  0
   -1.1831    4.7302    5.6205 H   0  0  0  0  0  0  0  0  0  0  0  0
   -0.6786    6.3288    4.9975 H   0  0  0  0  0  0  0  0  0  0  0  0
    0.3991    5.4446    6.0461 H   0  0  0  0  0  0  0  0  0  0  0  0
    0.9151    8.3500    1.6548 C   0  0  0  0  0  0  0  0  0  0  0  0
    0.2943    8.8310    0.8984 H   0  0  0  0  0  0  0  0  0  0  0  0
    1.9700    8.4959    1.4273 H   0  0  0  0  0  0  0  0  0  0  0  0
    0.7120    8.7689    2.6388 H   0  0  0  0  0  0  0  0  0  0  0  0
    0.7385    6.1415   -0.0906 C   0  0  0  0  0  0  0  0  0  0  0  0
    0.1696    6.8557   -0.6849 H   0  0  0  0  0  0  0  0  0  0  0  0
    0.3686    5.1341   -0.2695 H   0  0  0  0  0  0  0  0  0  0  0  0
    1.7900    6.1901   -0.3647 H   0  0  0  0  0  0  0  0  0  0  0  0
   -1.2566    6.5433    1.8618 C   0  0  0  0  0  0  0  0  0  0  0  0
   -1.7124    7.1305    1.0655 H   0  0  0  0  0  0  0  0  0  0  0  0
   -1.5318    6.9706    2.8241 H   0  0  0  0  0  0  0  0  0  0  0  0
   -1.6188    5.5176    1.8093 H   0  0  0  0  0  0  0  0  0  0  0  0
    2.7948    3.4579    5.7990 C   0  0  0  0  0  0  0  0  0  0  0  0
    3.6600    2.9784    6.2555 H   0  0  0  0  0  0  0  0  0  0  0  0
    2.0624    2.7003    5.5247 H   0  0  0  0  0  0  0  0  0  0  0  0
    2.3487    4.1462    6.5145 H   0  0  0  0  0  0  0  0  0  0  0  0
    4.6103    5.4715    4.9972 C   0  0  0  0  0  0  0  0  0  0  0  0
    5.3282    4.8692    5.5546 H   0  0  0  0  0  0  0  0  0  0  0  0
    4.1472    6.2120    5.6468 H   0  0  0  0  0  0  0  0  0  0  0  0
    5.1064    5.9888    4.1775 H   0  0  0  0  0  0  0  0  0  0  0  0
    4.3328    3.1313    3.4508 C   0  0  0  0  0  0  0  0  0  0  0  0
    5.1218    2.7858    4.1178 H   0  0  0  0  0  0  0  0  0  0  0  0
    4.7727    3.5833    2.5644 H   0  0  0  0  0  0  0  0  0  0  0  0
    3.7086    2.2923    3.1504 H   0  0  0  0  0  0  0  0  0  0  0  0
  1 19  1  0  0  0  0
  2  1  1  0  0  0  0
  2  7  1  0  0  0  0
  2  4  1  0  0  0  0
  3  2  1  0  0  0  0
  6 31  1  0  0  0  0
  6  2  1  0  0  0  0
  7 39  1  0  0  0  0
  7 35  1  0  0  0  0
  8 16  1  0  0  0  0
  8  2  1  0  0  0  0
  9  8  2  0  0  0  0
 10  9  1  0  0  0  0
 11 13  2  0  0  0  0
 11  9  1  0  0  0  0
 12 11  1  0  0  0  0
 13 15  1  0  0  0  0
 14 13  1  0  0  0  0
 15 16  2  0  0  0  0
 15  5  1  0  0  0  0
 16 17  1  0  0  0  0
 17  1  1  0  0  0  0
 17 18  1  0  0  0  0
 19 20  1  0  0  0  0
 19 22  1  0  0  0  0
 21 19  1  0  0  0  0
 23  6  1  0  0  0  0
 23 26  1  0  0  0  0
 24 23  1  0  0  0  0
 25 23  1  0  0  0  0
 27  6  1  0  0  0  0
 28 27  1  0  0  0  0
 29 27  1  0  0  0  0
 30 27  1  0  0  0  0
 31 33  1  0  0  0  0
 32 31  1  0  0  0  0
 34 31  1  0  0  0  0
 35 36  1  0  0  0  0
 35 38  1  0  0  0  0
 37 35  1  0  0  0  0
 39 40  1  0  0  0  0
 39 41  1  0  0  0  0
 42 39  1  0  0  0  0
 43 44  1  0  0  0  0
 43  7  1  0  0  0  0
 45 43  1  0  0  0  0
 46 43  1  0  0  0  0
M  END
$$$$
