CSD_code = RITKEN | q = 0 | S = 0 | Stoichiometry = C22H13ClN5O3Re | MND = 6
 OpenBabel04212202093D

 45 49  0  0  1  0  0  0  0  0999 V2000
    7.5149    2.8775   16.5447 Re  0  0  0  0  0  0  0  0  0  0  0  0
    6.3523    4.5692   17.7468 Cl  0  0  0  0  0  0  0  0  0  0  0  0
    5.4916    3.4506   14.2727 O   0  0  0  0  0  1  0  0  0  0  0  0
    9.3753    5.0681   15.4172 O   0  0  0  0  0  1  0  0  0  0  0  0
    9.0626    0.5354   15.2497 O   0  0  0  0  0  1  0  0  0  0  0  0
    8.5526    2.6840   18.3574 N   0  0  0  0  0  0  0  0  0  0  0  0
    6.1635    1.6581   17.8067 N   0  0  0  0  0  0  0  0  0  0  0  0
    3.4004    1.4515   15.6684 N   0  0  0  0  0  0  0  0  0  0  0  0
    9.6157    2.6407   20.9284 N   0  0  0  0  0  0  0  0  0  0  0  0
    5.1360    0.2262   13.9029 N   0  0  0  0  0  0  0  0  0  0  0  0
    6.2673    3.1787   15.0679 C   0  0  0  0  0  2  0  0  0  0  0  0
    8.7019    4.2189   15.7812 C   0  0  0  0  0  2  0  0  0  0  0  0
    8.4702    1.4068   15.7085 C   0  0  0  0  0  2  0  0  0  0  0  0
    9.7942    3.1006   18.6115 C   0  0  0  0  0  3  0  0  0  0  0  0
   10.3802    3.4482   17.7712 H   0  0  0  0  0  0  0  0  0  0  0  0
   10.3132    3.0924   19.8947 C   0  0  0  0  0  0  0  0  0  0  0  0
   11.3101    3.4514   20.1033 H   0  0  0  0  0  0  0  0  0  0  0  0
    8.3939    2.2168   20.6823 C   0  0  0  0  0  0  0  0  0  0  0  0
    7.8522    1.8359   21.5355 H   0  0  0  0  0  0  0  0  0  0  0  0
    7.8255    2.2457   19.4051 C   0  0  0  0  0  0  0  0  0  0  0  0
    6.4631    1.7944   19.1122 C   0  0  1  0  0  3  0  0  0  0  0  0
    5.5358    1.5474   20.1171 C   0  0  0  0  0  0  0  0  0  0  0  0
    5.7963    1.7168   21.1487 H   0  0  0  0  0  0  0  0  0  0  0  0
    4.2383    1.1643   19.7876 C   0  0  0  0  0  0  0  0  0  0  0  0
    3.9528    0.9975   18.4361 C   0  0  0  0  0  0  0  0  0  0  0  0
    2.9771    0.6850   18.1016 H   0  0  0  0  0  0  0  0  0  0  0  0
    4.9360    1.2397   17.4852 C   0  0  0  0  0  0  0  0  0  0  0  0
    4.5954    1.0233   16.0692 C   0  0  0  0  0  0  0  0  0  0  0  0
    5.4380    0.3421   15.1823 C   0  0  0  0  0  0  0  0  0  0  0  0
    6.3467   -0.1422   15.5114 H   0  0  0  0  0  0  0  0  0  0  0  0
    3.9974    0.7572   13.4891 C   0  0  0  0  0  0  0  0  0  0  0  0
    3.7953    0.7007   12.4295 H   0  0  0  0  0  0  0  0  0  0  0  0
    3.0992    1.3201   14.3901 C   0  0  0  0  0  0  0  0  0  0  0  0
    2.1235    1.6755   14.0906 H   0  0  0  0  0  0  0  0  0  0  0  0
    3.2175    0.9553   20.8189 C   0  0  0  0  0  0  0  0  0  0  0  0
    3.5424    0.3447   22.0284 C   0  0  0  0  0  0  0  0  0  0  0  0
    4.5507   -0.0031   22.2010 H   0  0  0  0  0  0  0  0  0  0  0  0
    2.5736    0.1494   22.9949 C   0  0  0  0  0  0  0  0  0  0  0  0
    2.8342   -0.3328   23.9252 H   0  0  0  0  0  0  0  0  0  0  0  0
    1.2731    0.5705   22.7719 C   0  0  0  0  0  0  0  0  0  0  0  0
    0.5192    0.4217   23.5301 H   0  0  0  0  0  0  0  0  0  0  0  0
    0.9428    1.1830   21.5742 C   0  0  0  0  0  0  0  0  0  0  0  0
   -0.0687    1.5172   21.3991 H   0  0  0  0  0  0  0  0  0  0  0  0
    1.9053    1.3701   20.6001 C   0  0  0  0  0  0  0  0  0  0  0  0
    1.6495    1.8658   19.6756 H   0  0  0  0  0  0  0  0  0  0  0  0
  1  2  1  0  0  0  0
  1  7  1  0  0  0  0
  1  6  1  0  0  0  0
  3 11  1  0  0  0  0
  4 12  1  0  0  0  0
  5 13  1  0  0  0  0
  6 14  1  0  0  0  0
  6 20  1  0  0  0  0
  7 21  1  0  0  0  0
  8 28  1  0  0  0  0
 10 29  1  0  0  0  0
 11  1  1  0  0  0  0
 12  1  1  0  0  0  0
 13  1  1  0  0  0  0
 14 16  1  0  0  0  0
 15 14  1  0  0  0  0
 16 17  1  0  0  0  0
 16  9  2  0  0  0  0
 18  9  1  0  0  0  0
 18 19  1  0  0  0  0
 20 18  2  0  0  0  0
 21 20  1  6  0  0  0
 21 22  1  0  0  0  0
 22 23  1  0  0  0  0
 24 22  2  0  0  0  0
 24 35  1  0  0  0  0
 25 24  1  0  0  0  0
 26 25  1  0  0  0  0
 27  7  1  0  0  0  0
 27 25  2  0  0  0  0
 28 27  1  0  0  0  0
 29 30  1  0  0  0  0
 29 28  2  0  0  0  0
 31 10  2  0  0  0  0
 31 33  1  0  0  0  0
 32 31  1  0  0  0  0
 33  8  2  0  0  0  0
 34 33  1  0  0  0  0
 35 36  1  0  0  0  0
 36 37  1  0  0  0  0
 36 38  2  0  0  0  0
 38 39  1  0  0  0  0
 40 38  1  0  0  0  0
 40 41  1  0  0  0  0
 42 40  2  0  0  0  0
 43 42  1  0  0  0  0
 44 35  2  0  0  0  0
 44 42  1  0  0  0  0
 45 44  1  0  0  0  0
M  END
$$$$
