CSD_code = RITRET | q = 0 | S = 0 | Stoichiometry = C7H18Cl2O4OsS3 | MND = 6
 OpenBabel04212202093D

 35 34  0  0  0  0  0  0  0  0999 V2000
    9.1433    0.4470   12.2322 Os  0  0  0  0  0  0  0  0  0  0  0  0
    8.4951    0.3809   10.0404 Cl  0  0  0  0  0  0  0  0  0  0  0  0
    8.6149   -1.8088   12.5341 Cl  0  0  0  0  0  0  0  0  0  0  0  0
   11.1901   -0.4074   11.5626 S   0  0  0  0  0  0  0  0  0  0  0  0
    9.7749    2.6378   11.7183 S   0  0  0  0  0  0  0  0  0  0  0  0
    6.9313    1.1064   12.6508 S   0  0  0  0  0  0  0  0  0  0  0  0
   12.1738    0.6280   11.2526 O   0  0  0  0  0  1  0  0  0  0  0  0
    8.6857    3.5890   11.8906 O   0  0  0  0  0  1  0  0  0  0  0  0
    6.7598    1.7100   13.9572 O   0  0  0  0  0  1  0  0  0  0  0  0
    9.9332    0.6902   15.1225 O   0  0  0  0  0  1  0  0  0  0  0  0
    9.6254    0.5865   14.0265 C   0  0  0  0  0  2  0  0  0  0  0  0
   11.1244   -1.5500   10.1581 C   0  0  0  0  0  0  0  0  0  0  0  0
   10.6860   -1.0221    9.3177 H   0  0  0  0  0  0  0  0  0  0  0  0
   10.4814   -2.3714   10.4540 H   0  0  0  0  0  0  0  0  0  0  0  0
   12.1317   -1.8750    9.9278 H   0  0  0  0  0  0  0  0  0  0  0  0
   11.9653   -1.5234   12.7701 C   0  0  0  0  0  0  0  0  0  0  0  0
   12.8734   -1.9356   12.3463 H   0  0  0  0  0  0  0  0  0  0  0  0
   11.2401   -2.2958   13.0013 H   0  0  0  0  0  0  0  0  0  0  0  0
   12.1942   -0.9429   13.6570 H   0  0  0  0  0  0  0  0  0  0  0  0
   10.4896    2.9715   10.0781 C   0  0  0  0  0  0  0  0  0  0  0  0
    9.7789    2.6344    9.3310 H   0  0  0  0  0  0  0  0  0  0  0  0
   11.4152    2.4132   10.0056 H   0  0  0  0  0  0  0  0  0  0  0  0
   10.6483    4.0399    9.9958 H   0  0  0  0  0  0  0  0  0  0  0  0
   11.1652    3.2578   12.7172 C   0  0  0  0  0  0  0  0  0  0  0  0
   11.3718    4.2843   12.4382 H   0  0  0  0  0  0  0  0  0  0  0  0
   12.0156    2.6140   12.5246 H   0  0  0  0  0  0  0  0  0  0  0  0
   10.8676    3.2096   13.7587 H   0  0  0  0  0  0  0  0  0  0  0  0
    5.7937   -0.3115   12.5612 C   0  0  0  0  0  0  0  0  0  0  0  0
    6.0912   -1.0259   13.3217 H   0  0  0  0  0  0  0  0  0  0  0  0
    5.8942   -0.7552   11.5772 H   0  0  0  0  0  0  0  0  0  0  0  0
    4.7851    0.0403   12.7427 H   0  0  0  0  0  0  0  0  0  0  0  0
    6.0946    2.1727   11.4424 C   0  0  0  0  0  0  0  0  0  0  0  0
    5.0814    2.3292   11.7920 H   0  0  0  0  0  0  0  0  0  0  0  0
    6.1204    1.6787   10.4789 H   0  0  0  0  0  0  0  0  0  0  0  0
    6.6394    3.1102   11.4124 H   0  0  0  0  0  0  0  0  0  0  0  0
  1  3  1  0  0  0  0
  1  6  1  0  0  0  0
  1 11  1  0  0  0  0
  2  1  1  0  0  0  0
  4  1  1  0  0  0  0
  4 16  1  0  0  0  0
  5  8  1  0  0  0  0
  5  1  1  0  0  0  0
  5 24  1  0  0  0  0
  6  9  1  0  0  0  0
  7  4  1  0  0  0  0
 11 10  1  0  0  0  0
 12 14  1  0  0  0  0
 12  4  1  0  0  0  0
 13 12  1  0  0  0  0
 15 12  1  0  0  0  0
 16 18  1  0  0  0  0
 16 19  1  0  0  0  0
 17 16  1  0  0  0  0
 20  5  1  0  0  0  0
 21 20  1  0  0  0  0
 22 20  1  0  0  0  0
 23 20  1  0  0  0  0
 24 27  1  0  0  0  0
 25 24  1  0  0  0  0
 26 24  1  0  0  0  0
 28  6  1  0  0  0  0
 28 31  1  0  0  0  0
 28 29  1  0  0  0  0
 30 28  1  0  0  0  0
 32 33  1  0  0  0  0
 32  6  1  0  0  0  0
 34 32  1  0  0  0  0
 35 32  1  0  0  0  0
M  END
$$$$
