CSD_code = RITRUK | q = 0 | S = 0 | Stoichiometry = C21H29Cl2NTi | MND = 12
 OpenBabel04212202093D

 54 55  0  0  1  0  0  0  0  0999 V2000
    0.3529    4.8086    6.9078 Ti  0  0  0  0  0  0  0  0  0  0  0  0
    0.8224    2.7839    7.7392 Cl  0  0  0  0  0  0  0  0  0  0  0  0
   -0.8583    5.2861    8.7338 Cl  0  0  0  0  0  0  0  0  0  0  0  0
   -1.6388    3.7770    6.1466 C   0  0  0  0  0  0  0  0  0  0  0  0
   -0.6024    3.3660    5.2775 C   0  0  0  0  0  0  0  0  0  0  0  0
   -0.2969    2.3418    5.1060 H   0  0  0  0  0  0  0  0  0  0  0  0
   -0.1023    4.5007    4.6161 C   0  0  0  0  0  0  0  0  0  0  0  0
    0.5987    4.4807    3.7941 H   0  0  0  0  0  0  0  0  0  0  0  0
   -0.8483    5.6236    5.0543 C   0  0  0  0  0  0  0  0  0  0  0  0
   -0.8167    6.6185    4.6324 H   0  0  0  0  0  0  0  0  0  0  0  0
   -1.7992    5.1740    5.9859 C   0  0  0  0  0  3  0  0  0  0  0  0
   -2.5701    5.7771    6.4490 H   0  0  0  0  0  0  0  0  0  0  0  0
   -2.4959    2.8783    6.9851 C   0  0  0  0  0  0  0  0  0  0  0  0
   -2.7667    3.3980    7.9085 H   0  0  0  0  0  0  0  0  0  0  0  0
   -1.9353    1.9745    7.2446 H   0  0  0  0  0  0  0  0  0  0  0  0
   -3.7618    2.4892    6.2092 C   0  0  0  0  0  0  0  0  0  0  0  0
   -3.4654    2.1073    5.2280 H   0  0  0  0  0  0  0  0  0  0  0  0
   -4.3761    3.3788    6.0492 H   0  0  0  0  0  0  0  0  0  0  0  0
   -4.6192    1.4213    6.9148 C   0  0  0  0  0  0  0  0  0  0  0  0
   -5.0746    1.8794    8.3054 C   0  0  0  0  0  0  0  0  0  0  0  0
   -5.7506    1.1458    8.7406 H   0  0  0  0  0  0  0  0  0  0  0  0
   -5.5974    2.8304    8.2262 H   0  0  0  0  0  0  0  0  0  0  0  0
   -4.2275    1.9987    8.9758 H   0  0  0  0  0  0  0  0  0  0  0  0
   -5.8406    1.0865    6.0454 C   0  0  0  0  0  0  0  0  0  0  0  0
   -5.5301    0.7548    5.0566 H   0  0  0  0  0  0  0  0  0  0  0  0
   -6.4677    1.9689    5.9360 H   0  0  0  0  0  0  0  0  0  0  0  0
   -6.4305    0.2949    6.5029 H   0  0  0  0  0  0  0  0  0  0  0  0
   -3.8344    0.2102    7.0576 C   0  0  0  0  0  0  0  0  0  0  0  0
   -3.2322   -0.7565    7.1570 N   0  0  0  0  0  0  0  0  0  0  0  0
    2.4687    5.1770    7.8549 C   0  0  0  0  0  0  0  0  0  0  0  0
    1.7232    6.3581    8.0820 C   0  0  0  0  0  0  0  0  0  0  0  0
    1.3793    6.9134    6.8181 C   0  0  1  0  0  0  0  0  0  0  0  0
    1.9912    6.1206    5.8061 C   0  0  2  0  0  3  0  0  0  0  0  0
    2.6032    5.0058    6.4429 C   0  0  2  0  0  0  0  0  0  0  0  0
    3.1572    4.3854    8.9229 C   0  0  0  0  0  0  0  0  0  0  0  0
    3.5211    3.4367    8.5364 H   0  0  0  0  0  0  0  0  0  0  0  0
    2.4790    4.1816    9.7525 H   0  0  0  0  0  0  0  0  0  0  0  0
    4.0062    4.9556    9.3076 H   0  0  0  0  0  0  0  0  0  0  0  0
    1.5319    7.0249    9.4080 C   0  0  0  0  0  0  0  0  0  0  0  0
    1.4347    6.2897   10.2049 H   0  0  0  0  0  0  0  0  0  0  0  0
    0.6438    7.6535    9.4086 H   0  0  0  0  0  0  0  0  0  0  0  0
    2.4019    7.6509    9.6231 H   0  0  0  0  0  0  0  0  0  0  0  0
    0.6991    8.2393    6.6419 C   0  0  0  0  0  0  0  0  0  0  0  0
    0.5687    8.4817    5.5896 H   0  0  0  0  0  0  0  0  0  0  0  0
    1.2995    9.0285    7.0988 H   0  0  0  0  0  0  0  0  0  0  0  0
   -0.2790    8.2387    7.1288 H   0  0  0  0  0  0  0  0  0  0  0  0
    2.2416    6.5707    4.3961 C   0  0  0  0  0  0  0  0  0  0  0  0
    1.3527    6.9694    3.9110 H   0  0  0  0  0  0  0  0  0  0  0  0
    2.6387    5.7639    3.7846 H   0  0  0  0  0  0  0  0  0  0  0  0
    2.9902    7.3668    4.4171 H   0  0  0  0  0  0  0  0  0  0  0  0
    3.4115    3.9265    5.7863 C   0  0  0  0  0  0  0  0  0  0  0  0
    4.4786    4.1323    5.8956 H   0  0  0  0  0  0  0  0  0  0  0  0
    3.1853    3.8516    4.7236 H   0  0  0  0  0  0  0  0  0  0  0  0
    3.2000    2.9618    6.2499 H   0  0  0  0  0  0  0  0  0  0  0  0
  1  2  1  0  0  0  0
  1  3  1  0  0  0  0
  4 13  1  0  0  0  0
  5  4  2  0  0  0  0
  6  5  1  0  0  0  0
  7  9  2  0  0  0  0
  7  5  1  0  0  0  0
  8  7  1  0  0  0  0
  9 11  1  0  0  0  0
 10  9  1  0  0  0  0
 11  4  1  0  0  0  0
 11 12  1  0  0  0  0
 13 15  1  0  0  0  0
 13 14  1  0  0  0  0
 16 19  1  0  0  0  0
 16 13  1  0  0  0  0
 17 16  1  0  0  0  0
 18 16  1  0  0  0  0
 19 28  1  0  0  0  0
 19 20  1  0  0  0  0
 20 21  1  0  0  0  0
 20 23  1  0  0  0  0
 22 20  1  0  0  0  0
 24 27  1  0  0  0  0
 24 19  1  0  0  0  0
 25 24  1  0  0  0  0
 26 24  1  0  0  0  0
 28 29  3  0  0  0  0
 30 31  2  0  0  0  0
 30 35  1  0  0  0  0
 31 39  1  0  0  0  0
 32 43  1  6  0  0  0
 32  1  1  0  0  0  0
 32 31  1  0  0  0  0
 33 47  1  1  0  0  0
 33 34  1  0  0  0  0
 33 32  1  0  0  0  0
 34 51  1  6  0  0  0
 34  1  1  0  0  0  0
 34 30  1  0  0  0  0
 35 38  1  0  0  0  0
 35 37  1  0  0  0  0
 36 35  1  0  0  0  0
 39 41  1  0  0  0  0
 39 42  1  0  0  0  0
 39 40  1  0  0  0  0
 43 45  1  0  0  0  0
 43 46  1  0  0  0  0
 44 43  1  0  0  0  0
 47 50  1  0  0  0  0
 48 47  1  0  0  0  0
 49 47  1  0  0  0  0
 51 52  1  0  0  0  0
 51 54  1  0  0  0  0
 53 51  1  0  0  0  0
M  END
$$$$
