CSD_code = RITVOH | q = 0 | S = 0 | Stoichiometry = C14H10ClN3Pt | MND = 4
 OpenBabel04212202093D

 29 33  0  0  0  0  0  0  0  0999 V2000
    0.2387    5.5807    5.8995 Pt  0  0  2  0  0  0  0  0  0  0  0  0
    0.1940    5.6640    3.6990 Cl  0  0  0  0  0  0  0  0  0  0  0  0
    0.2657    5.4272    7.8184 N   0  0  0  0  0  0  0  0  0  0  0  0
   -0.1334    3.1925    7.4999 N   0  0  0  0  0  0  0  0  0  0  0  0
   -0.1268    3.4454    6.1778 N   0  0  0  0  0  0  0  0  0  0  0  0
    0.5823    7.4974    6.3193 C   0  0  0  0  0  0  0  0  0  0  0  0
    0.7458    8.5858    5.4722 C   0  0  0  0  0  0  0  0  0  0  0  0
    0.6931    8.4416    4.4030 H   0  0  0  0  0  0  0  0  0  0  0  0
    0.9753    9.8548    5.9810 C   0  0  0  0  0  0  0  0  0  0  0  0
    1.0996   10.6883    5.3048 H   0  0  0  0  0  0  0  0  0  0  0  0
    1.0466   10.0653    7.3506 C   0  0  0  0  0  0  0  0  0  0  0  0
    1.2243   11.0582    7.7370 H   0  0  0  0  0  0  0  0  0  0  0  0
    0.8901    9.0054    8.2204 C   0  0  0  0  0  0  0  0  0  0  0  0
    0.9460    9.1721    9.2863 H   0  0  0  0  0  0  0  0  0  0  0  0
    0.6594    7.7242    7.7198 C   0  0  0  0  0  0  0  0  0  0  0  0
    0.4816    6.5448    8.5508 C   0  0  0  0  0  0  0  0  0  0  0  0
    0.5103    6.4541    9.9396 C   0  0  0  0  0  0  0  0  0  0  0  0
    0.6821    7.3345   10.5357 H   0  0  0  0  0  0  0  0  0  0  0  0
    0.3172    5.2247   10.5493 C   0  0  0  0  0  0  0  0  0  0  0  0
    0.3381    5.1426   11.6245 H   0  0  0  0  0  0  0  0  0  0  0  0
    0.0955    4.0894    9.7795 C   0  0  0  0  0  0  0  0  0  0  0  0
   -0.0562    3.1286   10.2412 H   0  0  0  0  0  0  0  0  0  0  0  0
    0.0775    4.2382    8.4003 C   0  0  0  0  0  0  0  0  0  0  0  0
   -0.3616    1.8762    7.7267 C   0  0  0  0  0  3  0  0  0  0  0  0
   -0.4073    1.4626    8.7126 H   0  0  0  0  0  0  0  0  0  0  0  0
   -0.5049    1.2735    6.5021 C   0  0  0  0  0  0  0  0  0  0  0  0
   -0.6955    0.2394    6.3046 H   0  0  0  0  0  0  0  0  0  0  0  0
   -0.3485    2.3033    5.5631 C   0  0  0  0  0  0  0  0  0  0  0  0
   -0.3873    2.2599    4.4925 H   0  0  0  0  0  0  0  0  0  0  0  0
  1  2  1  6  0  0  0
  1  5  1  0  0  0  0
  1  6  2  0  0  0  0
  1  3  1  0  0  0  0
  3 23  1  0  0  0  0
  3 16  1  0  0  0  0
  4 24  1  0  0  0  0
  4 23  1  0  0  0  0
  5  4  1  0  0  0  0
  6 15  1  0  0  0  0
  7  9  2  0  0  0  0
  7  6  1  0  0  0  0
  8  7  1  0  0  0  0
  9 11  1  0  0  0  0
 10  9  1  0  0  0  0
 11 12  1  0  0  0  0
 11 13  2  0  0  0  0
 13 14  1  0  0  0  0
 15 13  1  0  0  0  0
 15 16  2  0  0  0  0
 16 17  1  0  0  0  0
 17 18  1  0  0  0  0
 17 19  2  0  0  0  0
 19 20  1  0  0  0  0
 21 22  1  0  0  0  0
 21 19  1  0  0  0  0
 23 21  2  0  0  0  0
 24 25  1  0  0  0  0
 26 24  1  0  0  0  0
 27 26  1  0  0  0  0
 28  5  1  0  0  0  0
 28 26  2  0  0  0  0
 29 28  1  0  0  0  0
M  END
$$$$
