CSD_code = RIVFOR | q = 0 | S = 0 | Stoichiometry = C12H10Cl2N2O8P2Ru | MND = 6
 OpenBabel04212202093D

 37 39  0  0  1  0  0  0  0  0999 V2000
    8.5276   19.6145    2.3385 Ru  0  0  0  0  0  0  0  0  0  0  0  0
    7.1191   20.0426    0.4565 Cl  0  0  0  0  0  0  0  0  0  0  0  0
    9.9167   18.6993    4.0639 Cl  0  0  0  0  0  0  0  0  0  0  0  0
    7.5566   20.6951    3.5029 C   0  0  0  0  0  2  0  0  0  0  0  0
    6.9832   21.3720    4.2167 O   0  0  0  0  0  1  0  0  0  0  0  0
    9.6279   21.0861    2.0380 C   0  0  0  0  0  2  0  0  0  0  0  0
   10.2902   21.9976    1.8735 O   0  0  0  0  0  1  0  0  0  0  0  0
    9.5286   18.3381    1.1278 N   0  0  0  0  0  0  0  0  0  0  0  0
    7.4143   17.9455    2.6034 N   0  0  0  0  0  0  0  0  0  0  0  0
   10.5852   18.6320    0.3763 C   0  0  0  0  0  3  0  0  0  0  0  0
   10.8965   19.6689    0.3529 H   0  0  0  0  0  0  0  0  0  0  0  0
   11.2734   17.6788   -0.3548 C   0  0  0  0  0  0  0  0  0  0  0  0
   12.1286   17.9392   -0.9577 H   0  0  0  0  0  0  0  0  0  0  0  0
   10.8428   16.3641   -0.2956 C   0  0  0  0  0  0  0  0  0  0  0  0
    9.7375   16.0501    0.4721 C   0  0  0  0  0  0  0  0  0  0  0  0
    9.4022   15.0274    0.5128 H   0  0  0  0  0  0  0  0  0  0  0  0
    9.0928   17.0658    1.1736 C   0  0  0  0  0  0  0  0  0  0  0  0
    7.8968   16.8473    1.9937 C   0  0  2  0  0  3  0  0  0  0  0  0
    7.2768   15.6078    2.1301 C   0  0  0  0  0  0  0  0  0  0  0  0
    7.6586   14.7231    1.6490 H   0  0  0  0  0  0  0  0  0  0  0  0
    6.1373   15.5109    2.9060 C   0  0  0  0  0  0  0  0  0  0  0  0
    5.6382   16.6477    3.5189 C   0  0  0  0  0  0  0  0  0  0  0  0
    4.7461   16.5878    4.1215 H   0  0  0  0  0  0  0  0  0  0  0  0
    6.3119   17.8439    3.3394 C   0  0  0  0  0  0  0  0  0  0  0  0
    5.9477   18.7516    3.8042 H   0  0  0  0  0  0  0  0  0  0  0  0
   11.7104   15.0653   -1.2191 P   0  0  0  0  0  0  0  0  0  0  0  0
   12.8670   15.4567   -2.0232 O   0  0  0  0  0  0  0  0  0  0  0  0
   12.0386   13.9655   -0.0991 O   0  0  0  0  0  0  0  0  0  0  0  0
   10.5145   14.3980   -2.0403 O   0  0  0  0  0  0  0  0  0  0  0  0
    5.3050   13.9110    3.1070 P   0  0  0  0  0  0  0  0  0  0  0  0
    4.1216   13.8598    3.9639 O   0  0  0  0  0  0  0  0  0  0  0  0
    5.0489   13.4748    1.5906 O   0  0  0  0  0  0  0  0  0  0  0  0
    6.4925   12.9407    3.5705 O   0  0  0  0  0  0  0  0  0  0  0  0
   12.9857   13.8672    0.0004 H   0  0  0  0  0  0  0  0  0  0  0  0
   10.8020   14.1899   -2.9302 H   0  0  0  0  0  0  0  0  0  0  0  0
    4.1534   13.1497    1.4894 H   0  0  0  0  0  0  0  0  0  0  0  0
    6.2836   12.5444    4.4166 H   0  0  0  0  0  0  0  0  0  0  0  0
  1  9  1  0  0  0  0
  1  4  1  0  0  0  0
  1  3  1  0  0  0  0
  2  1  1  0  0  0  0
  4  5  1  0  0  0  0
  6  1  1  0  0  0  0
  7  6  1  0  0  0  0
  8 17  1  0  0  0  0
  8  1  1  0  0  0  0
  9 24  1  0  0  0  0
 10  8  1  0  0  0  0
 11 10  1  0  0  0  0
 12 14  2  0  0  0  0
 12 10  1  0  0  0  0
 13 12  1  0  0  0  0
 14 15  1  0  0  0  0
 15 16  1  0  0  0  0
 15 17  2  0  0  0  0
 18 17  1  6  0  0  0
 18 19  1  0  0  0  0
 18  9  1  0  0  0  0
 19 21  2  0  0  0  0
 20 19  1  0  0  0  0
 21 30  1  0  0  0  0
 21 22  1  0  0  0  0
 22 23  1  0  0  0  0
 24 22  2  0  0  0  0
 24 25  1  0  0  0  0
 26 14  1  0  0  0  0
 26 28  1  0  0  0  0
 27 26  2  0  0  0  0
 28 34  1  0  0  0  0
 29 26  1  0  0  0  0
 30 33  1  0  0  0  0
 30 31  2  0  0  0  0
 32 30  1  0  0  0  0
 33 37  1  0  0  0  0
 35 29  1  0  0  0  0
 36 32  1  0  0  0  0
M  END
$$$$
