CSD_code = RIVHUB | q = 1 | S = 0 | Stoichiometry = C14H23ClN3RuS(1+) | MND = 9
 OpenBabel04212202093D

 43 42  0  0  1  0  0  0  0  0999 V2000
    7.1029    4.7460    2.0793 C   0  0  0  0  0  0  0  0  0  0  0  0
    7.2263    3.8509    1.4749 H   0  0  0  0  0  0  0  0  0  0  0  0
    6.7491    4.4525    3.0692 H   0  0  0  0  0  0  0  0  0  0  0  0
    8.0713    5.2269    2.2088 H   0  0  0  0  0  0  0  0  0  0  0  0
    6.1336    5.6953    1.4589 C   0  0  0  0  0  0  0  0  0  0  0  0
    5.3985    5.3644    0.3138 C   0  0  0  0  0  0  0  0  0  0  0  0
    5.5702    4.4118   -0.1736 H   0  0  0  0  0  0  0  0  0  0  0  0
    4.4914    6.2856   -0.2655 C   0  0  0  0  0  0  0  0  0  0  0  0
    3.9830    6.0083   -1.1815 H   0  0  0  0  0  0  0  0  0  0  0  0
    4.3797    7.6022    0.2165 C   0  0  0  0  0  0  0  0  0  0  0  0
    5.1188    7.9307    1.3815 C   0  0  2  0  0  0  0  0  0  0  0  0
    5.0927    8.9509    1.7548 H   0  0  0  0  0  0  0  0  0  0  0  0
    5.9360    6.9857    2.0214 C   0  0  0  0  0  3  0  0  0  0  0  0
    6.5272    7.2821    2.8814 H   0  0  0  0  0  0  0  0  0  0  0  0
    4.2159    9.0094   -1.8300 C   0  0  0  0  0  0  0  0  0  0  0  0
    5.2292    9.3686   -1.6677 H   0  0  0  0  0  0  0  0  0  0  0  0
    3.6476    9.7952   -2.3196 H   0  0  0  0  0  0  0  0  0  0  0  0
    4.2566    8.1497   -2.4944 H   0  0  0  0  0  0  0  0  0  0  0  0
    3.5535    8.6435   -0.4983 C   0  0  0  0  0  0  0  0  0  0  0  0
    3.5196    9.5403    0.1295 H   0  0  0  0  0  0  0  0  0  0  0  0
    2.1176    8.1584   -0.7113 C   0  0  0  0  0  0  0  0  0  0  0  0
    1.6941    7.8116    0.2335 H   0  0  0  0  0  0  0  0  0  0  0  0
    2.0774    7.3469   -1.4337 H   0  0  0  0  0  0  0  0  0  0  0  0
    1.5043    8.9731   -1.0856 H   0  0  0  0  0  0  0  0  0  0  0  0
    1.0590    7.0098    3.2685 C   0  0  0  0  0  0  0  0  0  0  0  0
    0.4494    3.3371    1.5728 C   0  0  0  0  0  0  0  0  0  0  0  0
    0.2245    3.0209    2.5935 H   0  0  0  0  0  0  0  0  0  0  0  0
    0.4761    2.4448    0.9547 H   0  0  0  0  0  0  0  0  0  0  0  0
   -0.3598    3.9713    1.2096 H   0  0  0  0  0  0  0  0  0  0  0  0
    1.7752    4.0311    1.5161 C   0  0  0  0  0  3  0  0  0  0  0  0
    2.9255    3.2757    0.9541 C   0  0  0  0  0  0  0  0  0  0  0  0
    2.7712    2.2094    1.0973 H   0  0  0  0  0  0  0  0  0  0  0  0
    3.8446    3.5703    1.4670 H   0  0  0  0  0  0  0  0  0  0  0  0
    3.0282    3.4594   -0.1156 H   0  0  0  0  0  0  0  0  0  0  0  0
    2.5035    7.8584    3.1696 S   0  0  0  0  0  0  0  0  0  0  0  0
    3.7733    6.2358    2.0080 Ru  0  0  0  0  0  0  0  0  0  0  0  0
    1.9752    5.2226    1.9688 N   0  0  0  0  0  0  0  0  0  0  0  0
    0.9247    5.8339    2.6221 N   0  0  0  0  0  0  0  0  0  0  0  0
    0.0130    7.5087    3.9336 N   0  0  0  0  0  0  0  0  0  0  0  0
    3.9681    5.0429    4.0036 Cl  0  0  0  0  0 15  0  0  0  0  0  0
    0.0961    5.2666    2.7861 H   0  0  0  0  0  0  0  0  0  0  0  0
   -0.8456    6.9999    4.0652 H   0  0  0  0  0  0  0  0  0  0  0  0
    0.1333    8.3757    4.4317 H   0  0  0  0  0  0  0  0  0  0  0  0
  1  4  1  0  0  0  0
  1  3  1  0  0  0  0
  2  1  1  0  0  0  0
  5 13  1  0  0  0  0
  5  1  1  0  0  0  0
  6  5  2  0  0  0  0
  7  6  1  0  0  0  0
  8 10  2  0  0  0  0
  8  6  1  0  0  0  0
  9  8  1  0  0  0  0
 10 11  1  0  0  0  0
 11 12  1  1  0  0  0
 11 36  1  0  0  0  0
 11 13  1  0  0  0  0
 13 14  1  0  0  0  0
 15 16  1  0  0  0  0
 15 19  1  0  0  0  0
 17 15  1  0  0  0  0
 18 15  1  0  0  0  0
 19 20  1  0  0  0  0
 19 10  1  0  0  0  0
 21 19  1  0  0  0  0
 21 22  1  0  0  0  0
 23 21  1  0  0  0  0
 24 21  1  0  0  0  0
 25 39  1  0  0  0  0
 26 27  1  0  0  0  0
 28 26  1  0  0  0  0
 29 26  1  0  0  0  0
 30 26  1  0  0  0  0
 30 37  1  0  0  0  0
 31 32  1  0  0  0  0
 31 33  1  0  0  0  0
 31 30  1  0  0  0  0
 34 31  1  0  0  0  0
 35 25  2  0  0  0  0
 37 36  1  0  0  0  0
 37 38  1  0  0  0  0
 38 41  1  0  0  0  0
 38 25  1  0  0  0  0
 39 42  1  0  0  0  0
 39 43  1  0  0  0  0
M  END
$$$$
