CSD_code = RIVJUD | q = 1 | S = 0 | Stoichiometry = C25H29ClN3RuS(1+) | MND = 9
 OpenBabel04212202093D

 60 61  0  0  1  0  0  0  0  0999 V2000
    4.2768    6.2088    9.3487 Ru  0  0  0  0  0  0  0  0  0  0  0  0
    2.2920    5.0010    9.1430 Cl  0  0  0  0  0 15  0  0  0  0  0  0
    5.3436    4.1452    8.9531 S   0  0  0  0  0  0  0  0  0  0  0  0
    4.2289    5.5349   11.2503 N   0  0  0  0  0  0  0  0  0  0  0  0
    4.5565    4.2103   11.4433 N   0  0  0  0  0  0  0  0  0  0  0  0
    4.2324    3.7870   12.3102 H   0  0  0  0  0  0  0  0  0  0  0  0
    5.2192    2.1316   10.7126 N   0  0  0  0  0  0  0  0  0  0  0  0
    5.1455    1.8409   11.6812 H   0  0  0  0  0  0  0  0  0  0  0  0
    5.2459    1.0473    8.5068 C   0  0  0  0  0  0  0  0  0  0  0  0
    4.6092    1.8114    8.0933 H   0  0  0  0  0  0  0  0  0  0  0  0
    5.6608   -0.0112    7.7179 C   0  0  0  0  0  0  0  0  0  0  0  0
    5.3567   -0.0501    6.6838 H   0  0  0  0  0  0  0  0  0  0  0  0
    6.4502   -1.0180    8.2480 C   0  0  0  0  0  0  0  0  0  0  0  0
    6.7718   -1.8379    7.6257 H   0  0  0  0  0  0  0  0  0  0  0  0
    6.8160   -0.9767    9.5837 C   0  0  0  0  0  0  0  0  0  0  0  0
    7.4198   -1.7641   10.0068 H   0  0  0  0  0  0  0  0  0  0  0  0
    6.4047    0.0739   10.3822 C   0  0  0  0  0  0  0  0  0  0  0  0
    6.6854    0.1051   11.4251 H   0  0  0  0  0  0  0  0  0  0  0  0
    5.6318    1.0959    9.8397 C   0  0  0  0  0  0  0  0  0  0  0  0
    4.9974    3.4180   10.4328 C   0  0  0  0  0  0  0  0  0  0  0  0
    3.9196    6.2248   12.2992 C   0  0  2  0  0  3  0  0  0  0  0  0
    4.0364    5.6989   13.6976 C   0  0  0  0  0  0  0  0  0  0  0  0
    3.2432    4.9763   13.9034 H   0  0  0  0  0  0  0  0  0  0  0  0
    3.9178    6.5143   14.4050 H   0  0  0  0  0  0  0  0  0  0  0  0
    5.0028    5.2234   13.8675 H   0  0  0  0  0  0  0  0  0  0  0  0
    3.3129    7.5510   12.1207 C   0  0  0  0  0  0  0  0  0  0  0  0
    2.1259    7.6497   11.3890 C   0  0  0  0  0  0  0  0  0  0  0  0
    1.7071    6.7674   10.9228 H   0  0  0  0  0  0  0  0  0  0  0  0
    1.4524    8.8575   11.3307 C   0  0  0  0  0  0  0  0  0  0  0  0
    0.5159    8.9194   10.7982 H   0  0  0  0  0  0  0  0  0  0  0  0
    1.9670    9.9771   11.9660 C   0  0  0  0  0  0  0  0  0  0  0  0
    1.4392   10.9172   11.9183 H   0  0  0  0  0  0  0  0  0  0  0  0
    3.1550    9.8867   12.6757 C   0  0  0  0  0  0  0  0  0  0  0  0
    3.5559   10.7573   13.1717 H   0  0  0  0  0  0  0  0  0  0  0  0
    3.8176    8.6766   12.7704 C   0  0  0  0  0  0  0  0  0  0  0  0
    4.7345    8.6044   13.3369 H   0  0  0  0  0  0  0  0  0  0  0  0
    2.0208    8.7637    7.7823 C   0  0  0  0  0  0  0  0  0  0  0  0
    1.3085    7.9393    7.8165 H   0  0  0  0  0  0  0  0  0  0  0  0
    2.0142    9.1608    6.7675 H   0  0  0  0  0  0  0  0  0  0  0  0
    1.6950    9.5401    8.4691 H   0  0  0  0  0  0  0  0  0  0  0  0
    3.3886    8.2761    8.1298 C   0  0  0  0  0  0  0  0  0  0  0  0
    4.0219    7.2939    7.3146 C   0  0  0  0  0  3  0  0  0  0  0  0
    3.4980    6.9231    6.4392 H   0  0  0  0  0  0  0  0  0  0  0  0
    5.3665    6.9575    7.5090 C   0  0  1  0  0  0  0  0  0  0  0  0
    5.8751    6.3339    6.7786 H   0  0  0  0  0  0  0  0  0  0  0  0
    6.0929    7.4552    8.6219 C   0  0  0  0  0  0  0  0  0  0  0  0
    5.4108    8.3101    9.5044 C   0  0  0  0  0  0  0  0  0  0  0  0
    5.9401    8.7513   10.3403 H   0  0  0  0  0  0  0  0  0  0  0  0
    4.1060    8.7772    9.2147 C   0  0  0  0  0  0  0  0  0  0  0  0
    3.6802    9.5601    9.8285 H   0  0  0  0  0  0  0  0  0  0  0  0
    7.5574    7.1329    8.7970 C   0  0  0  0  0  0  0  0  0  0  0  0
    7.8093    6.3114    8.1172 H   0  0  0  0  0  0  0  0  0  0  0  0
    8.3974    8.3554    8.4143 C   0  0  0  0  0  0  0  0  0  0  0  0
    8.1920    8.6562    7.3897 H   0  0  0  0  0  0  0  0  0  0  0  0
    9.4542    8.1177    8.4976 H   0  0  0  0  0  0  0  0  0  0  0  0
    8.1792    9.1948    9.0704 H   0  0  0  0  0  0  0  0  0  0  0  0
    7.8670    6.6789   10.2250 C   0  0  0  0  0  0  0  0  0  0  0  0
    7.7772    7.5014   10.9300 H   0  0  0  0  0  0  0  0  0  0  0  0
    8.8832    6.2988   10.2784 H   0  0  0  0  0  0  0  0  0  0  0  0
    7.1831    5.8817   10.5232 H   0  0  0  0  0  0  0  0  0  0  0  0
  1  4  1  0  0  0  0
  3 20  2  0  0  0  0
  4  5  1  0  0  0  0
  5  6  1  0  0  0  0
  7  8  1  0  0  0  0
  9 19  1  0  0  0  0
 10  9  1  0  0  0  0
 11 13  1  0  0  0  0
 11  9  2  0  0  0  0
 12 11  1  0  0  0  0
 13 15  2  0  0  0  0
 14 13  1  0  0  0  0
 15 16  1  0  0  0  0
 15 17  1  0  0  0  0
 17 18  1  0  0  0  0
 19 17  2  0  0  0  0
 19  7  1  0  0  0  0
 20  7  1  0  0  0  0
 20  5  1  0  0  0  0
 21  4  1  6  0  0  0
 21 22  1  0  0  0  0
 22 25  1  0  0  0  0
 22 23  1  0  0  0  0
 22 24  1  0  0  0  0
 26 21  1  0  0  0  0
 26 35  1  0  0  0  0
 27 26  2  0  0  0  0
 28 27  1  0  0  0  0
 29 27  1  0  0  0  0
 29 31  2  0  0  0  0
 30 29  1  0  0  0  0
 31 33  1  0  0  0  0
 32 31  1  0  0  0  0
 33 35  2  0  0  0  0
 33 34  1  0  0  0  0
 35 36  1  0  0  0  0
 37 38  1  0  0  0  0
 37 41  1  0  0  0  0
 37 40  1  0  0  0  0
 39 37  1  0  0  0  0
 41 49  2  0  0  0  0
 42 44  1  0  0  0  0
 42 41  1  0  0  0  0
 43 42  1  0  0  0  0
 44 45  1  6  0  0  0
 44 46  1  0  0  0  0
 44  1  1  0  0  0  0
 46 51  1  0  0  0  0
 46 47  2  0  0  0  0
 47 48  1  0  0  0  0
 49 47  1  0  0  0  0
 49 50  1  0  0  0  0
 51 57  1  0  0  0  0
 52 51  1  0  0  0  0
 53 55  1  0  0  0  0
 53 51  1  0  0  0  0
 53 56  1  0  0  0  0
 54 53  1  0  0  0  0
 57 59  1  0  0  0  0
 57 60  1  0  0  0  0
 57 58  1  0  0  0  0
M  END
$$$$
