CSD_code = RIVJAJ | q = 1 | S = 0 | Stoichiometry = C15H25ClN3RuS(1+) | MND = 9
 OpenBabel04212202093D

 46 45  0  0  1  0  0  0  0  0999 V2000
    2.6547    2.3641    3.4503 Ru  0  0  0  0  0  0  0  0  0  0  0  0
    3.6651    4.4602    3.6140 Cl  0  0  0  0  0 15  0  0  0  0  0  0
    1.1558    3.2865    1.8760 S   0  0  0  0  0  0  0  0  0  0  0  0
    3.9110    2.2604    1.8219 N   0  0  0  0  0  0  0  0  0  0  0  0
    3.4331    2.8140    0.6511 N   0  0  0  0  0  0  0  0  0  0  0  0
    4.1271    3.0213   -0.0633 H   0  0  0  0  0  0  0  0  0  0  0  0
    1.8714    4.0345   -0.5458 N   0  0  0  0  0  0  0  0  0  0  0  0
    2.5089    4.0617   -1.3279 H   0  0  0  0  0  0  0  0  0  0  0  0
    3.6001    2.8511    6.9486 C   0  0  0  0  0  0  0  0  0  0  0  0
    4.5133    2.3472    7.2551 H   0  0  0  0  0  0  0  0  0  0  0  0
    2.9681    3.0083    7.8215 H   0  0  0  0  0  0  0  0  0  0  0  0
    3.8603    3.8340    6.5522 H   0  0  0  0  0  0  0  0  0  0  0  0
    2.8644    2.0676    5.9136 C   0  0  0  0  0  0  0  0  0  0  0  0
    3.3898    0.8957    5.3562 C   0  0  0  0  0  0  0  0  0  0  0  0
    4.3372    0.5120    5.7159 H   0  0  0  0  0  0  0  0  0  0  0  0
    2.6686    0.1608    4.3842 C   0  0  0  0  0  0  0  0  0  0  0  0
    3.0890   -0.7682    4.0172 H   0  0  0  0  0  0  0  0  0  0  0  0
    1.3542    0.5127    4.0289 C   0  0  0  0  0  0  0  0  0  0  0  0
    0.8279    1.7035    4.5904 C   0  0  1  0  0  0  0  0  0  0  0  0
   -0.2012    1.9800    4.3768 H   0  0  0  0  0  0  0  0  0  0  0  0
    1.5832    2.4939    5.4711 C   0  0  0  0  0  3  0  0  0  0  0  0
    1.1344    3.3720    5.9235 H   0  0  0  0  0  0  0  0  0  0  0  0
    0.5141   -0.3599    3.1281 C   0  0  0  0  0  0  0  0  0  0  0  0
   -0.4210    0.1701    2.9174 H   0  0  0  0  0  0  0  0  0  0  0  0
    1.2241   -0.6175    1.7966 C   0  0  0  0  0  0  0  0  0  0  0  0
    1.5359    0.3284    1.3485 H   0  0  0  0  0  0  0  0  0  0  0  0
    0.5500   -1.1200    1.1088 H   0  0  0  0  0  0  0  0  0  0  0  0
    2.0998   -1.2474    1.9317 H   0  0  0  0  0  0  0  0  0  0  0  0
    0.1763   -1.6744    3.8374 C   0  0  0  0  0  0  0  0  0  0  0  0
    1.0763   -2.2478    4.0460 H   0  0  0  0  0  0  0  0  0  0  0  0
   -0.4748   -2.2751    3.2085 H   0  0  0  0  0  0  0  0  0  0  0  0
   -0.3358   -1.4817    4.7770 H   0  0  0  0  0  0  0  0  0  0  0  0
    5.7418    1.4044    3.1028 C   0  0  0  0  0  0  0  0  0  0  0  0
    5.3125    1.9766    3.9294 H   0  0  0  0  0  0  0  0  0  0  0  0
    6.8151    1.5746    3.0796 H   0  0  0  0  0  0  0  0  0  0  0  0
    5.5741    0.3402    3.2696 H   0  0  0  0  0  0  0  0  0  0  0  0
    5.1331    1.8475    1.8205 C   0  0  0  0  0  3  0  0  0  0  0  0
    6.0007    1.8418    0.5996 C   0  0  0  0  0  0  0  0  0  0  0  0
    5.4887    1.4100   -0.2607 H   0  0  0  0  0  0  0  0  0  0  0  0
    6.8941    1.2540    0.7874 H   0  0  0  0  0  0  0  0  0  0  0  0
    6.3231    2.8552    0.3509 H   0  0  0  0  0  0  0  0  0  0  0  0
    2.2163    3.4068    0.5753 C   0  0  0  0  0  0  0  0  0  0  0  0
    0.5798    4.6600   -0.7118 C   0  0  0  0  0  0  0  0  0  0  0  0
    0.6167    5.3370   -1.5596 H   0  0  0  0  0  0  0  0  0  0  0  0
    0.3274    5.2192    0.1896 H   0  0  0  0  0  0  0  0  0  0  0  0
   -0.1960    3.9104   -0.8790 H   0  0  0  0  0  0  0  0  0  0  0  0
  1 19  1  0  0  0  0
  4  1  1  0  0  0  0
  5  4  1  0  0  0  0
  6  5  1  0  0  0  0
  7 42  1  0  0  0  0
  8  7  1  0  0  0  0
  9 10  1  0  0  0  0
  9 11  1  0  0  0  0
 12  9  1  0  0  0  0
 13  9  1  0  0  0  0
 14 15  1  0  0  0  0
 14 13  2  0  0  0  0
 16 14  1  0  0  0  0
 17 16  1  0  0  0  0
 18 16  2  0  0  0  0
 18 19  1  0  0  0  0
 19 20  1  6  0  0  0
 19 21  1  0  0  0  0
 21 13  1  0  0  0  0
 21 22  1  0  0  0  0
 23 29  1  0  0  0  0
 23 18  1  0  0  0  0
 24 23  1  0  0  0  0
 25 28  1  0  0  0  0
 25 23  1  0  0  0  0
 26 25  1  0  0  0  0
 27 25  1  0  0  0  0
 29 30  1  0  0  0  0
 29 32  1  0  0  0  0
 31 29  1  0  0  0  0
 33 36  1  0  0  0  0
 33 34  1  0  0  0  0
 35 33  1  0  0  0  0
 37  4  1  0  0  0  0
 37 33  1  0  0  0  0
 38 40  1  0  0  0  0
 38 37  1  0  0  0  0
 39 38  1  0  0  0  0
 41 38  1  0  0  0  0
 42  5  1  0  0  0  0
 42  3  2  0  0  0  0
 43  7  1  0  0  0  0
 43 45  1  0  0  0  0
 44 43  1  0  0  0  0
 46 43  1  0  0  0  0
M  END
$$$$
