CSD_code = RIVKAK | q = 0 | S = 0 | Stoichiometry = C30H30ClN3RuS | MND = 9
 OpenBabel04212202093D

 66 68  0  0  1  0  0  0  0  0999 V2000
    6.9368    1.3596    2.7496 Ru  0  0  0  0  0  0  0  0  0  0  0  0
    4.6241    1.2124    2.5135 Cl  0  0  0  0  0 15  0  0  0  0  0  0
    7.0797    0.2315    0.6685 S   0  0  0  0  0  0  0  0  0  0  0  0
    6.8083    1.4624   -1.6206 N   0  0  0  0  0  0  0  0  0  0  0  0
    6.8332    0.4866   -1.8874 H   0  0  0  0  0  0  0  0  0  0  0  0
    6.8803    2.8543    0.2358 N   0  0  0  0  0  2  0  0  0  0  0  0
    6.9281    2.9791    1.5718 N   0  0  0  0  0  0  0  0  0  0  0  0
    6.6698    1.8577   -3.9650 C   0  0  0  0  0  0  0  0  0  0  0  0
    6.7648    0.7917   -4.1188 H   0  0  0  0  0  0  0  0  0  0  0  0
    6.5485    2.7051   -5.0485 C   0  0  0  0  0  0  0  0  0  0  0  0
    6.5501    2.2962   -6.0481 H   0  0  0  0  0  0  0  0  0  0  0  0
    6.4258    4.0715   -4.8554 C   0  0  0  0  0  0  0  0  0  0  0  0
    6.3336    4.7329   -5.7036 H   0  0  0  0  0  0  0  0  0  0  0  0
    6.4181    4.5791   -3.5670 C   0  0  0  0  0  0  0  0  0  0  0  0
    6.3179    5.6421   -3.4042 H   0  0  0  0  0  0  0  0  0  0  0  0
    6.5362    3.7407   -2.4742 C   0  0  0  0  0  0  0  0  0  0  0  0
    6.5239    4.1336   -1.4726 H   0  0  0  0  0  0  0  0  0  0  0  0
    6.6694    2.3684   -2.6663 C   0  0  0  0  0  0  0  0  0  0  0  0
    6.8876    1.6710   -0.2874 C   0  0  0  0  0  0  0  0  0  0  0  0
    7.0800    4.1950    2.0268 C   0  0  0  0  0  3  0  0  0  0  0  0
    7.4318    5.3299    1.1648 C   0  0  0  0  0  0  0  0  0  0  0  0
    8.3804    5.2066    0.1487 C   0  0  0  0  0  0  0  0  0  0  0  0
    8.8716    4.2596   -0.0135 H   0  0  0  0  0  0  0  0  0  0  0  0
    8.7038    6.2919   -0.6423 C   0  0  0  0  0  0  0  0  0  0  0  0
    9.4387    6.1800   -1.4258 H   0  0  0  0  0  0  0  0  0  0  0  0
    8.0887    7.5159   -0.4359 C   0  0  0  0  0  0  0  0  0  0  0  0
    8.3380    8.3608   -1.0607 H   0  0  0  0  0  0  0  0  0  0  0  0
    7.1536    7.6517    0.5776 C   0  0  0  0  0  0  0  0  0  0  0  0
    6.6715    8.6039    0.7443 H   0  0  0  0  0  0  0  0  0  0  0  0
    6.8303    6.5721    1.3761 C   0  0  0  0  0  0  0  0  0  0  0  0
    6.0920    6.6777    2.1573 H   0  0  0  0  0  0  0  0  0  0  0  0
    6.8227    4.4907    3.4408 C   0  0  0  0  0  0  0  0  0  0  0  0
    7.6997    5.3032    4.1617 C   0  0  0  0  0  0  0  0  0  0  0  0
    8.6023    5.6616    3.6869 H   0  0  0  0  0  0  0  0  0  0  0  0
    7.4200    5.6431    5.4718 C   0  0  0  0  0  0  0  0  0  0  0  0
    8.1102    6.2635    6.0252 H   0  0  0  0  0  0  0  0  0  0  0  0
    6.2512    5.2000    6.0725 C   0  0  0  0  0  0  0  0  0  0  0  0
    6.0301    5.4779    7.0929 H   0  0  0  0  0  0  0  0  0  0  0  0
    5.3621    4.4152    5.3550 C   0  0  0  0  0  0  0  0  0  0  0  0
    4.4377    4.0908    5.8095 H   0  0  0  0  0  0  0  0  0  0  0  0
    5.6430    4.0536    4.0493 C   0  0  0  0  0  0  0  0  0  0  0  0
    4.9291    3.4735    3.4793 H   0  0  0  0  0  0  0  0  0  0  0  0
    5.7519    0.9770    6.2583 C   0  0  0  0  0  0  0  0  0  0  0  0
    5.8307    1.8681    6.8763 H   0  0  0  0  0  0  0  0  0  0  0  0
    5.7675    0.0932    6.8958 H   0  0  0  0  0  0  0  0  0  0  0  0
    4.7942    0.9963    5.7358 H   0  0  0  0  0  0  0  0  0  0  0  0
    6.8618    0.9196    5.2563 C   0  0  0  0  0  0  0  0  0  0  0  0
    7.0225   -0.2411    4.4478 C   0  0  0  0  0  3  0  0  0  0  0  0
    6.3531   -1.0816    4.5962 H   0  0  0  0  0  0  0  0  0  0  0  0
    8.1239   -0.3742    3.5967 C   0  0  2  0  0  0  0  0  0  0  0  0
    8.3097   -1.3238    3.1029 H   0  0  0  0  0  0  0  0  0  0  0  0
    9.0292    0.6993    3.3952 C   0  0  0  0  0  0  0  0  0  0  0  0
    8.7761    1.8927    4.0985 C   0  0  0  0  0  0  0  0  0  0  0  0
    9.4711    2.7211    4.0164 H   0  0  0  0  0  0  0  0  0  0  0  0
    7.7695    1.9609    5.0956 C   0  0  0  0  0  0  0  0  0  0  0  0
    7.7132    2.8351    5.7309 H   0  0  0  0  0  0  0  0  0  0  0  0
   10.2573    0.5238    2.5319 C   0  0  0  0  0  0  0  0  0  0  0  0
   10.1336   -0.3974    1.9514 H   0  0  0  0  0  0  0  0  0  0  0  0
   11.4931    0.3751    3.4247 C   0  0  0  0  0  0  0  0  0  0  0  0
   11.6522    1.2767    4.0125 H   0  0  0  0  0  0  0  0  0  0  0  0
   12.3754    0.2007    2.8140 H   0  0  0  0  0  0  0  0  0  0  0  0
   11.3734   -0.4640    4.1071 H   0  0  0  0  0  0  0  0  0  0  0  0
   10.4287    1.6801    1.5453 C   0  0  0  0  0  0  0  0  0  0  0  0
    9.5144    1.8108    0.9666 H   0  0  0  0  0  0  0  0  0  0  0  0
   11.2424    1.4650    0.8570 H   0  0  0  0  0  0  0  0  0  0  0  0
   10.6542    2.6117    2.0594 H   0  0  0  0  0  0  0  0  0  0  0  0
  1 50  1  0  0  0  0
  4 19  1  0  0  0  0
  5  4  1  0  0  0  0
  6  7  1  0  0  0  0
  7 20  1  0  0  0  0
  7  1  1  0  0  0  0
  8 18  1  0  0  0  0
  9  8  1  0  0  0  0
 10 12  1  0  0  0  0
 10  8  2  0  0  0  0
 11 10  1  0  0  0  0
 12 14  2  0  0  0  0
 13 12  1  0  0  0  0
 14 15  1  0  0  0  0
 14 16  1  0  0  0  0
 16 17  1  0  0  0  0
 18 16  2  0  0  0  0
 18  4  1  0  0  0  0
 19  6  1  0  0  0  0
 19  3  2  0  0  0  0
 20 32  1  0  0  0  0
 21 30  1  0  0  0  0
 21 20  1  0  0  0  0
 22 21  2  0  0  0  0
 23 22  1  0  0  0  0
 24 26  2  0  0  0  0
 24 22  1  0  0  0  0
 25 24  1  0  0  0  0
 26 28  1  0  0  0  0
 27 26  1  0  0  0  0
 28 29  1  0  0  0  0
 28 30  2  0  0  0  0
 30 31  1  0  0  0  0
 32 41  2  0  0  0  0
 32 33  1  0  0  0  0
 33 35  2  0  0  0  0
 34 33  1  0  0  0  0
 35 36  1  0  0  0  0
 35 37  1  0  0  0  0
 37 38  1  0  0  0  0
 39 40  1  0  0  0  0
 39 37  2  0  0  0  0
 41 39  1  0  0  0  0
 42 41  1  0  0  0  0
 43 44  1  0  0  0  0
 43 45  1  0  0  0  0
 46 43  1  0  0  0  0
 47 43  1  0  0  0  0
 48 49  1  0  0  0  0
 48 47  1  0  0  0  0
 50 51  1  6  0  0  0
 50 48  1  0  0  0  0
 52 50  1  0  0  0  0
 52 53  2  0  0  0  0
 53 55  1  0  0  0  0
 54 53  1  0  0  0  0
 55 47  2  0  0  0  0
 55 56  1  0  0  0  0
 57 52  1  0  0  0  0
 57 59  1  0  0  0  0
 58 57  1  0  0  0  0
 59 60  1  0  0  0  0
 59 62  1  0  0  0  0
 61 59  1  0  0  0  0
 63 66  1  0  0  0  0
 63 57  1  0  0  0  0
 64 63  1  0  0  0  0
 65 63  1  0  0  0  0
M  END
$$$$
