CSD_code = RIVMOY | q = 0 | S = 0 | Stoichiometry = C26H25BrNPPd | MND = 4
 OpenBabel04212202093D

 55 59  0  0  0  0  0  0  0  0999 V2000
    8.9624    1.8006   10.6894 Pd  0  0  1  0  0  0  0  0  0  0  0  0
   10.9001    0.4297   10.0105 Br  0  0  0  0  0  0  0  0  0  0  0  0
    9.2506    3.2129    8.9963 P   0  0  0  0  0  4  0  0  0  0  0  0
    8.6012    0.3353   12.2830 N   0  0  0  0  0  4  0  0  0  0  0  0
    7.4110    2.8558   11.4036 C   0  0  0  0  0  0  0  0  0  0  0  0
    6.2564    2.1223   11.6815 C   0  0  0  0  0  0  0  0  0  0  0  0
    5.1337    2.7576   12.1917 C   0  0  0  0  0  0  0  0  0  0  0  0
    5.1494    4.1212   12.4289 C   0  0  0  0  0  0  0  0  0  0  0  0
    6.2988    4.8491   12.1804 C   0  0  0  0  0  0  0  0  0  0  0  0
    7.4222    4.2187   11.6673 C   0  0  0  0  0  0  0  0  0  0  0  0
    6.2859    0.6215   11.5029 C   0  0  0  0  0  0  0  0  0  0  0  0
    7.2014    0.0175   12.5831 C   0  0  0  0  0  0  0  0  0  0  0  0
    7.8826    4.3631    8.6388 C   0  0  0  0  0  0  0  0  0  0  0  0
    8.0301    5.7339    8.4880 C   0  0  0  0  0  0  0  0  0  0  0  0
    6.9168    6.5250    8.2585 C   0  0  0  0  0  0  0  0  0  0  0  0
    5.6583    5.9550    8.1773 C   0  0  0  0  0  0  0  0  0  0  0  0
    5.5056    4.5855    8.3296 C   0  0  0  0  0  0  0  0  0  0  0  0
    6.6126    3.7953    8.5647 C   0  0  0  0  0  0  0  0  0  0  0  0
   10.6799    4.2447    9.4391 C   0  0  0  0  0  0  0  0  0  0  0  0
   11.3196    5.0844    8.5315 C   0  0  0  0  0  0  0  0  0  0  0  0
   12.4112    5.8305    8.9372 C   0  0  0  0  0  0  0  0  0  0  0  0
   12.8735    5.7382   10.2408 C   0  0  0  0  0  0  0  0  0  0  0  0
   12.2493    4.8929   11.1440 C   0  0  0  0  0  0  0  0  0  0  0  0
   11.1557    4.1465   10.7445 C   0  0  0  0  0  0  0  0  0  0  0  0
    9.6868    2.6024    7.3347 C   0  0  0  0  0  0  0  0  0  0  0  0
    8.7276    2.4742    6.3350 C   0  0  0  0  0  0  0  0  0  0  0  0
    9.0799    1.9624    5.0989 C   0  0  0  0  0  0  0  0  0  0  0  0
   10.3847    1.5691    4.8530 C   0  0  0  0  0  0  0  0  0  0  0  0
   11.3420    1.6917    5.8469 C   0  0  0  0  0  0  0  0  0  0  0  0
   10.9983    2.2044    7.0833 C   0  0  0  0  0  0  0  0  0  0  0  0
    9.0515   -0.4494   11.7994 H   0  0  0  0  0  0  0  0  0  0  0  0
    9.1427    0.5158   13.1281 H   0  0  0  0  0  0  0  0  0  0  0  0
    4.2401    2.1831   12.3982 H   0  0  0  0  0  0  0  0  0  0  0  0
    4.2672    4.6122   12.8137 H   0  0  0  0  0  0  0  0  0  0  0  0
    6.3216    5.9118   12.3766 H   0  0  0  0  0  0  0  0  0  0  0  0
    8.3107    4.8112   11.4650 H   0  0  0  0  0  0  0  0  0  0  0  0
    6.6948    0.3544   10.5108 H   0  0  0  0  0  0  0  0  0  0  0  0
    5.2833    0.2004   11.5932 H   0  0  0  0  0  0  0  0  0  0  0  0
    6.9268    0.4466   13.5519 H   0  0  0  0  0  0  0  0  0  0  0  0
    7.0543   -1.0689   12.6319 H   0  0  0  0  0  0  0  0  0  0  0  0
    9.0076    6.1879    8.5661 H   0  0  0  0  0  0  0  0  0  0  0  0
    7.0338    7.5934    8.1492 H   0  0  0  0  0  0  0  0  0  0  0  0
    4.7935    6.5783    8.0046 H   0  0  0  0  0  0  0  0  0  0  0  0
    4.5234    4.1397    8.2775 H   0  0  0  0  0  0  0  0  0  0  0  0
    6.5053    2.7259    8.7184 H   0  0  0  0  0  0  0  0  0  0  0  0
   10.9713    5.1354    7.5084 H   0  0  0  0  0  0  0  0  0  0  0  0
   12.9088    6.4808    8.2326 H   0  0  0  0  0  0  0  0  0  0  0  0
   13.7300    6.3188   10.5498 H   0  0  0  0  0  0  0  0  0  0  0  0
   12.6213    4.8110   12.1545 H   0  0  0  0  0  0  0  0  0  0  0  0
   10.6634    3.4581   11.4460 H   0  0  0  0  0  0  0  0  0  0  0  0
    7.7070    2.7791    6.5201 H   0  0  0  0  0  0  0  0  0  0  0  0
    8.3301    1.8675    4.3269 H   0  0  0  0  0  0  0  0  0  0  0  0
   10.6539    1.1641    3.8887 H   0  0  0  0  0  0  0  0  0  0  0  0
   12.3590    1.3799    5.6630 H   0  0  0  0  0  0  0  0  0  0  0  0
   11.7456    2.2844    7.8596 H   0  0  0  0  0  0  0  0  0  0  0  0
  1  2  1  1  0  0  0
  1  5  1  0  0  0  0
  1  4  1  0  0  0  0
  3 19  1  0  0  0  0
  3  1  1  0  0  0  0
  4 12  1  0  0  0  0
  4 32  1  0  0  0  0
  5 10  2  0  0  0  0
  5  6  1  0  0  0  0
  6  7  2  0  0  0  0
  7 33  1  0  0  0  0
  7  8  1  0  0  0  0
  8 34  1  0  0  0  0
  9 35  1  0  0  0  0
  9  8  2  0  0  0  0
 10  9  1  0  0  0  0
 11 38  1  0  0  0  0
 11  6  1  0  0  0  0
 11 12  1  0  0  0  0
 12 40  1  0  0  0  0
 12 39  1  0  0  0  0
 13  3  1  0  0  0  0
 14 41  1  0  0  0  0
 14 13  2  0  0  0  0
 15 14  1  0  0  0  0
 16 15  2  0  0  0  0
 16 17  1  0  0  0  0
 17 18  2  0  0  0  0
 18 13  1  0  0  0  0
 18 45  1  0  0  0  0
 19 24  1  0  0  0  0
 20 21  1  0  0  0  0
 20 19  2  0  0  0  0
 21 22  2  0  0  0  0
 22 48  1  0  0  0  0
 22 23  1  0  0  0  0
 23 49  1  0  0  0  0
 24 23  2  0  0  0  0
 24 50  1  0  0  0  0
 25  3  1  0  0  0  0
 26 51  1  0  0  0  0
 26 25  2  0  0  0  0
 27 26  1  0  0  0  0
 28 27  2  0  0  0  0
 28 29  1  0  0  0  0
 29 30  2  0  0  0  0
 30 25  1  0  0  0  0
 30 55  1  0  0  0  0
 31  4  1  0  0  0  0
 36 10  1  0  0  0  0
 37 11  1  0  0  0  0
 42 15  1  0  0  0  0
 43 16  1  0  0  0  0
 44 17  1  0  0  0  0
 46 20  1  0  0  0  0
 47 21  1  0  0  0  0
 52 27  1  0  0  0  0
 53 28  1  0  0  0  0
 54 29  1  0  0  0  0
M  END
$$$$
