CSD_code = RIVPUH | q = 0 | S = 0 | Stoichiometry = C13H19ClN3Rh | MND = 4
 OpenBabel04212202093D

 37 39  0  0  0  0  0  0  0  0999 V2000
    3.7829    7.2853    2.1579 Rh  0  0  1  0  0  0  0  0  0  0  0  0
    4.2703    5.1837    2.5408 Cl  0  0  0  0  0  0  0  0  0  0  0  0
    3.3843    9.0440    1.8268 N   0  0  0  0  0  0  0  0  0  0  0  0
    2.2506    7.0267    0.8398 N   0  0  0  0  0  0  0  0  0  0  0  0
    5.1709    8.1646    3.3647 N   0  0  0  0  0  0  0  0  0  0  0  0
    2.3875    9.3551    0.9632 C   0  0  0  0  0  0  0  0  0  0  0  0
    2.0713   10.6828    0.6908 C   0  0  0  0  0  0  0  0  0  0  0  0
    2.7935   11.6895    1.3181 C   0  0  0  0  0  0  0  0  0  0  0  0
    3.8141   11.3624    2.2012 C   0  0  0  0  0  0  0  0  0  0  0  0
    4.0942   10.0206    2.4419 C   0  0  0  0  0  0  0  0  0  0  0  0
    1.7842    8.1707    0.4402 C   0  0  0  0  0  3  0  0  0  0  0  0
    1.6229    5.8344    0.3046 C   0  0  0  0  0  0  0  0  0  0  0  0
    2.6498    5.0167   -0.4793 C   0  0  0  0  0  0  0  0  0  0  0  0
    1.0139    5.0171    1.4443 C   0  0  0  0  0  0  0  0  0  0  0  0
    5.0886    9.4587    3.2998 C   0  0  0  0  0  0  0  0  0  0  0  0
    6.1854    7.6100    4.2394 C   0  0  0  0  0  0  0  0  0  0  0  0
    7.1807    6.7896    3.4183 C   0  0  0  0  0  0  0  0  0  0  0  0
    5.5238    6.7591    5.3237 C   0  0  0  0  0  0  0  0  0  0  0  0
    1.2757   10.9170    0.0011 H   0  0  0  0  0  0  0  0  0  0  0  0
    2.5624   12.7244    1.1191 H   0  0  0  0  0  0  0  0  0  0  0  0
    4.3867   12.1302    2.6973 H   0  0  0  0  0  0  0  0  0  0  0  0
    0.9594    8.2353   -0.2681 H   0  0  0  0  0  0  0  0  0  0  0  0
    0.8148    6.1379   -0.3829 H   0  0  0  0  0  0  0  0  0  0  0  0
    2.1702    4.1426   -0.9119 H   0  0  0  0  0  0  0  0  0  0  0  0
    3.4470    4.6915    0.1835 H   0  0  0  0  0  0  0  0  0  0  0  0
    3.0787    5.6161   -1.2804 H   0  0  0  0  0  0  0  0  0  0  0  0
    0.5152    4.1397    1.0415 H   0  0  0  0  0  0  0  0  0  0  0  0
    0.2876    5.6150    1.9921 H   0  0  0  0  0  0  0  0  0  0  0  0
    1.7953    4.6977    2.1284 H   0  0  0  0  0  0  0  0  0  0  0  0
    5.7509   10.1029    3.8765 H   0  0  0  0  0  0  0  0  0  0  0  0
    6.7275    8.4401    4.7242 H   0  0  0  0  0  0  0  0  0  0  0  0
    7.6442    7.4117    2.6546 H   0  0  0  0  0  0  0  0  0  0  0  0
    6.6677    5.9621    2.9359 H   0  0  0  0  0  0  0  0  0  0  0  0
    7.9562    6.3946    4.0690 H   0  0  0  0  0  0  0  0  0  0  0  0
    4.9930    5.9277    4.8683 H   0  0  0  0  0  0  0  0  0  0  0  0
    4.8180    7.3581    5.8962 H   0  0  0  0  0  0  0  0  0  0  0  0
    6.2818    6.3688    5.9975 H   0  0  0  0  0  0  0  0  0  0  0  0
  1  2  1  6  0  0  0
  1  5  1  0  0  0  0
  3  1  1  0  0  0  0
  3 10  1  0  0  0  0
  4  1  1  0  0  0  0
  5 16  1  0  0  0  0
  6  3  1  0  0  0  0
  7  6  2  0  0  0  0
  7  8  1  0  0  0  0
  8  9  2  0  0  0  0
  9 10  1  0  0  0  0
  9 21  1  0  0  0  0
 10 15  2  0  0  0  0
 11  4  1  0  0  0  0
 11  6  1  0  0  0  0
 12  4  1  0  0  0  0
 12 14  1  0  0  0  0
 13 25  1  0  0  0  0
 13 12  1  0  0  0  0
 14 28  1  0  0  0  0
 14 29  1  0  0  0  0
 15  5  1  0  0  0  0
 15 30  1  0  0  0  0
 16 31  1  0  0  0  0
 16 18  1  0  0  0  0
 17 34  1  0  0  0  0
 17 16  1  0  0  0  0
 18 36  1  0  0  0  0
 18 37  1  0  0  0  0
 19  7  1  0  0  0  0
 20  8  1  0  0  0  0
 22 11  1  0  0  0  0
 23 12  1  0  0  0  0
 24 13  1  0  0  0  0
 26 13  1  0  0  0  0
 27 14  1  0  0  0  0
 32 17  1  0  0  0  0
 33 17  1  0  0  0  0
 35 18  1  0  0  0  0
M  END
$$$$
