CSD_code = RIVQIW | q = 0 | S = 0 | Stoichiometry = C14H21Cl3N3Rh | MND = 6
 OpenBabel04212202093D

 42 44  0  0  0  0  0  0  0  0999 V2000
    1.2607    7.6057    4.1556 Rh  0  0  0  0  0  0  0  0  0  0  0  0
    2.7373    8.9374    5.5108 Cl  0  0  0  0  0  0  0  0  0  0  0  0
   -0.6256    8.2402    5.2610 Cl  0  0  0  0  0  0  0  0  0  0  0  0
    0.7777    5.4795    1.7670 Cl  0  0  0  0  0  0  0  0  0  0  0  0
    2.8035    7.1552    3.2154 N   0  0  0  0  0  0  0  0  0  0  0  0
    1.8457    5.9744    5.2530 N   0  0  0  0  0  0  0  0  0  0  0  0
    1.2083    9.0523    2.7949 N   0  0  0  0  0  0  0  0  0  0  0  0
    3.5358    6.1132    3.6286 C   0  0  0  0  0  0  0  0  0  0  0  0
    4.7161    5.7897    2.9643 C   0  0  0  0  0  0  0  0  0  0  0  0
    5.1055    6.5713    1.8849 C   0  0  0  0  0  0  0  0  0  0  0  0
    4.3374    7.6582    1.4882 C   0  0  0  0  0  0  0  0  0  0  0  0
    3.1659    7.9365    2.1871 C   0  0  0  0  0  0  0  0  0  0  0  0
    2.9487    5.4936    4.7916 C   0  0  0  0  0  0  0  0  0  0  0  0
    1.3122    5.4207    6.4790 C   0  0  0  0  0  0  0  0  0  0  0  0
    1.3652    6.4935    7.5692 C   0  0  0  0  0  0  0  0  0  0  0  0
   -0.1208    4.9336    6.2709 C   0  0  0  0  0  0  0  0  0  0  0  0
    2.2178    9.0063    1.9914 C   0  0  0  0  0  3  0  0  0  0  0  0
    0.2346   10.1242    2.7267 C   0  0  0  0  0  0  0  0  0  0  0  0
    0.6627   11.2166    3.7135 C   0  0  0  0  0  0  0  0  0  0  0  0
    0.0260   10.6924    1.3239 C   0  0  0  0  0  0  0  0  0  0  0  0
   -0.0500    6.4824    2.9881 C   0  0  0  0  0  0  0  0  0  0  0  0
    5.3108    4.9507    3.2882 H   0  0  0  0  0  0  0  0  0  0  0  0
    6.0152    6.3366    1.3543 H   0  0  0  0  0  0  0  0  0  0  0  0
    4.6372    8.2785    0.6588 H   0  0  0  0  0  0  0  0  0  0  0  0
    3.4568    4.6641    5.2802 H   0  0  0  0  0  0  0  0  0  0  0  0
    1.9435    4.5688    6.7810 H   0  0  0  0  0  0  0  0  0  0  0  0
    1.0160    6.0734    8.5084 H   0  0  0  0  0  0  0  0  0  0  0  0
    0.7276    7.3306    7.2955 H   0  0  0  0  0  0  0  0  0  0  0  0
    2.3813    6.8599    7.6967 H   0  0  0  0  0  0  0  0  0  0  0  0
   -0.4840    4.4871    7.1925 H   0  0  0  0  0  0  0  0  0  0  0  0
   -0.1612    4.1855    5.4814 H   0  0  0  0  0  0  0  0  0  0  0  0
   -0.7621    5.7731    6.0138 H   0  0  0  0  0  0  0  0  0  0  0  0
    2.3754    9.7398    1.2091 H   0  0  0  0  0  0  0  0  0  0  0  0
   -0.7093    9.6985    3.0891 H   0  0  0  0  0  0  0  0  0  0  0  0
   -0.0994   11.9892    3.7542 H   0  0  0  0  0  0  0  0  0  0  0  0
    1.6091   11.6567    3.4054 H   0  0  0  0  0  0  0  0  0  0  0  0
    0.7835   10.7912    4.7070 H   0  0  0  0  0  0  0  0  0  0  0  0
   -0.1010    9.8922    0.5970 H   0  0  0  0  0  0  0  0  0  0  0  0
    0.8536   11.3286    1.0174 H   0  0  0  0  0  0  0  0  0  0  0  0
   -0.8752   11.2993    1.3256 H   0  0  0  0  0  0  0  0  0  0  0  0
   -0.7398    7.1171    2.4262 H   0  0  0  0  0  0  0  0  0  0  0  0
   -0.6379    5.7864    3.5869 H   0  0  0  0  0  0  0  0  0  0  0  0
  1  6  1  0  0  0  0
  1  3  1  0  0  0  0
  1  2  1  0  0  0  0
  4 21  1  0  0  0  0
  5  8  1  0  0  0  0
  5  1  1  0  0  0  0
  6 14  1  0  0  0  0
  7  1  1  0  0  0  0
  8 13  2  0  0  0  0
  9 22  1  0  0  0  0
  9  8  1  0  0  0  0
 10  9  2  0  0  0  0
 11 10  1  0  0  0  0
 11 12  2  0  0  0  0
 12  5  1  0  0  0  0
 13  6  1  0  0  0  0
 13 25  1  0  0  0  0
 14 26  1  0  0  0  0
 14 15  1  0  0  0  0
 15 29  1  0  0  0  0
 15 27  1  0  0  0  0
 16 14  1  0  0  0  0
 16 30  1  0  0  0  0
 17 12  1  0  0  0  0
 17  7  1  0  0  0  0
 18  7  1  0  0  0  0
 18 34  1  0  0  0  0
 18 19  1  0  0  0  0
 19 35  1  0  0  0  0
 19 37  1  0  0  0  0
 20 40  1  0  0  0  0
 20 18  1  0  0  0  0
 21 42  1  0  0  0  0
 21  1  1  0  0  0  0
 23 10  1  0  0  0  0
 24 11  1  0  0  0  0
 28 15  1  0  0  0  0
 31 16  1  0  0  0  0
 32 16  1  0  0  0  0
 33 17  1  0  0  0  0
 36 19  1  0  0  0  0
 38 20  1  0  0  0  0
 39 20  1  0  0  0  0
 41 21  1  0  0  0  0
M  END
$$$$
