CSD_code = RIVQES | q = 0 | S = 0 | Stoichiometry = C15H23ClN3Rh | MND = 4
 OpenBabel04212202093D

 43 45  0  0  1  0  0  0  0  0999 V2000
    3.6830    6.1693    1.7661 Rh  0  0  1  0  0  0  0  0  0  0  0  0
    4.6548    4.3810    0.8616 Cl  0  0  0  0  0  0  0  0  0  0  0  0
    3.2527    7.3548    3.0988 N   0  0  0  0  0  0  0  0  0  0  0  0
    5.0976    7.5571    1.4259 N   0  0  0  0  0  0  0  0  0  0  0  0
    1.9320    5.3703    2.3501 N   0  0  0  0  0  0  0  0  0  0  0  0
    4.1587    8.3225    3.4072 C   0  0  0  0  0  0  0  0  0  0  0  0
    4.0262    9.0421    4.5924 C   0  0  0  0  0  0  0  0  0  0  0  0
    2.9792    8.7454    5.4525 C   0  0  0  0  0  0  0  0  0  0  0  0
    2.1010    7.7144    5.1530 C   0  0  0  0  0  0  0  0  0  0  0  0
    2.2573    7.0112    3.9608 C   0  0  0  0  0  0  0  0  0  0  0  0
    5.1593    8.4563    2.3748 C   0  0  0  0  0  0  0  0  0  0  0  0
    5.9071    7.6976    0.2281 C   0  0  0  0  0  0  0  0  0  0  0  0
    7.1130    6.7586    0.3014 C   0  0  0  0  0  0  0  0  0  0  0  0
    5.0325    7.3727   -0.9839 C   0  0  0  0  0  0  0  0  0  0  0  0
    1.4726    5.9124    3.4491 C   0  0  1  0  0  3  0  0  0  0  0  0
    6.1354    9.5979    2.3973 C   0  0  0  0  0  0  0  0  0  0  0  0
    1.1359    4.3959    1.6246 C   0  0  0  0  0  0  0  0  0  0  0  0
    1.2162    4.7234    0.1327 C   0  0  0  0  0  0  0  0  0  0  0  0
    1.6582    2.9852    1.9050 C   0  0  0  0  0  0  0  0  0  0  0  0
    0.1966    5.5008    4.1265 C   0  0  0  0  0  0  0  0  0  0  0  0
    4.7327    9.8124    4.8560 H   0  0  0  0  0  0  0  0  0  0  0  0
    2.8642    9.3000    6.3710 H   0  0  0  0  0  0  0  0  0  0  0  0
    1.3193    7.4585    5.8499 H   0  0  0  0  0  0  0  0  0  0  0  0
    6.2604    8.7326    0.1278 H   0  0  0  0  0  0  0  0  0  0  0  0
    7.7170    6.8595   -0.5964 H   0  0  0  0  0  0  0  0  0  0  0  0
    6.7685    5.7312    0.3829 H   0  0  0  0  0  0  0  0  0  0  0  0
    7.7288    6.9894    1.1684 H   0  0  0  0  0  0  0  0  0  0  0  0
    5.6129    7.4680   -1.8980 H   0  0  0  0  0  0  0  0  0  0  0  0
    4.1854    8.0566   -1.0310 H   0  0  0  0  0  0  0  0  0  0  0  0
    4.6611    6.3512   -0.9074 H   0  0  0  0  0  0  0  0  0  0  0  0
    7.1352    9.2623    2.1305 H   0  0  0  0  0  0  0  0  0  0  0  0
    6.1774   10.0409    3.3868 H   0  0  0  0  0  0  0  0  0  0  0  0
    5.8321   10.3745    1.6937 H   0  0  0  0  0  0  0  0  0  0  0  0
    0.0838    4.4596    1.9329 H   0  0  0  0  0  0  0  0  0  0  0  0
    0.6321    4.0057   -0.4376 H   0  0  0  0  0  0  0  0  0  0  0  0
    2.2527    4.6771   -0.1997 H   0  0  0  0  0  0  0  0  0  0  0  0
    0.8267    5.7236   -0.0548 H   0  0  0  0  0  0  0  0  0  0  0  0
    1.0660    2.2550    1.3600 H   0  0  0  0  0  0  0  0  0  0  0  0
    1.6050    2.7593    2.9683 H   0  0  0  0  0  0  0  0  0  0  0  0
    2.6941    2.9113    1.5851 H   0  0  0  0  0  0  0  0  0  0  0  0
   -0.6670    5.8790    3.5780 H   0  0  0  0  0  0  0  0  0  0  0  0
    0.1554    5.9024    5.1335 H   0  0  0  0  0  0  0  0  0  0  0  0
    0.1189    4.4175    4.1872 H   0  0  0  0  0  0  0  0  0  0  0  0
  1  2  1  1  0  0  0
  1  5  1  0  0  0  0
  1  3  1  0  0  0  0
  3  6  1  0  0  0  0
  3 10  1  0  0  0  0
  4  1  1  0  0  0  0
  4 11  1  0  0  0  0
  5 15  1  0  0  0  0
  6  7  1  0  0  0  0
  7 21  1  0  0  0  0
  7  8  2  0  0  0  0
  8 22  1  0  0  0  0
  9  8  1  0  0  0  0
  9 23  1  0  0  0  0
 10  9  2  0  0  0  0
 11 16  1  0  0  0  0
 11  6  2  0  0  0  0
 12 13  1  0  0  0  0
 12  4  1  0  0  0  0
 13 26  1  0  0  0  0
 13 27  1  0  0  0  0
 14 30  1  0  0  0  0
 14 12  1  0  0  0  0
 15 10  1  0  0  0  0
 15 20  1  6  0  0  0
 16 32  1  0  0  0  0
 17 19  1  0  0  0  0
 17 34  1  0  0  0  0
 17  5  1  0  0  0  0
 18 17  1  0  0  0  0
 19 39  1  0  0  0  0
 20 43  1  0  0  0  0
 20 42  1  0  0  0  0
 24 12  1  0  0  0  0
 25 13  1  0  0  0  0
 28 14  1  0  0  0  0
 29 14  1  0  0  0  0
 31 16  1  0  0  0  0
 33 16  1  0  0  0  0
 35 18  1  0  0  0  0
 36 18  1  0  0  0  0
 37 18  1  0  0  0  0
 38 19  1  0  0  0  0
 40 19  1  0  0  0  0
 41 20  1  0  0  0  0
M  END
$$$$
