CSD_code = RIVVEY | q = 0 | S = 0 | Stoichiometry = C10H20Cl4N2O4Pt | MND = 6
 OpenBabel04212202093D

 41 41  0  0  0  0  0  0  0  0999 V2000
   -2.6552    3.3872   -0.6944 C   0  0  0  0  0  0  0  0  0  0  0  0
   -3.4389    3.3489   -1.4578 H   0  0  0  0  0  0  0  0  0  0  0  0
   -2.0551    4.2923   -0.8345 H   0  0  0  0  0  0  0  0  0  0  0  0
   -1.3171    1.9897   -2.2000 C   0  0  0  0  0  0  0  0  0  0  0  0
   -2.1366    2.0570   -2.9194 H   0  0  0  0  0  0  0  0  0  0  0  0
   -0.8946    0.9795   -2.2768 H   0  0  0  0  0  0  0  0  0  0  0  0
   -0.2232    2.9957   -2.5372 C   0  0  0  0  0  0  0  0  0  0  0  0
    1.2361    3.7123   -4.2461 C   0  0  0  0  0  0  0  0  0  0  0  0
    1.1531    4.6916   -3.7644 H   0  0  0  0  0  0  0  0  0  0  0  0
    1.0859    3.8098   -5.3225 H   0  0  0  0  0  0  0  0  0  0  0  0
    2.5808    3.0753   -3.9321 C   0  0  0  0  0  0  0  0  0  0  0  0
    2.6375    2.0825   -4.3711 H   0  0  0  0  0  0  0  0  0  0  0  0
    2.7157    2.9945   -2.8563 H   0  0  0  0  0  0  0  0  0  0  0  0
    3.3775    3.6901   -4.3402 H   0  0  0  0  0  0  0  0  0  0  0  0
    0.1562    2.8816   -3.7973 O   0  0  0  0  0  0  0  0  0  0  0  0
    0.2160    3.7801   -1.7348 O   0  0  0  0  0  0  0  0  0  0  0  0
   -1.8187    2.1896   -0.8465 N   0  0  0  0  0  4  0  0  0  0  0  0
   -1.0093    2.2783   -0.2201 H   0  0  0  0  0  0  0  0  0  0  0  0
   -1.5112    0.6953    1.8551 Cl  0  0  0  0  0  0  0  0  0  0  0  0
   -4.2728   -1.0414    0.9811 Cl  0  0  0  0  0  0  0  0  0  0  0  0
   -2.9711    0.5804    0.0000 Pt  0  0  0  0  0  0  0  0  0  0  0  0
   -3.2874    3.3872    0.6943 C   0  0  0  0  0  0  0  0  0  0  0  0
   -2.5037    3.3489    1.4577 H   0  0  0  0  0  0  0  0  0  0  0  0
   -3.8876    4.2922    0.8344 H   0  0  0  0  0  0  0  0  0  0  0  0
   -4.6255    1.9896    2.1999 C   0  0  0  0  0  0  0  0  0  0  0  0
   -3.8059    2.0569    2.9192 H   0  0  0  0  0  0  0  0  0  0  0  0
   -5.0480    0.9794    2.2767 H   0  0  0  0  0  0  0  0  0  0  0  0
   -5.7193    2.9957    2.5372 C   0  0  0  0  0  0  0  0  0  0  0  0
   -7.1786    3.7123    4.2461 C   0  0  0  0  0  0  0  0  0  0  0  0
   -7.0956    4.6916    3.7644 H   0  0  0  0  0  0  0  0  0  0  0  0
   -7.0283    3.8098    5.3225 H   0  0  0  0  0  0  0  0  0  0  0  0
   -8.5232    3.0753    3.9322 C   0  0  0  0  0  0  0  0  0  0  0  0
   -8.5800    2.0826    4.3712 H   0  0  0  0  0  0  0  0  0  0  0  0
   -8.6582    2.9945    2.8564 H   0  0  0  0  0  0  0  0  0  0  0  0
   -9.3199    3.6901    4.3403 H   0  0  0  0  0  0  0  0  0  0  0  0
   -6.0986    2.8816    3.7973 O   0  0  0  0  0  0  0  0  0  0  0  0
   -6.1586    3.7801    1.7348 O   0  0  0  0  0  0  0  0  0  0  0  0
   -4.1239    2.1895    0.8464 N   0  0  0  0  0  4  0  0  0  0  0  0
   -4.9333    2.2782    0.2200 H   0  0  0  0  0  0  0  0  0  0  0  0
   -4.4313    0.6952   -1.8548 Cl  0  0  0  0  0  0  0  0  0  0  0  0
   -1.6697   -1.0421   -0.9812 Cl  0  0  0  0  0  0  0  0  0  0  0  0
  1 22  1  0  0  0  0
  2  1  1  0  0  0  0
  3  1  1  0  0  0  0
  4 17  1  0  0  0  0
  5  4  1  0  0  0  0
  6  4  1  0  0  0  0
  7  4  1  0  0  0  0
  7 16  2  0  0  0  0
  8 11  1  0  0  0  0
  8 15  1  0  0  0  0
  8  9  1  0  0  0  0
 10  8  1  0  0  0  0
 11 13  1  0  0  0  0
 12 11  1  0  0  0  0
 14 11  1  0  0  0  0
 15  7  1  0  0  0  0
 17  1  1  0  0  0  0
 17 18  1  0  0  0  0
 17 21  1  0  0  0  0
 21 38  1  0  0  0  0
 21 20  1  0  0  0  0
 21 19  1  0  0  0  0
 22 24  1  0  0  0  0
 22 38  1  0  0  0  0
 22 23  1  0  0  0  0
 25 27  1  0  0  0  0
 25 28  1  0  0  0  0
 25 26  1  0  0  0  0
 28 36  1  0  0  0  0
 29 31  1  0  0  0  0
 30 29  1  0  0  0  0
 32 29  1  0  0  0  0
 32 35  1  0  0  0  0
 32 33  1  0  0  0  0
 34 32  1  0  0  0  0
 36 29  1  0  0  0  0
 37 28  2  0  0  0  0
 38 25  1  0  0  0  0
 39 38  1  0  0  0  0
 40 21  1  0  0  0  0
 41 21  1  0  0  0  0
M  END
$$$$
