CSD_code = RIVWID | q = 0 | S = 0 | Stoichiometry = C12H9ClF3N5Pt | MND = 4
 OpenBabel04212202093D

 31 34  0  0  1  0  0  0  0  0999 V2000
    9.8923    2.1752    5.8965 Pt  0  0  1  0  0  0  0  0  0  0  0  0
    7.6482    2.1071    6.0126 Cl  0  0  0  0  0  0  0  0  0  0  0  0
    9.9745    0.1764    5.8791 N   0  0  2  0  0  0  0  0  0  0  0  0
   11.1497   -0.4579    5.7981 N   0  0  0  0  0  0  0  0  0  0  0  0
   12.0284    0.0949    5.7522 H   0  0  0  0  0  0  0  0  0  0  0  0
    9.9792    4.1782    5.9032 N   0  0  0  0  0  0  0  0  0  0  0  0
   11.8586    2.4018    5.7954 N   0  0  0  0  0  0  0  0  0  0  0  0
   12.8820    1.5836    5.7375 N   0  0  0  0  0  2  0  0  0  0  0  0
    9.0302   -0.7592    5.9319 C   0  0  0  0  0  3  0  0  0  0  0  0
    7.9907   -0.5030    6.0006 H   0  0  0  0  0  0  0  0  0  0  0  0
    9.6183   -2.0213    5.8836 C   0  0  0  0  0  0  0  0  0  0  0  0
    9.1198   -2.9672    5.9078 H   0  0  0  0  0  0  0  0  0  0  0  0
   10.9746   -1.7830    5.7986 C   0  0  0  0  0  0  0  0  0  0  0  0
   11.8010   -2.4617    5.7392 H   0  0  0  0  0  0  0  0  0  0  0  0
    8.9494    5.0210    5.9625 C   0  0  0  0  0  0  0  0  0  0  0  0
    7.9649    4.5739    6.0131 H   0  0  0  0  0  0  0  0  0  0  0  0
    9.1115    6.3944    5.9603 C   0  0  0  0  0  0  0  0  0  0  0  0
    8.2458    7.0341    6.0099 H   0  0  0  0  0  0  0  0  0  0  0  0
   10.3932    6.9246    5.8939 C   0  0  0  0  0  0  0  0  0  0  0  0
   10.5495    7.9923    5.8905 H   0  0  0  0  0  0  0  0  0  0  0  0
   11.4669    6.0579    5.8322 C   0  0  0  0  0  0  0  0  0  0  0  0
   12.4807    6.4200    5.7793 H   0  0  0  0  0  0  0  0  0  0  0  0
   11.2347    4.6849    5.8383 C   0  0  0  0  0  0  0  0  0  0  0  0
   12.2728    3.6883    5.7787 C   0  0  0  0  0  0  0  0  0  0  0  0
   13.6676    3.6909    5.7043 C   0  0  0  0  0  0  0  0  0  0  0  0
   14.3415    4.5204    5.6692 H   0  0  0  0  0  0  0  0  0  0  0  0
   13.9921    2.3377    5.6793 C   0  0  0  0  0  0  0  0  0  0  0  0
   15.3357    1.7096    5.6199 C   0  0  0  0  0  0  0  0  0  0  0  0
   15.7499    1.2499    6.8193 F   0  0  0  0  0  0  0  0  0  0  0  0
   15.3805    0.6544    4.7883 F   0  0  0  0  0  0  0  0  0  0  0  0
   16.2781    2.5701    5.2046 F   0  0  0  0  0  0  0  0  0  0  0  0
  1  6  1  0  0  0  0
  1  2  1  1  0  0  0
  3  1  1  0  0  0  0
  3  9  1  6  0  0  0
  4 13  1  0  0  0  0
  4  3  1  0  0  0  0
  5  4  1  0  0  0  0
  6 15  1  0  0  0  0
  7  1  1  0  0  0  0
  8  7  1  0  0  0  0
  9 10  1  0  0  0  0
 11 12  1  0  0  0  0
 11  9  1  0  0  0  0
 13 11  2  0  0  0  0
 14 13  1  0  0  0  0
 15 16  1  0  0  0  0
 17 15  2  0  0  0  0
 17 18  1  0  0  0  0
 19 17  1  0  0  0  0
 20 19  1  0  0  0  0
 21 23  1  0  0  0  0
 21 19  2  0  0  0  0
 22 21  1  0  0  0  0
 23  6  1  0  0  0  0
 24  7  1  0  0  0  0
 24 23  2  0  0  0  0
 25 24  1  0  0  0  0
 26 25  1  0  0  0  0
 27 25  2  0  0  0  0
 27  8  1  0  0  0  0
 28 27  1  0  0  0  0
 28 29  1  0  0  0  0
 30 28  1  0  0  0  0
 31 28  1  0  0  0  0
M  END
$$$$
