CSD_code = RIVYOM | q = 0 | S = 0 | Stoichiometry = C19H34BClN6O3PRh | MND = 6
 OpenBabel04212202093D

 66 70  0  0  1  0  0  0  0  0999 V2000
   11.8260    0.1663    3.5985 Rh  0  0  0  0  0  0  0  0  0  0  0  0
   10.8536    1.9002    2.5008 Cl  0  0  0  0  0  0  0  0  0  0  0  0
   11.9726   -0.9637    1.6124 P   0  0  0  0  0  4  0  0  0  0  0  0
   12.2012   -0.2610    0.1640 O   0  0  0  0  0  0  0  0  0  0  0  0
   10.7654   -1.9842    1.2892 O   0  0  0  0  0  0  0  0  0  0  0  0
   13.1996   -2.0072    1.4825 O   0  0  0  0  0  0  0  0  0  0  0  0
   12.7593   -1.3617    4.6457 N   0  0  2  0  0  0  0  0  0  0  0  0
   13.8450   -1.0032    5.3564 N   0  0  0  0  0  0  0  0  0  0  0  0
   11.7540    1.1718    5.3561 N   0  0  1  0  0  0  0  0  0  0  0  0
   12.8627    1.1427    6.1221 N   0  0  0  0  0  0  0  0  0  0  0  0
   13.8573    1.2037    3.3117 N   0  0  2  0  0  0  0  0  0  0  0  0
   14.6463    1.1622    4.4031 N   0  0  0  0  0  0  0  0  0  0  0  0
   12.6743   -2.6922    4.6734 C   0  0  1  0  0  3  0  0  0  0  0  0
   13.7509   -3.1960    5.4072 C   0  0  0  0  0  0  0  0  0  0  0  0
   13.9656   -4.2263    5.6060 H   0  0  0  0  0  0  0  0  0  0  0  0
   14.4724   -2.0960    5.8247 C   0  0  0  0  0  0  0  0  0  0  0  0
   10.8350    1.9041    5.9862 C   0  0  2  0  0  3  0  0  0  0  0  0
   11.3755    2.3529    7.1942 C   0  0  0  0  0  0  0  0  0  0  0  0
   10.8866    2.9646    7.9250 H   0  0  0  0  0  0  0  0  0  0  0  0
   12.6598    1.8541    7.2460 C   0  0  0  0  0  0  0  0  0  0  0  0
   14.4635    1.9651    2.4036 C   0  0  2  0  0  3  0  0  0  0  0  0
   15.6813    2.4136    2.9246 C   0  0  0  0  0  0  0  0  0  0  0  0
   16.3968    3.0438    2.4364 H   0  0  0  0  0  0  0  0  0  0  0  0
   15.7610    1.8881    4.1984 C   0  0  0  0  0  0  0  0  0  0  0  0
   11.5909   -3.5203    4.0856 C   0  0  0  0  0  0  0  0  0  0  0  0
   11.3349   -3.1821    3.0892 H   0  0  0  0  0  0  0  0  0  0  0  0
   10.6980   -3.4648    4.7068 H   0  0  0  0  0  0  0  0  0  0  0  0
   11.9180   -4.5568    4.0431 H   0  0  0  0  0  0  0  0  0  0  0  0
   15.7210   -2.0643    6.6296 C   0  0  0  0  0  0  0  0  0  0  0  0
   16.5043   -1.5216    6.1038 H   0  0  0  0  0  0  0  0  0  0  0  0
   16.0571   -3.0815    6.8126 H   0  0  0  0  0  0  0  0  0  0  0  0
   15.5533   -1.5730    7.5865 H   0  0  0  0  0  0  0  0  0  0  0  0
    9.4587    2.2092    5.5133 C   0  0  0  0  0  0  0  0  0  0  0  0
    9.4451    2.3693    4.4394 H   0  0  0  0  0  0  0  0  0  0  0  0
    9.1051    3.1084    6.0129 H   0  0  0  0  0  0  0  0  0  0  0  0
    8.7803    1.3927    5.7565 H   0  0  0  0  0  0  0  0  0  0  0  0
   13.6709    2.0378    8.3200 C   0  0  0  0  0  0  0  0  0  0  0  0
   14.5477    2.5603    7.9415 H   0  0  0  0  0  0  0  0  0  0  0  0
   13.9935    1.0772    8.7177 H   0  0  0  0  0  0  0  0  0  0  0  0
   13.2349    2.6237    9.1248 H   0  0  0  0  0  0  0  0  0  0  0  0
   13.9149    2.2861    1.0622 C   0  0  0  0  0  0  0  0  0  0  0  0
   13.8737    1.3965    0.4377 H   0  0  0  0  0  0  0  0  0  0  0  0
   14.5456    3.0288    0.5800 H   0  0  0  0  0  0  0  0  0  0  0  0
   12.9049    2.6784    1.1591 H   0  0  0  0  0  0  0  0  0  0  0  0
   16.8436    2.0544    5.2033 C   0  0  0  0  0  0  0  0  0  0  0  0
   17.2299    1.0883    5.5235 H   0  0  0  0  0  0  0  0  0  0  0  0
   16.4754    2.5792    6.0834 H   0  0  0  0  0  0  0  0  0  0  0  0
   17.6545    2.6316    4.7667 H   0  0  0  0  0  0  0  0  0  0  0  0
    9.9552   -0.6432    3.9981 C   0  0  0  0  0  0  0  0  0  0  0  0
    9.8743   -0.8945    5.0578 H   0  0  0  0  0  0  0  0  0  0  0  0
    9.7697   -1.5365    3.4090 H   0  0  0  0  0  0  0  0  0  0  0  0
    9.1801    0.0787    3.7462 H   0  0  0  0  0  0  0  0  0  0  0  0
   11.2055    0.5474   -0.4513 C   0  0  0  0  0  0  0  0  0  0  0  0
   11.6142    0.8500   -1.4152 H   0  0  0  0  0  0  0  0  0  0  0  0
   10.9841    1.4220    0.1601 H   0  0  0  0  0  0  0  0  0  0  0  0
   10.2859   -0.0218   -0.6005 H   0  0  0  0  0  0  0  0  0  0  0  0
   10.8130   -2.8505    0.1624 C   0  0  0  0  0  0  0  0  0  0  0  0
    9.7870   -2.9862   -0.1801 H   0  0  0  0  0  0  0  0  0  0  0  0
   11.2343   -3.8133    0.4558 H   0  0  0  0  0  0  0  0  0  0  0  0
   11.4213   -2.4280   -0.6376 H   0  0  0  0  0  0  0  0  0  0  0  0
   14.5420   -1.6319    1.7093 C   0  0  0  0  0  0  0  0  0  0  0  0
   15.1145   -2.5570    1.7834 H   0  0  0  0  0  0  0  0  0  0  0  0
   14.6433   -1.0650    2.6357 H   0  0  0  0  0  0  0  0  0  0  0  0
   14.9205   -1.0305    0.8810 H   0  0  0  0  0  0  0  0  0  0  0  0
   14.1664    0.4637    5.6764 B   0  0  2  0  0  0  0  0  0  0  0  0
   14.9809    0.5284    6.5240 H   0  0  0  0  0  0  0  0  0  0  0  0
  1 49  1  0  0  0  0
  1  7  1  0  0  0  0
  1  9  1  0  0  0  0
  2  1  1  0  0  0  0
  3  1  1  0  0  0  0
  4  3  1  0  0  0  0
  5  3  1  0  0  0  0
  6  3  1  0  0  0  0
  6 61  1  0  0  0  0
  7 13  1  0  0  0  0
  7  8  1  6  0  0  0
  8 65  1  0  0  0  0
  8 16  1  0  0  0  0
  9 17  1  0  0  0  0
  9 10  1  6  0  0  0
 10 20  1  0  0  0  0
 11  1  1  0  0  0  0
 11 12  1  1  0  0  0
 12 65  1  0  0  0  0
 13 25  1  1  0  0  0
 13 14  1  0  0  0  0
 14 15  1  0  0  0  0
 14 16  2  0  0  0  0
 16 29  1  0  0  0  0
 17 33  1  1  0  0  0
 17 18  1  0  0  0  0
 18 20  2  0  0  0  0
 18 19  1  0  0  0  0
 20 37  1  0  0  0  0
 21 41  1  1  0  0  0
 21 22  1  0  0  0  0
 21 11  1  0  0  0  0
 22 24  2  0  0  0  0
 23 22  1  0  0  0  0
 24 12  1  0  0  0  0
 24 45  1  0  0  0  0
 25 27  1  0  0  0  0
 26 25  1  0  0  0  0
 28 25  1  0  0  0  0
 29 31  1  0  0  0  0
 29 32  1  0  0  0  0
 30 29  1  0  0  0  0
 33 36  1  0  0  0  0
 33 35  1  0  0  0  0
 34 33  1  0  0  0  0
 37 39  1  0  0  0  0
 37 40  1  0  0  0  0
 38 37  1  0  0  0  0
 41 44  1  0  0  0  0
 42 41  1  0  0  0  0
 43 41  1  0  0  0  0
 45 46  1  0  0  0  0
 45 47  1  0  0  0  0
 48 45  1  0  0  0  0
 49 50  1  0  0  0  0
 51 49  1  0  0  0  0
 52 49  1  0  0  0  0
 53 55  1  0  0  0  0
 53  4  1  0  0  0  0
 54 53  1  0  0  0  0
 56 53  1  0  0  0  0
 57 59  1  0  0  0  0
 57  5  1  0  0  0  0
 58 57  1  0  0  0  0
 60 57  1  0  0  0  0
 61 62  1  0  0  0  0
 61 63  1  0  0  0  0
 64 61  1  0  0  0  0
 65 10  1  0  0  0  0
 65 66  1  1  0  0  0
M  END
$$$$
