CSD_code = RIXHIQ | q = 0 | S = 0 | Stoichiometry = C10H8ClN2O4Re | MND = 6
 OpenBabel04212202093D

 26 27  0  0  1  0  0  0  0  0999 V2000
    6.4639    7.1278    8.4654 Re  0  0  0  0  0  0  0  0  0  0  0  0
    6.4416    7.8101    6.1837 Cl  0  0  0  0  0  0  0  0  0  0  0  0
    8.4347    6.3799    7.7300 O   0  0  0  0  0  0  0  0  0  0  0  0
    4.8106    8.0427    8.9023 C   0  0  0  0  0  2  0  0  0  0  0  0
    5.0340    4.5468    7.5599 O   0  0  0  0  0  1  0  0  0  0  0  0
    6.7732    6.5786   10.3020 C   0  0  0  0  0  2  0  0  0  0  0  0
    7.7654    8.8263    8.5459 N   0  0  0  0  0  0  0  0  0  0  0  0
    7.0036    6.2643   11.3792 O   0  0  0  0  0  1  0  0  0  0  0  0
    5.5122    5.4957    7.9744 C   0  0  0  0  0  2  0  0  0  0  0  0
    3.8612    8.6503    9.1183 O   0  0  0  0  0  1  0  0  0  0  0  0
    8.9101    7.3329    7.1014 C   0  0  1  0  0  3  0  0  0  0  0  0
    8.7597    8.7145    7.6494 C   0  0  2  0  0  3  0  0  0  0  0  0
    9.7119    7.1534    6.0403 N   0  0  0  0  0  0  0  0  0  0  0  0
    7.5820    9.9907    9.1557 C   0  0  0  0  0  0  0  0  0  0  0  0
    6.7682   10.0333    9.8678 H   0  0  0  0  0  0  0  0  0  0  0  0
    9.6086    9.7747    7.3550 C   0  0  0  0  0  0  0  0  0  0  0  0
   10.4197    9.6540    6.6539 H   0  0  0  0  0  0  0  0  0  0  0  0
    8.3702   11.1003    8.9028 C   0  0  0  0  0  0  0  0  0  0  0  0
    8.1742   12.0286    9.4140 H   0  0  0  0  0  0  0  0  0  0  0  0
    9.4024   10.9910    7.9829 C   0  0  0  0  0  0  0  0  0  0  0  0
   10.0377   11.8347    7.7609 H   0  0  0  0  0  0  0  0  0  0  0  0
    9.8229    5.8607    5.4020 C   0  0  0  0  0  0  0  0  0  0  0  0
    9.5866    5.0950    6.1386 H   0  0  0  0  0  0  0  0  0  0  0  0
   10.8408    5.7222    5.0402 H   0  0  0  0  0  0  0  0  0  0  0  0
    9.1235    5.7763    4.5667 H   0  0  0  0  0  0  0  0  0  0  0  0
    9.9392    7.9532    5.4708 H   0  0  0  0  0  0  0  0  0  0  0  0
  1  7  1  0  0  0  0
  1  4  1  0  0  0  0
  1  6  1  0  0  0  0
  2  1  1  0  0  0  0
  3  1  1  0  0  0  0
  4 10  1  0  0  0  0
  5  9  1  0  0  0  0
  6  8  1  0  0  0  0
  7 14  1  0  0  0  0
  9  1  1  0  0  0  0
 11 13  1  1  0  0  0
 11 12  1  0  0  0  0
 11  3  1  0  0  0  0
 12 16  1  1  0  0  0
 12  7  1  0  0  0  0
 14 15  1  0  0  0  0
 16 20  2  0  0  0  0
 17 16  1  0  0  0  0
 18 14  2  0  0  0  0
 18 19  1  0  0  0  0
 20 18  1  0  0  0  0
 21 20  1  0  0  0  0
 22 13  1  0  0  0  0
 22 23  1  0  0  0  0
 24 22  1  0  0  0  0
 25 22  1  0  0  0  0
 26 13  1  0  0  0  0
M  END
$$$$
