CSD_code = RIXROH | q = 0 | S = 0 | Stoichiometry = C21H23ClCoN | MND = 8
 OpenBabel04212202093D

 47 50  0  0  1  0  0  0  0  0999 V2000
    0.7915   11.2118    3.0241 Co  0  0  2  0  0  0  0  0  0  0  0  0
    2.7209   11.9560    2.3783 Cl  0  0  0  0  0 15  0  0  0  0  0  0
    1.2650    9.4844    2.3881 C   0  0  0  0  0  0  0  0  0  0  0  0
    1.5129   10.5752    4.6527 N   0  0  0  0  0  0  0  0  0  0  0  0
    1.7825    9.2523    4.7058 C   0  0  2  0  0  3  0  0  0  0  0  0
    2.2167   10.8039    6.9148 C   0  0  0  0  0  0  0  0  0  0  0  0
    2.3996   11.4550    7.7545 H   0  0  0  0  0  0  0  0  0  0  0  0
    1.5635    7.6881    0.8174 C   0  0  0  0  0  0  0  0  0  0  0  0
    1.5621    7.3360   -0.2045 H   0  0  0  0  0  0  0  0  0  0  0  0
    1.2740    9.0168    1.0834 C   0  0  0  0  0  0  0  0  0  0  0  0
    1.0744    9.6863    0.2602 H   0  0  0  0  0  0  0  0  0  0  0  0
    1.9111    7.2646    3.1481 C   0  0  0  0  0  0  0  0  0  0  0  0
    2.1794    6.5901    3.9482 H   0  0  0  0  0  0  0  0  0  0  0  0
   -1.1871   11.3056    3.6100 C   0  0  2  0  0  0  0  0  0  0  0  0
   -0.4195   12.0812    1.5951 C   0  0  1  0  0  0  0  0  0  0  0  0
    2.4377    9.4350    7.0046 C   0  0  0  0  0  0  0  0  0  0  0  0
    2.7823    8.9923    7.9269 H   0  0  0  0  0  0  0  0  0  0  0  0
    1.8588    6.8075    1.8483 C   0  0  0  0  0  0  0  0  0  0  0  0
    2.0722    5.7714    1.6297 H   0  0  0  0  0  0  0  0  0  0  0  0
   -1.1231   11.0115    2.2162 C   0  0  2  0  0  3  0  0  0  0  0  0
   -0.6742   12.6362    3.8179 C   0  0  0  0  0  0  0  0  0  0  0  0
    2.2331    8.6575    5.8834 C   0  0  0  0  0  0  0  0  0  0  0  0
    2.4271    7.5974    5.9055 H   0  0  0  0  0  0  0  0  0  0  0  0
   -0.1995   13.1072    2.5884 C   0  0  0  0  0  0  0  0  0  0  0  0
    1.7605   11.3278    5.7213 C   0  0  0  0  0  0  0  0  0  0  0  0
    1.6046   12.3914    5.6138 H   0  0  0  0  0  0  0  0  0  0  0  0
   -1.8296    9.8755    1.5461 C   0  0  0  0  0  0  0  0  0  0  0  0
   -2.8911   10.1170    1.4618 H   0  0  0  0  0  0  0  0  0  0  0  0
   -1.7348    8.9542    2.1170 H   0  0  0  0  0  0  0  0  0  0  0  0
   -1.4392    9.6965    0.5486 H   0  0  0  0  0  0  0  0  0  0  0  0
   -0.8275   13.4282    5.0795 C   0  0  0  0  0  0  0  0  0  0  0  0
   -1.7839   13.9557    5.0596 H   0  0  0  0  0  0  0  0  0  0  0  0
   -0.0384   14.1705    5.1843 H   0  0  0  0  0  0  0  0  0  0  0  0
   -0.8214   12.7853    5.9577 H   0  0  0  0  0  0  0  0  0  0  0  0
   -1.9399   10.5033    4.6241 C   0  0  0  0  0  0  0  0  0  0  0  0
   -1.5364   10.6468    5.6250 H   0  0  0  0  0  0  0  0  0  0  0  0
   -1.9005    9.4421    4.3875 H   0  0  0  0  0  0  0  0  0  0  0  0
   -2.9875   10.8113    4.6341 H   0  0  0  0  0  0  0  0  0  0  0  0
    0.3577   14.4560    2.2752 C   0  0  0  0  0  0  0  0  0  0  0  0
    1.3792   14.3636    1.9057 H   0  0  0  0  0  0  0  0  0  0  0  0
    0.3629   15.0952    3.1544 H   0  0  0  0  0  0  0  0  0  0  0  0
   -0.2416   14.9323    1.4982 H   0  0  0  0  0  0  0  0  0  0  0  0
   -0.2211   12.3122    0.1298 C   0  0  0  0  0  0  0  0  0  0  0  0
   -0.8687   13.1250   -0.2045 H   0  0  0  0  0  0  0  0  0  0  0  0
   -0.4620   11.4243   -0.4488 H   0  0  0  0  0  0  0  0  0  0  0  0
    0.8099   12.5962   -0.0743 H   0  0  0  0  0  0  0  0  0  0  0  0
    1.6313    8.6039    3.4202 C   0  0  0  0  0  0  0  0  0  0  0  0
  1  3  1  6  0  0  0
  1 14  1  0  0  0  0
  1  4  1  0  0  0  0
  3 47  1  0  0  0  0
  4  5  1  0  0  0  0
  4 25  1  0  0  0  0
  5 47  1  6  0  0  0
  5 22  1  0  0  0  0
  6 16  1  0  0  0  0
  6  7  1  0  0  0  0
  8 10  1  0  0  0  0
  8 18  2  0  0  0  0
  9  8  1  0  0  0  0
 10  3  2  0  0  0  0
 11 10  1  0  0  0  0
 12 47  2  0  0  0  0
 12 13  1  0  0  0  0
 14 21  1  0  0  0  0
 14 35  1  1  0  0  0
 15 43  1  6  0  0  0
 15 20  1  0  0  0  0
 15 24  1  0  0  0  0
 15  1  1  0  0  0  0
 16 17  1  0  0  0  0
 18 12  1  0  0  0  0
 19 18  1  0  0  0  0
 20 27  1  6  0  0  0
 20 14  1  0  0  0  0
 21 31  1  0  0  0  0
 22 23  1  0  0  0  0
 22 16  2  0  0  0  0
 24 21  2  0  0  0  0
 25  6  2  0  0  0  0
 26 25  1  0  0  0  0
 27 29  1  0  0  0  0
 28 27  1  0  0  0  0
 30 27  1  0  0  0  0
 31 33  1  0  0  0  0
 31 34  1  0  0  0  0
 32 31  1  0  0  0  0
 35 38  1  0  0  0  0
 35 36  1  0  0  0  0
 37 35  1  0  0  0  0
 39 24  1  0  0  0  0
 39 41  1  0  0  0  0
 40 39  1  0  0  0  0
 42 39  1  0  0  0  0
 44 43  1  0  0  0  0
 45 43  1  0  0  0  0
 46 43  1  0  0  0  0
M  END
$$$$
