CSD_code = RIXSAS | q = 0 | S = 0 | Stoichiometry = C13H23ClPtS2 | MND = 4
 OpenBabel04212202093D

 40 40  0  0  0  0  0  0  0  0999 V2000
    1.0624    0.0762    3.0932 Pt  0  0  0  0  0  0  0  0  0  0  0  0
    3.3422   -0.1646    3.5189 S   0  0  0  0  0  3  0  0  0  0  0  0
   -1.2500    0.1543    2.7217 S   0  0  0  0  0  3  0  0  0  0  0  0
    1.2685   -2.0945    1.9937 Cl  0  0  0  0  0  0  0  0  0  0  0  0
    1.1038    3.0463    3.2219 C   0  0  0  0  0  0  0  0  0  0  0  0
    0.9735    4.3950    5.2238 C   0  0  0  0  0  0  0  0  0  0  0  0
    0.8303    3.2353    5.9684 C   0  0  0  0  0  0  0  0  0  0  0  0
    1.1060    4.2855    3.8467 C   0  0  0  0  0  0  0  0  0  0  0  0
    0.9743    1.8862    3.9811 C   0  0  0  0  0  0  0  0  0  0  0  0
    0.9801    5.7454    5.8780 C   0  0  0  0  0  0  0  0  0  0  0  0
    0.8274    1.9858    5.3603 C   0  0  0  0  0  0  0  0  0  0  0  0
    0.6590    0.7475    6.1991 C   0  0  0  0  0  0  0  0  0  0  0  0
    3.9823   -0.0295    1.8237 C   0  0  0  0  0  0  0  0  0  0  0  0
    1.2398    2.9660    1.7232 C   0  0  0  0  0  0  0  0  0  0  0  0
    4.0629    1.3654    4.1928 C   0  0  0  0  0  0  0  0  0  0  0  0
   -1.3482   -0.2995    0.9649 C   0  0  0  0  0  0  0  0  0  0  0  0
   -1.7021   -1.4497    3.4451 C   0  0  0  0  0  0  0  0  0  0  0  0
    1.2118    5.1813    3.2489 H   0  0  0  0  0  0  0  0  0  0  0  0
    0.7188    3.2990    7.0427 H   0  0  0  0  0  0  0  0  0  0  0  0
    0.9331    5.6534    6.9603 H   0  0  0  0  0  0  0  0  0  0  0  0
    1.8835    6.2942    5.6141 H   0  0  0  0  0  0  0  0  0  0  0  0
    0.1250    6.3326    5.5439 H   0  0  0  0  0  0  0  0  0  0  0  0
   -0.3605    0.6887    6.5793 H   0  0  0  0  0  0  0  0  0  0  0  0
    0.8610   -0.1480    5.6005 H   0  0  0  0  0  0  0  0  0  0  0  0
    1.3349    0.7590    7.0529 H   0  0  0  0  0  0  0  0  0  0  0  0
    5.0594   -0.1734    1.8479 H   0  0  0  0  0  0  0  0  0  0  0  0
    3.5137   -0.8205    1.2440 H   0  0  0  0  0  0  0  0  0  0  0  0
    3.7339    0.9427    1.4078 H   0  0  0  0  0  0  0  0  0  0  0  0
    0.3881    3.4446    1.2419 H   0  0  0  0  0  0  0  0  0  0  0  0
    2.1424    3.4743    1.3841 H   0  0  0  0  0  0  0  0  0  0  0  0
    1.2753    1.9180    1.4018 H   0  0  0  0  0  0  0  0  0  0  0  0
    3.7156    1.4683    5.2151 H   0  0  0  0  0  0  0  0  0  0  0  0
    5.1446    1.2634    4.1741 H   0  0  0  0  0  0  0  0  0  0  0  0
    3.7423    2.2255    3.6144 H   0  0  0  0  0  0  0  0  0  0  0  0
   -2.3701   -0.5947    0.7425 H   0  0  0  0  0  0  0  0  0  0  0  0
   -1.0810    0.5789    0.3856 H   0  0  0  0  0  0  0  0  0  0  0  0
   -0.6505   -1.1128    0.7718 H   0  0  0  0  0  0  0  0  0  0  0  0
   -2.7264   -1.6802    3.1639 H   0  0  0  0  0  0  0  0  0  0  0  0
   -1.0143   -2.2094    3.0794 H   0  0  0  0  0  0  0  0  0  0  0  0
   -1.6244   -1.3537    4.5241 H   0  0  0  0  0  0  0  0  0  0  0  0
  1  2  1  0  0  0  0
  1  9  1  0  0  0  0
  2 15  1  0  0  0  0
  3  1  1  0  0  0  0
  3 17  1  0  0  0  0
  4  1  1  0  0  0  0
  5  8  2  0  0  0  0
  5  9  1  0  0  0  0
  6 10  1  0  0  0  0
  6  7  2  0  0  0  0
  7 19  1  0  0  0  0
  8  6  1  0  0  0  0
  9 11  2  0  0  0  0
 10 20  1  0  0  0  0
 11  7  1  0  0  0  0
 11 12  1  0  0  0  0
 12 23  1  0  0  0  0
 12 25  1  0  0  0  0
 13 26  1  0  0  0  0
 13  2  1  0  0  0  0
 14  5  1  0  0  0  0
 15 32  1  0  0  0  0
 16  3  1  0  0  0  0
 17 40  1  0  0  0  0
 18  8  1  0  0  0  0
 21 10  1  0  0  0  0
 22 10  1  0  0  0  0
 24 12  1  0  0  0  0
 27 13  1  0  0  0  0
 28 13  1  0  0  0  0
 29 14  1  0  0  0  0
 30 14  1  0  0  0  0
 31 14  1  0  0  0  0
 33 15  1  0  0  0  0
 34 15  1  0  0  0  0
 35 16  1  0  0  0  0
 36 16  1  0  0  0  0
 37 16  1  0  0  0  0
 38 17  1  0  0  0  0
 39 17  1  0  0  0  0
M  END
$$$$
