CSD_code = RIXXEB | q = 0 | S = 0 | Stoichiometry = C26H32ClN2O3Re | MND = 6
 OpenBabel04212202093D

 65 70  0  0  1  0  0  0  0  0999 V2000
    7.0789    1.9169   19.1400 Re  0  0  0  0  0  0  0  0  0  0  0  0
    7.5537    0.1036   17.8294 Cl  0  0  0  0  0  0  0  0  0  0  0  0
    5.3687    0.9171   19.7624 O   0  0  0  0  0  0  0  0  0  0  0  0
    8.0604    1.5576   20.4269 O   0  0  0  0  0  1  0  0  0  0  0  0
    6.0053    2.6408   17.7884 O   0  0  0  0  0  0  0  0  0  0  0  0
    6.3781    3.6969   20.2287 N   0  0  1  0  0  0  0  0  0  0  0  0
    8.6696    2.9589   18.1094 N   0  0  2  0  0  0  0  0  0  0  0  0
    4.3150    1.4346   20.2804 C   0  0  0  0  0  0  0  0  0  0  0  0
    3.1892    0.5774   20.4132 C   0  0  0  0  0  0  0  0  0  0  0  0
    2.0039    1.0064   20.9410 C   0  0  0  0  0  0  0  0  0  0  0  0
    1.8623    2.3267   21.3819 C   0  0  0  0  0  0  0  0  0  0  0  0
    2.9273    3.1793   21.2839 C   0  0  0  0  0  0  0  0  0  0  0  0
    4.1681    2.7807   20.7395 C   0  0  0  0  0  0  0  0  0  0  0  0
    5.1969    3.7640   20.7306 C   0  0  0  0  0  3  0  0  0  0  0  0
    7.2841    4.8165   20.4154 C   0  0  0  0  0  0  0  0  0  0  0  0
    7.6655    4.9868   21.8902 C   0  0  0  0  0  0  0  0  0  0  0  0
    8.7263    6.0744   22.0267 C   0  0  0  0  0  0  0  0  0  0  0  0
    8.2299    7.3908   21.4338 C   0  0  0  0  0  0  0  0  0  0  0  0
    7.8298    7.2097   19.9717 C   0  0  0  0  0  0  0  0  0  0  0  0
    6.7539    6.1355   19.8423 C   0  0  0  0  0  0  0  0  0  0  0  0
    6.0205    3.6236   16.9467 C   0  0  0  0  0  0  0  0  0  0  0  0
    4.8399    4.0684   16.3255 C   0  0  0  0  0  0  0  0  0  0  0  0
    4.8639    5.1235   15.4441 C   0  0  0  0  0  0  0  0  0  0  0  0
    6.0626    5.7639   15.1350 C   0  0  0  0  0  0  0  0  0  0  0  0
    7.2350    5.3303   15.7085 C   0  0  0  0  0  0  0  0  0  0  0  0
    7.2481    4.2689   16.6232 C   0  0  0  0  0  0  0  0  0  0  0  0
    8.4966    3.8126   17.1610 C   0  0  0  0  0  3  0  0  0  0  0  0
   10.0426    2.5732   18.4409 C   0  0  0  0  0  0  0  0  0  0  0  0
   10.6440    1.7136   17.3230 C   0  0  0  0  0  0  0  0  0  0  0  0
   12.0128    1.2002   17.7566 C   0  0  0  0  0  0  0  0  0  0  0  0
   12.9410    2.3590   18.1100 C   0  0  0  0  0  0  0  0  0  0  0  0
   12.3215    3.2274   19.2009 C   0  0  0  0  0  0  0  0  0  0  0  0
   10.9622    3.7585   18.7531 C   0  0  0  0  0  0  0  0  0  0  0  0
    3.3163   -0.4379   20.0702 H   0  0  0  0  0  0  0  0  0  0  0  0
    1.1706    0.3235   21.0187 H   0  0  0  0  0  0  0  0  0  0  0  0
    0.9251    2.6632   21.7970 H   0  0  0  0  0  0  0  0  0  0  0  0
    2.8268    4.2000   21.6283 H   0  0  0  0  0  0  0  0  0  0  0  0
    4.9108    4.6899   21.2350 H   0  0  0  0  0  0  0  0  0  0  0  0
    8.1960    4.5586   19.8711 H   0  0  0  0  0  0  0  0  0  0  0  0
    8.0415    4.0324   22.2630 H   0  0  0  0  0  0  0  0  0  0  0  0
    6.7846    5.2583   22.4755 H   0  0  0  0  0  0  0  0  0  0  0  0
    8.9763    6.2121   23.0800 H   0  0  0  0  0  0  0  0  0  0  0  0
    9.6345    5.7609   21.5075 H   0  0  0  0  0  0  0  0  0  0  0  0
    9.0109    8.1492   21.5116 H   0  0  0  0  0  0  0  0  0  0  0  0
    7.3666    7.7422   22.0034 H   0  0  0  0  0  0  0  0  0  0  0  0
    7.4580    8.1529   19.5670 H   0  0  0  0  0  0  0  0  0  0  0  0
    8.7052    6.9166   19.3873 H   0  0  0  0  0  0  0  0  0  0  0  0
    5.8619    6.4567   20.3836 H   0  0  0  0  0  0  0  0  0  0  0  0
    6.4799    5.9953   18.7934 H   0  0  0  0  0  0  0  0  0  0  0  0
    3.9179    3.5618   16.5693 H   0  0  0  0  0  0  0  0  0  0  0  0
    3.9447    5.4580   14.9866 H   0  0  0  0  0  0  0  0  0  0  0  0
    6.0694    6.5911   14.4424 H   0  0  0  0  0  0  0  0  0  0  0  0
    8.1691    5.8181   15.4672 H   0  0  0  0  0  0  0  0  0  0  0  0
    9.3730    4.2514   16.6850 H   0  0  0  0  0  0  0  0  0  0  0  0
    9.9707    1.9551   19.3417 H   0  0  0  0  0  0  0  0  0  0  0  0
   10.7427    2.3085   16.4117 H   0  0  0  0  0  0  0  0  0  0  0  0
    9.9696    0.8798   17.1223 H   0  0  0  0  0  0  0  0  0  0  0  0
   11.8903    0.5526   18.6257 H   0  0  0  0  0  0  0  0  0  0  0  0
   12.4489    0.6050   16.9532 H   0  0  0  0  0  0  0  0  0  0  0  0
   13.9042    1.9739   18.4487 H   0  0  0  0  0  0  0  0  0  0  0  0
   13.1203    2.9674   17.2202 H   0  0  0  0  0  0  0  0  0  0  0  0
   12.9835    4.0641   19.4339 H   0  0  0  0  0  0  0  0  0  0  0  0
   12.1941    2.6350   20.1083 H   0  0  0  0  0  0  0  0  0  0  0  0
   10.5195    4.3674   19.5445 H   0  0  0  0  0  0  0  0  0  0  0  0
   11.1040    4.3895   17.8735 H   0  0  0  0  0  0  0  0  0  0  0  0
  1  3  1  0  0  0  0
  1  6  1  0  0  0  0
  1  4  1  0  0  0  0
  2  1  1  0  0  0  0
  3  8  1  0  0  0  0
  5  1  1  0  0  0  0
  6 15  1  1  0  0  0
  6 14  1  0  0  0  0
  7 28  1  6  0  0  0
  7  1  1  0  0  0  0
  8  9  2  0  0  0  0
  8 13  1  0  0  0  0
  9 10  1  0  0  0  0
 10 35  1  0  0  0  0
 10 11  2  0  0  0  0
 11 36  1  0  0  0  0
 12 11  1  0  0  0  0
 12 37  1  0  0  0  0
 13 12  2  0  0  0  0
 14 13  1  0  0  0  0
 14 38  1  0  0  0  0
 15 16  1  0  0  0  0
 16 17  1  0  0  0  0
 16 40  1  0  0  0  0
 16 41  1  0  0  0  0
 17 42  1  0  0  0  0
 18 44  1  0  0  0  0
 18 45  1  0  0  0  0
 18 17  1  0  0  0  0
 19 18  1  0  0  0  0
 20 19  1  0  0  0  0
 20 48  1  0  0  0  0
 20 15  1  0  0  0  0
 21  5  1  0  0  0  0
 22 50  1  0  0  0  0
 22 21  2  0  0  0  0
 23 22  1  0  0  0  0
 24 23  2  0  0  0  0
 24 25  1  0  0  0  0
 25 26  2  0  0  0  0
 26 21  1  0  0  0  0
 26 27  1  0  0  0  0
 27  7  1  0  0  0  0
 28 33  1  0  0  0  0
 28 55  1  0  0  0  0
 29 30  1  0  0  0  0
 29 28  1  0  0  0  0
 30 31  1  0  0  0  0
 30 58  1  0  0  0  0
 31 60  1  0  0  0  0
 31 32  1  0  0  0  0
 32 62  1  0  0  0  0
 32 63  1  0  0  0  0
 33 32  1  0  0  0  0
 33 64  1  0  0  0  0
 34  9  1  0  0  0  0
 39 15  1  0  0  0  0
 43 17  1  0  0  0  0
 46 19  1  0  0  0  0
 47 19  1  0  0  0  0
 49 20  1  0  0  0  0
 51 23  1  0  0  0  0
 52 24  1  0  0  0  0
 53 25  1  0  0  0  0
 54 27  1  0  0  0  0
 56 29  1  0  0  0  0
 57 29  1  0  0  0  0
 59 30  1  0  0  0  0
 61 31  1  0  0  0  0
 65 33  1  0  0  0  0
M  END
$$$$
