CSD_code = RIXXIF | q = 0 | S = 0 | Stoichiometry = C30H24Cl5N2O3Re | MND = 6
 OpenBabel04212202093D

 65 70  0  0  1  0  0  0  0  0999 V2000
   10.4691    1.1270    9.2053 Re  0  0  0  0  0  0  0  0  0  0  0  0
    6.6064    0.1084   12.0624 Cl  0  0  0  0  0  0  0  0  0  0  0  0
    7.6631   -5.1553   11.9533 Cl  0  0  0  0  0  0  0  0  0  0  0  0
   11.7602    2.1025    7.5033 Cl  0  0  0  0  0  0  0  0  0  0  0  0
    8.2245   -1.2100    5.9157 Cl  0  0  0  0  0  0  0  0  0  0  0  0
    5.1298    2.9718    4.5432 Cl  0  0  0  0  0  0  0  0  0  0  0  0
    8.9574    0.3449   10.5248 O   0  0  0  0  0  0  0  0  0  0  0  0
   11.5507    1.5089   10.3941 O   0  0  0  0  0  1  0  0  0  0  0  0
    9.2664    0.6590    7.9048 O   0  0  0  0  0  0  0  0  0  0  0  0
   11.2553   -0.8353    9.0075 N   0  0  0  0  0  0  0  0  0  0  0  0
    9.4223    2.9751    9.2266 N   0  0  0  0  0  0  0  0  0  0  0  0
    8.7459   -0.8865   10.7767 C   0  0  0  0  0  0  0  0  0  0  0  0
    7.5943   -1.2090   11.5624 C   0  0  0  0  0  0  0  0  0  0  0  0
    7.2606   -2.4868   11.9189 C   0  0  0  0  0  0  0  0  0  0  0  0
    8.0777   -3.5419   11.4992 C   0  0  0  0  0  0  0  0  0  0  0  0
    9.1896   -3.2995   10.7385 C   0  0  0  0  0  0  0  0  0  0  0  0
    9.5479   -1.9894   10.3526 C   0  0  0  0  0  0  0  0  0  0  0  0
   10.7204   -1.8728    9.5499 C   0  0  0  0  0  3  0  0  0  0  0  0
   12.4801   -1.0649    8.2270 C   0  0  2  0  0  0  0  0  0  0  0  0
   12.1302   -1.7632    6.9145 C   0  0  0  0  0  0  0  0  0  0  0  0
   13.5003   -1.7623    9.1016 C   0  0  0  0  0  0  0  0  0  0  0  0
   14.0998   -2.9703    8.7806 C   0  0  0  0  0  0  0  0  0  0  0  0
   15.0207   -3.5422    9.6450 C   0  0  0  0  0  0  0  0  0  0  0  0
   15.3433   -2.9171   10.8353 C   0  0  0  0  0  0  0  0  0  0  0  0
   14.7450   -1.7100   11.1626 C   0  0  0  0  0  0  0  0  0  0  0  0
   13.8319   -1.1348   10.3008 C   0  0  0  0  0  0  0  0  0  0  0  0
    8.3425    1.1676    7.1635 C   0  0  0  0  0  0  0  0  0  0  0  0
    7.7188    0.4213    6.1395 C   0  0  0  0  0  0  0  0  0  0  0  0
    6.7418    0.9688    5.3390 C   0  0  0  0  0  0  0  0  0  0  0  0
    6.3501    2.2898    5.5509 C   0  0  0  0  0  0  0  0  0  0  0  0
    6.9183    3.0481    6.5519 C   0  0  0  0  0  0  0  0  0  0  0  0
    7.9161    2.5070    7.3695 C   0  0  0  0  0  0  0  0  0  0  0  0
    8.4706    3.3027    8.4320 C   0  0  0  0  0  3  0  0  0  0  0  0
    9.7577    3.9143   10.3022 C   0  0  2  0  0  0  0  0  0  0  0  0
    8.8329    3.6102   11.4809 C   0  0  0  0  0  0  0  0  0  0  0  0
    9.7502    5.3465    9.8110 C   0  0  0  0  0  0  0  0  0  0  0  0
   10.6355    5.6757    8.7866 C   0  0  0  0  0  0  0  0  0  0  0  0
   10.6842    6.9632    8.2876 C   0  0  0  0  0  0  0  0  0  0  0  0
    9.8529    7.9420    8.8087 C   0  0  0  0  0  0  0  0  0  0  0  0
    8.9750    7.6232    9.8287 C   0  0  0  0  0  0  0  0  0  0  0  0
    8.9200    6.3310   10.3272 C   0  0  0  0  0  0  0  0  0  0  0  0
    6.3818   -2.6770   12.5141 H   0  0  0  0  0  0  0  0  0  0  0  0
    9.8084   -4.1250   10.4211 H   0  0  0  0  0  0  0  0  0  0  0  0
   11.2275   -2.8258    9.3869 H   0  0  0  0  0  0  0  0  0  0  0  0
   12.8798   -0.0757    7.9803 H   0  0  0  0  0  0  0  0  0  0  0  0
   13.0178   -1.8497    6.2943 H   0  0  0  0  0  0  0  0  0  0  0  0
   11.7080   -2.7520    7.0821 H   0  0  0  0  0  0  0  0  0  0  0  0
   11.3988   -1.1610    6.3797 H   0  0  0  0  0  0  0  0  0  0  0  0
   13.8626   -3.4734    7.8559 H   0  0  0  0  0  0  0  0  0  0  0  0
   15.4850   -4.4818    9.3837 H   0  0  0  0  0  0  0  0  0  0  0  0
   16.0603   -3.3667   11.5059 H   0  0  0  0  0  0  0  0  0  0  0  0
   14.9948   -1.2155   12.0891 H   0  0  0  0  0  0  0  0  0  0  0  0
   13.3589   -0.1917   10.5444 H   0  0  0  0  0  0  0  0  0  0  0  0
    6.2858    0.3817    4.5579 H   0  0  0  0  0  0  0  0  0  0  0  0
    6.6002    4.0676    6.7066 H   0  0  0  0  0  0  0  0  0  0  0  0
    8.0082    4.2831    8.5550 H   0  0  0  0  0  0  0  0  0  0  0  0
   10.7837    3.6689   10.6046 H   0  0  0  0  0  0  0  0  0  0  0  0
    9.1268    4.1956   12.3472 H   0  0  0  0  0  0  0  0  0  0  0  0
    8.9187    2.5533   11.7253 H   0  0  0  0  0  0  0  0  0  0  0  0
    7.7960    3.8231   11.2285 H   0  0  0  0  0  0  0  0  0  0  0  0
   11.2839    4.9111    8.3832 H   0  0  0  0  0  0  0  0  0  0  0  0
   11.3752    7.2041    7.4940 H   0  0  0  0  0  0  0  0  0  0  0  0
    9.8920    8.9498    8.4231 H   0  0  0  0  0  0  0  0  0  0  0  0
    8.3264    8.3817   10.2418 H   0  0  0  0  0  0  0  0  0  0  0  0
    8.2291    6.1044   11.1241 H   0  0  0  0  0  0  0  0  0  0  0  0
  1 11  1  0  0  0  0
  1  8  1  0  0  0  0
  1  7  1  0  0  0  0
  4  1  1  0  0  0  0
  5 28  1  0  0  0  0
  6 30  1  0  0  0  0
  7 12  1  0  0  0  0
  9  1  1  0  0  0  0
 10  1  1  0  0  0  0
 10 18  1  0  0  0  0
 11 34  1  0  0  0  0
 12 13  1  0  0  0  0
 13 14  2  0  0  0  0
 13  2  1  0  0  0  0
 14 42  1  0  0  0  0
 15 14  1  0  0  0  0
 15  3  1  0  0  0  0
 16 15  2  0  0  0  0
 17 16  1  0  0  0  0
 17 12  2  0  0  0  0
 18 17  1  0  0  0  0
 19 45  1  6  0  0  0
 19 10  1  0  0  0  0
 19 21  1  0  0  0  0
 20 47  1  0  0  0  0
 20 19  1  0  0  0  0
 21 26  1  0  0  0  0
 22 21  2  0  0  0  0
 22 23  1  0  0  0  0
 23 24  2  0  0  0  0
 24 25  1  0  0  0  0
 24 51  1  0  0  0  0
 25 52  1  0  0  0  0
 26 53  1  0  0  0  0
 26 25  2  0  0  0  0
 27 32  1  0  0  0  0
 27  9  1  0  0  0  0
 28 27  2  0  0  0  0
 29 30  2  0  0  0  0
 29 28  1  0  0  0  0
 30 31  1  0  0  0  0
 31 55  1  0  0  0  0
 31 32  2  0  0  0  0
 32 33  1  0  0  0  0
 33 56  1  0  0  0  0
 33 11  1  0  0  0  0
 34 57  1  1  0  0  0
 34 35  1  0  0  0  0
 35 59  1  0  0  0  0
 35 58  1  0  0  0  0
 36 34  1  0  0  0  0
 36 41  1  0  0  0  0
 37 36  2  0  0  0  0
 38 37  1  0  0  0  0
 38 39  2  0  0  0  0
 39 40  1  0  0  0  0
 40 64  1  0  0  0  0
 40 41  2  0  0  0  0
 41 65  1  0  0  0  0
 43 16  1  0  0  0  0
 44 18  1  0  0  0  0
 46 20  1  0  0  0  0
 48 20  1  0  0  0  0
 49 22  1  0  0  0  0
 50 23  1  0  0  0  0
 54 29  1  0  0  0  0
 60 35  1  0  0  0  0
 61 37  1  0  0  0  0
 62 38  1  0  0  0  0
 63 39  1  0  0  0  0
M  END
$$$$
