CSD_code = RIYCEK | q = 0 | S = 0 | Stoichiometry = C28H29ClCoNP2 | MND = 4
 OpenBabel04212202093D

 62 66  0  0  0  0  0  0  0  0999 V2000
    2.1633    3.3837    4.1896 C   0  0  0  0  0  0  0  0  0  0  0  0
    2.2976    2.4619    3.6222 H   0  0  0  0  0  0  0  0  0  0  0  0
    3.1456    3.8345    4.3574 H   0  0  0  0  0  0  0  0  0  0  0  0
    1.4891    3.0904    5.5333 C   0  0  0  0  0  0  0  0  0  0  0  0
    2.0150    2.2579    6.0320 H   0  0  0  0  0  0  0  0  0  0  0  0
    1.5859    3.9792    6.1632 H   0  0  0  0  0  0  0  0  0  0  0  0
   -0.2965    1.4604    4.9785 C   0  0  0  0  0  0  0  0  0  0  0  0
   -1.3012    1.2545    5.3577 H   0  0  0  0  0  0  0  0  0  0  0  0
    0.3950    0.7173    5.4101 H   0  0  0  0  0  0  0  0  0  0  0  0
   -0.3310    1.2935    3.4556 C   0  0  0  0  0  0  0  0  0  0  0  0
   -0.6847    0.2901    3.2031 H   0  0  0  0  0  0  0  0  0  0  0  0
    0.6637    1.4358    3.0366 H   0  0  0  0  0  0  0  0  0  0  0  0
    1.7273    6.1445    3.7945 C   0  0  0  0  0  0  0  0  0  0  0  0
    0.8990    6.8925    4.6229 C   0  0  0  0  0  0  0  0  0  0  0  0
   -0.0912    6.5078    4.8627 H   0  0  0  0  0  0  0  0  0  0  0  0
    1.3244    8.1090    5.1236 C   0  0  0  0  0  0  0  0  0  0  0  0
    0.6775    8.6873    5.7670 H   0  0  0  0  0  0  0  0  0  0  0  0
    2.5814    8.5856    4.7894 C   0  0  0  0  0  0  0  0  0  0  0  0
    2.9175    9.5375    5.1740 H   0  0  0  0  0  0  0  0  0  0  0  0
    3.4081    7.8478    3.9559 C   0  0  0  0  0  0  0  0  0  0  0  0
    4.3853    8.2272    3.6933 H   0  0  0  0  0  0  0  0  0  0  0  0
    2.9864    6.6288    3.4575 C   0  0  0  0  0  0  0  0  0  0  0  0
    3.6265    6.0558    2.8000 H   0  0  0  0  0  0  0  0  0  0  0  0
    1.7652    4.4663    1.5344 C   0  0  0  0  0  0  0  0  0  0  0  0
    1.0259    5.1599    0.5786 C   0  0  0  0  0  0  0  0  0  0  0  0
    0.1323    5.6843    0.8944 H   0  0  0  0  0  0  0  0  0  0  0  0
    1.4176    5.1688   -0.7446 C   0  0  0  0  0  0  0  0  0  0  0  0
    0.8391    5.7113   -1.4777 H   0  0  0  0  0  0  0  0  0  0  0  0
    2.5516    4.4717   -1.1308 C   0  0  0  0  0  0  0  0  0  0  0  0
    2.8594    4.4694   -2.1661 H   0  0  0  0  0  0  0  0  0  0  0  0
    3.2893    3.7762   -0.1887 C   0  0  0  0  0  0  0  0  0  0  0  0
    4.1743    3.2332   -0.4894 H   0  0  0  0  0  0  0  0  0  0  0  0
    2.9017    3.7715    1.1405 C   0  0  0  0  0  0  0  0  0  0  0  0
    3.4942    3.2288    1.8630 H   0  0  0  0  0  0  0  0  0  0  0  0
   -3.0245    1.6468    2.7236 C   0  0  0  0  0  0  0  0  0  0  0  0
   -3.2211    0.5808    1.8492 C   0  0  0  0  0  0  0  0  0  0  0  0
   -2.4533    0.3252    1.1311 H   0  0  0  0  0  0  0  0  0  0  0  0
   -4.3983   -0.1412    1.8931 C   0  0  0  0  0  0  0  0  0  0  0  0
   -4.5495   -0.9655    1.2106 H   0  0  0  0  0  0  0  0  0  0  0  0
   -5.3848    0.1914    2.8089 C   0  0  0  0  0  0  0  0  0  0  0  0
   -6.3044   -0.3749    2.8381 H   0  0  0  0  0  0  0  0  0  0  0  0
   -5.1927    1.2504    3.6793 C   0  0  0  0  0  0  0  0  0  0  0  0
   -5.9621    1.5135    4.3902 H   0  0  0  0  0  0  0  0  0  0  0  0
   -4.0164    1.9797    3.6368 C   0  0  0  0  0  0  0  0  0  0  0  0
   -3.8621    2.8187    4.3004 H   0  0  0  0  0  0  0  0  0  0  0  0
   -1.0579    2.5221    0.9330 C   0  0  0  0  0  0  0  0  0  0  0  0
   -0.0100    1.8312    0.3384 C   0  0  0  0  0  0  0  0  0  0  0  0
    0.6433    1.2046    0.9268 H   0  0  0  0  0  0  0  0  0  0  0  0
    0.2016    1.9305   -1.0260 C   0  0  0  0  0  0  0  0  0  0  0  0
    1.0178    1.3872   -1.4803 H   0  0  0  0  0  0  0  0  0  0  0  0
   -0.6247    2.7175   -1.8084 C   0  0  0  0  0  0  0  0  0  0  0  0
   -0.4541    2.7888   -2.8724 H   0  0  0  0  0  0  0  0  0  0  0  0
   -1.6701    3.4144   -1.2224 C   0  0  0  0  0  0  0  0  0  0  0  0
   -2.3153    4.0328   -1.8292 H   0  0  0  0  0  0  0  0  0  0  0  0
   -1.8790    3.3210    0.1385 C   0  0  0  0  0  0  0  0  0  0  0  0
   -2.6818    3.8697    0.6147 H   0  0  0  0  0  0  0  0  0  0  0  0
   -2.6600    4.8777    4.8983 Cl  0  0  0  0  0  0  0  0  0  0  0  0
   -0.9775    4.3568    3.8438 Co  0  0  0  0  0  0  0  0  0  0  0  0
    0.0647    2.8114    5.3962 N   0  0  0  0  0  0  0  0  0  0  0  0
   -0.3935    3.0096    6.2794 H   0  0  0  0  0  0  0  0  0  0  0  0
    1.0760    4.5386    3.2186 P   0  0  0  0  0  4  0  0  0  0  0  0
   -1.4478    2.5737    2.7114 P   0  0  0  0  0  4  0  0  0  0  0  0
  1  3  1  0  0  0  0
  1  4  1  0  0  0  0
  2  1  1  0  0  0  0
  4  5  1  0  0  0  0
  4  6  1  0  0  0  0
  7  8  1  0  0  0  0
  7 59  1  0  0  0  0
  7  9  1  0  0  0  0
 10  7  1  0  0  0  0
 11 10  1  0  0  0  0
 12 10  1  0  0  0  0
 13 14  1  0  0  0  0
 14 15  1  0  0  0  0
 14 16  2  0  0  0  0
 16 17  1  0  0  0  0
 18 16  1  0  0  0  0
 18 19  1  0  0  0  0
 20 18  2  0  0  0  0
 21 20  1  0  0  0  0
 22 13  2  0  0  0  0
 22 20  1  0  0  0  0
 23 22  1  0  0  0  0
 24 61  1  0  0  0  0
 25 26  1  0  0  0  0
 25 24  2  0  0  0  0
 27 25  1  0  0  0  0
 28 27  1  0  0  0  0
 29 27  2  0  0  0  0
 29 31  1  0  0  0  0
 30 29  1  0  0  0  0
 31 33  2  0  0  0  0
 32 31  1  0  0  0  0
 33 24  1  0  0  0  0
 33 34  1  0  0  0  0
 35 44  1  0  0  0  0
 36 38  1  0  0  0  0
 36 35  2  0  0  0  0
 37 36  1  0  0  0  0
 38 40  2  0  0  0  0
 39 38  1  0  0  0  0
 40 41  1  0  0  0  0
 40 42  1  0  0  0  0
 42 43  1  0  0  0  0
 44 42  2  0  0  0  0
 44 45  1  0  0  0  0
 46 62  1  0  0  0  0
 47 48  1  0  0  0  0
 47 46  1  0  0  0  0
 49 47  2  0  0  0  0
 50 49  1  0  0  0  0
 51 53  2  0  0  0  0
 51 49  1  0  0  0  0
 52 51  1  0  0  0  0
 53 55  1  0  0  0  0
 54 53  1  0  0  0  0
 55 56  1  0  0  0  0
 55 46  2  0  0  0  0
 58 57  1  0  0  0  0
 59  4  1  0  0  0  0
 59 60  1  0  0  0  0
 61 13  1  0  0  0  0
 61 58  1  0  0  0  0
 61  1  1  0  0  0  0
 62 35  1  0  0  0  0
 62 10  1  0  0  0  0
 62 58  1  0  0  0  0
M  END
$$$$
