CSD_code = RIYDEI | q = 0 | S = 0 | Stoichiometry = C30H28Cl2Zr | MND = 12
 OpenBabel04212202093D

 61 67  0  0  1  0  0  0  0  0999 V2000
   10.7387    1.0654    8.4463 Zr  0  0  0  0  0  0  0  0  0  0  0  0
    9.1334    0.3870    6.8811 Cl  0  0  0  0  0  0  0  0  0  0  0  0
   12.4035   -0.1726    7.3548 Cl  0  0  0  0  0  0  0  0  0  0  0  0
    9.8135    1.1323   10.7301 C   0  0  2  0  0  3  0  0  0  0  0  0
    9.0620    0.1841    9.9678 C   0  0  2  0  0  0  0  0  0  0  0  0
    8.0064    0.2372    9.7244 H   0  0  0  0  0  0  0  0  0  0  0  0
    9.8979   -0.9188    9.6740 C   0  0  1  0  0  3  0  0  0  0  0  0
   11.1727   -0.6675   10.2426 C   0  0  0  0  0  0  0  0  0  0  0  0
   11.1350    0.5994   10.8663 C   0  0  0  0  0  0  0  0  0  0  0  0
   11.9099    0.9799   11.5188 H   0  0  0  0  0  0  0  0  0  0  0  0
   11.6633    3.2128    9.2089 C   0  0  1  0  0  3  0  0  0  0  0  0
   10.3246    3.5035    8.7916 C   0  0  0  0  0  0  0  0  0  0  0  0
    9.5647    3.9937    9.3854 H   0  0  0  0  0  0  0  0  0  0  0  0
   10.2406    3.3171    7.3948 C   0  0  0  0  0  0  0  0  0  0  0  0
   11.5055    2.8738    6.9301 C   0  0  2  0  0  3  0  0  0  0  0  0
   12.3811    2.8117    8.0387 C   0  0  2  0  0  0  0  0  0  0  0  0
   13.4381    2.5791    7.9726 H   0  0  0  0  0  0  0  0  0  0  0  0
    9.5333   -2.2186    9.0150 C   0  0  0  0  0  0  0  0  0  0  0  0
    8.9648   -2.0460    8.0950 H   0  0  0  0  0  0  0  0  0  0  0  0
    8.8933   -2.7957    9.6940 H   0  0  0  0  0  0  0  0  0  0  0  0
   10.8075   -3.0122    8.7151 C   0  0  0  0  0  0  0  0  0  0  0  0
   11.3531   -2.5293    7.9000 H   0  0  0  0  0  0  0  0  0  0  0  0
   10.5432   -4.0215    8.3951 H   0  0  0  0  0  0  0  0  0  0  0  0
   11.6991   -3.0737    9.9561 C   0  0  0  0  0  0  0  0  0  0  0  0
   12.5158   -3.7788    9.7953 H   0  0  0  0  0  0  0  0  0  0  0  0
   11.1075   -3.4282   10.8040 H   0  0  0  0  0  0  0  0  0  0  0  0
   12.2750   -1.6905   10.2784 C   0  0  0  0  0  0  0  0  0  0  0  0
   12.7428   -1.6957   11.2677 H   0  0  0  0  0  0  0  0  0  0  0  0
   13.0534   -1.4448    9.5467 H   0  0  0  0  0  0  0  0  0  0  0  0
    9.1074    3.6714    6.4718 C   0  0  0  0  0  0  0  0  0  0  0  0
    8.6138    4.5826    6.8227 H   0  0  0  0  0  0  0  0  0  0  0  0
    8.3566    2.8726    6.4546 H   0  0  0  0  0  0  0  0  0  0  0  0
    9.6585    3.8737    5.0564 C   0  0  0  0  0  0  0  0  0  0  0  0
   10.2515    4.7913    5.0251 H   0  0  0  0  0  0  0  0  0  0  0  0
    8.8304    3.9810    4.3544 H   0  0  0  0  0  0  0  0  0  0  0  0
   10.5386    2.6910    4.6502 C   0  0  0  0  0  0  0  0  0  0  0  0
   10.7877    2.7579    3.5897 H   0  0  0  0  0  0  0  0  0  0  0  0
    9.9873    1.7615    4.8105 H   0  0  0  0  0  0  0  0  0  0  0  0
   11.8278    2.6691    5.4769 C   0  0  0  0  0  0  0  0  0  0  0  0
   12.3598    1.7231    5.3252 H   0  0  0  0  0  0  0  0  0  0  0  0
   12.4915    3.4763    5.1436 H   0  0  0  0  0  0  0  0  0  0  0  0
   12.2636    3.3931   10.5313 C   0  0  0  0  0  0  0  0  0  0  0  0
   11.5128    3.4663   11.7204 C   0  0  0  0  0  0  0  0  0  0  0  0
   12.1710    3.6387   12.9354 C   0  0  0  0  0  0  0  0  0  0  0  0
   11.5803    3.6821   13.8393 H   0  0  0  0  0  0  0  0  0  0  0  0
   13.5475    3.7292   13.0106 C   0  0  0  0  0  0  0  0  0  0  0  0
   14.0326    3.8517   13.9670 H   0  0  0  0  0  0  0  0  0  0  0  0
   14.2916    3.6706   11.8445 C   0  0  0  0  0  0  0  0  0  0  0  0
   15.3675    3.7549   11.8797 H   0  0  0  0  0  0  0  0  0  0  0  0
   13.6556    3.5102   10.6306 C   0  0  0  0  0  0  0  0  0  0  0  0
   14.2519    3.4925    9.7317 H   0  0  0  0  0  0  0  0  0  0  0  0
   10.0354    3.4181   11.7867 C   0  0  0  0  0  0  0  0  0  0  0  0
    9.2517    2.3331   11.3499 C   0  0  0  0  0  0  0  0  0  0  0  0
    7.8660    2.4119   11.5331 C   0  0  0  0  0  0  0  0  0  0  0  0
    7.2475    1.5780   11.2397 H   0  0  0  0  0  0  0  0  0  0  0  0
    7.2656    3.5174   12.1004 C   0  0  0  0  0  0  0  0  0  0  0  0
    6.1931    3.5421   12.2230 H   0  0  0  0  0  0  0  0  0  0  0  0
    8.0413    4.5864   12.5154 C   0  0  0  0  0  0  0  0  0  0  0  0
    7.5841    5.4583   12.9578 H   0  0  0  0  0  0  0  0  0  0  0  0
    9.4133    4.5209   12.3660 C   0  0  0  0  0  0  0  0  0  0  0  0
   10.0281    5.3502   12.6859 H   0  0  0  0  0  0  0  0  0  0  0  0
  1  5  1  0  0  0  0
  2  1  1  0  0  0  0
  3  1  1  0  0  0  0
  4  9  1  1  0  0  0
  4 53  1  0  0  0  0
  5  6  1  6  0  0  0
  5  4  1  0  0  0  0
  7  5  1  0  0  0  0
  7  8  1  1  0  0  0
  8 27  1  0  0  0  0
  8  9  2  0  0  0  0
  9 10  1  0  0  0  0
 11 12  1  6  0  0  0
 11 42  1  0  0  0  0
 12 13  1  0  0  0  0
 14 12  2  0  0  0  0
 15 14  1  6  0  0  0
 15 16  1  0  0  0  0
 16 17  1  6  0  0  0
 16  1  1  0  0  0  0
 16 11  1  0  0  0  0
 18  7  1  0  0  0  0
 18 20  1  0  0  0  0
 19 18  1  0  0  0  0
 21 18  1  0  0  0  0
 21 24  1  0  0  0  0
 22 21  1  0  0  0  0
 23 21  1  0  0  0  0
 24 27  1  0  0  0  0
 24 26  1  0  0  0  0
 25 24  1  0  0  0  0
 27 28  1  0  0  0  0
 29 27  1  0  0  0  0
 30 31  1  0  0  0  0
 30 14  1  0  0  0  0
 32 30  1  0  0  0  0
 33 30  1  0  0  0  0
 34 33  1  0  0  0  0
 35 33  1  0  0  0  0
 36 38  1  0  0  0  0
 36 33  1  0  0  0  0
 36 39  1  0  0  0  0
 37 36  1  0  0  0  0
 39 15  1  0  0  0  0
 40 39  1  0  0  0  0
 41 39  1  0  0  0  0
 42 50  2  0  0  0  0
 42 43  1  0  0  0  0
 43 52  1  0  0  0  0
 43 44  2  0  0  0  0
 44 46  1  0  0  0  0
 44 45  1  0  0  0  0
 46 47  1  0  0  0  0
 48 49  1  0  0  0  0
 48 46  2  0  0  0  0
 50 48  1  0  0  0  0
 51 50  1  0  0  0  0
 52 60  1  0  0  0  0
 53 54  1  0  0  0  0
 53 52  2  0  0  0  0
 54 56  2  0  0  0  0
 55 54  1  0  0  0  0
 56 57  1  0  0  0  0
 56 58  1  0  0  0  0
 58 59  1  0  0  0  0
 60 58  2  0  0  0  0
 60 61  1  0  0  0  0
M  END
$$$$
