CSD_code = RIYHEM | q = 1 | S = 0 | Stoichiometry = C12H25Cl2O4S2Zr(1+) | MND = 10
 OpenBabel04212202093D

 46 45  0  0  1  0  0  0  0  0999 V2000
    2.3409    4.0181    3.4104 Zr  0  0  0  0  0  0  0  0  0  0  0  0
    3.8280    4.7112    5.1491 Cl  0  0  0  0  0  0  0  0  0  0  0  0
    0.2737    4.6890    4.4939 Cl  0  0  0  0  0  0  0  0  0  0  0  0
    0.9181    4.5077    1.6386 O   0  0  0  0  0  0  0  0  0  0  0  0
    0.1870    4.7705    2.2439 H   0  0  0  0  0  0  0  0  0  0  0  0
    0.5247    3.9811    0.9231 H   0  0  0  0  0  0  0  0  0  0  0  0
    2.4599    1.9086    4.6732 C   0  0  0  0  0  0  0  0  0  0  0  0
    2.6789    1.8416    5.7340 H   0  0  0  0  0  0  0  0  0  0  0  0
    1.1773    1.8575    4.0884 C   0  0  0  0  0  0  0  0  0  0  0  0
    0.2420    1.7546    4.6225 H   0  0  0  0  0  0  0  0  0  0  0  0
    1.3317    1.8376    2.6862 C   0  0  0  0  0  0  0  0  0  0  0  0
    0.5364    1.6528    1.9737 H   0  0  0  0  0  0  0  0  0  0  0  0
    2.7203    1.8447    2.3954 C   0  0  0  0  0  0  0  0  0  0  0  0
    3.1680    1.6789    1.4244 H   0  0  0  0  0  0  0  0  0  0  0  0
    3.4236    1.8837    3.6289 C   0  0  1  0  0  0  0  0  0  0  0  0
    4.9155    1.8022    3.8090 C   0  0  0  0  0  0  0  0  0  0  0  0
    5.1588    1.8135    4.8740 H   0  0  0  0  0  0  0  0  0  0  0  0
    5.4085    2.6617    3.3382 H   0  0  0  0  0  0  0  0  0  0  0  0
    5.4717    0.5009    3.1941 C   0  0  0  0  0  0  0  0  0  0  0  0
    6.5357    0.4028    3.4548 H   0  0  0  0  0  0  0  0  0  0  0  0
    4.9249   -0.3529    3.6000 H   0  0  0  0  0  0  0  0  0  0  0  0
    5.3036    0.4116    1.8015 O   0  0  0  0  0  0  0  0  0  0  0  0
    6.1402    1.2490    1.0453 C   0  0  0  0  0  0  0  0  0  0  0  0
    6.0603    0.9120    0.0132 H   0  0  0  0  0  0  0  0  0  0  0  0
    7.1839    1.1688    1.3691 H   0  0  0  0  0  0  0  0  0  0  0  0
    5.8255    2.2986    1.1057 H   0  0  0  0  0  0  0  0  0  0  0  0
    2.3217    6.1508    3.2157 O   0  0  0  0  0  0  0  0  0  0  0  0
    2.0585    6.8690    4.5466 S   0  0  0  0  0  3  0  0  0  0  0  0
    0.7613    8.0496    4.0620 C   0  0  0  0  0  0  0  0  0  0  0  0
    0.6575    8.7936    4.8422 H   0  0  0  0  0  0  0  0  0  0  0  0
   -0.1629    7.4882    3.9698 H   0  0  0  0  0  0  0  0  0  0  0  0
    1.0216    8.5106    3.1169 H   0  0  0  0  0  0  0  0  0  0  0  0
    3.4239    8.0723    4.5887 C   0  0  0  0  0  0  0  0  0  0  0  0
    3.2214    8.7903    5.3743 H   0  0  0  0  0  0  0  0  0  0  0  0
    3.5128    8.5663    3.6292 H   0  0  0  0  0  0  0  0  0  0  0  0
    4.3262    7.5190    4.8256 H   0  0  0  0  0  0  0  0  0  0  0  0
    3.8727    4.3974    2.0971 O   0  0  0  0  0  0  0  0  0  0  0  0
    4.6365    5.6980    2.2878 S   0  0  0  0  0  3  0  0  0  0  0  0
    4.1323    6.6454    0.8170 C   0  0  0  0  0  0  0  0  0  0  0  0
    4.6993    7.5678    0.7679 H   0  0  0  0  0  0  0  0  0  0  0  0
    3.0729    6.8561    0.9331 H   0  0  0  0  0  0  0  0  0  0  0  0
    4.2972    6.0461   -0.0711 H   0  0  0  0  0  0  0  0  0  0  0  0
    6.2998    5.2587    1.6834 C   0  0  0  0  0  0  0  0  0  0  0  0
    6.7766    4.6463    2.4421 H   0  0  0  0  0  0  0  0  0  0  0  0
    6.8736    6.1679    1.5467 H   0  0  0  0  0  0  0  0  0  0  0  0
    6.2262    4.7099    0.7515 H   0  0  0  0  0  0  0  0  0  0  0  0
  1 15  1  0  0  0  0
  1  3  1  0  0  0  0
  1  2  1  0  0  0  0
  4  5  1  0  0  0  0
  6  4  1  0  0  0  0
  7  8  1  0  0  0  0
  9 10  1  0  0  0  0
  9  7  2  0  0  0  0
 11  9  1  0  0  0  0
 12 11  1  0  0  0  0
 13 11  2  0  0  0  0
 13 15  1  0  0  0  0
 14 13  1  0  0  0  0
 15 16  1  1  0  0  0
 15  7  1  0  0  0  0
 16 17  1  0  0  0  0
 18 16  1  0  0  0  0
 19 20  1  0  0  0  0
 19 21  1  0  0  0  0
 19 16  1  0  0  0  0
 22 19  1  0  0  0  0
 23 26  1  0  0  0  0
 23 25  1  0  0  0  0
 23 22  1  0  0  0  0
 24 23  1  0  0  0  0
 27  1  1  0  0  0  0
 27 28  1  0  0  0  0
 28 33  1  0  0  0  0
 29 28  1  0  0  0  0
 29 30  1  0  0  0  0
 31 29  1  0  0  0  0
 32 29  1  0  0  0  0
 33 36  1  0  0  0  0
 33 34  1  0  0  0  0
 35 33  1  0  0  0  0
 37 38  1  0  0  0  0
 37  1  1  0  0  0  0
 39 41  1  0  0  0  0
 39 38  1  0  0  0  0
 40 39  1  0  0  0  0
 42 39  1  0  0  0  0
 43 38  1  0  0  0  0
 43 44  1  0  0  0  0
 45 43  1  0  0  0  0
 46 43  1  0  0  0  0
M  END
$$$$
