CSD_code = RIYHAI | q = 0 | S = 0 | Stoichiometry = C8H13Cl3O2Zr | MND = 10
 OpenBabel04212202093D

 27 26  0  0  1  0  0  0  0  0999 V2000
    3.2244    2.3735   -0.0388 Zr  0  0  0  0  0  0  0  0  0  0  0  0
    3.1271    0.4888    1.4539 Cl  0  0  0  0  0  0  0  0  0  0  0  0
    1.8890    4.0812   -1.0263 Cl  0  0  0  0  0  0  0  0  0  0  0  0
    2.9280    0.9524   -1.9174 Cl  0  0  0  0  0  0  0  0  0  0  0  0
    0.9718    1.6109    0.0283 O   0  0  0  0  0  0  0  0  0  0  0  0
    1.1248    0.6981    0.3474 H   0  0  0  0  0  0  0  0  0  0  0  0
    0.7721    1.5386   -0.9249 H   0  0  0  0  0  0  0  0  0  0  0  0
    1.3515    3.3156    2.2891 C   0  0  0  0  0  0  0  0  0  0  0  0
    1.2332    3.8113    3.2590 H   0  0  0  0  0  0  0  0  0  0  0  0
    1.1587    2.2464    2.4092 H   0  0  0  0  0  0  0  0  0  0  0  0
    0.6582    3.7545    1.5602 H   0  0  0  0  0  0  0  0  0  0  0  0
    2.6990    3.4402    1.8398 O   0  0  0  0  0  0  0  0  0  0  0  0
    3.1621    4.7993    1.8841 C   0  0  0  0  0  0  0  0  0  0  0  0
    2.7323    5.3534    1.0364 H   0  0  0  0  0  0  0  0  0  0  0  0
    2.8378    5.2607    2.8261 H   0  0  0  0  0  0  0  0  0  0  0  0
    4.6958    4.7689    1.7969 C   0  0  0  0  0  0  0  0  0  0  0  0
    5.1066    4.4209    2.7482 H   0  0  0  0  0  0  0  0  0  0  0  0
    5.0627    5.7792    1.6045 H   0  0  0  0  0  0  0  0  0  0  0  0
    5.0955    3.8217    0.7015 C   0  0  0  0  0  0  0  0  0  0  0  0
    5.5058    2.4792    0.8867 C   0  0  2  0  0  0  0  0  0  0  0  0
    5.7632    2.0210    1.8345 H   0  0  0  0  0  0  0  0  0  0  0  0
    5.6552    1.8896   -0.3887 C   0  0  0  0  0  0  0  0  0  0  0  0
    6.0433    0.8979   -0.5892 H   0  0  0  0  0  0  0  0  0  0  0  0
    5.3358    2.8657   -1.3601 C   0  0  0  0  0  0  0  0  0  0  0  0
    5.4372    2.7493   -2.4324 H   0  0  0  0  0  0  0  0  0  0  0  0
    4.9837    4.0553   -0.6900 C   0  0  0  0  0  0  0  0  0  0  0  0
    4.7661    5.0070   -1.1583 H   0  0  0  0  0  0  0  0  0  0  0  0
  1 20  1  0  0  0  0
  1  2  1  0  0  0  0
  3  1  1  0  0  0  0
  4  1  1  0  0  0  0
  5  6  1  0  0  0  0
  7  5  1  0  0  0  0
  8 10  1  0  0  0  0
  8  9  1  0  0  0  0
 11  8  1  0  0  0  0
 12 13  1  0  0  0  0
 12  8  1  0  0  0  0
 13 15  1  0  0  0  0
 14 13  1  0  0  0  0
 16 13  1  0  0  0  0
 16 17  1  0  0  0  0
 18 16  1  0  0  0  0
 19 20  1  0  0  0  0
 19 16  1  0  0  0  0
 20 21  1  1  0  0  0
 22 20  1  0  0  0  0
 23 22  1  0  0  0  0
 24 26  1  0  0  0  0
 24 22  2  0  0  0  0
 25 24  1  0  0  0  0
 26 19  2  0  0  0  0
 27 26  1  0  0  0  0
M  END
$$$$
