CSD_code = RIYYEF | q = 0 | S = 0 | Stoichiometry = C23H37ClP2Pd | MND = 4
 OpenBabel04212202093D

 64 64  0  0  0  0  0  0  0  0999 V2000
   -0.3976    1.0143    3.7383 Pd  0  0  0  0  0  0  0  0  0  0  0  0
    1.3587   -0.3287    4.1653 P   0  0  0  0  0  4  0  0  0  0  0  0
   -2.1715    2.3413    3.3264 P   0  0  0  0  0  4  0  0  0  0  0  0
   -1.5838    0.2032    5.5250 Cl  0  0  0  0  0  0  0  0  0  0  0  0
    0.5910    1.7094    2.1987 C   0  0  0  0  0  0  0  0  0  0  0  0
    3.0437    3.4782   -2.0233 C   0  0  0  0  0  0  0  0  0  0  0  0
    4.5098    5.0627   -3.0898 C   0  0  0  0  0  0  0  0  0  0  0  0
    5.1464    5.9347   -3.0256 H   0  0  0  0  0  0  0  0  0  0  0  0
    1.1806   -1.5809    5.5065 C   0  0  0  0  0  0  0  0  0  0  0  0
    1.0740   -1.0039    6.4312 H   0  0  0  0  0  0  0  0  0  0  0  0
    0.2227   -2.0850    5.3464 H   0  0  0  0  0  0  0  0  0  0  0  0
   -2.0829    3.5725    1.9524 C   0  0  0  0  0  0  0  0  0  0  0  0
   -1.1369    4.1100    2.0652 H   0  0  0  0  0  0  0  0  0  0  0  0
   -1.9960    2.9810    1.0352 H   0  0  0  0  0  0  0  0  0  0  0  0
    3.8685    4.6041   -1.9577 C   0  0  0  0  0  0  0  0  0  0  0  0
    3.9998    5.1104   -1.0117 H   0  0  0  0  0  0  0  0  0  0  0  0
    1.8162    2.5916    0.1153 C   0  0  0  0  0  0  0  0  0  0  0  0
    2.3866    3.0024   -0.8741 C   0  0  0  0  0  0  0  0  0  0  0  0
    1.9430   -1.2669    2.6952 C   0  0  0  0  0  0  0  0  0  0  0  0
    2.3841   -0.5379    2.0100 H   0  0  0  0  0  0  0  0  0  0  0  0
    2.7044   -2.0012    2.9657 H   0  0  0  0  0  0  0  0  0  0  0  0
    2.8013    0.6921    4.6923 C   0  0  0  0  0  0  0  0  0  0  0  0
    3.4993    0.1060    5.2956 H   0  0  0  0  0  0  0  0  0  0  0  0
    3.3164    1.0390    3.7925 H   0  0  0  0  0  0  0  0  0  0  0  0
    1.1728    2.1256    1.2135 C   0  0  0  0  0  0  0  0  0  0  0  0
   -2.6957    3.2963    4.8051 C   0  0  0  0  0  0  0  0  0  0  0  0
   -3.4649    4.0304    4.5558 H   0  0  0  0  0  0  0  0  0  0  0  0
   -3.1088    2.5760    5.5161 H   0  0  0  0  0  0  0  0  0  0  0  0
    4.3527    4.4212   -4.3136 C   0  0  0  0  0  0  0  0  0  0  0  0
    3.5303    3.3016   -4.3750 C   0  0  0  0  0  0  0  0  0  0  0  0
    3.3979    2.7910   -5.3193 H   0  0  0  0  0  0  0  0  0  0  0  0
    2.3058   -2.5987    5.6333 C   0  0  0  0  0  0  0  0  0  0  0  0
    2.2946   -3.3029    4.8047 H   0  0  0  0  0  0  0  0  0  0  0  0
    2.1825   -3.1656    6.5542 H   0  0  0  0  0  0  0  0  0  0  0  0
    3.2810   -2.1160    5.6628 H   0  0  0  0  0  0  0  0  0  0  0  0
   -3.6022    1.2719    2.8780 C   0  0  0  0  0  0  0  0  0  0  0  0
   -4.0568    0.9150    3.8058 H   0  0  0  0  0  0  0  0  0  0  0  0
   -4.3492    1.8289    2.3063 H   0  0  0  0  0  0  0  0  0  0  0  0
    2.8827    2.8313   -3.2514 C   0  0  0  0  0  0  0  0  0  0  0  0
    2.2472    1.9589   -3.3112 H   0  0  0  0  0  0  0  0  0  0  0  0
   -3.2423    4.5537    1.8474 C   0  0  0  0  0  0  0  0  0  0  0  0
   -4.2021    4.0409    1.8611 H   0  0  0  0  0  0  0  0  0  0  0  0
   -3.1698    5.1082    0.9136 H   0  0  0  0  0  0  0  0  0  0  0  0
   -3.2239    5.2723    2.6632 H   0  0  0  0  0  0  0  0  0  0  0  0
    5.0353    4.9396   -5.5430 C   0  0  0  0  0  0  0  0  0  0  0  0
    5.2245    4.1354   -6.2509 H   0  0  0  0  0  0  0  0  0  0  0  0
    5.9797    5.4174   -5.2906 H   0  0  0  0  0  0  0  0  0  0  0  0
    4.4050    5.6812   -6.0365 H   0  0  0  0  0  0  0  0  0  0  0  0
    2.2626    1.8859    5.4795 C   0  0  0  0  0  0  0  0  0  0  0  0
    1.5895    2.4719    4.8338 H   0  0  0  0  0  0  0  0  0  0  0  0
    3.0692    2.5347    5.8164 H   0  0  0  0  0  0  0  0  0  0  0  0
    1.7026    1.5469    6.3535 H   0  0  0  0  0  0  0  0  0  0  0  0
    0.7284   -1.9179    2.0403 C   0  0  0  0  0  0  0  0  0  0  0  0
    0.2887   -2.6694    2.6955 H   0  0  0  0  0  0  0  0  0  0  0  0
    0.9950   -2.3928    1.0983 H   0  0  0  0  0  0  0  0  0  0  0  0
   -0.0253   -1.1445    1.8394 H   0  0  0  0  0  0  0  0  0  0  0  0
   -3.0578    0.0892    2.0771 C   0  0  0  0  0  0  0  0  0  0  0  0
   -2.5471    0.4358    1.1756 H   0  0  0  0  0  0  0  0  0  0  0  0
   -3.8562   -0.5906    1.7848 H   0  0  0  0  0  0  0  0  0  0  0  0
   -2.3389   -0.4676    2.6989 H   0  0  0  0  0  0  0  0  0  0  0  0
   -1.4488    3.9459    5.3992 C   0  0  0  0  0  0  0  0  0  0  0  0
   -0.7053    3.1635    5.6031 H   0  0  0  0  0  0  0  0  0  0  0  0
   -1.6760    4.4557    6.3333 H   0  0  0  0  0  0  0  0  0  0  0  0
   -1.0137    4.6657    4.7055 H   0  0  0  0  0  0  0  0  0  0  0  0
  1  2  1  0  0  0  0
  1  4  1  0  0  0  0
  2 22  1  0  0  0  0
  2  9  1  0  0  0  0
  3  1  1  0  0  0  0
  3 26  1  0  0  0  0
  5  1  1  0  0  0  0
  6 15  1  0  0  0  0
  6 18  1  0  0  0  0
  7  8  1  0  0  0  0
  7 15  2  0  0  0  0
  9 32  1  0  0  0  0
  9 10  1  0  0  0  0
 11  9  1  0  0  0  0
 12 13  1  0  0  0  0
 12  3  1  0  0  0  0
 14 12  1  0  0  0  0
 15 16  1  0  0  0  0
 17 25  1  0  0  0  0
 18 17  3  0  0  0  0
 19 21  1  0  0  0  0
 19  2  1  0  0  0  0
 20 19  1  0  0  0  0
 22 23  1  0  0  0  0
 22 49  1  0  0  0  0
 24 22  1  0  0  0  0
 25  5  3  0  0  0  0
 26 61  1  0  0  0  0
 26 28  1  0  0  0  0
 27 26  1  0  0  0  0
 29  7  1  0  0  0  0
 30 29  2  0  0  0  0
 30 39  1  0  0  0  0
 31 30  1  0  0  0  0
 32 35  1  0  0  0  0
 32 34  1  0  0  0  0
 33 32  1  0  0  0  0
 36  3  1  0  0  0  0
 36 37  1  0  0  0  0
 38 36  1  0  0  0  0
 39  6  2  0  0  0  0
 40 39  1  0  0  0  0
 41 42  1  0  0  0  0
 41 12  1  0  0  0  0
 41 44  1  0  0  0  0
 43 41  1  0  0  0  0
 45 47  1  0  0  0  0
 45 29  1  0  0  0  0
 46 45  1  0  0  0  0
 48 45  1  0  0  0  0
 49 51  1  0  0  0  0
 49 52  1  0  0  0  0
 50 49  1  0  0  0  0
 53 19  1  0  0  0  0
 53 54  1  0  0  0  0
 55 53  1  0  0  0  0
 56 53  1  0  0  0  0
 57 60  1  0  0  0  0
 57 36  1  0  0  0  0
 58 57  1  0  0  0  0
 59 57  1  0  0  0  0
 61 62  1  0  0  0  0
 61 63  1  0  0  0  0
 64 61  1  0  0  0  0
M  END
$$$$
