CSD_code = RIZNOD | q = 0 | S = 0 | Stoichiometry = C13H17Cl2NTi | MND = 12
 OpenBabel04212202093D

 34 35  0  0  1  0  0  0  0  0999 V2000
    5.9524    1.7016    7.0712 Ti  0  0  0  0  0  0  0  0  0  0  0  0
    5.0077   -0.0786    6.2615 Cl  0  0  0  0  0  0  0  0  0  0  0  0
    4.5059    1.8266    8.6861 Cl  0  0  0  0  0  0  0  0  0  0  0  0
    5.4360    3.0554    5.8996 N   0  0  0  0  0  0  0  0  0  0  0  0
    5.4010    2.9768    4.5169 C   0  0  0  0  0  0  0  0  0  0  0  0
    5.8021    1.7344    3.7815 C   0  0  0  0  0  0  0  0  0  0  0  0
    4.9666    4.1692    3.9986 C   0  0  0  0  0  0  0  0  0  0  0  0
    4.7621    4.5461    2.5712 C   0  0  0  0  0  0  0  0  0  0  0  0
    4.7307    5.0431    5.1089 C   0  0  0  0  0  0  0  0  0  0  0  0
    4.2444    6.4467    4.9885 C   0  0  0  0  0  0  0  0  0  0  0  0
    5.0338    4.3354    6.2433 C   0  0  0  0  0  0  0  0  0  0  0  0
    4.9731    4.7953    7.6682 C   0  0  0  0  0  0  0  0  0  0  0  0
    7.9961    0.5781    6.8764 C   0  0  0  0  0  3  0  0  0  0  0  0
    7.6200    0.5428    8.2365 C   0  0  0  0  0  0  0  0  0  0  0  0
    7.6116    1.8673    8.7219 C   0  0  0  0  0  0  0  0  0  0  0  0
    7.9701    2.7262    7.6586 C   0  0  0  0  0  3  0  0  0  0  0  0
    8.2097    1.9276    6.5154 C   0  0  2  0  0  0  0  0  0  0  0  0
    6.6245    1.2204    4.2901 H   0  0  0  0  0  0  0  0  0  0  0  0
    6.1229    1.9948    2.7746 H   0  0  0  0  0  0  0  0  0  0  0  0
    4.9622    1.0396    3.7016 H   0  0  0  0  0  0  0  0  0  0  0  0
    4.9720    3.7113    1.9087 H   0  0  0  0  0  0  0  0  0  0  0  0
    5.4112    5.3796    2.3013 H   0  0  0  0  0  0  0  0  0  0  0  0
    3.7321    4.8628    2.4103 H   0  0  0  0  0  0  0  0  0  0  0  0
    4.1524    6.9172    5.9633 H   0  0  0  0  0  0  0  0  0  0  0  0
    3.2683    6.4661    4.5042 H   0  0  0  0  0  0  0  0  0  0  0  0
    4.9292    7.0351    4.3776 H   0  0  0  0  0  0  0  0  0  0  0  0
    5.7579    4.3262    8.2708 H   0  0  0  0  0  0  0  0  0  0  0  0
    4.0068    4.5504    8.1163 H   0  0  0  0  0  0  0  0  0  0  0  0
    5.1005    5.8756    7.7082 H   0  0  0  0  0  0  0  0  0  0  0  0
    8.1872   -0.2862    6.2514 H   0  0  0  0  0  0  0  0  0  0  0  0
    7.4677   -0.3516    8.8287 H   0  0  0  0  0  0  0  0  0  0  0  0
    7.4546    2.1630    9.7523 H   0  0  0  0  0  0  0  0  0  0  0  0
    8.1752    3.7872    7.7348 H   0  0  0  0  0  0  0  0  0  0  0  0
    8.6225    2.2827    5.5788 H   0  0  0  0  0  0  0  0  0  0  0  0
  1  3  1  0  0  0  0
  2  1  1  0  0  0  0
  4 11  1  0  0  0  0
  4  1  1  0  0  0  0
  5  4  1  0  0  0  0
  6 18  1  0  0  0  0
  6  5  1  0  0  0  0
  7  5  2  0  0  0  0
  7  9  1  0  0  0  0
  8  7  1  0  0  0  0
  9 11  2  0  0  0  0
 10  9  1  0  0  0  0
 10 24  1  0  0  0  0
 11 12  1  0  0  0  0
 12 29  1  0  0  0  0
 12 28  1  0  0  0  0
 12 27  1  0  0  0  0
 13 14  1  0  0  0  0
 14 15  2  0  0  0  0
 14 31  1  0  0  0  0
 15 32  1  0  0  0  0
 16 33  1  0  0  0  0
 16 15  1  0  0  0  0
 17 34  1  6  0  0  0
 17 13  1  0  0  0  0
 17  1  1  0  0  0  0
 17 16  1  0  0  0  0
 19  6  1  0  0  0  0
 20  6  1  0  0  0  0
 21  8  1  0  0  0  0
 22  8  1  0  0  0  0
 23  8  1  0  0  0  0
 25 10  1  0  0  0  0
 26 10  1  0  0  0  0
 30 13  1  0  0  0  0
M  END
$$$$
