CSD_code = RIZPOF | q = 0 | S = 0 | Stoichiometry = C16H15ClN3O5Re | MND = 6
 OpenBabel04212202093D

 41 44  0  0  1  0  0  0  0  0999 V2000
    1.9351    2.5199    2.9975 Re  0  0  0  0  0  0  0  0  0  0  0  0
    0.6564    0.6337    2.3337 Cl  0  0  0  0  0  0  0  0  0  0  0  0
   -1.8700    2.8696    4.7228 O   0  0  0  0  0  0  0  0  0  0  0  0
    4.3098   -0.2878    6.2375 O   0  0  0  0  0  0  0  0  0  0  0  0
    2.1238    3.7655    0.1794 O   0  0  0  0  0  1  0  0  0  0  0  0
    4.2765    0.6947    2.1590 O   0  0  0  0  0  1  0  0  0  0  0  0
    3.5828    4.7754    4.3153 O   0  0  0  0  0  1  0  0  0  0  0  0
   -0.0069    3.2848    3.5522 N   0  0  0  0  0  0  0  0  0  0  0  0
    1.4337    1.5135    5.0030 N   0  0  0  0  0  0  0  0  0  0  0  0
    4.2369    1.4898    4.8752 N   0  0  0  0  0  0  0  0  0  0  0  0
   -1.2160    3.9121    1.5030 C   0  0  0  0  0  0  0  0  0  0  0  0
   -0.9826    4.2003    2.9831 C   0  0  1  0  0  0  0  0  0  0  0  0
   -2.2430    3.9298    3.8423 C   0  0  0  0  0  0  0  0  0  0  0  0
   -0.5898    2.5856    4.4549 C   0  0  0  0  0  0  0  0  0  0  0  0
    0.1140    1.5766    5.2269 C   0  0  0  0  0  0  0  0  0  0  0  0
   -0.5507    0.7632    6.1409 C   0  0  0  0  0  0  0  0  0  0  0  0
    0.1851   -0.1697    6.8484 C   0  0  0  0  0  0  0  0  0  0  0  0
    1.5546   -0.2185    6.6505 C   0  0  0  0  0  0  0  0  0  0  0  0
    2.1431    0.6487    5.7297 C   0  0  0  0  0  0  0  0  0  0  0  0
    3.5946    0.6464    5.5706 C   0  0  0  0  0  0  0  0  0  0  0  0
    5.6793   -0.0436    5.9204 C   0  0  0  0  0  0  0  0  0  0  0  0
    5.6470    1.2093    5.0009 C   0  0  2  0  0  0  0  0  0  0  0  0
    6.3735    2.4188    5.5773 C   0  0  0  0  0  0  0  0  0  0  0  0
    2.0603    3.3248    1.2394 C   0  0  0  0  0  2  0  0  0  0  0  0
    3.4865    1.4315    2.5350 C   0  0  0  0  0  2  0  0  0  0  0  0
    2.9691    3.9518    3.8021 C   0  0  0  0  0  2  0  0  0  0  0  0
   -2.0522    4.5052    1.1405 H   0  0  0  0  0  0  0  0  0  0  0  0
   -1.4324    2.8557    1.3569 H   0  0  0  0  0  0  0  0  0  0  0  0
   -0.3299    4.1641    0.9286 H   0  0  0  0  0  0  0  0  0  0  0  0
   -0.6131    5.2251    3.1051 H   0  0  0  0  0  0  0  0  0  0  0  0
   -2.5435    4.7882    4.4489 H   0  0  0  0  0  0  0  0  0  0  0  0
   -3.0922    3.5955    3.2408 H   0  0  0  0  0  0  0  0  0  0  0  0
   -1.6170    0.8674    6.2605 H   0  0  0  0  0  0  0  0  0  0  0  0
   -0.2960   -0.8389    7.5450 H   0  0  0  0  0  0  0  0  0  0  0  0
    2.1817   -0.9111    7.1881 H   0  0  0  0  0  0  0  0  0  0  0  0
    6.0832   -0.9286    5.4235 H   0  0  0  0  0  0  0  0  0  0  0  0
    6.2244    0.1346    6.8511 H   0  0  0  0  0  0  0  0  0  0  0  0
    6.0428    0.9927    4.0037 H   0  0  0  0  0  0  0  0  0  0  0  0
    6.1860    3.2802    4.9427 H   0  0  0  0  0  0  0  0  0  0  0  0
    7.4423    2.2273    5.6200 H   0  0  0  0  0  0  0  0  0  0  0  0
    6.0076    2.6397    6.5777 H   0  0  0  0  0  0  0  0  0  0  0  0
  1  8  1  0  0  0  0
  1 26  1  0  0  0  0
  1  9  1  0  0  0  0
  2  1  1  0  0  0  0
  5 24  1  0  0  0  0
  6 25  1  0  0  0  0
  8 14  1  0  0  0  0
  9 15  1  0  0  0  0
  9 19  1  0  0  0  0
 10 22  1  0  0  0  0
 10 20  2  0  0  0  0
 11 12  1  0  0  0  0
 12 30  1  1  0  0  0
 12  8  1  0  0  0  0
 12 13  1  0  0  0  0
 13 31  1  0  0  0  0
 13  3  1  0  0  0  0
 14  3  1  0  0  0  0
 14 15  2  0  0  0  0
 15 16  1  0  0  0  0
 16 33  1  0  0  0  0
 16 17  2  0  0  0  0
 17 34  1  0  0  0  0
 18 17  1  0  0  0  0
 18 35  1  0  0  0  0
 19 18  2  0  0  0  0
 20 19  1  0  0  0  0
 20  4  1  0  0  0  0
 21  4  1  0  0  0  0
 21 37  1  0  0  0  0
 22 38  1  6  0  0  0
 22 23  1  0  0  0  0
 22 21  1  0  0  0  0
 23 40  1  0  0  0  0
 23 41  1  0  0  0  0
 24  1  1  0  0  0  0
 25  1  1  0  0  0  0
 26  7  1  0  0  0  0
 27 11  1  0  0  0  0
 28 11  1  0  0  0  0
 29 11  1  0  0  0  0
 32 13  1  0  0  0  0
 36 21  1  0  0  0  0
 39 23  1  0  0  0  0
M  END
$$$$
