CSD_code = RIZTOL | q = 0 | S = 0 | Stoichiometry = C23H23BrF2N2Pt | MND = 6
 OpenBabel04212202093D

 52 56  0  0  1  0  0  0  0  0999 V2000
    2.7433   20.4206    3.8633 Pt  0  0  0  0  0  0  0  0  0  0  0  0
    1.3510   19.0783    2.1774 Br  0  0  0  0  0  0  0  0  0  0  0  0
   -0.9276   25.3685    3.5342 F   0  0  0  0  0  0  0  0  0  0  0  0
    6.5375   23.3880    7.7197 F   0  0  0  0  0  0  0  0  0  0  0  0
    4.0299   18.7112    3.9338 N   0  0  1  0  0  0  0  0  0  0  0  0
    4.4468   20.7461    2.0656 N   0  0  0  0  0  4  0  0  0  0  0  0
    1.7602   19.3477    5.2626 C   0  0  0  0  0  0  0  0  0  0  0  0
    0.5714   19.6236    5.9082 C   0  0  0  0  0  0  0  0  0  0  0  0
    0.0450   20.5491    5.7293 H   0  0  0  0  0  0  0  0  0  0  0  0
    0.0272   18.6929    6.7835 C   0  0  0  0  0  0  0  0  0  0  0  0
   -0.9034   18.9195    7.2819 H   0  0  0  0  0  0  0  0  0  0  0  0
    0.6560   17.4781    7.0134 C   0  0  0  0  0  0  0  0  0  0  0  0
    0.2196   16.7631    7.6940 H   0  0  0  0  0  0  0  0  0  0  0  0
    1.8284   17.1774    6.3528 C   0  0  0  0  0  0  0  0  0  0  0  0
    2.3165   16.2247    6.5008 H   0  0  0  0  0  0  0  0  0  0  0  0
    2.3905   18.1025    5.4693 C   0  0  0  0  0  0  0  0  0  0  0  0
    3.5746   17.8019    4.7000 C   0  0  0  0  0  3  0  0  0  0  0  0
    4.0251   16.8092    4.7610 H   0  0  0  0  0  0  0  0  0  0  0  0
    5.1434   18.5598    3.0520 C   0  0  0  0  0  0  0  0  0  0  0  0
    5.3324   17.5078    2.7982 H   0  0  0  0  0  0  0  0  0  0  0  0
    6.0371   18.9575    3.5495 H   0  0  0  0  0  0  0  0  0  0  0  0
    4.8416   19.3571    1.7780 C   0  0  0  0  0  0  0  0  0  0  0  0
    5.7187   19.3359    1.1132 H   0  0  0  0  0  0  0  0  0  0  0  0
    4.0107   18.8672    1.2635 H   0  0  0  0  0  0  0  0  0  0  0  0
    3.8903   21.3320    0.8456 C   0  0  0  0  0  0  0  0  0  0  0  0
    3.0192   20.7641    0.5223 H   0  0  0  0  0  0  0  0  0  0  0  0
    4.6280   21.3272    0.0320 H   0  0  0  0  0  0  0  0  0  0  0  0
    3.5931   22.3618    1.0402 H   0  0  0  0  0  0  0  0  0  0  0  0
    5.6249   21.5214    2.4479 C   0  0  0  0  0  0  0  0  0  0  0  0
    6.0390   21.1633    3.3884 H   0  0  0  0  0  0  0  0  0  0  0  0
    5.3516   22.5663    2.5777 H   0  0  0  0  0  0  0  0  0  0  0  0
    6.4011   21.4596    1.6722 H   0  0  0  0  0  0  0  0  0  0  0  0
    1.4917   22.0265    3.8150 C   0  0  0  0  0  0  0  0  0  0  0  0
    1.1195   22.7459    4.9528 C   0  0  0  0  0  0  0  0  0  0  0  0
    1.4724   22.4461    5.9305 H   0  0  0  0  0  0  0  0  0  0  0  0
    0.3067   23.8634    4.8674 C   0  0  0  0  0  0  0  0  0  0  0  0
    0.0225   24.4156    5.7497 H   0  0  0  0  0  0  0  0  0  0  0  0
   -0.1397   24.2726    3.6251 C   0  0  0  0  0  0  0  0  0  0  0  0
    0.2019   23.5872    2.4774 C   0  0  0  0  0  0  0  0  0  0  0  0
   -0.1678   23.9182    1.5195 H   0  0  0  0  0  0  0  0  0  0  0  0
    1.0117   22.4665    2.5835 C   0  0  0  0  0  0  0  0  0  0  0  0
    1.2395   21.9298    1.6733 H   0  0  0  0  0  0  0  0  0  0  0  0
    3.8948   21.4346    5.2160 C   0  0  0  0  0  0  0  0  0  0  0  0
    4.4725   20.7806    6.2999 C   0  0  0  0  0  0  0  0  0  0  0  0
    4.2365   19.7468    6.5155 H   0  0  0  0  0  0  0  0  0  0  0  0
    5.3581   21.4280    7.1480 C   0  0  0  0  0  0  0  0  0  0  0  0
    5.8029   20.9170    7.9879 H   0  0  0  0  0  0  0  0  0  0  0  0
    5.6667   22.7515    6.9047 C   0  0  0  0  0  0  0  0  0  0  0  0
    5.1022   23.4396    5.8481 C   0  0  0  0  0  0  0  0  0  0  0  0
    5.3499   24.4774    5.6879 H   0  0  0  0  0  0  0  0  0  0  0  0
    4.2161   22.7758    5.0157 C   0  0  0  0  0  0  0  0  0  0  0  0
    3.7643   23.3342    4.2067 H   0  0  0  0  0  0  0  0  0  0  0  0
  1  5  1  0  0  0  0
  1 43  1  0  0  0  0
  1  7  1  0  0  0  0
  2  1  1  0  0  0  0
  3 38  1  0  0  0  0
  5 17  1  6  0  0  0
  6 29  1  0  0  0  0
  6  1  1  0  0  0  0
  7 16  2  0  0  0  0
  7  8  1  0  0  0  0
  8 10  2  0  0  0  0
  9  8  1  0  0  0  0
 10 12  1  0  0  0  0
 10 11  1  0  0  0  0
 12 13  1  0  0  0  0
 14 15  1  0  0  0  0
 14 12  2  0  0  0  0
 16 14  1  0  0  0  0
 17 18  1  0  0  0  0
 17 16  1  0  0  0  0
 19 21  1  0  0  0  0
 19  5  1  0  0  0  0
 20 19  1  0  0  0  0
 22  6  1  0  0  0  0
 22 19  1  0  0  0  0
 23 22  1  0  0  0  0
 24 22  1  0  0  0  0
 25 28  1  0  0  0  0
 25  6  1  0  0  0  0
 26 25  1  0  0  0  0
 27 25  1  0  0  0  0
 29 31  1  0  0  0  0
 29 30  1  0  0  0  0
 32 29  1  0  0  0  0
 33  1  1  0  0  0  0
 33 34  1  0  0  0  0
 34 35  1  0  0  0  0
 36 34  2  0  0  0  0
 36 37  1  0  0  0  0
 38 36  1  0  0  0  0
 39 41  1  0  0  0  0
 39 38  2  0  0  0  0
 40 39  1  0  0  0  0
 41 33  2  0  0  0  0
 42 41  1  0  0  0  0
 43 44  1  0  0  0  0
 44 45  1  0  0  0  0
 44 46  2  0  0  0  0
 46 47  1  0  0  0  0
 48 46  1  0  0  0  0
 48  4  1  0  0  0  0
 49 48  2  0  0  0  0
 50 49  1  0  0  0  0
 51 43  2  0  0  0  0
 51 49  1  0  0  0  0
 52 51  1  0  0  0  0
M  END
$$$$
