CSD_code = ROBROP | q = 0 | S = 0 | Stoichiometry = C11H19Cl2O3PPt | MND = 6
 OpenBabel04212202093D

 37 36  0  0  1  0  0  0  0  0999 V2000
    2.1219   13.7519    2.6573 Pt  0  0  0  0  0  0  0  0  0  0  0  0
    0.3656   15.1745    2.4726 Cl  0  0  0  0  0 15  0  0  0  0  0  0
    1.1807   10.7343    1.8877 Cl  0  0  0  0  0  0  0  0  0  0  0  0
    0.2545   11.9150    4.2527 P   0  0  0  0  0  0  0  0  0  0  0  0
   -0.3898   13.2204    4.9509 O   0  0  0  0  0  0  0  0  0  0  0  0
   -1.0359   10.9883    4.0464 O   0  0  0  0  0  0  0  0  0  0  0  0
    1.3170   11.3311    5.0869 O   0  0  0  0  0  0  0  0  0  0  0  0
    0.6905   12.3012    2.5250 C   0  0  1  0  0  0  0  0  0  0  0  0
    3.4941   15.4305    2.0982 C   0  0  0  0  0  0  0  0  0  0  0  0
    3.5577   15.3351    3.4620 C   0  0  0  0  0  0  0  0  0  0  0  0
    4.6681   14.6699    4.2396 C   0  0  0  0  0  0  0  0  0  0  0  0
    4.3917   13.1790    4.5276 C   0  0  0  0  0  0  0  0  0  0  0  0
    3.6807   12.4362    3.4259 C   0  0  2  0  0  0  0  0  0  0  0  0
    3.9005   12.5755    2.0689 C   0  0  0  0  0  3  0  0  0  0  0  0
    4.9802   13.4436    1.4636 C   0  0  0  0  0  0  0  0  0  0  0  0
    4.4698   14.8514    1.1054 C   0  0  0  0  0  0  0  0  0  0  0  0
    0.4776   14.0319    5.7149 C   0  0  0  0  0  0  0  0  0  0  0  0
   -1.4859   10.2065    5.1407 C   0  0  0  0  0  0  0  0  0  0  0  0
   -0.2024   12.6040    1.9708 H   0  0  0  0  0  0  0  0  0  0  0  0
    2.8338   16.1877    1.6767 H   0  0  0  0  0  0  0  0  0  0  0  0
    2.9223   16.0078    4.0361 H   0  0  0  0  0  0  0  0  0  0  0  0
    5.6069   14.7895    3.6987 H   0  0  0  0  0  0  0  0  0  0  0  0
    4.7808   15.1843    5.1957 H   0  0  0  0  0  0  0  0  0  0  0  0
    3.7686   13.0961    5.4218 H   0  0  0  0  0  0  0  0  0  0  0  0
    5.3334   12.6662    4.7466 H   0  0  0  0  0  0  0  0  0  0  0  0
    3.1875   11.5316    3.7746 H   0  0  0  0  0  0  0  0  0  0  0  0
    3.5345   11.7849    1.4180 H   0  0  0  0  0  0  0  0  0  0  0  0
    5.8266   13.5001    2.1474 H   0  0  0  0  0  0  0  0  0  0  0  0
    5.3365   12.9680    0.5484 H   0  0  0  0  0  0  0  0  0  0  0  0
    3.9672   14.8054    0.1355 H   0  0  0  0  0  0  0  0  0  0  0  0
    5.3156   15.5381    0.9976 H   0  0  0  0  0  0  0  0  0  0  0  0
   -0.1356   14.8076    6.1700 H   0  0  0  0  0  0  0  0  0  0  0  0
    1.2372   14.4928    5.0681 H   0  0  0  0  0  0  0  0  0  0  0  0
    0.9773   13.4360    6.4818 H   0  0  0  0  0  0  0  0  0  0  0  0
   -1.9983    9.3400    4.7236 H   0  0  0  0  0  0  0  0  0  0  0  0
   -2.1748   10.7842    5.7590 H   0  0  0  0  0  0  0  0  0  0  0  0
   -0.6375    9.8822    5.7471 H   0  0  0  0  0  0  0  0  0  0  0  0
  1 13  1  0  0  0  0
  3  8  1  0  0  0  0
  4  5  1  0  0  0  0
  4  7  2  0  0  0  0
  5 17  1  0  0  0  0
  6  4  1  0  0  0  0
  6 18  1  0  0  0  0
  8 19  1  6  0  0  0
  8  1  1  0  0  0  0
  8  4  1  0  0  0  0
  9 10  2  0  0  0  0
 10 21  1  0  0  0  0
 10 11  1  0  0  0  0
 11 12  1  0  0  0  0
 11 23  1  0  0  0  0
 12 25  1  0  0  0  0
 12 24  1  0  0  0  0
 13 26  1  1  0  0  0
 13 12  1  0  0  0  0
 14 13  1  0  0  0  0
 15 14  1  0  0  0  0
 15 28  1  0  0  0  0
 16 15  1  0  0  0  0
 16  9  1  0  0  0  0
 17 32  1  0  0  0  0
 17 34  1  0  0  0  0
 18 37  1  0  0  0  0
 18 36  1  0  0  0  0
 20  9  1  0  0  0  0
 22 11  1  0  0  0  0
 27 14  1  0  0  0  0
 29 15  1  0  0  0  0
 30 16  1  0  0  0  0
 31 16  1  0  0  0  0
 33 17  1  0  0  0  0
 35 18  1  0  0  0  0
M  END
$$$$
