CSD_code = ROBSIL | q = 0 | S = 0 | Stoichiometry = C18H19ClN3O2STc | MND = 5
 OpenBabel04212202093D

 45 48  0  0  1  0  0  0  0  0999 V2000
    1.9367    2.0940    5.6721 Tc  0  0  0  0  0  0  0  0  0  0  0  0
    1.8515    1.4114    7.1564 O   0  0  0  0  0  1  0  0  0  0  0  0
    1.6876    4.2844    6.0978 Cl  0  0  0  0  0  0  0  0  0  0  0  0
    4.2322    2.4668    5.3276 S   0  0  0  0  0  0  0  0  0  0  0  0
    4.9065    0.9210    4.8373 C   0  0  2  0  0  3  0  0  0  0  0  0
    4.2677   -0.2200    4.8685 N   0  0  0  0  0  0  0  0  0  0  0  0
    2.9799   -0.4809    4.7960 C   0  0  0  0  0  0  0  0  0  0  0  0
    2.0758    0.4351    4.4467 N   0  0  0  0  0  0  0  0  0  0  0  0
    2.5900   -1.8679    5.0886 C   0  0  0  0  0  0  0  0  0  0  0  0
    3.4361   -2.9294    4.7789 C   0  0  0  0  0  0  0  0  0  0  0  0
    4.3695   -2.7277    4.2769 H   0  0  0  0  0  0  0  0  0  0  0  0
    3.0658   -4.2225    5.0973 C   0  0  0  0  0  0  0  0  0  0  0  0
    3.7191   -5.0454    4.8481 H   0  0  0  0  0  0  0  0  0  0  0  0
    1.8609   -4.4633    5.7381 C   0  0  0  0  0  0  0  0  0  0  0  0
    1.5756   -5.4742    5.9884 H   0  0  0  0  0  0  0  0  0  0  0  0
    1.0252   -3.4068    6.0660 C   0  0  0  0  0  0  0  0  0  0  0  0
    0.0937   -3.5930    6.5784 H   0  0  0  0  0  0  0  0  0  0  0  0
    1.3831   -2.1125    5.7427 C   0  0  0  0  0  0  0  0  0  0  0  0
    0.7479   -1.2819    6.0163 H   0  0  0  0  0  0  0  0  0  0  0  0
    6.1979    0.8935    4.4982 N   0  0  0  0  0  0  0  0  0  0  0  0
    6.7590   -0.3539    4.0123 C   0  0  0  0  0  0  0  0  0  0  0  0
    7.8458   -0.2811    4.0711 H   0  0  0  0  0  0  0  0  0  0  0  0
    6.4167   -1.1526    4.6763 H   0  0  0  0  0  0  0  0  0  0  0  0
    6.3341   -0.6714    2.5808 C   0  0  0  0  0  0  0  0  0  0  0  0
    6.7556   -1.6257    2.2763 H   0  0  0  0  0  0  0  0  0  0  0  0
    6.6799    0.0945    1.8922 H   0  0  0  0  0  0  0  0  0  0  0  0
    5.2512   -0.7325    2.5168 H   0  0  0  0  0  0  0  0  0  0  0  0
    7.0332    2.0745    4.5413 C   0  0  0  0  0  0  0  0  0  0  0  0
    8.0604    1.7504    4.7236 H   0  0  0  0  0  0  0  0  0  0  0  0
    6.7105    2.6936    5.3809 H   0  0  0  0  0  0  0  0  0  0  0  0
    6.9653    2.8928    3.2546 C   0  0  0  0  0  0  0  0  0  0  0  0
    7.5715    3.7873    3.3616 H   0  0  0  0  0  0  0  0  0  0  0  0
    5.9401    3.1932    3.0580 H   0  0  0  0  0  0  0  0  0  0  0  0
    7.3369    2.3218    2.4078 H   0  0  0  0  0  0  0  0  0  0  0  0
    0.9642    0.2254    3.6636 C   0  0  0  0  0  0  0  0  0  0  0  0
    0.6590   -0.8678    2.8597 C   0  0  0  0  0  0  0  0  0  0  0  0
    1.2953   -1.7400    2.8585 H   0  0  0  0  0  0  0  0  0  0  0  0
   -0.4737   -0.8171    2.0699 C   0  0  0  0  0  0  0  0  0  0  0  0
   -0.7262   -1.6669    1.4542 H   0  0  0  0  0  0  0  0  0  0  0  0
   -1.2847    0.3120    2.0522 C   0  0  0  0  0  0  0  0  0  0  0  0
   -2.1629    0.3269    1.4249 H   0  0  0  0  0  0  0  0  0  0  0  0
   -0.9743    1.4219    2.8134 C   0  0  0  0  0  0  0  0  0  0  0  0
   -1.5811    2.3133    2.7913 H   0  0  0  0  0  0  0  0  0  0  0  0
    0.1641    1.3917    3.6164 C   0  0  0  0  0  0  0  0  0  0  0  0
    0.5979    2.4053    4.3371 O   0  0  0  0  0  0  0  0  0  0  0  0
  1  3  1  0  0  0  0
  1  2  1  0  0  0  0
  4  1  1  0  0  0  0
  5 20  1  1  0  0  0
  5  6  1  0  0  0  0
  5  4  1  0  0  0  0
  7  6  2  0  0  0  0
  7  9  1  0  0  0  0
  8  7  1  0  0  0  0
  8  1  1  0  0  0  0
  9 18  1  0  0  0  0
 10  9  2  0  0  0  0
 10 12  1  0  0  0  0
 11 10  1  0  0  0  0
 12 14  2  0  0  0  0
 13 12  1  0  0  0  0
 14 15  1  0  0  0  0
 14 16  1  0  0  0  0
 16 17  1  0  0  0  0
 18 19  1  0  0  0  0
 18 16  2  0  0  0  0
 20 28  1  0  0  0  0
 21 22  1  0  0  0  0
 21 20  1  0  0  0  0
 21 23  1  0  0  0  0
 24 21  1  0  0  0  0
 25 24  1  0  0  0  0
 26 24  1  0  0  0  0
 27 24  1  0  0  0  0
 28 29  1  0  0  0  0
 28 30  1  0  0  0  0
 31 32  1  0  0  0  0
 31 28  1  0  0  0  0
 33 31  1  0  0  0  0
 34 31  1  0  0  0  0
 35  8  1  0  0  0  0
 36 35  2  0  0  0  0
 37 36  1  0  0  0  0
 38 36  1  0  0  0  0
 39 38  1  0  0  0  0
 40 38  2  0  0  0  0
 40 42  1  0  0  0  0
 41 40  1  0  0  0  0
 42 44  2  0  0  0  0
 43 42  1  0  0  0  0
 44 35  1  0  0  0  0
 44 45  1  0  0  0  0
 45  1  1  0  0  0  0
M  END
$$$$
