CSD_code = ROCWEO | q = 0 | S = 0 | Stoichiometry = C14H12ClMoN3O5 | MND = 6
 OpenBabel04212202093D

 36 39  0  0  0  0  0  0  0  0999 V2000
    1.9405    5.0616    6.1458 C   0  0  0  0  0  0  0  0  0  0  0  0
    1.5792    5.1500    4.7244 C   0  0  0  0  0  0  0  0  0  0  0  0
    2.5975    5.3861    3.8129 C   0  0  0  0  0  3  0  0  0  0  0  0
    3.6172    5.4811    4.1614 H   0  0  0  0  0  0  0  0  0  0  0  0
    1.0714    5.3979    2.0224 C   0  0  0  0  0  0  0  0  0  0  0  0
    0.9396    5.5058    0.9585 H   0  0  0  0  0  0  0  0  0  0  0  0
    0.0209    5.1646    2.8887 C   0  0  0  0  0  0  0  0  0  0  0  0
   -0.9795    5.0853    2.4944 H   0  0  0  0  0  0  0  0  0  0  0  0
    0.2591    5.0360    4.2472 C   0  0  0  0  0  0  0  0  0  0  0  0
   -0.5307    4.8558    4.9568 H   0  0  0  0  0  0  0  0  0  0  0  0
    0.5943    4.5127    9.2042 C   0  0  0  0  0  3  0  0  0  0  0  0
   -0.4430    4.3162    8.9264 H   0  0  0  0  0  0  0  0  0  0  0  0
    0.9413    4.4345   10.5857 C   0  0  0  0  0  0  0  0  0  0  0  0
    2.2690    4.6677   11.0282 C   0  0  0  0  0  0  0  0  0  0  0  0
    2.5611    4.5591   12.4224 C   0  0  0  0  0  0  0  0  0  0  0  0
    1.5586    4.2427   13.3161 C   0  0  0  0  0  0  0  0  0  0  0  0
    1.7672    4.1610   14.3711 H   0  0  0  0  0  0  0  0  0  0  0  0
    0.2532    4.0253   12.8659 C   0  0  0  0  0  0  0  0  0  0  0  0
   -0.5138    3.7816   13.5847 H   0  0  0  0  0  0  0  0  0  0  0  0
   -0.0519    4.1177   11.5342 C   0  0  0  0  0  0  0  0  0  0  0  0
   -1.0610    3.9474   11.1907 H   0  0  0  0  0  0  0  0  0  0  0  0
    4.2572    4.7114   14.0762 C   0  0  0  0  0  0  0  0  0  0  0  0
    5.3225    4.9353   14.0803 H   0  0  0  0  0  0  0  0  0  0  0  0
    3.7296    5.4451   14.6947 H   0  0  0  0  0  0  0  0  0  0  0  0
    4.0955    3.7077   14.4833 H   0  0  0  0  0  0  0  0  0  0  0  0
    1.4388    4.7936    8.2684 N   0  0  0  0  0  0  0  0  0  0  0  0
    0.9771    4.8351    6.9994 N   0  0  0  0  0  0  0  0  0  0  0  0
    2.3279    5.5002    2.5088 N   0  0  0  0  0  0  0  0  0  0  0  0
    3.0919    5.6740    1.8639 H   0  0  0  0  0  0  0  0  0  0  0  0
    3.1733    5.2249    6.4501 O   0  0  0  0  0  0  0  0  0  0  0  0
    3.2298    4.9813   10.2096 O   0  0  0  0  0  0  0  0  0  0  0  0
    5.1758    5.4139    8.2970 O   0  0  0  0  0  1  0  0  0  0  0  0
    3.4830    3.2906    8.1536 O   0  0  0  0  0  1  0  0  0  0  0  0
    3.8600    4.7915   12.7297 O   0  0  0  0  0  0  0  0  0  0  0  0
    3.6123    4.9300    8.4174 Mo  0  0  0  0  0  0  0  0  0  0  0  0
    2.8097    7.2625    8.4198 Cl  0  0  0  0  0  0  0  0  0  0  0  0
  1 30  1  0  0  0  0
  1 27  2  0  0  0  0
  2  1  1  0  0  0  0
  3  4  1  0  0  0  0
  3  2  1  0  0  0  0
  5 28  1  0  0  0  0
  5  7  2  0  0  0  0
  6  5  1  0  0  0  0
  7  9  1  0  0  0  0
  8  7  1  0  0  0  0
  9  2  2  0  0  0  0
  9 10  1  0  0  0  0
 11 13  1  0  0  0  0
 12 11  1  0  0  0  0
 13 14  2  0  0  0  0
 13 20  1  0  0  0  0
 14 15  1  0  0  0  0
 15 34  1  0  0  0  0
 15 16  2  0  0  0  0
 16 17  1  0  0  0  0
 18 16  1  0  0  0  0
 18 19  1  0  0  0  0
 20 18  2  0  0  0  0
 21 20  1  0  0  0  0
 22 23  1  0  0  0  0
 22 25  1  0  0  0  0
 22 24  1  0  0  0  0
 26 35  1  0  0  0  0
 26 11  1  0  0  0  0
 27 26  1  0  0  0  0
 28  3  1  0  0  0  0
 29 28  1  0  0  0  0
 30 35  1  0  0  0  0
 31 14  1  0  0  0  0
 32 35  1  0  0  0  0
 33 35  1  0  0  0  0
 34 22  1  0  0  0  0
 35 36  1  0  0  0  0
 35 31  1  0  0  0  0
M  END
$$$$
