CSD_code = RODKEC | q = 0 | S = 0 | Stoichiometry = C22H15BrFMnN2O3S | MND = 6
 OpenBabel04212202093D

 46 49  0  0  1  0  0  0  0  0999 V2000
    6.3205   15.4153    1.5682 C   0  0  1  0  0  3  0  0  0  0  0  0
    7.0415   16.5824    1.8111 C   0  0  0  0  0  0  0  0  0  0  0  0
    7.8126   16.8744    1.1161 H   0  0  0  0  0  0  0  0  0  0  0  0
    6.7701   17.3367    2.9418 C   0  0  0  0  0  0  0  0  0  0  0  0
    7.3237   18.2399    3.1466 H   0  0  0  0  0  0  0  0  0  0  0  0
    5.7769   16.9050    3.7977 C   0  0  0  0  0  0  0  0  0  0  0  0
    5.5209   17.4504    4.6918 H   0  0  0  0  0  0  0  0  0  0  0  0
    5.0731   15.7438    3.4775 C   0  0  0  0  0  0  0  0  0  0  0  0
    3.9828   15.2513    4.2731 C   0  0  0  0  0  3  0  0  0  0  0  0
    3.7411   15.7273    5.2200 H   0  0  0  0  0  0  0  0  0  0  0  0
    2.2672   13.7454    4.6057 C   0  0  0  0  0  0  0  0  0  0  0  0
    2.5594   13.2144    5.8701 C   0  0  0  0  0  0  0  0  0  0  0  0
    1.5397   12.6504    6.6234 C   0  0  0  0  0  0  0  0  0  0  0  0
    1.7579   12.2403    7.5971 H   0  0  0  0  0  0  0  0  0  0  0  0
    0.2451   12.6233    6.1404 C   0  0  0  0  0  0  0  0  0  0  0  0
   -0.5364   12.1842    6.7413 H   0  0  0  0  0  0  0  0  0  0  0  0
   -0.0485   13.1632    4.8981 C   0  0  0  0  0  0  0  0  0  0  0  0
   -1.0601   13.1525    4.5245 H   0  0  0  0  0  0  0  0  0  0  0  0
    0.9579   13.7165    4.1320 C   0  0  0  0  0  0  0  0  0  0  0  0
    0.7394   14.1497    3.1661 H   0  0  0  0  0  0  0  0  0  0  0  0
    4.3712   11.6087    7.2449 C   0  0  0  0  0  0  0  0  0  0  0  0
    3.9312   11.6306    8.2376 H   0  0  0  0  0  0  0  0  0  0  0  0
    5.4344   11.4018    7.3184 H   0  0  0  0  0  0  0  0  0  0  0  0
    3.8884   10.8681    6.6153 H   0  0  0  0  0  0  0  0  0  0  0  0
    6.6596   14.5954    0.3869 C   0  0  0  0  0  0  0  0  0  0  0  0
    7.1970   13.3206    0.5566 C   0  0  0  0  0  0  0  0  0  0  0  0
    7.3527   12.9310    1.5525 H   0  0  0  0  0  0  0  0  0  0  0  0
    7.5504   12.5627   -0.5437 C   0  0  0  0  0  0  0  0  0  0  0  0
    7.9710   11.5760   -0.4337 H   0  0  0  0  0  0  0  0  0  0  0  0
    7.3446   13.0883   -1.8074 C   0  0  0  0  0  0  0  0  0  0  0  0
    6.8120   14.3513   -2.0001 C   0  0  0  0  0  0  0  0  0  0  0  0
    6.6597   14.7230   -3.0007 H   0  0  0  0  0  0  0  0  0  0  0  0
    6.4806   15.1101   -0.8939 C   0  0  0  0  0  0  0  0  0  0  0  0
    6.0514   16.0927   -1.0208 H   0  0  0  0  0  0  0  0  0  0  0  0
    4.2865   13.0089    0.4007 C   0  0  0  0  0  2  0  0  0  0  0  0
    4.8259   12.2570    2.8407 C   0  0  0  0  0  2  0  0  0  0  0  0
    2.5117   12.3711    1.9461 C   0  0  0  0  0  2  0  0  0  0  0  0
    5.3405   15.0092    2.3766 N   0  0  0  0  0  0  0  0  0  0  0  0
    3.2901   14.2716    3.8022 N   0  0  0  0  0  0  0  0  0  0  0  0
    4.3835   12.6441   -0.6838 O   0  0  0  0  0  1  0  0  0  0  0  0
    5.4003   11.3953    3.3433 O   0  0  0  0  0  1  0  0  0  0  0  0
    1.6925   11.5722    1.8393 O   0  0  0  0  0  1  0  0  0  0  0  0
    7.6874   12.3545   -2.8805 F   0  0  0  0  0  0  0  0  0  0  0  0
    4.2373   13.2381    6.4545 S   0  0  0  0  0  0  0  0  0  0  0  0
    3.8615   13.5279    2.0660 Mn  0  0  0  0  0  0  0  0  0  0  0  0
    2.6339   15.3284    0.9310 Br  0  0  0  0  0  0  0  0  0  0  0  0
  1 25  1  1  0  0  0
  1  2  1  0  0  0  0
  1 38  1  0  0  0  0
  2  4  2  0  0  0  0
  3  2  1  0  0  0  0
  4  5  1  0  0  0  0
  4  6  1  0  0  0  0
  6  7  1  0  0  0  0
  8  6  2  0  0  0  0
  8  9  1  0  0  0  0
  9 10  1  0  0  0  0
 11 12  1  0  0  0  0
 12 44  1  0  0  0  0
 12 13  2  0  0  0  0
 13 14  1  0  0  0  0
 15 13  1  0  0  0  0
 15 16  1  0  0  0  0
 17 15  2  0  0  0  0
 18 17  1  0  0  0  0
 19 11  2  0  0  0  0
 19 17  1  0  0  0  0
 20 19  1  0  0  0  0
 21 23  1  0  0  0  0
 21 22  1  0  0  0  0
 24 21  1  0  0  0  0
 25 26  1  0  0  0  0
 26 27  1  0  0  0  0
 28 29  1  0  0  0  0
 28 26  2  0  0  0  0
 30 28  1  0  0  0  0
 31 30  2  0  0  0  0
 31 33  1  0  0  0  0
 32 31  1  0  0  0  0
 33 25  2  0  0  0  0
 34 33  1  0  0  0  0
 35 45  1  0  0  0  0
 36 41  1  0  0  0  0
 37 45  1  0  0  0  0
 38  8  1  0  0  0  0
 39  9  1  0  0  0  0
 39 11  1  0  0  0  0
 40 35  1  0  0  0  0
 42 37  1  0  0  0  0
 43 30  1  0  0  0  0
 44 21  1  0  0  0  0
 45 38  1  0  0  0  0
 45 36  1  0  0  0  0
 45 39  1  0  0  0  0
 46 45  1  0  0  0  0
M  END
$$$$
