CSD_code = RODNON | q = 0 | S = 0 | Stoichiometry = C25H28I2NOPPd | MND = 4
 OpenBabel04212202093D

 59 63  0  0  1  0  0  0  0  0999 V2000
    3.4856    0.8122   17.1420 Pd  0  0  0  0  0  0  0  0  0  0  0  0
    1.0835    0.9279   18.0919 I   0  0  0  0  0  0  0  0  0  0  0  0
    2.7511    1.8822   14.9091 I   0  0  0  0  0  0  0  0  0  0  0  0
    5.5920    0.7935   16.3654 P   0  0  0  0  0  4  0  0  0  0  0  0
    4.4357   -0.4189   18.8325 N   0  0  1  0  0  4  0  0  0  0  0  0
    3.4753    1.4085   21.1009 O   0  0  0  0  0  0  0  0  0  0  0  0
    5.4731   -1.1971   18.1512 C   0  0  0  0  0  0  0  0  0  0  0  0
    5.0396   -1.7457   17.3041 H   0  0  0  0  0  0  0  0  0  0  0  0
    5.9439   -1.9143   18.8392 H   0  0  0  0  0  0  0  0  0  0  0  0
    6.4636   -0.1124   17.7377 C   0  0  2  0  0  0  0  0  0  0  0  0
    7.4465   -0.4876   17.4420 H   0  0  0  0  0  0  0  0  0  0  0  0
    6.5107    0.7666   18.9942 C   0  0  0  0  0  0  0  0  0  0  0  0
    6.5972    1.8271   18.7424 H   0  0  0  0  0  0  0  0  0  0  0  0
    7.3661    0.5035   19.6168 H   0  0  0  0  0  0  0  0  0  0  0  0
    5.1931    0.4669   19.7366 C   0  0  1  0  0  0  0  0  0  0  0  0
    5.4015   -0.0669   20.6732 H   0  0  0  0  0  0  0  0  0  0  0  0
    3.4337   -1.2618   19.5168 C   0  0  0  0  0  0  0  0  0  0  0  0
    2.7527   -0.5930   20.0486 H   0  0  0  0  0  0  0  0  0  0  0  0
    2.8727   -1.7961   18.7379 H   0  0  0  0  0  0  0  0  0  0  0  0
    4.3905   -3.5232   20.0918 C   0  0  0  0  0  0  0  0  0  0  0  0
    4.2476   -3.8258   19.0631 H   0  0  0  0  0  0  0  0  0  0  0  0
    4.9328   -4.4178   20.9977 C   0  0  0  0  0  0  0  0  0  0  0  0
    5.2229   -5.4051   20.6693 H   0  0  0  0  0  0  0  0  0  0  0  0
    5.0969   -4.0497   22.3220 C   0  0  0  0  0  0  0  0  0  0  0  0
    5.5210   -4.7476   23.0284 H   0  0  0  0  0  0  0  0  0  0  0  0
    4.6999   -2.7908   22.7403 C   0  0  0  0  0  0  0  0  0  0  0  0
    4.8082   -2.5063   23.7765 H   0  0  0  0  0  0  0  0  0  0  0  0
    4.1553   -1.8967   21.8352 C   0  0  0  0  0  0  0  0  0  0  0  0
    3.8238   -0.9223   22.1651 H   0  0  0  0  0  0  0  0  0  0  0  0
    4.0090   -2.2492   20.4977 C   0  0  0  0  0  0  0  0  0  0  0  0
    4.4022    1.7252   20.0980 C   0  0  0  0  0  0  0  0  0  0  0  0
    5.0947    2.5066   20.4540 H   0  0  0  0  0  0  0  0  0  0  0  0
    3.8856    2.1229   19.1874 H   0  0  0  0  0  0  0  0  0  0  0  0
    2.6585    2.4954   21.4709 C   0  0  0  0  0  0  0  0  0  0  0  0
    1.9875    2.1250   22.2419 H   0  0  0  0  0  0  0  0  0  0  0  0
    2.0686    2.8539   20.6213 H   0  0  0  0  0  0  0  0  0  0  0  0
    3.2617    3.3210   21.8673 H   0  0  0  0  0  0  0  0  0  0  0  0
    6.5986   -1.3161   14.7862 C   0  0  0  0  0  0  0  0  0  0  0  0
    6.6614   -1.9127   15.6857 H   0  0  0  0  0  0  0  0  0  0  0  0
    6.9637   -1.8769   13.5755 C   0  0  0  0  0  0  0  0  0  0  0  0
    7.3055   -2.9011   13.5444 H   0  0  0  0  0  0  0  0  0  0  0  0
    6.8843   -1.1344   12.4092 C   0  0  0  0  0  0  0  0  0  0  0  0
    7.1628   -1.5810   11.4667 H   0  0  0  0  0  0  0  0  0  0  0  0
    6.4423    0.1781   12.4529 C   0  0  0  0  0  0  0  0  0  0  0  0
    6.3722    0.7588   11.5459 H   0  0  0  0  0  0  0  0  0  0  0  0
    6.0809    0.7481   13.6583 C   0  0  0  0  0  0  0  0  0  0  0  0
    5.7281    1.7698   13.6912 H   0  0  0  0  0  0  0  0  0  0  0  0
    6.1619    0.0050   14.8361 C   0  0  0  0  0  0  0  0  0  0  0  0
    5.6499    3.5227   16.7560 C   0  0  0  0  0  0  0  0  0  0  0  0
    4.6185    3.3854   17.0876 H   0  0  0  0  0  0  0  0  0  0  0  0
    6.2216    4.7818   16.7558 C   0  0  0  0  0  0  0  0  0  0  0  0
    5.6504    5.6342   17.0909 H   0  0  0  0  0  0  0  0  0  0  0  0
    7.5252    4.9441   16.3159 C   0  0  0  0  0  0  0  0  0  0  0  0
    7.9721    5.9268   16.3104 H   0  0  0  0  0  0  0  0  0  0  0  0
    8.2579    3.8515   15.8768 C   0  0  0  0  0  0  0  0  0  0  0  0
    9.2732    3.9845   15.5336 H   0  0  0  0  0  0  0  0  0  0  0  0
    7.6910    2.5911   15.8710 C   0  0  0  0  0  0  0  0  0  0  0  0
    8.2525    1.7357   15.5205 H   0  0  0  0  0  0  0  0  0  0  0  0
    6.3809    2.4255   16.3099 C   0  0  0  0  0  0  0  0  0  0  0  0
  1  2  1  0  0  0  0
  1  5  1  0  0  0  0
  3  1  1  0  0  0  0
  4  1  1  0  0  0  0
  4 10  1  0  0  0  0
  5 17  1  1  0  0  0
  5 15  1  0  0  0  0
  6 34  1  0  0  0  0
  7  5  1  0  0  0  0
  7  9  1  0  0  0  0
  8  7  1  0  0  0  0
 10 11  1  6  0  0  0
 10  7  1  0  0  0  0
 10 12  1  0  0  0  0
 12 14  1  0  0  0  0
 12 15  1  0  0  0  0
 13 12  1  0  0  0  0
 15 31  1  0  0  0  0
 15 16  1  1  0  0  0
 17 18  1  0  0  0  0
 17 30  1  0  0  0  0
 19 17  1  0  0  0  0
 20 30  2  0  0  0  0
 20 22  1  0  0  0  0
 21 20  1  0  0  0  0
 22 24  2  0  0  0  0
 23 22  1  0  0  0  0
 24 26  1  0  0  0  0
 24 25  1  0  0  0  0
 26 27  1  0  0  0  0
 28 29  1  0  0  0  0
 28 26  2  0  0  0  0
 30 28  1  0  0  0  0
 31 32  1  0  0  0  0
 31  6  1  0  0  0  0
 33 31  1  0  0  0  0
 34 37  1  0  0  0  0
 34 35  1  0  0  0  0
 36 34  1  0  0  0  0
 38 48  1  0  0  0  0
 38 39  1  0  0  0  0
 40 38  2  0  0  0  0
 41 40  1  0  0  0  0
 42 44  2  0  0  0  0
 42 40  1  0  0  0  0
 43 42  1  0  0  0  0
 44 46  1  0  0  0  0
 45 44  1  0  0  0  0
 46 47  1  0  0  0  0
 46 48  2  0  0  0  0
 48  4  1  0  0  0  0
 49 50  1  0  0  0  0
 51 49  1  0  0  0  0
 51 52  1  0  0  0  0
 53 51  2  0  0  0  0
 54 53  1  0  0  0  0
 55 53  1  0  0  0  0
 56 55  1  0  0  0  0
 57 55  2  0  0  0  0
 57 59  1  0  0  0  0
 58 57  1  0  0  0  0
 59  4  1  0  0  0  0
 59 49  2  0  0  0  0
M  END
$$$$
