CSD_code = RODNAZ | q = 0 | S = 0 | Stoichiometry = C21H26I2NOPPd | MND = 4
 OpenBabel04212202093D

 53 57  0  0  1  0  0  0  0  0999 V2000
    0.5926   15.8288    6.1105 Pd  0  0  0  0  0  0  0  0  0  0  0  0
   -1.5337   15.2123    4.7865 I   0  0  0  0  0  0  0  0  0  0  0  0
    2.2275   14.9210    4.2866 I   0  0  0  0  0  0  0  0  0  0  0  0
   -0.5550   15.9167    8.0377 P   0  0  0  0  0  4  0  0  0  0  0  0
    2.2278   16.7662    7.3349 N   0  0  1  0  0  4  0  0  0  0  0  0
    1.0815   18.2945    5.3620 O   0  0  0  0  0  0  0  0  0  0  0  0
    1.6115   17.3806    8.5089 C   0  0  0  0  0  0  0  0  0  0  0  0
    2.3861   17.8026    9.1702 H   0  0  0  0  0  0  0  0  0  0  0  0
    0.9125   18.1753    8.2314 H   0  0  0  0  0  0  0  0  0  0  0  0
    0.9129   16.1844    9.1494 C   0  0  2  0  0  0  0  0  0  0  0  0
    0.6526   16.3429   10.1990 H   0  0  0  0  0  0  0  0  0  0  0  0
    1.9120   15.0303    8.9006 C   0  0  0  0  0  0  0  0  0  0  0  0
    1.4089   14.1678    8.4376 H   0  0  0  0  0  0  0  0  0  0  0  0
    2.3919   14.6901    9.8182 H   0  0  0  0  0  0  0  0  0  0  0  0
    2.9364   15.6285    7.9240 C   0  0  0  0  0  0  0  0  0  0  0  0
    3.8258   15.9842    8.4686 H   0  0  0  0  0  0  0  0  0  0  0  0
    3.2629   14.9203    7.1566 H   0  0  0  0  0  0  0  0  0  0  0  0
    3.0880   17.6690    6.5794 C   0  0  0  0  0  0  0  0  0  0  0  0
    3.5863   17.0901    5.7960 H   0  0  0  0  0  0  0  0  0  0  0  0
    3.8571   18.1068    7.2358 H   0  0  0  0  0  0  0  0  0  0  0  0
    2.2805   18.8113    5.9267 C   0  0  1  0  0  0  0  0  0  0  0  0
    2.0012   19.5418    6.7015 H   0  0  0  0  0  0  0  0  0  0  0  0
    3.0550   19.4824    4.7830 C   0  0  0  0  0  0  0  0  0  0  0  0
    2.8411   20.5517    4.7671 H   0  0  0  0  0  0  0  0  0  0  0  0
    4.1290   19.3420    4.8843 H   0  0  0  0  0  0  0  0  0  0  0  0
    2.4798   18.8063    3.5386 C   0  0  0  0  0  0  0  0  0  0  0  0
    2.9786   17.8561    3.3484 H   0  0  0  0  0  0  0  0  0  0  0  0
    2.5510   19.4260    2.6491 H   0  0  0  0  0  0  0  0  0  0  0  0
    1.0358   18.5674    3.9598 C   0  0  0  0  0  0  0  0  0  0  0  0
    0.4205   19.4634    3.7968 H   0  0  0  0  0  0  0  0  0  0  0  0
    0.5680   17.7131    3.4616 H   0  0  0  0  0  0  0  0  0  0  0  0
   -2.2606   17.5814    9.5144 C   0  0  0  0  0  0  0  0  0  0  0  0
   -2.1737   16.8511   10.3080 H   0  0  0  0  0  0  0  0  0  0  0  0
   -3.0364   18.7125    9.6810 C   0  0  0  0  0  0  0  0  0  0  0  0
   -3.5553   18.8756   10.6142 H   0  0  0  0  0  0  0  0  0  0  0  0
   -3.1556   19.6336    8.6505 C   0  0  0  0  0  0  0  0  0  0  0  0
   -3.7690   20.5119    8.7860 H   0  0  0  0  0  0  0  0  0  0  0  0
   -2.4988   19.4281    7.4486 C   0  0  0  0  0  0  0  0  0  0  0  0
   -2.6005   20.1426    6.6455 H   0  0  0  0  0  0  0  0  0  0  0  0
   -1.7176   18.2994    7.2748 C   0  0  0  0  0  0  0  0  0  0  0  0
   -1.2023   18.1219    6.3336 H   0  0  0  0  0  0  0  0  0  0  0  0
   -1.5954   17.3772    8.3090 C   0  0  0  0  0  0  0  0  0  0  0  0
   -1.1074   13.8206    9.8637 C   0  0  0  0  0  0  0  0  0  0  0  0
   -0.1230   13.9631   10.2856 H   0  0  0  0  0  0  0  0  0  0  0  0
   -1.9384   12.8464   10.3885 C   0  0  0  0  0  0  0  0  0  0  0  0
   -1.5920   12.2385   11.2117 H   0  0  0  0  0  0  0  0  0  0  0  0
   -3.2034   12.6468    9.8617 C   0  0  0  0  0  0  0  0  0  0  0  0
   -3.8425   11.8795   10.2721 H   0  0  0  0  0  0  0  0  0  0  0  0
   -3.6470   13.4301    8.8080 C   0  0  0  0  0  0  0  0  0  0  0  0
   -4.6310   13.2769    8.3924 H   0  0  0  0  0  0  0  0  0  0  0  0
   -2.8267   14.4087    8.2816 C   0  0  0  0  0  0  0  0  0  0  0  0
   -3.1680   15.0191    7.4564 H   0  0  0  0  0  0  0  0  0  0  0  0
   -1.5498   14.6087    8.8057 C   0  0  0  0  0  0  0  0  0  0  0  0
  1  5  1  0  0  0  0
  1  4  1  0  0  0  0
  2  1  1  0  0  0  0
  3  1  1  0  0  0  0
  4 42  1  0  0  0  0
  4 53  1  0  0  0  0
  4 10  1  0  0  0  0
  5 18  1  6  0  0  0
  5 15  1  0  0  0  0
  5  7  1  0  0  0  0
  6 21  1  0  0  0  0
  7 10  1  0  0  0  0
  7  8  1  0  0  0  0
  9  7  1  0  0  0  0
 10 11  1  1  0  0  0
 12 10  1  0  0  0  0
 12 14  1  0  0  0  0
 13 12  1  0  0  0  0
 15 16  1  0  0  0  0
 15 12  1  0  0  0  0
 17 15  1  0  0  0  0
 18 20  1  0  0  0  0
 19 18  1  0  0  0  0
 21 18  1  0  0  0  0
 21 22  1  1  0  0  0
 23 25  1  0  0  0  0
 23 21  1  0  0  0  0
 24 23  1  0  0  0  0
 26 29  1  0  0  0  0
 26 23  1  0  0  0  0
 27 26  1  0  0  0  0
 28 26  1  0  0  0  0
 29  6  1  0  0  0  0
 30 29  1  0  0  0  0
 31 29  1  0  0  0  0
 32 34  1  0  0  0  0
 32 33  1  0  0  0  0
 34 35  1  0  0  0  0
 36 37  1  0  0  0  0
 36 34  2  0  0  0  0
 38 36  1  0  0  0  0
 39 38  1  0  0  0  0
 40 38  2  0  0  0  0
 40 42  1  0  0  0  0
 41 40  1  0  0  0  0
 42 32  2  0  0  0  0
 43 44  1  0  0  0  0
 43 45  1  0  0  0  0
 45 46  1  0  0  0  0
 47 48  1  0  0  0  0
 47 45  2  0  0  0  0
 49 47  1  0  0  0  0
 50 49  1  0  0  0  0
 51 53  1  0  0  0  0
 51 49  2  0  0  0  0
 52 51  1  0  0  0  0
 53 43  2  0  0  0  0
M  END
$$$$
