CSD_code = RODQIL | q = 0 | S = 0 | Stoichiometry = C17H11CdCl2N3O | MND = 5
 OpenBabel04212202093D

 35 40  0  0  1  0  0  0  0  0999 V2000
    0.5080   13.4237    5.0368 C   0  0  2  0  0  3  0  0  0  0  0  0
    0.5025   13.0819    6.4291 C   0  0  0  0  0  0  0  0  0  0  0  0
    0.1833   12.0766    6.6581 H   0  0  0  0  0  0  0  0  0  0  0  0
    0.9303   13.9413    7.3858 C   0  0  0  0  0  0  0  0  0  0  0  0
    0.9481   13.6466    8.4238 H   0  0  0  0  0  0  0  0  0  0  0  0
    1.3837   15.2270    7.0166 C   0  0  0  0  0  0  0  0  0  0  0  0
    1.7654   15.9106    7.7555 H   0  0  0  0  0  0  0  0  0  0  0  0
    1.3679   15.5756    5.7089 C   0  0  0  0  0  0  0  0  0  0  0  0
    1.7501   16.5261    5.3690 H   0  0  0  0  0  0  0  0  0  0  0  0
    0.5195   16.4821    3.0863 C   0  0  0  0  0  0  0  0  0  0  0  0
    0.1325   17.1289    3.8580 H   0  0  0  0  0  0  0  0  0  0  0  0
    0.9489   15.1758    3.4008 C   0  0  0  0  0  0  0  0  0  0  0  0
    1.4459   14.7308    1.2059 C   0  0  0  0  0  0  0  0  0  0  0  0
    1.0549   16.0229    0.7882 C   0  0  0  0  0  0  0  0  0  0  0  0
    0.5747   16.8967    1.7812 C   0  0  0  0  0  0  0  0  0  0  0  0
    0.2455   17.8877    1.5035 H   0  0  0  0  0  0  0  0  0  0  0  0
    1.1466   16.3780   -0.5863 C   0  0  0  0  0  0  0  0  0  0  0  0
    0.8404   17.3715   -0.8791 H   0  0  0  0  0  0  0  0  0  0  0  0
    1.6046   15.4922   -1.5045 C   0  0  0  0  0  0  0  0  0  0  0  0
    1.6708   15.7623   -2.5482 H   0  0  0  0  0  0  0  0  0  0  0  0
    1.9390   13.7921    0.2337 C   0  0  0  0  0  0  0  0  0  0  0  0
    2.0110   14.1816   -1.1233 C   0  0  0  0  0  0  0  0  0  0  0  0
    2.4886   13.2303   -2.0430 C   0  0  0  0  0  0  0  0  0  0  0  0
    2.5598   13.4927   -3.0889 H   0  0  0  0  0  0  0  0  0  0  0  0
    2.8508   11.9841   -1.5946 C   0  0  0  0  0  0  0  0  0  0  0  0
    3.2138   11.2298   -2.2744 H   0  0  0  0  0  0  0  0  0  0  0  0
    2.7443   11.6957   -0.2271 C   0  0  0  0  0  0  0  0  0  0  0  0
    3.0076   10.7220    0.1692 H   0  0  0  0  0  0  0  0  0  0  0  0
    2.1191   12.0507    3.0080 Cd  0  0  0  0  0  0  0  0  0  0  0  0
    3.5348   12.9896    4.6526 Cl  0  0  0  0  0  0  0  0  0  0  0  0
    2.2244    9.7510    2.6765 Cl  0  0  0  0  0  0  0  0  0  0  0  0
    0.9149   14.7325    4.7383 N   0  0  0  0  0  0  0  0  0  0  0  0
    1.3779   14.3443    2.4830 N   0  0  0  0  0  0  0  0  0  0  0  0
    2.3122   12.5728    0.6486 N   0  0  0  0  0  0  0  0  0  0  0  0
    0.1366   12.6604    4.1440 O   0  0  0  0  0  0  0  0  0  0  0  0
  1 35  1  1  0  0  0
  1  2  1  0  0  0  0
  2  3  1  0  0  0  0
  2  4  2  0  0  0  0
  4  5  1  0  0  0  0
  6  4  1  0  0  0  0
  6  7  1  0  0  0  0
  8  6  2  0  0  0  0
  9  8  1  0  0  0  0
 10 12  2  0  0  0  0
 10 11  1  0  0  0  0
 12 32  1  0  0  0  0
 13 33  1  0  0  0  0
 14 13  1  0  0  0  0
 14 15  2  0  0  0  0
 15 10  1  0  0  0  0
 16 15  1  0  0  0  0
 17 14  1  0  0  0  0
 18 17  1  0  0  0  0
 19 22  1  0  0  0  0
 19 17  2  0  0  0  0
 20 19  1  0  0  0  0
 21 34  1  0  0  0  0
 21 13  2  0  0  0  0
 22 21  1  0  0  0  0
 23 25  1  0  0  0  0
 23 22  2  0  0  0  0
 24 23  1  0  0  0  0
 25 27  2  0  0  0  0
 26 25  1  0  0  0  0
 27 28  1  0  0  0  0
 27 34  1  0  0  0  0
 29 35  1  0  0  0  0
 29 30  1  0  0  0  0
 31 29  1  0  0  0  0
 32  1  1  0  0  0  0
 32  8  1  0  0  0  0
 33 29  1  0  0  0  0
 33 12  1  0  0  0  0
 34 29  1  0  0  0  0
M  END
$$$$
