CSD_code = RODWAL | q = 0 | S = 0 | Stoichiometry = C22H14Br2F4N6O2Zn | MND = 4
 OpenBabel04212202093D

 51 54  0  0  0  0  0  0  0  0999 V2000
    7.1494    3.0366    5.2601 C   0  0  0  0  0  0  0  0  0  0  0  0
    8.1355    3.2006    4.8507 H   0  0  0  0  0  0  0  0  0  0  0  0
    6.9298    2.1287    6.2905 C   0  0  0  0  0  3  0  0  0  0  0  0
    7.7387    1.5646    6.7333 H   0  0  0  0  0  0  0  0  0  0  0  0
    4.7093    2.6201    6.2405 C   0  0  0  0  0  0  0  0  0  0  0  0
    3.7056    2.4491    6.6049 H   0  0  0  0  0  0  0  0  0  0  0  0
    4.9449    3.5493    5.2294 C   0  0  0  0  0  0  0  0  0  0  0  0
    3.8118    4.3701    4.6820 C   0  0  0  0  0  0  0  0  0  0  0  0
    3.4356    5.9518    2.8206 C   0  0  0  0  0  0  0  0  0  0  0  0
    4.0618    6.6085    1.7555 C   0  0  0  0  0  0  0  0  0  0  0  0
    3.3903    7.4800    0.9257 C   0  0  0  0  0  0  0  0  0  0  0  0
    3.9211    7.9594    0.1194 H   0  0  0  0  0  0  0  0  0  0  0  0
    2.0446    7.7219    1.1455 C   0  0  0  0  0  0  0  0  0  0  0  0
    1.4868    8.3966    0.5177 H   0  0  0  0  0  0  0  0  0  0  0  0
    1.4205    7.0742    2.1973 C   0  0  0  0  0  0  0  0  0  0  0  0
    2.0835    6.1971    3.0370 C   0  0  0  0  0  0  0  0  0  0  0  0
    1.5607    5.7118    3.8443 H   0  0  0  0  0  0  0  0  0  0  0  0
    6.1646    3.7410    4.7355 N   0  0  0  0  0  0  0  0  0  0  0  0
    5.7053    1.9162    6.7658 N   0  0  0  0  0  0  0  0  0  0  0  0
    4.1967    5.0894    3.5989 N   0  0  0  0  0  0  0  0  0  0  0  0
    5.1751    4.9925    3.3394 H   0  0  0  0  0  0  0  0  0  0  0  0
    2.7135    4.3592    5.1914 O   0  0  0  0  0  0  0  0  0  0  0  0
    5.2980    0.3802    8.3230 Zn  0  0  0  0  0  0  0  0  0  0  0  0
    5.3779    6.3688    1.5451 F   0  0  0  0  0  0  0  0  0  0  0  0
    0.1156    7.3054    2.4164 F   0  0  0  0  0  0  0  0  0  0  0  0
    3.1088   -0.2747    7.7897 Br  0  0  0  0  0  0  0  0  0  0  0  0
    3.4467    3.0361   11.3865 C   0  0  0  0  0  0  0  0  0  0  0  0
    2.4606    3.2001   11.7958 H   0  0  0  0  0  0  0  0  0  0  0  0
    3.6662    2.1283   10.3559 C   0  0  0  0  0  3  0  0  0  0  0  0
    2.8573    1.5644    9.9130 H   0  0  0  0  0  0  0  0  0  0  0  0
    5.8867    2.6200   10.4056 C   0  0  0  0  0  0  0  0  0  0  0  0
    6.8904    2.4488   10.0414 H   0  0  0  0  0  0  0  0  0  0  0  0
    5.6511    3.5490   11.4169 C   0  0  0  0  0  0  0  0  0  0  0  0
    6.7844    4.3696   11.9645 C   0  0  0  0  0  0  0  0  0  0  0  0
    7.1605    5.9516   13.8256 C   0  0  0  0  0  0  0  0  0  0  0  0
    6.5342    6.6086   14.8904 C   0  0  0  0  0  0  0  0  0  0  0  0
    7.2057    7.4803   15.7202 C   0  0  0  0  0  0  0  0  0  0  0  0
    6.6749    7.9599   16.5263 H   0  0  0  0  0  0  0  0  0  0  0  0
    8.5515    7.7220   15.5004 C   0  0  0  0  0  0  0  0  0  0  0  0
    9.1092    8.3969   16.1281 H   0  0  0  0  0  0  0  0  0  0  0  0
    9.1756    7.0741   14.4488 C   0  0  0  0  0  0  0  0  0  0  0  0
    8.5126    6.1968   13.6092 C   0  0  0  0  0  0  0  0  0  0  0  0
    9.0355    5.7113   12.8021 H   0  0  0  0  0  0  0  0  0  0  0  0
    4.4315    3.7406   11.9110 N   0  0  0  0  0  0  0  0  0  0  0  0
    4.8907    1.9160    9.8805 N   0  0  0  0  0  0  0  0  0  0  0  0
    6.3995    5.0890   13.0474 N   0  0  0  0  0  0  0  0  0  0  0  0
    5.4210    4.9922   13.3069 H   0  0  0  0  0  0  0  0  0  0  0  0
    7.8827    4.3587   11.4551 O   0  0  0  0  0  0  0  0  0  0  0  0
    5.2181    6.3691   15.1008 F   0  0  0  0  0  0  0  0  0  0  0  0
   10.4805    7.3052   14.2297 F   0  0  0  0  0  0  0  0  0  0  0  0
    7.4872   -0.2749    8.8562 Br  0  0  0  0  0  0  0  0  0  0  0  0
  1  3  1  0  0  0  0
  2  1  1  0  0  0  0
  3  4  1  0  0  0  0
  3 19  1  0  0  0  0
  5  6  1  0  0  0  0
  5 19  1  0  0  0  0
  7  5  2  0  0  0  0
  8 22  2  0  0  0  0
  8  7  1  0  0  0  0
  9 16  1  0  0  0  0
  9 20  1  0  0  0  0
 10  9  2  0  0  0  0
 11 13  2  0  0  0  0
 11 10  1  0  0  0  0
 12 11  1  0  0  0  0
 13 15  1  0  0  0  0
 14 13  1  0  0  0  0
 15 25  1  0  0  0  0
 15 16  2  0  0  0  0
 16 17  1  0  0  0  0
 18  7  1  0  0  0  0
 18  1  2  0  0  0  0
 19 23  1  0  0  0  0
 20  8  1  0  0  0  0
 21 20  1  0  0  0  0
 23 51  1  0  0  0  0
 23 45  1  0  0  0  0
 24 10  1  0  0  0  0
 26 23  1  0  0  0  0
 27 28  1  0  0  0  0
 27 44  2  0  0  0  0
 29 27  1  0  0  0  0
 30 29  1  0  0  0  0
 31 33  2  0  0  0  0
 32 31  1  0  0  0  0
 33 44  1  0  0  0  0
 33 34  1  0  0  0  0
 34 46  1  0  0  0  0
 35 36  1  0  0  0  0
 36 49  1  0  0  0  0
 36 37  2  0  0  0  0
 37 38  1  0  0  0  0
 39 37  1  0  0  0  0
 39 40  1  0  0  0  0
 41 39  2  0  0  0  0
 42 35  2  0  0  0  0
 42 41  1  0  0  0  0
 43 42  1  0  0  0  0
 45 29  1  0  0  0  0
 45 31  1  0  0  0  0
 46 47  1  0  0  0  0
 46 35  1  0  0  0  0
 48 34  2  0  0  0  0
 50 41  1  0  0  0  0
M  END
$$$$
