CSD_code = ROFXUF | q = 0 | S = 0 | Stoichiometry = C6H10Cl2N2OPtS | MND = 4
 OpenBabel04212202093D

 23 23  0  0  0  0  0  0  0  0999 V2000
    2.1192    3.5951    1.6202 Pt  0  0  0  0  0  0  0  0  0  0  0  0
    0.8788    4.9979    0.3910 Cl  0  0  0  0  0  0  0  0  0  0  0  0
    3.1143    5.2701    2.7524 Cl  0  0  0  0  0  0  0  0  0  0  0  0
    1.0531    1.9286    0.4580 S   0  0  0  0  0  0  0  0  0  0  0  0
    1.4664    0.5775    0.8226 O   0  0  0  0  0  1  0  0  0  0  0  0
    3.1962    2.2994    2.7040 N   0  0  0  0  0  0  0  0  0  0  0  0
    4.7055    0.5012    2.7674 N   0  0  0  0  0  0  0  0  0  0  0  0
    1.1745    2.0799   -1.3501 C   0  0  0  0  0  0  0  0  0  0  0  0
    2.2158    1.9598   -1.6292 H   0  0  0  0  0  0  0  0  0  0  0  0
    0.8253    3.0725   -1.6102 H   0  0  0  0  0  0  0  0  0  0  0  0
    0.5733    1.3046   -1.8100 H   0  0  0  0  0  0  0  0  0  0  0  0
    3.9936    1.3964    2.1292 C   0  0  0  0  0  3  0  0  0  0  0  0
    4.0691    1.4014    1.0490 H   0  0  0  0  0  0  0  0  0  0  0  0
   -0.7568    2.0105    0.6056 C   0  0  0  0  0  0  0  0  0  0  0  0
   -1.0135    1.8520    1.6477 H   0  0  0  0  0  0  0  0  0  0  0  0
   -1.1962    1.2339   -0.0093 H   0  0  0  0  0  0  0  0  0  0  0  0
   -1.0603    3.0011    0.2866 H   0  0  0  0  0  0  0  0  0  0  0  0
    4.6278    0.4743    4.0897 C   0  0  0  0  0  0  0  0  0  0  0  0
    5.2220   -0.2805    4.5859 H   0  0  0  0  0  0  0  0  0  0  0  0
    3.8338    1.3739    4.7878 C   0  0  0  0  0  0  0  0  0  0  0  0
    3.7722    1.3673    5.8631 H   0  0  0  0  0  0  0  0  0  0  0  0
    3.1241    2.2947    4.0368 C   0  0  0  0  0  0  0  0  0  0  0  0
    2.4969    3.0502    4.4942 H   0  0  0  0  0  0  0  0  0  0  0  0
  1  6  1  0  0  0  0
  1  3  1  0  0  0  0
  2  1  1  0  0  0  0
  4 14  1  0  0  0  0
  4  5  1  0  0  0  0
  4  1  1  0  0  0  0
  6 22  1  0  0  0  0
  7 18  2  0  0  0  0
  8  4  1  0  0  0  0
  9  8  1  0  0  0  0
 10  8  1  0  0  0  0
 11  8  1  0  0  0  0
 12  6  1  0  0  0  0
 12  7  1  0  0  0  0
 13 12  1  0  0  0  0
 14 15  1  0  0  0  0
 16 14  1  0  0  0  0
 17 14  1  0  0  0  0
 18 19  1  0  0  0  0
 18 20  1  0  0  0  0
 20 21  1  0  0  0  0
 22 23  1  0  0  0  0
 22 20  2  0  0  0  0
M  END
$$$$
