CSD_code = ROFYAM | q = 0 | S = 0 | Stoichiometry = C8H12Cl2N2OPtS | MND = 4
 OpenBabel04212202093D

 27 28  0  0  0  0  0  0  0  0999 V2000
    5.8382   13.3792    0.7064 Pt  0  0  0  0  0  0  0  0  0  0  0  0
    7.9426   13.8698    1.2920 Cl  0  0  0  0  0  0  0  0  0  0  0  0
    6.4307   12.7345   -1.3685 Cl  0  0  0  0  0  0  0  0  0  0  0  0
    5.2933   14.0038    2.8531 S   0  0  0  0  0  0  0  0  0  0  0  0
    3.8559   13.9660    3.1262 O   0  0  0  0  0  1  0  0  0  0  0  0
    3.9378   12.9303    0.2726 N   0  0  0  0  0  0  0  0  0  0  0  0
    2.3442   11.2652   -0.1797 N   0  0  0  0  0  0  0  0  0  0  0  0
    5.9658   15.5903    3.4846 C   0  0  0  0  0  0  0  0  0  0  0  0
    6.7907   15.8470    2.8230 H   0  0  0  0  0  0  0  0  0  0  0  0
    5.1750   16.3325    3.4304 H   0  0  0  0  0  0  0  0  0  0  0  0
    3.5778   11.6791   -0.0265 C   0  0  0  0  0  3  0  0  0  0  0  0
    4.3689   10.9496   -0.1578 H   0  0  0  0  0  0  0  0  0  0  0  0
    6.4457   15.2866    4.8892 C   0  0  0  0  0  0  0  0  0  0  0  0
    7.1311   16.0546    5.2475 H   0  0  0  0  0  0  0  0  0  0  0  0
    5.5926   15.2350    5.5694 H   0  0  0  0  0  0  0  0  0  0  0  0
    1.3708   12.1537   -0.0471 C   0  0  0  0  0  0  0  0  0  0  0  0
    0.3641   11.7798   -0.1718 H   0  0  0  0  0  0  0  0  0  0  0  0
    1.6387   13.4878    0.2292 C   0  0  0  0  0  0  0  0  0  0  0  0
    0.8553   14.2209    0.3222 H   0  0  0  0  0  0  0  0  0  0  0  0
    2.9676   13.8371    0.3906 C   0  0  0  0  0  0  0  0  0  0  0  0
    3.2640   14.8538    0.6139 H   0  0  0  0  0  0  0  0  0  0  0  0
    7.1281   13.9242    4.8039 C   0  0  0  0  0  0  0  0  0  0  0  0
    7.4151   13.5544    5.7885 H   0  0  0  0  0  0  0  0  0  0  0  0
    8.0209   14.0030    4.1814 H   0  0  0  0  0  0  0  0  0  0  0  0
    6.1332   12.9954    4.1365 C   0  0  0  0  0  0  0  0  0  0  0  0
    5.3432   12.6627    4.8069 H   0  0  0  0  0  0  0  0  0  0  0  0
    6.6022   12.1447    3.6479 H   0  0  0  0  0  0  0  0  0  0  0  0
  1  2  1  0  0  0  0
  1  4  1  0  0  0  0
  3  1  1  0  0  0  0
  4  5  1  0  0  0  0
  4  8  1  0  0  0  0
  4 25  1  0  0  0  0
  6 20  1  0  0  0  0
  6  1  1  0  0  0  0
  7 16  2  0  0  0  0
  7 11  1  0  0  0  0
  8 13  1  0  0  0  0
  9  8  1  0  0  0  0
 10  8  1  0  0  0  0
 11  6  1  0  0  0  0
 12 11  1  0  0  0  0
 13 14  1  0  0  0  0
 13 15  1  0  0  0  0
 16 18  1  0  0  0  0
 17 16  1  0  0  0  0
 18 19  1  0  0  0  0
 18 20  2  0  0  0  0
 20 21  1  0  0  0  0
 22 13  1  0  0  0  0
 22 23  1  0  0  0  0
 24 22  1  0  0  0  0
 25 22  1  0  0  0  0
 25 26  1  0  0  0  0
 27 25  1  0  0  0  0
M  END
$$$$
