CSD_code = ROGQEM | q = 0 | S = 0 | Stoichiometry = C8H3F9N2W | MND = 6
 OpenBabel04212202093D

 23 23  0  0  0  0  0  0  0  0999 V2000
    1.9338    5.5657   10.5778 W   0  0  0  0  0  0  0  0  0  0  0  0
    3.4990    6.6544   10.7168 F   0  0  0  0  0  0  0  0  0  0  0  0
    3.0183    4.3277   11.4424 F   0  0  0  0  0  0  0  0  0  0  0  0
    0.8093    4.4035    9.6619 F   0  0  0  0  0  0  0  0  0  0  0  0
    1.5136    6.7235    9.1172 F   0  0  0  0  0  0  0  0  0  0  0  0
   -0.5788    7.8725   13.7927 F   0  0  0  0  0  0  0  0  0  0  0  0
   -2.1268    6.6694   15.6609 F   0  0  0  0  0  0  0  0  0  0  0  0
   -2.3222    3.9598   15.7874 F   0  0  0  0  0  0  0  0  0  0  0  0
   -0.9332    2.4119   13.9994 F   0  0  0  0  0  0  0  0  0  0  0  0
    0.6727    3.6557   12.0611 F   0  0  0  0  0  0  0  0  0  0  0  0
    0.8766    6.2370   11.9178 N   0  0  0  0  0  2  0  0  0  0  0  0
    3.2672    4.7617    8.8915 N   0  0  0  0  0  2  0  0  0  0  0  0
    0.0864    5.7809   12.8784 C   0  0  0  0  0  0  0  0  0  0  0  0
   -0.6527    6.5337   13.8271 C   0  0  0  0  0  0  0  0  0  0  0  0
   -1.4452    5.9236   14.7838 C   0  0  0  0  0  0  0  0  0  0  0  0
   -1.5494    4.5333   14.8537 C   0  0  0  0  0  0  0  0  0  0  0  0
   -0.8433    3.7446   13.9447 C   0  0  0  0  0  0  0  0  0  0  0  0
   -0.0605    4.3710   13.0007 C   0  0  0  0  0  0  0  0  0  0  0  0
    3.9996    4.8979    8.0179 C   0  0  0  0  0  2  0  0  0  0  0  0
    4.9048    5.0484    6.9374 C   0  0  0  0  0  0  0  0  0  0  0  0
    4.4292    4.7213    6.0123 H   0  0  0  0  0  0  0  0  0  0  0  0
    5.7982    4.4506    7.1200 H   0  0  0  0  0  0  0  0  0  0  0  0
    5.1835    6.0992    6.8493 H   0  0  0  0  0  0  0  0  0  0  0  0
  1  2  1  0  0  0  0
  1  3  1  0  0  0  0
  1 11  1  0  0  0  0
  4  1  1  0  0  0  0
  5  1  1  0  0  0  0
  6 14  1  0  0  0  0
 10 18  1  0  0  0  0
 11 13  1  0  0  0  0
 12  1  1  0  0  0  0
 13 18  2  0  0  0  0
 13 14  1  0  0  0  0
 14 15  2  0  0  0  0
 15 16  1  0  0  0  0
 15  7  1  0  0  0  0
 16  8  1  0  0  0  0
 17  9  1  0  0  0  0
 17 16  2  0  0  0  0
 18 17  1  0  0  0  0
 19 12  1  0  0  0  0
 20 22  1  0  0  0  0
 20 19  1  0  0  0  0
 21 20  1  0  0  0  0
 23 20  1  0  0  0  0
M  END
$$$$
