CSD_code = ROGYAO | q = 0 | S = 0 | Stoichiometry = C20H24Cl2N2Pd | MND = 4
 OpenBabel04212202093D

 49 52  0  0  1  0  0  0  0  0999 V2000
    6.6310   11.6057    2.5955 Pd  0  0  0  0  0  0  0  0  0  0  0  0
    8.2566   12.2663    1.2094 Cl  0  0  0  0  0  0  0  0  0  0  0  0
    8.2236   11.5659    4.1616 Cl  0  0  0  0  0  0  0  0  0  0  0  0
    5.2679   11.2794    1.1044 N   0  0  0  0  0  0  0  0  0  0  0  0
    5.1562   11.7542   -0.1275 C   0  0  0  0  0  0  0  0  0  0  0  0
    4.5387   10.9916   -1.1337 C   0  0  0  0  0  0  0  0  0  0  0  0
    4.4900   11.3861   -2.1357 H   0  0  0  0  0  0  0  0  0  0  0  0
    4.0060    9.7603   -0.8485 C   0  0  0  0  0  0  0  0  0  0  0  0
    3.5485    9.1575   -1.6190 H   0  0  0  0  0  0  0  0  0  0  0  0
    4.0120    9.3027    0.4809 C   0  0  0  0  0  0  0  0  0  0  0  0
    3.3713    8.1065    0.9089 C   0  0  0  0  0  0  0  0  0  0  0  0
    2.9221    7.4733    0.1584 H   0  0  0  0  0  0  0  0  0  0  0  0
    3.2915    7.7902    2.2252 C   0  0  0  0  0  0  0  0  0  0  0  0
    2.7754    6.8992    2.5505 H   0  0  0  0  0  0  0  0  0  0  0  0
    3.8554    8.6381    3.2182 C   0  0  0  0  0  0  0  0  0  0  0  0
    3.6934    8.4426    4.5999 C   0  0  0  0  0  0  0  0  0  0  0  0
    3.1485    7.5809    4.9567 H   0  0  0  0  0  0  0  0  0  0  0  0
    4.1930    9.3744    5.4739 C   0  0  0  0  0  0  0  0  0  0  0  0
    4.0233    9.2624    6.5311 H   0  0  0  0  0  0  0  0  0  0  0  0
    4.9382   10.4724    5.0048 C   0  0  0  0  0  0  0  0  0  0  0  0
    5.1755   10.6113    3.7063 N   0  0  0  0  0  0  0  0  0  0  0  0
    4.5999    9.7678    2.8202 C   0  0  0  0  0  0  0  0  0  0  0  0
    4.6667   10.1114    1.4317 C   0  0  0  0  0  0  0  0  0  0  0  0
    5.6044   13.1651   -0.3829 C   0  0  1  0  0  0  0  0  0  0  0  0
    6.1405   13.5072    0.5143 H   0  0  0  0  0  0  0  0  0  0  0  0
    6.5514   13.2633   -1.5774 C   0  0  0  0  0  0  0  0  0  0  0  0
    7.4206   12.6351   -1.4047 H   0  0  0  0  0  0  0  0  0  0  0  0
    6.8921   14.2892   -1.6867 H   0  0  0  0  0  0  0  0  0  0  0  0
    6.0660   12.9622   -2.5029 H   0  0  0  0  0  0  0  0  0  0  0  0
    4.3669   14.0585   -0.5687 C   0  0  0  0  0  0  0  0  0  0  0  0
    4.7107   15.0630   -0.8204 H   0  0  0  0  0  0  0  0  0  0  0  0
    3.7636   13.6928   -1.4030 H   0  0  0  0  0  0  0  0  0  0  0  0
    3.5194   14.1204    0.6958 C   0  0  0  0  0  0  0  0  0  0  0  0
    2.7037   14.8296    0.5759 H   0  0  0  0  0  0  0  0  0  0  0  0
    4.1322   14.4353    1.5385 H   0  0  0  0  0  0  0  0  0  0  0  0
    3.0918   13.1459    0.9270 H   0  0  0  0  0  0  0  0  0  0  0  0
    5.4625   11.5426    5.9171 C   0  0  2  0  0  0  0  0  0  0  0  0
    6.4848   11.7672    5.5828 H   0  0  0  0  0  0  0  0  0  0  0  0
    5.5197   11.1237    7.3840 C   0  0  0  0  0  0  0  0  0  0  0  0
    6.0492   10.1809    7.4948 H   0  0  0  0  0  0  0  0  0  0  0  0
    4.5247   11.0311    7.8169 H   0  0  0  0  0  0  0  0  0  0  0  0
    6.0608   11.8780    7.9491 H   0  0  0  0  0  0  0  0  0  0  0  0
    4.6358   12.8382    5.7744 C   0  0  0  0  0  0  0  0  0  0  0  0
    3.5852   12.6280    5.9973 H   0  0  0  0  0  0  0  0  0  0  0  0
    5.0028   13.5315    6.5329 H   0  0  0  0  0  0  0  0  0  0  0  0
    4.7460   13.5071    4.4072 C   0  0  0  0  0  0  0  0  0  0  0  0
    4.3371   14.5147    4.4556 H   0  0  0  0  0  0  0  0  0  0  0  0
    4.1809   12.9544    3.6533 H   0  0  0  0  0  0  0  0  0  0  0  0
    5.8026   13.5801    4.0962 H   0  0  0  0  0  0  0  0  0  0  0  0
  1 21  1  0  0  0  0
  1  3  1  0  0  0  0
  2  1  1  0  0  0  0
  4 23  1  0  0  0  0
  4  1  1  0  0  0  0
  5  4  1  0  0  0  0
  6  8  1  0  0  0  0
  6  5  2  0  0  0  0
  7  6  1  0  0  0  0
  8 10  2  0  0  0  0
  9  8  1  0  0  0  0
 10 11  1  0  0  0  0
 10 23  1  0  0  0  0
 11 13  2  0  0  0  0
 12 11  1  0  0  0  0
 13 14  1  0  0  0  0
 13 15  1  0  0  0  0
 15 16  2  0  0  0  0
 16 17  1  0  0  0  0
 16 18  1  0  0  0  0
 18 19  1  0  0  0  0
 20 18  2  0  0  0  0
 20 37  1  0  0  0  0
 21 20  1  0  0  0  0
 22 15  1  0  0  0  0
 22 21  1  0  0  0  0
 23 22  2  0  0  0  0
 24  5  1  0  0  0  0
 24 25  1  1  0  0  0
 26 27  1  0  0  0  0
 26 24  1  0  0  0  0
 28 26  1  0  0  0  0
 29 26  1  0  0  0  0
 30 24  1  0  0  0  0
 30 33  1  0  0  0  0
 31 30  1  0  0  0  0
 32 30  1  0  0  0  0
 33 36  1  0  0  0  0
 33 35  1  0  0  0  0
 34 33  1  0  0  0  0
 37 38  1  6  0  0  0
 37 39  1  0  0  0  0
 39 40  1  0  0  0  0
 39 41  1  0  0  0  0
 39 42  1  0  0  0  0
 43 37  1  0  0  0  0
 43 44  1  0  0  0  0
 43 45  1  0  0  0  0
 46 47  1  0  0  0  0
 46 43  1  0  0  0  0
 48 46  1  0  0  0  0
 49 46  1  0  0  0  0
M  END
$$$$
