CSD_code = ROGYES | q = 0 | S = 0 | Stoichiometry = C22H28Cl2N2Pt | MND = 6
 OpenBabel04212202093D

 55 54  0  0  0  0  0  0  0  0999 V2000
    2.1170    2.9424   -3.1277 Pt  0  0  0  0  0  0  0  0  0  0  0  0
    4.0241    3.8316   -2.0991 Cl  0  0  0  0  0 15  0  0  0  0  0  0
    0.2033    1.9409   -4.0328 Cl  0  0  0  0  0 15  0  0  0  0  0  0
    1.2409    2.7036   -1.0043 N   0  0  0  0  0  0  0  0  0  0  0  0
    0.5304    3.6179   -0.3743 C   0  0  0  0  0  0  0  0  0  0  0  0
    0.0489    3.3986    0.9291 C   0  0  0  0  0  0  0  0  0  0  0  0
   -0.5363    4.1680    1.4085 H   0  0  0  0  0  0  0  0  0  0  0  0
    0.3310    2.2236    1.5722 C   0  0  0  0  0  0  0  0  0  0  0  0
   -0.0236    2.0343    2.5752 H   0  0  0  0  0  0  0  0  0  0  0  0
    1.1016    1.2494    0.9146 C   0  0  0  0  0  0  0  0  0  0  0  0
    1.4527    0.0091    1.5141 C   0  0  0  0  0  0  0  0  0  0  0  0
    1.1090   -0.1864    2.5192 H   0  0  0  0  0  0  0  0  0  0  0  0
    2.1988   -0.9009    0.8430 C   0  0  0  0  0  0  0  0  0  0  0  0
    2.4668   -1.8436    1.2971 H   0  0  0  0  0  0  0  0  0  0  0  0
    2.6490   -0.6421   -0.4804 C   0  0  0  0  0  0  0  0  0  0  0  0
    3.4189   -1.5588   -1.2169 C   0  0  0  0  0  0  0  0  0  0  0  0
    3.6964   -2.5021   -0.7688 H   0  0  0  0  0  0  0  0  0  0  0  0
    3.7972   -1.2402   -2.4932 C   0  0  0  0  0  0  0  0  0  0  0  0
    4.3828   -1.9249   -3.0869 H   0  0  0  0  0  0  0  0  0  0  0  0
    3.4178   -0.0053   -3.0498 C   0  0  0  0  0  0  0  0  0  0  0  0
    2.7120    0.8683   -2.3593 N   0  0  0  0  0  0  0  0  0  0  0  0
    2.3211    0.5784   -1.1093 C   0  0  0  0  0  0  0  0  0  0  0  0
    1.5342    1.5449   -0.3963 C   0  0  0  0  0  0  0  0  0  0  0  0
    0.2092    4.8842   -1.0928 C   0  0  0  0  0  0  0  0  0  0  0  0
    1.0302    5.1203   -1.7745 H   0  0  0  0  0  0  0  0  0  0  0  0
    0.0913    5.7004   -0.3775 H   0  0  0  0  0  0  0  0  0  0  0  0
   -1.0843    4.7129   -1.9028 C   0  0  0  0  0  0  0  0  0  0  0  0
   -0.9351    3.9192   -2.6375 H   0  0  0  0  0  0  0  0  0  0  0  0
   -1.8937    4.4050   -1.2358 H   0  0  0  0  0  0  0  0  0  0  0  0
   -1.4775    6.0017   -2.6177 C   0  0  0  0  0  0  0  0  0  0  0  0
   -1.6914    6.7801   -1.8807 H   0  0  0  0  0  0  0  0  0  0  0  0
   -0.6409    6.3463   -3.2287 H   0  0  0  0  0  0  0  0  0  0  0  0
   -2.6975    5.7884   -3.5049 C   0  0  0  0  0  0  0  0  0  0  0  0
   -2.9625    6.7077   -4.0220 H   0  0  0  0  0  0  0  0  0  0  0  0
   -3.5515    5.4697   -2.9111 H   0  0  0  0  0  0  0  0  0  0  0  0
   -2.4935    5.0200   -4.2468 H   0  0  0  0  0  0  0  0  0  0  0  0
    3.8454    0.3606   -4.4306 C   0  0  0  0  0  0  0  0  0  0  0  0
    3.0975    1.0286   -4.8660 H   0  0  0  0  0  0  0  0  0  0  0  0
    3.9256   -0.5369   -5.0469 H   0  0  0  0  0  0  0  0  0  0  0  0
    5.2006    1.0814   -4.3851 C   0  0  0  0  0  0  0  0  0  0  0  0
    5.0957    1.9871   -3.7840 H   0  0  0  0  0  0  0  0  0  0  0  0
    5.9385    0.4395   -3.8969 H   0  0  0  0  0  0  0  0  0  0  0  0
    5.6906    1.4484   -5.7822 C   0  0  0  0  0  0  0  0  0  0  0  0
    4.9190    2.0247   -6.2963 H   0  0  0  0  0  0  0  0  0  0  0  0
    5.8638    0.5376   -6.3610 H   0  0  0  0  0  0  0  0  0  0  0  0
    6.9748    2.2657   -5.7193 C   0  0  0  0  0  0  0  0  0  0  0  0
    7.3068    2.5371   -6.7186 H   0  0  0  0  0  0  0  0  0  0  0  0
    7.7669    1.6976   -5.2363 H   0  0  0  0  0  0  0  0  0  0  0  0
    6.8141    3.1772   -5.1484 H   0  0  0  0  0  0  0  0  0  0  0  0
    1.8645    4.6693   -4.2897 C   0  0  0  0  0  0  0  0  0  0  0  0
    0.8319    4.8155   -4.5941 H   0  0  0  0  0  0  0  0  0  0  0  0
    2.3526    5.5408   -3.8611 H   0  0  0  0  0  0  0  0  0  0  0  0
    2.6535    3.7327   -4.9949 C   0  0  0  0  0  3  0  0  0  0  0  0
    3.7225    3.9069   -5.0768 H   0  0  0  0  0  0  0  0  0  0  0  0
    2.2037    3.1940   -5.8248 H   0  0  0  0  0  0  0  0  0  0  0  0
  4 23  2  0  0  0  0
  4  5  1  0  0  0  0
  5  6  2  0  0  0  0
  6  7  1  0  0  0  0
  6  8  1  0  0  0  0
  8  9  1  0  0  0  0
 10 11  1  0  0  0  0
 10  8  2  0  0  0  0
 11 12  1  0  0  0  0
 13 14  1  0  0  0  0
 13 11  2  0  0  0  0
 15 13  1  0  0  0  0
 16 17  1  0  0  0  0
 16 15  2  0  0  0  0
 18 16  1  0  0  0  0
 19 18  1  0  0  0  0
 20 18  2  0  0  0  0
 20 21  1  0  0  0  0
 21 22  2  0  0  0  0
 22 15  1  0  0  0  0
 22 23  1  0  0  0  0
 23 10  1  0  0  0  0
 24 26  1  0  0  0  0
 24  5  1  0  0  0  0
 25 24  1  0  0  0  0
 27 29  1  0  0  0  0
 27 24  1  0  0  0  0
 28 27  1  0  0  0  0
 30 27  1  0  0  0  0
 30 31  1  0  0  0  0
 32 30  1  0  0  0  0
 33 35  1  0  0  0  0
 33 30  1  0  0  0  0
 34 33  1  0  0  0  0
 36 33  1  0  0  0  0
 37 40  1  0  0  0  0
 37 20  1  0  0  0  0
 38 37  1  0  0  0  0
 39 37  1  0  0  0  0
 40 42  1  0  0  0  0
 40 41  1  0  0  0  0
 43 46  1  0  0  0  0
 43 40  1  0  0  0  0
 44 43  1  0  0  0  0
 45 43  1  0  0  0  0
 46 48  1  0  0  0  0
 46 49  1  0  0  0  0
 47 46  1  0  0  0  0
 50 52  1  0  0  0  0
 50  1  1  0  0  0  0
 51 50  1  0  0  0  0
 53 50  1  0  0  0  0
 54 53  1  0  0  0  0
 55 53  1  0  0  0  0
M  END
$$$$
