CSD_code = ROHCEY | q = 0 | S = 0 | Stoichiometry = C17H24AuClN2O | MND = 2
 OpenBabel04212202093D

 46 47  0  0  1  0  0  0  0  0999 V2000
    4.1898    3.3557   13.0034 Au  0  0  0  0  0  0  0  0  0  0  0  0
    6.1056    3.8357   13.2837 C   0  0  2  0  0  3  0  0  0  0  0  0
    8.0209    4.9223   13.6273 C   0  0  0  0  0  0  0  0  0  0  0  0
    8.6582    5.7729   13.7458 H   0  0  0  0  0  0  0  0  0  0  0  0
    8.2801    3.5964   13.7192 C   0  0  0  0  0  0  0  0  0  0  0  0
    9.1896    3.0666   13.9122 H   0  0  0  0  0  0  0  0  0  0  0  0
    5.9826    6.2956   13.2567 C   0  0  0  0  0  0  0  0  0  0  0  0
    5.1159    6.1598   12.6066 H   0  0  0  0  0  0  0  0  0  0  0  0
    6.6549    7.0482   12.8395 H   0  0  0  0  0  0  0  0  0  0  0  0
    5.5073    6.7582   14.6369 C   0  0  0  0  0  0  0  0  0  0  0  0
    4.8969    7.6625   14.5168 H   0  0  0  0  0  0  0  0  0  0  0  0
    4.8876    5.9694   15.0852 H   0  0  0  0  0  0  0  0  0  0  0  0
    6.9054    1.5400   13.5216 C   0  0  0  0  0  0  0  0  0  0  0  0
    6.5779    0.9183   14.7278 C   0  0  0  0  0  0  0  0  0  0  0  0
    6.3959   -0.4580   14.7227 C   0  0  0  0  0  0  0  0  0  0  0  0
    6.1359   -0.9653   15.6384 H   0  0  0  0  0  0  0  0  0  0  0  0
    6.5311   -1.1859   13.5566 C   0  0  0  0  0  0  0  0  0  0  0  0
    6.3801   -2.2548   13.5695 H   0  0  0  0  0  0  0  0  0  0  0  0
    6.8461   -0.5499   12.3715 C   0  0  0  0  0  0  0  0  0  0  0  0
    6.9335   -1.1282   11.4652 H   0  0  0  0  0  0  0  0  0  0  0  0
    7.0395    0.8242   12.3308 C   0  0  0  0  0  0  0  0  0  0  0  0
    7.3455    1.5144   11.0230 C   0  0  0  0  0  0  0  0  0  0  0  0
    7.5369    2.5757   11.2114 H   0  0  0  0  0  0  0  0  0  0  0  0
    6.1332    1.4152   10.0938 C   0  0  0  0  0  0  0  0  0  0  0  0
    6.3202    1.9630    9.1731 H   0  0  0  0  0  0  0  0  0  0  0  0
    5.2527    1.8363   10.5765 H   0  0  0  0  0  0  0  0  0  0  0  0
    5.9224    0.3790    9.8429 H   0  0  0  0  0  0  0  0  0  0  0  0
    8.5944    0.9268   10.3622 C   0  0  0  0  0  0  0  0  0  0  0  0
    8.8358    1.4878    9.4623 H   0  0  0  0  0  0  0  0  0  0  0  0
    8.4388   -0.1115   10.0831 H   0  0  0  0  0  0  0  0  0  0  0  0
    9.4450    0.9768   11.0391 H   0  0  0  0  0  0  0  0  0  0  0  0
    6.3921    1.7071   16.0023 C   0  0  0  0  0  0  0  0  0  0  0  0
    6.6163    2.7613   15.8109 H   0  0  0  0  0  0  0  0  0  0  0  0
    4.9352    1.6150   16.4623 C   0  0  0  0  0  0  0  0  0  0  0  0
    4.7807    2.2327   17.3443 H   0  0  0  0  0  0  0  0  0  0  0  0
    4.6699    0.5905   16.7089 H   0  0  0  0  0  0  0  0  0  0  0  0
    4.2677    1.9604   15.6742 H   0  0  0  0  0  0  0  0  0  0  0  0
    7.3462    1.2199   17.0952 C   0  0  0  0  0  0  0  0  0  0  0  0
    7.2406    1.8390   17.9832 H   0  0  0  0  0  0  0  0  0  0  0  0
    8.3784    1.2776   16.7553 H   0  0  0  0  0  0  0  0  0  0  0  0
    7.1329    0.1907   17.3704 H   0  0  0  0  0  0  0  0  0  0  0  0
    2.0313    2.8008   12.7323 Cl  0  0  0  0  0  0  0  0  0  0  0  0
    7.0913    2.9501   13.5044 N   0  0  0  0  0  0  0  0  0  0  0  0
    6.6859    5.0463   13.3545 N   0  0  0  0  0  0  0  0  0  0  0  0
    6.6466    7.0180   15.4268 O   0  0  0  0  0  0  0  0  0  0  0  0
    6.3687    7.3081   16.3010 H   0  0  0  0  0  0  0  0  0  0  0  0
  2  1  1  1  0  0  0
  2 44  1  0  0  0  0
  2 43  1  0  0  0  0
  3  5  2  0  0  0  0
  3  4  1  0  0  0  0
  5  6  1  0  0  0  0
  7 44  1  0  0  0  0
  7 10  1  0  0  0  0
  8  7  1  0  0  0  0
  9  7  1  0  0  0  0
 10 12  1  0  0  0  0
 10 45  1  0  0  0  0
 11 10  1  0  0  0  0
 13 14  1  0  0  0  0
 14 32  1  0  0  0  0
 15 14  2  0  0  0  0
 15 16  1  0  0  0  0
 17 18  1  0  0  0  0
 17 15  1  0  0  0  0
 19 17  2  0  0  0  0
 20 19  1  0  0  0  0
 21 19  1  0  0  0  0
 21 13  2  0  0  0  0
 22 23  1  0  0  0  0
 22 21  1  0  0  0  0
 24 26  1  0  0  0  0
 24 22  1  0  0  0  0
 25 24  1  0  0  0  0
 27 24  1  0  0  0  0
 28 22  1  0  0  0  0
 28 31  1  0  0  0  0
 29 28  1  0  0  0  0
 30 28  1  0  0  0  0
 32 34  1  0  0  0  0
 32 38  1  0  0  0  0
 33 32  1  0  0  0  0
 34 36  1  0  0  0  0
 34 35  1  0  0  0  0
 37 34  1  0  0  0  0
 38 41  1  0  0  0  0
 38 39  1  0  0  0  0
 40 38  1  0  0  0  0
 42  1  1  0  0  0  0
 43 13  1  0  0  0  0
 43  5  1  0  0  0  0
 44  3  1  0  0  0  0
 45 46  1  0  0  0  0
M  END
$$$$
