CSD_code = ROHDAV | q = 0 | S = 0 | Stoichiometry = C17H24AuCl3N2O | MND = 4
 OpenBabel04212202093D

 48 49  0  0  0  0  0  0  0  0999 V2000
    6.0398    3.1547   13.2215 Au  0  0  0  0  0  0  0  0  0  0  0  0
    4.4188    2.6316   12.1654 C   0  0  0  0  0  0  0  0  0  0  0  0
    2.4260    2.7809   11.2268 C   0  0  0  0  0  0  0  0  0  0  0  0
    1.5402    3.2637   10.8706 H   0  0  0  0  0  0  0  0  0  0  0  0
    3.3443    5.4760   13.1951 C   0  0  0  0  0  0  0  0  0  0  0  0
    3.5029    4.8998   11.9325 C   0  0  0  0  0  0  0  0  0  0  0  0
    4.7431    0.1739   12.0261 C   0  0  0  0  0  0  0  0  0  0  0  0
    4.9323   -0.2975   11.0553 H   0  0  0  0  0  0  0  0  0  0  0  0
    5.6945    0.4103   12.5024 H   0  0  0  0  0  0  0  0  0  0  0  0
    3.4303    6.8595   13.2907 C   0  0  0  0  0  0  0  0  0  0  0  0
    3.3151    7.3324   14.2527 H   0  0  0  0  0  0  0  0  0  0  0  0
    3.7148    5.6672   10.7825 C   0  0  0  0  0  0  0  0  0  0  0  0
    3.6612    7.6359   12.1729 C   0  0  0  0  0  0  0  0  0  0  0  0
    3.7342    8.7087   12.2689 H   0  0  0  0  0  0  0  0  0  0  0  0
    3.7881    7.0453   10.9310 C   0  0  0  0  0  0  0  0  0  0  0  0
    3.9535    7.6643   10.0642 H   0  0  0  0  0  0  0  0  0  0  0  0
    3.8235    5.0539    9.4061 C   0  0  0  0  0  0  0  0  0  0  0  0
    3.9266    3.9687    9.4983 H   0  0  0  0  0  0  0  0  0  0  0  0
    5.0537    5.5609    8.6522 C   0  0  0  0  0  0  0  0  0  0  0  0
    5.1658    5.0077    7.7225 H   0  0  0  0  0  0  0  0  0  0  0  0
    5.9444    5.4122    9.2559 H   0  0  0  0  0  0  0  0  0  0  0  0
    4.9648    6.6157    8.4092 H   0  0  0  0  0  0  0  0  0  0  0  0
    2.5486    5.3553    8.6102 C   0  0  0  0  0  0  0  0  0  0  0  0
    2.5993    4.8833    7.6319 H   0  0  0  0  0  0  0  0  0  0  0  0
    2.4345    6.4272    8.4692 H   0  0  0  0  0  0  0  0  0  0  0  0
    1.6641    4.9865    9.1258 H   0  0  0  0  0  0  0  0  0  0  0  0
    3.9434   -0.7837   12.9280 C   0  0  0  0  0  0  0  0  0  0  0  0
    3.5457   -0.2241   13.7772 H   0  0  0  0  0  0  0  0  0  0  0  0
    4.6228   -1.5528   13.3098 H   0  0  0  0  0  0  0  0  0  0  0  0
    3.0109    4.6619   14.4228 C   0  0  0  0  0  0  0  0  0  0  0  0
    3.1397    3.5967   14.2095 H   0  0  0  0  0  0  0  0  0  0  0  0
    1.5413    4.8890   14.7937 C   0  0  0  0  0  0  0  0  0  0  0  0
    1.2848    4.2951   15.6673 H   0  0  0  0  0  0  0  0  0  0  0  0
    0.8879    4.5981   13.9730 H   0  0  0  0  0  0  0  0  0  0  0  0
    1.3604    5.9369   15.0209 H   0  0  0  0  0  0  0  0  0  0  0  0
    2.7865    1.4744   11.2312 C   0  0  0  0  0  0  0  0  0  0  0  0
    2.2655    0.5991   10.9030 H   0  0  0  0  0  0  0  0  0  0  0  0
    3.9237    5.0107   15.5997 C   0  0  0  0  0  0  0  0  0  0  0  0
    3.7906    4.2812   16.3947 H   0  0  0  0  0  0  0  0  0  0  0  0
    3.7007    5.9968   15.9984 H   0  0  0  0  0  0  0  0  0  0  0  0
    4.9688    4.9913   15.2947 H   0  0  0  0  0  0  0  0  0  0  0  0
    4.0223    1.4035   11.8114 N   0  0  0  0  0  0  0  0  0  0  0  0
    3.4491    3.4798   11.8030 N   0  0  0  0  0  0  0  0  0  0  0  0
    2.8438   -1.3539   12.2657 O   0  0  0  0  0  0  0  0  0  0  0  0
    3.1504   -2.0442   11.6666 H   0  0  0  0  0  0  0  0  0  0  0  0
    7.8140    3.7688   14.4652 Cl  0  0  0  0  0  0  0  0  0  0  0  0
    6.7820    4.3871   11.4749 Cl  0  0  0  0  0  0  0  0  0  0  0  0
    5.2450    1.8182   14.8945 Cl  0  0  0  0  0  0  0  0  0  0  0  0
  1 46  1  0  0  0  0
  1 48  1  0  0  0  0
  2  1  2  0  0  0  0
  3 36  2  0  0  0  0
  3 43  1  0  0  0  0
  4  3  1  0  0  0  0
  5 10  1  0  0  0  0
  5 30  1  0  0  0  0
  6  5  2  0  0  0  0
  7  9  1  0  0  0  0
  7 27  1  0  0  0  0
  8  7  1  0  0  0  0
 10 11  1  0  0  0  0
 12 15  2  0  0  0  0
 12  6  1  0  0  0  0
 13 14  1  0  0  0  0
 13 10  2  0  0  0  0
 15 13  1  0  0  0  0
 16 15  1  0  0  0  0
 17 18  1  0  0  0  0
 17 12  1  0  0  0  0
 19 21  1  0  0  0  0
 19 17  1  0  0  0  0
 20 19  1  0  0  0  0
 22 19  1  0  0  0  0
 23 26  1  0  0  0  0
 23 17  1  0  0  0  0
 24 23  1  0  0  0  0
 25 23  1  0  0  0  0
 27 29  1  0  0  0  0
 27 28  1  0  0  0  0
 30 32  1  0  0  0  0
 30 38  1  0  0  0  0
 31 30  1  0  0  0  0
 32 35  1  0  0  0  0
 32 33  1  0  0  0  0
 34 32  1  0  0  0  0
 36 42  1  0  0  0  0
 37 36  1  0  0  0  0
 38 40  1  0  0  0  0
 38 39  1  0  0  0  0
 41 38  1  0  0  0  0
 42  7  1  0  0  0  0
 42  2  1  0  0  0  0
 43  6  1  0  0  0  0
 43  2  1  0  0  0  0
 44 27  1  0  0  0  0
 45 44  1  0  0  0  0
 47  1  1  0  0  0  0
M  END
$$$$
