CSD_code = ROHGIG | q = 0 | S = 0 | Stoichiometry = C16H17Br2N5Pt | MND = 4
 OpenBabel04212202093D

 41 45  0  0  1  0  0  0  0  0999 V2000
    4.5658    7.6959    3.1572 C   0  0  2  0  0  3  0  0  0  0  0  0
    4.2743    5.7335    4.1673 C   0  0  0  0  0  0  0  0  0  0  0  0
    3.9252    4.7287    4.2882 H   0  0  0  0  0  0  0  0  0  0  0  0
    5.0262    6.5031    4.9846 C   0  0  0  0  0  0  0  0  0  0  0  0
    5.4546    6.2942    5.9431 H   0  0  0  0  0  0  0  0  0  0  0  0
    6.1028    8.7331    4.8005 C   0  0  0  0  0  0  0  0  0  0  0  0
    6.5668    9.1840    3.9160 H   0  0  0  0  0  0  0  0  0  0  0  0
    6.8849    8.2447    5.3876 H   0  0  0  0  0  0  0  0  0  0  0  0
    5.4412    9.8268    5.6481 C   0  0  0  0  0  0  0  0  0  0  0  0
    4.6722    9.3863    6.2869 H   0  0  0  0  0  0  0  0  0  0  0  0
    6.2085   10.2554    6.2937 H   0  0  0  0  0  0  0  0  0  0  0  0
    4.8387   10.9681    4.8195 C   0  0  0  0  0  0  0  0  0  0  0  0
    4.8258   11.8818    5.4194 H   0  0  0  0  0  0  0  0  0  0  0  0
    5.4587   11.1462    3.9336 H   0  0  0  0  0  0  0  0  0  0  0  0
    3.1464   10.2033    3.1783 C   0  0  0  0  0  0  0  0  0  0  0  0
    2.3747   11.1940    5.0216 C   0  0  0  0  0  0  0  0  0  0  0  0
    2.4235   11.6593    5.9844 H   0  0  0  0  0  0  0  0  0  0  0  0
    1.3219   10.9549    4.2093 C   0  0  0  0  0  0  0  0  0  0  0  0
    0.2819   11.1730    4.3399 H   0  0  0  0  0  0  0  0  0  0  0  0
    1.0049   10.0822    1.9138 C   0  0  0  0  0  0  0  0  0  0  0  0
    1.4790   10.5839    1.0539 H   0  0  0  0  0  0  0  0  0  0  0  0
    0.0110   10.5068    2.0641 H   0  0  0  0  0  0  0  0  0  0  0  0
    3.3522    5.9392    1.8778 C   0  0  0  0  0  0  0  0  0  0  0  0
    3.2080    4.8661    2.0129 H   0  0  0  0  0  0  0  0  0  0  0  0
    4.0205    6.1019    1.0158 H   0  0  0  0  0  0  0  0  0  0  0  0
    2.0511    6.6233    1.5610 C   0  0  0  0  0  0  0  0  0  0  0  0
    1.0157    5.9849    0.8912 C   0  0  0  0  0  0  0  0  0  0  0  0
    1.0938    4.9432    0.6229 H   0  0  0  0  0  0  0  0  0  0  0  0
   -0.1111    6.7251    0.5687 C   0  0  0  0  0  0  0  0  0  0  0  0
   -0.9373    6.2616    0.0509 H   0  0  0  0  0  0  0  0  0  0  0  0
   -0.1639    8.0678    0.9090 C   0  0  0  0  0  0  0  0  0  0  0  0
   -1.0190    8.6740    0.6548 H   0  0  0  0  0  0  0  0  0  0  0  0
    0.9210    8.6187    1.5784 C   0  0  0  0  0  0  0  0  0  0  0  0
    4.0093    6.4727    3.0457 N   0  0  0  0  0  0  0  0  0  0  0  0
    5.2024    7.7043    4.3465 N   0  0  0  0  0  0  0  0  0  0  0  0
    3.4902   10.7321    4.3708 N   0  0  0  0  0  0  0  0  0  0  0  0
    1.8105   10.3577    3.0782 N   0  0  0  0  0  0  0  0  0  0  0  0
    1.9866    7.9017    1.8984 N   0  0  0  0  0  0  0  0  0  0  0  0
    5.7413    7.9759    0.2975 Br  0  0  0  0  0  0  0  0  0  0  0  0
    3.9670   11.1038    0.3250 Br  0  0  0  0  0  0  0  0  0  0  0  0
    4.3299    9.2285    1.8738 Pt  0  0  0  0  0  0  0  0  0  0  0  0
  1 34  1  1  0  0  0
  1 35  1  0  0  0  0
  2  3  1  0  0  0  0
  2  4  2  0  0  0  0
  4  5  1  0  0  0  0
  6  8  1  0  0  0  0
  6  9  1  0  0  0  0
  7  6  1  0  0  0  0
  9 10  1  0  0  0  0
  9 11  1  0  0  0  0
 12 13  1  0  0  0  0
 12  9  1  0  0  0  0
 14 12  1  0  0  0  0
 15 36  1  0  0  0  0
 16 17  1  0  0  0  0
 18 19  1  0  0  0  0
 18 16  2  0  0  0  0
 20 22  1  0  0  0  0
 20 37  1  0  0  0  0
 21 20  1  0  0  0  0
 23 24  1  0  0  0  0
 23 34  1  0  0  0  0
 25 23  1  0  0  0  0
 26 23  1  0  0  0  0
 26 38  1  0  0  0  0
 27 26  2  0  0  0  0
 28 27  1  0  0  0  0
 29 27  1  0  0  0  0
 29 31  2  0  0  0  0
 30 29  1  0  0  0  0
 31 33  1  0  0  0  0
 32 31  1  0  0  0  0
 33 38  2  0  0  0  0
 33 20  1  0  0  0  0
 34  2  1  0  0  0  0
 35  6  1  0  0  0  0
 35  4  1  0  0  0  0
 36 12  1  0  0  0  0
 36 16  1  0  0  0  0
 37 15  1  0  0  0  0
 37 18  1  0  0  0  0
 39 41  1  0  0  0  0
 40 41  1  0  0  0  0
 41  1  1  0  0  0  0
 41 15  2  0  0  0  0
M  END
$$$$
