CSD_code = ROHJOQ | q = 0 | S = 0 | Stoichiometry = C31H32ClN2PPdS2 | MND = 4
 OpenBabel04212202093D

 70 75  0  0  1  0  0  0  0  0999 V2000
    8.8935    8.5620   11.9286 Pd  0  0  1  0  0  0  0  0  0  0  0  0
   10.9253    9.5095   12.1265 Cl  0  0  0  0  0  0  0  0  0  0  0  0
    6.6652    7.7704   11.9243 S   0  0  0  0  0  0  0  0  0  0  0  0
    7.7794    9.9151   13.4977 S   0  0  0  0  0  0  0  0  0  0  0  0
    9.7461    7.2096   10.3657 P   0  0  0  0  0  4  0  0  0  0  0  0
    5.2108    9.2242   13.6222 N   0  0  0  0  0  0  0  0  0  0  0  0
    3.4778    8.6249   15.7597 N   0  0  0  0  0  0  0  0  0  0  0  0
    6.4120    8.9928   13.0915 C   0  0  1  0  0  3  0  0  0  0  0  0
    4.0745    8.3570   13.4172 C   0  0  0  0  0  0  0  0  0  0  0  0
    4.3054    7.6371   12.6312 H   0  0  0  0  0  0  0  0  0  0  0  0
    3.2211    8.9706   13.1131 H   0  0  0  0  0  0  0  0  0  0  0  0
    3.7434    7.6411   14.7265 C   0  0  0  0  0  0  0  0  0  0  0  0
    2.8522    7.0258   14.5905 H   0  0  0  0  0  0  0  0  0  0  0  0
    4.5874    6.9812   15.0001 H   0  0  0  0  0  0  0  0  0  0  0  0
    4.6522    9.4478   15.9753 C   0  0  0  0  0  0  0  0  0  0  0  0
    5.5250    8.8474   16.2902 H   0  0  0  0  0  0  0  0  0  0  0  0
    4.4352   10.1786   16.7570 H   0  0  0  0  0  0  0  0  0  0  0  0
    4.9936   10.1837   14.6793 C   0  0  0  0  0  0  0  0  0  0  0  0
    4.1526   10.8230   14.3935 H   0  0  0  0  0  0  0  0  0  0  0  0
    5.8887   10.7932   14.8068 H   0  0  0  0  0  0  0  0  0  0  0  0
    2.9906    8.0115   16.9837 C   0  0  0  0  0  0  0  0  0  0  0  0
    2.9122    8.8024   17.7378 H   0  0  0  0  0  0  0  0  0  0  0  0
    3.6920    7.2494   17.3677 H   0  0  0  0  0  0  0  0  0  0  0  0
    1.6300    7.4016   16.7795 C   0  0  0  0  0  0  0  0  0  0  0  0
    0.6501    8.1165   16.1009 C   0  0  0  0  0  0  0  0  0  0  0  0
    0.8922    9.0962   15.7180 H   0  0  0  0  0  0  0  0  0  0  0  0
   -0.6085    7.5766   15.9131 C   0  0  0  0  0  0  0  0  0  0  0  0
   -1.3626    8.1396   15.3828 H   0  0  0  0  0  0  0  0  0  0  0  0
   -0.9053    6.3172   16.4084 C   0  0  0  0  0  0  0  0  0  0  0  0
   -1.8893    5.8958   16.2647 H   0  0  0  0  0  0  0  0  0  0  0  0
    0.0641    5.6008   17.0874 C   0  0  0  0  0  0  0  0  0  0  0  0
   -0.1610    4.6179   17.4747 H   0  0  0  0  0  0  0  0  0  0  0  0
    1.3269    6.1391   17.2682 C   0  0  0  0  0  0  0  0  0  0  0  0
    2.0819    5.5738   17.7964 H   0  0  0  0  0  0  0  0  0  0  0  0
    9.1437    7.7712    8.7498 C   0  0  0  0  0  0  0  0  0  0  0  0
    9.5178    7.1851    7.5436 C   0  0  0  0  0  0  0  0  0  0  0  0
   10.1996    6.3455    7.5419 H   0  0  0  0  0  0  0  0  0  0  0  0
    9.0357    7.6940    6.3543 C   0  0  0  0  0  0  0  0  0  0  0  0
    9.3246    7.2357    5.4189 H   0  0  0  0  0  0  0  0  0  0  0  0
    8.1881    8.7990    6.3377 C   0  0  0  0  0  0  0  0  0  0  0  0
    7.8409    9.3954    7.5441 C   0  0  0  0  0  0  0  0  0  0  0  0
    7.1996   10.2651    7.5439 H   0  0  0  0  0  0  0  0  0  0  0  0
    8.3151    8.8910    8.7404 C   0  0  0  0  0  0  0  0  0  0  0  0
    8.0577    9.3796    9.6924 H   0  0  0  0  0  0  0  0  0  0  0  0
    7.6904    9.3426    5.0347 C   0  0  0  0  0  0  0  0  0  0  0  0
    7.2618    8.5474    4.4272 H   0  0  0  0  0  0  0  0  0  0  0  0
    8.5152    9.7810    4.4733 H   0  0  0  0  0  0  0  0  0  0  0  0
    6.9366   10.1091    5.1933 H   0  0  0  0  0  0  0  0  0  0  0  0
   11.5124    6.9361   10.0705 C   0  0  0  0  0  0  0  0  0  0  0  0
   12.2359    7.9736    9.4875 C   0  0  0  0  0  0  0  0  0  0  0  0
   11.7251    8.8878    9.2172 H   0  0  0  0  0  0  0  0  0  0  0  0
   13.5940    7.8343    9.2796 C   0  0  0  0  0  0  0  0  0  0  0  0
   14.1558    8.6405    8.8319 H   0  0  0  0  0  0  0  0  0  0  0  0
   14.2371    6.6647    9.6553 C   0  0  0  0  0  0  0  0  0  0  0  0
   15.3001    6.5585    9.4963 H   0  0  0  0  0  0  0  0  0  0  0  0
   13.5205    5.6358   10.2429 C   0  0  0  0  0  0  0  0  0  0  0  0
   14.0237    4.7277   10.5418 H   0  0  0  0  0  0  0  0  0  0  0  0
   12.1597    5.7684   10.4570 C   0  0  0  0  0  0  0  0  0  0  0  0
   11.6011    4.9684   10.9232 H   0  0  0  0  0  0  0  0  0  0  0  0
    9.0924    5.5487   10.7197 C   0  0  0  0  0  0  0  0  0  0  0  0
    8.7041    4.6067    9.7779 C   0  0  0  0  0  0  0  0  0  0  0  0
    8.7697    4.8348    8.7243 H   0  0  0  0  0  0  0  0  0  0  0  0
    8.2147    3.3813   10.1989 C   0  0  0  0  0  0  0  0  0  0  0  0
    7.9050    2.6485    9.4681 H   0  0  0  0  0  0  0  0  0  0  0  0
    8.1172    3.0934   11.5499 C   0  0  0  0  0  0  0  0  0  0  0  0
    7.7335    2.1359   11.8698 H   0  0  0  0  0  0  0  0  0  0  0  0
    8.4994    4.0348   12.4944 C   0  0  0  0  0  0  0  0  0  0  0  0
    8.4133    3.8104   13.5474 H   0  0  0  0  0  0  0  0  0  0  0  0
    8.9791    5.2623   12.0809 C   0  0  0  0  0  0  0  0  0  0  0  0
    9.2698    6.0308   12.8100 H   0  0  0  0  0  0  0  0  0  0  0  0
  1  2  1  1  0  0  0
  1  4  1  0  0  0  0
  3  1  1  0  0  0  0
  3  8  1  0  0  0  0
  5 60  1  0  0  0  0
  5  1  1  0  0  0  0
  6 18  1  0  0  0  0
  7 15  1  0  0  0  0
  7 21  1  0  0  0  0
  8  4  1  0  0  0  0
  8  6  1  6  0  0  0
  9  6  1  0  0  0  0
  9 12  1  0  0  0  0
 10  9  1  0  0  0  0
 11  9  1  0  0  0  0
 12 14  1  0  0  0  0
 12  7  1  0  0  0  0
 13 12  1  0  0  0  0
 15 16  1  0  0  0  0
 15 17  1  0  0  0  0
 18 20  1  0  0  0  0
 18 15  1  0  0  0  0
 19 18  1  0  0  0  0
 21 23  1  0  0  0  0
 21 22  1  0  0  0  0
 24 21  1  0  0  0  0
 24 33  1  0  0  0  0
 25 24  2  0  0  0  0
 26 25  1  0  0  0  0
 27 25  1  0  0  0  0
 27 29  2  0  0  0  0
 28 27  1  0  0  0  0
 29 31  1  0  0  0  0
 30 29  1  0  0  0  0
 31 33  2  0  0  0  0
 31 32  1  0  0  0  0
 33 34  1  0  0  0  0
 35  5  1  0  0  0  0
 36 35  2  0  0  0  0
 37 36  1  0  0  0  0
 38 36  1  0  0  0  0
 39 38  1  0  0  0  0
 40 38  2  0  0  0  0
 40 41  1  0  0  0  0
 41 43  2  0  0  0  0
 42 41  1  0  0  0  0
 43 35  1  0  0  0  0
 43 44  1  0  0  0  0
 45 48  1  0  0  0  0
 45 40  1  0  0  0  0
 46 45  1  0  0  0  0
 47 45  1  0  0  0  0
 49  5  1  0  0  0  0
 49 58  1  0  0  0  0
 50 49  2  0  0  0  0
 51 50  1  0  0  0  0
 52 50  1  0  0  0  0
 52 54  2  0  0  0  0
 53 52  1  0  0  0  0
 54 56  1  0  0  0  0
 55 54  1  0  0  0  0
 56 58  2  0  0  0  0
 56 57  1  0  0  0  0
 58 59  1  0  0  0  0
 60 69  1  0  0  0  0
 61 63  1  0  0  0  0
 61 60  2  0  0  0  0
 62 61  1  0  0  0  0
 63 65  2  0  0  0  0
 64 63  1  0  0  0  0
 65 66  1  0  0  0  0
 65 67  1  0  0  0  0
 67 68  1  0  0  0  0
 69 67  2  0  0  0  0
 69 70  1  0  0  0  0
M  END
$$$$
