CSD_code = ROHMAD | q = 0 | S = 0 | Stoichiometry = C22H31IN2O2Pd | MND = 4
 OpenBabel04212202093D

 59 63  0  0  1  0  0  0  0  0999 V2000
   -0.3138   16.1660    2.8084 I   0  0  0  0  0  0  0  0  0  0  0  0
    0.6086   14.5559    4.6150 Pd  0  0  1  0  0  0  0  0  0  0  0  0
   -1.3632   11.0150    5.3990 O   0  0  0  0  0  0  0  0  0  0  0  0
    4.0431   15.5509    6.6750 O   0  0  0  0  0  0  0  0  0  0  0  0
   -0.8847   13.0689    4.6646 N   0  0  2  0  0  0  0  0  0  0  0  0
    2.4061   15.5098    5.1570 N   0  0  0  0  0  0  0  0  0  0  0  0
    1.2971   13.3553    5.9652 C   0  0  0  0  0  0  0  0  0  0  0  0
    0.5832   12.2114    6.3096 C   0  0  0  0  0  0  0  0  0  0  0  0
    1.0812   11.3469    7.2774 C   0  0  0  0  0  0  0  0  0  0  0  0
    0.5183   10.4586    7.5207 H   0  0  0  0  0  0  0  0  0  0  0  0
    2.2918   11.6256    7.9182 C   0  0  0  0  0  0  0  0  0  0  0  0
    3.0019   12.7736    7.5717 C   0  0  0  0  0  0  0  0  0  0  0  0
    3.9363   13.0218    8.0477 H   0  0  0  0  0  0  0  0  0  0  0  0
    2.5058   13.6325    6.5929 C   0  0  0  0  0  0  0  0  0  0  0  0
    2.7967   10.6494    8.9727 C   0  0  0  0  0  0  0  0  0  0  0  0
    1.7411   10.5093   10.0786 C   0  0  0  0  0  0  0  0  0  0  0  0
    2.1014    9.8371   10.8542 H   0  0  0  0  0  0  0  0  0  0  0  0
    0.8073   10.1097    9.6932 H   0  0  0  0  0  0  0  0  0  0  0  0
    1.5374   11.4781   10.5300 H   0  0  0  0  0  0  0  0  0  0  0  0
    4.1057   11.1062    9.6224 C   0  0  0  0  0  0  0  0  0  0  0  0
    4.9052   11.1800    8.8888 H   0  0  0  0  0  0  0  0  0  0  0  0
    4.4081   10.3788   10.3728 H   0  0  0  0  0  0  0  0  0  0  0  0
    3.9835   12.0667   10.1176 H   0  0  0  0  0  0  0  0  0  0  0  0
    3.0408    9.2869    8.3082 C   0  0  0  0  0  0  0  0  0  0  0  0
    3.7764    9.3828    7.5121 H   0  0  0  0  0  0  0  0  0  0  0  0
    2.1269    8.8837    7.8807 H   0  0  0  0  0  0  0  0  0  0  0  0
    3.4165    8.5760    9.0407 H   0  0  0  0  0  0  0  0  0  0  0  0
   -0.5922   12.0999    5.4710 C   0  0  2  0  0  3  0  0  0  0  0  0
   -2.2973   11.2379    4.3421 C   0  0  0  0  0  0  0  0  0  0  0  0
   -3.3066   11.2031    4.7599 H   0  0  0  0  0  0  0  0  0  0  0  0
   -2.1815   10.4301    3.6177 H   0  0  0  0  0  0  0  0  0  0  0  0
   -1.9398   12.6321    3.7673 C   0  0  2  0  0  0  0  0  0  0  0  0
   -2.7937   13.3169    3.8380 H   0  0  0  0  0  0  0  0  0  0  0  0
   -1.4355   12.6336    2.3015 C   0  0  0  0  0  0  0  0  0  0  0  0
   -1.4526   13.6759    1.9729 H   0  0  0  0  0  0  0  0  0  0  0  0
    0.0081   12.1365    2.1991 C   0  0  0  0  0  0  0  0  0  0  0  0
    0.7009   12.8367    2.7075 H   0  0  0  0  0  0  0  0  0  0  0  0
    0.3015   12.0828    1.1536 H   0  0  0  0  0  0  0  0  0  0  0  0
    0.1237   11.1473    2.6426 H   0  0  0  0  0  0  0  0  0  0  0  0
   -2.3680   11.8506    1.3816 C   0  0  0  0  0  0  0  0  0  0  0  0
   -3.4037   12.1320    1.5568 H   0  0  0  0  0  0  0  0  0  0  0  0
   -2.2707   10.7757    1.5189 H   0  0  0  0  0  0  0  0  0  0  0  0
   -2.1248   12.0765    0.3467 H   0  0  0  0  0  0  0  0  0  0  0  0
    3.0184   14.9022    6.1220 C   0  0  0  0  0  0  0  0  0  0  0  0
    4.1196   16.8273    6.0393 C   0  0  0  0  0  0  0  0  0  0  0  0
    5.0935   16.9124    5.5509 H   0  0  0  0  0  0  0  0  0  0  0  0
    4.0393   17.5918    6.8137 H   0  0  0  0  0  0  0  0  0  0  0  0
    2.9441   16.8527    5.0296 C   0  0  2  0  0  0  0  0  0  0  0  0
    3.3074   17.0115    4.0070 H   0  0  0  0  0  0  0  0  0  0  0  0
    1.8433   17.9036    5.3238 C   0  0  0  0  0  0  0  0  0  0  0  0
    1.2256   17.9607    4.4240 H   0  0  0  0  0  0  0  0  0  0  0  0
    2.4341   19.2908    5.5598 C   0  0  0  0  0  0  0  0  0  0  0  0
    1.6409   20.0322    5.5116 H   0  0  0  0  0  0  0  0  0  0  0  0
    3.1692   19.5291    4.7946 H   0  0  0  0  0  0  0  0  0  0  0  0
    2.9074   19.3734    6.5359 H   0  0  0  0  0  0  0  0  0  0  0  0
    0.9417   17.4683    6.4811 C   0  0  0  0  0  0  0  0  0  0  0  0
    0.2332   18.2607    6.7096 H   0  0  0  0  0  0  0  0  0  0  0  0
    1.5200   17.2512    7.3795 H   0  0  0  0  0  0  0  0  0  0  0  0
    0.3604   16.5655    6.2064 H   0  0  0  0  0  0  0  0  0  0  0  0
  2  1  1  1  0  0  0
  2  5  1  0  0  0  0
  2  6  1  0  0  0  0
  2  7  2  0  0  0  0
  3 28  1  0  0  0  0
  5 28  1  0  0  0  0
  6 44  1  0  0  0  0
  7  8  1  0  0  0  0
  7 14  1  0  0  0  0
  8  9  2  0  0  0  0
  9 10  1  0  0  0  0
  9 11  1  0  0  0  0
 11 15  1  0  0  0  0
 12 11  2  0  0  0  0
 12 13  1  0  0  0  0
 14 12  1  0  0  0  0
 15 20  1  0  0  0  0
 15 16  1  0  0  0  0
 16 19  1  0  0  0  0
 16 17  1  0  0  0  0
 18 16  1  0  0  0  0
 20 23  1  0  0  0  0
 20 22  1  0  0  0  0
 21 20  1  0  0  0  0
 24 15  1  0  0  0  0
 24 27  1  0  0  0  0
 25 24  1  0  0  0  0
 26 24  1  0  0  0  0
 28  8  1  0  0  0  0
 29 30  1  0  0  0  0
 29  3  1  0  0  0  0
 31 29  1  0  0  0  0
 32 33  1  0  0  0  0
 32 29  1  0  0  0  0
 32  5  1  0  0  0  0
 34 32  1  0  0  0  0
 35 34  1  0  0  0  0
 36 34  1  0  0  0  0
 36 39  1  0  0  0  0
 36 37  1  0  0  0  0
 38 36  1  0  0  0  0
 40 42  1  0  0  0  0
 40 41  1  0  0  0  0
 40 34  1  0  0  0  0
 43 40  1  0  0  0  0
 44 14  2  0  0  0  0
 44  4  1  0  0  0  0
 45  4  1  0  0  0  0
 45 47  1  0  0  0  0
 46 45  1  0  0  0  0
 48  6  1  0  0  0  0
 48 50  1  0  0  0  0
 48 45  1  0  0  0  0
 49 48  1  0  0  0  0
 50 52  1  0  0  0  0
 50 56  1  0  0  0  0
 51 50  1  0  0  0  0
 52 55  1  0  0  0  0
 53 52  1  0  0  0  0
 54 52  1  0  0  0  0
 56 57  1  0  0  0  0
 56 58  1  0  0  0  0
 59 56  1  0  0  0  0
M  END
$$$$
