CSD_code = ROHNAE | q = 0 | S = 0 | Stoichiometry = C24H19BrN2NiO2 | MND = 4
 OpenBabel04212202093D

 49 55  0  0  1  0  0  0  0  0999 V2000
    6.5815   -0.0034   11.1625 Br  0  0  0  0  0  0  0  0  0  0  0  0
    6.5825   -0.0018    8.9533 Ni  0  0  1  0  0  0  0  0  0  0  0  0
    8.2595   -3.1725    7.1471 O   0  0  0  0  0  0  0  0  0  0  0  0
    7.4505   -1.7180    8.6355 N   0  0  1  0  0  0  0  0  0  0  0  0
    6.5835   -0.0010    7.1127 C   0  0  0  0  0  0  0  0  0  0  0  0
    7.1132   -1.0896    6.4175 C   0  0  0  0  0  0  0  0  0  0  0  0
    7.1140   -1.0938    5.0267 C   0  0  0  0  0  0  0  0  0  0  0  0
    7.5232   -1.9322    4.4825 H   0  0  0  0  0  0  0  0  0  0  0  0
    6.5835   -0.0005    4.3533 C   0  0  0  0  0  0  0  0  0  0  0  0
    6.5835   -0.0003    3.2733 H   0  0  0  0  0  0  0  0  0  0  0  0
    7.6162   -2.0363    7.3909 C   0  0  1  0  0  3  0  0  0  0  0  0
    8.5961   -3.7406    8.4152 C   0  0  0  0  0  0  0  0  0  0  0  0
    9.6757   -3.9089    8.4430 H   0  0  0  0  0  0  0  0  0  0  0  0
    8.0753   -4.6972    8.5109 H   0  0  0  0  0  0  0  0  0  0  0  0
    8.1337   -2.6908    9.4641 C   0  0  1  0  0  0  0  0  0  0  0  0
    7.4335   -3.1173   10.1916 H   0  0  0  0  0  0  0  0  0  0  0  0
    9.3034   -2.0865   10.2149 C   0  0  0  0  0  0  0  0  0  0  0  0
    9.9645   -2.8638   11.1570 C   0  0  0  0  0  0  0  0  0  0  0  0
    9.6240   -3.8710   11.3515 H   0  0  0  0  0  0  0  0  0  0  0  0
   11.0437   -2.3500   11.8513 C   0  0  0  0  0  0  0  0  0  0  0  0
   11.5481   -2.9593   12.5865 H   0  0  0  0  0  0  0  0  0  0  0  0
   11.4683   -1.0534   11.6141 C   0  0  0  0  0  0  0  0  0  0  0  0
   12.3043   -0.6484   12.1644 H   0  0  0  0  0  0  0  0  0  0  0  0
   10.8115   -0.2748   10.6783 C   0  0  0  0  0  0  0  0  0  0  0  0
   11.1313    0.7403   10.4963 H   0  0  0  0  0  0  0  0  0  0  0  0
    9.7370   -0.7908    9.9760 C   0  0  0  0  0  0  0  0  0  0  0  0
    9.2183   -0.1617    9.2542 H   0  0  0  0  0  0  0  0  0  0  0  0
    4.9096    3.1716    7.1481 O   0  0  0  0  0  0  0  0  0  0  0  0
    5.7163    1.7155    8.6362 N   0  0  0  0  0  0  0  0  0  0  0  0
    6.0539    1.0879    6.4180 C   0  0  0  0  0  0  0  0  0  0  0  0
    6.0530    1.0926    5.0271 C   0  0  0  0  0  0  0  0  0  0  0  0
    5.6438    1.9312    4.4833 H   0  0  0  0  0  0  0  0  0  0  0  0
    5.5514    2.0344    7.3917 C   0  0  0  0  0  0  0  0  0  0  0  0
    4.5738    3.7398    8.4164 C   0  0  0  0  0  0  0  0  0  0  0  0
    3.4945    3.9099    8.4442 H   0  0  0  0  0  0  0  0  0  0  0  0
    5.0961    4.6956    8.5124 H   0  0  0  0  0  0  0  0  0  0  0  0
    5.0345    2.6890    9.4651 C   0  0  1  0  0  0  0  0  0  0  0  0
    5.7353    3.1142   10.1928 H   0  0  0  0  0  0  0  0  0  0  0  0
    3.8636    2.0865   10.2154 C   0  0  0  0  0  0  0  0  0  0  0  0
    3.2053    2.8640   11.1593 C   0  0  0  0  0  0  0  0  0  0  0  0
    3.5487    3.8697   11.3556 H   0  0  0  0  0  0  0  0  0  0  0  0
    2.1250    2.3518   11.8533 C   0  0  0  0  0  0  0  0  0  0  0  0
    1.6226    2.9612   12.5898 H   0  0  0  0  0  0  0  0  0  0  0  0
    1.6966    1.0569   11.6138 C   0  0  0  0  0  0  0  0  0  0  0  0
    0.8596    0.6532   12.1637 H   0  0  0  0  0  0  0  0  0  0  0  0
    2.3507    0.2783   10.6762 C   0  0  0  0  0  0  0  0  0  0  0  0
    2.0279   -0.7356   10.4924 H   0  0  0  0  0  0  0  0  0  0  0  0
    3.4263    0.7925    9.9743 C   0  0  0  0  0  0  0  0  0  0  0  0
    3.9430    0.1633    9.2513 H   0  0  0  0  0  0  0  0  0  0  0  0
  2  1  1  6  0  0  0
  3 11  1  0  0  0  0
  3 12  1  0  0  0  0
  4  2  1  0  0  0  0
  4 15  1  0  0  0  0
  5  2  2  0  0  0  0
  6  5  1  0  0  0  0
  6 11  1  0  0  0  0
  7  6  2  0  0  0  0
  8  7  1  0  0  0  0
  9  7  1  0  0  0  0
  9 31  2  0  0  0  0
 10  9  1  0  0  0  0
 11  4  1  0  0  0  0
 12 13  1  0  0  0  0
 12 14  1  0  0  0  0
 12 15  1  0  0  0  0
 15 16  1  0  0  0  0
 15 17  1  0  0  0  0
 17 18  1  0  0  0  0
 18 19  1  0  0  0  0
 18 20  2  0  0  0  0
 20 21  1  0  0  0  0
 22 20  1  0  0  0  0
 22 23  1  0  0  0  0
 24 22  2  0  0  0  0
 25 24  1  0  0  0  0
 26 17  2  0  0  0  0
 26 24  1  0  0  0  0
 27 26  1  0  0  0  0
 28 33  1  0  0  0  0
 28 34  1  0  0  0  0
 29  2  1  0  0  0  0
 29 37  1  0  0  0  0
 30  5  1  0  0  0  0
 30 33  2  0  0  0  0
 31 30  1  0  0  0  0
 32 31  1  0  0  0  0
 33 29  1  0  0  0  0
 34 35  1  0  0  0  0
 34 36  1  0  0  0  0
 34 37  1  0  0  0  0
 37 38  1  0  0  0  0
 37 39  1  0  0  0  0
 39 40  1  0  0  0  0
 40 41  1  0  0  0  0
 40 42  2  0  0  0  0
 42 43  1  0  0  0  0
 44 42  1  0  0  0  0
 44 45  1  0  0  0  0
 46 44  2  0  0  0  0
 47 46  1  0  0  0  0
 48 39  2  0  0  0  0
 48 46  1  0  0  0  0
 49 48  1  0  0  0  0
M  END
$$$$
