CSD_code = ROHTIT | q = 0 | S = 0 | Stoichiometry = C20H23BrN4Ni | MND = 4
 OpenBabel04212202093D

 49 53  0  0  1  0  0  0  0  0999 V2000
   15.2184    5.4504    4.9386 Br  0  0  0  0  0  0  0  0  0  0  0  0
   11.7984    2.5061    3.1654 C   0  0  0  0  0  0  0  0  0  0  0  0
   11.4514    1.5390    3.5214 H   0  0  0  0  0  0  0  0  0  0  0  0
   12.1538    2.3866    2.1459 H   0  0  0  0  0  0  0  0  0  0  0  0
   10.9587    3.1981    3.1593 H   0  0  0  0  0  0  0  0  0  0  0  0
   14.0876    2.0593    4.1510 C   0  0  0  0  0  0  0  0  0  0  0  0
   14.8928    2.4994    4.7330 H   0  0  0  0  0  0  0  0  0  0  0  0
   14.4694    1.8312    3.1606 H   0  0  0  0  0  0  0  0  0  0  0  0
   13.7670    1.1341    4.6238 H   0  0  0  0  0  0  0  0  0  0  0  0
   12.9301    3.0452    4.0374 C   0  0  0  0  0  0  0  0  0  0  0  0
   13.2961    3.9819    3.5975 H   0  0  0  0  0  0  0  0  0  0  0  0
   12.4380    4.6035    5.9364 C   0  0  2  0  0  3  0  0  0  0  0  0
   11.7712    2.4973    6.1682 C   0  0  0  0  0  0  0  0  0  0  0  0
   11.6451    1.4653    5.9168 H   0  0  0  0  0  0  0  0  0  0  0  0
   11.3636    3.1778    7.2644 C   0  0  0  0  0  0  0  0  0  0  0  0
   10.8016    2.8461    8.1117 H   0  0  0  0  0  0  0  0  0  0  0  0
   11.4333    5.5399    7.9600 C   0  0  0  0  0  0  0  0  0  0  0  0
   11.1810    5.3155    9.3041 C   0  0  0  0  0  0  0  0  0  0  0  0
   11.2954    4.3218    9.7106 H   0  0  0  0  0  0  0  0  0  0  0  0
   10.8042    6.3563   10.1296 C   0  0  0  0  0  0  0  0  0  0  0  0
   10.6071    6.1761   11.1744 H   0  0  0  0  0  0  0  0  0  0  0  0
   10.7031    7.6371    9.6022 C   0  0  0  0  0  0  0  0  0  0  0  0
   10.4297    8.4621   10.2435 H   0  0  0  0  0  0  0  0  0  0  0  0
   10.9719    7.8771    8.2754 C   0  0  0  0  0  0  0  0  0  0  0  0
   10.9318    8.8866    7.8937 H   0  0  0  0  0  0  0  0  0  0  0  0
   11.3443    6.8379    7.4013 C   0  0  0  0  0  0  0  0  0  0  0  0
   11.2517    8.1454    5.3934 C   0  0  0  0  0  0  0  0  0  0  0  0
    9.9815    8.7166    5.5405 C   0  0  0  0  0  0  0  0  0  0  0  0
    9.2836    8.2831    6.2417 H   0  0  0  0  0  0  0  0  0  0  0  0
    9.6206    9.8088    4.7798 C   0  0  0  0  0  0  0  0  0  0  0  0
    8.6368   10.2383    4.9001 H   0  0  0  0  0  0  0  0  0  0  0  0
   10.5037   10.3533    3.8611 C   0  0  0  0  0  0  0  0  0  0  0  0
   10.2184   11.2124    3.2737 H   0  0  0  0  0  0  0  0  0  0  0  0
   11.7532    9.7811    3.6830 C   0  0  0  0  0  0  0  0  0  0  0  0
   12.4291   10.2076    2.9560 H   0  0  0  0  0  0  0  0  0  0  0  0
   12.1192    8.6738    4.4234 C   0  0  0  0  0  0  0  0  0  0  0  0
   14.4534    8.8654    4.8545 C   0  0  0  0  0  0  0  0  0  0  0  0
   14.2399    9.0512    5.9086 H   0  0  0  0  0  0  0  0  0  0  0  0
   14.5011    9.8276    4.3314 H   0  0  0  0  0  0  0  0  0  0  0  0
   15.4226    8.3724    4.7729 H   0  0  0  0  0  0  0  0  0  0  0  0
   13.7063    7.7387    2.8714 C   0  0  0  0  0  0  0  0  0  0  0  0
   14.6332    7.1703    2.7893 H   0  0  0  0  0  0  0  0  0  0  0  0
   13.8269    8.6668    2.3025 H   0  0  0  0  0  0  0  0  0  0  0  0
   12.8916    7.1619    2.4285 H   0  0  0  0  0  0  0  0  0  0  0  0
   12.4219    3.3816    5.3570 N   0  0  0  0  0  0  0  0  0  0  0  0
   11.7710    4.4752    7.1055 N   0  0  0  0  0  0  0  0  0  0  0  0
   11.6892    7.0502    6.1035 N   0  0  0  0  0  0  0  0  0  0  0  0
   13.4077    8.0051    4.2851 N   0  0  0  0  0  4  0  0  0  0  0  0
   13.1556    6.2089    5.2925 Ni  0  0  1  0  0  0  0  0  0  0  0  0
  2  3  1  0  0  0  0
  2 10  1  0  0  0  0
  4  2  1  0  0  0  0
  5  2  1  0  0  0  0
  6  9  1  0  0  0  0
  6  7  1  0  0  0  0
  8  6  1  0  0  0  0
 10  6  1  0  0  0  0
 10 45  1  0  0  0  0
 11 10  1  0  0  0  0
 12 45  1  6  0  0  0
 12 46  1  0  0  0  0
 13 15  2  0  0  0  0
 14 13  1  0  0  0  0
 15 16  1  0  0  0  0
 17 18  1  0  0  0  0
 18 19  1  0  0  0  0
 18 20  2  0  0  0  0
 20 21  1  0  0  0  0
 22 20  1  0  0  0  0
 22 23  1  0  0  0  0
 24 22  2  0  0  0  0
 25 24  1  0  0  0  0
 26 17  2  0  0  0  0
 26 24  1  0  0  0  0
 27 28  1  0  0  0  0
 27 47  1  0  0  0  0
 28 29  1  0  0  0  0
 30 31  1  0  0  0  0
 30 28  2  0  0  0  0
 32 30  1  0  0  0  0
 33 32  1  0  0  0  0
 34 32  2  0  0  0  0
 34 36  1  0  0  0  0
 35 34  1  0  0  0  0
 36 27  2  0  0  0  0
 37 38  1  0  0  0  0
 39 37  1  0  0  0  0
 40 37  1  0  0  0  0
 41 48  1  0  0  0  0
 42 41  1  0  0  0  0
 43 41  1  0  0  0  0
 44 41  1  0  0  0  0
 45 13  1  0  0  0  0
 46 15  1  0  0  0  0
 46 17  1  0  0  0  0
 47 26  1  0  0  0  0
 48 36  1  0  0  0  0
 48 37  1  0  0  0  0
 48 49  1  0  0  0  0
 49  1  1  1  0  0  0
 49 12  1  0  0  0  0
 49 47  1  0  0  0  0
M  END
$$$$
