CSD_code = ROHTUE | q = 0 | S = 0 | Stoichiometry = C25H37ClN4OPRh | MND = 4
 OpenBabel04212202093D

 70 72  0  0  1  0  0  0  0  0999 V2000
    3.6945    4.3402    5.6626 Rh  0  0  1  0  0  0  0  0  0  0  0  0
    5.3303    3.4209    6.9827 Cl  0  0  0  0  0  0  0  0  0  0  0  0
    2.2298    5.8062    4.7518 P   0  0  0  0  0  4  0  0  0  0  0  0
    2.0164    2.1293    6.7312 O   0  0  0  0  0  1  0  0  0  0  0  0
    5.0479    5.5004    4.9107 N   0  0  0  0  0  0  0  0  0  0  0  0
    2.7914    7.3147    5.2616 N   0  0  0  0  0  0  0  0  0  0  0  0
    0.6154    6.0902    5.1699 N   0  0  0  0  0  0  0  0  0  0  0  0
    2.2250    5.9329    3.0665 N   0  0  0  0  0  0  0  0  0  0  0  0
    2.5891    3.0309    6.3121 C   0  0  0  0  0  2  0  0  0  0  0  0
    4.0146    7.6565    5.3671 C   0  0  0  0  0  0  0  0  0  0  0  0
    5.1550    6.8362    4.9054 C   0  0  2  0  0  3  0  0  0  0  0  0
    6.2497    7.4760    4.3234 C   0  0  0  0  0  0  0  0  0  0  0  0
    6.2959    8.5544    4.3201 H   0  0  0  0  0  0  0  0  0  0  0  0
    7.2503    6.7236    3.7373 C   0  0  0  0  0  0  0  0  0  0  0  0
    8.1064    7.2025    3.2878 H   0  0  0  0  0  0  0  0  0  0  0  0
    7.1178    5.3412    3.7347 C   0  0  0  0  0  0  0  0  0  0  0  0
    7.8668    4.7108    3.2830 H   0  0  0  0  0  0  0  0  0  0  0  0
    6.0078    4.7744    4.3311 C   0  0  0  0  0  0  0  0  0  0  0  0
    5.8901    3.6944    4.3533 H   0  0  0  0  0  0  0  0  0  0  0  0
    0.2738    6.5246    6.5282 C   0  0  0  0  0  0  0  0  0  0  0  0
   -0.7434    6.1719    6.7276 H   0  0  0  0  0  0  0  0  0  0  0  0
    0.2455    8.0517    6.6227 C   0  0  0  0  0  0  0  0  0  0  0  0
   -0.3420    8.4647    5.8068 H   0  0  0  0  0  0  0  0  0  0  0  0
    1.2508    8.4547    6.5711 H   0  0  0  0  0  0  0  0  0  0  0  0
   -0.2081    8.3526    7.5645 H   0  0  0  0  0  0  0  0  0  0  0  0
    1.1804    5.9274    7.6018 C   0  0  0  0  0  0  0  0  0  0  0  0
    1.0963    4.8420    7.6100 H   0  0  0  0  0  0  0  0  0  0  0  0
    0.8926    6.3044    8.5809 H   0  0  0  0  0  0  0  0  0  0  0  0
    2.2241    6.1948    7.4227 H   0  0  0  0  0  0  0  0  0  0  0  0
   -0.3751    5.2629    4.4914 C   0  0  0  0  0  0  0  0  0  0  0  0
    0.0838    4.9993    3.5331 H   0  0  0  0  0  0  0  0  0  0  0  0
    4.3088    8.9910    5.9109 C   0  0  0  0  0  0  0  0  0  0  0  0
    3.4549   10.0583    5.6386 C   0  0  0  0  0  0  0  0  0  0  0  0
    2.6100    9.8951    4.9872 H   0  0  0  0  0  0  0  0  0  0  0  0
    3.7031   11.3038    6.1820 C   0  0  0  0  0  0  0  0  0  0  0  0
    3.0433   12.1291    5.9591 H   0  0  0  0  0  0  0  0  0  0  0  0
    4.7947   11.4940    7.0147 C   0  0  0  0  0  0  0  0  0  0  0  0
    4.9860   12.4670    7.4420 H   0  0  0  0  0  0  0  0  0  0  0  0
    5.6381   10.4332    7.3037 C   0  0  0  0  0  0  0  0  0  0  0  0
    6.4816   10.5767    7.9623 H   0  0  0  0  0  0  0  0  0  0  0  0
    5.4029    9.1875    6.7526 C   0  0  0  0  0  0  0  0  0  0  0  0
    6.0496    8.3565    6.9946 H   0  0  0  0  0  0  0  0  0  0  0  0
   -0.7097    3.9555    5.2104 C   0  0  0  0  0  0  0  0  0  0  0  0
    0.1990    3.3818    5.3707 H   0  0  0  0  0  0  0  0  0  0  0  0
   -1.3896    3.3656    4.6000 H   0  0  0  0  0  0  0  0  0  0  0  0
   -1.1850    4.1332    6.1718 H   0  0  0  0  0  0  0  0  0  0  0  0
   -1.6438    6.0681    4.1999 C   0  0  0  0  0  0  0  0  0  0  0  0
   -1.3893    7.0086    3.7184 H   0  0  0  0  0  0  0  0  0  0  0  0
   -2.1945    6.2847    5.1116 H   0  0  0  0  0  0  0  0  0  0  0  0
   -2.2949    5.5019    3.5380 H   0  0  0  0  0  0  0  0  0  0  0  0
    1.7257    7.1815    2.5025 C   0  0  0  0  0  0  0  0  0  0  0  0
    1.1851    7.6331    3.3454 H   0  0  0  0  0  0  0  0  0  0  0  0
    2.8194    8.1728    2.0827 C   0  0  0  0  0  0  0  0  0  0  0  0
    3.6091    8.2191    2.8278 H   0  0  0  0  0  0  0  0  0  0  0  0
    2.3826    9.1648    1.9881 H   0  0  0  0  0  0  0  0  0  0  0  0
    3.2588    7.9074    1.1259 H   0  0  0  0  0  0  0  0  0  0  0  0
    0.7401    6.9988    1.3492 C   0  0  0  0  0  0  0  0  0  0  0  0
   -0.0264    6.2720    1.5998 H   0  0  0  0  0  0  0  0  0  0  0  0
    1.2510    6.6799    0.4440 H   0  0  0  0  0  0  0  0  0  0  0  0
    0.2564    7.9508    1.1412 H   0  0  0  0  0  0  0  0  0  0  0  0
    2.8658    4.8566    2.3242 C   0  0  0  0  0  0  0  0  0  0  0  0
    3.3047    4.2115    3.1154 H   0  0  0  0  0  0  0  0  0  0  0  0
    4.0031    5.3086    1.4082 C   0  0  0  0  0  0  0  0  0  0  0  0
    4.6715    5.9932    1.9249 H   0  0  0  0  0  0  0  0  0  0  0  0
    3.6187    5.7951    0.5154 H   0  0  0  0  0  0  0  0  0  0  0  0
    4.5782    4.4398    1.0954 H   0  0  0  0  0  0  0  0  0  0  0  0
    1.8909    3.9652    1.5485 C   0  0  0  0  0  0  0  0  0  0  0  0
    1.0926    3.6211    2.2010 H   0  0  0  0  0  0  0  0  0  0  0  0
    2.4265    3.0922    1.1824 H   0  0  0  0  0  0  0  0  0  0  0  0
    1.4565    4.4791    0.6969 H   0  0  0  0  0  0  0  0  0  0  0  0
  1  9  1  0  0  0  0
  1  2  1  1  0  0  0
  3  7  1  0  0  0  0
  3  6  1  0  0  0  0
  3  1  1  0  0  0  0
  5  1  1  0  0  0  0
  6 10  2  0  0  0  0
  7 20  1  0  0  0  0
  8  3  1  0  0  0  0
  9  4  1  0  0  0  0
 10 32  1  0  0  0  0
 11 12  1  6  0  0  0
 11  5  1  0  0  0  0
 11 10  1  0  0  0  0
 13 12  1  0  0  0  0
 14 12  2  0  0  0  0
 15 14  1  0  0  0  0
 16 14  1  0  0  0  0
 16 18  2  0  0  0  0
 17 16  1  0  0  0  0
 18 19  1  0  0  0  0
 18  5  1  0  0  0  0
 20 22  1  0  0  0  0
 20 21  1  0  0  0  0
 20 26  1  0  0  0  0
 22 25  1  0  0  0  0
 23 22  1  0  0  0  0
 24 22  1  0  0  0  0
 26 27  1  0  0  0  0
 26 28  1  0  0  0  0
 29 26  1  0  0  0  0
 30  7  1  0  0  0  0
 30 43  1  0  0  0  0
 31 30  1  0  0  0  0
 32 41  1  0  0  0  0
 33 32  2  0  0  0  0
 33 35  1  0  0  0  0
 34 33  1  0  0  0  0
 35 37  2  0  0  0  0
 36 35  1  0  0  0  0
 37 39  1  0  0  0  0
 37 38  1  0  0  0  0
 39 40  1  0  0  0  0
 41 42  1  0  0  0  0
 41 39  2  0  0  0  0
 43 44  1  0  0  0  0
 43 46  1  0  0  0  0
 45 43  1  0  0  0  0
 47 30  1  0  0  0  0
 47 49  1  0  0  0  0
 48 47  1  0  0  0  0
 50 47  1  0  0  0  0
 51  8  1  0  0  0  0
 51 52  1  0  0  0  0
 53 51  1  0  0  0  0
 53 54  1  0  0  0  0
 55 53  1  0  0  0  0
 56 53  1  0  0  0  0
 57 58  1  0  0  0  0
 57 51  1  0  0  0  0
 59 57  1  0  0  0  0
 60 57  1  0  0  0  0
 61  8  1  0  0  0  0
 61 62  1  0  0  0  0
 63 64  1  0  0  0  0
 63 61  1  0  0  0  0
 65 63  1  0  0  0  0
 66 63  1  0  0  0  0
 67 68  1  0  0  0  0
 67 61  1  0  0  0  0
 69 67  1  0  0  0  0
 70 67  1  0  0  0  0
M  END
$$$$
