CSD_code = ROJCUP | q = 0 | S = 0 | Stoichiometry = C23H23ClNRh | MND = 8
 OpenBabel04212202093D

 49 53  0  0  1  0  0  0  0  0999 V2000
    0.3290   10.3289    4.8661 Rh  0  0  1  0  0  0  0  0  0  0  0  0
   -1.6881   11.0458    5.7084 Cl  0  0  0  0  0 15  0  0  0  0  0  0
    0.1598    8.7134    6.1159 N   0  0  0  0  0  0  0  0  0  0  0  0
   -0.7793    9.1278    3.6960 C   0  0  0  0  0  0  0  0  0  0  0  0
   -1.3343    9.3645    2.4539 C   0  0  0  0  0  0  0  0  0  0  0  0
   -1.2044   10.3174    1.9598 H   0  0  0  0  0  0  0  0  0  0  0  0
   -2.0987    8.3806    1.8177 C   0  0  0  0  0  0  0  0  0  0  0  0
   -2.5080    8.5928    0.8395 H   0  0  0  0  0  0  0  0  0  0  0  0
   -2.3555    7.1637    2.4079 C   0  0  0  0  0  0  0  0  0  0  0  0
   -2.9607    6.4247    1.9029 H   0  0  0  0  0  0  0  0  0  0  0  0
   -1.8528    6.8935    3.6866 C   0  0  1  0  0  3  0  0  0  0  0  0
   -1.0639    7.8875    4.2996 C   0  0  0  0  0  0  0  0  0  0  0  0
   -0.5675    7.6932    5.6115 C   0  0  0  0  0  0  0  0  0  0  0  0
   -0.8575    6.5172    6.3322 C   0  0  0  0  0  0  0  0  0  0  0  0
   -0.3656    6.4306    7.6401 C   0  0  0  0  0  0  0  0  0  0  0  0
   -0.5578    5.5500    8.2354 H   0  0  0  0  0  0  0  0  0  0  0  0
    0.3500    7.4926    8.1519 C   0  0  0  0  0  0  0  0  0  0  0  0
    0.7297    7.4676    9.1615 H   0  0  0  0  0  0  0  0  0  0  0  0
    0.5883    8.6170    7.3645 C   0  0  0  0  0  0  0  0  0  0  0  0
    1.1357    9.4594    7.7677 H   0  0  0  0  0  0  0  0  0  0  0  0
   -1.6345    5.5152    5.6796 C   0  0  0  0  0  0  0  0  0  0  0  0
   -1.8483    4.6063    6.2235 H   0  0  0  0  0  0  0  0  0  0  0  0
   -2.1038    5.6957    4.4190 C   0  0  0  0  0  0  0  0  0  0  0  0
   -2.6974    4.9263    3.9453 H   0  0  0  0  0  0  0  0  0  0  0  0
    1.3676   12.3637    5.1604 C   0  0  0  0  0  0  0  0  0  0  0  0
    0.9692   12.0915    3.7877 C   0  0  1  0  0  0  0  0  0  0  0  0
    1.7569   10.9964    3.3143 C   0  0  2  0  0  3  0  0  0  0  0  0
    2.4766   10.4782    4.4332 C   0  0  1  0  0  0  0  0  0  0  0  0
    2.2794   11.3786    5.5559 C   0  0  0  0  0  0  0  0  0  0  0  0
    0.9118   13.5592    5.9327 C   0  0  0  0  0  0  0  0  0  0  0  0
    1.2149   14.4691    5.4130 H   0  0  0  0  0  0  0  0  0  0  0  0
    1.3389   13.5687    6.9320 H   0  0  0  0  0  0  0  0  0  0  0  0
   -0.1744   13.5643    6.0197 H   0  0  0  0  0  0  0  0  0  0  0  0
    0.1726   13.0573    2.9631 C   0  0  0  0  0  0  0  0  0  0  0  0
    0.7527   13.9674    2.7979 H   0  0  0  0  0  0  0  0  0  0  0  0
   -0.7479   13.3272    3.4770 H   0  0  0  0  0  0  0  0  0  0  0  0
   -0.0841   12.6343    1.9952 H   0  0  0  0  0  0  0  0  0  0  0  0
    1.9220   10.5427    1.8966 C   0  0  0  0  0  0  0  0  0  0  0  0
    2.8744   10.9137    1.5127 H   0  0  0  0  0  0  0  0  0  0  0  0
    1.1276   10.9272    1.2636 H   0  0  0  0  0  0  0  0  0  0  0  0
    1.9241    9.4571    1.8207 H   0  0  0  0  0  0  0  0  0  0  0  0
    3.5303    9.4156    4.3650 C   0  0  0  0  0  0  0  0  0  0  0  0
    4.4988    9.8724    4.1499 H   0  0  0  0  0  0  0  0  0  0  0  0
    3.3088    8.6991    3.5773 H   0  0  0  0  0  0  0  0  0  0  0  0
    3.6133    8.8757    5.3066 H   0  0  0  0  0  0  0  0  0  0  0  0
    3.0719   11.3481    6.8278 C   0  0  0  0  0  0  0  0  0  0  0  0
    3.9663   11.9646    6.7135 H   0  0  0  0  0  0  0  0  0  0  0  0
    3.3942   10.3370    7.0692 H   0  0  0  0  0  0  0  0  0  0  0  0
    2.4969   11.7413    7.6643 H   0  0  0  0  0  0  0  0  0  0  0  0
  1  4  1  6  0  0  0
  1  3  1  0  0  0  0
  3 19  1  0  0  0  0
  4 12  1  0  0  0  0
  5  4  2  0  0  0  0
  6  5  1  0  0  0  0
  7  9  2  0  0  0  0
  7  5  1  0  0  0  0
  8  7  1  0  0  0  0
 10  9  1  0  0  0  0
 11  9  1  1  0  0  0
 11 12  1  0  0  0  0
 11 23  1  0  0  0  0
 12 13  2  0  0  0  0
 13  3  1  0  0  0  0
 13 14  1  0  0  0  0
 14 15  2  0  0  0  0
 15 17  1  0  0  0  0
 15 16  1  0  0  0  0
 17 18  1  0  0  0  0
 19 20  1  0  0  0  0
 19 17  2  0  0  0  0
 21 22  1  0  0  0  0
 21 14  1  0  0  0  0
 23 21  2  0  0  0  0
 24 23  1  0  0  0  0
 25 29  2  0  0  0  0
 25 30  1  0  0  0  0
 26 34  1  6  0  0  0
 26  1  1  0  0  0  0
 26 25  1  0  0  0  0
 27 38  1  6  0  0  0
 27 26  1  0  0  0  0
 27 28  1  0  0  0  0
 28 42  1  6  0  0  0
 28  1  1  0  0  0  0
 28 29  1  0  0  0  0
 29 46  1  0  0  0  0
 30 33  1  0  0  0  0
 30 32  1  0  0  0  0
 31 30  1  0  0  0  0
 34 36  1  0  0  0  0
 35 34  1  0  0  0  0
 37 34  1  0  0  0  0
 39 38  1  0  0  0  0
 40 38  1  0  0  0  0
 41 38  1  0  0  0  0
 42 45  1  0  0  0  0
 43 42  1  0  0  0  0
 44 42  1  0  0  0  0
 46 48  1  0  0  0  0
 46 49  1  0  0  0  0
 47 46  1  0  0  0  0
M  END
$$$$
