CSD_code = ROJCAV | q = 0 | S = 0 | Stoichiometry = C18H23ClNRh | MND = 8
 OpenBabel04212202093D

 44 46  0  0  1  0  0  0  0  0999 V2000
    2.4235    2.0759    6.5984 Rh  0  0  1  0  0  0  0  0  0  0  0  0
    0.2012    2.6704    6.5166 Cl  0  0  0  0  0 15  0  0  0  0  0  0
    1.8667    0.6346    7.9085 N   0  0  0  0  0  0  0  0  0  0  0  0
    1.9209    0.6046    5.3415 C   0  0  0  0  0  0  0  0  0  0  0  0
    1.9070    0.6417    3.9530 C   0  0  0  0  0  0  0  0  0  0  0  0
    2.1868    1.5424    3.4242 H   0  0  0  0  0  0  0  0  0  0  0  0
    1.5175   -0.4718    3.2267 C   0  0  0  0  0  0  0  0  0  0  0  0
    1.5231   -0.4308    2.1465 H   0  0  0  0  0  0  0  0  0  0  0  0
    1.1056   -1.6362    3.8652 C   0  0  0  0  0  0  0  0  0  0  0  0
    0.7986   -2.4907    3.2803 H   0  0  0  0  0  0  0  0  0  0  0  0
    1.0670   -1.6863    5.2412 C   0  0  0  0  0  0  0  0  0  0  0  0
    0.7190   -2.5714    5.7548 H   0  0  0  0  0  0  0  0  0  0  0  0
    1.4710   -0.5709    5.9782 C   0  0  0  0  0  0  0  0  0  0  0  0
    1.4187   -0.4591    7.4023 C   0  0  0  0  0  3  0  0  0  0  0  0
    0.9837   -1.2388    8.0258 H   0  0  0  0  0  0  0  0  0  0  0  0
    1.7475    0.8871    9.3189 C   0  0  0  0  0  0  0  0  0  0  0  0
    1.2666    0.0504    9.8356 H   0  0  0  0  0  0  0  0  0  0  0  0
    1.1458    1.7886    9.4641 H   0  0  0  0  0  0  0  0  0  0  0  0
    2.7345    1.0580    9.7539 H   0  0  0  0  0  0  0  0  0  0  0  0
    3.1322    4.2371    6.9633 C   0  0  0  0  0  0  0  0  0  0  0  0
    3.2908    3.7881    5.5876 C   0  0  1  0  0  0  0  0  0  0  0  0
    4.2713    2.7520    5.5790 C   0  0  2  0  0  3  0  0  0  0  0  0
    4.5610    2.4306    6.9418 C   0  0  1  0  0  0  0  0  0  0  0  0
    3.9056    3.4129    7.7872 C   0  0  0  0  0  0  0  0  0  0  0  0
    2.3401    5.4413    7.3593 C   0  0  0  0  0  0  0  0  0  0  0  0
    2.7230    6.3207    6.8398 H   0  0  0  0  0  0  0  0  0  0  0  0
    2.4001    5.6130    8.4309 H   0  0  0  0  0  0  0  0  0  0  0  0
    1.2926    5.3158    7.0852 H   0  0  0  0  0  0  0  0  0  0  0  0
    2.7837    4.5677    4.4117 C   0  0  0  0  0  0  0  0  0  0  0  0
    3.3468    5.4983    4.3154 H   0  0  0  0  0  0  0  0  0  0  0  0
    1.7328    4.8158    4.5456 H   0  0  0  0  0  0  0  0  0  0  0  0
    2.8885    4.0060    3.4868 H   0  0  0  0  0  0  0  0  0  0  0  0
    4.9856    2.1800    4.3927 C   0  0  0  0  0  0  0  0  0  0  0  0
    6.0188    2.5324    4.3964 H   0  0  0  0  0  0  0  0  0  0  0  0
    4.5217    2.4989    3.4637 H   0  0  0  0  0  0  0  0  0  0  0  0
    4.9976    1.0916    4.4146 H   0  0  0  0  0  0  0  0  0  0  0  0
    5.6465    1.4986    7.3865 C   0  0  0  0  0  0  0  0  0  0  0  0
    6.5922    2.0413    7.4508 H   0  0  0  0  0  0  0  0  0  0  0  0
    5.7689    0.6821    6.6786 H   0  0  0  0  0  0  0  0  0  0  0  0
    5.4343    1.0739    8.3659 H   0  0  0  0  0  0  0  0  0  0  0  0
    4.1710    3.6156    9.2488 C   0  0  0  0  0  0  0  0  0  0  0  0
    4.9024    4.4166    9.3764 H   0  0  0  0  0  0  0  0  0  0  0  0
    4.5804    2.7168    9.7043 H   0  0  0  0  0  0  0  0  0  0  0  0
    3.2662    3.8964    9.7847 H   0  0  0  0  0  0  0  0  0  0  0  0
  1  4  1  6  0  0  0
  1 23  1  0  0  0  0
  1  3  1  0  0  0  0
  3 16  1  0  0  0  0
  4 13  1  0  0  0  0
  5  4  2  0  0  0  0
  6  5  1  0  0  0  0
  7  9  2  0  0  0  0
  7  5  1  0  0  0  0
  8  7  1  0  0  0  0
  9 11  1  0  0  0  0
 10  9  1  0  0  0  0
 11 12  1  0  0  0  0
 11 13  2  0  0  0  0
 13 14  1  0  0  0  0
 14  3  1  0  0  0  0
 14 15  1  0  0  0  0
 16 18  1  0  0  0  0
 16 19  1  0  0  0  0
 16 17  1  0  0  0  0
 20 25  1  0  0  0  0
 20 24  2  0  0  0  0
 21 29  1  6  0  0  0
 21  1  1  0  0  0  0
 21 20  1  0  0  0  0
 22 33  1  1  0  0  0
 22 21  1  0  0  0  0
 22 23  1  0  0  0  0
 23 37  1  1  0  0  0
 23 24  1  0  0  0  0
 24 41  1  0  0  0  0
 25 27  1  0  0  0  0
 26 25  1  0  0  0  0
 28 25  1  0  0  0  0
 29 31  1  0  0  0  0
 30 29  1  0  0  0  0
 32 29  1  0  0  0  0
 33 34  1  0  0  0  0
 33 36  1  0  0  0  0
 35 33  1  0  0  0  0
 37 38  1  0  0  0  0
 37 40  1  0  0  0  0
 39 37  1  0  0  0  0
 41 42  1  0  0  0  0
 41 43  1  0  0  0  0
 41 44  1  0  0  0  0
M  END
$$$$
