CSD_code = ROJZOG | q = 0 | S = 0 | Stoichiometry = C22H42ClO2PPd | MND = 3
 OpenBabel04212202093D

 69 70  0  0  1  0  0  0  0  0999 V2000
    4.1250    3.2993   10.0168 Pd  0  0  0  0  0  0  0  0  0  0  0  0
    5.9337    3.7940   10.8815 C   0  0  2  0  0  0  0  0  0  0  0  0
    6.5260    2.8721   10.8481 H   0  0  0  0  0  0  0  0  0  0  0  0
    5.7691    4.2854   12.3310 C   0  0  1  0  0  0  0  0  0  0  0  0
    6.1827    3.5536   13.0341 H   0  0  0  0  0  0  0  0  0  0  0  0
    6.6117    5.5731   12.3224 C   0  0  1  0  0  0  0  0  0  0  0  0
    6.4557    6.2033   13.1963 H   0  0  0  0  0  0  0  0  0  0  0  0
    8.1008    5.1915   12.1076 C   0  0  2  0  0  0  0  0  0  0  0  0
    8.7251    6.0602   12.3289 H   0  0  0  0  0  0  0  0  0  0  0  0
    8.1556    4.8016   10.6179 C   0  0  0  0  0  0  0  0  0  0  0  0
    8.7838    5.4920   10.0553 H   0  0  0  0  0  0  0  0  0  0  0  0
    8.5463    3.7925   10.4901 H   0  0  0  0  0  0  0  0  0  0  0  0
    6.6861    4.9266   10.1812 C   0  0  2  0  0  0  0  0  0  0  0  0
    6.5551    4.9638    9.0975 H   0  0  0  0  0  0  0  0  0  0  0  0
    6.2665    6.1719   10.9621 C   0  0  0  0  0  0  0  0  0  0  0  0
    5.2144    6.4095   10.8414 H   0  0  0  0  0  0  0  0  0  0  0  0
    6.8664    7.0459   10.7138 H   0  0  0  0  0  0  0  0  0  0  0  0
    4.3131    4.5449   12.7439 C   0  0  0  0  0  0  0  0  0  0  0  0
    4.2720    4.8869   13.7776 H   0  0  0  0  0  0  0  0  0  0  0  0
    3.7268    3.6174   12.6643 H   0  0  0  0  0  0  0  0  0  0  0  0
    3.8556    5.3039   12.1090 H   0  0  0  0  0  0  0  0  0  0  0  0
    8.5440    4.0767   13.0225 C   0  0  0  0  0  0  0  0  0  0  0  0
    8.6932    2.9209   12.7152 O   0  0  0  0  0  0  0  0  0  0  0  0
    8.7570    4.5364   14.2631 O   0  0  0  0  0  0  0  0  0  0  0  0
    9.1511    3.5748   15.2305 C   0  0  0  0  0  0  0  0  0  0  0  0
    8.3477    2.8541   15.3978 H   0  0  0  0  0  0  0  0  0  0  0  0
    9.3627    4.1269   16.1424 H   0  0  0  0  0  0  0  0  0  0  0  0
   10.0388    3.0375   14.8907 H   0  0  0  0  0  0  0  0  0  0  0  0
    3.4091    5.3600    9.3826 Cl  0  0  0  0  0  0  0  0  0  0  0  0
    4.2588    1.0251    9.9614 P   0  0  0  0  0  4  0  0  0  0  0  0
    2.6667    0.9187    8.8789 C   0  0  0  0  0  0  0  0  0  0  0  0
    1.6262    1.8655    9.5070 C   0  0  0  0  0  0  0  0  0  0  0  0
    0.8415    2.0733    8.7780 H   0  0  0  0  0  0  0  0  0  0  0  0
    2.0902    2.8372    9.7773 H   0  0  0  0  0  0  0  0  0  0  0  0
    1.1448    1.4517   10.3875 H   0  0  0  0  0  0  0  0  0  0  0  0
    2.0405   -0.4578    8.6662 C   0  0  0  0  0  0  0  0  0  0  0  0
    1.2124   -0.3664    7.9625 H   0  0  0  0  0  0  0  0  0  0  0  0
    1.6382   -0.8621    9.5918 H   0  0  0  0  0  0  0  0  0  0  0  0
    2.7493   -1.1705    8.2558 H   0  0  0  0  0  0  0  0  0  0  0  0
    3.0091    1.5550    7.5236 C   0  0  0  0  0  0  0  0  0  0  0  0
    3.6509    0.9250    6.9166 H   0  0  0  0  0  0  0  0  0  0  0  0
    3.4896    2.5360    7.6684 H   0  0  0  0  0  0  0  0  0  0  0  0
    2.0903    1.7189    6.9590 H   0  0  0  0  0  0  0  0  0  0  0  0
    4.0280   -0.0326   11.5353 C   0  0  0  0  0  0  0  0  0  0  0  0
    2.6801    0.3566   12.1501 C   0  0  0  0  0  0  0  0  0  0  0  0
    2.6315    0.0056   13.1805 H   0  0  0  0  0  0  0  0  0  0  0  0
    1.8460   -0.0902   11.6168 H   0  0  0  0  0  0  0  0  0  0  0  0
    2.5695    1.4437   12.1636 H   0  0  0  0  0  0  0  0  0  0  0  0
    5.0947    0.4253   12.5377 C   0  0  0  0  0  0  0  0  0  0  0  0
    4.8434    0.0578   13.5321 H   0  0  0  0  0  0  0  0  0  0  0  0
    5.1247    1.5136   12.5729 H   0  0  0  0  0  0  0  0  0  0  0  0
    6.0865    0.0625   12.2973 H   0  0  0  0  0  0  0  0  0  0  0  0
    4.0825   -1.5466   11.3522 C   0  0  0  0  0  0  0  0  0  0  0  0
    5.0753   -1.8834   11.0688 H   0  0  0  0  0  0  0  0  0  0  0  0
    3.3721   -1.8880   10.6049 H   0  0  0  0  0  0  0  0  0  0  0  0
    3.8315   -2.0265   12.2983 H   0  0  0  0  0  0  0  0  0  0  0  0
    5.7330    0.3536    8.9297 C   0  0  0  0  0  0  0  0  0  0  0  0
    6.1556    1.4837    7.9698 C   0  0  0  0  0  0  0  0  0  0  0  0
    5.8808    2.4724    8.3668 H   0  0  0  0  0  0  0  0  0  0  0  0
    5.7102    1.3705    6.9858 H   0  0  0  0  0  0  0  0  0  0  0  0
    7.2357    1.4746    7.8376 H   0  0  0  0  0  0  0  0  0  0  0  0
    6.9213    0.0824    9.8592 C   0  0  0  0  0  0  0  0  0  0  0  0
    7.8035   -0.1295    9.2553 H   0  0  0  0  0  0  0  0  0  0  0  0
    6.7521   -0.7840   10.4912 H   0  0  0  0  0  0  0  0  0  0  0  0
    7.1468    0.9439   10.4827 H   0  0  0  0  0  0  0  0  0  0  0  0
    5.4581   -0.9292    8.1430 C   0  0  0  0  0  0  0  0  0  0  0  0
    4.7072   -0.7889    7.3713 H   0  0  0  0  0  0  0  0  0  0  0  0
    5.1403   -1.7381    8.7948 H   0  0  0  0  0  0  0  0  0  0  0  0
    6.3787   -1.2403    7.6491 H   0  0  0  0  0  0  0  0  0  0  0  0
  1  2  1  0  0  0  0
  2  3  1  1  0  0  0
  2  4  1  0  0  0  0
  4 18  1  0  0  0  0
  4  5  1  1  0  0  0
  6  4  1  0  0  0  0
  6  7  1  1  0  0  0
  8  6  1  0  0  0  0
  8  9  1  1  0  0  0
  8 22  1  0  0  0  0
 10  8  1  0  0  0  0
 11 10  1  0  0  0  0
 12 10  1  0  0  0  0
 13 14  1  6  0  0  0
 13 10  1  0  0  0  0
 13  2  1  0  0  0  0
 13 15  1  0  0  0  0
 15  6  1  0  0  0  0
 16 15  1  0  0  0  0
 17 15  1  0  0  0  0
 18 19  1  0  0  0  0
 20 18  1  0  0  0  0
 21 18  1  0  0  0  0
 22 24  1  0  0  0  0
 23 22  2  0  0  0  0
 24 25  1  0  0  0  0
 25 26  1  0  0  0  0
 25 27  1  0  0  0  0
 28 25  1  0  0  0  0
 29  1  1  0  0  0  0
 30  1  1  0  0  0  0
 30 44  1  0  0  0  0
 31 32  1  0  0  0  0
 31 30  1  0  0  0  0
 32 34  1  0  0  0  0
 32 35  1  0  0  0  0
 33 32  1  0  0  0  0
 36 31  1  0  0  0  0
 36 38  1  0  0  0  0
 37 36  1  0  0  0  0
 39 36  1  0  0  0  0
 40 42  1  0  0  0  0
 40 31  1  0  0  0  0
 41 40  1  0  0  0  0
 43 40  1  0  0  0  0
 44 45  1  0  0  0  0
 44 49  1  0  0  0  0
 45 48  1  0  0  0  0
 45 46  1  0  0  0  0
 47 45  1  0  0  0  0
 49 51  1  0  0  0  0
 49 50  1  0  0  0  0
 52 49  1  0  0  0  0
 53 44  1  0  0  0  0
 53 56  1  0  0  0  0
 54 53  1  0  0  0  0
 55 53  1  0  0  0  0
 57 62  1  0  0  0  0
 57 30  1  0  0  0  0
 58 59  1  0  0  0  0
 58 57  1  0  0  0  0
 60 58  1  0  0  0  0
 61 58  1  0  0  0  0
 62 65  1  0  0  0  0
 62 64  1  0  0  0  0
 63 62  1  0  0  0  0
 66 68  1  0  0  0  0
 66 57  1  0  0  0  0
 67 66  1  0  0  0  0
 69 66  1  0  0  0  0
M  END
$$$$
