CSD_code = ROLDEE | q = 0 | S = 0 | Stoichiometry = C16H9BrMnN3O4 | MND = 6
 OpenBabel04212202093D

 34 37  0  0  1  0  0  0  0  0999 V2000
    4.9445    1.8101    8.6972 Br  0  0  0  0  0  0  0  0  0  0  0  0
    6.3571    1.1747    6.7735 Mn  0  0  0  0  0  0  0  0  0  0  0  0
    7.9782    1.5788    8.0043 N   0  0  0  0  0  0  0  0  0  0  0  0
    6.6242    3.1156    6.4953 N   0  0  0  0  0  0  0  0  0  0  0  0
    8.4083   -0.5925    8.4257 O   0  0  0  0  0  0  0  0  0  0  0  0
    8.8541   -1.1982    9.0326 H   0  0  0  0  0  0  0  0  0  0  0  0
    5.7616   -1.5785    7.5952 O   0  0  0  0  0  1  0  0  0  0  0  0
    3.9465    0.6515    5.1816 O   0  0  0  0  0  1  0  0  0  0  0  0
    7.9816    0.3037    4.5032 O   0  0  0  0  0  1  0  0  0  0  0  0
    4.8860    1.0048    5.7396 C   0  0  0  0  0  2  0  0  0  0  0  0
    7.3619    0.6546    5.4073 C   0  0  0  0  0  2  0  0  0  0  0  0
    6.0577   -0.5155    7.2818 C   0  0  0  0  0  2  0  0  0  0  0  0
    8.2235    2.8933    8.1956 C   0  0  2  0  0  3  0  0  0  0  0  0
    5.0623    3.1318    4.8405 N   0  0  0  0  0  0  0  0  0  0  0  0
    8.6595    0.6894    8.7248 C   0  0  0  0  0  0  0  0  0  0  0  0
    7.4613    3.7637    7.3119 C   0  0  0  0  0  0  0  0  0  0  0  0
    5.9484    5.2550    5.5573 C   0  0  0  0  0  0  0  0  0  0  0  0
    5.8815    3.8387    5.6278 C   0  0  0  0  0  0  0  0  0  0  0  0
    6.8388    5.9146    6.4318 C   0  0  0  0  0  0  0  0  0  0  0  0
    6.9102    6.9914    6.4095 H   0  0  0  0  0  0  0  0  0  0  0  0
    9.1329    3.3380    9.1528 C   0  0  0  0  0  0  0  0  0  0  0  0
    9.3009    4.3905    9.3031 H   0  0  0  0  0  0  0  0  0  0  0  0
    9.5770    1.0620    9.7049 C   0  0  0  0  0  0  0  0  0  0  0  0
   10.0894    0.3050   10.2789 H   0  0  0  0  0  0  0  0  0  0  0  0
    9.8044    2.4088    9.9245 C   0  0  0  0  0  0  0  0  0  0  0  0
   10.5007    2.7267   10.6845 H   0  0  0  0  0  0  0  0  0  0  0  0
    7.5878    5.1686    7.2963 C   0  0  0  0  0  0  0  0  0  0  0  0
    8.2710    5.6488    7.9770 H   0  0  0  0  0  0  0  0  0  0  0  0
    4.2878    3.7472    3.9882 C   0  0  0  0  0  0  0  0  0  0  0  0
    3.6433    3.1132    3.3945 H   0  0  0  0  0  0  0  0  0  0  0  0
    4.2746    5.1422    3.8405 C   0  0  0  0  0  0  0  0  0  0  0  0
    3.6146    5.6026    3.1229 H   0  0  0  0  0  0  0  0  0  0  0  0
    5.1093    5.8958    4.6272 C   0  0  0  0  0  3  0  0  0  0  0  0
    5.1332    6.9735    4.5529 H   0  0  0  0  0  0  0  0  0  0  0  0
  2 12  1  0  0  0  0
  2  3  1  0  0  0  0
  2  1  1  0  0  0  0
  3 13  1  0  0  0  0
  3 15  1  0  0  0  0
  4  2  1  0  0  0  0
  4 16  1  0  0  0  0
  5 15  1  0  0  0  0
  5  6  1  0  0  0  0
  8 10  1  0  0  0  0
  9 11  1  0  0  0  0
 10  2  1  0  0  0  0
 11  2  1  0  0  0  0
 12  7  1  0  0  0  0
 13 16  1  6  0  0  0
 13 21  1  0  0  0  0
 14 18  2  0  0  0  0
 15 23  2  0  0  0  0
 17 18  1  0  0  0  0
 17 19  2  0  0  0  0
 18  4  1  0  0  0  0
 19 27  1  0  0  0  0
 20 19  1  0  0  0  0
 21 22  1  0  0  0  0
 21 25  2  0  0  0  0
 23 25  1  0  0  0  0
 23 24  1  0  0  0  0
 25 26  1  0  0  0  0
 27 16  2  0  0  0  0
 27 28  1  0  0  0  0
 29 14  1  0  0  0  0
 30 29  1  0  0  0  0
 31 29  2  0  0  0  0
 31 33  1  0  0  0  0
 32 31  1  0  0  0  0
 33 17  1  0  0  0  0
 34 33  1  0  0  0  0
M  END
$$$$
