CSD_code = ROLMUB | q = 0 | S = 0 | Stoichiometry = C31H26ClCoN6O4 | MND = 6
 OpenBabel04212202093D

 69 75  0  0  0  0  0  0  0  0999 V2000
   12.1307    2.0529    0.0131 C   0  0  0  0  0  0  0  0  0  0  0  0
   13.5274    1.7799    0.2701 C   0  0  0  0  0  0  0  0  0  0  0  0
   11.6152    2.5075   -1.2857 C   0  0  0  0  0  0  0  0  0  0  0  0
   10.6511    3.5099   -1.3423 C   0  0  0  0  0  0  0  0  0  0  0  0
   10.2939    3.9544   -0.4266 H   0  0  0  0  0  0  0  0  0  0  0  0
   10.1646    3.9368   -2.5638 C   0  0  0  0  0  0  0  0  0  0  0  0
    9.4216    4.7198   -2.5998 H   0  0  0  0  0  0  0  0  0  0  0  0
   10.6268    3.3648   -3.7370 C   0  0  0  0  0  0  0  0  0  0  0  0
   10.2456    3.6998   -4.6906 H   0  0  0  0  0  0  0  0  0  0  0  0
   11.5755    2.3565   -3.6854 C   0  0  0  0  0  0  0  0  0  0  0  0
   11.9323    1.9014   -4.5980 H   0  0  0  0  0  0  0  0  0  0  0  0
   12.0683    1.9263   -2.4684 C   0  0  0  0  0  0  0  0  0  0  0  0
   12.7998    1.1324   -2.4310 H   0  0  0  0  0  0  0  0  0  0  0  0
   14.5930    2.0807   -0.6940 C   0  0  0  0  0  0  0  0  0  0  0  0
   14.5896    3.3030   -1.3651 C   0  0  0  0  0  0  0  0  0  0  0  0
   13.8134    4.0232   -1.1568 H   0  0  0  0  0  0  0  0  0  0  0  0
   15.5860    3.5979   -2.2748 C   0  0  0  0  0  0  0  0  0  0  0  0
   15.5764    4.5476   -2.7891 H   0  0  0  0  0  0  0  0  0  0  0  0
   16.5960    2.6829   -2.5260 C   0  0  0  0  0  0  0  0  0  0  0  0
   17.3715    2.9149   -3.2413 H   0  0  0  0  0  0  0  0  0  0  0  0
   16.6131    1.4746   -1.8508 C   0  0  0  0  0  0  0  0  0  0  0  0
   17.4043    0.7624   -2.0361 H   0  0  0  0  0  0  0  0  0  0  0  0
   15.6206    1.1736   -0.9363 C   0  0  0  0  0  0  0  0  0  0  0  0
   15.6397    0.2336   -0.4067 H   0  0  0  0  0  0  0  0  0  0  0  0
   10.9682    0.8261    4.9580 C   0  0  0  0  0  0  0  0  0  0  0  0
   12.3761    0.5685    5.2264 C   0  0  0  0  0  0  0  0  0  0  0  0
    9.9496    0.7155    6.0133 C   0  0  0  0  0  0  0  0  0  0  0  0
    9.0065    1.7237    6.1923 C   0  0  0  0  0  0  0  0  0  0  0  0
    9.0315    2.5958    5.5577 H   0  0  0  0  0  0  0  0  0  0  0  0
    8.0561    1.6117    7.1901 C   0  0  0  0  0  0  0  0  0  0  0  0
    7.3321    2.4004    7.3297 H   0  0  0  0  0  0  0  0  0  0  0  0
    8.0293    0.4932    8.0062 C   0  0  0  0  0  0  0  0  0  0  0  0
    7.2843    0.4073    8.7832 H   0  0  0  0  0  0  0  0  0  0  0  0
    8.9572   -0.5190    7.8220 C   0  0  0  0  0  0  0  0  0  0  0  0
    8.9350   -1.3962    8.4518 H   0  0  0  0  0  0  0  0  0  0  0  0
    9.9159   -0.4105    6.8332 C   0  0  0  0  0  0  0  0  0  0  0  0
   10.6335   -1.2043    6.6853 H   0  0  0  0  0  0  0  0  0  0  0  0
   12.8631    0.3301    6.5930 C   0  0  0  0  0  0  0  0  0  0  0  0
   12.4744    1.1803    7.6263 C   0  0  0  0  0  0  0  0  0  0  0  0
   11.8379    2.0252    7.4129 H   0  0  0  0  0  0  0  0  0  0  0  0
   12.9248    0.9566    8.9131 C   0  0  0  0  0  0  0  0  0  0  0  0
   12.6230    1.6218    9.7082 H   0  0  0  0  0  0  0  0  0  0  0  0
   13.7599   -0.1154    9.1838 C   0  0  0  0  0  0  0  0  0  0  0  0
   14.1057   -0.2906   10.1917 H   0  0  0  0  0  0  0  0  0  0  0  0
   14.1570   -0.9567    8.1584 C   0  0  0  0  0  0  0  0  0  0  0  0
   14.8145   -1.7885    8.3642 H   0  0  0  0  0  0  0  0  0  0  0  0
   13.7169   -0.7347    6.8668 C   0  0  0  0  0  0  0  0  0  0  0  0
   14.0279   -1.3916    6.0687 H   0  0  0  0  0  0  0  0  0  0  0  0
   10.7965   -1.2959    1.6086 C   0  0  0  0  0  0  0  0  0  0  0  0
    9.8714   -0.7559    1.5761 H   0  0  0  0  0  0  0  0  0  0  0  0
   11.0430   -2.6001    1.3038 C   0  0  0  0  0  0  0  0  0  0  0  0
   10.3897   -3.3825    0.9801 H   0  0  0  0  0  0  0  0  0  0  0  0
   12.9039   -1.6171    1.8909 C   0  0  0  0  0  3  0  0  0  0  0  0
   13.9450   -1.4596    2.0993 H   0  0  0  0  0  0  0  0  0  0  0  0
   11.3567    1.7623    1.0169 N   0  0  0  0  0  0  0  0  0  0  0  0
   13.7327    1.2489    1.4397 N   0  0  0  0  0  0  0  0  0  0  0  0
   10.7070    1.1110    3.7260 N   0  0  0  0  0  0  0  0  0  0  0  0
   13.1250    0.5963    4.1746 N   0  0  0  0  0  0  0  0  0  0  0  0
   11.9662   -0.6986    1.9730 N   0  0  0  0  0  0  0  0  0  0  0  0
   12.3818   -2.7865    1.4879 N   0  0  0  0  0  0  0  0  0  0  0  0
   10.0740    1.8111    0.9714 O   0  0  0  0  0  1  0  0  0  0  0  0
   14.8745    0.8196    1.8509 O   0  0  0  0  0  1  0  0  0  0  0  0
    9.4360    1.3231    3.3481 O   0  0  0  0  0  0  0  0  0  0  0  0
   14.4469    0.3701    4.2900 O   0  0  0  0  0  0  0  0  0  0  0  0
   12.2336    1.1562    2.5287 Co  0  0  0  0  0  0  0  0  0  0  0  0
   12.5579    3.2276    3.1053 Cl  0  0  0  0  0  0  0  0  0  0  0  0
   14.8140    0.5765    3.3328 H   0  0  0  0  0  0  0  0  0  0  0  0
    9.5237    1.5877    2.3342 H   0  0  0  0  0  0  0  0  0  0  0  0
   12.8886   -3.6448    1.3429 H   0  0  0  0  0  0  0  0  0  0  0  0
  1  2  2  0  0  0  0
  1 55  1  0  0  0  0
  2 56  1  0  0  0  0
  3  1  1  0  0  0  0
  4  3  1  0  0  0  0
  4  5  1  0  0  0  0
  6  4  2  0  0  0  0
  7  6  1  0  0  0  0
  8 10  2  0  0  0  0
  8  6  1  0  0  0  0
  9  8  1  0  0  0  0
 10 12  1  0  0  0  0
 11 10  1  0  0  0  0
 12 13  1  0  0  0  0
 12  3  2  0  0  0  0
 14  2  1  0  0  0  0
 15 16  1  0  0  0  0
 15 14  2  0  0  0  0
 17 15  1  0  0  0  0
 18 17  1  0  0  0  0
 19 17  2  0  0  0  0
 19 21  1  0  0  0  0
 20 19  1  0  0  0  0
 21 23  2  0  0  0  0
 22 21  1  0  0  0  0
 23 14  1  0  0  0  0
 23 24  1  0  0  0  0
 25 26  2  0  0  0  0
 25 27  1  0  0  0  0
 26 38  1  0  0  0  0
 27 28  2  0  0  0  0
 27 36  1  0  0  0  0
 28 30  1  0  0  0  0
 29 28  1  0  0  0  0
 30 31  1  0  0  0  0
 30 32  2  0  0  0  0
 32 33  1  0  0  0  0
 34 32  1  0  0  0  0
 34 35  1  0  0  0  0
 36 34  2  0  0  0  0
 37 36  1  0  0  0  0
 38 47  2  0  0  0  0
 38 39  1  0  0  0  0
 39 41  2  0  0  0  0
 40 39  1  0  0  0  0
 41 43  1  0  0  0  0
 41 42  1  0  0  0  0
 43 44  1  0  0  0  0
 45 46  1  0  0  0  0
 45 43  2  0  0  0  0
 47 45  1  0  0  0  0
 48 47  1  0  0  0  0
 49 59  1  0  0  0  0
 50 49  1  0  0  0  0
 51 60  1  0  0  0  0
 51 49  2  0  0  0  0
 52 51  1  0  0  0  0
 53 59  1  0  0  0  0
 53 54  1  0  0  0  0
 55 65  1  0  0  0  0
 56 62  1  0  0  0  0
 56 65  1  0  0  0  0
 57 25  1  0  0  0  0
 58 64  1  0  0  0  0
 58 26  1  0  0  0  0
 59 65  1  0  0  0  0
 60 53  1  0  0  0  0
 61 55  1  0  0  0  0
 63 57  1  0  0  0  0
 65 66  1  0  0  0  0
 65 57  1  0  0  0  0
 65 58  1  0  0  0  0
 67 64  1  0  0  0  0
 68 63  1  0  0  0  0
 69 60  1  0  0  0  0
M  END
$$$$
