CSD_code = ROLTES | q = 0 | S = 0 | Stoichiometry = C19H20Cl2CuIN2 | MND = 3
 OpenBabel04212202093D

 45 47  0  0  0  0  0  0  0  0999 V2000
    1.6715    0.0000    4.0796 I   0  0  0  0  0  0  0  0  0  0  0  0
    3.9541    0.0000    5.0312 Cu  0  0  0  0  0  0  0  0  0  0  0  0
    6.3633    3.9047   -0.3941 Cl  0  0  0  0  0  0  0  0  0  0  0  0
    4.9645    1.4555    5.8099 N   0  0  0  0  0  0  0  0  0  0  0  0
    5.1314    2.0545    2.9011 C   0  0  0  0  0  0  0  0  0  0  0  0
    4.4555    1.2546    3.1605 H   0  0  0  0  0  0  0  0  0  0  0  0
    5.2923    2.4125    1.5806 C   0  0  0  0  0  0  0  0  0  0  0  0
    4.7529    1.8928    0.8049 H   0  0  0  0  0  0  0  0  0  0  0  0
    6.1488    3.4564    1.2549 C   0  0  0  0  0  0  0  0  0  0  0  0
    6.8349    4.1450    2.2475 C   0  0  0  0  0  0  0  0  0  0  0  0
    7.4925    4.9579    1.9822 H   0  0  0  0  0  0  0  0  0  0  0  0
    6.6620    3.7839    3.5663 C   0  0  0  0  0  0  0  0  0  0  0  0
    7.1907    4.3248    4.3381 H   0  0  0  0  0  0  0  0  0  0  0  0
    5.8105    2.7295    3.9199 C   0  0  0  0  0  0  0  0  0  0  0  0
    5.6645    2.4054    5.3186 C   0  0  0  0  0  3  0  0  0  0  0  0
    6.2107    3.0666    6.0012 H   0  0  0  0  0  0  0  0  0  0  0  0
    4.9319    1.2832    7.2372 C   0  0  0  0  0  0  0  0  0  0  0  0
    3.8821    1.2358    7.5460 H   0  0  0  0  0  0  0  0  0  0  0  0
    5.4007    2.1428    7.7397 H   0  0  0  0  0  0  0  0  0  0  0  0
    5.6508    0.0000    7.7150 C   0  0  0  0  0  0  0  0  0  0  0  0
    7.0992    0.0000    7.2208 C   0  0  0  0  0  0  0  0  0  0  0  0
    7.1440    0.0000    6.1324 H   0  0  0  0  0  0  0  0  0  0  0  0
    7.6228   -0.8814    7.5854 H   0  0  0  0  0  0  0  0  0  0  0  0
    5.6271   -0.0000    9.2461 C   0  0  0  0  0  0  0  0  0  0  0  0
    4.6045   -0.0000    9.6172 H   0  0  0  0  0  0  0  0  0  0  0  0
    6.1331    0.8805    9.6351 H   0  0  0  0  0  0  0  0  0  0  0  0
    6.3633   -3.9047   -0.3941 Cl  0  0  0  0  0  0  0  0  0  0  0  0
    4.9645   -1.4555    5.8099 N   0  0  0  0  0  0  0  0  0  0  0  0
    5.1314   -2.0545    2.9011 C   0  0  0  0  0  0  0  0  0  0  0  0
    4.4555   -1.2546    3.1605 H   0  0  0  0  0  0  0  0  0  0  0  0
    5.2923   -2.4125    1.5806 C   0  0  0  0  0  0  0  0  0  0  0  0
    4.7529   -1.8928    0.8049 H   0  0  0  0  0  0  0  0  0  0  0  0
    6.1488   -3.4564    1.2549 C   0  0  0  0  0  0  0  0  0  0  0  0
    6.8349   -4.1450    2.2475 C   0  0  0  0  0  0  0  0  0  0  0  0
    7.4925   -4.9579    1.9822 H   0  0  0  0  0  0  0  0  0  0  0  0
    6.6620   -3.7839    3.5663 C   0  0  0  0  0  0  0  0  0  0  0  0
    7.1907   -4.3248    4.3381 H   0  0  0  0  0  0  0  0  0  0  0  0
    5.8105   -2.7295    3.9199 C   0  0  0  0  0  0  0  0  0  0  0  0
    5.6645   -2.4054    5.3186 C   0  0  0  0  0  3  0  0  0  0  0  0
    6.2107   -3.0666    6.0012 H   0  0  0  0  0  0  0  0  0  0  0  0
    4.9319   -1.2832    7.2372 C   0  0  0  0  0  0  0  0  0  0  0  0
    3.8821   -1.2358    7.5460 H   0  0  0  0  0  0  0  0  0  0  0  0
    5.4007   -2.1428    7.7397 H   0  0  0  0  0  0  0  0  0  0  0  0
    7.6228    0.8814    7.5854 H   0  0  0  0  0  0  0  0  0  0  0  0
    6.1331   -0.8805    9.6351 H   0  0  0  0  0  0  0  0  0  0  0  0
  1  2  1  0  0  0  0
  2  4  1  0  0  0  0
  2 28  1  0  0  0  0
  3  9  1  0  0  0  0
  4 17  1  0  0  0  0
  5  6  1  0  0  0  0
  5 14  1  0  0  0  0
  7  5  2  0  0  0  0
  8  7  1  0  0  0  0
  9  7  1  0  0  0  0
  9 10  2  0  0  0  0
 10 12  1  0  0  0  0
 11 10  1  0  0  0  0
 12 14  2  0  0  0  0
 12 13  1  0  0  0  0
 14 15  1  0  0  0  0
 15  4  1  0  0  0  0
 15 16  1  0  0  0  0
 17 18  1  0  0  0  0
 17 20  1  0  0  0  0
 17 19  1  0  0  0  0
 20 24  1  0  0  0  0
 21 44  1  0  0  0  0
 21 23  1  0  0  0  0
 21 20  1  0  0  0  0
 22 21  1  0  0  0  0
 24 25  1  0  0  0  0
 24 45  1  0  0  0  0
 24 26  1  0  0  0  0
 27 33  1  0  0  0  0
 28 41  1  0  0  0  0
 29 30  1  0  0  0  0
 29 38  1  0  0  0  0
 31 29  2  0  0  0  0
 32 31  1  0  0  0  0
 33 31  1  0  0  0  0
 33 34  2  0  0  0  0
 34 36  1  0  0  0  0
 35 34  1  0  0  0  0
 36 38  2  0  0  0  0
 36 37  1  0  0  0  0
 38 39  1  0  0  0  0
 39 28  1  0  0  0  0
 39 40  1  0  0  0  0
 41 42  1  0  0  0  0
 41 20  1  0  0  0  0
 41 43  1  0  0  0  0
M  END
$$$$
