CSD_code = ROMQOZ | q = 0 | S = 0 | Stoichiometry = C17H31Cl2OsP | MND = 9
 OpenBabel04212202093D

 52 49  0  0  1  0  0  0  0  0999 V2000
    3.0331   11.6566    2.9467 Os  0  0  0  0  0  0  0  0  0  0  0  0
    4.9242   10.0995    3.1433 P   0  0  0  0  0  0  0  0  0  0  0  0
    3.4579   11.0982    0.7180 Cl  0  0  0  0  0 15  0  0  0  0  0  0
    2.9117   13.8091    2.1332 Cl  0  0  0  0  0 15  0  0  0  0  0  0
    2.2970   12.7111    4.7355 C   0  0  0  0  0  3  0  0  0  0  0  0
    2.6750   11.4351    5.1373 C   0  0  0  0  0  3  0  0  0  0  0  0
    1.6651   10.3611    5.5064 C   0  0  0  0  0  0  0  0  0  0  0  0
    1.2762    9.4694    4.3138 C   0  0  0  0  0  0  0  0  0  0  0  0
    1.4809   10.1592    2.9810 C   0  0  0  0  0  3  0  0  0  0  0  0
    0.9112   11.4293    2.6810 C   0  0  1  0  0  0  0  0  0  0  0  0
    0.0406   12.1853    3.6687 C   0  0  0  0  0  0  0  0  0  0  0  0
    0.8634   13.1518    4.5396 C   0  0  0  0  0  0  0  0  0  0  0  0
    6.0073   11.5172    2.6679 C   0  0  0  0  0  0  0  0  0  0  0  0
    5.9977   12.5795    3.4763 C   0  0  0  0  0  0  0  0  0  0  0  0
    6.7303   11.5275    1.3602 C   0  0  0  0  0  0  0  0  0  0  0  0
    5.7136    9.6476    4.7974 C   0  0  0  0  0  0  0  0  0  0  0  0
    7.2382    9.5804    4.8463 C   0  0  0  0  0  0  0  0  0  0  0  0
    5.0743    8.3912    5.3770 C   0  0  0  0  0  0  0  0  0  0  0  0
    5.3109    8.7418    1.9151 C   0  0  0  0  0  0  0  0  0  0  0  0
    6.6425    8.0159    2.0732 C   0  0  0  0  0  0  0  0  0  0  0  0
    4.1546    7.7430    1.9037 C   0  0  0  0  0  0  0  0  0  0  0  0
    2.9643   13.5382    4.9743 H   0  0  0  0  0  0  0  0  0  0  0  0
    3.6091   11.3578    5.6883 H   0  0  0  0  0  0  0  0  0  0  0  0
    2.0864    9.7382    6.2975 H   0  0  0  0  0  0  0  0  0  0  0  0
    0.7799   10.8464    5.9192 H   0  0  0  0  0  0  0  0  0  0  0  0
    0.2318    9.1526    4.3986 H   0  0  0  0  0  0  0  0  0  0  0  0
    1.8870    8.5642    4.3187 H   0  0  0  0  0  0  0  0  0  0  0  0
    1.5326    9.4569    2.1474 H   0  0  0  0  0  0  0  0  0  0  0  0
    0.6571   11.6085    1.6341 H   0  0  0  0  0  0  0  0  0  0  0  0
   -0.7013   12.7614    3.1152 H   0  0  0  0  0  0  0  0  0  0  0  0
   -0.4987   11.4671    4.2885 H   0  0  0  0  0  0  0  0  0  0  0  0
    0.8897   14.1250    4.0488 H   0  0  0  0  0  0  0  0  0  0  0  0
    0.3919   13.2843    5.5193 H   0  0  0  0  0  0  0  0  0  0  0  0
    6.5476   13.4764    3.2346 H   0  0  0  0  0  0  0  0  0  0  0  0
    5.4796   12.5926    4.4257 H   0  0  0  0  0  0  0  0  0  0  0  0
    6.0099   11.4404    0.5456 H   0  0  0  0  0  0  0  0  0  0  0  0
    7.2743   12.4627    1.2392 H   0  0  0  0  0  0  0  0  0  0  0  0
    7.4305   10.6984    1.2850 H   0  0  0  0  0  0  0  0  0  0  0  0
    5.4213   10.4916    5.4349 H   0  0  0  0  0  0  0  0  0  0  0  0
    7.5648    9.6805    5.8811 H   0  0  0  0  0  0  0  0  0  0  0  0
    7.6151    8.6336    4.4750 H   0  0  0  0  0  0  0  0  0  0  0  0
    7.6871   10.3897    4.2738 H   0  0  0  0  0  0  0  0  0  0  0  0
    5.3595    8.2719    6.4215 H   0  0  0  0  0  0  0  0  0  0  0  0
    5.3968    7.5028    4.8397 H   0  0  0  0  0  0  0  0  0  0  0  0
    3.9895    8.4554    5.3211 H   0  0  0  0  0  0  0  0  0  0  0  0
    5.3014    9.2610    0.9516 H   0  0  0  0  0  0  0  0  0  0  0  0
    7.4775    8.7034    2.1761 H   0  0  0  0  0  0  0  0  0  0  0  0
    6.8154    7.4104    1.1841 H   0  0  0  0  0  0  0  0  0  0  0  0
    6.6288    7.3449    2.9286 H   0  0  0  0  0  0  0  0  0  0  0  0
    4.0200    7.2701    2.8742 H   0  0  0  0  0  0  0  0  0  0  0  0
    3.2355    8.2516    1.6273 H   0  0  0  0  0  0  0  0  0  0  0  0
    4.3470    6.9644    1.1680 H   0  0  0  0  0  0  0  0  0  0  0  0
  2 16  1  0  0  0  0
  5 22  1  0  0  0  0
  5  6  1  0  0  0  0
  6  7  1  0  0  0  0
  6 23  1  0  0  0  0
  7 25  1  0  0  0  0
  7 24  1  0  0  0  0
  8 27  1  0  0  0  0
  8 26  1  0  0  0  0
  8  7  1  0  0  0  0
  9  8  1  0  0  0  0
 10 29  1  6  0  0  0
 10  1  1  0  0  0  0
 10  9  1  0  0  0  0
 10 11  1  0  0  0  0
 11 31  1  0  0  0  0
 11 12  1  0  0  0  0
 12  5  1  0  0  0  0
 12 33  1  0  0  0  0
 13  2  1  0  0  0  0
 13 14  2  0  0  0  0
 14 35  1  0  0  0  0
 15 13  1  0  0  0  0
 16 17  1  0  0  0  0
 16 18  1  0  0  0  0
 16 39  1  0  0  0  0
 17 40  1  0  0  0  0
 18 43  1  0  0  0  0
 19 20  1  0  0  0  0
 19  2  1  0  0  0  0
 20 47  1  0  0  0  0
 20 49  1  0  0  0  0
 21 19  1  0  0  0  0
 21 50  1  0  0  0  0
 28  9  1  0  0  0  0
 30 11  1  0  0  0  0
 32 12  1  0  0  0  0
 34 14  1  0  0  0  0
 36 15  1  0  0  0  0
 37 15  1  0  0  0  0
 38 15  1  0  0  0  0
 41 17  1  0  0  0  0
 42 17  1  0  0  0  0
 44 18  1  0  0  0  0
 45 18  1  0  0  0  0
 46 19  1  0  0  0  0
 48 20  1  0  0  0  0
 51 21  1  0  0  0  0
 52 21  1  0  0  0  0
M  END
$$$$
