CSD_code = ROMVUK | q = 0 | S = 0 | Stoichiometry = C24H28Cl2F2OP2Pt | MND = 4
 OpenBabel04212202093D

 60 62  0  0  0  0  0  0  0  0999 V2000
    0.1857    2.2465    3.2940 Pt  0  0  0  0  0  0  0  0  0  0  0  0
    0.8151    4.4153    3.5370 P   0  0  0  0  0  4  0  0  0  0  0  0
    2.1291    1.0987    3.0940 P   0  0  0  0  0  4  0  0  0  0  0  0
   -0.9876    0.2938    3.1733 Cl  0  0  0  0  0  0  0  0  0  0  0  0
   -1.6914    3.6259    3.4232 Cl  0  0  0  0  0  0  0  0  0  0  0  0
    2.4966    4.6004    3.5087 O   0  0  0  0  0  0  0  0  0  0  0  0
    3.1640    4.4133    6.1477 F   0  0  0  0  0  0  0  0  0  0  0  0
    3.3712    6.8437    2.1190 F   0  0  0  0  0  0  0  0  0  0  0  0
    2.0102   -0.7035    2.7591 C   0  0  0  0  0  0  0  0  0  0  0  0
    3.3334   -1.4380    2.5900 C   0  0  0  0  0  0  0  0  0  0  0  0
    3.2092    1.2583    4.5709 C   0  0  0  0  0  0  0  0  0  0  0  0
    2.4797    0.7201    5.7968 C   0  0  0  0  0  0  0  0  0  0  0  0
    3.1341    1.7900    1.7180 C   0  0  0  0  0  0  0  0  0  0  0  0
    2.2894    1.8258    0.4488 C   0  0  0  0  0  0  0  0  0  0  0  0
    3.2050    5.5883    4.1104 C   0  0  0  0  0  0  0  0  0  0  0  0
    3.5580    5.5015    5.4593 C   0  0  0  0  0  0  0  0  0  0  0  0
    4.2969    6.4752    6.1006 C   0  0  0  0  0  0  0  0  0  0  0  0
    4.7152    7.5850    5.3875 C   0  0  0  0  0  0  0  0  0  0  0  0
    4.4040    7.7041    4.0449 C   0  0  0  0  0  0  0  0  0  0  0  0
    3.6609    6.7160    3.4264 C   0  0  0  0  0  0  0  0  0  0  0  0
    0.4432    5.1128    5.1709 C   0  0  0  0  0  0  0  0  0  0  0  0
    0.0463    4.2383    6.1741 C   0  0  0  0  0  0  0  0  0  0  0  0
   -0.1675    4.7062    7.4563 C   0  0  0  0  0  0  0  0  0  0  0  0
    0.0238    6.0491    7.7414 C   0  0  0  0  0  0  0  0  0  0  0  0
    0.4282    6.9222    6.7451 C   0  0  0  0  0  0  0  0  0  0  0  0
    0.6428    6.4579    5.4589 C   0  0  0  0  0  0  0  0  0  0  0  0
    0.3243    5.6650    2.3112 C   0  0  0  0  0  0  0  0  0  0  0  0
    0.9557    5.6237    1.0736 C   0  0  0  0  0  0  0  0  0  0  0  0
    0.5849    6.5065    0.0766 C   0  0  0  0  0  0  0  0  0  0  0  0
   -0.4256    7.4246    0.3094 C   0  0  0  0  0  0  0  0  0  0  0  0
   -1.0702    7.4526    1.5358 C   0  0  0  0  0  0  0  0  0  0  0  0
   -0.7045    6.5710    2.5364 C   0  0  0  0  0  0  0  0  0  0  0  0
    1.3892   -0.8079    1.8661 H   0  0  0  0  0  0  0  0  0  0  0  0
    1.4315   -1.1256    3.5841 H   0  0  0  0  0  0  0  0  0  0  0  0
    3.1398   -2.4943    2.4147 H   0  0  0  0  0  0  0  0  0  0  0  0
    3.9512   -1.3548    3.4810 H   0  0  0  0  0  0  0  0  0  0  0  0
    3.8954   -1.0570    1.7406 H   0  0  0  0  0  0  0  0  0  0  0  0
    3.4053    2.3245    4.6961 H   0  0  0  0  0  0  0  0  0  0  0  0
    4.1626    0.7500    4.4107 H   0  0  0  0  0  0  0  0  0  0  0  0
    2.9741    1.0365    6.7121 H   0  0  0  0  0  0  0  0  0  0  0  0
    2.4347   -0.3664    5.7821 H   0  0  0  0  0  0  0  0  0  0  0  0
    1.4565    1.1026    5.8055 H   0  0  0  0  0  0  0  0  0  0  0  0
    4.0493    1.2113    1.5757 H   0  0  0  0  0  0  0  0  0  0  0  0
    3.4114    2.8037    2.0152 H   0  0  0  0  0  0  0  0  0  0  0  0
    2.1173    0.8221    0.0666 H   0  0  0  0  0  0  0  0  0  0  0  0
    2.7742    2.4114   -0.3297 H   0  0  0  0  0  0  0  0  0  0  0  0
    1.3156    2.2746    0.6710 H   0  0  0  0  0  0  0  0  0  0  0  0
    4.5317    6.3515    7.1451 H   0  0  0  0  0  0  0  0  0  0  0  0
    5.2891    8.3548    5.8770 H   0  0  0  0  0  0  0  0  0  0  0  0
    4.7253    8.5537    3.4642 H   0  0  0  0  0  0  0  0  0  0  0  0
   -0.1035    3.1914    5.9285 H   0  0  0  0  0  0  0  0  0  0  0  0
   -0.4810    4.0266    8.2342 H   0  0  0  0  0  0  0  0  0  0  0  0
   -0.1425    6.4174    8.7429 H   0  0  0  0  0  0  0  0  0  0  0  0
    0.5792    7.9685    6.9678 H   0  0  0  0  0  0  0  0  0  0  0  0
    0.9590    7.1420    4.6818 H   0  0  0  0  0  0  0  0  0  0  0  0
    1.7424    4.9018    0.9046 H   0  0  0  0  0  0  0  0  0  0  0  0
    1.0795    6.4748   -0.8827 H   0  0  0  0  0  0  0  0  0  0  0  0
   -0.7192    8.1134   -0.4690 H   0  0  0  0  0  0  0  0  0  0  0  0
   -1.8685    8.1588    1.7114 H   0  0  0  0  0  0  0  0  0  0  0  0
   -1.2271    6.5699    3.4818 H   0  0  0  0  0  0  0  0  0  0  0  0
  1  5  1  0  0  0  0
  1  2  1  0  0  0  0
  2 21  1  0  0  0  0
  3  1  1  0  0  0  0
  3 11  1  0  0  0  0
  4  1  1  0  0  0  0
  6  2  1  0  0  0  0
  6 15  1  0  0  0  0
  8 20  1  0  0  0  0
  9  3  1  0  0  0  0
  9 34  1  0  0  0  0
 10  9  1  0  0  0  0
 10 36  1  0  0  0  0
 11 38  1  0  0  0  0
 11 12  1  0  0  0  0
 12 42  1  0  0  0  0
 12 40  1  0  0  0  0
 13 44  1  0  0  0  0
 13  3  1  0  0  0  0
 14 47  1  0  0  0  0
 14 13  1  0  0  0  0
 15 16  1  0  0  0  0
 16 17  2  0  0  0  0
 16  7  1  0  0  0  0
 17 48  1  0  0  0  0
 18 49  1  0  0  0  0
 18 17  1  0  0  0  0
 19 18  2  0  0  0  0
 20 19  1  0  0  0  0
 20 15  2  0  0  0  0
 21 26  2  0  0  0  0
 21 22  1  0  0  0  0
 22 23  2  0  0  0  0
 23 24  1  0  0  0  0
 23 52  1  0  0  0  0
 24 53  1  0  0  0  0
 25 54  1  0  0  0  0
 25 24  2  0  0  0  0
 26 25  1  0  0  0  0
 27 32  1  0  0  0  0
 27  2  1  0  0  0  0
 28 27  2  0  0  0  0
 29 30  2  0  0  0  0
 29 28  1  0  0  0  0
 30 31  1  0  0  0  0
 31 59  1  0  0  0  0
 31 32  2  0  0  0  0
 32 60  1  0  0  0  0
 33  9  1  0  0  0  0
 35 10  1  0  0  0  0
 37 10  1  0  0  0  0
 39 11  1  0  0  0  0
 41 12  1  0  0  0  0
 43 13  1  0  0  0  0
 45 14  1  0  0  0  0
 46 14  1  0  0  0  0
 50 19  1  0  0  0  0
 51 22  1  0  0  0  0
 55 26  1  0  0  0  0
 56 28  1  0  0  0  0
 57 29  1  0  0  0  0
 58 30  1  0  0  0  0
M  END
$$$$
