CSD_code = RONCED | q = 0 | S = 0 | Stoichiometry = C22H42ClO2PPd | MND = 3
 OpenBabel04212202093D

 69 70  0  0  1  0  0  0  0  0999 V2000
    9.8634    3.5731   10.0153 Pd  0  0  0  0  0  0  0  0  0  0  0  0
    9.8895    5.3281    8.5753 Cl  0  0  0  0  0  0  0  0  0  0  0  0
    8.8790    1.9667   11.3055 P   0  0  0  0  0  4  0  0  0  0  0  0
   11.7124    3.7590   10.9208 C   0  0  1  0  0  0  0  0  0  0  0  0
   11.5977    3.2353   11.8743 H   0  0  0  0  0  0  0  0  0  0  0  0
   12.8386    3.1365   10.0763 C   0  0  2  0  0  0  0  0  0  0  0  0
   13.2626    2.2652   10.5884 H   0  0  0  0  0  0  0  0  0  0  0  0
   13.8666    4.2801   10.0321 C   0  0  2  0  0  0  0  0  0  0  0  0
   14.6392    4.1416    9.2776 H   0  0  0  0  0  0  0  0  0  0  0  0
   14.4213    4.4667   11.4544 C   0  0  0  0  0  0  0  0  0  0  0  0
   15.3375    5.0565   11.4482 H   0  0  0  0  0  0  0  0  0  0  0  0
   14.6294    3.5110   11.9360 H   0  0  0  0  0  0  0  0  0  0  0  0
   13.2928    5.2181   12.1903 C   0  0  1  0  0  0  0  0  0  0  0  0
   13.5605    6.2590   12.3852 H   0  0  0  0  0  0  0  0  0  0  0  0
   12.1513    5.2065   11.1298 C   0  0  1  0  0  0  0  0  0  0  0  0
   11.3467    5.9049   11.3717 H   0  0  0  0  0  0  0  0  0  0  0  0
   12.9752    5.5090    9.8779 C   0  0  0  0  0  0  0  0  0  0  0  0
   13.5213    6.4481    9.9472 H   0  0  0  0  0  0  0  0  0  0  0  0
   12.3718    5.5078    8.9756 H   0  0  0  0  0  0  0  0  0  0  0  0
   12.3918    2.6888    8.6773 C   0  0  0  0  0  0  0  0  0  0  0  0
   11.9994    3.5315    8.1054 H   0  0  0  0  0  0  0  0  0  0  0  0
   11.6112    1.9184    8.7574 H   0  0  0  0  0  0  0  0  0  0  0  0
   13.2344    2.2645    8.1328 H   0  0  0  0  0  0  0  0  0  0  0  0
   12.8852    4.6129   13.5026 C   0  0  0  0  0  0  0  0  0  0  0  0
   12.8757    3.4370   13.7742 O   0  0  0  0  0  0  0  0  0  0  0  0
   12.4896    5.5712   14.3520 O   0  0  0  0  0  0  0  0  0  0  0  0
   12.0170    5.1792   15.6329 C   0  0  0  0  0  0  0  0  0  0  0  0
   11.9617    4.0902   15.6912 H   0  0  0  0  0  0  0  0  0  0  0  0
   11.0312    5.6214   15.7779 H   0  0  0  0  0  0  0  0  0  0  0  0
   12.7050    5.5570   16.3904 H   0  0  0  0  0  0  0  0  0  0  0  0
    7.2395    2.1010   10.2964 C   0  0  0  0  0  0  0  0  0  0  0  0
    7.6149    2.0465    8.8030 C   0  0  0  0  0  0  0  0  0  0  0  0
    8.4876    2.6975    8.5901 H   0  0  0  0  0  0  0  0  0  0  0  0
    7.8345    1.0431    8.4528 H   0  0  0  0  0  0  0  0  0  0  0  0
    6.7793    2.4198    8.2089 H   0  0  0  0  0  0  0  0  0  0  0  0
    6.1427    1.0769   10.5809 C   0  0  0  0  0  0  0  0  0  0  0  0
    5.8553    1.0648   11.6278 H   0  0  0  0  0  0  0  0  0  0  0  0
    6.4462    0.0736   10.2932 H   0  0  0  0  0  0  0  0  0  0  0  0
    5.2592    1.3317    9.9947 H   0  0  0  0  0  0  0  0  0  0  0  0
    6.6971    3.5212   10.5160 C   0  0  0  0  0  0  0  0  0  0  0  0
    5.9081    3.7241    9.7905 H   0  0  0  0  0  0  0  0  0  0  0  0
    7.4923    4.2682   10.3587 H   0  0  0  0  0  0  0  0  0  0  0  0
    6.2664    3.6548   11.5033 H   0  0  0  0  0  0  0  0  0  0  0  0
    8.5365    2.5928   13.0921 C   0  0  0  0  0  0  0  0  0  0  0  0
    9.6818    2.1657   14.0170 C   0  0  0  0  0  0  0  0  0  0  0  0
    9.5423    2.6372   14.9905 H   0  0  0  0  0  0  0  0  0  0  0  0
   10.6486    2.4807   13.6328 H   0  0  0  0  0  0  0  0  0  0  0  0
    9.6944    1.0934   14.1840 H   0  0  0  0  0  0  0  0  0  0  0  0
    7.2286    2.1084   13.7213 C   0  0  0  0  0  0  0  0  0  0  0  0
    7.1762    1.0239   13.7496 H   0  0  0  0  0  0  0  0  0  0  0  0
    6.3541    2.4867   13.2007 H   0  0  0  0  0  0  0  0  0  0  0  0
    7.1778    2.4715   14.7481 H   0  0  0  0  0  0  0  0  0  0  0  0
    8.5578    4.1333   13.0410 C   0  0  0  0  0  0  0  0  0  0  0  0
    8.9336    4.5288   13.9831 H   0  0  0  0  0  0  0  0  0  0  0  0
    7.5674    4.5524   12.8891 H   0  0  0  0  0  0  0  0  0  0  0  0
    9.2206    4.4997   12.2406 H   0  0  0  0  0  0  0  0  0  0  0  0
    9.4377    0.1412   11.3548 C   0  0  0  0  0  0  0  0  0  0  0  0
    9.3757   -0.4061    9.9256 C   0  0  0  0  0  0  0  0  0  0  0  0
    9.9480   -1.3314    9.8658 H   0  0  0  0  0  0  0  0  0  0  0  0
    9.8206    0.3047    9.2273 H   0  0  0  0  0  0  0  0  0  0  0  0
    8.3589   -0.6338    9.6188 H   0  0  0  0  0  0  0  0  0  0  0  0
   10.9232    0.1457   11.7345 C   0  0  0  0  0  0  0  0  0  0  0  0
   11.1018    0.4471   12.7593 H   0  0  0  0  0  0  0  0  0  0  0  0
   11.4664    0.8241   11.0787 H   0  0  0  0  0  0  0  0  0  0  0  0
   11.3340   -0.8554   11.6078 H   0  0  0  0  0  0  0  0  0  0  0  0
    8.6488   -0.7827   12.2790 C   0  0  0  0  0  0  0  0  0  0  0  0
    7.5836   -0.7485   12.0689 H   0  0  0  0  0  0  0  0  0  0  0  0
    8.8062   -0.5405   13.3257 H   0  0  0  0  0  0  0  0  0  0  0  0
    8.9876   -1.8076   12.1264 H   0  0  0  0  0  0  0  0  0  0  0  0
  1  4  1  0  0  0  0
  1  3  1  0  0  0  0
  2  1  1  0  0  0  0
  3 57  1  0  0  0  0
  3 44  1  0  0  0  0
  4 15  1  0  0  0  0
  4  5  1  1  0  0  0
  6  7  1  1  0  0  0
  6  4  1  0  0  0  0
  8  9  1  6  0  0  0
  8  6  1  0  0  0  0
  8 10  1  0  0  0  0
 10 12  1  0  0  0  0
 10 13  1  0  0  0  0
 11 10  1  0  0  0  0
 13 14  1  1  0  0  0
 13 24  1  0  0  0  0
 15 16  1  1  0  0  0
 15 13  1  0  0  0  0
 17 18  1  0  0  0  0
 17  8  1  0  0  0  0
 17 15  1  0  0  0  0
 19 17  1  0  0  0  0
 20 22  1  0  0  0  0
 20  6  1  0  0  0  0
 21 20  1  0  0  0  0
 23 20  1  0  0  0  0
 24 25  2  0  0  0  0
 24 26  1  0  0  0  0
 26 27  1  0  0  0  0
 27 28  1  0  0  0  0
 27 29  1  0  0  0  0
 27 30  1  0  0  0  0
 31 40  1  0  0  0  0
 31 36  1  0  0  0  0
 31  3  1  0  0  0  0
 32 31  1  0  0  0  0
 33 32  1  0  0  0  0
 34 32  1  0  0  0  0
 35 32  1  0  0  0  0
 36 37  1  0  0  0  0
 38 36  1  0  0  0  0
 39 36  1  0  0  0  0
 40 43  1  0  0  0  0
 41 40  1  0  0  0  0
 42 40  1  0  0  0  0
 44 49  1  0  0  0  0
 44 45  1  0  0  0  0
 45 48  1  0  0  0  0
 45 46  1  0  0  0  0
 47 45  1  0  0  0  0
 49 50  1  0  0  0  0
 49 52  1  0  0  0  0
 51 49  1  0  0  0  0
 53 44  1  0  0  0  0
 53 54  1  0  0  0  0
 55 53  1  0  0  0  0
 56 53  1  0  0  0  0
 57 62  1  0  0  0  0
 57 66  1  0  0  0  0
 58 57  1  0  0  0  0
 59 58  1  0  0  0  0
 60 58  1  0  0  0  0
 61 58  1  0  0  0  0
 62 63  1  0  0  0  0
 64 62  1  0  0  0  0
 65 62  1  0  0  0  0
 66 68  1  0  0  0  0
 67 66  1  0  0  0  0
 69 66  1  0  0  0  0
M  END
$$$$
