CSD_code = RONHEK | q = 0 | S = 0 | Stoichiometry = C11H18BrMnN2O3 | MND = 6
 OpenBabel04212202093D

 36 37  0  0  1  0  0  0  0  0999 V2000
    3.8234    7.5271    9.6698 Mn  0  0  0  0  0  0  0  0  0  0  0  0
    3.8326   10.1064    9.0983 H   0  0  0  0  0  0  0  0  0  0  0  0
    4.6455    9.4888    8.9753 N   0  0  0  0  0  4  0  0  0  0  0  0
    5.9306    7.7206   11.4171 H   0  0  0  0  0  0  0  0  0  0  0  0
    1.9781    8.8051   10.5224 Br  0  0  0  0  0  0  0  0  0  0  0  0
    5.0281    8.2035   11.4712 N   0  0  0  0  0  4  0  0  0  0  0  0
    2.3729    6.8258    7.2242 O   0  0  0  0  0  1  0  0  0  0  0  0
    6.0999    6.0670    8.5708 O   0  0  0  0  0  1  0  0  0  0  0  0
    2.8290    5.0168   10.8085 O   0  0  0  0  0  1  0  0  0  0  0  0
    5.3074    9.6475   11.3492 C   0  0  1  0  0  0  0  0  0  0  0  0
    4.3808   10.1794   11.6025 H   0  0  0  0  0  0  0  0  0  0  0  0
    6.4286   10.1130   12.2867 C   0  0  0  0  0  0  0  0  0  0  0  0
    7.3511    9.5774   12.0407 H   0  0  0  0  0  0  0  0  0  0  0  0
    6.1715    9.8870   13.3221 H   0  0  0  0  0  0  0  0  0  0  0  0
    6.6600   11.6145   12.1531 C   0  0  0  0  0  0  0  0  0  0  0  0
    5.7547   12.1478   12.4507 H   0  0  0  0  0  0  0  0  0  0  0  0
    7.4651   11.9218   12.8222 H   0  0  0  0  0  0  0  0  0  0  0  0
    7.0111   11.9683   10.7144 C   0  0  0  0  0  0  0  0  0  0  0  0
    7.1410   13.0467   10.6145 H   0  0  0  0  0  0  0  0  0  0  0  0
    7.9549   11.4914   10.4391 H   0  0  0  0  0  0  0  0  0  0  0  0
    5.9095   11.4977    9.7703 C   0  0  0  0  0  0  0  0  0  0  0  0
    6.1874   11.7570    8.7479 H   0  0  0  0  0  0  0  0  0  0  0  0
    4.9766   12.0148   10.0116 H   0  0  0  0  0  0  0  0  0  0  0  0
    5.6886    9.9839    9.8937 C   0  0  2  0  0  0  0  0  0  0  0  0
    6.6211    9.4581    9.6414 H   0  0  0  0  0  0  0  0  0  0  0  0
    5.0403    9.5816    7.5648 C   0  0  0  0  0  0  0  0  0  0  0  0
    4.2337    9.2028    6.9376 H   0  0  0  0  0  0  0  0  0  0  0  0
    5.9283    8.9736    7.3889 H   0  0  0  0  0  0  0  0  0  0  0  0
    5.2524   10.6104    7.2593 H   0  0  0  0  0  0  0  0  0  0  0  0
    4.4377    7.8504   12.7705 C   0  0  0  0  0  0  0  0  0  0  0  0
    3.4898    8.3734   12.8955 H   0  0  0  0  0  0  0  0  0  0  0  0
    5.0936    8.1051   13.6079 H   0  0  0  0  0  0  0  0  0  0  0  0
    4.2490    6.7774   12.7998 H   0  0  0  0  0  0  0  0  0  0  0  0
    2.9360    7.1312    8.1792 C   0  0  0  0  0  2  0  0  0  0  0  0
    5.2277    6.6708    9.0237 C   0  0  0  0  0  2  0  0  0  0  0  0
    3.2222    6.0129   10.3896 C   0  0  0  0  0  2  0  0  0  0  0  0
  1 36  1  0  0  0  0
  1  5  1  0  0  0  0
  1  6  1  0  0  0  0
  3  2  1  0  0  0  0
  3  1  1  0  0  0  0
  3 24  1  0  0  0  0
  4  6  1  0  0  0  0
  6 30  1  0  0  0  0
  7 34  1  0  0  0  0
  8 35  1  0  0  0  0
 10  6  1  0  0  0  0
 10 11  1  1  0  0  0
 10 12  1  0  0  0  0
 12 14  1  0  0  0  0
 13 12  1  0  0  0  0
 15 12  1  0  0  0  0
 15 16  1  0  0  0  0
 15 17  1  0  0  0  0
 18 15  1  0  0  0  0
 19 18  1  0  0  0  0
 20 18  1  0  0  0  0
 21 24  1  0  0  0  0
 21 23  1  0  0  0  0
 21 18  1  0  0  0  0
 22 21  1  0  0  0  0
 24 25  1  6  0  0  0
 24 10  1  0  0  0  0
 26  3  1  0  0  0  0
 27 26  1  0  0  0  0
 28 26  1  0  0  0  0
 29 26  1  0  0  0  0
 30 33  1  0  0  0  0
 30 31  1  0  0  0  0
 30 32  1  0  0  0  0
 34  1  1  0  0  0  0
 35  1  1  0  0  0  0
 36  9  1  0  0  0  0
M  END
$$$$
