CSD_code = RONYOK | q = 0 | S = 0 | Stoichiometry = C21H24I2NPPt | MND = 4
 OpenBabel04212202093D

 50 52  0  0  0  0  0  0  0  0999 V2000
    6.3332    8.4167    8.7890 Pt  0  0  0  0  0  0  0  0  0  0  0  0
    4.8194    8.0127   10.9056 I   0  0  0  0  0  0  0  0  0  0  0  0
    7.9100    8.5879    6.7111 I   0  0  0  0  0  0  0  0  0  0  0  0
    8.0724    8.0357   10.0198 N   0  0  0  0  0  4  0  0  0  0  0  0
    7.7318    7.6969   10.9254 H   0  0  0  0  0  0  0  0  0  0  0  0
    8.6345    7.2875    9.6057 H   0  0  0  0  0  0  0  0  0  0  0  0
    8.9232    9.2154   10.2540 C   0  0  0  0  0  0  0  0  0  0  0  0
    9.4612    9.4290    9.3226 H   0  0  0  0  0  0  0  0  0  0  0  0
    9.9321    8.9396   11.3657 C   0  0  0  0  0  0  0  0  0  0  0  0
    9.4194    8.7360   12.3049 H   0  0  0  0  0  0  0  0  0  0  0  0
   10.5766    9.8023   11.5083 H   0  0  0  0  0  0  0  0  0  0  0  0
   10.5593    8.0853   11.1166 H   0  0  0  0  0  0  0  0  0  0  0  0
    8.0305   10.4059   10.5929 C   0  0  0  0  0  0  0  0  0  0  0  0
    7.3196   10.5795    9.7751 H   0  0  0  0  0  0  0  0  0  0  0  0
    8.6268   11.3057   10.7159 H   0  0  0  0  0  0  0  0  0  0  0  0
    7.4772   10.2237   11.5131 H   0  0  0  0  0  0  0  0  0  0  0  0
    4.4479    8.6905    7.5749 P   0  0  0  0  0  4  0  0  0  0  0  0
    3.3848   10.0984    7.9985 C   0  0  0  0  0  0  0  0  0  0  0  0
    3.7780   11.0027    8.9761 C   0  0  0  0  0  0  0  0  0  0  0  0
    4.7112   10.8479    9.5042 H   0  0  0  0  0  0  0  0  0  0  0  0
    2.9824   12.0948    9.2728 C   0  0  0  0  0  0  0  0  0  0  0  0
    3.2896   12.7929   10.0370 H   0  0  0  0  0  0  0  0  0  0  0  0
    1.7945   12.2884    8.5889 C   0  0  0  0  0  0  0  0  0  0  0  0
    1.1693   13.1372    8.8228 H   0  0  0  0  0  0  0  0  0  0  0  0
    1.4099   11.4012    7.5946 C   0  0  0  0  0  0  0  0  0  0  0  0
    0.4896   11.5624    7.0524 H   0  0  0  0  0  0  0  0  0  0  0  0
    2.2046   10.3127    7.2902 C   0  0  0  0  0  0  0  0  0  0  0  0
    1.9219    9.6311    6.4984 H   0  0  0  0  0  0  0  0  0  0  0  0
    4.5309    8.9003    5.7684 C   0  0  0  0  0  0  0  0  0  0  0  0
    4.9386   10.1464    5.2976 C   0  0  0  0  0  0  0  0  0  0  0  0
    5.1743   10.9308    6.0064 H   0  0  0  0  0  0  0  0  0  0  0  0
    5.0559   10.3710    3.9410 C   0  0  0  0  0  0  0  0  0  0  0  0
    5.3783   11.3364    3.5807 H   0  0  0  0  0  0  0  0  0  0  0  0
    4.7701    9.3524    3.0449 C   0  0  0  0  0  0  0  0  0  0  0  0
    4.8682    9.5249    1.9836 H   0  0  0  0  0  0  0  0  0  0  0  0
    4.3672    8.1127    3.5096 C   0  0  0  0  0  0  0  0  0  0  0  0
    4.1492    7.3171    2.8122 H   0  0  0  0  0  0  0  0  0  0  0  0
    4.2481    7.8811    4.8693 C   0  0  0  0  0  0  0  0  0  0  0  0
    3.9378    6.9091    5.2269 H   0  0  0  0  0  0  0  0  0  0  0  0
    3.4817    7.1706    7.7827 C   0  0  0  0  0  0  0  0  0  0  0  0
    2.1424    7.1144    8.1393 C   0  0  0  0  0  0  0  0  0  0  0  0
    1.5807    8.0239    8.2964 H   0  0  0  0  0  0  0  0  0  0  0  0
    1.5372    5.8827    8.3242 C   0  0  0  0  0  0  0  0  0  0  0  0
    0.4963    5.8381    8.6089 H   0  0  0  0  0  0  0  0  0  0  0  0
    2.2607    4.7137    8.1604 C   0  0  0  0  0  0  0  0  0  0  0  0
    1.7821    3.7578    8.3124 H   0  0  0  0  0  0  0  0  0  0  0  0
    3.6041    4.7673    7.8212 C   0  0  0  0  0  0  0  0  0  0  0  0
    4.1741    3.8564    7.7113 H   0  0  0  0  0  0  0  0  0  0  0  0
    4.2142    5.9924    7.6396 C   0  0  0  0  0  0  0  0  0  0  0  0
    5.2722    6.0520    7.3950 H   0  0  0  0  0  0  0  0  0  0  0  0
  1  4  1  0  0  0  0
  1  2  1  0  0  0  0
  3  1  1  0  0  0  0
  4  7  1  0  0  0  0
  4  5  1  0  0  0  0
  6  4  1  0  0  0  0
  7 13  1  0  0  0  0
  7  9  1  0  0  0  0
  8  7  1  0  0  0  0
  9 11  1  0  0  0  0
  9 10  1  0  0  0  0
 12  9  1  0  0  0  0
 13 15  1  0  0  0  0
 13 16  1  0  0  0  0
 14 13  1  0  0  0  0
 17 40  1  0  0  0  0
 17 18  1  0  0  0  0
 17  1  1  0  0  0  0
 18 19  1  0  0  0  0
 19 21  2  0  0  0  0
 19 20  1  0  0  0  0
 21 22  1  0  0  0  0
 23 24  1  0  0  0  0
 23 21  1  0  0  0  0
 25 23  2  0  0  0  0
 26 25  1  0  0  0  0
 27 25  1  0  0  0  0
 27 18  2  0  0  0  0
 28 27  1  0  0  0  0
 29 17  1  0  0  0  0
 30 29  1  0  0  0  0
 30 31  1  0  0  0  0
 32 30  2  0  0  0  0
 33 32  1  0  0  0  0
 34 36  2  0  0  0  0
 34 32  1  0  0  0  0
 35 34  1  0  0  0  0
 36 38  1  0  0  0  0
 37 36  1  0  0  0  0
 38 39  1  0  0  0  0
 38 29  2  0  0  0  0
 40 41  1  0  0  0  0
 41 42  1  0  0  0  0
 41 43  2  0  0  0  0
 43 44  1  0  0  0  0
 45 46  1  0  0  0  0
 45 43  1  0  0  0  0
 47 45  2  0  0  0  0
 48 47  1  0  0  0  0
 49 40  2  0  0  0  0
 49 47  1  0  0  0  0
 50 49  1  0  0  0  0
M  END
$$$$
