CSD_code = ROPXIG | q = 0 | S = 0 | Stoichiometry = C29H24ClPPd | MND = 5
 OpenBabel04212202093D

 56 58  0  0  0  0  0  0  0  0999 V2000
    5.6261   16.4511    1.5166 Pd  0  0  0  0  0  0  0  0  0  0  0  0
    4.6779   18.4271    1.9429 P   0  0  0  0  0  0  0  0  0  0  0  0
    6.8616   17.3053   -0.2168 Cl  0  0  0  0  0 15  0  0  0  0  0  0
    4.9283   18.7082    3.7225 C   0  0  0  0  0  0  0  0  0  0  0  0
    5.2406   19.9735    1.1770 C   0  0  0  0  0  0  0  0  0  0  0  0
    3.9867   19.1608    4.6354 C   0  0  0  0  0  0  0  0  0  0  0  0
    2.9857   19.4022    4.3091 H   0  0  0  0  0  0  0  0  0  0  0  0
    6.2099   18.3614    4.1558 C   0  0  0  0  0  0  0  0  0  0  0  0
    6.9294   17.9790    3.4240 H   0  0  0  0  0  0  0  0  0  0  0  0
    2.0946   19.5733    1.7684 C   0  0  0  0  0  0  0  0  0  0  0  0
    2.5171   20.4720    2.1966 H   0  0  0  0  0  0  0  0  0  0  0  0
    5.0889   20.0703   -0.2042 C   0  0  0  0  0  0  0  0  0  0  0  0
    4.6590   19.2385   -0.7466 H   0  0  0  0  0  0  0  0  0  0  0  0
    2.9034   18.4616    1.5571 C   0  0  0  0  0  0  0  0  0  0  0  0
    2.3790   17.3268    0.9453 C   0  0  0  0  0  0  0  0  0  0  0  0
    3.0487   16.4843    0.7419 H   0  0  0  0  0  0  0  0  0  0  0  0
    6.0177   14.7191    2.6522 C   0  0  0  0  0  0  0  0  0  0  0  0
    4.7284   15.2436    2.9731 C   0  0  0  0  0  0  0  0  0  0  0  0
    4.5368   15.5904    3.9829 H   0  0  0  0  0  0  0  0  0  0  0  0
    3.8651   14.7505    2.5219 H   0  0  0  0  0  0  0  0  0  0  0  0
    7.1806   14.8448    3.5065 C   0  0  0  0  0  0  0  0  0  0  0  0
    0.7599   19.5265    1.4087 C   0  0  0  0  0  0  0  0  0  0  0  0
    0.1268   20.3854    1.5767 H   0  0  0  0  0  0  0  0  0  0  0  0
    0.2348   18.3850    0.8227 C   0  0  0  0  0  0  0  0  0  0  0  0
   -0.8074   18.3567    0.5412 H   0  0  0  0  0  0  0  0  0  0  0  0
    5.8230   21.0149    1.8885 C   0  0  0  0  0  0  0  0  0  0  0  0
    5.9524   20.9369    2.9593 H   0  0  0  0  0  0  0  0  0  0  0  0
    6.2404   22.1517    1.2177 C   0  0  0  0  0  0  0  0  0  0  0  0
    6.6935   22.9624    1.7699 H   0  0  0  0  0  0  0  0  0  0  0  0
    1.0458   17.2876    0.5802 C   0  0  0  0  0  0  0  0  0  0  0  0
    0.6375   16.4092    0.1025 H   0  0  0  0  0  0  0  0  0  0  0  0
    6.0863   22.2481   -0.1548 C   0  0  0  0  0  0  0  0  0  0  0  0
    6.4216   23.1346   -0.6729 H   0  0  0  0  0  0  0  0  0  0  0  0
    6.5543   18.4983    5.4858 C   0  0  0  0  0  0  0  0  0  0  0  0
    7.5476   18.2354    5.8176 H   0  0  0  0  0  0  0  0  0  0  0  0
    4.3341   19.2818    5.9716 C   0  0  0  0  0  0  0  0  0  0  0  0
    3.6010   19.6278    6.6858 H   0  0  0  0  0  0  0  0  0  0  0  0
    5.6125   18.9596    6.3949 C   0  0  0  0  0  0  0  0  0  0  0  0
    5.8747   19.0591    7.4379 H   0  0  0  0  0  0  0  0  0  0  0  0
    8.4689   14.6234    2.9535 C   0  0  0  0  0  0  0  0  0  0  0  0
    7.0795   15.1440    4.8755 C   0  0  0  0  0  0  0  0  0  0  0  0
    6.1061   15.2767    5.3243 H   0  0  0  0  0  0  0  0  0  0  0  0
    8.2006   15.2674    5.6583 C   0  0  0  0  0  0  0  0  0  0  0  0
    8.1011   15.5004    6.7086 H   0  0  0  0  0  0  0  0  0  0  0  0
    9.5986   14.7654    3.7793 C   0  0  0  0  0  0  0  0  0  0  0  0
   10.5761   14.6094    3.3458 H   0  0  0  0  0  0  0  0  0  0  0  0
    6.2150   14.3642    1.2849 C   0  0  0  0  0  0  0  0  0  0  0  0
    5.3553   14.0393    0.6841 H   0  0  0  0  0  0  0  0  0  0  0  0
    5.5115   21.2059   -0.8662 C   0  0  0  0  0  0  0  0  0  0  0  0
    5.4024   21.2774   -1.9379 H   0  0  0  0  0  0  0  0  0  0  0  0
    9.4702   15.0886    5.1046 C   0  0  0  0  0  0  0  0  0  0  0  0
   10.3465   15.1955    5.7273 H   0  0  0  0  0  0  0  0  0  0  0  0
    8.6063   14.2418    1.5910 C   0  0  0  0  0  0  0  0  0  0  0  0
    9.6000   14.0724    1.2038 H   0  0  0  0  0  0  0  0  0  0  0  0
    7.5151   14.0879    0.7937 C   0  0  0  0  0  0  0  0  0  0  0  0
    7.6259   13.7767   -0.2360 H   0  0  0  0  0  0  0  0  0  0  0  0
  1 18  1  0  0  0  0
  2  4  1  0  0  0  0
  4  8  2  0  0  0  0
  4  6  1  0  0  0  0
  5 26  1  0  0  0  0
  5  2  1  0  0  0  0
  6 36  2  0  0  0  0
  7  6  1  0  0  0  0
  8 34  1  0  0  0  0
  9  8  1  0  0  0  0
 10 11  1  0  0  0  0
 12  5  2  0  0  0  0
 13 12  1  0  0  0  0
 14 10  1  0  0  0  0
 14  2  1  0  0  0  0
 15 14  2  0  0  0  0
 16 15  1  0  0  0  0
 17 18  1  0  0  0  0
 17 21  1  0  0  0  0
 18 19  1  0  0  0  0
 20 18  1  0  0  0  0
 21 41  1  0  0  0  0
 22 23  1  0  0  0  0
 22 10  2  0  0  0  0
 24 22  1  0  0  0  0
 25 24  1  0  0  0  0
 26 27  1  0  0  0  0
 28 29  1  0  0  0  0
 28 26  2  0  0  0  0
 30 24  2  0  0  0  0
 30 15  1  0  0  0  0
 31 30  1  0  0  0  0
 32 28  1  0  0  0  0
 33 32  1  0  0  0  0
 34 35  1  0  0  0  0
 34 38  2  0  0  0  0
 36 38  1  0  0  0  0
 36 37  1  0  0  0  0
 38 39  1  0  0  0  0
 40 21  2  0  0  0  0
 40 45  1  0  0  0  0
 41 42  1  0  0  0  0
 41 43  2  0  0  0  0
 43 44  1  0  0  0  0
 45 51  2  0  0  0  0
 46 45  1  0  0  0  0
 47 17  2  0  0  0  0
 48 47  1  0  0  0  0
 49 12  1  0  0  0  0
 49 32  2  0  0  0  0
 50 49  1  0  0  0  0
 51 43  1  0  0  0  0
 51 52  1  0  0  0  0
 53 40  1  0  0  0  0
 54 53  1  0  0  0  0
 55 47  1  0  0  0  0
 55 53  2  0  0  0  0
 56 55  1  0  0  0  0
M  END
$$$$
