CSD_code = RORTOH | q = 0 | S = 0 | Stoichiometry = C28H22BrMnO3P2 | MND = 6
 OpenBabel04212202093D

 57 61  0  0  0  0  0  0  0  0999 V2000
    7.8962    3.4521    5.0153 Mn  0  0  0  0  0  0  0  0  0  0  0  0
    5.6427    3.7712    4.1025 Br  0  0  0  0  0  0  0  0  0  0  0  0
    6.3830    0.7664    5.0406 C   0  0  0  0  0  0  0  0  0  0  0  0
    5.3542    0.8811    4.6793 H   0  0  0  0  0  0  0  0  0  0  0  0
    6.5888   -0.2645    5.3425 H   0  0  0  0  0  0  0  0  0  0  0  0
    7.8025    4.8994    6.0568 C   0  0  0  0  0  2  0  0  0  0  0  0
    8.6969    4.4037    3.7335 C   0  0  0  0  0  2  0  0  0  0  0  0
    9.4283    3.0084    5.7786 C   0  0  0  0  0  2  0  0  0  0  0  0
    7.5930    1.4905    3.8357 P   0  0  0  0  0  4  0  0  0  0  0  0
    6.7103    2.0192    6.3745 P   0  0  0  0  0  4  0  0  0  0  0  0
    7.7895    5.8279    6.7324 O   0  0  0  0  0  1  0  0  0  0  0  0
    9.2461    5.0313    2.9423 O   0  0  0  0  0  1  0  0  0  0  0  0
   10.4091    2.7485    6.3237 O   0  0  0  0  0  1  0  0  0  0  0  0
    6.8473    1.3511    2.1866 C   0  0  0  0  0  0  0  0  0  0  0  0
    5.8742    0.4085    1.8796 C   0  0  0  0  0  0  0  0  0  0  0  0
    5.4910   -0.2585    2.6399 H   0  0  0  0  0  0  0  0  0  0  0  0
    5.3822    0.3349    0.5893 C   0  0  0  0  0  0  0  0  0  0  0  0
    4.6192   -0.3911    0.3492 H   0  0  0  0  0  0  0  0  0  0  0  0
    5.8585    1.1905   -0.3901 C   0  0  0  0  0  0  0  0  0  0  0  0
    5.4645    1.1307   -1.3935 H   0  0  0  0  0  0  0  0  0  0  0  0
    6.8326    2.1271   -0.0842 C   0  0  0  0  0  0  0  0  0  0  0  0
    7.1995    2.7983   -0.8460 H   0  0  0  0  0  0  0  0  0  0  0  0
    7.3288    2.2075    1.2024 C   0  0  0  0  0  0  0  0  0  0  0  0
    8.0808    2.9443    1.4583 H   0  0  0  0  0  0  0  0  0  0  0  0
    8.8892    0.2184    3.6552 C   0  0  0  0  0  0  0  0  0  0  0  0
   10.2086    0.6474    3.5627 C   0  0  0  0  0  0  0  0  0  0  0  0
   10.4289    1.7063    3.6404 H   0  0  0  0  0  0  0  0  0  0  0  0
   11.2259   -0.2721    3.3816 C   0  0  0  0  0  0  0  0  0  0  0  0
   12.2500    0.0636    3.3180 H   0  0  0  0  0  0  0  0  0  0  0  0
   10.9269   -1.6210    3.2855 C   0  0  0  0  0  0  0  0  0  0  0  0
   11.7198   -2.3412    3.1500 H   0  0  0  0  0  0  0  0  0  0  0  0
    9.6103   -2.0500    3.3564 C   0  0  0  0  0  0  0  0  0  0  0  0
    9.3788   -3.1017    3.2702 H   0  0  0  0  0  0  0  0  0  0  0  0
    8.5900   -1.1352    3.5342 C   0  0  0  0  0  0  0  0  0  0  0  0
    7.5628   -1.4723    3.5771 H   0  0  0  0  0  0  0  0  0  0  0  0
    5.1023    2.3050    7.1559 C   0  0  0  0  0  0  0  0  0  0  0  0
    4.2948    1.2140    7.4653 C   0  0  0  0  0  0  0  0  0  0  0  0
    4.6300    0.2108    7.2329 H   0  0  0  0  0  0  0  0  0  0  0  0
    3.0728    1.4222    8.0747 C   0  0  0  0  0  0  0  0  0  0  0  0
    2.4405    0.5794    8.3130 H   0  0  0  0  0  0  0  0  0  0  0  0
    2.6586    2.7104    8.3784 C   0  0  0  0  0  0  0  0  0  0  0  0
    1.7007    2.8675    8.8512 H   0  0  0  0  0  0  0  0  0  0  0  0
    3.4657    3.7942    8.0758 C   0  0  0  0  0  0  0  0  0  0  0  0
    3.1402    4.7961    8.3106 H   0  0  0  0  0  0  0  0  0  0  0  0
    4.6903    3.5949    7.4639 C   0  0  0  0  0  0  0  0  0  0  0  0
    5.3211    4.4372    7.2114 H   0  0  0  0  0  0  0  0  0  0  0  0
    7.5840    1.0452    7.6368 C   0  0  0  0  0  0  0  0  0  0  0  0
    8.6192    0.1964    7.2526 C   0  0  0  0  0  0  0  0  0  0  0  0
    8.8588    0.0712    6.2023 H   0  0  0  0  0  0  0  0  0  0  0  0
    9.3516   -0.4817    8.2074 C   0  0  0  0  0  0  0  0  0  0  0  0
   10.1498   -1.1420    7.9010 H   0  0  0  0  0  0  0  0  0  0  0  0
    9.0682   -0.3048    9.5525 C   0  0  0  0  0  0  0  0  0  0  0  0
    9.6439   -0.8320   10.2984 H   0  0  0  0  0  0  0  0  0  0  0  0
    8.0561    0.5578    9.9407 C   0  0  0  0  0  0  0  0  0  0  0  0
    7.8439    0.7064   10.9891 H   0  0  0  0  0  0  0  0  0  0  0  0
    7.3187    1.2386    8.9894 C   0  0  0  0  0  0  0  0  0  0  0  0
    6.5340    1.9194    9.2911 H   0  0  0  0  0  0  0  0  0  0  0  0
  1  8  1  0  0  0  0
  1  6  1  0  0  0  0
  1 10  1  0  0  0  0
  2  1  1  0  0  0  0
  3  5  1  0  0  0  0
  3 10  1  0  0  0  0
  4  3  1  0  0  0  0
  6 11  1  0  0  0  0
  7  1  1  0  0  0  0
  8 13  1  0  0  0  0
  9  1  1  0  0  0  0
  9  3  1  0  0  0  0
 10 36  1  0  0  0  0
 10 47  1  0  0  0  0
 12  7  1  0  0  0  0
 14  9  1  0  0  0  0
 15 14  1  0  0  0  0
 15 16  1  0  0  0  0
 17 15  2  0  0  0  0
 18 17  1  0  0  0  0
 19 21  2  0  0  0  0
 19 17  1  0  0  0  0
 20 19  1  0  0  0  0
 21 23  1  0  0  0  0
 22 21  1  0  0  0  0
 23 24  1  0  0  0  0
 23 14  2  0  0  0  0
 25  9  1  0  0  0  0
 26 27  1  0  0  0  0
 26 25  1  0  0  0  0
 28 26  2  0  0  0  0
 29 28  1  0  0  0  0
 30 32  2  0  0  0  0
 30 28  1  0  0  0  0
 31 30  1  0  0  0  0
 32 34  1  0  0  0  0
 33 32  1  0  0  0  0
 34 35  1  0  0  0  0
 34 25  2  0  0  0  0
 36 45  2  0  0  0  0
 36 37  1  0  0  0  0
 37 39  2  0  0  0  0
 38 37  1  0  0  0  0
 39 40  1  0  0  0  0
 39 41  1  0  0  0  0
 41 42  1  0  0  0  0
 43 44  1  0  0  0  0
 43 41  2  0  0  0  0
 45 43  1  0  0  0  0
 46 45  1  0  0  0  0
 47 56  1  0  0  0  0
 48 47  2  0  0  0  0
 48 50  1  0  0  0  0
 49 48  1  0  0  0  0
 50 52  2  0  0  0  0
 51 50  1  0  0  0  0
 52 54  1  0  0  0  0
 52 53  1  0  0  0  0
 54 55  1  0  0  0  0
 56 57  1  0  0  0  0
 56 54  2  0  0  0  0
M  END
$$$$
