CSD_code = ROSGUD | q = 0 | S = 0 | Stoichiometry = C15H28ClN3OZn | MND = 4
 OpenBabel04212202093D

 49 50  0  0  0  0  0  0  0  0999 V2000
    4.3346    4.4326    0.7969 C   0  0  0  0  0  0  0  0  0  0  0  0
    4.9893    4.2074   -0.4078 C   0  0  0  0  0  0  0  0  0  0  0  0
    4.4959    4.4375   -1.3412 H   0  0  0  0  0  0  0  0  0  0  0  0
    6.2780    3.6823   -0.4091 C   0  0  0  0  0  0  0  0  0  0  0  0
    6.7968    3.5045   -1.3411 H   0  0  0  0  0  0  0  0  0  0  0  0
    6.8847    3.3932    0.7907 C   0  0  0  0  0  0  0  0  0  0  0  0
    7.8816    2.9881    0.8594 H   0  0  0  0  0  0  0  0  0  0  0  0
    6.1596    3.6376    1.9646 C   0  0  0  0  0  0  0  0  0  0  0  0
    6.1473    3.4283    4.3890 C   0  0  0  0  0  0  0  0  0  0  0  0
    7.2219    2.9890    5.3869 C   0  0  0  0  0  0  0  0  0  0  0  0
    7.5520    1.9798    5.1560 H   0  0  0  0  0  0  0  0  0  0  0  0
    6.8259    3.0114    6.3980 H   0  0  0  0  0  0  0  0  0  0  0  0
    8.0805    3.6524    5.3250 H   0  0  0  0  0  0  0  0  0  0  0  0
    5.7162    4.8672    4.6846 C   0  0  0  0  0  0  0  0  0  0  0  0
    6.5782    5.5290    4.6371 H   0  0  0  0  0  0  0  0  0  0  0  0
    5.2795    4.9260    5.6783 H   0  0  0  0  0  0  0  0  0  0  0  0
    4.9896    5.1849    3.9424 H   0  0  0  0  0  0  0  0  0  0  0  0
    4.9542    2.4714    4.4445 C   0  0  0  0  0  0  0  0  0  0  0  0
    4.2341    2.7327    3.6743 H   0  0  0  0  0  0  0  0  0  0  0  0
    4.4771    2.5258    5.4195 H   0  0  0  0  0  0  0  0  0  0  0  0
    5.2914    1.4515    4.2732 H   0  0  0  0  0  0  0  0  0  0  0  0
   -0.1020    5.4942    2.5020 C   0  0  0  0  0  0  0  0  0  0  0  0
   -0.3517    4.5062    2.1222 H   0  0  0  0  0  0  0  0  0  0  0  0
   -0.3526    6.2116    1.7266 H   0  0  0  0  0  0  0  0  0  0  0  0
   -0.7033    5.6977    3.3975 H   0  0  0  0  0  0  0  0  0  0  0  0
    1.6460    4.5153    3.7810 C   0  0  0  0  0  0  0  0  0  0  0  0
    1.1085    4.6775    4.7245 H   0  0  0  0  0  0  0  0  0  0  0  0
    2.7160    4.5098    3.9739 H   0  0  0  0  0  0  0  0  0  0  0  0
    1.3652    3.5422    3.3827 H   0  0  0  0  0  0  0  0  0  0  0  0
    1.6890    6.8645    3.3329 C   0  0  0  0  0  0  0  0  0  0  0  0
    2.6324    6.7638    3.8730 H   0  0  0  0  0  0  0  0  0  0  0  0
    0.9280    7.2169    4.0459 H   0  0  0  0  0  0  0  0  0  0  0  0
    1.8500    7.9082    2.2299 C   0  0  0  0  0  0  0  0  0  0  0  0
    0.9250    7.9641    1.6547 H   0  0  0  0  0  0  0  0  0  0  0  0
    2.0294    8.8920    2.6913 H   0  0  0  0  0  0  0  0  0  0  0  0
    2.7838    8.3538    0.0770 C   0  0  0  0  0  0  0  0  0  0  0  0
    2.8004    9.4304    0.2880 H   0  0  0  0  0  0  0  0  0  0  0  0
    1.8493    8.0938   -0.4148 H   0  0  0  0  0  0  0  0  0  0  0  0
    3.6010    8.1138   -0.6006 H   0  0  0  0  0  0  0  0  0  0  0  0
    4.2338    7.8348    1.8861 C   0  0  0  0  0  0  0  0  0  0  0  0
    5.0085    7.5607    1.1729 H   0  0  0  0  0  0  0  0  0  0  0  0
    4.3817    7.2350    2.7799 H   0  0  0  0  0  0  0  0  0  0  0  0
    4.3469    8.8962    2.1443 H   0  0  0  0  0  0  0  0  0  0  0  0
    4.9349    4.1415    1.9611 N   0  0  0  0  0  0  0  0  0  0  0  0
    1.3263    5.5498    2.8018 N   0  0  0  0  0  4  0  0  0  0  0  0
    2.9258    7.5677    1.3000 N   0  0  0  0  0  4  0  0  0  0  0  0
    6.7968    3.3394    3.1128 O   0  0  0  0  0  0  0  0  0  0  0  0
    0.9150    5.6082   -0.6514 Cl  0  0  0  0  0  0  0  0  0  0  0  0
    2.5544    5.3511    0.8816 Zn  0  0  0  0  0  0  0  0  0  0  0  0
  1 49  1  0  0  0  0
  1 44  1  0  0  0  0
  2  1  2  0  0  0  0
  3  2  1  0  0  0  0
  4  2  1  0  0  0  0
  4  6  2  0  0  0  0
  5  4  1  0  0  0  0
  6  7  1  0  0  0  0
  6  8  1  0  0  0  0
  8 47  1  0  0  0  0
  9 18  1  0  0  0  0
  9 14  1  0  0  0  0
  9 10  1  0  0  0  0
 10 12  1  0  0  0  0
 11 10  1  0  0  0  0
 13 10  1  0  0  0  0
 14 16  1  0  0  0  0
 15 14  1  0  0  0  0
 17 14  1  0  0  0  0
 18 20  1  0  0  0  0
 19 18  1  0  0  0  0
 21 18  1  0  0  0  0
 22 45  1  0  0  0  0
 22 25  1  0  0  0  0
 23 22  1  0  0  0  0
 24 22  1  0  0  0  0
 26 28  1  0  0  0  0
 26 27  1  0  0  0  0
 29 26  1  0  0  0  0
 30 31  1  0  0  0  0
 30 32  1  0  0  0  0
 33 35  1  0  0  0  0
 33 30  1  0  0  0  0
 34 33  1  0  0  0  0
 36 37  1  0  0  0  0
 36 46  1  0  0  0  0
 38 36  1  0  0  0  0
 39 36  1  0  0  0  0
 40 43  1  0  0  0  0
 40 42  1  0  0  0  0
 41 40  1  0  0  0  0
 44  8  2  0  0  0  0
 45 30  1  0  0  0  0
 45 26  1  0  0  0  0
 46 40  1  0  0  0  0
 46 33  1  0  0  0  0
 47  9  1  0  0  0  0
 48 49  1  0  0  0  0
 49 46  1  0  0  0  0
 49 45  1  0  0  0  0
M  END
$$$$
