CSD_code = ROSTAW | q = 0 | S = 0 | Stoichiometry = C29H34Br2ClIrN2 | MND = 6
 OpenBabel04212202093D

 69 71  0  0  1  0  0  0  0  0999 V2000
    2.8979    3.6007    3.1605 Ir  0  0  0  0  0  0  0  0  0  0  0  0
   -0.9142    2.9536   -1.2521 Br  0  0  0  0  0  0  0  0  0  0  0  0
    2.5164    2.4945   -2.6639 Br  0  0  0  0  0  0  0  0  0  0  0  0
    2.2041    1.4354    3.6547 Cl  0  0  0  0  0 15  0  0  0  0  0  0
    0.8925    3.2486    0.9527 N   0  0  0  0  0  0  0  0  0  0  0  0
    2.8789    3.0661    0.1199 N   0  0  0  0  0  0  0  0  0  0  0  0
    2.2132    3.3069    1.2820 C   0  0  2  0  0  3  0  0  0  0  0  0
    0.7437    2.9943   -0.3868 C   0  0  0  0  0  0  0  0  0  0  0  0
    1.9925    2.8772   -0.9110 C   0  0  0  0  0  0  0  0  0  0  0  0
   -0.2086    3.3210    1.8546 C   0  0  0  0  0  0  0  0  0  0  0  0
   -0.6720    4.5588    2.2906 C   0  0  0  0  0  0  0  0  0  0  0  0
   -1.7294    4.5888    3.1912 C   0  0  0  0  0  0  0  0  0  0  0  0
   -2.0839    5.5474    3.5422 H   0  0  0  0  0  0  0  0  0  0  0  0
   -2.3383    3.4269    3.6325 C   0  0  0  0  0  0  0  0  0  0  0  0
   -1.8957    2.2111    3.1270 C   0  0  0  0  0  0  0  0  0  0  0  0
   -2.3840    1.3006    3.4417 H   0  0  0  0  0  0  0  0  0  0  0  0
   -0.8421    2.1304    2.2328 C   0  0  0  0  0  0  0  0  0  0  0  0
   -0.1076    5.8545    1.7929 C   0  0  0  0  0  0  0  0  0  0  0  0
   -0.9127    6.4770    1.4048 H   0  0  0  0  0  0  0  0  0  0  0  0
    0.6228    5.7021    1.0033 H   0  0  0  0  0  0  0  0  0  0  0  0
    0.3691    6.3935    2.6082 H   0  0  0  0  0  0  0  0  0  0  0  0
   -3.4660    3.4640    4.6173 C   0  0  0  0  0  0  0  0  0  0  0  0
   -3.7113    4.4861    4.8938 H   0  0  0  0  0  0  0  0  0  0  0  0
   -3.1946    2.9143    5.5176 H   0  0  0  0  0  0  0  0  0  0  0  0
   -4.3530    2.9931    4.1961 H   0  0  0  0  0  0  0  0  0  0  0  0
   -0.3950    0.8029    1.7109 C   0  0  0  0  0  0  0  0  0  0  0  0
   -1.0617    0.0185    2.0573 H   0  0  0  0  0  0  0  0  0  0  0  0
    0.6086    0.5906    2.0807 H   0  0  0  0  0  0  0  0  0  0  0  0
   -0.3738    0.7777    0.6230 H   0  0  0  0  0  0  0  0  0  0  0  0
    4.2899    3.0183   -0.0543 C   0  0  0  0  0  0  0  0  0  0  0  0
    4.9813    1.8596    0.3031 C   0  0  0  0  0  0  0  0  0  0  0  0
    6.3555    1.8439    0.1242 C   0  0  0  0  0  0  0  0  0  0  0  0
    6.9093    0.9589    0.4013 H   0  0  0  0  0  0  0  0  0  0  0  0
    7.0357    2.9307   -0.4091 C   0  0  0  0  0  0  0  0  0  0  0  0
    6.3142    4.0542   -0.7824 C   0  0  0  0  0  0  0  0  0  0  0  0
    6.8280    4.9017   -1.2119 H   0  0  0  0  0  0  0  0  0  0  0  0
    4.9383    4.1178   -0.6156 C   0  0  0  0  0  0  0  0  0  0  0  0
    4.2546    0.6701    0.8375 C   0  0  0  0  0  0  0  0  0  0  0  0
    4.9415   -0.1532    1.0092 H   0  0  0  0  0  0  0  0  0  0  0  0
    3.4874    0.3409    0.1368 H   0  0  0  0  0  0  0  0  0  0  0  0
    3.7587    0.9113    1.7784 H   0  0  0  0  0  0  0  0  0  0  0  0
    8.5208    2.8701   -0.5917 C   0  0  0  0  0  0  0  0  0  0  0  0
    9.0054    2.5620    0.3329 H   0  0  0  0  0  0  0  0  0  0  0  0
    8.9179    3.8359   -0.8921 H   0  0  0  0  0  0  0  0  0  0  0  0
    8.7736    2.1388   -1.3587 H   0  0  0  0  0  0  0  0  0  0  0  0
    4.1773    5.3380   -1.0424 C   0  0  0  0  0  0  0  0  0  0  0  0
    4.8260    6.2101   -1.0362 H   0  0  0  0  0  0  0  0  0  0  0  0
    3.3306    5.5287   -0.3853 H   0  0  0  0  0  0  0  0  0  0  0  0
    3.8007    5.2093   -2.0579 H   0  0  0  0  0  0  0  0  0  0  0  0
    4.3997    5.0270    2.7057 C   0  0  1  0  0  0  0  0  0  0  0  0
    4.7089    5.0120    1.6644 H   0  0  0  0  0  0  0  0  0  0  0  0
    3.2053    5.7113    3.0034 C   0  0  0  0  0  3  0  0  0  0  0  0
    2.6975    6.1624    2.1552 H   0  0  0  0  0  0  0  0  0  0  0  0
    2.9790    6.4539    4.3066 C   0  0  0  0  0  0  0  0  0  0  0  0
    3.9316    6.8479    4.6637 H   0  0  0  0  0  0  0  0  0  0  0  0
    2.3303    7.3135    4.1233 H   0  0  0  0  0  0  0  0  0  0  0  0
    2.3266    5.5644    5.3808 C   0  0  0  0  0  0  0  0  0  0  0  0
    2.5989    5.9193    6.3808 H   0  0  0  0  0  0  0  0  0  0  0  0
    1.2403    5.6431    5.2957 H   0  0  0  0  0  0  0  0  0  0  0  0
    2.6942    4.1062    5.2510 C   0  0  0  0  0  3  0  0  0  0  0  0
    1.9389    3.4296    5.6465 H   0  0  0  0  0  0  0  0  0  0  0  0
    3.9723    3.6235    5.0809 C   0  0  0  0  0  3  0  0  0  0  0  0
    4.1552    2.5802    5.3218 H   0  0  0  0  0  0  0  0  0  0  0  0
    5.2048    4.4941    5.0650 C   0  0  0  0  0  0  0  0  0  0  0  0
    6.0367    3.9436    5.5085 H   0  0  0  0  0  0  0  0  0  0  0  0
    5.0334    5.3744    5.6861 H   0  0  0  0  0  0  0  0  0  0  0  0
    5.5866    4.9081    3.6342 C   0  0  0  0  0  0  0  0  0  0  0  0
    6.1323    5.8583    3.6473 H   0  0  0  0  0  0  0  0  0  0  0  0
    6.2580    4.1571    3.2117 H   0  0  0  0  0  0  0  0  0  0  0  0
  2  8  1  0  0  0  0
  3  9  1  0  0  0  0
  5  7  1  0  0  0  0
  5 10  1  0  0  0  0
  6  7  1  0  0  0  0
  7  1  1  1  0  0  0
  8  5  1  0  0  0  0
  9  8  2  0  0  0  0
  9  6  1  0  0  0  0
 10 17  2  0  0  0  0
 10 11  1  0  0  0  0
 11 12  2  0  0  0  0
 12 13  1  0  0  0  0
 12 14  1  0  0  0  0
 14 22  1  0  0  0  0
 15 16  1  0  0  0  0
 15 14  2  0  0  0  0
 17 15  1  0  0  0  0
 18 11  1  0  0  0  0
 18 21  1  0  0  0  0
 19 18  1  0  0  0  0
 20 18  1  0  0  0  0
 22 23  1  0  0  0  0
 22 24  1  0  0  0  0
 25 22  1  0  0  0  0
 26 27  1  0  0  0  0
 26 28  1  0  0  0  0
 26 17  1  0  0  0  0
 29 26  1  0  0  0  0
 30  6  1  0  0  0  0
 30 31  1  0  0  0  0
 31 38  1  0  0  0  0
 32 31  2  0  0  0  0
 32 33  1  0  0  0  0
 34 32  1  0  0  0  0
 35 37  1  0  0  0  0
 35 34  2  0  0  0  0
 36 35  1  0  0  0  0
 37 30  2  0  0  0  0
 38 39  1  0  0  0  0
 38 41  1  0  0  0  0
 40 38  1  0  0  0  0
 42 34  1  0  0  0  0
 42 43  1  0  0  0  0
 44 42  1  0  0  0  0
 45 42  1  0  0  0  0
 46 47  1  0  0  0  0
 46 37  1  0  0  0  0
 46 48  1  0  0  0  0
 49 46  1  0  0  0  0
 50 51  1  6  0  0  0
 50 52  1  0  0  0  0
 50  1  1  0  0  0  0
 50 67  1  0  0  0  0
 52 54  1  0  0  0  0
 53 52  1  0  0  0  0
 54 55  1  0  0  0  0
 54 57  1  0  0  0  0
 56 54  1  0  0  0  0
 57 58  1  0  0  0  0
 59 57  1  0  0  0  0
 60 57  1  0  0  0  0
 60 61  1  0  0  0  0
 62 60  1  0  0  0  0
 62 63  1  0  0  0  0
 64 62  1  0  0  0  0
 64 65  1  0  0  0  0
 64 66  1  0  0  0  0
 67 68  1  0  0  0  0
 67 64  1  0  0  0  0
 69 67  1  0  0  0  0
M  END
$$$$
