CSD_code = ROWBIQ | q = 0 | S = 0 | Stoichiometry = C15H25Br2NS2Zn | MND = 5
 OpenBabel04212202093D

 46 46  0  0  1  0  0  0  0  0999 V2000
    0.1030    0.1030   -0.0000 Zn  0  0  0  0  0  0  0  0  0  0  0  0
    2.1283   -1.0418    0.5803 Br  0  0  0  0  0  0  0  0  0  0  0  0
   -0.7447   -0.0169    2.6535 S   0  0  0  0  0  0  0  0  0  0  0  0
   -2.4114    0.6569    3.1492 C   0  0  0  0  0  0  0  0  0  0  0  0
   -2.8226    0.0069    4.4629 C   0  0  0  0  0  0  0  0  0  0  0  0
   -3.7143    0.4984    4.8472 H   0  0  0  0  0  0  0  0  0  0  0  0
   -2.0299    0.1031    5.2012 H   0  0  0  0  0  0  0  0  0  0  0  0
   -3.0533   -1.0486    4.3311 H   0  0  0  0  0  0  0  0  0  0  0  0
   -1.4740   -1.4740   -0.0000 N   0  0  0  0  0  0  0  0  0  0  0  0
   -2.1516    2.1479    3.3368 C   0  0  0  0  0  0  0  0  0  0  0  0
   -3.0558    2.6385    3.6899 H   0  0  0  0  0  0  0  0  0  0  0  0
   -1.8589    2.6069    2.3953 H   0  0  0  0  0  0  0  0  0  0  0  0
   -1.3593    2.3097    4.0645 H   0  0  0  0  0  0  0  0  0  0  0  0
   -1.7590   -2.1308    1.1230 C   0  0  2  0  0  3  0  0  0  0  0  0
   -0.9912   -1.7993    2.3589 C   0  0  0  0  0  0  0  0  0  0  0  0
    0.0316   -2.1776    2.2698 H   0  0  0  0  0  0  0  0  0  0  0  0
   -1.4511   -2.2430    3.2400 H   0  0  0  0  0  0  0  0  0  0  0  0
   -2.7297   -3.1268    1.1567 C   0  0  0  0  0  0  0  0  0  0  0  0
   -2.9296   -3.6520    2.0773 H   0  0  0  0  0  0  0  0  0  0  0  0
   -3.4505    0.4303    2.0640 C   0  0  0  0  0  0  0  0  0  0  0  0
   -3.6643   -0.6284    1.9263 H   0  0  0  0  0  0  0  0  0  0  0  0
   -3.1226    0.8556    1.1185 H   0  0  0  0  0  0  0  0  0  0  0  0
   -4.3764    0.9270    2.3488 H   0  0  0  0  0  0  0  0  0  0  0  0
   -3.4263   -3.4263   -0.0000 C   0  0  0  0  0  0  0  0  0  0  0  0
   -4.1894   -4.1894   -0.0000 H   0  0  0  0  0  0  0  0  0  0  0  0
   -0.0169   -0.7447   -2.6535 S   0  0  0  0  0  0  0  0  0  0  0  0
    0.6569   -2.4114   -3.1492 C   0  0  0  0  0  0  0  0  0  0  0  0
    0.0069   -2.8226   -4.4629 C   0  0  0  0  0  0  0  0  0  0  0  0
    0.4984   -3.7143   -4.8472 H   0  0  0  0  0  0  0  0  0  0  0  0
    0.1031   -2.0299   -5.2012 H   0  0  0  0  0  0  0  0  0  0  0  0
   -1.0486   -3.0533   -4.3311 H   0  0  0  0  0  0  0  0  0  0  0  0
    2.1479   -2.1516   -3.3368 C   0  0  0  0  0  0  0  0  0  0  0  0
    2.6385   -3.0558   -3.6899 H   0  0  0  0  0  0  0  0  0  0  0  0
    2.6069   -1.8589   -2.3953 H   0  0  0  0  0  0  0  0  0  0  0  0
    2.3097   -1.3593   -4.0645 H   0  0  0  0  0  0  0  0  0  0  0  0
   -2.1308   -1.7590   -1.1230 C   0  0  0  0  0  0  0  0  0  0  0  0
   -1.7993   -0.9912   -2.3589 C   0  0  0  0  0  0  0  0  0  0  0  0
   -2.1776    0.0316   -2.2698 H   0  0  0  0  0  0  0  0  0  0  0  0
   -2.2430   -1.4511   -3.2400 H   0  0  0  0  0  0  0  0  0  0  0  0
    0.4303   -3.4505   -2.0640 C   0  0  0  0  0  0  0  0  0  0  0  0
   -0.6284   -3.6643   -1.9263 H   0  0  0  0  0  0  0  0  0  0  0  0
    0.8556   -3.1226   -1.1185 H   0  0  0  0  0  0  0  0  0  0  0  0
    0.9270   -4.3764   -2.3488 H   0  0  0  0  0  0  0  0  0  0  0  0
   -3.1268   -2.7297   -1.1567 C   0  0  0  0  0  0  0  0  0  0  0  0
   -3.6520   -2.9296   -2.0773 H   0  0  0  0  0  0  0  0  0  0  0  0
   -1.0418    2.1283   -0.5803 Br  0  0  0  0  0  0  0  0  0  0  0  0
  1  9  1  0  0  0  0
  1  2  1  0  0  0  0
  3  4  1  0  0  0  0
  4 10  1  0  0  0  0
  4  5  1  0  0  0  0
  5  6  1  0  0  0  0
  5  7  1  0  0  0  0
  8  5  1  0  0  0  0
  9 14  1  0  0  0  0
 10 11  1  0  0  0  0
 10 13  1  0  0  0  0
 12 10  1  0  0  0  0
 14 18  1  0  0  0  0
 14 15  1  6  0  0  0
 15  3  1  0  0  0  0
 15 17  1  0  0  0  0
 16 15  1  0  0  0  0
 18 19  1  0  0  0  0
 20 23  1  0  0  0  0
 20  4  1  0  0  0  0
 21 20  1  0  0  0  0
 22 20  1  0  0  0  0
 24 25  1  0  0  0  0
 24 18  2  0  0  0  0
 26 37  1  0  0  0  0
 27 26  1  0  0  0  0
 27 40  1  0  0  0  0
 28 31  1  0  0  0  0
 28 27  1  0  0  0  0
 29 28  1  0  0  0  0
 30 28  1  0  0  0  0
 32 27  1  0  0  0  0
 32 34  1  0  0  0  0
 33 32  1  0  0  0  0
 35 32  1  0  0  0  0
 36  9  1  0  0  0  0
 37 38  1  0  0  0  0
 37 36  1  0  0  0  0
 39 37  1  0  0  0  0
 40 41  1  0  0  0  0
 40 42  1  0  0  0  0
 43 40  1  0  0  0  0
 44 36  2  0  0  0  0
 44 24  1  0  0  0  0
 45 44  1  0  0  0  0
 46  1  1  0  0  0  0
M  END
$$$$
