CSD_code = RUDMOT | q = 0 | S = 0 | Stoichiometry = C24H26Cl2N4Zn | MND = 6
 OpenBabel04212202093D

 57 63  0  0  1  0  0  0  0  0999 V2000
    7.5706    1.8883   13.8476 Zn  0  0  0  0  0  0  0  0  0  0  0  0
    6.2005    3.2964   12.6433 Cl  0  0  0  0  0  0  0  0  0  0  0  0
    8.6631    0.0616   14.7726 N   0  0  1  0  0  4  0  0  0  0  0  0
    9.4201    1.4853   12.5036 N   0  0  0  0  0  0  0  0  0  0  0  0
    8.3143   -1.1319   14.0147 C   0  0  0  0  0  0  0  0  0  0  0  0
   10.0594    0.4124   14.5811 C   0  0  0  0  0  0  0  0  0  0  0  0
   10.3635    0.8940   13.1961 C   0  0  0  0  0  0  0  0  0  0  0  0
   11.6816    0.7390   12.7169 C   0  0  0  0  0  0  0  0  0  0  0  0
   12.0066    1.2146   11.4806 C   0  0  0  0  0  0  0  0  0  0  0  0
   11.2746    2.3832    9.4322 C   0  0  0  0  0  3  0  0  0  0  0  0
   10.2879    3.0184    8.7315 C   0  0  0  0  0  0  0  0  0  0  0  0
    9.0104    3.1604    9.2932 C   0  0  0  0  0  0  0  0  0  0  0  0
    8.7245    2.6572   10.5332 C   0  0  0  0  0  0  0  0  0  0  0  0
    9.7151    1.9885   11.2779 C   0  0  0  0  0  0  0  0  0  0  0  0
   11.0164    1.8605   10.7145 C   0  0  0  0  0  0  0  0  0  0  0  0
    8.3992   -0.1149   16.1913 C   0  0  0  0  0  0  0  0  0  0  0  0
    8.8859   -1.1310   13.0852 H   0  0  0  0  0  0  0  0  0  0  0  0
    8.5686   -2.0465   14.5718 H   0  0  0  0  0  0  0  0  0  0  0  0
   10.7248   -0.4248   14.8449 H   0  0  0  0  0  0  0  0  0  0  0  0
   10.2742    1.2586   15.2443 H   0  0  0  0  0  0  0  0  0  0  0  0
   12.4136    0.2485   13.3403 H   0  0  0  0  0  0  0  0  0  0  0  0
   13.0056    1.1089   11.0816 H   0  0  0  0  0  0  0  0  0  0  0  0
   12.2691    2.2769    9.0225 H   0  0  0  0  0  0  0  0  0  0  0  0
   10.4888    3.4223    7.7503 H   0  0  0  0  0  0  0  0  0  0  0  0
    8.2437    3.6815    8.7400 H   0  0  0  0  0  0  0  0  0  0  0  0
    7.7523    2.8013   10.9754 H   0  0  0  0  0  0  0  0  0  0  0  0
    9.0109   -0.9239   16.6147 H   0  0  0  0  0  0  0  0  0  0  0  0
    8.6264    0.8117   16.7113 H   0  0  0  0  0  0  0  0  0  0  0  0
    7.3500   -0.3475   16.3529 H   0  0  0  0  0  0  0  0  0  0  0  0
    8.9394    3.2973   15.0526 Cl  0  0  0  0  0  0  0  0  0  0  0  0
    6.4780    0.0616   12.9227 N   0  0  1  0  0  4  0  0  0  0  0  0
    5.7209    1.4854   15.1916 N   0  0  0  0  0  0  0  0  0  0  0  0
    6.8266   -1.1319   13.6805 C   0  0  0  0  0  0  0  0  0  0  0  0
    5.0816    0.4125   13.1141 C   0  0  0  0  0  0  0  0  0  0  0  0
    4.7775    0.8941   14.4991 C   0  0  0  0  0  0  0  0  0  0  0  0
    3.4594    0.7391   14.9783 C   0  0  0  0  0  0  0  0  0  0  0  0
    3.1345    1.2146   16.2146 C   0  0  0  0  0  0  0  0  0  0  0  0
    3.8665    2.3831   18.2630 C   0  0  0  0  0  0  0  0  0  0  0  0
    4.8532    3.0184   18.9637 C   0  0  0  0  0  0  0  0  0  0  0  0
    6.1306    3.1605   18.4020 C   0  0  0  0  0  0  0  0  0  0  0  0
    6.4166    2.6573   17.1620 C   0  0  0  0  0  0  0  0  0  0  0  0
    5.4259    1.9886   16.4173 C   0  0  1  0  0  3  0  0  0  0  0  0
    4.1246    1.8605   16.9807 C   0  0  0  0  0  0  0  0  0  0  0  0
    6.7418   -0.1149   11.5039 C   0  0  0  0  0  0  0  0  0  0  0  0
    6.2551   -1.1309   14.6101 H   0  0  0  0  0  0  0  0  0  0  0  0
    6.5724   -2.0464   13.1235 H   0  0  0  0  0  0  0  0  0  0  0  0
    4.4162   -0.4246   12.8503 H   0  0  0  0  0  0  0  0  0  0  0  0
    4.8669    1.2588   12.4509 H   0  0  0  0  0  0  0  0  0  0  0  0
    2.7274    0.2485   14.3549 H   0  0  0  0  0  0  0  0  0  0  0  0
    2.1355    1.1089   16.6136 H   0  0  0  0  0  0  0  0  0  0  0  0
    2.8720    2.2769   18.6727 H   0  0  0  0  0  0  0  0  0  0  0  0
    4.6522    3.4222   19.9449 H   0  0  0  0  0  0  0  0  0  0  0  0
    6.8974    3.6815   18.9552 H   0  0  0  0  0  0  0  0  0  0  0  0
    7.3888    2.8014   16.7198 H   0  0  0  0  0  0  0  0  0  0  0  0
    6.1301   -0.9239   11.0806 H   0  0  0  0  0  0  0  0  0  0  0  0
    6.5146    0.8117   10.9839 H   0  0  0  0  0  0  0  0  0  0  0  0
    7.7910   -0.3475   11.3424 H   0  0  0  0  0  0  0  0  0  0  0  0
  1  3  1  0  0  0  0
  1 30  1  0  0  0  0
  1 32  1  0  0  0  0
  2  1  1  0  0  0  0
  3 16  1  1  0  0  0
  4  7  1  0  0  0  0
  4  1  1  0  0  0  0
  5 18  1  0  0  0  0
  5  3  1  0  0  0  0
  6  3  1  0  0  0  0
  6 19  1  0  0  0  0
  6 20  1  0  0  0  0
  7  6  1  0  0  0  0
  8  7  2  0  0  0  0
  8 21  1  0  0  0  0
  9  8  1  0  0  0  0
 10 15  1  0  0  0  0
 11 12  2  0  0  0  0
 11 10  1  0  0  0  0
 12 13  1  0  0  0  0
 13 26  1  0  0  0  0
 13 14  2  0  0  0  0
 14  4  1  0  0  0  0
 15 14  1  0  0  0  0
 15  9  2  0  0  0  0
 16 29  1  0  0  0  0
 16 27  1  0  0  0  0
 16 28  1  0  0  0  0
 17  5  1  0  0  0  0
 22  9  1  0  0  0  0
 23 10  1  0  0  0  0
 24 11  1  0  0  0  0
 25 12  1  0  0  0  0
 31 44  1  6  0  0  0
 31 34  1  0  0  0  0
 31 33  1  0  0  0  0
 31  1  1  0  0  0  0
 32 42  1  0  0  0  0
 33  5  1  0  0  0  0
 33 45  1  0  0  0  0
 34 35  1  0  0  0  0
 35 36  2  0  0  0  0
 35 32  1  0  0  0  0
 36 37  1  0  0  0  0
 37 50  1  0  0  0  0
 37 43  2  0  0  0  0
 38 51  1  0  0  0  0
 38 39  2  0  0  0  0
 39 52  1  0  0  0  0
 40 53  1  0  0  0  0
 40 39  1  0  0  0  0
 41 40  2  0  0  0  0
 42 43  1  6  0  0  0
 42 41  1  0  0  0  0
 43 38  1  0  0  0  0
 46 33  1  0  0  0  0
 47 34  1  0  0  0  0
 48 34  1  0  0  0  0
 49 36  1  0  0  0  0
 54 41  1  0  0  0  0
 55 44  1  0  0  0  0
 56 44  1  0  0  0  0
 57 44  1  0  0  0  0
M  END
$$$$
