CSD_code = RUDTEQ | q = 0 | S = 0 | Stoichiometry = C12H12Br2N2Zn | MND = 4
 OpenBabel04212202093D

 29 31  0  0  1  0  0  0  0  0999 V2000
    0.7188    9.5332    4.3017 C   0  0  0  0  0  0  0  0  0  0  0  0
    1.6755    9.0967    4.5932 H   0  0  0  0  0  0  0  0  0  0  0  0
    0.0356    8.7177    4.0590 H   0  0  0  0  0  0  0  0  0  0  0  0
    0.3167   10.0856    5.1461 H   0  0  0  0  0  0  0  0  0  0  0  0
    0.9006   10.4195    3.1191 C   0  0  1  0  0  3  0  0  0  0  0  0
    0.5900   11.7771    3.1672 C   0  0  0  0  0  0  0  0  0  0  0  0
    0.2066   12.2092    4.0774 H   0  0  0  0  0  0  0  0  0  0  0  0
    0.7828   12.5484    2.0377 C   0  0  0  0  0  0  0  0  0  0  0  0
    0.5516   13.6028    2.0467 H   0  0  0  0  0  0  0  0  0  0  0  0
    1.2781   11.9546    0.8883 C   0  0  0  0  0  0  0  0  0  0  0  0
    1.4334   12.5506    0.0056 H   0  0  0  0  0  0  0  0  0  0  0  0
    1.5678   10.5932    0.9027 C   0  0  0  0  0  0  0  0  0  0  0  0
    2.0987    9.8813   -0.2746 C   0  0  2  0  0  3  0  0  0  0  0  0
    2.3122   10.5099   -1.4980 C   0  0  0  0  0  0  0  0  0  0  0  0
    2.0889   11.5535   -1.6377 H   0  0  0  0  0  0  0  0  0  0  0  0
    2.8192    9.7703   -2.5540 C   0  0  0  0  0  0  0  0  0  0  0  0
    2.9922   10.2395   -3.5107 H   0  0  0  0  0  0  0  0  0  0  0  0
    3.0989    8.4306   -2.3676 C   0  0  0  0  0  0  0  0  0  0  0  0
    3.4951    7.8280   -3.1690 H   0  0  0  0  0  0  0  0  0  0  0  0
    2.8587    7.8576   -1.1202 C   0  0  0  0  0  0  0  0  0  0  0  0
    3.1311    6.4181   -0.8549 C   0  0  0  0  0  0  0  0  0  0  0  0
    2.2076    5.9083   -0.5750 H   0  0  0  0  0  0  0  0  0  0  0  0
    3.8372    6.3144   -0.0297 H   0  0  0  0  0  0  0  0  0  0  0  0
    3.5453    5.9299   -1.7323 H   0  0  0  0  0  0  0  0  0  0  0  0
    1.3745    9.8656    2.0078 N   0  0  0  0  0  0  0  0  0  0  0  0
    2.3723    8.5820   -0.1176 N   0  0  0  0  0  0  0  0  0  0  0  0
    1.8928    7.8249    1.7986 Zn  0  0  0  0  0  0  0  0  0  0  0  0
   -0.1460    6.6652    1.5206 Br  0  0  0  0  0  0  0  0  0  0  0  0
    3.9402    7.5530    2.9436 Br  0  0  0  0  0  0  0  0  0  0  0  0
  1  2  1  0  0  0  0
  1  4  1  0  0  0  0
  3  1  1  0  0  0  0
  5  6  1  0  0  0  0
  5  1  1  1  0  0  0
  6  7  1  0  0  0  0
  8  9  1  0  0  0  0
  8  6  2  0  0  0  0
 10 12  2  0  0  0  0
 10  8  1  0  0  0  0
 11 10  1  0  0  0  0
 12 25  1  0  0  0  0
 13 14  1  6  0  0  0
 13 26  1  0  0  0  0
 13 12  1  0  0  0  0
 15 14  1  0  0  0  0
 16 18  1  0  0  0  0
 16 14  2  0  0  0  0
 17 16  1  0  0  0  0
 18 20  2  0  0  0  0
 19 18  1  0  0  0  0
 20 21  1  0  0  0  0
 20 26  1  0  0  0  0
 21 22  1  0  0  0  0
 21 23  1  0  0  0  0
 24 21  1  0  0  0  0
 25  5  1  0  0  0  0
 26 27  1  0  0  0  0
 27 25  1  0  0  0  0
 27 29  1  0  0  0  0
 28 27  1  0  0  0  0
M  END
$$$$
