CSD_code = RUFLEJ | q = 0 | S = 0 | Stoichiometry = C17H25BCl2N9O3Rh | MND = 6
 OpenBabel04212202093D

 58 62  0  0  1  0  0  0  0  0999 V2000
    2.1890    6.5990    6.9652 Rh  0  0  0  0  0  0  0  0  0  0  0  0
    3.3898    4.2633    8.6407 B   0  0  1  0  0  0  0  0  0  0  0  0
    1.0821    8.3853    7.8745 Cl  0  0  0  0  0  0  0  0  0  0  0  0
    0.5682    6.3139    5.3635 Cl  0  0  0  0  0  0  0  0  0  0  0  0
    1.6507   12.5934    4.8007 O   0  0  0  0  0  0  0  0  0  0  0  0
    3.4579   10.8837    7.9643 O   0  0  0  0  0  0  0  0  0  0  0  0
    2.2662   11.6773    9.6949 O   0  0  0  0  0  0  0  0  0  0  0  0
    3.6004    6.7313    8.3890 N   0  0  2  0  0  0  0  0  0  0  0  0
    3.9986    5.6239    9.0191 N   0  0  0  0  0  0  0  0  0  0  0  0
    1.2026    5.3561    8.1706 N   0  0  2  0  0  0  0  0  0  0  0  0
    1.8716    4.4006    8.8231 N   0  0  0  0  0  0  0  0  0  0  0  0
    3.1617    4.9998    6.2706 N   0  0  1  0  0  0  0  0  0  0  0  0
    3.6233    4.0889    7.1299 N   0  0  0  0  0  0  0  0  0  0  0  0
    3.3096    7.8579    5.8105 N   0  0  0  0  0  0  0  0  0  0  0  0
    1.7072    9.0822    4.7428 N   0  0  0  0  0  0  0  0  0  0  0  0
    1.0876   11.1700    6.4683 N   0  0  0  0  0  0  0  0  0  0  0  0
   -0.0805    5.2616    8.4854 C   0  0  0  0  0  3  0  0  0  0  0  0
   -0.2534    4.2041    9.3764 C   0  0  0  0  0  0  0  0  0  0  0  0
    1.0109    3.6870    9.5615 C   0  0  0  0  0  0  0  0  0  0  0  0
    4.2726    7.7631    8.8787 C   0  0  0  0  0  3  0  0  0  0  0  0
    3.4569    4.6071    5.0411 C   0  0  0  0  0  3  0  0  0  0  0  0
    4.1384    3.3930    5.1026 C   0  0  0  0  0  0  0  0  0  0  0  0
    4.2198    3.1021    6.4484 C   0  0  0  0  0  0  0  0  0  0  0  0
    5.1393    7.3070    9.8710 C   0  0  0  0  0  0  0  0  0  0  0  0
    4.9318    5.9442    9.9247 C   0  0  0  0  0  0  0  0  0  0  0  0
    2.9611    8.9266    5.1509 C   0  0  2  0  0  3  0  0  0  0  0  0
    3.9787    9.9817    4.8484 C   0  0  0  0  0  0  0  0  0  0  0  0
    1.1487   10.3027    4.2239 C   0  0  0  0  0  0  0  0  0  0  0  0
    1.3345   11.4874    5.1886 C   0  0  0  0  0  0  0  0  0  0  0  0
    1.3966   12.0683    7.5497 C   0  0  0  0  0  0  0  0  0  0  0  0
    2.5002   11.4676    8.4083 C   0  0  0  0  0  0  0  0  0  0  0  0
    3.1257   11.0473   10.6490 C   0  0  0  0  0  0  0  0  0  0  0  0
    2.4780    9.7675   11.1576 C   0  0  0  0  0  0  0  0  0  0  0  0
    3.8435    3.3769    9.2718 H   0  0  0  0  0  0  0  0  0  0  0  0
    4.3055    7.8407    6.0180 H   0  0  0  0  0  0  0  0  0  0  0  0
    1.0735    8.3053    4.9659 H   0  0  0  0  0  0  0  0  0  0  0  0
    0.9198   10.2005    6.7498 H   0  0  0  0  0  0  0  0  0  0  0  0
   -0.8084    5.9347    8.0732 H   0  0  0  0  0  0  0  0  0  0  0  0
   -1.1699    3.8705    9.8162 H   0  0  0  0  0  0  0  0  0  0  0  0
    1.3470    2.8674   10.1636 H   0  0  0  0  0  0  0  0  0  0  0  0
    4.1076    8.7607    8.5158 H   0  0  0  0  0  0  0  0  0  0  0  0
    3.1668    5.1890    4.1877 H   0  0  0  0  0  0  0  0  0  0  0  0
    4.5110    2.8144    4.2834 H   0  0  0  0  0  0  0  0  0  0  0  0
    4.6575    2.2658    6.9543 H   0  0  0  0  0  0  0  0  0  0  0  0
    5.8169    7.8896   10.4598 H   0  0  0  0  0  0  0  0  0  0  0  0
    5.3832    5.1953   10.5431 H   0  0  0  0  0  0  0  0  0  0  0  0
    4.9655    9.5395    4.7304 H   0  0  0  0  0  0  0  0  0  0  0  0
    4.0122   10.6666    5.6971 H   0  0  0  0  0  0  0  0  0  0  0  0
    3.7290   10.5493    3.9581 H   0  0  0  0  0  0  0  0  0  0  0  0
    0.0804   10.1463    4.0665 H   0  0  0  0  0  0  0  0  0  0  0  0
    1.5965   10.5787    3.2630 H   0  0  0  0  0  0  0  0  0  0  0  0
    1.7411   13.0113    7.1100 H   0  0  0  0  0  0  0  0  0  0  0  0
    0.5192   12.2514    8.1744 H   0  0  0  0  0  0  0  0  0  0  0  0
    4.0888   10.8362   10.1737 H   0  0  0  0  0  0  0  0  0  0  0  0
    3.2626   11.7721   11.4549 H   0  0  0  0  0  0  0  0  0  0  0  0
    3.1637    9.2416   11.8155 H   0  0  0  0  0  0  0  0  0  0  0  0
    2.2224    9.1261   10.3173 H   0  0  0  0  0  0  0  0  0  0  0  0
    1.5658    9.9988   11.7007 H   0  0  0  0  0  0  0  0  0  0  0  0
  1  3  1  0  0  0  0
  1 10  1  0  0  0  0
  1  8  1  0  0  0  0
  2 11  1  0  0  0  0
  2  9  1  0  0  0  0
  2 34  1  1  0  0  0
  4  1  1  0  0  0  0
  5 29  2  0  0  0  0
  6 31  2  0  0  0  0
  7 32  1  0  0  0  0
  8 20  1  1  0  0  0
  8  9  1  0  0  0  0
  9 25  1  0  0  0  0
 10 17  1  6  0  0  0
 10 11  1  0  0  0  0
 11 19  1  0  0  0  0
 12 21  1  6  0  0  0
 12  1  1  0  0  0  0
 12 13  1  0  0  0  0
 13  2  1  0  0  0  0
 14 35  1  0  0  0  0
 14  1  1  0  0  0  0
 15 36  1  0  0  0  0
 16 37  1  0  0  0  0
 16 30  1  0  0  0  0
 17 18  1  0  0  0  0
 18 19  2  0  0  0  0
 18 39  1  0  0  0  0
 19 40  1  0  0  0  0
 20 24  1  0  0  0  0
 21 22  1  0  0  0  0
 22 23  2  0  0  0  0
 23 44  1  0  0  0  0
 23 13  1  0  0  0  0
 24 25  2  0  0  0  0
 24 45  1  0  0  0  0
 25 46  1  0  0  0  0
 26 15  1  6  0  0  0
 26 14  1  0  0  0  0
 27 26  1  0  0  0  0
 27 48  1  0  0  0  0
 28 15  1  0  0  0  0
 28 29  1  0  0  0  0
 29 16  1  0  0  0  0
 30 53  1  0  0  0  0
 30 31  1  0  0  0  0
 31  7  1  0  0  0  0
 32 33  1  0  0  0  0
 32 55  1  0  0  0  0
 33 58  1  0  0  0  0
 33 56  1  0  0  0  0
 38 17  1  0  0  0  0
 41 20  1  0  0  0  0
 42 21  1  0  0  0  0
 43 22  1  0  0  0  0
 47 27  1  0  0  0  0
 49 27  1  0  0  0  0
 50 28  1  0  0  0  0
 51 28  1  0  0  0  0
 52 30  1  0  0  0  0
 54 32  1  0  0  0  0
 57 33  1  0  0  0  0
M  END
$$$$
