CSD_code = RUGWAR | q = 1 | S = 0 | Stoichiometry = C20H32Cl2P4Rh(1+) | MND = 6
 OpenBabel04212202093D

 59 62  0  0  0  0  0  0  0  0999 V2000
   -1.1474   -0.0002    7.2953 Rh  0  0  0  0  0  0  0  0  0  0  0  0
   -1.9734    1.3761    5.6066 Cl  0  0  0  0  0  0  0  0  0  0  0  0
   -0.1133   -1.1186    5.5805 P   0  0  0  0  0  4  0  0  0  0  0  0
    0.6884    1.3725    7.2184 P   0  0  0  0  0  4  0  0  0  0  0  0
   -1.0971   -1.5900    4.1202 C   0  0  0  0  0  0  0  0  0  0  0  0
    0.8258   -2.6310    5.9775 C   0  0  0  0  0  0  0  0  0  0  0  0
    1.1833   -0.0388    4.8995 C   0  0  0  0  0  0  0  0  0  0  0  0
    1.8418   -0.3254    3.7097 C   0  0  0  0  0  0  0  0  0  0  0  0
    2.8429    0.5137    3.2541 C   0  0  0  0  0  0  0  0  0  0  0  0
    3.2018    1.6331    3.9887 C   0  0  0  0  0  0  0  0  0  0  0  0
    2.5611    1.9169    5.1814 C   0  0  0  0  0  0  0  0  0  0  0  0
    1.5445    1.0868    5.6384 C   0  0  0  0  0  0  0  0  0  0  0  0
    0.4372    3.1774    7.2576 C   0  0  0  0  0  0  0  0  0  0  0  0
    2.0263    1.0939    8.4264 C   0  0  0  0  0  0  0  0  0  0  0  0
   -1.5727   -0.6974    3.7149 H   0  0  0  0  0  0  0  0  0  0  0  0
   -1.8625   -2.3100    4.4082 H   0  0  0  0  0  0  0  0  0  0  0  0
   -0.4525   -2.0406    3.3670 H   0  0  0  0  0  0  0  0  0  0  0  0
    1.5057   -2.4206    6.8024 H   0  0  0  0  0  0  0  0  0  0  0  0
    0.1445   -3.4216    6.2870 H   0  0  0  0  0  0  0  0  0  0  0  0
    1.3929   -2.9495    5.1031 H   0  0  0  0  0  0  0  0  0  0  0  0
    1.5780   -1.1996    3.1332 H   0  0  0  0  0  0  0  0  0  0  0  0
    3.3459    0.2939    2.3252 H   0  0  0  0  0  0  0  0  0  0  0  0
    3.9842    2.2848    3.6315 H   0  0  0  0  0  0  0  0  0  0  0  0
    2.8567    2.7865    5.7494 H   0  0  0  0  0  0  0  0  0  0  0  0
    0.0011    3.4679    8.2129 H   0  0  0  0  0  0  0  0  0  0  0  0
    1.3906    3.6888    7.1333 H   0  0  0  0  0  0  0  0  0  0  0  0
   -0.2399    3.4546    6.4502 H   0  0  0  0  0  0  0  0  0  0  0  0
    1.6811    1.3431    9.4283 H   0  0  0  0  0  0  0  0  0  0  0  0
    2.3047    0.0406    8.4110 H   0  0  0  0  0  0  0  0  0  0  0  0
    2.8882    1.7079    8.1659 H   0  0  0  0  0  0  0  0  0  0  0  0
   -0.3211   -1.3765    8.9845 Cl  0  0  0  0  0  0  0  0  0  0  0  0
   -2.1820    1.1187    9.0100 P   0  0  0  0  0  4  0  0  0  0  0  0
   -1.1982    1.5901   10.4703 C   0  0  0  0  0  0  0  0  0  0  0  0
   -0.7226    0.6975   10.8756 H   0  0  0  0  0  0  0  0  0  0  0  0
   -0.4328    2.3100   10.1823 H   0  0  0  0  0  0  0  0  0  0  0  0
   -1.8428    2.0406   11.2235 H   0  0  0  0  0  0  0  0  0  0  0  0
   -3.1212    2.6311    8.6131 C   0  0  0  0  0  0  0  0  0  0  0  0
   -3.8011    2.4206    7.7881 H   0  0  0  0  0  0  0  0  0  0  0  0
   -2.4399    3.4217    8.3035 H   0  0  0  0  0  0  0  0  0  0  0  0
   -3.6883    2.9495    9.4875 H   0  0  0  0  0  0  0  0  0  0  0  0
   -3.4786    0.0388    9.6911 C   0  0  0  0  0  0  0  0  0  0  0  0
   -4.1370    0.3253   10.8809 C   0  0  0  0  0  0  0  0  0  0  0  0
   -5.1381   -0.5138   11.3365 C   0  0  0  0  0  0  0  0  0  0  0  0
   -5.4970   -1.6331   10.6019 C   0  0  0  0  0  0  0  0  0  0  0  0
   -4.8563   -1.9169    9.4092 C   0  0  0  0  0  0  0  0  0  0  0  0
   -3.8398   -1.0869    8.9522 C   0  0  0  0  0  0  0  0  0  0  0  0
   -2.9838   -1.3724    7.3721 P   0  0  0  0  0  4  0  0  0  0  0  0
   -2.7325   -3.1773    7.3329 C   0  0  0  0  0  0  0  0  0  0  0  0
   -2.2964   -3.4679    6.3777 H   0  0  0  0  0  0  0  0  0  0  0  0
   -3.6858   -3.6887    7.4572 H   0  0  0  0  0  0  0  0  0  0  0  0
   -2.0554   -3.4545    8.1403 H   0  0  0  0  0  0  0  0  0  0  0  0
   -4.3217   -1.0938    6.1641 C   0  0  0  0  0  0  0  0  0  0  0  0
   -3.9765   -1.3430    5.1622 H   0  0  0  0  0  0  0  0  0  0  0  0
   -4.6001   -0.0406    6.1796 H   0  0  0  0  0  0  0  0  0  0  0  0
   -5.1835   -1.7078    6.4246 H   0  0  0  0  0  0  0  0  0  0  0  0
   -5.1519   -2.7865    8.8412 H   0  0  0  0  0  0  0  0  0  0  0  0
   -6.2794   -2.2848   10.9592 H   0  0  0  0  0  0  0  0  0  0  0  0
   -5.6411   -0.2940   12.2655 H   0  0  0  0  0  0  0  0  0  0  0  0
   -3.8733    1.1995   11.4575 H   0  0  0  0  0  0  0  0  0  0  0  0
  1 47  1  0  0  0  0
  1 31  1  0  0  0  0
  1 32  1  0  0  0  0
  2  1  1  0  0  0  0
  3  6  1  0  0  0  0
  3  1  1  0  0  0  0
  4 13  1  0  0  0  0
  4  1  1  0  0  0  0
  4 14  1  0  0  0  0
  5 16  1  0  0  0  0
  5  3  1  0  0  0  0
  6 19  1  0  0  0  0
  6 18  1  0  0  0  0
  7  3  1  0  0  0  0
  7 12  1  0  0  0  0
  8  7  2  0  0  0  0
  9  8  1  0  0  0  0
  9 10  2  0  0  0  0
 10 11  1  0  0  0  0
 11 12  2  0  0  0  0
 11 24  1  0  0  0  0
 12  4  1  0  0  0  0
 13 25  1  0  0  0  0
 14 28  1  0  0  0  0
 15  5  1  0  0  0  0
 17  5  1  0  0  0  0
 20  6  1  0  0  0  0
 21  8  1  0  0  0  0
 22  9  1  0  0  0  0
 23 10  1  0  0  0  0
 26 13  1  0  0  0  0
 27 13  1  0  0  0  0
 29 14  1  0  0  0  0
 30 14  1  0  0  0  0
 32 41  1  0  0  0  0
 32 33  1  0  0  0  0
 33 34  1  0  0  0  0
 33 36  1  0  0  0  0
 35 33  1  0  0  0  0
 37 32  1  0  0  0  0
 37 40  1  0  0  0  0
 38 37  1  0  0  0  0
 39 37  1  0  0  0  0
 41 42  1  0  0  0  0
 42 43  2  0  0  0  0
 42 59  1  0  0  0  0
 43 58  1  0  0  0  0
 44 57  1  0  0  0  0
 44 43  1  0  0  0  0
 45 44  2  0  0  0  0
 46 45  1  0  0  0  0
 46 41  2  0  0  0  0
 47 46  1  0  0  0  0
 48 47  1  0  0  0  0
 48 50  1  0  0  0  0
 48 51  1  0  0  0  0
 49 48  1  0  0  0  0
 52 54  1  0  0  0  0
 52 55  1  0  0  0  0
 52 47  1  0  0  0  0
 53 52  1  0  0  0  0
 56 45  1  0  0  0  0
M  END
$$$$
