CSD_code = RUJGEJ | q = 0 | S = 0 | Stoichiometry = C16H8Cl2N6Pt | MND = 4
 OpenBabel04212202093D

 33 36  0  0  0  0  0  0  0  0999 V2000
    0.4161    3.9688   15.4869 Pt  0  0  0  0  0  0  0  0  0  0  0  0
   -0.3057    1.9598   14.8144 Cl  0  0  0  0  0  0  0  0  0  0  0  0
    2.5669    3.3645   15.3312 Cl  0  0  0  0  0  0  0  0  0  0  0  0
    0.6536    5.3768   19.5135 N   0  0  0  0  0  0  0  0  0  0  0  0
   -1.3032    3.5838   18.9299 N   0  0  0  0  0  0  0  0  0  0  0  0
   -1.1670    1.5815   21.7092 N   0  0  0  0  0  0  0  0  0  0  0  0
    1.0828    4.7653   22.8470 N   0  0  0  0  0  0  0  0  0  0  0  0
    1.0246    5.7928   16.0713 N   0  0  0  0  0  0  0  0  0  0  0  0
   -1.5073    4.5140   15.6782 N   0  0  0  0  0  0  0  0  0  0  0  0
    0.1651    5.3287   18.2856 C   0  0  0  0  0  0  0  0  0  0  0  0
   -0.9611    4.4930   18.0332 C   0  0  0  0  0  0  0  0  0  0  0  0
   -0.6582    3.4928   20.0826 C   0  0  0  0  0  0  0  0  0  0  0  0
    0.2459    4.5198   20.4388 C   0  0  0  0  0  0  0  0  0  0  0  0
   -0.9475    2.4211   20.9625 C   0  0  0  0  0  0  0  0  0  0  0  0
    0.7212    4.6645   21.7652 C   0  0  0  0  0  0  0  0  0  0  0  0
    0.8399    6.2155   17.3299 C   0  0  0  0  0  0  0  0  0  0  0  0
    1.3482    7.4340   17.7743 C   0  0  0  0  0  0  0  0  0  0  0  0
    1.1941    7.7216   18.8016 H   0  0  0  0  0  0  0  0  0  0  0  0
    2.0504    8.2345   16.8923 C   0  0  0  0  0  0  0  0  0  0  0  0
    2.4551    9.1809   17.2145 H   0  0  0  0  0  0  0  0  0  0  0  0
    2.2374    7.7843   15.5915 C   0  0  0  0  0  0  0  0  0  0  0  0
    2.7927    8.3668   14.8746 H   0  0  0  0  0  0  0  0  0  0  0  0
    1.7161    6.5579   15.2266 C   0  0  0  0  0  0  0  0  0  0  0  0
    1.8653    6.1536   14.2332 H   0  0  0  0  0  0  0  0  0  0  0  0
   -1.9452    4.6411   16.9340 C   0  0  0  0  0  0  0  0  0  0  0  0
   -3.2908    4.8172   17.2271 C   0  0  0  0  0  0  0  0  0  0  0  0
   -3.6103    4.8870   18.2546 H   0  0  0  0  0  0  0  0  0  0  0  0
   -4.1995    4.8824   16.1826 C   0  0  0  0  0  0  0  0  0  0  0  0
   -5.2512    5.0163   16.3816 H   0  0  0  0  0  0  0  0  0  0  0  0
   -3.7323    4.7503   14.8831 C   0  0  0  0  0  0  0  0  0  0  0  0
   -4.4078    4.7774   14.0436 H   0  0  0  0  0  0  0  0  0  0  0  0
   -2.3785    4.5579   14.6737 C   0  0  0  0  0  0  0  0  0  0  0  0
   -1.9709    4.4150   13.6814 H   0  0  0  0  0  0  0  0  0  0  0  0
  1  9  1  0  0  0  0
  1  8  1  0  0  0  0
  2  1  1  0  0  0  0
  3  1  1  0  0  0  0
  4 13  2  0  0  0  0
  5 12  2  0  0  0  0
  8 16  1  0  0  0  0
  9 25  1  0  0  0  0
 10  4  1  0  0  0  0
 11 10  1  0  0  0  0
 11  5  1  0  0  0  0
 12 13  1  0  0  0  0
 12 14  1  0  0  0  0
 13 15  1  0  0  0  0
 14  6  3  0  0  0  0
 15  7  3  0  0  0  0
 16 17  1  0  0  0  0
 16 10  2  0  0  0  0
 17 18  1  0  0  0  0
 19 20  1  0  0  0  0
 19 17  2  0  0  0  0
 21 19  1  0  0  0  0
 22 21  1  0  0  0  0
 23 21  2  0  0  0  0
 23  8  1  0  0  0  0
 24 23  1  0  0  0  0
 25 26  1  0  0  0  0
 25 11  2  0  0  0  0
 26 27  1  0  0  0  0
 28 29  1  0  0  0  0
 28 26  2  0  0  0  0
 30 28  1  0  0  0  0
 31 30  1  0  0  0  0
 32 30  2  0  0  0  0
 32  9  1  0  0  0  0
 33 32  1  0  0  0  0
M  END
$$$$
