CSD_code = RUJQIW | q = 0 | S = 0 | Stoichiometry = C15H28ClN3O2P2Pt | MND = 4
 OpenBabel04212202093D

 52 53  0  0  1  0  0  0  0  0999 V2000
    3.9991    0.7651    0.8226 Pt  0  0  1  0  0  0  0  0  0  0  0  0
    1.9687    0.9766    1.9669 Cl  0  0  0  0  0  0  0  0  0  0  0  0
    2.8023    0.6586   -1.1055 P   0  0  0  0  0  4  0  0  0  0  0  0
    6.0384    0.6042   -0.1672 P   0  0  1  0  0  0  0  0  0  0  0  0
    6.6137   -0.4216   -1.0387 O   0  0  0  0  0  0  0  0  0  0  0  0
    6.4312    2.0543   -0.7951 O   0  0  0  0  0  0  0  0  0  0  0  0
    5.0664    0.6989    2.5649 N   0  0  0  0  0  0  0  0  0  0  0  0
    6.9812    0.6555    1.3238 N   0  0  0  0  0  0  0  0  0  0  0  0
    4.4537    0.5515    3.8251 N   0  0  0  0  0  0  0  0  0  0  0  0
    6.3616    0.5870    2.5095 C   0  0  1  0  0  3  0  0  0  0  0  0
    7.2051    0.3934    3.7100 C   0  0  0  0  0  0  0  0  0  0  0  0
    7.0625    1.2180    4.8217 C   0  0  0  0  0  0  0  0  0  0  0  0
    7.8757    1.0335    5.9246 C   0  0  0  0  0  0  0  0  0  0  0  0
    8.8261    0.0255    5.9319 C   0  0  0  0  0  0  0  0  0  0  0  0
    8.9687   -0.7985    4.8278 C   0  0  0  0  0  0  0  0  0  0  0  0
    8.1673   -0.6130    3.7159 C   0  0  0  0  0  0  0  0  0  0  0  0
    4.2353   -0.8469    4.1614 C   0  0  0  0  0  0  0  0  0  0  0  0
    5.9225    3.2241   -0.1967 C   0  0  0  0  0  0  0  0  0  0  0  0
    3.8056    0.8537   -2.6352 C   0  0  0  0  0  0  0  0  0  0  0  0
    3.0550    0.7458   -3.9560 C   0  0  0  0  0  0  0  0  0  0  0  0
    1.3320    1.7380   -1.3367 C   0  0  0  0  0  0  0  0  0  0  0  0
    1.7344    3.2066   -1.2796 C   0  0  0  0  0  0  0  0  0  0  0  0
    2.1099   -1.0413   -1.1930 C   0  0  0  0  0  0  0  0  0  0  0  0
    3.1610   -2.0285   -0.6930 C   0  0  0  0  0  0  0  0  0  0  0  0
    3.5375    1.0034    3.7460 H   0  0  0  0  0  0  0  0  0  0  0  0
    6.3177    1.9974    4.8132 H   0  0  0  0  0  0  0  0  0  0  0  0
    7.7658    1.6785    6.7834 H   0  0  0  0  0  0  0  0  0  0  0  0
    9.4552   -0.1191    6.7975 H   0  0  0  0  0  0  0  0  0  0  0  0
    8.2676   -1.2647    2.8591 H   0  0  0  0  0  0  0  0  0  0  0  0
    3.6488   -1.3741    3.3959 H   0  0  0  0  0  0  0  0  0  0  0  0
    3.6983   -0.8830    5.1061 H   0  0  0  0  0  0  0  0  0  0  0  0
    4.3056    1.8238   -2.5636 H   0  0  0  0  0  0  0  0  0  0  0  0
    4.5945    0.0987   -2.5724 H   0  0  0  0  0  0  0  0  0  0  0  0
    2.3371    1.5553   -4.0720 H   0  0  0  0  0  0  0  0  0  0  0  0
    3.7630    0.8045   -4.7802 H   0  0  0  0  0  0  0  0  0  0  0  0
    0.8391    1.4878   -2.2797 H   0  0  0  0  0  0  0  0  0  0  0  0
    0.6454    1.5111   -0.5174 H   0  0  0  0  0  0  0  0  0  0  0  0
    2.2411    3.4073   -0.3352 H   0  0  0  0  0  0  0  0  0  0  0  0
    2.4086    3.4620   -2.0949 H   0  0  0  0  0  0  0  0  0  0  0  0
    1.2332   -1.0651   -0.5391 H   0  0  0  0  0  0  0  0  0  0  0  0
    1.7896   -1.2785   -2.2104 H   0  0  0  0  0  0  0  0  0  0  0  0
    4.0518   -2.0029   -1.3180 H   0  0  0  0  0  0  0  0  0  0  0  0
    3.4589   -1.7574    0.3274 H   0  0  0  0  0  0  0  0  0  0  0  0
    9.7063   -1.5871    4.8306 H   0  0  0  0  0  0  0  0  0  0  0  0
    5.1990   -1.3445    4.2782 H   0  0  0  0  0  0  0  0  0  0  0  0
    4.9863    3.0057    0.3496 H   0  0  0  0  0  0  0  0  0  0  0  0
    6.6487    3.6431    0.5036 H   0  0  0  0  0  0  0  0  0  0  0  0
    5.7215    3.9496   -0.9864 H   0  0  0  0  0  0  0  0  0  0  0  0
    2.5263   -0.2014   -4.0375 H   0  0  0  0  0  0  0  0  0  0  0  0
    0.8581    3.8485   -1.3413 H   0  0  0  0  0  0  0  0  0  0  0  0
    2.7698   -3.0438   -0.6803 H   0  0  0  0  0  0  0  0  0  0  0  0
    7.9813    0.5122    1.2846 H   0  0  0  0  0  0  0  0  0  0  0  0
  1  2  1  6  0  0  0
  1  7  1  0  0  0  0
  3  1  1  0  0  0  0
  4  5  2  6  0  0  0
  4  1  1  0  0  0  0
  4  8  1  0  0  0  0
  6 18  1  0  0  0  0
  6  4  1  0  0  0  0
  7  9  1  0  0  0  0
  8 10  1  0  0  0  0
  9 17  1  0  0  0  0
 10  7  1  0  0  0  0
 10 11  1  1  0  0  0
 11 16  2  0  0  0  0
 11 12  1  0  0  0  0
 12 13  2  0  0  0  0
 13 14  1  0  0  0  0
 13 27  1  0  0  0  0
 14 28  1  0  0  0  0
 15 44  1  0  0  0  0
 15 14  2  0  0  0  0
 16 15  1  0  0  0  0
 17 45  1  0  0  0  0
 17 31  1  0  0  0  0
 18 46  1  0  0  0  0
 18 47  1  0  0  0  0
 19 33  1  0  0  0  0
 19 32  1  0  0  0  0
 19  3  1  0  0  0  0
 20 19  1  0  0  0  0
 21 22  1  0  0  0  0
 21  3  1  0  0  0  0
 21 37  1  0  0  0  0
 22 38  1  0  0  0  0
 23  3  1  0  0  0  0
 23 24  1  0  0  0  0
 23 40  1  0  0  0  0
 24 51  1  0  0  0  0
 24 43  1  0  0  0  0
 25  9  1  0  0  0  0
 26 12  1  0  0  0  0
 29 16  1  0  0  0  0
 30 17  1  0  0  0  0
 34 20  1  0  0  0  0
 35 20  1  0  0  0  0
 36 21  1  0  0  0  0
 39 22  1  0  0  0  0
 41 23  1  0  0  0  0
 42 24  1  0  0  0  0
 48 18  1  0  0  0  0
 49 20  1  0  0  0  0
 50 22  1  0  0  0  0
 52  8  1  0  0  0  0
M  END
$$$$
