CSD_code = RUJQOC | q = 0 | S = 0 | Stoichiometry = C10H26ClN3O2P2Pt | MND = 4
 OpenBabel04212202093D

 45 45  0  0  1  0  0  0  0  0999 V2000
    0.8692    2.6774    1.9006 Pt  0  0  1  0  0  0  0  0  0  0  0  0
    2.5575    3.1304    0.3719 Cl  0  0  0  0  0  0  0  0  0  0  0  0
    1.9260    3.7480    3.5750 P   0  0  0  0  0  4  0  0  0  0  0  0
   -0.8872    2.1653    3.2354 P   0  0  1  0  0  0  0  0  0  0  0  0
    0.8548    4.9528    4.4487 C   0  0  0  0  0  0  0  0  0  0  0  0
    0.3015    5.9535    3.4403 C   0  0  0  0  0  0  0  0  0  0  0  0
    3.4697    4.6532    3.1463 C   0  0  0  0  0  0  0  0  0  0  0  0
    4.1065    5.4488    4.2773 C   0  0  0  0  0  0  0  0  0  0  0  0
    2.3887    2.5279    4.8644 C   0  0  0  0  0  0  0  0  0  0  0  0
    3.0705    1.3383    4.1951 C   0  0  0  0  0  0  0  0  0  0  0  0
   -3.0711    3.5471    3.7640 C   0  0  0  0  0  0  0  0  0  0  0  0
   -1.2915    1.3148    0.1873 C   0  0  2  0  0  3  0  0  0  0  0  0
   -1.9016    1.2895   -1.1865 C   0  0  0  0  0  0  0  0  0  0  0  0
   -3.4753    0.6098    1.0299 C   0  0  0  0  0  0  0  0  0  0  0  0
   -0.8550    1.9040    4.6852 O   0  0  0  0  0  0  0  0  0  0  0  0
   -2.0354    3.2716    2.8447 O   0  0  0  0  0  0  0  0  0  0  0  0
   -0.0713    1.7038    0.3681 N   0  0  0  0  0  0  0  0  0  0  0  0
   -1.6204    0.7574    2.5075 N   0  0  0  0  0  0  0  0  0  0  0  0
   -2.0570    0.8494    1.1885 N   0  0  0  0  0  0  0  0  0  0  0  0
    0.0409    4.3679    4.8836 H   0  0  0  0  0  0  0  0  0  0  0  0
    1.3991    5.4464    5.2569 H   0  0  0  0  0  0  0  0  0  0  0  0
    1.0919    6.5890    3.0450 H   0  0  0  0  0  0  0  0  0  0  0  0
   -0.1510    5.4088    2.6072 H   0  0  0  0  0  0  0  0  0  0  0  0
   -0.4577    6.5876    3.8937 H   0  0  0  0  0  0  0  0  0  0  0  0
    4.1624    3.8988    2.7641 H   0  0  0  0  0  0  0  0  0  0  0  0
    3.2260    5.3051    2.3036 H   0  0  0  0  0  0  0  0  0  0  0  0
    3.4671    6.2710    4.5893 H   0  0  0  0  0  0  0  0  0  0  0  0
    4.3070    4.8188    5.1410 H   0  0  0  0  0  0  0  0  0  0  0  0
    5.0524    5.8690    3.9406 H   0  0  0  0  0  0  0  0  0  0  0  0
    3.0227    2.9776    5.6315 H   0  0  0  0  0  0  0  0  0  0  0  0
    1.4497    2.2067    5.3220 H   0  0  0  0  0  0  0  0  0  0  0  0
    2.4511    0.9968    3.3560 H   0  0  0  0  0  0  0  0  0  0  0  0
    4.0489    1.6119    3.8049 H   0  0  0  0  0  0  0  0  0  0  0  0
    3.1931    0.5136    4.8937 H   0  0  0  0  0  0  0  0  0  0  0  0
   -4.0110    3.1181    3.4088 H   0  0  0  0  0  0  0  0  0  0  0  0
   -2.8285    3.1203    4.7401 H   0  0  0  0  0  0  0  0  0  0  0  0
   -3.1760    4.6301    3.8500 H   0  0  0  0  0  0  0  0  0  0  0  0
   -2.7515    1.9676   -1.2339 H   0  0  0  0  0  0  0  0  0  0  0  0
   -1.1687    1.6055   -1.9247 H   0  0  0  0  0  0  0  0  0  0  0  0
   -2.2468    0.2894   -1.4413 H   0  0  0  0  0  0  0  0  0  0  0  0
   -3.9994    1.5084    0.6978 H   0  0  0  0  0  0  0  0  0  0  0  0
   -3.6636   -0.1998    0.3221 H   0  0  0  0  0  0  0  0  0  0  0  0
   -3.8592    0.3215    2.0056 H   0  0  0  0  0  0  0  0  0  0  0  0
    0.4308    1.9390   -0.4870 H   0  0  0  0  0  0  0  0  0  0  0  0
   -0.9893   -0.0302    2.6454 H   0  0  0  0  0  0  0  0  0  0  0  0
  1  2  1  6  0  0  0
  1  4  1  0  0  0  0
  1  3  1  0  0  0  0
  3  5  1  0  0  0  0
  3  9  1  0  0  0  0
  4 15  2  1  0  0  0
  5 20  1  0  0  0  0
  5 21  1  0  0  0  0
  6 24  1  0  0  0  0
  6  5  1  0  0  0  0
  7  3  1  0  0  0  0
  7  8  1  0  0  0  0
  8 27  1  0  0  0  0
  8 28  1  0  0  0  0
  9 31  1  0  0  0  0
  9 30  1  0  0  0  0
 10  9  1  0  0  0  0
 10 34  1  0  0  0  0
 11 37  1  0  0  0  0
 11 36  1  0  0  0  0
 12 13  1  6  0  0  0
 12 17  1  0  0  0  0
 12 19  1  0  0  0  0
 14 19  1  0  0  0  0
 14 43  1  0  0  0  0
 16  4  1  0  0  0  0
 16 11  1  0  0  0  0
 17  1  1  0  0  0  0
 18 45  1  0  0  0  0
 18  4  1  0  0  0  0
 19 18  1  0  0  0  0
 22  6  1  0  0  0  0
 23  6  1  0  0  0  0
 25  7  1  0  0  0  0
 26  7  1  0  0  0  0
 29  8  1  0  0  0  0
 32 10  1  0  0  0  0
 33 10  1  0  0  0  0
 35 11  1  0  0  0  0
 38 13  1  0  0  0  0
 39 13  1  0  0  0  0
 40 13  1  0  0  0  0
 41 14  1  0  0  0  0
 42 14  1  0  0  0  0
 44 17  1  0  0  0  0
M  END
$$$$
