CSD_code = RUJRAP | q = 0 | S = 0 | Stoichiometry = C13H13ClN2OPt | MND = 4
 OpenBabel04212202093D

 31 33  0  0  0  0  0  0  0  0999 V2000
    3.2500    2.9908    2.6535 Pt  0  0  1  0  0  0  0  0  0  0  0  0
    2.1917    2.7697    0.6987 Cl  0  0  0  0  0  0  0  0  0  0  0  0
    5.7604    0.5592    3.2434 O   0  0  0  0  0  0  0  0  0  0  0  0
    4.0921    3.4054    4.4171 N   0  0  0  0  0  0  0  0  0  0  0  0
    2.9085    5.0475    2.7294 N   0  0  0  0  0  0  0  0  0  0  0  0
    4.8105    2.5779    5.1774 C   0  0  0  0  0  0  0  0  0  0  0  0
    5.0487    1.6065    4.7588 H   0  0  0  0  0  0  0  0  0  0  0  0
    5.2923    2.9301    6.4242 C   0  0  0  0  0  0  0  0  0  0  0  0
    5.8692    2.2190    6.9920 H   0  0  0  0  0  0  0  0  0  0  0  0
    5.0217    4.1980    6.9191 C   0  0  0  0  0  0  0  0  0  0  0  0
    5.3700    4.5037    7.8933 H   0  0  0  0  0  0  0  0  0  0  0  0
    4.3097    5.0731    6.1213 C   0  0  0  0  0  0  0  0  0  0  0  0
    4.1122    6.0742    6.4671 H   0  0  0  0  0  0  0  0  0  0  0  0
    3.8579    4.6631    4.8683 C   0  0  0  0  0  0  0  0  0  0  0  0
    3.1509    5.5578    3.9511 C   0  0  0  0  0  0  0  0  0  0  0  0
    2.7603    6.8592    4.2687 C   0  0  0  0  0  0  0  0  0  0  0  0
    2.9365    7.2617    5.2525 H   0  0  0  0  0  0  0  0  0  0  0  0
    2.1311    7.6326    3.3112 C   0  0  0  0  0  0  0  0  0  0  0  0
    1.8220    8.6404    3.5429 H   0  0  0  0  0  0  0  0  0  0  0  0
    1.9038    7.0917    2.0530 C   0  0  0  0  0  0  0  0  0  0  0  0
    1.4204    7.6630    1.2776 H   0  0  0  0  0  0  0  0  0  0  0  0
    2.3061    5.7910    1.8099 C   0  0  0  0  0  0  0  0  0  0  0  0
    2.1392    5.3155    0.8518 H   0  0  0  0  0  0  0  0  0  0  0  0
    3.4753    0.9307    2.7068 C   0  0  0  0  0  0  0  0  0  0  0  0
    3.2305    0.5372    3.7000 H   0  0  0  0  0  0  0  0  0  0  0  0
    2.8394    0.4692    1.9490 H   0  0  0  0  0  0  0  0  0  0  0  0
    4.9020    0.7464    2.3896 C   0  0  0  0  0  0  0  0  0  0  0  0
    5.2683    0.7989    0.9215 C   0  0  0  0  0  0  0  0  0  0  0  0
    4.8159    1.6719    0.4522 H   0  0  0  0  0  0  0  0  0  0  0  0
    4.8806   -0.0886    0.4253 H   0  0  0  0  0  0  0  0  0  0  0  0
    6.3489    0.8287    0.8071 H   0  0  0  0  0  0  0  0  0  0  0  0
  1  2  1  6  0  0  0
  1 24  1  0  0  0  0
  1  5  1  0  0  0  0
  1  4  1  0  0  0  0
  4 14  1  0  0  0  0
  4  6  1  0  0  0  0
  5 15  1  0  0  0  0
  6  8  2  0  0  0  0
  7  6  1  0  0  0  0
  8 10  1  0  0  0  0
  8  9  1  0  0  0  0
 10 11  1  0  0  0  0
 12 13  1  0  0  0  0
 12 10  2  0  0  0  0
 14 12  1  0  0  0  0
 15 16  1  0  0  0  0
 15 14  2  0  0  0  0
 16 17  1  0  0  0  0
 18 19  1  0  0  0  0
 18 16  2  0  0  0  0
 20 18  1  0  0  0  0
 21 20  1  0  0  0  0
 22 20  2  0  0  0  0
 22  5  1  0  0  0  0
 23 22  1  0  0  0  0
 24 25  1  0  0  0  0
 26 24  1  0  0  0  0
 27 24  1  0  0  0  0
 27  3  2  0  0  0  0
 28 27  1  0  0  0  0
 29 28  1  0  0  0  0
 30 28  1  0  0  0  0
 31 28  1  0  0  0  0
M  END
$$$$
