CSD_code = RUJWIE | q = 0 | S = 0 | Stoichiometry = C28H25ClNOPPd | MND = 4
 OpenBabel04212202093D

 58 63  0  0  1  0  0  0  0  0999 V2000
   10.1032    6.1579    7.2849 Pd  0  0  2  0  0  0  0  0  0  0  0  0
   12.0237    5.0575    6.9614 Cl  0  0  0  0  0  0  0  0  0  0  0  0
   11.1575    8.0738    6.9847 P   0  0  0  0  0  4  0  0  0  0  0  0
    9.1672    4.4022    7.7702 O   0  0  0  0  0  0  0  0  0  0  0  0
    8.3296    7.0948    7.5931 N   0  0  2  0  0  0  0  0  0  0  0  0
    7.5354    6.6978    8.5332 C   0  0  2  0  0  3  0  0  0  0  0  0
    7.8355    5.5777    9.3952 C   0  0  0  0  0  0  0  0  0  0  0  0
   12.0791    9.9863    8.8786 C   0  0  0  0  0  0  0  0  0  0  0  0
   12.2122   10.6826    8.0622 H   0  0  0  0  0  0  0  0  0  0  0  0
   10.1209    9.4252    6.2650 C   0  0  0  0  0  0  0  0  0  0  0  0
   10.6164   10.3902    6.4030 H   0  0  0  0  0  0  0  0  0  0  0  0
   10.0404    9.2371    5.1893 H   0  0  0  0  0  0  0  0  0  0  0  0
    8.7331    9.4399    6.9034 C   0  0  0  0  0  0  0  0  0  0  0  0
    8.1571   10.2709    6.4886 H   0  0  0  0  0  0  0  0  0  0  0  0
    8.8333    9.6038    7.9801 H   0  0  0  0  0  0  0  0  0  0  0  0
   11.6081    8.7000    8.6315 C   0  0  0  0  0  0  0  0  0  0  0  0
    8.6262    4.4692    8.9299 C   0  0  0  0  0  0  0  0  0  0  0  0
    7.9462    8.1394    6.6665 C   0  0  0  0  0  0  0  0  0  0  0  0
    6.8724    8.3500    6.7497 H   0  0  0  0  0  0  0  0  0  0  0  0
    8.1498    7.7762    5.6493 H   0  0  0  0  0  0  0  0  0  0  0  0
    6.2050    7.3246    8.7582 C   0  0  0  0  0  0  0  0  0  0  0  0
    8.7119    3.3424    9.7928 C   0  0  0  0  0  0  0  0  0  0  0  0
    9.2830    2.5008    9.4298 H   0  0  0  0  0  0  0  0  0  0  0  0
    7.2411    5.5146   10.6664 C   0  0  0  0  0  0  0  0  0  0  0  0
    6.6660    6.3639   11.0100 H   0  0  0  0  0  0  0  0  0  0  0  0
    5.0547    6.5870    8.4965 C   0  0  0  0  0  0  0  0  0  0  0  0
    5.1470    5.5790    8.1200 H   0  0  0  0  0  0  0  0  0  0  0  0
    8.1324    3.3277   11.0309 C   0  0  0  0  0  0  0  0  0  0  0  0
    8.2440    2.4600   11.6656 H   0  0  0  0  0  0  0  0  0  0  0  0
   12.6254    8.1341    5.9245 C   0  0  0  0  0  0  0  0  0  0  0  0
   13.5177    7.4608    3.7969 C   0  0  0  0  0  0  0  0  0  0  0  0
   13.4009    6.9637    2.8455 H   0  0  0  0  0  0  0  0  0  0  0  0
    7.3986    4.4268   11.4860 C   0  0  0  0  0  0  0  0  0  0  0  0
    6.9532    4.4146   12.4689 H   0  0  0  0  0  0  0  0  0  0  0  0
   13.8442    8.7009    6.2663 C   0  0  0  0  0  0  0  0  0  0  0  0
   13.9811    9.1560    7.2365 H   0  0  0  0  0  0  0  0  0  0  0  0
   12.4698    7.4989    4.6939 C   0  0  0  0  0  0  0  0  0  0  0  0
   11.5254    7.0063    4.4745 H   0  0  0  0  0  0  0  0  0  0  0  0
   12.3786   10.3761   10.1720 C   0  0  0  0  0  0  0  0  0  0  0  0
   12.7483   11.3736   10.3604 H   0  0  0  0  0  0  0  0  0  0  0  0
    6.0901    8.6186    9.2559 C   0  0  0  0  0  0  0  0  0  0  0  0
    6.9812    9.1856    9.4842 H   0  0  0  0  0  0  0  0  0  0  0  0
   12.2057    9.4912   11.2243 C   0  0  0  0  0  0  0  0  0  0  0  0
   12.4411    9.8012   12.2315 H   0  0  0  0  0  0  0  0  0  0  0  0
   11.7319    8.2105   10.9864 C   0  0  0  0  0  0  0  0  0  0  0  0
   11.5963    7.5223   11.8072 H   0  0  0  0  0  0  0  0  0  0  0  0
    4.8401    9.1670    9.4820 C   0  0  0  0  0  0  0  0  0  0  0  0
    4.7589   10.1695    9.8756 H   0  0  0  0  0  0  0  0  0  0  0  0
    3.6981    8.4343    9.2055 C   0  0  0  0  0  0  0  0  0  0  0  0
    2.7239    8.8661    9.3792 H   0  0  0  0  0  0  0  0  0  0  0  0
   11.4340    7.8140    9.6950 C   0  0  0  0  0  0  0  0  0  0  0  0
   11.0686    6.7971    9.4951 H   0  0  0  0  0  0  0  0  0  0  0  0
   14.7299    8.0468    4.1309 C   0  0  0  0  0  0  0  0  0  0  0  0
   15.5546    8.0111    3.4347 H   0  0  0  0  0  0  0  0  0  0  0  0
    3.8078    7.1443    8.7127 C   0  0  0  0  0  0  0  0  0  0  0  0
    2.9196    6.5679    8.5018 H   0  0  0  0  0  0  0  0  0  0  0  0
   14.8930    8.6571    5.3625 C   0  0  0  0  0  0  0  0  0  0  0  0
   15.8452    9.0933    5.6267 H   0  0  0  0  0  0  0  0  0  0  0  0
  1  2  1  6  0  0  0
  1  5  1  0  0  0  0
  1  4  1  0  0  0  0
  3  1  1  0  0  0  0
  3 16  1  0  0  0  0
  4 17  1  0  0  0  0
  5 18  1  6  0  0  0
  5  6  1  0  0  0  0
  6 21  1  6  0  0  0
  6  7  1  0  0  0  0
  7 24  1  0  0  0  0
  8 39  1  0  0  0  0
  9  8  1  0  0  0  0
 10 11  1  0  0  0  0
 10 13  1  0  0  0  0
 10  3  1  0  0  0  0
 12 10  1  0  0  0  0
 13 15  1  0  0  0  0
 14 13  1  0  0  0  0
 16  8  2  0  0  0  0
 16 51  1  0  0  0  0
 17  7  2  0  0  0  0
 17 22  1  0  0  0  0
 18 19  1  0  0  0  0
 18 13  1  0  0  0  0
 20 18  1  0  0  0  0
 21 41  1  0  0  0  0
 22 28  2  0  0  0  0
 23 22  1  0  0  0  0
 24 25  1  0  0  0  0
 24 33  2  0  0  0  0
 26 55  1  0  0  0  0
 26 21  2  0  0  0  0
 27 26  1  0  0  0  0
 28 33  1  0  0  0  0
 28 29  1  0  0  0  0
 30 35  1  0  0  0  0
 30  3  1  0  0  0  0
 31 53  2  0  0  0  0
 31 37  1  0  0  0  0
 32 31  1  0  0  0  0
 33 34  1  0  0  0  0
 35 36  1  0  0  0  0
 37 30  2  0  0  0  0
 38 37  1  0  0  0  0
 39 40  1  0  0  0  0
 39 43  2  0  0  0  0
 41 47  2  0  0  0  0
 41 42  1  0  0  0  0
 43 44  1  0  0  0  0
 45 43  1  0  0  0  0
 45 46  1  0  0  0  0
 47 48  1  0  0  0  0
 49 50  1  0  0  0  0
 49 47  1  0  0  0  0
 51 45  2  0  0  0  0
 52 51  1  0  0  0  0
 53 57  1  0  0  0  0
 54 53  1  0  0  0  0
 55 49  2  0  0  0  0
 56 55  1  0  0  0  0
 57 58  1  0  0  0  0
 57 35  2  0  0  0  0
M  END
$$$$
