CSD_code = RUJXUP | q = 0 | S = 0 | Stoichiometry = C20H22Cl2N4Zr | MND = 6
 OpenBabel04212202093D

 49 54  0  0  1  0  0  0  0  0999 V2000
   -1.3260    1.8444    9.5886 Zr  0  0  0  0  0  0  0  0  0  0  0  0
   -2.2514    3.2874    7.9321 Cl  0  0  0  0  0  0  0  0  0  0  0  0
   -3.1990    0.4348    9.1584 Cl  0  0  0  0  0  0  0  0  0  0  0  0
    0.5490    2.4206    8.7898 N   0  0  0  0  0  0  0  0  0  0  0  0
   -0.7818    3.6498   10.5579 N   0  0  1  0  0  0  0  0  0  0  0  0
   -1.5665    1.2459   11.6062 N   0  0  0  0  0  0  0  0  0  0  0  0
   -0.2723    0.0173    9.8108 N   0  0  0  0  0  0  0  0  0  0  0  0
    1.0801    3.5850    9.1332 C   0  0  0  0  0  0  0  0  0  0  0  0
    2.2840    4.0469    8.5584 C   0  0  0  0  0  0  0  0  0  0  0  0
    3.0000    5.2121    8.7342 C   0  0  0  0  0  0  0  0  0  0  0  0
    2.7115    6.3188    9.5160 C   0  0  0  0  0  0  0  0  0  0  0  0
    1.5967    6.4949   10.3198 C   0  0  0  0  0  0  0  0  0  0  0  0
    0.5521    5.6336   10.5807 C   0  0  0  0  0  0  0  0  0  0  0  0
    0.2778    4.3225   10.1340 C   0  0  1  0  0  3  0  0  0  0  0  0
   -1.8050    4.2539   11.3827 C   0  0  0  0  0  0  0  0  0  0  0  0
   -2.9458    3.2448   11.5888 C   0  0  0  0  0  0  0  0  0  0  0  0
   -2.4754    2.0333   12.4096 C   0  0  0  0  0  0  0  0  0  0  0  0
   -1.1026    0.0698   12.0034 C   0  0  0  0  0  0  0  0  0  0  0  0
   -1.3061   -0.3995   13.3192 C   0  0  0  0  0  3  0  0  0  0  0  0
   -0.9532   -1.5788   13.9402 C   0  0  0  0  0  0  0  0  0  0  0  0
   -0.3219   -2.6976   13.4214 C   0  0  0  0  0  0  0  0  0  0  0  0
    0.1113   -2.8715   12.1167 C   0  0  0  0  0  0  0  0  0  0  0  0
    0.0796   -1.9956   11.0524 C   0  0  0  0  0  0  0  0  0  0  0  0
   -0.3918   -0.6695   10.9371 C   0  0  0  0  0  0  0  0  0  0  0  0
    0.2130   -0.5801    8.5860 C   0  0  0  0  0  0  0  0  0  0  0  0
    0.1020    0.4460    7.4471 C   0  0  0  0  0  0  0  0  0  0  0  0
    1.0429    1.6395    7.6774 C   0  0  0  0  0  0  0  0  0  0  0  0
    2.7339    3.3571    7.8572 H   0  0  0  0  0  0  0  0  0  0  0  0
    3.9178    5.2747    8.1608 H   0  0  0  0  0  0  0  0  0  0  0  0
    3.4197    7.1355    9.4821 H   0  0  0  0  0  0  0  0  0  0  0  0
    1.5363    7.4512   10.8266 H   0  0  0  0  0  0  0  0  0  0  0  0
   -0.1912    6.0385   11.2539 H   0  0  0  0  0  0  0  0  0  0  0  0
   -2.2103    5.1539   10.8900 H   0  0  0  0  0  0  0  0  0  0  0  0
   -1.4044    4.5452   12.3692 H   0  0  0  0  0  0  0  0  0  0  0  0
   -3.7686    3.7383   12.1140 H   0  0  0  0  0  0  0  0  0  0  0  0
   -3.3131    2.8978   10.6018 H   0  0  0  0  0  0  0  0  0  0  0  0
   -1.9890    2.3965   13.3319 H   0  0  0  0  0  0  0  0  0  0  0  0
   -3.3524    1.4278   12.6934 H   0  0  0  0  0  0  0  0  0  0  0  0
   -1.8261    0.2971   13.9629 H   0  0  0  0  0  0  0  0  0  0  0  0
   -1.2290   -1.6443   14.9866 H   0  0  0  0  0  0  0  0  0  0  0  0
   -0.1672   -3.5261   14.0991 H   0  0  0  0  0  0  0  0  0  0  0  0
    0.5491   -3.8388   11.8981 H   0  0  0  0  0  0  0  0  0  0  0  0
    0.4940   -2.4010   10.1393 H   0  0  0  0  0  0  0  0  0  0  0  0
   -0.3923   -1.4653    8.3268 H   0  0  0  0  0  0  0  0  0  0  0  0
    1.2671   -0.8930    8.6833 H   0  0  0  0  0  0  0  0  0  0  0  0
   -0.9428    0.8115    7.3822 H   0  0  0  0  0  0  0  0  0  0  0  0
    0.3613   -0.0399    6.5023 H   0  0  0  0  0  0  0  0  0  0  0  0
    2.0605    1.2578    7.8723 H   0  0  0  0  0  0  0  0  0  0  0  0
    1.0711    2.2563    6.7635 H   0  0  0  0  0  0  0  0  0  0  0  0
  1  7  1  0  0  0  0
  1  5  1  0  0  0  0
  1  6  1  0  0  0  0
  2  1  1  0  0  0  0
  3  1  1  0  0  0  0
  4  8  1  0  0  0  0
  4  1  1  0  0  0  0
  5 15  1  6  0  0  0
  6 18  1  0  0  0  0
  6 17  1  0  0  0  0
  7 24  1  0  0  0  0
  9 10  1  0  0  0  0
  9  8  2  0  0  0  0
 10 11  2  0  0  0  0
 11 12  1  0  0  0  0
 12 13  2  0  0  0  0
 12 31  1  0  0  0  0
 13 32  1  0  0  0  0
 14  8  1  6  0  0  0
 14  5  1  0  0  0  0
 14 13  1  0  0  0  0
 15 16  1  0  0  0  0
 15 34  1  0  0  0  0
 16 35  1  0  0  0  0
 16 17  1  0  0  0  0
 17 38  1  0  0  0  0
 17 37  1  0  0  0  0
 18 19  1  0  0  0  0
 19 20  1  0  0  0  0
 19 39  1  0  0  0  0
 20 40  1  0  0  0  0
 21 20  2  0  0  0  0
 21 41  1  0  0  0  0
 22 21  1  0  0  0  0
 23 22  2  0  0  0  0
 24 23  1  0  0  0  0
 24 18  2  0  0  0  0
 25 45  1  0  0  0  0
 25  7  1  0  0  0  0
 26 27  1  0  0  0  0
 26 25  1  0  0  0  0
 27 48  1  0  0  0  0
 27  4  1  0  0  0  0
 28  9  1  0  0  0  0
 29 10  1  0  0  0  0
 30 11  1  0  0  0  0
 33 15  1  0  0  0  0
 36 16  1  0  0  0  0
 42 22  1  0  0  0  0
 43 23  1  0  0  0  0
 44 25  1  0  0  0  0
 46 26  1  0  0  0  0
 47 26  1  0  0  0  0
 49 27  1  0  0  0  0
M  END
$$$$
