CSD_code = RUJXEA | q = 0 | S = 0 | Stoichiometry = C15H25Cl3N2OZn | MND = 4
 OpenBabel04212202093D

 47 50  0  0  1  0  0  0  0  0999 V2000
    2.6629    6.2040    6.2254 Zn  0  0  0  0  0  0  0  0  0  0  0  0
    0.3180    5.9940    6.5764 Cl  0  0  0  0  0  0  0  0  0  0  0  0
    3.7310    5.0795    7.8931 Cl  0  0  0  0  0  0  0  0  0  0  0  0
    3.2971    7.8405    4.9112 Cl  0  0  0  0  0  0  0  0  0  0  0  0
    2.5560    4.4899    4.9023 O   0  0  0  0  0  0  0  0  0  0  0  0
    0.9608    3.0018    5.4380 N   0  0  2  0  0  0  0  0  0  0  0  0
   -0.4314    1.1281    8.2553 N   0  0  1  0  0  4  0  0  0  0  0  0
    1.4581    3.9947    4.6688 C   0  0  2  0  0  3  0  0  0  0  0  0
    0.6713    4.3887    3.4502 C   0  0  0  0  0  0  0  0  0  0  0  0
    1.3852    4.6260    2.6603 H   0  0  0  0  0  0  0  0  0  0  0  0
    0.1385    5.3110    3.6947 H   0  0  0  0  0  0  0  0  0  0  0  0
   -0.3061    3.2983    3.0489 C   0  0  0  0  0  0  0  0  0  0  0  0
   -0.8941    3.6131    2.1866 H   0  0  0  0  0  0  0  0  0  0  0  0
    0.2342    2.3877    2.7796 H   0  0  0  0  0  0  0  0  0  0  0  0
   -1.2177    3.0477    4.2407 C   0  0  0  0  0  0  0  0  0  0  0  0
   -1.9904    2.3198    3.9882 H   0  0  0  0  0  0  0  0  0  0  0  0
   -1.6961    3.9924    4.5002 H   0  0  0  0  0  0  0  0  0  0  0  0
   -0.4166    2.5467    5.4487 C   0  0  2  0  0  0  0  0  0  0  0  0
   -0.3726    1.4433    5.4074 H   0  0  0  0  0  0  0  0  0  0  0  0
   -1.0879    3.0268    6.7587 C   0  0  2  0  0  0  0  0  0  0  0  0
   -1.0182    4.1263    6.7302 H   0  0  0  0  0  0  0  0  0  0  0  0
   -0.3130    2.6114    8.0100 C   0  0  2  0  0  0  0  0  0  0  0  0
   -0.7566    3.0985    8.8838 H   0  0  0  0  0  0  0  0  0  0  0  0
    1.1517    3.0100    7.8896 C   0  0  2  0  0  0  0  0  0  0  0  0
    1.1759    4.1031    7.8542 H   0  0  0  0  0  0  0  0  0  0  0  0
    1.7389    2.5270    6.5630 C   0  0  0  0  0  0  0  0  0  0  0  0
    2.7475    2.9331    6.4703 H   0  0  0  0  0  0  0  0  0  0  0  0
    1.7933    1.4307    6.4970 H   0  0  0  0  0  0  0  0  0  0  0  0
    1.9646    2.5527    9.0951 C   0  0  0  0  0  0  0  0  0  0  0  0
    3.0035    2.8368    8.9361 H   0  0  0  0  0  0  0  0  0  0  0  0
    1.6189    3.0901    9.9789 H   0  0  0  0  0  0  0  0  0  0  0  0
    1.8126    1.0535    9.3206 C   0  0  0  0  0  0  0  0  0  0  0  0
    2.2617    0.4907    8.5013 H   0  0  0  0  0  0  0  0  0  0  0  0
    2.3221    0.7565   10.2368 H   0  0  0  0  0  0  0  0  0  0  0  0
    0.3355    0.7083    9.4528 C   0  0  0  0  0  0  0  0  0  0  0  0
    0.1938   -0.3669    9.5937 H   0  0  0  0  0  0  0  0  0  0  0  0
   -0.0883    1.2324   10.3127 H   0  0  0  0  0  0  0  0  0  0  0  0
   -1.8436    0.7040    8.3660 C   0  0  0  0  0  0  0  0  0  0  0  0
   -2.2658    1.2011    9.2430 H   0  0  0  0  0  0  0  0  0  0  0  0
   -1.8740   -0.3764    8.5311 H   0  0  0  0  0  0  0  0  0  0  0  0
   -2.6430    1.0845    7.1285 C   0  0  0  0  0  0  0  0  0  0  0  0
   -2.2759    0.5370    6.2590 H   0  0  0  0  0  0  0  0  0  0  0  0
   -3.6817    0.7917    7.2835 H   0  0  0  0  0  0  0  0  0  0  0  0
   -2.5470    2.5892    6.8911 C   0  0  0  0  0  0  0  0  0  0  0  0
   -2.9948    3.1161    7.7355 H   0  0  0  0  0  0  0  0  0  0  0  0
   -3.1125    2.8623    6.0039 H   0  0  0  0  0  0  0  0  0  0  0  0
   -0.0099    0.6873    7.4303 H   0  0  0  0  0  0  0  0  0  0  0  0
  1  2  1  0  0  0  0
  1  3  1  0  0  0  0
  4  1  1  0  0  0  0
  5  1  1  0  0  0  0
  6 18  1  0  0  0  0
  6 26  1  1  0  0  0
  7 47  1  6  0  0  0
  7 38  1  0  0  0  0
  7 35  1  0  0  0  0
  8  5  1  6  0  0  0
  8  6  1  0  0  0  0
  9 11  1  0  0  0  0
  9  8  1  0  0  0  0
 10  9  1  0  0  0  0
 12  9  1  0  0  0  0
 12 15  1  0  0  0  0
 13 12  1  0  0  0  0
 14 12  1  0  0  0  0
 15 17  1  0  0  0  0
 15 18  1  0  0  0  0
 16 15  1  0  0  0  0
 18 19  1  6  0  0  0
 18 20  1  0  0  0  0
 20 21  1  6  0  0  0
 20 44  1  0  0  0  0
 20 22  1  0  0  0  0
 22  7  1  0  0  0  0
 22 23  1  1  0  0  0
 24 25  1  6  0  0  0
 24 22  1  0  0  0  0
 24 29  1  0  0  0  0
 26 24  1  0  0  0  0
 27 26  1  0  0  0  0
 28 26  1  0  0  0  0
 29 32  1  0  0  0  0
 29 31  1  0  0  0  0
 30 29  1  0  0  0  0
 32 35  1  0  0  0  0
 32 34  1  0  0  0  0
 33 32  1  0  0  0  0
 35 36  1  0  0  0  0
 35 37  1  0  0  0  0
 38 40  1  0  0  0  0
 38 39  1  0  0  0  0
 41 43  1  0  0  0  0
 41 38  1  0  0  0  0
 42 41  1  0  0  0  0
 44 41  1  0  0  0  0
 44 45  1  0  0  0  0
 46 44  1  0  0  0  0
M  END
$$$$
