CSD_code = RUKFOS | q = 0 | S = 0 | Stoichiometry = C16H24Cl2HgO6 | MND = 8
 OpenBabel04212202093D

 49 49  0  0  0  0  0  0  0  0999 V2000
    2.1536    3.5226   13.4669 Hg  0  0  0  0  0  0  0  0  0  0  0  0
    0.1392    4.5507   13.4285 Cl  0  0  0  0  0  0  0  0  0  0  0  0
    4.1609    2.4719   13.6742 Cl  0  0  0  0  0  0  0  0  0  0  0  0
    2.5586    4.5776   16.0263 O   0  0  0  0  0  0  0  0  0  0  0  0
    2.0451    3.7903   17.0798 C   0  0  0  0  0  0  0  0  0  0  0  0
    0.9781    4.0028   17.2252 H   0  0  0  0  0  0  0  0  0  0  0  0
    2.5993    3.9926   18.0066 H   0  0  0  0  0  0  0  0  0  0  0  0
    2.1980    2.3203   16.7062 C   0  0  0  0  0  0  0  0  0  0  0  0
    3.2296    2.1181   16.3886 H   0  0  0  0  0  0  0  0  0  0  0  0
    1.9556    1.6962   17.5793 H   0  0  0  0  0  0  0  0  0  0  0  0
    1.2912    2.0513   15.6574 O   0  0  0  0  0  0  0  0  0  0  0  0
    1.2103    0.6888   15.2976 C   0  0  0  0  0  0  0  0  0  0  0  0
    0.8267    0.1035   16.1467 H   0  0  0  0  0  0  0  0  0  0  0  0
    2.1968    0.3056   15.0050 H   0  0  0  0  0  0  0  0  0  0  0  0
    0.2582    0.5844   14.1125 C   0  0  0  0  0  0  0  0  0  0  0  0
   -0.0889   -0.4529   13.9908 H   0  0  0  0  0  0  0  0  0  0  0  0
   -0.6051    1.2382   14.2968 H   0  0  0  0  0  0  0  0  0  0  0  0
    0.9496    0.9958   12.9537 O   0  0  0  0  0  0  0  0  0  0  0  0
    0.1077    1.2270   11.8437 C   0  0  0  0  0  0  0  0  0  0  0  0
   -0.5529    2.0817   12.0443 H   0  0  0  0  0  0  0  0  0  0  0  0
   -0.5024    0.3353   11.6360 H   0  0  0  0  0  0  0  0  0  0  0  0
    0.9870    1.5304   10.6341 C   0  0  0  0  0  0  0  0  0  0  0  0
    1.5944    0.6471   10.3846 H   0  0  0  0  0  0  0  0  0  0  0  0
    0.3446    1.7818    9.7775 H   0  0  0  0  0  0  0  0  0  0  0  0
    1.8323    2.6093   10.9551 O   0  0  0  0  0  0  0  0  0  0  0  0
    2.5685    3.1242    9.8692 C   0  0  0  0  0  0  0  0  0  0  0  0
    1.9391    3.8167    9.2912 H   0  0  0  0  0  0  0  0  0  0  0  0
    2.9098    2.3108    9.2140 H   0  0  0  0  0  0  0  0  0  0  0  0
    3.7903    3.8593   10.4116 C   0  0  0  0  0  0  0  0  0  0  0  0
    4.4262    3.1528   10.9622 H   0  0  0  0  0  0  0  0  0  0  0  0
    4.3639    4.2880    9.5754 H   0  0  0  0  0  0  0  0  0  0  0  0
    3.3532    4.8887   11.2740 O   0  0  0  0  0  0  0  0  0  0  0  0
    4.4195    5.6143   11.8485 C   0  0  0  0  0  0  0  0  0  0  0  0
    4.9826    6.1357   11.0592 H   0  0  0  0  0  0  0  0  0  0  0  0
    5.0963    4.9393   12.3902 H   0  0  0  0  0  0  0  0  0  0  0  0
    3.8373    6.6341   12.8189 C   0  0  0  0  0  0  0  0  0  0  0  0
    4.6169    7.3553   13.0993 H   0  0  0  0  0  0  0  0  0  0  0  0
    3.0025    7.1530   12.3304 H   0  0  0  0  0  0  0  0  0  0  0  0
    3.3844    5.9428   13.9637 O   0  0  0  0  0  0  0  0  0  0  0  0
    2.8197    6.6724   14.9763 C   0  0  0  0  0  0  0  0  0  0  0  0
    2.6729    8.0487   14.9690 C   0  0  0  0  0  0  0  0  0  0  0  0
    2.9920    8.6292   14.1189 H   0  0  0  0  0  0  0  0  0  0  0  0
    2.1032    8.7022   16.0532 C   0  0  0  0  0  0  0  0  0  0  0  0
    1.9952    9.7754   16.0275 H   0  0  0  0  0  0  0  0  0  0  0  0
    1.6799    7.9826   17.1483 C   0  0  0  0  0  0  0  0  0  0  0  0
    1.2370    8.4837   17.9951 H   0  0  0  0  0  0  0  0  0  0  0  0
    1.8163    6.6013   17.1694 C   0  0  0  0  0  0  0  0  0  0  0  0
    1.4751    6.0576   18.0352 H   0  0  0  0  0  0  0  0  0  0  0  0
    2.3785    5.9334   16.0949 C   0  0  0  0  0  0  0  0  0  0  0  0
  1  3  1  0  0  0  0
  2  1  1  0  0  0  0
  4 49  1  0  0  0  0
  4  5  1  0  0  0  0
  5  6  1  0  0  0  0
  5  7  1  0  0  0  0
  8  5  1  0  0  0  0
  8 10  1  0  0  0  0
  9  8  1  0  0  0  0
 11  8  1  0  0  0  0
 12 11  1  0  0  0  0
 12 13  1  0  0  0  0
 14 12  1  0  0  0  0
 15 17  1  0  0  0  0
 15 12  1  0  0  0  0
 16 15  1  0  0  0  0
 18 15  1  0  0  0  0
 19 20  1  0  0  0  0
 19 18  1  0  0  0  0
 21 19  1  0  0  0  0
 22 25  1  0  0  0  0
 22 19  1  0  0  0  0
 23 22  1  0  0  0  0
 24 22  1  0  0  0  0
 26 29  1  0  0  0  0
 26 25  1  0  0  0  0
 27 26  1  0  0  0  0
 28 26  1  0  0  0  0
 29 30  1  0  0  0  0
 29 32  1  0  0  0  0
 31 29  1  0  0  0  0
 32 33  1  0  0  0  0
 33 35  1  0  0  0  0
 33 36  1  0  0  0  0
 34 33  1  0  0  0  0
 36 37  1  0  0  0  0
 36 39  1  0  0  0  0
 38 36  1  0  0  0  0
 39 40  1  0  0  0  0
 40 49  1  0  0  0  0
 41 40  2  0  0  0  0
 41 43  1  0  0  0  0
 42 41  1  0  0  0  0
 43 45  2  0  0  0  0
 44 43  1  0  0  0  0
 45 47  1  0  0  0  0
 45 46  1  0  0  0  0
 47 48  1  0  0  0  0
 49 47  2  0  0  0  0
M  END
$$$$
