CSD_code = RUKGAF | q = 0 | S = 0 | Stoichiometry = C16H24CdCl2O6 | MND = 8
 OpenBabel04212202093D

 49 49  0  0  0  0  0  0  0  0999 V2000
    6.2787    3.1803    3.3322 Cd  0  0  0  0  0  0  0  0  0  0  0  0
    4.5295    4.7685    3.3694 Cl  0  0  0  0  0  0  0  0  0  0  0  0
    8.1975    1.8456    3.1660 Cl  0  0  0  0  0  0  0  0  0  0  0  0
    7.9139    5.3106    2.6562 O   0  0  0  0  0  0  0  0  0  0  0  0
    8.5903    5.7889    3.7938 C   0  0  0  0  0  0  0  0  0  0  0  0
    9.1258    6.7198    3.5763 H   0  0  0  0  0  0  0  0  0  0  0  0
    9.3095    5.0024    4.0427 H   0  0  0  0  0  0  0  0  0  0  0  0
    7.6411    5.9654    4.9799 C   0  0  0  0  0  0  0  0  0  0  0  0
    8.1332    6.5407    5.7803 H   0  0  0  0  0  0  0  0  0  0  0  0
    6.7278    6.4898    4.6626 H   0  0  0  0  0  0  0  0  0  0  0  0
    7.3211    4.6728    5.4485 O   0  0  0  0  0  0  0  0  0  0  0  0
    6.3869    4.6783    6.5052 C   0  0  0  0  0  0  0  0  0  0  0  0
    5.4349    5.1129    6.1699 H   0  0  0  0  0  0  0  0  0  0  0  0
    6.7834    5.2607    7.3513 H   0  0  0  0  0  0  0  0  0  0  0  0
    6.1575    3.2350    6.9305 C   0  0  0  0  0  0  0  0  0  0  0  0
    7.1292    2.7301    7.0361 H   0  0  0  0  0  0  0  0  0  0  0  0
    5.6265    3.2064    7.8953 H   0  0  0  0  0  0  0  0  0  0  0  0
    5.3827    2.6062    5.9371 O   0  0  0  0  0  0  0  0  0  0  0  0
    5.1623    1.2375    6.1798 C   0  0  0  0  0  0  0  0  0  0  0  0
    4.6525    1.1012    7.1467 H   0  0  0  0  0  0  0  0  0  0  0  0
    6.1175    0.6923    6.1912 H   0  0  0  0  0  0  0  0  0  0  0  0
    4.2887    0.6976    5.0553 C   0  0  0  0  0  0  0  0  0  0  0  0
    3.9916   -0.3389    5.2801 H   0  0  0  0  0  0  0  0  0  0  0  0
    3.3884    1.3223    4.9591 H   0  0  0  0  0  0  0  0  0  0  0  0
    5.0445    0.7388    3.8689 O   0  0  0  0  0  0  0  0  0  0  0  0
    4.3862    0.1822    2.7562 C   0  0  0  0  0  0  0  0  0  0  0  0
    3.4253    0.6896    2.5833 H   0  0  0  0  0  0  0  0  0  0  0  0
    4.2050   -0.8911    2.9252 H   0  0  0  0  0  0  0  0  0  0  0  0
    5.2824    0.3743    1.5408 C   0  0  0  0  0  0  0  0  0  0  0  0
    6.3102    0.0863    1.8015 H   0  0  0  0  0  0  0  0  0  0  0  0
    4.9225   -0.2457    0.7050 H   0  0  0  0  0  0  0  0  0  0  0  0
    5.2322    1.7381    1.1798 O   0  0  0  0  0  0  0  0  0  0  0  0
    6.0334    2.0427    0.0582 C   0  0  0  0  0  0  0  0  0  0  0  0
    5.6951    1.4576   -0.8112 H   0  0  0  0  0  0  0  0  0  0  0  0
    7.0882    1.8148    0.2673 H   0  0  0  0  0  0  0  0  0  0  0  0
    5.8814    3.5315   -0.2274 C   0  0  0  0  0  0  0  0  0  0  0  0
    6.2794    3.7649   -1.2252 H   0  0  0  0  0  0  0  0  0  0  0  0
    4.8164    3.7946   -0.1755 H   0  0  0  0  0  0  0  0  0  0  0  0
    6.6092    4.2214    0.7624 O   0  0  0  0  0  0  0  0  0  0  0  0
    6.5018    5.5828    0.8161 C   0  0  0  0  0  0  0  0  0  0  0  0
    5.7889    6.3690   -0.0708 C   0  0  0  0  0  0  0  0  0  0  0  0
    5.2490    5.9231   -0.8905 H   0  0  0  0  0  0  0  0  0  0  0  0
    5.7520    7.7473    0.0941 C   0  0  0  0  0  0  0  0  0  0  0  0
    5.1883    8.3487   -0.6021 H   0  0  0  0  0  0  0  0  0  0  0  0
    6.4205    8.3377    1.1435 C   0  0  0  0  0  0  0  0  0  0  0  0
    6.3842    9.4072    1.2822 H   0  0  0  0  0  0  0  0  0  0  0  0
    7.1451    7.5611    2.0386 C   0  0  0  0  0  0  0  0  0  0  0  0
    7.6487    8.0471    2.8593 H   0  0  0  0  0  0  0  0  0  0  0  0
    7.2035    6.1881    1.8800 C   0  0  0  0  0  0  0  0  0  0  0  0
  1  2  1  0  0  0  0
  3  1  1  0  0  0  0
  4  5  1  0  0  0  0
  5  7  1  0  0  0  0
  5  8  1  0  0  0  0
  6  5  1  0  0  0  0
  8 11  1  0  0  0  0
  8  9  1  0  0  0  0
 10  8  1  0  0  0  0
 11 12  1  0  0  0  0
 12 15  1  0  0  0  0
 12 14  1  0  0  0  0
 13 12  1  0  0  0  0
 15 16  1  0  0  0  0
 15 17  1  0  0  0  0
 18 19  1  0  0  0  0
 18 15  1  0  0  0  0
 19 21  1  0  0  0  0
 19 20  1  0  0  0  0
 22 23  1  0  0  0  0
 22 19  1  0  0  0  0
 24 22  1  0  0  0  0
 25 22  1  0  0  0  0
 26 28  1  0  0  0  0
 26 25  1  0  0  0  0
 27 26  1  0  0  0  0
 29 30  1  0  0  0  0
 29 26  1  0  0  0  0
 31 29  1  0  0  0  0
 32 29  1  0  0  0  0
 33 35  1  0  0  0  0
 33 32  1  0  0  0  0
 34 33  1  0  0  0  0
 36 38  1  0  0  0  0
 36 33  1  0  0  0  0
 36 39  1  0  0  0  0
 37 36  1  0  0  0  0
 39 40  1  0  0  0  0
 40 49  1  0  0  0  0
 41 43  1  0  0  0  0
 41 40  2  0  0  0  0
 42 41  1  0  0  0  0
 43 45  2  0  0  0  0
 44 43  1  0  0  0  0
 45 46  1  0  0  0  0
 45 47  1  0  0  0  0
 47 48  1  0  0  0  0
 49 47  2  0  0  0  0
 49  4  1  0  0  0  0
M  END
$$$$
