CSD_code = RUKGEJ | q = 0 | S = 0 | Stoichiometry = C16H24Br2HgO6 | MND = 8
 OpenBabel04212202093D

 49 49  0  0  0  0  0  0  0  0999 V2000
   -0.7799    1.6095   12.8480 Hg  0  0  0  0  0  0  0  0  0  0  0  0
    0.0670   -0.3680   11.7171 Br  0  0  0  0  0  0  0  0  0  0  0  0
   -1.5873    3.6117   13.9347 Br  0  0  0  0  0  0  0  0  0  0  0  0
    1.9434    1.9993   13.5922 O   0  0  0  0  0  0  0  0  0  0  0  0
    2.3154    1.2840   14.7510 C   0  0  0  0  0  0  0  0  0  0  0  0
    3.2245    1.7180   15.1877 H   0  0  0  0  0  0  0  0  0  0  0  0
    2.4848    0.2273   14.5069 H   0  0  0  0  0  0  0  0  0  0  0  0
    1.1744    1.3730   15.7586 C   0  0  0  0  0  0  0  0  0  0  0  0
    1.5173    0.9915   16.7311 H   0  0  0  0  0  0  0  0  0  0  0  0
    0.8550    2.4181   15.8739 H   0  0  0  0  0  0  0  0  0  0  0  0
    0.1091    0.5766   15.2821 O   0  0  0  0  0  0  0  0  0  0  0  0
   -0.9737    0.4696   16.1820 C   0  0  0  0  0  0  0  0  0  0  0  0
   -1.3927    1.4614   16.4003 H   0  0  0  0  0  0  0  0  0  0  0  0
   -0.6331    0.0052   17.1187 H   0  0  0  0  0  0  0  0  0  0  0  0
   -2.0437   -0.4008   15.5343 C   0  0  0  0  0  0  0  0  0  0  0  0
   -1.5797   -1.3168   15.1415 H   0  0  0  0  0  0  0  0  0  0  0  0
   -2.8045   -0.6720   16.2808 H   0  0  0  0  0  0  0  0  0  0  0  0
   -2.6396    0.3344   14.4889 O   0  0  0  0  0  0  0  0  0  0  0  0
   -3.6226   -0.3801   13.7731 C   0  0  0  0  0  0  0  0  0  0  0  0
   -4.4183   -0.7092   14.4571 H   0  0  0  0  0  0  0  0  0  0  0  0
   -3.1770   -1.2591   13.2859 H   0  0  0  0  0  0  0  0  0  0  0  0
   -4.2099    0.5442   12.7131 C   0  0  0  0  0  0  0  0  0  0  0  0
   -5.0855    0.0653   12.2508 H   0  0  0  0  0  0  0  0  0  0  0  0
   -4.5194    1.4886   13.1830 H   0  0  0  0  0  0  0  0  0  0  0  0
   -3.2220    0.7835   11.7359 O   0  0  0  0  0  0  0  0  0  0  0  0
   -3.6567    1.6019   10.6730 C   0  0  0  0  0  0  0  0  0  0  0  0
   -3.9909    2.5774   11.0542 H   0  0  0  0  0  0  0  0  0  0  0  0
   -4.4892    1.1159   10.1435 H   0  0  0  0  0  0  0  0  0  0  0  0
   -2.4891    1.8078    9.7155 C   0  0  0  0  0  0  0  0  0  0  0  0
   -2.0404    0.8353    9.4691 H   0  0  0  0  0  0  0  0  0  0  0  0
   -2.8469    2.2874    8.7929 H   0  0  0  0  0  0  0  0  0  0  0  0
   -1.5440    2.6403   10.3516 O   0  0  0  0  0  0  0  0  0  0  0  0
   -0.4147    2.9488    9.5611 C   0  0  0  0  0  0  0  0  0  0  0  0
   -0.7311    3.4669    8.6439 H   0  0  0  0  0  0  0  0  0  0  0  0
    0.1237    2.0294    9.2873 H   0  0  0  0  0  0  0  0  0  0  0  0
    0.4778    3.8689   10.3976 C   0  0  0  0  0  0  0  0  0  0  0  0
    1.2339    4.3532    9.7729 H   0  0  0  0  0  0  0  0  0  0  0  0
   -0.1563    4.6344   10.8558 H   0  0  0  0  0  0  0  0  0  0  0  0
    1.0667    3.1907   11.4833 O   0  0  0  0  0  0  0  0  0  0  0  0
    2.2503    2.5149   11.3158 C   0  0  0  0  0  0  0  0  0  0  0  0
    2.9653    2.4162   10.1365 C   0  0  0  0  0  0  0  0  0  0  0  0
    2.5907    2.8564    9.2260 H   0  0  0  0  0  0  0  0  0  0  0  0
    4.1728    1.7325   10.1055 C   0  0  0  0  0  0  0  0  0  0  0  0
    4.7167    1.6635    9.1765 H   0  0  0  0  0  0  0  0  0  0  0  0
    4.6655    1.1441   11.2492 C   0  0  0  0  0  0  0  0  0  0  0  0
    5.6044    0.6135   11.2304 H   0  0  0  0  0  0  0  0  0  0  0  0
    3.9495    1.2168   12.4360 C   0  0  0  0  0  0  0  0  0  0  0  0
    4.3450    0.7394   13.3176 H   0  0  0  0  0  0  0  0  0  0  0  0
    2.7412    1.8881   12.4810 C   0  0  0  0  0  0  0  0  0  0  0  0
  1  3  1  0  0  0  0
  2  1  1  0  0  0  0
  4  5  1  0  0  0  0
  5  6  1  0  0  0  0
  5  8  1  0  0  0  0
  7  5  1  0  0  0  0
  8 10  1  0  0  0  0
  8  9  1  0  0  0  0
 11  8  1  0  0  0  0
 11 12  1  0  0  0  0
 12 13  1  0  0  0  0
 12 14  1  0  0  0  0
 15 12  1  0  0  0  0
 15 17  1  0  0  0  0
 16 15  1  0  0  0  0
 18 15  1  0  0  0  0
 19 20  1  0  0  0  0
 19 18  1  0  0  0  0
 21 19  1  0  0  0  0
 22 24  1  0  0  0  0
 22 19  1  0  0  0  0
 23 22  1  0  0  0  0
 25 22  1  0  0  0  0
 26 27  1  0  0  0  0
 26 25  1  0  0  0  0
 28 26  1  0  0  0  0
 29 32  1  0  0  0  0
 29 26  1  0  0  0  0
 30 29  1  0  0  0  0
 31 29  1  0  0  0  0
 33 32  1  0  0  0  0
 33 36  1  0  0  0  0
 34 33  1  0  0  0  0
 35 33  1  0  0  0  0
 36 38  1  0  0  0  0
 36 39  1  0  0  0  0
 37 36  1  0  0  0  0
 40 39  1  0  0  0  0
 40 49  1  0  0  0  0
 41 40  2  0  0  0  0
 42 41  1  0  0  0  0
 43 41  1  0  0  0  0
 43 45  2  0  0  0  0
 44 43  1  0  0  0  0
 45 47  1  0  0  0  0
 46 45  1  0  0  0  0
 47 49  2  0  0  0  0
 47 48  1  0  0  0  0
 49  4  1  0  0  0  0
M  END
$$$$
