CSD_code = RUKMER | q = 0 | S = 0 | Stoichiometry = C30H28Cl2N2O2Ru | MND = 6
 OpenBabel04212202093D

 65 69  0  0  0  0  0  0  0  0999 V2000
    2.6772   11.6924   18.6858 H   0  0  0  0  0  0  0  0  0  0  0  0
    3.9432   11.9268   20.7924 H   0  0  0  0  0  0  0  0  0  0  0  0
    4.3131   14.2235   21.7078 H   0  0  0  0  0  0  0  0  0  0  0  0
    1.2484   11.6262   17.2341 H   0  0  0  0  0  0  0  0  0  0  0  0
   -0.0103   11.6504   15.1104 H   0  0  0  0  0  0  0  0  0  0  0  0
   -0.3307   13.8380   13.9432 H   0  0  0  0  0  0  0  0  0  0  0  0
    5.9040   18.9060   20.8717 H   0  0  0  0  0  0  0  0  0  0  0  0
    2.0722   18.7559   22.7261 H   0  0  0  0  0  0  0  0  0  0  0  0
    2.0059   18.1879   12.4423 H   0  0  0  0  0  0  0  0  0  0  0  0
   -1.8307   18.6113   14.2435 H   0  0  0  0  0  0  0  0  0  0  0  0
    6.0731   15.5059   20.0555 H   0  0  0  0  0  0  0  0  0  0  0  0
    6.7522   17.0977   19.6900 H   0  0  0  0  0  0  0  0  0  0  0  0
    5.5377   16.3845   18.6277 H   0  0  0  0  0  0  0  0  0  0  0  0
    5.2655   20.5486   22.5905 H   0  0  0  0  0  0  0  0  0  0  0  0
    3.6370   20.5252   23.2906 H   0  0  0  0  0  0  0  0  0  0  0  0
    3.8890   21.1190   21.6501 H   0  0  0  0  0  0  0  0  0  0  0  0
    0.6624   16.2705   20.9896 H   0  0  0  0  0  0  0  0  0  0  0  0
    0.7815   16.8149   22.6613 H   0  0  0  0  0  0  0  0  0  0  0  0
    1.5462   15.2979   22.1637 H   0  0  0  0  0  0  0  0  0  0  0  0
   -2.0652   15.3272   15.4366 H   0  0  0  0  0  0  0  0  0  0  0  0
   -2.7162   16.9620   15.6166 H   0  0  0  0  0  0  0  0  0  0  0  0
   -1.5173   16.3520   16.7581 H   0  0  0  0  0  0  0  0  0  0  0  0
    0.5148   19.9352   11.7046 H   0  0  0  0  0  0  0  0  0  0  0  0
    0.1739   20.6917   13.2601 H   0  0  0  0  0  0  0  0  0  0  0  0
   -1.1482   20.0161   12.3124 H   0  0  0  0  0  0  0  0  0  0  0  0
    3.3612   15.8807   14.4444 H   0  0  0  0  0  0  0  0  0  0  0  0
    3.2550   16.2392   12.7226 H   0  0  0  0  0  0  0  0  0  0  0  0
    2.4594   14.8019   13.3821 H   0  0  0  0  0  0  0  0  0  0  0  0
    2.5251   18.0262   18.7173 C   0  0  0  0  0  2  0  0  0  0  0  0
    1.5092   17.9141   16.5104 C   0  0  0  0  0  2  0  0  0  0  0  0
    2.3743   13.8111   18.4647 C   0  0  0  0  0  0  0  0  0  0  0  0
    2.8489   12.6695   19.1045 C   0  0  0  0  0  0  0  0  0  0  0  0
    3.5638   12.7988   20.2819 C   0  0  0  0  0  0  0  0  0  0  0  0
    3.7753   14.0662   20.7858 C   0  0  0  0  0  0  0  0  0  0  0  0
    3.2914   15.1735   20.0898 C   0  0  0  0  0  0  0  0  0  0  0  0
    1.5954   13.7496   17.2187 C   0  0  0  0  0  0  0  0  0  0  0  0
    1.0977   12.5539   16.7085 C   0  0  0  0  0  0  0  0  0  0  0  0
    0.3867   12.5658   15.5218 C   0  0  0  0  0  0  0  0  0  0  0  0
    0.2024   13.7732   14.8790 C   0  0  0  0  0  0  0  0  0  0  0  0
    0.7077   14.9412   15.4494 C   0  0  0  0  0  0  0  0  0  0  0  0
    3.5309   16.5170   20.6653 C   0  0  0  0  0  0  0  0  0  0  0  0
    4.7652   17.1508   20.4702 C   0  0  0  0  0  0  0  0  0  0  0  0
    4.9664   18.3966   21.0419 C   0  0  0  0  0  0  0  0  0  0  0  0
    3.9932   19.0050   21.8228 C   0  0  0  0  0  0  0  0  0  0  0  0
    2.8179   18.3140   22.0812 C   0  0  0  0  0  0  0  0  0  0  0  0
    2.5733   17.0676   21.5275 C   0  0  0  0  0  0  0  0  0  0  0  0
    0.4962   16.2169   14.7275 C   0  0  0  0  0  0  0  0  0  0  0  0
    1.4671   16.6509   13.8152 C   0  0  0  0  0  0  0  0  0  0  0  0
    1.2490   17.8336   13.1269 C   0  0  0  0  0  0  0  0  0  0  0  0
    0.0860   18.5700   13.3000 C   0  0  0  0  0  0  0  0  0  0  0  0
   -0.9022   18.0691   14.1370 C   0  0  0  0  0  0  0  0  0  0  0  0
   -0.7265   16.8913   14.8445 C   0  0  0  0  0  0  0  0  0  0  0  0
    5.8460   16.4985   19.6670 C   0  0  0  0  0  0  0  0  0  0  0  0
    4.2124   20.3766   22.3800 C   0  0  0  0  0  0  0  0  0  0  0  0
    1.3201   16.3196   21.8579 C   0  0  0  0  0  0  0  0  0  0  0  0
   -1.8211   16.3532   15.7112 C   0  0  0  0  0  0  0  0  0  0  0  0
   -0.1071   19.8756   12.5943 C   0  0  0  0  0  0  0  0  0  0  0  0
    2.7055   15.8464   13.5739 C   0  0  0  0  0  0  0  0  0  0  0  0
    2.6135   15.0432   18.9488 N   0  0  0  0  0  0  0  0  0  0  0  0
    1.3813   14.9250   16.6002 N   0  0  0  0  0  0  0  0  0  0  0  0
    2.7248   19.0664   19.1445 O   0  0  0  0  0  1  0  0  0  0  0  0
    1.3250   18.9048   15.9728 O   0  0  0  0  0  1  0  0  0  0  0  0
    4.1514   16.2876   16.6736 Cl  0  0  0  0  0  0  0  0  0  0  0  0
   -0.1364   16.4198   18.7300 Cl  0  0  0  0  0  0  0  0  0  0  0  0
    2.0077   16.5584   17.6899 Ru  0  0  0  0  0  0  0  0  0  0  0  0
  1 32  1  0  0  0  0
  5 38  1  0  0  0  0
  6 39  1  0  0  0  0
  7 43  1  0  0  0  0
  9 49  1  0  0  0  0
 13 53  1  0  0  0  0
 16 54  1  0  0  0  0
 17 55  1  0  0  0  0
 20 56  1  0  0  0  0
 21 56  1  0  0  0  0
 23 57  1  0  0  0  0
 25 57  1  0  0  0  0
 27 58  1  0  0  0  0
 28 58  1  0  0  0  0
 29 61  1  0  0  0  0
 30 65  1  0  0  0  0
 31 59  1  0  0  0  0
 31 32  1  0  0  0  0
 32 33  2  0  0  0  0
 33 34  1  0  0  0  0
 33  2  1  0  0  0  0
 34  3  1  0  0  0  0
 35 41  1  0  0  0  0
 35 34  2  0  0  0  0
 36 31  2  0  0  0  0
 37 36  1  0  0  0  0
 37  4  1  0  0  0  0
 38 37  2  0  0  0  0
 39 40  2  0  0  0  0
 39 38  1  0  0  0  0
 40 60  1  0  0  0  0
 41 46  1  0  0  0  0
 42 41  2  0  0  0  0
 42 43  1  0  0  0  0
 43 44  2  0  0  0  0
 44 45  1  0  0  0  0
 44 54  1  0  0  0  0
 45  8  1  0  0  0  0
 46 55  1  0  0  0  0
 46 45  2  0  0  0  0
 47 52  1  0  0  0  0
 47 40  1  0  0  0  0
 48 47  2  0  0  0  0
 49 50  2  0  0  0  0
 49 48  1  0  0  0  0
 50 51  1  0  0  0  0
 51 10  1  0  0  0  0
 51 52  2  0  0  0  0
 52 56  1  0  0  0  0
 53 12  1  0  0  0  0
 53 11  1  0  0  0  0
 53 42  1  0  0  0  0
 54 14  1  0  0  0  0
 54 15  1  0  0  0  0
 55 19  1  0  0  0  0
 55 18  1  0  0  0  0
 56 22  1  0  0  0  0
 57 24  1  0  0  0  0
 57 50  1  0  0  0  0
 58 48  1  0  0  0  0
 58 26  1  0  0  0  0
 59 35  1  0  0  0  0
 60 36  1  0  0  0  0
 60 65  1  0  0  0  0
 62 30  1  0  0  0  0
 63 65  1  0  0  0  0
 65 29  1  0  0  0  0
 65 64  1  0  0  0  0
 65 59  1  0  0  0  0
M  END
$$$$
