CSD_code = RULBOP | q = 0 | S = 0 | Stoichiometry = C18H23B10ClHgN2 | MND = 4
 OpenBabel04212202093D

 55 60  0  0  1  0  0  0  0  0999 V2000
    1.8458    4.2028    1.0957 Hg  0  0  0  0  0  0  0  0  0  0  0  0
    0.3727    5.8828    0.1368 Cl  0  0  0  0  0  0  0  0  0  0  0  0
    2.8172    2.7916    2.5432 C   0  0  1  0  0  0  0  0  0  0  0  0
    4.4631    3.0411    2.9680 B   0  0  2  0  0  0  0  0  0  0  0  0
    3.1755    3.2513    4.1679 B   0  0  2  0  0  0  0  0  0  0  0  0
    1.9087    2.0709    3.8144 B   0  0  2  0  0  0  0  0  0  0  0  0
    2.4193    1.1231    2.4045 B   0  0  1  0  0  0  0  0  0  0  0  0
    3.9971    1.7186    1.8845 B   0  0  2  0  0  0  0  0  0  0  0  0
    5.1497    1.4303    3.1825 B   0  0  0  0  0  0  0  0  0  0  0  0
    4.6440    2.3747    4.5929 B   0  0  1  0  0  0  0  0  0  0  0  0
    3.0653    1.7616    5.1211 B   0  0  0  0  0  0  0  0  0  0  0  0
    2.5868    0.4599    4.0249 B   0  0  0  0  0  0  0  0  0  0  0  0
    3.8870    0.2340    2.8492 B   0  0  0  0  0  2  0  0  0  0  0  0
    4.2470    0.7037    4.4618 C   0  0  1  0  0  0  0  0  0  0  0  0
    4.9444   -0.2503    5.3704 C   0  0  0  0  0  0  0  0  0  0  0  0
    6.2979   -0.0911    5.6702 C   0  0  0  0  0  0  0  0  0  0  0  0
    6.9559   -0.9653    6.5155 C   0  0  0  0  0  0  0  0  0  0  0  0
    6.2798   -2.0268    7.0907 C   0  0  0  0  0  0  0  0  0  0  0  0
    4.9361   -2.1976    6.8099 C   0  0  0  0  0  0  0  0  0  0  0  0
    4.2797   -1.3221    5.9639 C   0  0  0  0  0  0  0  0  0  0  0  0
    3.4828    4.3874   -0.9944 N   0  0  0  0  0  0  0  0  0  0  0  0
    1.1773    2.8926   -1.1564 N   0  0  0  0  0  0  0  0  0  0  0  0
    4.7181    4.8559   -0.9401 C   0  0  0  0  0  0  0  0  0  0  0  0
    5.4733    5.1381   -2.0672 C   0  0  0  0  0  0  0  0  0  0  0  0
    4.9057    4.9050   -3.3098 C   0  0  0  0  0  0  0  0  0  0  0  0
    3.6154    4.4110   -3.3714 C   0  0  0  0  0  0  0  0  0  0  0  0
    2.9218    4.1709   -2.1844 C   0  0  0  0  0  0  0  0  0  0  0  0
    1.5436    3.6441   -2.1973 C   0  0  0  0  0  0  0  0  0  0  0  0
    0.6699    3.9245   -3.2465 C   0  0  0  0  0  0  0  0  0  0  0  0
   -0.6073    3.3935   -3.2154 C   0  0  0  0  0  0  0  0  0  0  0  0
   -0.9681    2.5833   -2.1517 C   0  0  0  0  0  0  0  0  0  0  0  0
   -0.0394    2.3736   -1.1444 C   0  0  0  0  0  0  0  0  0  0  0  0
    5.0375    3.9790    2.5473 H   0  0  0  0  0  0  0  0  0  0  0  0
    2.8913    4.3297    4.5411 H   0  0  0  0  0  0  0  0  0  0  0  0
    0.7761    2.3569    3.9537 H   0  0  0  0  0  0  0  0  0  0  0  0
    1.6283    0.7801    1.6039 H   0  0  0  0  0  0  0  0  0  0  0  0
    4.2540    1.7790    0.7379 H   0  0  0  0  0  0  0  0  0  0  0  0
    6.2751    1.1352    3.0246 H   0  0  0  0  0  0  0  0  0  0  0  0
    5.4259    2.7152    5.3999 H   0  0  0  0  0  0  0  0  0  0  0  0
    2.8238    1.6887    6.2680 H   0  0  0  0  0  0  0  0  0  0  0  0
    1.9784   -0.4620    4.4192 H   0  0  0  0  0  0  0  0  0  0  0  0
    4.1838   -0.8468    2.4979 H   0  0  0  0  0  0  0  0  0  0  0  0
    6.8495    0.7296    5.2405 H   0  0  0  0  0  0  0  0  0  0  0  0
    8.0048   -0.8146    6.7263 H   0  0  0  0  0  0  0  0  0  0  0  0
    6.7930   -2.7105    7.7504 H   0  0  0  0  0  0  0  0  0  0  0  0
    4.3912   -3.0185    7.2531 H   0  0  0  0  0  0  0  0  0  0  0  0
    3.2320   -1.4799    5.7694 H   0  0  0  0  0  0  0  0  0  0  0  0
    5.1211    5.0084    0.0519 H   0  0  0  0  0  0  0  0  0  0  0  0
    6.4753    5.5246   -1.9724 H   0  0  0  0  0  0  0  0  0  0  0  0
    5.4603    5.1009   -4.2157 H   0  0  0  0  0  0  0  0  0  0  0  0
    3.1584    4.1966   -4.3244 H   0  0  0  0  0  0  0  0  0  0  0  0
    0.9687    4.5792   -4.0496 H   0  0  0  0  0  0  0  0  0  0  0  0
   -1.3099    3.6131   -4.0057 H   0  0  0  0  0  0  0  0  0  0  0  0
   -1.9499    2.1413   -2.0920 H   0  0  0  0  0  0  0  0  0  0  0  0
   -0.2761    1.7543   -0.2888 H   0  0  0  0  0  0  0  0  0  0  0  0
  2  1  1  0  0  0  0
  3  4  1  0  0  0  0
  3  6  1  0  0  0  0
  4  9  1  0  0  0  0
  4 10  1  0  0  0  0
  5 34  1  0  0  0  0
  5 10  1  0  0  0  0
  5 11  1  0  0  0  0
  6 35  1  0  0  0  0
  6 12  1  0  0  0  0
  6  5  1  0  0  0  0
  7  3  1  0  0  0  0
  7 12  1  0  0  0  0
  8  7  1  0  0  0  0
  8  3  1  0  0  0  0
  8  9  1  0  0  0  0
 10 39  1  0  0  0  0
 11 40  1  0  0  0  0
 12 41  1  0  0  0  0
 13 14  1  0  0  0  0
 14 10  1  0  0  0  0
 14 11  1  0  0  0  0
 14 15  1  0  0  0  0
 15 16  2  0  0  0  0
 15 20  1  0  0  0  0
 16 17  1  0  0  0  0
 17 44  1  0  0  0  0
 17 18  2  0  0  0  0
 18 45  1  0  0  0  0
 19 18  1  0  0  0  0
 19 46  1  0  0  0  0
 20 19  2  0  0  0  0
 21 23  1  0  0  0  0
 22 32  1  0  0  0  0
 23 48  1  0  0  0  0
 24 49  1  0  0  0  0
 24 23  2  0  0  0  0
 25 24  1  0  0  0  0
 26 25  2  0  0  0  0
 26 27  1  0  0  0  0
 27 21  2  0  0  0  0
 28 27  1  0  0  0  0
 28 22  2  0  0  0  0
 29 30  2  0  0  0  0
 29 28  1  0  0  0  0
 30 31  1  0  0  0  0
 31 54  1  0  0  0  0
 31 32  2  0  0  0  0
 32 55  1  0  0  0  0
 33  4  1  0  0  0  0
 36  7  1  0  0  0  0
 37  8  1  0  0  0  0
 38  9  1  0  0  0  0
 42 13  1  0  0  0  0
 43 16  1  0  0  0  0
 47 20  1  0  0  0  0
 50 25  1  0  0  0  0
 51 26  1  0  0  0  0
 52 29  1  0  0  0  0
 53 30  1  0  0  0  0
M  END
$$$$
