CSD_code = RUMZOP | q = 0 | S = 0 | Stoichiometry = C15H27BrFeN2 | MND = 4
 OpenBabel04212202093D

 46 46  0  0  0  0  0  0  0  0999 V2000
   12.8434    2.5083   11.2279 Br  0  0  0  0  0  0  0  0  0  0  0  0
   12.5388    1.8481    9.1083 Fe  0  0  0  0  0  0  0  0  0  0  0  0
   10.7907    3.4700    8.2853 N   0  0  0  0  0  0  0  0  0  0  0  0
   10.3701    0.8691    9.7293 N   0  0  0  0  0  4  0  0  0  0  0  0
    9.4771    2.8596    8.5021 C   0  0  0  0  0  0  0  0  0  0  0  0
    9.4341    1.9973    9.7631 C   0  0  0  0  0  0  0  0  0  0  0  0
   10.9678    3.7916    6.8735 C   0  0  0  0  0  0  0  0  0  0  0  0
   10.9074    4.6941    9.0734 C   0  0  0  0  0  0  0  0  0  0  0  0
   10.0102   -0.0737    8.6726 C   0  0  0  0  0  0  0  0  0  0  0  0
   10.3172    0.1751   11.0150 C   0  0  0  0  0  0  0  0  0  0  0  0
   13.7631    2.0553    7.6438 C   0  0  0  0  0  0  0  0  0  0  0  0
   13.7968    0.9280    6.8145 C   0  0  0  0  0  0  0  0  0  0  0  0
   14.3841    0.9913    5.5580 C   0  0  0  0  0  0  0  0  0  0  0  0
   14.9823    2.1591    5.1090 C   0  0  0  0  0  0  0  0  0  0  0  0
   15.0126    3.2551    5.9611 C   0  0  0  0  0  0  0  0  0  0  0  0
   14.4203    3.2132    7.2152 C   0  0  0  0  0  0  0  0  0  0  0  0
   13.2320   -0.3899    7.2963 C   0  0  0  0  0  0  0  0  0  0  0  0
   15.6346    2.2236    3.7596 C   0  0  0  0  0  0  0  0  0  0  0  0
   14.5432    4.4043    8.1266 C   0  0  0  0  0  0  0  0  0  0  0  0
    8.6966    3.6327    8.5875 H   0  0  0  0  0  0  0  0  0  0  0  0
   11.9408    4.2540    6.7324 H   0  0  0  0  0  0  0  0  0  0  0  0
   11.8840    5.1375    8.9035 H   0  0  0  0  0  0  0  0  0  0  0  0
   10.2242    0.3538    7.6942 H   0  0  0  0  0  0  0  0  0  0  0  0
   10.5710    0.8633   11.8181 H   0  0  0  0  0  0  0  0  0  0  0  0
   12.9732   -0.3354    8.3614 H   0  0  0  0  0  0  0  0  0  0  0  0
   15.5907    4.5757    8.3725 H   0  0  0  0  0  0  0  0  0  0  0  0
    9.2314    2.2459    7.6337 H   0  0  0  0  0  0  0  0  0  0  0  0
    8.4014    1.6333    9.8989 H   0  0  0  0  0  0  0  0  0  0  0  0
    9.6945    2.6100   10.6284 H   0  0  0  0  0  0  0  0  0  0  0  0
   10.9416    2.8790    6.2796 H   0  0  0  0  0  0  0  0  0  0  0  0
   10.1907    4.4790    6.5097 H   0  0  0  0  0  0  0  0  0  0  0  0
   10.1333    5.4249    8.7983 H   0  0  0  0  0  0  0  0  0  0  0  0
   10.8180    4.4673   10.1324 H   0  0  0  0  0  0  0  0  0  0  0  0
   10.5979   -0.9830    8.7844 H   0  0  0  0  0  0  0  0  0  0  0  0
    8.9456   -0.3440    8.7216 H   0  0  0  0  0  0  0  0  0  0  0  0
    9.3184   -0.2408   11.2053 H   0  0  0  0  0  0  0  0  0  0  0  0
   11.0435   -0.6360   11.0203 H   0  0  0  0  0  0  0  0  0  0  0  0
   14.3881    0.1098    4.9289 H   0  0  0  0  0  0  0  0  0  0  0  0
   15.5144    4.1606    5.6441 H   0  0  0  0  0  0  0  0  0  0  0  0
   12.3488   -0.6733    6.7227 H   0  0  0  0  0  0  0  0  0  0  0  0
   13.9740   -1.1774    7.1712 H   0  0  0  0  0  0  0  0  0  0  0  0
   16.7081    2.0536    3.8540 H   0  0  0  0  0  0  0  0  0  0  0  0
   15.4901    3.2026    3.3065 H   0  0  0  0  0  0  0  0  0  0  0  0
   15.2294    1.4639    3.0947 H   0  0  0  0  0  0  0  0  0  0  0  0
   14.1657    5.3078    7.6476 H   0  0  0  0  0  0  0  0  0  0  0  0
   14.0021    4.2316    9.0551 H   0  0  0  0  0  0  0  0  0  0  0  0
  2  4  1  0  0  0  0
  2  1  1  0  0  0  0
  3  5  1  0  0  0  0
  3  8  1  0  0  0  0
  4  6  1  0  0  0  0
  4 10  1  0  0  0  0
  5 20  1  0  0  0  0
  5  6  1  0  0  0  0
  6 28  1  0  0  0  0
  6 29  1  0  0  0  0
  7  3  1  0  0  0  0
  8 33  1  0  0  0  0
  9 35  1  0  0  0  0
  9 34  1  0  0  0  0
  9  4  1  0  0  0  0
 10 37  1  0  0  0  0
 10 36  1  0  0  0  0
 10 24  1  0  0  0  0
 11  2  1  0  0  0  0
 12 17  1  0  0  0  0
 12 11  2  0  0  0  0
 13 12  1  0  0  0  0
 14 13  2  0  0  0  0
 14 15  1  0  0  0  0
 15 16  2  0  0  0  0
 16 11  1  0  0  0  0
 16 19  1  0  0  0  0
 17 25  1  0  0  0  0
 18 42  1  0  0  0  0
 18 14  1  0  0  0  0
 19 26  1  0  0  0  0
 19 46  1  0  0  0  0
 21  7  1  0  0  0  0
 22  8  1  0  0  0  0
 23  9  1  0  0  0  0
 27  5  1  0  0  0  0
 30  7  1  0  0  0  0
 31  7  1  0  0  0  0
 32  8  1  0  0  0  0
 38 13  1  0  0  0  0
 39 15  1  0  0  0  0
 40 17  1  0  0  0  0
 41 17  1  0  0  0  0
 43 18  1  0  0  0  0
 44 18  1  0  0  0  0
 45 19  1  0  0  0  0
M  END
$$$$
