CSD_code = RUNHIR | q = 0 | S = 0 | Stoichiometry = C23H27ClOSTi | MND = 8
 OpenBabel04212202093D

 54 55  0  0  1  0  0  0  0  0999 V2000
    1.4119    5.8431   10.4041 Ti  0  0  0  0  0  0  0  0  0  0  0  0
    1.2933    4.5044    8.6858 Cl  0  0  0  0  0  0  0  0  0  0  0  0
   -0.7448    5.5015   11.2427 S   0  0  0  0  0  1  0  0  0  0  0  0
    2.3106    5.0369   11.5322 O   0  0  0  0  0  0  0  0  0  0  0  0
    0.5879    7.9699    9.9473 C   0  0  0  0  0  0  0  0  0  0  0  0
    1.3768    7.5923    8.8493 C   0  0  0  0  0  0  0  0  0  0  0  0
    2.7050    7.4214    9.3003 C   0  0  0  0  0  0  0  0  0  0  0  0
    2.7393    7.7189   10.6834 C   0  0  0  0  0  0  0  0  0  0  0  0
    1.4253    8.0401   11.0883 C   0  0  2  0  0  0  0  0  0  0  0  0
    3.2167    4.5466   12.3700 C   0  0  0  0  0  0  0  0  0  0  0  0
    4.3612    3.9100   11.8523 C   0  0  0  0  0  0  0  0  0  0  0  0
    5.2810    3.3812   12.7429 C   0  0  0  0  0  0  0  0  0  0  0  0
    5.0953    3.4967   14.1095 C   0  0  0  0  0  0  0  0  0  0  0  0
    3.9869    4.1569   14.6082 C   0  0  0  0  0  0  0  0  0  0  0  0
    3.0322    4.6893   13.7567 C   0  0  0  0  0  0  0  0  0  0  0  0
    4.5265    3.8095   10.3532 C   0  0  0  0  0  0  0  0  0  0  0  0
    5.9659    4.0628    9.9042 C   0  0  0  0  0  0  0  0  0  0  0  0
    4.0424    2.4363    9.8763 C   0  0  0  0  0  0  0  0  0  0  0  0
    1.8367    5.4588   14.2673 C   0  0  0  0  0  0  0  0  0  0  0  0
    2.2901    6.8417   14.7478 C   0  0  0  0  0  0  0  0  0  0  0  0
    1.1031    4.7105   15.3793 C   0  0  0  0  0  0  0  0  0  0  0  0
   -0.6731    3.9682   12.1079 C   0  0  0  0  0  0  0  0  0  0  0  0
    0.1984    2.9512   11.7249 C   0  0  0  0  0  0  0  0  0  0  0  0
    0.2367    1.7722   12.4468 C   0  0  0  0  0  0  0  0  0  0  0  0
   -0.6023    1.5858   13.5343 C   0  0  0  0  0  0  0  0  0  0  0  0
   -1.4922    2.5851   13.8946 C   0  0  0  0  0  0  0  0  0  0  0  0
   -1.5282    3.7730   13.1897 C   0  0  0  0  0  0  0  0  0  0  0  0
   -0.4567    8.2561    9.9162 H   0  0  0  0  0  0  0  0  0  0  0  0
    1.0478    7.5312    7.8192 H   0  0  0  0  0  0  0  0  0  0  0  0
    3.5664    7.2216    8.6728 H   0  0  0  0  0  0  0  0  0  0  0  0
    3.6324    7.7811   11.2964 H   0  0  0  0  0  0  0  0  0  0  0  0
    1.1283    8.4051   12.0639 H   0  0  0  0  0  0  0  0  0  0  0  0
    0.8305    3.0849   10.8510 H   0  0  0  0  0  0  0  0  0  0  0  0
    0.9219    0.9902   12.1531 H   0  0  0  0  0  0  0  0  0  0  0  0
   -0.5674    0.6626   14.0930 H   0  0  0  0  0  0  0  0  0  0  0  0
   -2.1574    2.4413   14.7333 H   0  0  0  0  0  0  0  0  0  0  0  0
   -2.2126    4.5611   13.4651 H   0  0  0  0  0  0  0  0  0  0  0  0
    6.1568    2.8752   12.3679 H   0  0  0  0  0  0  0  0  0  0  0  0
    5.8233    3.0781   14.7881 H   0  0  0  0  0  0  0  0  0  0  0  0
    3.8640    4.2582   15.6753 H   0  0  0  0  0  0  0  0  0  0  0  0
    3.8819    4.5780    9.8874 H   0  0  0  0  0  0  0  0  0  0  0  0
    6.6201    3.2484   10.2050 H   0  0  0  0  0  0  0  0  0  0  0  0
    6.0040    4.1400    8.8200 H   0  0  0  0  0  0  0  0  0  0  0  0
    6.3446    4.9888   10.3319 H   0  0  0  0  0  0  0  0  0  0  0  0
    2.9990    2.2900   10.1507 H   0  0  0  0  0  0  0  0  0  0  0  0
    4.1247    2.3641    8.7945 H   0  0  0  0  0  0  0  0  0  0  0  0
    4.6372    1.6458   10.3298 H   0  0  0  0  0  0  0  0  0  0  0  0
    1.1385    5.6023   13.4268 H   0  0  0  0  0  0  0  0  0  0  0  0
    2.9839    6.7469   15.5806 H   0  0  0  0  0  0  0  0  0  0  0  0
    2.7907    7.3772   13.9422 H   0  0  0  0  0  0  0  0  0  0  0  0
    1.4325    7.4248   15.0759 H   0  0  0  0  0  0  0  0  0  0  0  0
    0.1728    5.2209   15.6167 H   0  0  0  0  0  0  0  0  0  0  0  0
    0.8672    3.6977   15.0620 H   0  0  0  0  0  0  0  0  0  0  0  0
    1.7059    4.6634   16.2828 H   0  0  0  0  0  0  0  0  0  0  0  0
  1  9  1  0  0  0  0
  1  4  1  0  0  0  0
  2  1  1  0  0  0  0
  3 22  1  0  0  0  0
  4 10  1  0  0  0  0
  5  9  1  0  0  0  0
  6  7  1  0  0  0  0
  6  5  2  0  0  0  0
  7  8  2  0  0  0  0
  8  9  1  0  0  0  0
  8 31  1  0  0  0  0
  9 32  1  1  0  0  0
 10 15  1  0  0  0  0
 11 10  2  0  0  0  0
 11 12  1  0  0  0  0
 12 13  2  0  0  0  0
 13 14  1  0  0  0  0
 13 39  1  0  0  0  0
 14 40  1  0  0  0  0
 15 19  1  0  0  0  0
 15 14  2  0  0  0  0
 16 11  1  0  0  0  0
 17 42  1  0  0  0  0
 17 44  1  0  0  0  0
 17 16  1  0  0  0  0
 18 45  1  0  0  0  0
 18 47  1  0  0  0  0
 18 16  1  0  0  0  0
 19 20  1  0  0  0  0
 19 21  1  0  0  0  0
 20 51  1  0  0  0  0
 20 49  1  0  0  0  0
 21 52  1  0  0  0  0
 21 54  1  0  0  0  0
 22 27  1  0  0  0  0
 23 22  2  0  0  0  0
 23 24  1  0  0  0  0
 24 25  2  0  0  0  0
 25 26  1  0  0  0  0
 25 35  1  0  0  0  0
 26 36  1  0  0  0  0
 27 37  1  0  0  0  0
 27 26  2  0  0  0  0
 28  5  1  0  0  0  0
 29  6  1  0  0  0  0
 30  7  1  0  0  0  0
 33 23  1  0  0  0  0
 34 24  1  0  0  0  0
 38 12  1  0  0  0  0
 41 16  1  0  0  0  0
 43 17  1  0  0  0  0
 46 18  1  0  0  0  0
 48 19  1  0  0  0  0
 50 20  1  0  0  0  0
 53 21  1  0  0  0  0
M  END
$$$$
