CSD_code = RUNVAY | q = 0 | S = 0 | Stoichiometry = C19H14Cl3N3OZn | MND = 5
 OpenBabel04212202093D

 41 45  0  0  1  0  0  0  0  0999 V2000
    7.5875    4.0711    4.0034 Zn  0  0  0  0  0  0  0  0  0  0  0  0
   10.0642   -0.5589   10.9229 Cl  0  0  0  0  0  0  0  0  0  0  0  0
    7.9423    5.4520    5.7851 Cl  0  0  0  0  0  0  0  0  0  0  0  0
    8.6861    3.9508    2.1270 Cl  0  0  0  0  0  0  0  0  0  0  0  0
    8.2223    2.2619    5.1771 O   0  0  0  0  0  0  0  0  0  0  0  0
    5.6870    4.9129    3.1982 N   0  0  0  0  0  0  0  0  0  0  0  0
    5.9084    3.4120    5.2843 N   0  0  0  0  0  0  0  0  0  0  0  0
    6.3459    2.7138    6.3336 N   0  0  0  0  0  0  0  0  0  0  0  0
    5.8747    2.7993    7.2319 H   0  0  0  0  0  0  0  0  0  0  0  0
    4.6845    4.9602    4.0816 C   0  0  0  0  0  0  0  0  0  0  0  0
    3.5542    5.7442    3.8602 C   0  0  0  0  0  0  0  0  0  0  0  0
    2.7709    5.7902    4.6002 H   0  0  0  0  0  0  0  0  0  0  0  0
    3.4641    6.4621    2.6791 C   0  0  0  0  0  0  0  0  0  0  0  0
    2.5990    7.0775    2.4820 H   0  0  0  0  0  0  0  0  0  0  0  0
    4.4993    6.3815    1.7612 C   0  0  0  0  0  0  0  0  0  0  0  0
    4.4649    6.9250    0.8310 H   0  0  0  0  0  0  0  0  0  0  0  0
    5.6007    5.5948    2.0725 C   0  0  0  0  0  0  0  0  0  0  0  0
    6.4483    5.5046    1.4069 H   0  0  0  0  0  0  0  0  0  0  0  0
    4.8959    4.1930    5.3100 C   0  0  0  0  0  0  0  0  0  0  0  0
    7.6087    2.1944    6.2305 C   0  0  1  0  0  3  0  0  0  0  0  0
    8.1611    1.5306    7.4281 C   0  0  0  0  0  0  0  0  0  0  0  0
    9.2298    0.6532    7.2327 C   0  0  0  0  0  0  0  0  0  0  0  0
    9.5865    0.4945    6.2267 H   0  0  0  0  0  0  0  0  0  0  0  0
    9.8167    0.0045    8.2991 C   0  0  0  0  0  0  0  0  0  0  0  0
   10.6389   -0.6758    8.1443 H   0  0  0  0  0  0  0  0  0  0  0  0
    9.3426    0.2424    9.5824 C   0  0  0  0  0  0  0  0  0  0  0  0
    8.2968    1.1304    9.7980 C   0  0  0  0  0  0  0  0  0  0  0  0
    7.9543    1.3212   10.8029 H   0  0  0  0  0  0  0  0  0  0  0  0
    7.7084    1.7714    8.7252 C   0  0  0  0  0  0  0  0  0  0  0  0
    6.9218    2.4840    8.9232 H   0  0  0  0  0  0  0  0  0  0  0  0
    4.0827    4.4367    6.5199 C   0  0  0  0  0  0  0  0  0  0  0  0
    2.7485    4.0526    6.6037 C   0  0  0  0  0  0  0  0  0  0  0  0
    2.2779    3.5603    5.7647 H   0  0  0  0  0  0  0  0  0  0  0  0
    2.0372    4.2860    7.7677 C   0  0  0  0  0  0  0  0  0  0  0  0
    1.0016    3.9873    7.8311 H   0  0  0  0  0  0  0  0  0  0  0  0
    2.6499    4.9016    8.8472 C   0  0  0  0  0  0  0  0  0  0  0  0
    2.0892    5.0849    9.7514 H   0  0  0  0  0  0  0  0  0  0  0  0
    3.9792    5.2839    8.7663 C   0  0  0  0  0  0  0  0  0  0  0  0
    4.4567    5.7679    9.6047 H   0  0  0  0  0  0  0  0  0  0  0  0
    4.7012    5.0495    7.6093 C   0  0  0  0  0  0  0  0  0  0  0  0
    5.7324    5.3644    7.5202 H   0  0  0  0  0  0  0  0  0  0  0  0
  1  5  1  0  0  0  0
  1  7  1  0  0  0  0
  1  3  1  0  0  0  0
  4  1  1  0  0  0  0
  5 20  1  0  0  0  0
  6  1  1  0  0  0  0
  6 10  1  0  0  0  0
  7 19  1  0  0  0  0
  7  8  1  0  0  0  0
  8  9  1  0  0  0  0
 10 19  2  0  0  0  0
 11 10  1  0  0  0  0
 11 12  1  0  0  0  0
 13 11  2  0  0  0  0
 14 13  1  0  0  0  0
 15 17  2  0  0  0  0
 15 13  1  0  0  0  0
 16 15  1  0  0  0  0
 17  6  1  0  0  0  0
 18 17  1  0  0  0  0
 19 31  1  0  0  0  0
 20  8  1  0  0  0  0
 20 21  1  6  0  0  0
 21 29  1  0  0  0  0
 22 21  2  0  0  0  0
 22 24  1  0  0  0  0
 23 22  1  0  0  0  0
 24 26  2  0  0  0  0
 25 24  1  0  0  0  0
 26 27  1  0  0  0  0
 26  2  1  0  0  0  0
 27 28  1  0  0  0  0
 29 30  1  0  0  0  0
 29 27  2  0  0  0  0
 31 32  2  0  0  0  0
 31 40  1  0  0  0  0
 32 34  1  0  0  0  0
 33 32  1  0  0  0  0
 34 35  1  0  0  0  0
 34 36  2  0  0  0  0
 36 37  1  0  0  0  0
 38 36  1  0  0  0  0
 38 39  1  0  0  0  0
 40 38  2  0  0  0  0
 41 40  1  0  0  0  0
M  END
$$$$
