CSD_code = RUNVUR | q = 0 | S = 0 | Stoichiometry = C27H28Cl2P2Pd | MND = 4
 OpenBabel04212202093D

 60 65  0  0  1  0  0  0  0  0999 V2000
    7.7046    5.9936    5.0413 Pd  0  0  0  0  0  0  0  0  0  0  0  0
    8.0326    5.3192    2.8873 Cl  0  0  0  0  0  0  0  0  0  0  0  0
    8.9369    7.8861    4.8774 Cl  0  0  0  0  0  0  0  0  0  0  0  0
    6.4435    4.1696    5.0764 P   0  0  2  0  0  4  0  0  0  0  0  0
    7.0680    6.2272    7.1774 P   0  0  0  0  0  4  0  0  0  0  0  0
    6.0364    2.3112    3.0311 C   0  0  0  0  0  0  0  0  0  0  0  0
    6.3041    1.1199    2.3819 C   0  0  0  0  0  0  0  0  0  0  0  0
    7.2348    0.2363    2.9044 C   0  0  0  0  0  0  0  0  0  0  0  0
    7.9106    0.5435    4.0749 C   0  0  0  0  0  0  0  0  0  0  0  0
    7.6494    1.7326    4.7290 C   0  0  0  0  0  0  0  0  0  0  0  0
    6.6986    2.6093    4.2155 C   0  0  0  0  0  0  0  0  0  0  0  0
    4.6252    4.5409    5.0221 C   0  0  1  0  0  0  0  0  0  0  0  0
    4.0361    3.2728    5.5933 C   0  0  0  0  0  0  0  0  0  0  0  0
    4.7676    2.8586    6.6317 C   0  0  0  0  0  0  0  0  0  0  0  0
    5.9641    3.7513    6.8264 C   0  0  2  0  0  0  0  0  0  0  0  0
    5.5253    5.1794    7.2307 C   0  0  2  0  0  0  0  0  0  0  0  0
    4.5119    5.6202    6.1350 C   0  0  1  0  0  0  0  0  0  0  0  0
    2.7589    2.7327    5.0518 C   0  0  0  0  0  0  0  0  0  0  0  0
    4.5446    1.7106    7.5542 C   0  0  0  0  0  0  0  0  0  0  0  0
    4.6945    7.0293    5.5677 C   0  0  0  0  0  0  0  0  0  0  0  0
    8.0993    5.1036    9.5532 C   0  0  0  0  0  0  0  0  0  0  0  0
    9.0271    4.3584   10.2581 C   0  0  0  0  0  0  0  0  0  0  0  0
   10.1082    3.7914    9.6011 C   0  0  0  0  0  0  0  0  0  0  0  0
   10.2714    3.9748    8.2368 C   0  0  0  0  0  0  0  0  0  0  0  0
    9.3478    4.7194    7.5252 C   0  0  0  0  0  0  0  0  0  0  0  0
    8.2512    5.2778    8.1810 C   0  0  0  0  0  0  0  0  0  0  0  0
    5.7287    7.8863    9.0749 C   0  0  0  0  0  0  0  0  0  0  0  0
    5.6573    9.0437    9.8300 C   0  0  0  0  0  0  0  0  0  0  0  0
    6.6383   10.0152    9.7153 C   0  0  0  0  0  0  0  0  0  0  0  0
    7.6943    9.8372    8.8353 C   0  0  0  0  0  0  0  0  0  0  0  0
    7.7750    8.6840    8.0776 C   0  0  0  0  0  0  0  0  0  0  0  0
    6.7948    7.7009    8.2015 C   0  0  0  0  0  0  0  0  0  0  0  0
    5.3322    3.0191    2.6186 H   0  0  0  0  0  0  0  0  0  0  0  0
    5.7930    0.8822    1.4607 H   0  0  0  0  0  0  0  0  0  0  0  0
    7.4442   -0.6903    2.3907 H   0  0  0  0  0  0  0  0  0  0  0  0
    8.6467   -0.1411    4.4702 H   0  0  0  0  0  0  0  0  0  0  0  0
    8.1814    1.9971    5.6351 H   0  0  0  0  0  0  0  0  0  0  0  0
    4.2007    4.8673    4.0727 H   0  0  0  0  0  0  0  0  0  0  0  0
    6.7266    3.3390    7.4894 H   0  0  0  0  0  0  0  0  0  0  0  0
    5.0783    5.1815    8.2303 H   0  0  0  0  0  0  0  0  0  0  0  0
    3.5018    5.5650    6.5609 H   0  0  0  0  0  0  0  0  0  0  0  0
    2.4425    1.8442    5.5901 H   0  0  0  0  0  0  0  0  0  0  0  0
    2.8811    2.4763    3.9999 H   0  0  0  0  0  0  0  0  0  0  0  0
    1.9717    3.4838    5.1219 H   0  0  0  0  0  0  0  0  0  0  0  0
    3.6221    1.1869    7.3221 H   0  0  0  0  0  0  0  0  0  0  0  0
    4.4987    2.0604    8.5858 H   0  0  0  0  0  0  0  0  0  0  0  0
    5.3733    1.0063    7.4785 H   0  0  0  0  0  0  0  0  0  0  0  0
    4.7946    7.7629    6.3681 H   0  0  0  0  0  0  0  0  0  0  0  0
    3.8196    7.2944    4.9753 H   0  0  0  0  0  0  0  0  0  0  0  0
    5.5773    7.0998    4.9019 H   0  0  0  0  0  0  0  0  0  0  0  0
    7.2596    5.5573   10.0618 H   0  0  0  0  0  0  0  0  0  0  0  0
    8.9102    4.2216   11.3231 H   0  0  0  0  0  0  0  0  0  0  0  0
   10.8305    3.2118   10.1565 H   0  0  0  0  0  0  0  0  0  0  0  0
   11.1214    3.5419    7.7306 H   0  0  0  0  0  0  0  0  0  0  0  0
    9.4803    4.8885    6.4454 H   0  0  0  0  0  0  0  0  0  0  0  0
    4.9503    7.1418    9.1649 H   0  0  0  0  0  0  0  0  0  0  0  0
    4.8298    9.1885   10.5096 H   0  0  0  0  0  0  0  0  0  0  0  0
    6.5728   10.9159   10.3075 H   0  0  0  0  0  0  0  0  0  0  0  0
    8.4511   10.6003    8.7350 H   0  0  0  0  0  0  0  0  0  0  0  0
    8.5730    8.5405    7.3591 H   0  0  0  0  0  0  0  0  0  0  0  0
  1  4  1  0  0  0  0
  1  5  1  0  0  0  0
  2  1  1  0  0  0  0
  3  1  1  0  0  0  0
  4 11  1  6  0  0  0
  4 15  1  0  0  0  0
  5 16  1  0  0  0  0
  5 26  1  0  0  0  0
  5 32  1  0  0  0  0
  6 11  1  0  0  0  0
  7  8  1  0  0  0  0
  7  6  2  0  0  0  0
  8  9  2  0  0  0  0
  9 36  1  0  0  0  0
  9 10  1  0  0  0  0
 10 37  1  0  0  0  0
 11 10  2  0  0  0  0
 12 38  1  6  0  0  0
 12  4  1  0  0  0  0
 12 13  1  0  0  0  0
 12 17  1  0  0  0  0
 13 14  2  0  0  0  0
 14 15  1  0  0  0  0
 14 19  1  0  0  0  0
 15 16  1  0  0  0  0
 15 39  1  1  0  0  0
 16 40  1  1  0  0  0
 17 41  1  1  0  0  0
 17 16  1  0  0  0  0
 18 44  1  0  0  0  0
 18 42  1  0  0  0  0
 18 13  1  0  0  0  0
 19 46  1  0  0  0  0
 20 17  1  0  0  0  0
 20 48  1  0  0  0  0
 21 51  1  0  0  0  0
 21 22  1  0  0  0  0
 22 52  1  0  0  0  0
 23 53  1  0  0  0  0
 23 22  2  0  0  0  0
 24 23  1  0  0  0  0
 25 26  1  0  0  0  0
 25 24  2  0  0  0  0
 26 21  2  0  0  0  0
 27 56  1  0  0  0  0
 27 28  1  0  0  0  0
 28 57  1  0  0  0  0
 29 28  2  0  0  0  0
 29 58  1  0  0  0  0
 30 29  1  0  0  0  0
 31 32  1  0  0  0  0
 31 30  2  0  0  0  0
 32 27  2  0  0  0  0
 33  6  1  0  0  0  0
 34  7  1  0  0  0  0
 35  8  1  0  0  0  0
 43 18  1  0  0  0  0
 45 19  1  0  0  0  0
 47 19  1  0  0  0  0
 49 20  1  0  0  0  0
 50 20  1  0  0  0  0
 54 24  1  0  0  0  0
 55 25  1  0  0  0  0
 59 30  1  0  0  0  0
 60 31  1  0  0  0  0
M  END
$$$$
