CSD_code = RUNVEC | q = 0 | S = 0 | Stoichiometry = C21H19ClN4O4SZn | MND = 5
 OpenBabel04212202093D

 51 55  0  0  1  0  0  0  0  0999 V2000
   -2.5960    8.8702    3.0940 Zn  0  0  0  0  0  0  0  0  0  0  0  0
   -2.2793   11.0454    3.2666 Cl  0  0  0  0  0  0  0  0  0  0  0  0
   -1.7148    8.3441    1.2903 O   0  0  0  0  0  0  0  0  0  0  0  0
    2.0330    5.7548   -3.8387 O   0  0  0  0  0  0  0  0  0  0  0  0
    2.0245    3.8314   -2.8828 O   0  0  0  0  0  0  0  0  0  0  0  0
   -3.3065    8.4940    5.1126 N   0  0  0  0  0  0  0  0  0  0  0  0
   -1.9812    6.9904    3.4561 N   0  0  0  0  0  0  0  0  0  0  0  0
   -1.3770    6.3854    2.4450 N   0  0  0  0  0  0  0  0  0  0  0  0
    1.7342    5.0088   -2.9293 N   0  0  0  0  0  0  0  0  0  0  0  0
   -3.0110    7.2524    5.5166 C   0  0  2  0  0  3  0  0  0  0  0  0
   -3.2270    6.8569    6.8388 C   0  0  0  0  0  0  0  0  0  0  0  0
   -2.9456    5.8661    7.1587 H   0  0  0  0  0  0  0  0  0  0  0  0
   -3.7797    7.7620    7.7265 C   0  0  0  0  0  0  0  0  0  0  0  0
   -3.9556    7.4774    8.7534 H   0  0  0  0  0  0  0  0  0  0  0  0
   -4.0930    9.0392    7.2840 C   0  0  0  0  0  0  0  0  0  0  0  0
   -4.5244    9.7713    7.9470 H   0  0  0  0  0  0  0  0  0  0  0  0
   -3.8245    9.3602    5.9620 C   0  0  0  0  0  0  0  0  0  0  0  0
   -4.0216   10.3456    5.5636 H   0  0  0  0  0  0  0  0  0  0  0  0
   -2.4088    6.3780    4.5135 C   0  0  1  0  0  3  0  0  0  0  0  0
   -1.2372    7.1881    1.3902 C   0  0  0  0  0  0  0  0  0  0  0  0
   -0.4641    6.6046    0.2701 C   0  0  0  0  0  0  0  0  0  0  0  0
   -0.0955    7.4215   -0.7986 C   0  0  0  0  0  0  0  0  0  0  0  0
   -0.3846    8.4611   -0.7796 H   0  0  0  0  0  0  0  0  0  0  0  0
    0.6287    6.9032   -1.8514 C   0  0  0  0  0  0  0  0  0  0  0  0
    0.9272    7.5146   -2.6894 H   0  0  0  0  0  0  0  0  0  0  0  0
    0.9822    5.5580   -1.8312 C   0  0  0  0  0  0  0  0  0  0  0  0
    0.6207    4.7316   -0.7709 C   0  0  0  0  0  0  0  0  0  0  0  0
    0.9138    3.6929   -0.7917 H   0  0  0  0  0  0  0  0  0  0  0  0
   -0.1031    5.2571    0.2782 C   0  0  0  0  0  0  0  0  0  0  0  0
   -0.4037    4.6456    1.1135 H   0  0  0  0  0  0  0  0  0  0  0  0
   -2.3135    4.9271    4.7213 C   0  0  0  0  0  0  0  0  0  0  0  0
   -3.4097    4.2084    5.1988 C   0  0  0  0  0  0  0  0  0  0  0  0
   -4.3352    4.7242    5.4114 H   0  0  0  0  0  0  0  0  0  0  0  0
   -3.3259    2.8391    5.3671 C   0  0  0  0  0  0  0  0  0  0  0  0
   -4.1818    2.2907    5.7323 H   0  0  0  0  0  0  0  0  0  0  0  0
   -2.1504    2.1704    5.0659 C   0  0  0  0  0  0  0  0  0  0  0  0
   -2.0868    1.1011    5.2019 H   0  0  0  0  0  0  0  0  0  0  0  0
   -1.0608    2.8765    4.5829 C   0  0  0  0  0  0  0  0  0  0  0  0
   -0.1448    2.3573    4.3428 H   0  0  0  0  0  0  0  0  0  0  0  0
   -1.1402    4.2448    4.4040 C   0  0  0  0  0  0  0  0  0  0  0  0
   -0.2946    4.7976    4.0271 H   0  0  0  0  0  0  0  0  0  0  0  0
   -4.7418   10.4377    1.8083 S   0  0  0  0  0  3  0  0  0  0  0  0
   -4.4163    9.0610    2.3031 O   0  0  0  0  0  0  0  0  0  0  0  0
   -3.7376   10.6631    0.3054 C   0  0  0  0  0  0  0  0  0  0  0  0
   -3.7088    9.7231   -0.2359 H   0  0  0  0  0  0  0  0  0  0  0  0
   -2.7368   10.9369    0.6232 H   0  0  0  0  0  0  0  0  0  0  0  0
   -4.1697   11.4572   -0.2928 H   0  0  0  0  0  0  0  0  0  0  0  0
   -6.3181   10.1224    0.9077 C   0  0  0  0  0  0  0  0  0  0  0  0
   -7.0626    9.8324    1.6410 H   0  0  0  0  0  0  0  0  0  0  0  0
   -6.1746    9.3188    0.1953 H   0  0  0  0  0  0  0  0  0  0  0  0
   -6.6284   11.0331    0.4090 H   0  0  0  0  0  0  0  0  0  0  0  0
  1  2  1  0  0  0  0
  1  7  1  0  0  0  0
  1  6  1  0  0  0  0
  3 20  1  0  0  0  0
  3  1  1  0  0  0  0
  4  9  2  0  0  0  0
  6 10  1  0  0  0  0
  6 17  1  0  0  0  0
  7 19  1  0  0  0  0
  8  7  1  0  0  0  0
  9  5  2  0  0  0  0
  9 26  1  0  0  0  0
 10 11  1  1  0  0  0
 11 12  1  0  0  0  0
 11 13  2  0  0  0  0
 13 14  1  0  0  0  0
 15 13  1  0  0  0  0
 15 16  1  0  0  0  0
 17 15  2  0  0  0  0
 18 17  1  0  0  0  0
 19 31  1  6  0  0  0
 19 10  1  0  0  0  0
 20  8  2  0  0  0  0
 21 29  1  0  0  0  0
 21 20  1  0  0  0  0
 22 23  1  0  0  0  0
 22 21  2  0  0  0  0
 24 26  2  0  0  0  0
 24 22  1  0  0  0  0
 25 24  1  0  0  0  0
 26 27  1  0  0  0  0
 27 29  2  0  0  0  0
 28 27  1  0  0  0  0
 29 30  1  0  0  0  0
 31 32  1  0  0  0  0
 32 34  2  0  0  0  0
 32 33  1  0  0  0  0
 34 35  1  0  0  0  0
 36 37  1  0  0  0  0
 36 34  1  0  0  0  0
 38 36  2  0  0  0  0
 39 38  1  0  0  0  0
 40 38  1  0  0  0  0
 40 31  2  0  0  0  0
 41 40  1  0  0  0  0
 42 43  1  0  0  0  0
 43  1  1  0  0  0  0
 44 46  1  0  0  0  0
 44 42  1  0  0  0  0
 45 44  1  0  0  0  0
 47 44  1  0  0  0  0
 48 49  1  0  0  0  0
 48 42  1  0  0  0  0
 50 48  1  0  0  0  0
 51 48  1  0  0  0  0
M  END
$$$$
