CSD_code = RUQSOL | q = 1 | S = 0 | Stoichiometry = C12H28ClN4Zn(1+) | MND = 5
 OpenBabel04212202093D

 46 49  0  0  1  0  0  0  0  0999 V2000
    2.3318    1.5919    1.9466 Zn  0  0  0  0  0  0  0  0  0  0  0  0
    2.6428    2.5665    0.0391 Cl  0  0  0  0  0  0  0  0  0  0  0  0
    4.2752    1.3159    2.7518 N   0  0  1  0  0  4  0  0  0  0  0  0
    2.0394    3.2151    3.3541 N   0  0  1  0  0  4  0  0  0  0  0  0
    0.2116    1.4866    2.0134 N   0  0  2  0  0  4  0  0  0  0  0  0
    2.5602   -0.4809    1.3537 N   0  0  1  0  0  4  0  0  0  0  0  0
    3.8663   -0.9186    1.8613 C   0  0  0  0  0  0  0  0  0  0  0  0
    4.8278    0.2669    1.8910 C   0  0  0  0  0  0  0  0  0  0  0  0
    5.0213    2.5794    2.6729 C   0  0  0  0  0  0  0  0  0  0  0  0
    4.4511    3.6343    3.6171 C   0  0  0  0  0  0  0  0  0  0  0  0
    3.1018    4.2315    3.1963 C   0  0  2  0  0  0  0  0  0  0  0  0
    2.8194    5.4895    4.0174 C   0  0  0  0  0  0  0  0  0  0  0  0
    0.6905    3.6729    2.9978 C   0  0  0  0  0  0  0  0  0  0  0  0
   -0.2555    2.4740    2.9889 C   0  0  0  0  0  0  0  0  0  0  0  0
   -0.4411    0.1801    2.1435 C   0  0  0  0  0  0  0  0  0  0  0  0
    0.1260   -0.8361    1.1540 C   0  0  0  0  0  0  0  0  0  0  0  0
    1.4707   -1.4535    1.5609 C   0  0  1  0  0  0  0  0  0  0  0  0
    1.7061   -2.7420    0.7715 C   0  0  0  0  0  0  0  0  0  0  0  0
    4.3325    0.9872    3.7157 H   0  0  0  0  0  0  0  0  0  0  0  0
    2.0200    2.9609    4.3423 H   0  0  0  0  0  0  0  0  0  0  0  0
   -0.0135    1.8459    1.0841 H   0  0  0  0  0  0  0  0  0  0  0  0
    2.6560   -0.3583    0.3433 H   0  0  0  0  0  0  0  0  0  0  0  0
    3.7256   -1.3025    2.8762 H   0  0  0  0  0  0  0  0  0  0  0  0
    4.3031   -1.7120    1.2475 H   0  0  0  0  0  0  0  0  0  0  0  0
    4.9284    0.6784    0.8835 H   0  0  0  0  0  0  0  0  0  0  0  0
    5.8153   -0.0618    2.2345 H   0  0  0  0  0  0  0  0  0  0  0  0
    4.9634    2.9393    1.6436 H   0  0  0  0  0  0  0  0  0  0  0  0
    6.0766    2.4083    2.9204 H   0  0  0  0  0  0  0  0  0  0  0  0
    4.3665    3.2203    4.6263 H   0  0  0  0  0  0  0  0  0  0  0  0
    5.1728    4.4499    3.6622 H   0  0  0  0  0  0  0  0  0  0  0  0
    3.1408    4.4908    2.1338 H   0  0  0  0  0  0  0  0  0  0  0  0
    3.6498    6.1831    3.9278 H   0  0  0  0  0  0  0  0  0  0  0  0
    1.9287    6.0025    3.6674 H   0  0  0  0  0  0  0  0  0  0  0  0
    2.6947    5.2437    5.0707 H   0  0  0  0  0  0  0  0  0  0  0  0
    0.3084    4.4207    3.6990 H   0  0  0  0  0  0  0  0  0  0  0  0
    0.7370    4.1137    1.9989 H   0  0  0  0  0  0  0  0  0  0  0  0
   -1.2760    2.8081    2.7711 H   0  0  0  0  0  0  0  0  0  0  0  0
   -0.2532    2.0037    3.9769 H   0  0  0  0  0  0  0  0  0  0  0  0
   -1.5213    0.2807    1.9783 H   0  0  0  0  0  0  0  0  0  0  0  0
   -0.2896   -0.1773    3.1656 H   0  0  0  0  0  0  0  0  0  0  0  0
   -0.5968   -1.6468    1.0628 H   0  0  0  0  0  0  0  0  0  0  0  0
    0.2236   -0.3727    0.1700 H   0  0  0  0  0  0  0  0  0  0  0  0
    1.4455   -1.6861    2.6319 H   0  0  0  0  0  0  0  0  0  0  0  0
    0.8907   -3.4390    0.9404 H   0  0  0  0  0  0  0  0  0  0  0  0
    1.7584   -2.5310   -0.2944 H   0  0  0  0  0  0  0  0  0  0  0  0
    2.6254   -3.2333    1.0768 H   0  0  0  0  0  0  0  0  0  0  0  0
  1  5  1  0  0  0  0
  1  3  1  0  0  0  0
  1  4  1  0  0  0  0
  2  1  1  0  0  0  0
  3 19  1  1  0  0  0
  4 20  1  1  0  0  0
  5 21  1  6  0  0  0
  5 15  1  0  0  0  0
  5 14  1  0  0  0  0
  6 22  1  6  0  0  0
  6 17  1  0  0  0  0
  6  7  1  0  0  0  0
  6  1  1  0  0  0  0
  7  8  1  0  0  0  0
  7 23  1  0  0  0  0
  8 26  1  0  0  0  0
  8  3  1  0  0  0  0
  9  3  1  0  0  0  0
  9 28  1  0  0  0  0
  9 10  1  0  0  0  0
 10 30  1  0  0  0  0
 10 29  1  0  0  0  0
 11 31  1  6  0  0  0
 11  4  1  0  0  0  0
 11 10  1  0  0  0  0
 11 12  1  0  0  0  0
 12 34  1  0  0  0  0
 13  4  1  0  0  0  0
 13 35  1  0  0  0  0
 14 13  1  0  0  0  0
 14 38  1  0  0  0  0
 15 40  1  0  0  0  0
 16 17  1  0  0  0  0
 16 15  1  0  0  0  0
 17 43  1  1  0  0  0
 18 44  1  0  0  0  0
 18 46  1  0  0  0  0
 18 17  1  0  0  0  0
 24  7  1  0  0  0  0
 25  8  1  0  0  0  0
 27  9  1  0  0  0  0
 32 12  1  0  0  0  0
 33 12  1  0  0  0  0
 36 13  1  0  0  0  0
 37 14  1  0  0  0  0
 39 15  1  0  0  0  0
 41 16  1  0  0  0  0
 42 16  1  0  0  0  0
 45 18  1  0  0  0  0
M  END
$$$$
