CSD_code = RUQVOO | q = 0 | S = 0 | Stoichiometry = C18H21Cl2NPdS | MND = 4
 OpenBabel04212202093D

 44 46  0  0  1  0  0  0  0  0999 V2000
    5.0954    5.1013    0.3583 Pd  0  0  1  0  0  0  0  0  0  0  0  0
    3.6345    5.8387   -1.2144 S   0  0  1  0  0  3  0  0  0  0  0  0
    6.5736    6.8403   -0.0407 Cl  0  0  0  0  0  0  0  0  0  0  0  0
    2.2176    4.6805   -0.9592 C   0  0  2  0  0  0  0  0  0  0  0  0
    2.5669    3.7269    0.1416 C   0  0  2  0  0  3  0  0  0  0  0  0
    3.7339    3.6480    0.7563 C   0  0  0  0  0  0  0  0  0  0  0  0
    6.3979    4.4030    1.6729 N   0  0  0  0  0  0  0  0  0  0  0  0
    6.3030    4.5769    2.9864 C   0  0  0  0  0  3  0  0  0  0  0  0
    7.2555    4.0927    3.8654 C   0  0  0  0  0  0  0  0  0  0  0  0
    8.3453    3.4032    3.3583 C   0  0  0  0  0  0  0  0  0  0  0  0
    7.4499    3.7559    1.1755 C   0  0  0  0  0  0  0  0  0  0  0  0
    8.4450    3.2383    1.9851 C   0  0  0  0  0  0  0  0  0  0  0  0
    4.0473    2.6660    1.7954 C   0  0  0  0  0  0  0  0  0  0  0  0
    3.5224    2.7799    3.0820 C   0  0  0  0  0  0  0  0  0  0  0  0
    3.8986    1.8912    4.0718 C   0  0  0  0  0  0  0  0  0  0  0  0
    4.7991    0.8765    3.7942 C   0  0  0  0  0  0  0  0  0  0  0  0
    5.3182    0.7482    2.5154 C   0  0  0  0  0  0  0  0  0  0  0  0
    4.9494    1.6356    1.5242 C   0  0  0  0  0  0  0  0  0  0  0  0
    3.1357    7.3793   -0.3295 C   0  0  0  0  0  0  0  0  0  0  0  0
    2.9421    7.1341    1.1619 C   0  0  0  0  0  0  0  0  0  0  0  0
    1.9230    8.0095   -0.9933 C   0  0  0  0  0  0  0  0  0  0  0  0
    1.2370    2.6074    0.5104 Cl  0  0  0  0  0  0  0  0  0  0  0  0
    1.9731    3.9679   -2.2851 C   0  0  0  0  0  0  0  0  0  0  0  0
    1.3433    5.2814   -0.6986 H   0  0  0  0  0  0  0  0  0  0  0  0
    5.4316    5.1158    3.3455 H   0  0  0  0  0  0  0  0  0  0  0  0
    7.1416    4.2523    4.9256 H   0  0  0  0  0  0  0  0  0  0  0  0
    9.1026    3.0072    4.0175 H   0  0  0  0  0  0  0  0  0  0  0  0
    7.4914    3.6596    0.0903 H   0  0  0  0  0  0  0  0  0  0  0  0
    9.2813    2.7173    1.5469 H   0  0  0  0  0  0  0  0  0  0  0  0
    2.8193    3.5726    3.2973 H   0  0  0  0  0  0  0  0  0  0  0  0
    3.4852    1.9888    5.0655 H   0  0  0  0  0  0  0  0  0  0  0  0
    5.0928    0.1845    4.5697 H   0  0  0  0  0  0  0  0  0  0  0  0
    6.0147   -0.0478    2.2932 H   0  0  0  0  0  0  0  0  0  0  0  0
    5.3549    1.5435    0.5237 H   0  0  0  0  0  0  0  0  0  0  0  0
    4.0172    8.0117   -0.4855 H   0  0  0  0  0  0  0  0  0  0  0  0
    3.8971    6.8077    1.6173 H   0  0  0  0  0  0  0  0  0  0  0  0
    2.1755    6.3790    1.3427 H   0  0  0  0  0  0  0  0  0  0  0  0
    2.6320    8.0607    1.6441 H   0  0  0  0  0  0  0  0  0  0  0  0
    2.0747    8.0886   -2.0668 H   0  0  0  0  0  0  0  0  0  0  0  0
    1.7652    9.0093   -0.5946 H   0  0  0  0  0  0  0  0  0  0  0  0
    1.0217    7.4284   -0.8092 H   0  0  0  0  0  0  0  0  0  0  0  0
    1.7266    4.6879   -3.0617 H   0  0  0  0  0  0  0  0  0  0  0  0
    1.1532    3.2613   -2.1822 H   0  0  0  0  0  0  0  0  0  0  0  0
    2.8683    3.4237   -2.5810 H   0  0  0  0  0  0  0  0  0  0  0  0
  1  3  1  1  0  0  0
  1  6  2  0  0  0  0
  1  7  1  0  0  0  0
  2  4  1  0  0  0  0
  2 19  1  1  0  0  0
  2  1  1  0  0  0  0
  4 24  1  1  0  0  0
  4  5  1  0  0  0  0
  5 22  1  6  0  0  0
  5  6  1  0  0  0  0
  6 13  1  0  0  0  0
  7  8  1  0  0  0  0
  8 25  1  0  0  0  0
  8  9  1  0  0  0  0
  9 26  1  0  0  0  0
 10  9  2  0  0  0  0
 10 27  1  0  0  0  0
 11  7  1  0  0  0  0
 11 12  2  0  0  0  0
 12 10  1  0  0  0  0
 13 14  1  0  0  0  0
 14 30  1  0  0  0  0
 14 15  2  0  0  0  0
 15 31  1  0  0  0  0
 16 15  1  0  0  0  0
 16 32  1  0  0  0  0
 17 16  2  0  0  0  0
 18 13  2  0  0  0  0
 18 17  1  0  0  0  0
 19 20  1  0  0  0  0
 20 37  1  0  0  0  0
 20 36  1  0  0  0  0
 20 38  1  0  0  0  0
 21 41  1  0  0  0  0
 21 40  1  0  0  0  0
 21 19  1  0  0  0  0
 23 43  1  0  0  0  0
 23  4  1  0  0  0  0
 28 11  1  0  0  0  0
 29 12  1  0  0  0  0
 33 17  1  0  0  0  0
 34 18  1  0  0  0  0
 35 19  1  0  0  0  0
 39 21  1  0  0  0  0
 42 23  1  0  0  0  0
 44 23  1  0  0  0  0
M  END
$$$$
