CSD_code = RUSPOL | q = 0 | S = 0 | Stoichiometry = C30H24Cl3NOPRe | MND = 6
 OpenBabel04212202093D

 61 66  0  0  1  0  0  0  0  0999 V2000
   10.1741    1.0002   11.8819 Re  0  0  0  0  0  0  0  0  0  0  0  0
    9.6427    0.0543    9.8731 Cl  0  0  0  0  0  0  0  0  0  0  0  0
    7.9214    1.4120   12.3061 Cl  0  0  0  0  0  0  0  0  0  0  0  0
   10.0413   -0.9293   13.0746 Cl  0  0  0  0  0  0  0  0  0  0  0  0
   12.4970    0.6015   11.3021 P   0  0  0  0  0  4  0  0  0  0  0  0
   12.9636   -0.8814   10.3632 C   0  0  0  0  0  0  0  0  0  0  0  0
   14.0354   -0.8768    9.4758 C   0  0  0  0  0  0  0  0  0  0  0  0
   14.5847    0.0351    9.2877 H   0  0  0  0  0  0  0  0  0  0  0  0
   14.3876   -2.0419    8.8199 C   0  0  0  0  0  0  0  0  0  0  0  0
   15.2159   -2.0364    8.1264 H   0  0  0  0  0  0  0  0  0  0  0  0
   13.6808   -3.2117    9.0479 C   0  0  0  0  0  0  0  0  0  0  0  0
   13.9584   -4.1173    8.5291 H   0  0  0  0  0  0  0  0  0  0  0  0
   12.6195   -3.2188    9.9380 C   0  0  0  0  0  0  0  0  0  0  0  0
   12.0678   -4.1293   10.1162 H   0  0  0  0  0  0  0  0  0  0  0  0
   12.2602   -2.0581   10.5988 C   0  0  0  0  0  0  0  0  0  0  0  0
   11.4326   -2.0544   11.2949 H   0  0  0  0  0  0  0  0  0  0  0  0
   13.6879    0.5524   12.6771 C   0  0  0  0  0  0  0  0  0  0  0  0
   15.0421    0.7879   12.4538 C   0  0  0  0  0  0  0  0  0  0  0  0
   15.3921    1.0255   11.4590 H   0  0  0  0  0  0  0  0  0  0  0  0
   15.9347    0.7255   13.5070 C   0  0  0  0  0  0  0  0  0  0  0  0
   16.9840    0.9144   13.3332 H   0  0  0  0  0  0  0  0  0  0  0  0
   15.4865    0.4200   14.7831 C   0  0  0  0  0  0  0  0  0  0  0  0
   16.1879    0.3747   15.6031 H   0  0  0  0  0  0  0  0  0  0  0  0
   14.1430    0.1678   15.0042 C   0  0  0  0  0  0  0  0  0  0  0  0
   13.7931   -0.0779   15.9958 H   0  0  0  0  0  0  0  0  0  0  0  0
   13.2421    0.2309   13.9543 C   0  0  0  0  0  0  0  0  0  0  0  0
   12.1924    0.0290   14.1194 H   0  0  0  0  0  0  0  0  0  0  0  0
   13.0293    1.9986   10.2748 C   0  0  0  0  0  0  0  0  0  0  0  0
   13.5583    3.1511   10.8494 C   0  0  0  0  0  0  0  0  0  0  0  0
   13.7796    3.1727   11.9085 H   0  0  0  0  0  0  0  0  0  0  0  0
   13.7989    4.2662   10.0672 C   0  0  0  0  0  0  0  0  0  0  0  0
   14.2132    5.1566   10.5169 H   0  0  0  0  0  0  0  0  0  0  0  0
   13.5038    4.2440    8.7139 C   0  0  0  0  0  0  0  0  0  0  0  0
   13.6945    5.1162    8.1067 H   0  0  0  0  0  0  0  0  0  0  0  0
   12.9539    3.1072    8.1424 C   0  0  0  0  0  0  0  0  0  0  0  0
   12.7105    3.0944    7.0906 H   0  0  0  0  0  0  0  0  0  0  0  0
   12.7049    1.9915    8.9193 C   0  0  0  0  0  0  0  0  0  0  0  0
   12.2492    1.1096    8.4904 H   0  0  0  0  0  0  0  0  0  0  0  0
   10.7496    2.1101   13.4216 O   0  0  0  0  0  0  0  0  0  0  0  0
   10.2455    2.9562   11.1291 N   0  0  0  0  0  0  0  0  0  0  0  0
    9.9479    3.3228    9.8836 C   0  0  0  0  0  3  0  0  0  0  0  0
    9.6510    2.5243    9.2170 H   0  0  0  0  0  0  0  0  0  0  0  0
   10.0148    4.6296    9.4534 C   0  0  0  0  0  0  0  0  0  0  0  0
    9.7560    4.8720    8.4362 H   0  0  0  0  0  0  0  0  0  0  0  0
   10.4357    5.6174   10.3444 C   0  0  0  0  0  0  0  0  0  0  0  0
   10.5277    6.6433   10.0230 H   0  0  0  0  0  0  0  0  0  0  0  0
   10.7290    5.2597   11.6391 C   0  0  0  0  0  0  0  0  0  0  0  0
   11.0727    5.9844   12.3585 H   0  0  0  0  0  0  0  0  0  0  0  0
   10.5916    3.9206   12.0261 C   0  0  0  0  0  0  0  0  0  0  0  0
   10.8554    3.3681   13.3312 C   0  0  2  0  0  3  0  0  0  0  0  0
   11.2970    4.1455   14.4948 C   0  0  0  0  0  0  0  0  0  0  0  0
   12.3045    3.6190   15.3048 C   0  0  0  0  0  0  0  0  0  0  0  0
   12.7477    2.6696   15.0415 H   0  0  0  0  0  0  0  0  0  0  0  0
   12.7333    4.3100   16.4210 C   0  0  0  0  0  0  0  0  0  0  0  0
   13.5187    3.8979   17.0368 H   0  0  0  0  0  0  0  0  0  0  0  0
   12.1547    5.5249   16.7521 C   0  0  0  0  0  0  0  0  0  0  0  0
   12.4881    6.0634   17.6264 H   0  0  0  0  0  0  0  0  0  0  0  0
   11.1345    6.0396   15.9681 C   0  0  0  0  0  0  0  0  0  0  0  0
   10.6647    6.9734   16.2391 H   0  0  0  0  0  0  0  0  0  0  0  0
   10.7033    5.3577   14.8455 C   0  0  0  0  0  0  0  0  0  0  0  0
    9.8761    5.7391   14.2664 H   0  0  0  0  0  0  0  0  0  0  0  0
  1  3  1  0  0  0  0
  1  4  1  0  0  0  0
  1 39  1  0  0  0  0
  2  1  1  0  0  0  0
  5  1  1  0  0  0  0
  5 17  1  0  0  0  0
  6 15  1  0  0  0  0
  6  5  1  0  0  0  0
  7  6  2  0  0  0  0
  8  7  1  0  0  0  0
  9 11  2  0  0  0  0
  9  7  1  0  0  0  0
 10  9  1  0  0  0  0
 11 13  1  0  0  0  0
 12 11  1  0  0  0  0
 13 14  1  0  0  0  0
 13 15  2  0  0  0  0
 15 16  1  0  0  0  0
 17 26  1  0  0  0  0
 18 17  2  0  0  0  0
 18 20  1  0  0  0  0
 19 18  1  0  0  0  0
 20 22  2  0  0  0  0
 21 20  1  0  0  0  0
 22 24  1  0  0  0  0
 22 23  1  0  0  0  0
 24 25  1  0  0  0  0
 26 27  1  0  0  0  0
 26 24  2  0  0  0  0
 28 29  1  0  0  0  0
 28  5  1  0  0  0  0
 29 30  1  0  0  0  0
 31 32  1  0  0  0  0
 31 29  2  0  0  0  0
 33 31  1  0  0  0  0
 34 33  1  0  0  0  0
 35 33  2  0  0  0  0
 35 37  1  0  0  0  0
 36 35  1  0  0  0  0
 37 28  2  0  0  0  0
 38 37  1  0  0  0  0
 40  1  1  0  0  0  0
 40 49  1  0  0  0  0
 41 40  1  0  0  0  0
 42 41  1  0  0  0  0
 43 41  1  0  0  0  0
 43 45  2  0  0  0  0
 44 43  1  0  0  0  0
 45 47  1  0  0  0  0
 46 45  1  0  0  0  0
 47 49  2  0  0  0  0
 47 48  1  0  0  0  0
 49 50  1  0  0  0  0
 50 39  1  0  0  0  0
 50 51  1  6  0  0  0
 51 60  2  0  0  0  0
 51 52  1  0  0  0  0
 52 54  2  0  0  0  0
 53 52  1  0  0  0  0
 54 56  1  0  0  0  0
 54 55  1  0  0  0  0
 56 57  1  0  0  0  0
 58 59  1  0  0  0  0
 58 56  2  0  0  0  0
 60 58  1  0  0  0  0
 61 60  1  0  0  0  0
M  END
$$$$
