CSD_code = RUSRUT | q = 0 | S = 0 | Stoichiometry = C13H12Cl2N4O2RuS | MND = 6
 OpenBabel04212202093D

 35 37  0  0  1  0  0  0  0  0999 V2000
    2.0779    6.6359    4.0716 C   0  0  0  0  0  2  0  0  0  0  0  0
   -0.0052    7.7035    2.8384 C   0  0  0  0  0  2  0  0  0  0  0  0
   -0.7999    3.7675    2.2323 C   0  0  2  0  0  3  0  0  0  0  0  0
   -2.6488    4.1061    1.1422 C   0  0  0  0  0  0  0  0  0  0  0  0
   -3.5713    3.8792    0.6488 H   0  0  0  0  0  0  0  0  0  0  0  0
   -2.0208    5.3077    1.3558 C   0  0  0  0  0  0  0  0  0  0  0  0
   -2.3269    6.2928    1.0623 H   0  0  0  0  0  0  0  0  0  0  0  0
   -2.1231    1.7262    1.7422 C   0  0  0  0  0  0  0  0  0  0  0  0
   -1.3134    1.2524    2.2935 H   0  0  0  0  0  0  0  0  0  0  0  0
   -2.1689    1.3200    0.7304 H   0  0  0  0  0  0  0  0  0  0  0  0
   -3.0699    1.5312    2.2476 H   0  0  0  0  0  0  0  0  0  0  0  0
    2.1229    3.4875    4.0025 C   0  0  0  0  0  0  0  0  0  0  0  0
    3.4139    4.0310    3.9904 C   0  0  0  0  0  0  0  0  0  0  0  0
    3.6404    4.7980    3.2618 H   0  0  0  0  0  0  0  0  0  0  0  0
    4.3737    3.5532    4.8494 C   0  0  0  0  0  0  0  0  0  0  0  0
    5.3709    3.9632    4.8289 H   0  0  0  0  0  0  0  0  0  0  0  0
    4.0548    2.5356    5.7460 C   0  0  0  0  0  0  0  0  0  0  0  0
    4.8037    2.1680    6.4309 H   0  0  0  0  0  0  0  0  0  0  0  0
    2.7955    1.9751    5.7560 C   0  0  0  0  0  0  0  0  0  0  0  0
    2.5783    1.1697    6.4392 H   0  0  0  0  0  0  0  0  0  0  0  0
    1.8141    2.4184    4.8730 C   0  0  0  0  0  0  0  0  0  0  0  0
   -0.0279    1.2475    6.5778 C   0  0  0  0  0  0  0  0  0  0  0  0
    0.4892    0.3172    6.7911 H   0  0  0  0  0  0  0  0  0  0  0  0
   -1.0969    1.1061    6.6996 H   0  0  0  0  0  0  0  0  0  0  0  0
    0.3138    2.0500    7.2223 H   0  0  0  0  0  0  0  0  0  0  0  0
   -0.6320    5.5616    5.0198 Cl  0  0  0  0  0  0  0  0  0  0  0  0
    1.8794    6.0822    0.9824 Cl  0  0  0  0  0  0  0  0  0  0  0  0
   -0.8744    5.0866    2.0325 N   0  0  0  0  0  0  0  0  0  0  0  0
    1.1414    4.0291    3.2137 N   0  0  0  0  0  0  0  0  0  0  0  0
    0.2376    3.1850    2.8626 N   0  0  0  0  0  2  0  0  0  0  0  0
   -1.8698    3.1385    1.6985 N   0  0  0  0  0  0  0  0  0  0  0  0
    2.8732    7.0831    4.7547 O   0  0  0  0  0  1  0  0  0  0  0  0
   -0.4872    8.7227    2.6926 O   0  0  0  0  0  1  0  0  0  0  0  0
    0.6810    5.9779    3.0423 Ru  0  0  0  0  0  0  0  0  0  0  0  0
    0.2079    1.7301    4.8328 S   0  0  0  0  0  0  0  0  0  0  0  0
  1 32  1  0  0  0  0
  2 34  1  0  0  0  0
  3 30  1  6  0  0  0
  4  6  2  0  0  0  0
  4 31  1  0  0  0  0
  5  4  1  0  0  0  0
  6 28  1  0  0  0  0
  7  6  1  0  0  0  0
  8 11  1  0  0  0  0
  8  9  1  0  0  0  0
 10  8  1  0  0  0  0
 12 21  1  0  0  0  0
 13 12  2  0  0  0  0
 13 15  1  0  0  0  0
 14 13  1  0  0  0  0
 15 17  2  0  0  0  0
 16 15  1  0  0  0  0
 17 19  1  0  0  0  0
 17 18  1  0  0  0  0
 19 20  1  0  0  0  0
 21 19  2  0  0  0  0
 22 24  1  0  0  0  0
 22 23  1  0  0  0  0
 22 25  1  0  0  0  0
 27 34  1  0  0  0  0
 28  3  1  0  0  0  0
 28 34  1  0  0  0  0
 29 12  1  0  0  0  0
 30 29  1  0  0  0  0
 31  8  1  0  0  0  0
 31  3  1  0  0  0  0
 33  2  1  0  0  0  0
 34 29  1  0  0  0  0
 34  1  1  0  0  0  0
 34 26  1  0  0  0  0
 35 21  1  0  0  0  0
 35 22  1  0  0  0  0
M  END
$$$$
