CSD_code = RUTHOD | q = -1 | S = 0 | Stoichiometry = C18H15I3PPt(1-) | MND = 4
 OpenBabel04212202093D

 38 40  0  0  0  0  0  0  0  0999 V2000
    1.0709    3.9438   -2.4969 Pt  0  0  0  0  0  0  0  0  0  0  0  0
   -0.7684    4.9091   -4.1699 I   0  0  0  0  0  0  0  0  0  0  0  0
    1.0145    1.5155   -3.4398 I   0  0  0  0  0  0  0  0  0  0  0  0
    3.4726    3.7231   -1.4010 I   0  0  0  0  0  0  0  0  0  0  0  0
    0.7394    5.8623   -1.3666 P   0  0  0  0  0  4  0  0  0  0  0  0
    1.4636    6.1012    0.2971 C   0  0  0  0  0  0  0  0  0  0  0  0
    1.3332    5.0209    1.1647 C   0  0  0  0  0  0  0  0  0  0  0  0
    1.7817    5.1085    2.4666 C   0  0  0  0  0  0  0  0  0  0  0  0
    2.3614    6.2846    2.9156 C   0  0  0  0  0  0  0  0  0  0  0  0
    2.4819    7.3665    2.0612 C   0  0  0  0  0  0  0  0  0  0  0  0
    2.0305    7.2817    0.7552 C   0  0  0  0  0  0  0  0  0  0  0  0
    1.2356    7.3583   -2.2587 C   0  0  0  0  0  0  0  0  0  0  0  0
    2.6044    7.5930   -2.3865 C   0  0  0  0  0  0  0  0  0  0  0  0
    3.0594    8.6483   -3.1529 C   0  0  0  0  0  0  0  0  0  0  0  0
    2.1545    9.4675   -3.8099 C   0  0  0  0  0  0  0  0  0  0  0  0
    0.7954    9.2208   -3.7075 C   0  0  0  0  0  0  0  0  0  0  0  0
    0.3324    8.1668   -2.9409 C   0  0  0  0  0  0  0  0  0  0  0  0
   -0.9720    6.1534   -0.8049 C   0  0  0  0  0  0  0  0  0  0  0  0
   -1.3868    7.3912   -0.3273 C   0  0  0  0  0  0  0  0  0  0  0  0
   -2.6664    7.5412    0.1732 C   0  0  0  0  0  0  0  0  0  0  0  0
   -3.5286    6.4571    0.2209 C   0  0  0  0  0  0  0  0  0  0  0  0
   -3.1078    5.2149   -0.2231 C   0  0  0  0  0  0  0  0  0  0  0  0
   -1.8309    5.0643   -0.7300 C   0  0  0  0  0  0  0  0  0  0  0  0
    0.8910    4.1001    0.7984 H   0  0  0  0  0  0  0  0  0  0  0  0
    1.6875    4.2607    3.1299 H   0  0  0  0  0  0  0  0  0  0  0  0
    2.7220    6.3562    3.9321 H   0  0  0  0  0  0  0  0  0  0  0  0
    2.9329    8.2851    2.4111 H   0  0  0  0  0  0  0  0  0  0  0  0
    2.1312    8.1324    0.0949 H   0  0  0  0  0  0  0  0  0  0  0  0
    3.3076    6.9366   -1.8890 H   0  0  0  0  0  0  0  0  0  0  0  0
    4.1216    8.8254   -3.2471 H   0  0  0  0  0  0  0  0  0  0  0  0
    2.5105   10.2902   -4.4143 H   0  0  0  0  0  0  0  0  0  0  0  0
    0.0898    9.8454   -4.2369 H   0  0  0  0  0  0  0  0  0  0  0  0
   -0.7277    7.9619   -2.8858 H   0  0  0  0  0  0  0  0  0  0  0  0
   -0.7073    8.2332   -0.3510 H   0  0  0  0  0  0  0  0  0  0  0  0
   -2.9930    8.5082    0.5311 H   0  0  0  0  0  0  0  0  0  0  0  0
   -4.5294    6.5816    0.6102 H   0  0  0  0  0  0  0  0  0  0  0  0
   -3.7746    4.3660   -0.1782 H   0  0  0  0  0  0  0  0  0  0  0  0
   -1.4947    4.0942   -1.0872 H   0  0  0  0  0  0  0  0  0  0  0  0
  1  4  1  0  0  0  0
  1  5  1  0  0  0  0
  2  1  1  0  0  0  0
  3  1  1  0  0  0  0
  5 18  1  0  0  0  0
  5  6  1  0  0  0  0
  6 11  2  0  0  0  0
  6  7  1  0  0  0  0
  7  8  2  0  0  0  0
  8  9  1  0  0  0  0
  8 25  1  0  0  0  0
  9 26  1  0  0  0  0
 10 27  1  0  0  0  0
 10  9  2  0  0  0  0
 11 10  1  0  0  0  0
 12  5  1  0  0  0  0
 13 12  1  0  0  0  0
 13 29  1  0  0  0  0
 14 13  2  0  0  0  0
 15 16  2  0  0  0  0
 15 14  1  0  0  0  0
 16 17  1  0  0  0  0
 17 33  1  0  0  0  0
 17 12  2  0  0  0  0
 18 23  2  0  0  0  0
 18 19  1  0  0  0  0
 19 20  2  0  0  0  0
 20 21  1  0  0  0  0
 20 35  1  0  0  0  0
 21 36  1  0  0  0  0
 22 37  1  0  0  0  0
 22 21  2  0  0  0  0
 23 22  1  0  0  0  0
 24  7  1  0  0  0  0
 28 11  1  0  0  0  0
 30 14  1  0  0  0  0
 31 15  1  0  0  0  0
 32 16  1  0  0  0  0
 34 19  1  0  0  0  0
 38 23  1  0  0  0  0
M  END
$$$$
