CSD_code = RUTMEY | q = 0 | S = 0 | Stoichiometry = C7H18Cl2N2Pt | MND = 4
 OpenBabel04212202093D

 30 30  0  0  1  0  0  0  0  0999 V2000
    0.2442    3.2918   -0.0510 Pt  0  0  0  0  0  0  0  0  0  0  0  0
   -1.1209    4.9731   -0.7179 Cl  0  0  0  0  0  0  0  0  0  0  0  0
    1.5135    4.8170    0.6264 N   0  0  0  0  0  4  0  0  0  0  0  0
    0.8256    5.5781    0.5738 H   0  0  0  0  0  0  0  0  0  0  0  0
    2.6131    5.1812   -0.2628 C   0  0  0  0  0  0  0  0  0  0  0  0
    3.1058    6.1011    0.0718 H   0  0  0  0  0  0  0  0  0  0  0  0
    3.3597    4.3900   -0.3075 H   0  0  0  0  0  0  0  0  0  0  0  0
    2.2150    5.3393   -1.2644 H   0  0  0  0  0  0  0  0  0  0  0  0
    1.8924    4.6376    2.0334 C   0  0  1  0  0  0  0  0  0  0  0  0
    2.6412    5.4056    2.2955 H   0  0  0  0  0  0  0  0  0  0  0  0
    0.6513    4.8823    2.8894 C   0  0  0  0  0  0  0  0  0  0  0  0
   -0.2125    4.3780    2.4569 H   0  0  0  0  0  0  0  0  0  0  0  0
    0.7977    4.5335    3.9067 H   0  0  0  0  0  0  0  0  0  0  0  0
    0.4307    5.9472    2.9220 H   0  0  0  0  0  0  0  0  0  0  0  0
    2.6016    3.2917    2.2972 C   0  0  0  0  0  0  0  0  0  0  0  0
    2.8959    3.2917    3.3490 H   0  0  0  0  0  0  0  0  0  0  0  0
    3.5278    3.2917    1.7179 H   0  0  0  0  0  0  0  0  0  0  0  0
   -1.1209    1.6102   -0.7179 Cl  0  0  0  0  0  0  0  0  0  0  0  0
    1.8924    1.9458    2.0333 C   0  0  2  0  0  0  0  0  0  0  0  0
    1.5135    1.7665    0.6263 N   0  0  0  0  0  4  0  0  0  0  0  0
    0.8256    1.0054    0.5737 H   0  0  0  0  0  0  0  0  0  0  0  0
    2.6132    1.4023   -0.2627 C   0  0  0  0  0  0  0  0  0  0  0  0
    3.1059    0.4823    0.0719 H   0  0  0  0  0  0  0  0  0  0  0  0
    3.3597    2.1935   -0.3074 H   0  0  0  0  0  0  0  0  0  0  0  0
    2.2151    1.2442   -1.2644 H   0  0  0  0  0  0  0  0  0  0  0  0
    2.6412    1.1778    2.2954 H   0  0  0  0  0  0  0  0  0  0  0  0
    0.6512    1.7012    2.8894 C   0  0  0  0  0  0  0  0  0  0  0  0
   -0.2125    2.2055    2.4569 H   0  0  0  0  0  0  0  0  0  0  0  0
    0.7977    2.0500    3.9066 H   0  0  0  0  0  0  0  0  0  0  0  0
    0.4306    0.6363    2.9219 H   0  0  0  0  0  0  0  0  0  0  0  0
  1 20  1  0  0  0  0
  1  3  1  0  0  0  0
  2  1  1  0  0  0  0
  3  9  1  0  0  0  0
  4  3  1  0  0  0  0
  5  6  1  0  0  0  0
  5  3  1  0  0  0  0
  7  5  1  0  0  0  0
  8  5  1  0  0  0  0
  9 10  1  1  0  0  0
  9 15  1  0  0  0  0
  9 11  1  0  0  0  0
 11 14  1  0  0  0  0
 11 13  1  0  0  0  0
 12 11  1  0  0  0  0
 15 16  1  0  0  0  0
 17 15  1  0  0  0  0
 18  1  1  0  0  0  0
 19 26  1  1  0  0  0
 19 15  1  0  0  0  0
 19 27  1  0  0  0  0
 20 19  1  0  0  0  0
 21 20  1  0  0  0  0
 22 23  1  0  0  0  0
 22 20  1  0  0  0  0
 24 22  1  0  0  0  0
 25 22  1  0  0  0  0
 27 30  1  0  0  0  0
 27 29  1  0  0  0  0
 28 27  1  0  0  0  0
M  END
$$$$
