CSD_code = RUTXIN | q = 0 | S = 0 | Stoichiometry = C8H18Br2CdN4O2 | MND = 6
 OpenBabel04212202093D

 35 36  0  0  1  0  0  0  0  0999 V2000
   -0.5119    2.8577    2.4919 Cd  0  0  0  0  0  0  0  0  0  0  0  0
   -0.5907    2.4484    4.9826 Br  0  0  0  0  0  0  0  0  0  0  0  0
   -1.5270    1.5391    0.6215 Br  0  0  0  0  0  0  0  0  0  0  0  0
   -0.5932    5.1810    1.1809 N   0  0  0  0  0  0  0  0  0  0  0  0
   -1.2881    5.3031    0.4478 H   0  0  0  0  0  0  0  0  0  0  0  0
   -0.9498    5.9337    2.3732 C   0  0  2  0  0  0  0  0  0  0  0  0
   -0.8405    7.0334    2.2002 H   0  0  0  0  0  0  0  0  0  0  0  0
   -0.0533    5.4554    3.4060 N   0  0  0  0  0  0  0  0  0  0  0  0
   -0.3214    5.7960    4.3248 H   0  0  0  0  0  0  0  0  0  0  0  0
    1.3318    5.7882    3.1280 C   0  0  0  0  0  0  0  0  0  0  0  0
    1.9502    5.3921    3.9369 H   0  0  0  0  0  0  0  0  0  0  0  0
    1.4880    6.8794    3.0670 H   0  0  0  0  0  0  0  0  0  0  0  0
    1.7859    3.7110    1.8665 N   0  0  0  0  0  4  0  0  0  0  0  0
    2.4231    3.4093    2.6060 H   0  0  0  0  0  0  0  0  0  0  0  0
    2.2576    3.1471    0.5854 C   0  0  2  0  0  0  0  0  0  0  0  0
    3.2316    3.6109    0.3198 H   0  0  0  0  0  0  0  0  0  0  0  0
    1.3439    3.4341   -0.4792 N   0  0  0  0  0  0  0  0  0  0  0  0
    0.4764    2.9162   -0.3624 H   0  0  0  0  0  0  0  0  0  0  0  0
    1.0917    4.8510   -0.6169 C   0  0  0  0  0  0  0  0  0  0  0  0
    0.2948    4.9890   -1.3491 H   0  0  0  0  0  0  0  0  0  0  0  0
    2.0034    5.3176   -1.0089 H   0  0  0  0  0  0  0  0  0  0  0  0
    0.7308    5.5587    0.7036 C   0  0  2  0  0  0  0  0  0  0  0  0
    0.7902    6.6525    0.5450 H   0  0  0  0  0  0  0  0  0  0  0  0
    1.7486    5.1673    1.7918 C   0  0  1  0  0  0  0  0  0  0  0  0
    2.7386    5.5701    1.5088 H   0  0  0  0  0  0  0  0  0  0  0  0
   -2.4074    5.6463    2.7752 C   0  0  0  0  0  0  0  0  0  0  0  0
   -2.6819    6.2880    3.6214 H   0  0  0  0  0  0  0  0  0  0  0  0
   -3.0623    5.8847    1.9305 H   0  0  0  0  0  0  0  0  0  0  0  0
    2.4617    1.6362    0.7573 C   0  0  0  0  0  0  0  0  0  0  0  0
    1.5421    1.1758    1.1377 H   0  0  0  0  0  0  0  0  0  0  0  0
    2.6951    1.1942   -0.2166 H   0  0  0  0  0  0  0  0  0  0  0  0
   -2.6201    4.2930    3.0777 O   0  0  0  0  0  0  0  0  0  0  0  0
   -2.3789    4.1221    4.0047 H   0  0  0  0  0  0  0  0  0  0  0  0
    3.4524    1.3648    1.7182 O   0  0  0  0  0  0  0  0  0  0  0  0
    4.3232    1.5241    1.3376 H   0  0  0  0  0  0  0  0  0  0  0  0
  1  2  1  0  0  0  0
  3  1  1  0  0  0  0
  4  6  1  0  0  0  0
  5  4  1  0  0  0  0
  6  7  1  6  0  0  0
  6 26  1  0  0  0  0
  6  8  1  0  0  0  0
  8  9  1  0  0  0  0
 10  8  1  0  0  0  0
 10 11  1  0  0  0  0
 12 10  1  0  0  0  0
 13  1  1  0  0  0  0
 13 14  1  0  0  0  0
 15 16  1  6  0  0  0
 15 29  1  0  0  0  0
 15 13  1  0  0  0  0
 17 18  1  0  0  0  0
 17 15  1  0  0  0  0
 19 17  1  0  0  0  0
 19 22  1  0  0  0  0
 20 19  1  0  0  0  0
 21 19  1  0  0  0  0
 22 23  1  6  0  0  0
 22  4  1  0  0  0  0
 22 24  1  0  0  0  0
 24 25  1  6  0  0  0
 24 13  1  0  0  0  0
 24 10  1  0  0  0  0
 26 32  1  0  0  0  0
 26 27  1  0  0  0  0
 28 26  1  0  0  0  0
 29 30  1  0  0  0  0
 29 34  1  0  0  0  0
 31 29  1  0  0  0  0
 32 33  1  0  0  0  0
 35 34  1  0  0  0  0
M  END
$$$$
