CSD_code = RUVZAK | q = 0 | S = 0 | Stoichiometry = C5H7I3N2Zn | MND = 4
 OpenBabel04212202093D

 18 17  0  0  0  0  0  0  0  0999 V2000
    7.6838    2.0031    3.3425 Zn  0  0  0  0  0  0  0  0  0  0  0  0
    9.5746    2.4290    1.6599 I   0  0  0  0  0  0  0  0  0  0  0  0
    7.7858    2.3166    5.8870 I   0  0  0  0  0  0  0  0  0  0  0  0
    5.3586    1.1124    2.3401 I   0  0  0  0  0  0  0  0  0  0  0  0
    4.4974    5.8227    2.0925 N   0  0  0  0  0  0  0  0  0  0  0  0
    6.4528    4.0207    2.8734 N   0  0  0  0  0  0  0  0  0  0  0  0
    6.4171    4.5298    1.6365 C   0  0  0  0  0  0  0  0  0  0  0  0
    7.1807    4.1943    0.9489 H   0  0  0  0  0  0  0  0  0  0  0  0
    5.4497    5.4109    1.2257 C   0  0  0  0  0  3  0  0  0  0  0  0
    5.4228    5.7992    0.2207 H   0  0  0  0  0  0  0  0  0  0  0  0
    4.5472    5.3536    3.3630 C   0  0  0  0  0  0  0  0  0  0  0  0
    3.7982    5.7010    4.0556 H   0  0  0  0  0  0  0  0  0  0  0  0
    5.5299    4.4733    3.7316 C   0  0  0  0  0  0  0  0  0  0  0  0
    5.5750    4.0917    4.7420 H   0  0  0  0  0  0  0  0  0  0  0  0
    3.4463    6.7219    1.6953 C   0  0  0  0  0  0  0  0  0  0  0  0
    3.6442    7.1134    0.7002 H   0  0  0  0  0  0  0  0  0  0  0  0
    3.3749    7.5515    2.3995 H   0  0  0  0  0  0  0  0  0  0  0  0
    2.4896    6.1954    1.6834 H   0  0  0  0  0  0  0  0  0  0  0  0
  1  3  1  0  0  0  0
  2  1  1  0  0  0  0
  4  1  1  0  0  0  0
  5 11  1  0  0  0  0
  6 13  1  0  0  0  0
  7  6  2  0  0  0  0
  8  7  1  0  0  0  0
  9  7  1  0  0  0  0
  9  5  1  0  0  0  0
 10  9  1  0  0  0  0
 11 13  2  0  0  0  0
 11 12  1  0  0  0  0
 13 14  1  0  0  0  0
 15  5  1  0  0  0  0
 15 17  1  0  0  0  0
 16 15  1  0  0  0  0
 18 15  1  0  0  0  0
M  END
$$$$
