CSD_code = RUWCUJ | q = 0 | S = 0 | Stoichiometry = C32H28AgClNPS | MND = 2
 OpenBabel04212202093D

 65 69  0  0  1  0  0  0  0  0999 V2000
    3.7329    2.9598    3.0081 S   0  0  0  0  0  0  0  0  0  0  0  0
    2.6412    2.7353    1.6920 C   0  0  1  0  0  3  0  0  0  0  0  0
    3.2495    3.6060    0.3414 P   0  0  0  0  0  4  0  0  0  0  0  0
    5.2683    3.0498    2.9705 N   0  0  0  0  0  2  0  0  0  0  0  0
    3.3536    4.5075    3.8641 C   0  0  0  0  0  0  0  0  0  0  0  0
    4.3087    5.1290    4.6453 C   0  0  0  0  0  0  0  0  0  0  0  0
    5.2930    4.6949    4.7088 H   0  0  0  0  0  0  0  0  0  0  0  0
    3.9845    6.3054    5.2978 C   0  0  0  0  0  0  0  0  0  0  0  0
    4.7246    6.8034    5.9063 H   0  0  0  0  0  0  0  0  0  0  0  0
    2.7147    6.8445    5.1677 C   0  0  0  0  0  0  0  0  0  0  0  0
    2.4664    7.7650    5.6747 H   0  0  0  0  0  0  0  0  0  0  0  0
    1.7619    6.2077    4.3892 C   0  0  0  0  0  0  0  0  0  0  0  0
    0.7732    6.6287    4.2872 H   0  0  0  0  0  0  0  0  0  0  0  0
    2.0800    5.0300    3.7373 C   0  0  0  0  0  0  0  0  0  0  0  0
    1.3588    4.5232    3.1122 H   0  0  0  0  0  0  0  0  0  0  0  0
    3.1179    1.8312    4.2985 C   0  0  0  0  0  0  0  0  0  0  0  0
    4.0162    1.4375    5.2747 C   0  0  0  0  0  0  0  0  0  0  0  0
    5.0251    1.8212    5.2439 H   0  0  0  0  0  0  0  0  0  0  0  0
    3.6097    0.5548    6.2605 C   0  0  0  0  0  0  0  0  0  0  0  0
    4.3104    0.2336    7.0165 H   0  0  0  0  0  0  0  0  0  0  0  0
    2.3083    0.0815    6.2672 C   0  0  0  0  0  0  0  0  0  0  0  0
    1.9934   -0.6144    7.0301 H   0  0  0  0  0  0  0  0  0  0  0  0
    1.4079    0.4962    5.2976 C   0  0  0  0  0  0  0  0  0  0  0  0
    0.3919    0.1317    5.3102 H   0  0  0  0  0  0  0  0  0  0  0  0
    1.8083    1.3752    4.3052 C   0  0  0  0  0  0  0  0  0  0  0  0
    1.1055    1.7183    3.5573 H   0  0  0  0  0  0  0  0  0  0  0  0
    3.2166    0.7188    1.5504 Ag  0  0  0  0  0  0  0  0  0  0  0  0
    3.5394   -1.5244    1.4128 Cl  0  0  0  0  0  0  0  0  0  0  0  0
    6.1221    2.0538    2.4009 C   0  0  0  0  0  0  0  0  0  0  0  0
    6.7688    1.6356    3.1776 H   0  0  0  0  0  0  0  0  0  0  0  0
    6.7557    2.5071    1.6320 H   0  0  0  0  0  0  0  0  0  0  0  0
    5.5716    1.2100    1.9349 H   0  0  0  0  0  0  0  0  0  0  0  0
    2.0560    3.4124   -0.9990 C   0  0  0  0  0  0  0  0  0  0  0  0
    0.9928    2.5267   -0.8967 C   0  0  0  0  0  0  0  0  0  0  0  0
    0.8671    1.9493    0.0134 H   0  0  0  0  0  0  0  0  0  0  0  0
    0.1165    2.3826   -1.9580 C   0  0  0  0  0  0  0  0  0  0  0  0
   -0.7089    1.6908   -1.8827 H   0  0  0  0  0  0  0  0  0  0  0  0
    0.3014    3.1194   -3.1169 C   0  0  0  0  0  0  0  0  0  0  0  0
   -0.3820    3.0021   -3.9449 H   0  0  0  0  0  0  0  0  0  0  0  0
    1.3653    4.0028   -3.2205 C   0  0  0  0  0  0  0  0  0  0  0  0
    1.5096    4.5729   -4.1266 H   0  0  0  0  0  0  0  0  0  0  0  0
    2.2453    4.1487   -2.1652 C   0  0  0  0  0  0  0  0  0  0  0  0
    3.0832    4.8312   -2.2338 H   0  0  0  0  0  0  0  0  0  0  0  0
    3.3224    5.3860    0.7114 C   0  0  0  0  0  0  0  0  0  0  0  0
    4.3940    5.8840    1.4507 C   0  0  0  0  0  0  0  0  0  0  0  0
    5.2276    5.2360    1.6876 H   0  0  0  0  0  0  0  0  0  0  0  0
    4.3779    7.1920    1.8964 C   0  0  0  0  0  0  0  0  0  0  0  0
    5.2148    7.5769    2.4602 H   0  0  0  0  0  0  0  0  0  0  0  0
    3.2852    8.0024    1.6337 C   0  0  0  0  0  0  0  0  0  0  0  0
    3.2737    9.0228    1.9867 H   0  0  0  0  0  0  0  0  0  0  0  0
    2.2029    7.5003    0.9298 C   0  0  0  0  0  0  0  0  0  0  0  0
    1.3448    8.1277    0.7375 H   0  0  0  0  0  0  0  0  0  0  0  0
    2.2154    6.1945    0.4752 C   0  0  0  0  0  0  0  0  0  0  0  0
    1.3700    5.7945   -0.0686 H   0  0  0  0  0  0  0  0  0  0  0  0
    4.8184    3.2356   -0.5450 C   0  0  0  0  0  0  0  0  0  0  0  0
    4.9859    1.9109   -0.9410 C   0  0  0  0  0  0  0  0  0  0  0  0
    4.2004    1.1780   -0.7191 H   0  0  0  0  0  0  0  0  0  0  0  0
    6.1291    1.5172   -1.6089 C   0  0  0  0  0  0  0  0  0  0  0  0
    6.2492    0.4858   -1.9036 H   0  0  0  0  0  0  0  0  0  0  0  0
    7.1143    2.4502   -1.8948 C   0  0  0  0  0  0  0  0  0  0  0  0
    8.0146    2.1458   -2.4075 H   0  0  0  0  0  0  0  0  0  0  0  0
    6.9382    3.7748   -1.5322 C   0  0  0  0  0  0  0  0  0  0  0  0
    7.6977    4.5062   -1.7686 H   0  0  0  0  0  0  0  0  0  0  0  0
    5.7920    4.1740   -0.8654 C   0  0  0  0  0  0  0  0  0  0  0  0
    5.6577    5.2138   -0.6054 H   0  0  0  0  0  0  0  0  0  0  0  0
  1  5  1  0  0  0  0
  1 16  1  0  0  0  0
  2 27  1  6  0  0  0
  2  1  1  0  0  0  0
  3 44  1  0  0  0  0
  3  2  1  0  0  0  0
  4  1  1  0  0  0  0
  5  6  1  0  0  0  0
  6  7  1  0  0  0  0
  6  8  2  0  0  0  0
  8  9  1  0  0  0  0
 10  8  1  0  0  0  0
 10 11  1  0  0  0  0
 12 10  2  0  0  0  0
 13 12  1  0  0  0  0
 14  5  2  0  0  0  0
 14 12  1  0  0  0  0
 15 14  1  0  0  0  0
 16 25  2  0  0  0  0
 16 17  1  0  0  0  0
 17 19  2  0  0  0  0
 18 17  1  0  0  0  0
 19 21  1  0  0  0  0
 19 20  1  0  0  0  0
 21 22  1  0  0  0  0
 23 24  1  0  0  0  0
 23 21  2  0  0  0  0
 25 23  1  0  0  0  0
 26 25  1  0  0  0  0
 28 27  1  0  0  0  0
 29  4  1  0  0  0  0
 29 30  1  0  0  0  0
 31 29  1  0  0  0  0
 32 29  1  0  0  0  0
 33 34  1  0  0  0  0
 33  3  1  0  0  0  0
 34 35  1  0  0  0  0
 36 37  1  0  0  0  0
 36 34  2  0  0  0  0
 38 36  1  0  0  0  0
 39 38  1  0  0  0  0
 40 38  2  0  0  0  0
 40 42  1  0  0  0  0
 41 40  1  0  0  0  0
 42 33  2  0  0  0  0
 43 42  1  0  0  0  0
 44 45  1  0  0  0  0
 45 46  1  0  0  0  0
 45 47  2  0  0  0  0
 47 48  1  0  0  0  0
 49 47  1  0  0  0  0
 49 50  1  0  0  0  0
 51 49  2  0  0  0  0
 52 51  1  0  0  0  0
 53 44  2  0  0  0  0
 53 51  1  0  0  0  0
 54 53  1  0  0  0  0
 55  3  1  0  0  0  0
 56 57  1  0  0  0  0
 56 55  2  0  0  0  0
 58 56  1  0  0  0  0
 59 58  1  0  0  0  0
 60 58  2  0  0  0  0
 60 62  1  0  0  0  0
 61 60  1  0  0  0  0
 62 64  2  0  0  0  0
 63 62  1  0  0  0  0
 64 65  1  0  0  0  0
 64 55  1  0  0  0  0
M  END
$$$$
