CSD_code = RUWLEB | q = 0 | S = 0 | Stoichiometry = C15H23ClCoN3 | MND = 4
 OpenBabel04212202093D

 43 45  0  0  1  0  0  0  0  0999 V2000
    2.4122    0.3284    1.5037 Co  0  0  2  0  0  0  0  0  0  0  0  0
    1.1921    1.4406    2.7746 Cl  0  0  0  0  0  0  0  0  0  0  0  0
    4.0411    1.2683    1.7485 N   0  0  0  0  0  0  0  0  0  0  0  0
    3.0462    0.0527   -0.0846 N   0  0  0  0  0  0  0  0  0  0  0  0
    1.1787   -1.0222    1.0040 N   0  0  0  0  0  0  0  0  0  0  0  0
    5.9813    2.2258    0.5024 C   0  0  0  0  0  0  0  0  0  0  0  0
    5.9457    3.1619    1.0552 H   0  0  0  0  0  0  0  0  0  0  0  0
    6.1831    2.4485   -0.5405 H   0  0  0  0  0  0  0  0  0  0  0  0
    6.8116    1.6319    0.8877 H   0  0  0  0  0  0  0  0  0  0  0  0
    4.6938    1.4687    0.6299 C   0  0  0  0  0  0  0  0  0  0  0  0
    4.0887    0.8194   -0.5004 C   0  0  0  0  0  0  0  0  0  0  0  0
    4.4264    0.8667   -1.8497 C   0  0  0  0  0  0  0  0  0  0  0  0
    5.2524    1.4689   -2.1920 H   0  0  0  0  0  0  0  0  0  0  0  0
    3.6756    0.1358   -2.7596 C   0  0  0  0  0  0  0  0  0  0  0  0
    3.9301    0.1581   -3.8080 H   0  0  0  0  0  0  0  0  0  0  0  0
    2.5823   -0.6030   -2.3291 C   0  0  0  0  0  0  0  0  0  0  0  0
    1.9792   -1.1406   -3.0431 H   0  0  0  0  0  0  0  0  0  0  0  0
    2.2732   -0.6269   -0.9725 C   0  0  0  0  0  0  0  0  0  0  0  0
    1.2156   -1.3053   -0.2750 C   0  0  1  0  0  3  0  0  0  0  0  0
    0.3196   -2.2838   -0.9728 C   0  0  0  0  0  0  0  0  0  0  0  0
    0.6352   -3.3067   -0.7610 H   0  0  0  0  0  0  0  0  0  0  0  0
    0.3667   -2.1331   -2.0467 H   0  0  0  0  0  0  0  0  0  0  0  0
   -0.7139   -2.1715   -0.6539 H   0  0  0  0  0  0  0  0  0  0  0  0
    4.6276    1.7073    3.0045 C   0  0  0  0  0  0  0  0  0  0  0  0
    5.7202    1.7560    2.8959 H   0  0  0  0  0  0  0  0  0  0  0  0
    4.3067    0.6857    4.0949 C   0  0  0  0  0  0  0  0  0  0  0  0
    3.2366    0.6683    4.2842 H   0  0  0  0  0  0  0  0  0  0  0  0
    4.8202    0.9542    5.0149 H   0  0  0  0  0  0  0  0  0  0  0  0
    4.6308   -0.3079    3.7882 H   0  0  0  0  0  0  0  0  0  0  0  0
    4.1009    3.0917    3.3918 C   0  0  0  0  0  0  0  0  0  0  0  0
    4.3227    3.8242    2.6185 H   0  0  0  0  0  0  0  0  0  0  0  0
    4.5603    3.4131    4.3229 H   0  0  0  0  0  0  0  0  0  0  0  0
    3.0237    3.0458    3.5247 H   0  0  0  0  0  0  0  0  0  0  0  0
    0.2900   -1.7738    1.8757 C   0  0  0  0  0  0  0  0  0  0  0  0
    0.0866   -2.7555    1.4256 H   0  0  0  0  0  0  0  0  0  0  0  0
   -1.0330   -1.0286    2.0720 C   0  0  0  0  0  0  0  0  0  0  0  0
   -0.8428   -0.0699    2.5464 H   0  0  0  0  0  0  0  0  0  0  0  0
   -1.6947   -1.6138    2.7056 H   0  0  0  0  0  0  0  0  0  0  0  0
   -1.5250   -0.8502    1.1180 H   0  0  0  0  0  0  0  0  0  0  0  0
    0.9821   -2.0045    3.2185 C   0  0  0  0  0  0  0  0  0  0  0  0
    1.9363   -2.5080    3.0699 H   0  0  0  0  0  0  0  0  0  0  0  0
    0.3545   -2.6223    3.8563 H   0  0  0  0  0  0  0  0  0  0  0  0
    1.1557   -1.0529    3.7146 H   0  0  0  0  0  0  0  0  0  0  0  0
  1  3  1  0  0  0  0
  1  2  1  6  0  0  0
  3 24  1  0  0  0  0
  4  1  1  0  0  0  0
  5  1  1  0  0  0  0
  5 34  1  0  0  0  0
  6 10  1  0  0  0  0
  6  9  1  0  0  0  0
  6  7  1  0  0  0  0
  8  6  1  0  0  0  0
 10  3  1  0  0  0  0
 11  4  1  0  0  0  0
 11 10  2  0  0  0  0
 12 11  1  0  0  0  0
 13 12  1  0  0  0  0
 14 16  1  0  0  0  0
 14 12  2  0  0  0  0
 15 14  1  0  0  0  0
 16 18  2  0  0  0  0
 17 16  1  0  0  0  0
 18 19  1  0  0  0  0
 18  4  1  0  0  0  0
 19 20  1  1  0  0  0
 19  5  1  0  0  0  0
 20 21  1  0  0  0  0
 20 23  1  0  0  0  0
 22 20  1  0  0  0  0
 24 30  1  0  0  0  0
 24 26  1  0  0  0  0
 25 24  1  0  0  0  0
 26 27  1  0  0  0  0
 26 28  1  0  0  0  0
 29 26  1  0  0  0  0
 30 33  1  0  0  0  0
 30 32  1  0  0  0  0
 31 30  1  0  0  0  0
 34 36  1  0  0  0  0
 34 40  1  0  0  0  0
 35 34  1  0  0  0  0
 36 37  1  0  0  0  0
 36 38  1  0  0  0  0
 39 36  1  0  0  0  0
 40 43  1  0  0  0  0
 40 42  1  0  0  0  0
 41 40  1  0  0  0  0
M  END
$$$$
