CSD_code = RUXDUK | q = 0 | S = 0 | Stoichiometry = C27H33BrNNiOP | MND = 4
 OpenBabel04212202093D

 65 69  0  0  0  0  0  0  0  0999 V2000
   -0.2310   10.2637   12.1956 Ni  0  0  2  0  0  0  0  0  0  0  0  0
    1.2092   11.7358   11.2897 Br  0  0  0  0  0  0  0  0  0  0  0  0
   -0.6970   11.5542   13.7868 P   0  0  0  0  0  4  0  0  0  0  0  0
   -1.6966   10.7559   14.8040 O   0  0  0  0  0  0  0  0  0  0  0  0
    0.1735    8.5191   11.0395 N   0  0  0  0  0  4  0  0  0  0  0  0
   -1.2967    9.0890   13.1697 C   0  0  0  0  0  0  0  0  0  0  0  0
   -1.8656    9.4394   14.3920 C   0  0  0  0  0  0  0  0  0  0  0  0
   -2.5654    8.5219   15.1523 C   0  0  0  0  0  0  0  0  0  0  0  0
   -2.9979    8.8173   16.0959 H   0  0  0  0  0  0  0  0  0  0  0  0
   -2.6893    7.2240   14.6761 C   0  0  0  0  0  0  0  0  0  0  0  0
   -3.2279    6.4951   15.2629 H   0  0  0  0  0  0  0  0  0  0  0  0
   -2.1333    6.8554   13.4640 C   0  0  0  0  0  0  0  0  0  0  0  0
   -2.2414    5.8428   13.1013 H   0  0  0  0  0  0  0  0  0  0  0  0
   -1.4369    7.7861   12.7022 C   0  0  0  0  0  0  0  0  0  0  0  0
   -0.8524    7.4999   11.3487 C   0  0  0  0  0  0  0  0  0  0  0  0
   -0.4421    6.4858   11.2711 H   0  0  0  0  0  0  0  0  0  0  0  0
   -1.6536    7.5866   10.6051 H   0  0  0  0  0  0  0  0  0  0  0  0
    0.7604   11.9235   14.8749 C   0  0  0  0  0  0  0  0  0  0  0  0
    1.3857   12.6436   14.3377 H   0  0  0  0  0  0  0  0  0  0  0  0
    1.5324   10.6154   15.0289 C   0  0  0  0  0  0  0  0  0  0  0  0
    2.4509   10.7684   15.5925 H   0  0  0  0  0  0  0  0  0  0  0  0
    1.7998   10.2212   14.0432 H   0  0  0  0  0  0  0  0  0  0  0  0
    0.9262    9.8726   15.5492 H   0  0  0  0  0  0  0  0  0  0  0  0
    0.3273   12.4882   16.2205 C   0  0  0  0  0  0  0  0  0  0  0  0
   -0.3674   11.8080   16.7106 H   0  0  0  0  0  0  0  0  0  0  0  0
   -0.1567   13.4561   16.1098 H   0  0  0  0  0  0  0  0  0  0  0  0
    1.1965   12.6137   16.8646 H   0  0  0  0  0  0  0  0  0  0  0  0
   -1.6396   13.1360   13.6010 C   0  0  0  0  0  0  0  0  0  0  0  0
   -2.0894   13.3150   14.5861 H   0  0  0  0  0  0  0  0  0  0  0  0
   -2.7418   12.8834   12.5754 C   0  0  0  0  0  0  0  0  0  0  0  0
   -3.4313   13.7248   12.5326 H   0  0  0  0  0  0  0  0  0  0  0  0
   -3.3070   11.9856   12.8298 H   0  0  0  0  0  0  0  0  0  0  0  0
   -2.3002   12.7526   11.5873 H   0  0  0  0  0  0  0  0  0  0  0  0
   -0.7604   14.3067   13.1864 C   0  0  0  0  0  0  0  0  0  0  0  0
   -0.2250   14.0781   12.2670 H   0  0  0  0  0  0  0  0  0  0  0  0
   -0.0314   14.5530   13.9547 H   0  0  0  0  0  0  0  0  0  0  0  0
   -1.3785   15.1856   13.0103 H   0  0  0  0  0  0  0  0  0  0  0  0
    1.4894    8.1299   11.6067 C   0  0  0  0  0  0  0  0  0  0  0  0
    2.1893    8.9500   11.4134 H   0  0  0  0  0  0  0  0  0  0  0  0
    1.3579    8.0196   12.6899 H   0  0  0  0  0  0  0  0  0  0  0  0
    2.0752    6.8533   11.0586 C   0  0  0  0  0  0  0  0  0  0  0  0
    1.8577    5.6413   11.7052 C   0  0  0  0  0  0  0  0  0  0  0  0
    1.2923    5.6183   12.6274 H   0  0  0  0  0  0  0  0  0  0  0  0
    2.3749    4.4645   11.1919 C   0  0  0  0  0  0  0  0  0  0  0  0
    2.1952    3.5307   11.7044 H   0  0  0  0  0  0  0  0  0  0  0  0
    3.1238    4.4854   10.0281 C   0  0  0  0  0  0  0  0  0  0  0  0
    3.5262    3.5674    9.6262 H   0  0  0  0  0  0  0  0  0  0  0  0
    3.3687    5.6901    9.3911 C   0  0  0  0  0  0  0  0  0  0  0  0
    3.9687    5.7156    8.4935 H   0  0  0  0  0  0  0  0  0  0  0  0
    2.8512    6.8659    9.9047 C   0  0  0  0  0  0  0  0  0  0  0  0
    3.0640    7.8041    9.4127 H   0  0  0  0  0  0  0  0  0  0  0  0
    0.2661    8.7178    9.5870 C   0  0  0  0  0  0  0  0  0  0  0  0
    0.5361    7.7759    9.0884 H   0  0  0  0  0  0  0  0  0  0  0  0
    1.0597    9.4502    9.3962 H   0  0  0  0  0  0  0  0  0  0  0  0
   -1.0127    9.2427    8.9854 C   0  0  0  0  0  0  0  0  0  0  0  0
   -1.4313    8.7884    7.7409 C   0  0  0  0  0  0  0  0  0  0  0  0
   -0.8455    8.0432    7.2210 H   0  0  0  0  0  0  0  0  0  0  0  0
   -2.5873    9.2819    7.1628 C   0  0  0  0  0  0  0  0  0  0  0  0
   -2.8992    8.9191    6.1945 H   0  0  0  0  0  0  0  0  0  0  0  0
   -3.3464   10.2311    7.8253 C   0  0  0  0  0  0  0  0  0  0  0  0
   -4.2504   10.6139    7.3756 H   0  0  0  0  0  0  0  0  0  0  0  0
   -2.9409   10.6882    9.0679 C   0  0  0  0  0  0  0  0  0  0  0  0
   -3.5278   11.4300    9.5897 H   0  0  0  0  0  0  0  0  0  0  0  0
   -1.7808   10.1991    9.6368 C   0  0  0  0  0  0  0  0  0  0  0  0
   -1.4718   10.5751   10.6257 H   0  0  0  0  0  0  0  0  0  0  0  0
  1  2  1  6  0  0  0
  1  6  1  0  0  0  0
  1  3  1  0  0  0  0
  3  4  1  0  0  0  0
  3 18  1  0  0  0  0
  5 15  1  0  0  0  0
  5 38  1  0  0  0  0
  5  1  1  0  0  0  0
  6  7  1  0  0  0  0
  7  4  1  0  0  0  0
  7  8  2  0  0  0  0
  8  9  1  0  0  0  0
 10  8  1  0  0  0  0
 10 11  1  0  0  0  0
 12 10  2  0  0  0  0
 13 12  1  0  0  0  0
 14  6  2  0  0  0  0
 14 12  1  0  0  0  0
 15 14  1  0  0  0  0
 16 15  1  0  0  0  0
 17 15  1  0  0  0  0
 18 20  1  0  0  0  0
 18 24  1  0  0  0  0
 19 18  1  0  0  0  0
 20 23  1  0  0  0  0
 20 21  1  0  0  0  0
 22 20  1  0  0  0  0
 24 25  1  0  0  0  0
 24 27  1  0  0  0  0
 26 24  1  0  0  0  0
 28  3  1  0  0  0  0
 28 29  1  0  0  0  0
 30 32  1  0  0  0  0
 30 28  1  0  0  0  0
 31 30  1  0  0  0  0
 33 30  1  0  0  0  0
 34 28  1  0  0  0  0
 34 36  1  0  0  0  0
 35 34  1  0  0  0  0
 37 34  1  0  0  0  0
 38 40  1  0  0  0  0
 39 38  1  0  0  0  0
 41 38  1  0  0  0  0
 41 42  1  0  0  0  0
 42 43  1  0  0  0  0
 44 45  1  0  0  0  0
 44 42  2  0  0  0  0
 46 44  1  0  0  0  0
 47 46  1  0  0  0  0
 48 50  1  0  0  0  0
 48 46  2  0  0  0  0
 49 48  1  0  0  0  0
 50 41  2  0  0  0  0
 51 50  1  0  0  0  0
 52  5  1  0  0  0  0
 53 52  1  0  0  0  0
 54 52  1  0  0  0  0
 55 52  1  0  0  0  0
 55 64  1  0  0  0  0
 56 55  2  0  0  0  0
 57 56  1  0  0  0  0
 58 56  1  0  0  0  0
 58 60  2  0  0  0  0
 59 58  1  0  0  0  0
 60 62  1  0  0  0  0
 61 60  1  0  0  0  0
 62 63  1  0  0  0  0
 62 64  2  0  0  0  0
 64 65  1  0  0  0  0
M  END
$$$$
