CSD_code = RUYZUI | q = 0 | S = 0 | Stoichiometry = C12H27Cl2N3PdSe4 | MND = 4
 OpenBabel04212202093D

 49 48  0  0  0  0  0  0  0  0999 V2000
   11.6995    2.1215    7.0087 Pd  0  0  0  0  0  0  0  0  0  0  0  0
   11.3930    4.3904    7.3729 Se  0  0  0  0  0  0  0  0  0  0  0  0
    9.5175    2.3329    6.2566 Se  0  0  0  0  0  0  0  0  0  0  0  0
    9.7882    1.5617    9.2617 Se  0  0  0  0  0  0  0  0  0  0  0  0
    9.5536    3.7304    9.9087 Se  0  0  0  0  0  0  0  0  0  0  0  0
   11.5357   -0.0697    6.3678 Cl  0  0  0  0  0  0  0  0  0  0  0  0
   13.9195    2.0267    7.4825 Cl  0  0  0  0  0  0  0  0  0  0  0  0
    9.6299    4.1050    6.9114 N   0  0  0  0  0  0  0  0  0  0  0  0
    8.6410    1.6985    7.7371 N   0  0  0  0  0  0  0  0  0  0  0  0
   11.0558    4.6295    9.2238 N   0  0  0  0  0  0  0  0  0  0  0  0
    8.8648    5.1922    6.3001 C   0  0  0  0  0  0  0  0  0  0  0  0
    7.6301    0.6367    7.6168 C   0  0  0  0  0  0  0  0  0  0  0  0
   12.2642    4.6211   10.0724 C   0  0  0  0  0  0  0  0  0  0  0  0
    9.0075    6.4164    7.2028 C   0  0  0  0  0  0  0  0  0  0  0  0
    8.6599    6.1810    8.2067 H   0  0  0  0  0  0  0  0  0  0  0  0
    8.4282    7.2441    6.8039 H   0  0  0  0  0  0  0  0  0  0  0  0
   10.0542    6.7177    7.2649 H   0  0  0  0  0  0  0  0  0  0  0  0
    7.4048    4.7493    6.2417 C   0  0  0  0  0  0  0  0  0  0  0  0
    7.2995    3.9034    5.5617 H   0  0  0  0  0  0  0  0  0  0  0  0
    6.7811    5.5629    5.8829 H   0  0  0  0  0  0  0  0  0  0  0  0
    7.0707    4.4516    7.2328 H   0  0  0  0  0  0  0  0  0  0  0  0
    9.3955    5.4885    4.8964 C   0  0  0  0  0  0  0  0  0  0  0  0
   10.4445    5.7891    4.9551 H   0  0  0  0  0  0  0  0  0  0  0  0
    8.8282    6.2863    4.4247 H   0  0  0  0  0  0  0  0  0  0  0  0
    9.3234    4.5911    4.2769 H   0  0  0  0  0  0  0  0  0  0  0  0
    6.5934    0.8879    8.7142 C   0  0  0  0  0  0  0  0  0  0  0  0
    7.0727    0.8740    9.6922 H   0  0  0  0  0  0  0  0  0  0  0  0
    5.8309    0.1150    8.6881 H   0  0  0  0  0  0  0  0  0  0  0  0
    6.1242    1.8582    8.5733 H   0  0  0  0  0  0  0  0  0  0  0  0
    8.2577   -0.7485    7.7747 C   0  0  0  0  0  0  0  0  0  0  0  0
    9.0964   -0.8579    7.0864 H   0  0  0  0  0  0  0  0  0  0  0  0
    7.5246   -1.5234    7.5668 H   0  0  0  0  0  0  0  0  0  0  0  0
    8.6248   -0.8843    8.7936 H   0  0  0  0  0  0  0  0  0  0  0  0
    6.9645    0.7349    6.2454 C   0  0  0  0  0  0  0  0  0  0  0  0
    6.5910    1.7429    6.0724 H   0  0  0  0  0  0  0  0  0  0  0  0
    6.1304    0.0402    6.1952 H   0  0  0  0  0  0  0  0  0  0  0  0
    7.6787    0.4743    5.4600 H   0  0  0  0  0  0  0  0  0  0  0  0
   13.4145    5.2105    9.2541 C   0  0  0  0  0  0  0  0  0  0  0  0
   13.7351    4.4992    8.4830 H   0  0  0  0  0  0  0  0  0  0  0  0
   14.2674    5.3992    9.9008 H   0  0  0  0  0  0  0  0  0  0  0  0
   13.1084    6.1520    8.7940 H   0  0  0  0  0  0  0  0  0  0  0  0
   12.6396    3.2143   10.5366 C   0  0  0  0  0  0  0  0  0  0  0  0
   11.8968    2.8222   11.2334 H   0  0  0  0  0  0  0  0  0  0  0  0
   13.6037    3.2345   11.0361 H   0  0  0  0  0  0  0  0  0  0  0  0
   12.7271    2.5386    9.6770 H   0  0  0  0  0  0  0  0  0  0  0  0
   11.9634    5.5212   11.2720 C   0  0  0  0  0  0  0  0  0  0  0  0
   11.7561    6.5330   10.9349 H   0  0  0  0  0  0  0  0  0  0  0  0
   12.8126    5.5349   11.9487 H   0  0  0  0  0  0  0  0  0  0  0  0
   11.0905    5.1499   11.8078 H   0  0  0  0  0  0  0  0  0  0  0  0
  1  7  1  0  0  0  0
  2 10  1  0  0  0  0
  3  8  1  0  0  0  0
  3  9  1  0  0  0  0
  4  5  1  0  0  0  0
  6  1  1  0  0  0  0
  8  2  1  0  0  0  0
  9  4  1  0  0  0  0
 10  5  1  0  0  0  0
 10 13  1  0  0  0  0
 11  8  1  0  0  0  0
 11 14  1  0  0  0  0
 12  9  1  0  0  0  0
 12 30  1  0  0  0  0
 12 26  1  0  0  0  0
 13 42  1  0  0  0  0
 13 46  1  0  0  0  0
 14 17  1  0  0  0  0
 14 15  1  0  0  0  0
 16 14  1  0  0  0  0
 18 11  1  0  0  0  0
 18 21  1  0  0  0  0
 19 18  1  0  0  0  0
 20 18  1  0  0  0  0
 22 23  1  0  0  0  0
 22 11  1  0  0  0  0
 24 22  1  0  0  0  0
 25 22  1  0  0  0  0
 26 27  1  0  0  0  0
 28 26  1  0  0  0  0
 29 26  1  0  0  0  0
 30 33  1  0  0  0  0
 31 30  1  0  0  0  0
 32 30  1  0  0  0  0
 34 12  1  0  0  0  0
 35 34  1  0  0  0  0
 36 34  1  0  0  0  0
 37 34  1  0  0  0  0
 38 40  1  0  0  0  0
 38 13  1  0  0  0  0
 39 38  1  0  0  0  0
 41 38  1  0  0  0  0
 42 44  1  0  0  0  0
 42 43  1  0  0  0  0
 45 42  1  0  0  0  0
 46 49  1  0  0  0  0
 46 48  1  0  0  0  0
 47 46  1  0  0  0  0
M  END
$$$$
