CSD_code = RUZGAW | q = 0 | S = 0 | Stoichiometry = C18H26Cl2N2Pd | MND = 4
 OpenBabel04212202093D

 49 50  0  0  0  0  0  0  0  0999 V2000
    0.0008   -0.0004   13.0623 Pd  0  0  0  0  0  0  0  0  0  0  0  0
    2.0989    0.7478   13.5752 Cl  0  0  0  0  0  0  0  0  0  0  0  0
    0.3787   -1.7637   14.0139 N   0  0  0  0  0  4  0  0  0  0  0  0
   -0.5631   -5.1697   16.7653 C   0  0  0  0  0  0  0  0  0  0  0  0
   -1.3581   -5.2402   17.9020 C   0  0  0  0  0  0  0  0  0  0  0  0
   -1.2052   -6.2757   18.8061 C   0  0  0  0  0  0  0  0  0  0  0  0
   -0.2508   -7.2542   18.5860 C   0  0  0  0  0  0  0  0  0  0  0  0
    0.5478   -7.1915   17.4573 C   0  0  0  0  0  0  0  0  0  0  0  0
    0.3925   -6.1546   16.5545 C   0  0  0  0  0  0  0  0  0  0  0  0
   -0.7040   -4.0193   15.8079 C   0  0  0  0  0  0  0  0  0  0  0  0
    0.1855   -2.8512   16.2549 C   0  0  0  0  0  0  0  0  0  0  0  0
   -0.0300   -1.5894   15.4157 C   0  0  0  0  0  0  0  0  0  0  0  0
   -2.1062   -4.4799   18.0761 H   0  0  0  0  0  0  0  0  0  0  0  0
   -1.8330   -6.3203   19.6840 H   0  0  0  0  0  0  0  0  0  0  0  0
   -0.1316   -8.0639   19.2904 H   0  0  0  0  0  0  0  0  0  0  0  0
    1.2930   -7.9528   17.2787 H   0  0  0  0  0  0  0  0  0  0  0  0
    1.0176   -6.1136   15.6732 H   0  0  0  0  0  0  0  0  0  0  0  0
   -1.7435   -3.6863   15.7789 H   0  0  0  0  0  0  0  0  0  0  0  0
   -0.4203   -4.3490   14.8059 H   0  0  0  0  0  0  0  0  0  0  0  0
   -0.0401   -2.6166   17.2965 H   0  0  0  0  0  0  0  0  0  0  0  0
    1.2352   -3.1524   16.2066 H   0  0  0  0  0  0  0  0  0  0  0  0
   -1.0942   -1.3146   15.4239 H   0  0  0  0  0  0  0  0  0  0  0  0
    0.5580   -0.7623   15.8372 H   0  0  0  0  0  0  0  0  0  0  0  0
   -0.1782   -2.5068   13.5815 H   0  0  0  0  0  0  0  0  0  0  0  0
    1.3730   -2.0074   13.9692 H   0  0  0  0  0  0  0  0  0  0  0  0
   -2.0975   -0.7482   12.5497 Cl  0  0  0  0  0  0  0  0  0  0  0  0
   -0.3772    1.7629   12.1109 N   0  0  0  0  0  4  0  0  0  0  0  0
    0.5626    5.1700    9.3602 C   0  0  0  0  0  0  0  0  0  0  0  0
    1.3573    5.2415    8.2233 C   0  0  0  0  0  0  0  0  0  0  0  0
    1.2034    6.2772    7.3196 C   0  0  0  0  0  0  0  0  0  0  0  0
    0.2483    7.2548    7.5402 C   0  0  0  0  0  0  0  0  0  0  0  0
   -0.5501    7.1911    8.6689 C   0  0  0  0  0  0  0  0  0  0  0  0
   -0.3938    6.1541    9.5714 C   0  0  0  0  0  0  0  0  0  0  0  0
    0.7045    4.0195   10.3172 C   0  0  0  0  0  0  0  0  0  0  0  0
   -0.1841    2.8508    9.8699 C   0  0  0  0  0  0  0  0  0  0  0  0
    0.0320    1.5890   10.7091 C   0  0  0  0  0  0  0  0  0  0  0  0
    2.1061    4.4818    8.0489 H   0  0  0  0  0  0  0  0  0  0  0  0
    1.8310    6.3225    6.4416 H   0  0  0  0  0  0  0  0  0  0  0  0
    0.1283    8.0646    6.8360 H   0  0  0  0  0  0  0  0  0  0  0  0
   -1.2960    7.9517    8.8478 H   0  0  0  0  0  0  0  0  0  0  0  0
   -1.0188    6.1123   10.4528 H   0  0  0  0  0  0  0  0  0  0  0  0
    1.7442    3.6873   10.3460 H   0  0  0  0  0  0  0  0  0  0  0  0
    0.4207    4.3486   11.3193 H   0  0  0  0  0  0  0  0  0  0  0  0
    0.0418    2.6164    8.8284 H   0  0  0  0  0  0  0  0  0  0  0  0
   -1.2340    3.1513    9.9180 H   0  0  0  0  0  0  0  0  0  0  0  0
    1.0964    1.3150   10.7012 H   0  0  0  0  0  0  0  0  0  0  0  0
   -0.5554    0.7616   10.2874 H   0  0  0  0  0  0  0  0  0  0  0  0
    0.1793    2.5063   12.5435 H   0  0  0  0  0  0  0  0  0  0  0  0
   -1.3716    2.0063   12.1552 H   0  0  0  0  0  0  0  0  0  0  0  0
  1  2  1  0  0  0  0
  1  3  1  0  0  0  0
  3 12  1  0  0  0  0
  4  5  1  0  0  0  0
  5 13  1  0  0  0  0
  5  6  2  0  0  0  0
  6 14  1  0  0  0  0
  7  6  1  0  0  0  0
  7 15  1  0  0  0  0
  8  7  2  0  0  0  0
  9  4  2  0  0  0  0
  9  8  1  0  0  0  0
 10 11  1  0  0  0  0
 10  4  1  0  0  0  0
 11 20  1  0  0  0  0
 12 22  1  0  0  0  0
 12 23  1  0  0  0  0
 12 11  1  0  0  0  0
 16  8  1  0  0  0  0
 17  9  1  0  0  0  0
 18 10  1  0  0  0  0
 19 10  1  0  0  0  0
 21 11  1  0  0  0  0
 24  3  1  0  0  0  0
 25  3  1  0  0  0  0
 26  1  1  0  0  0  0
 27 49  1  0  0  0  0
 27 48  1  0  0  0  0
 27  1  1  0  0  0  0
 28 33  1  0  0  0  0
 28 34  1  0  0  0  0
 29 28  2  0  0  0  0
 30 31  2  0  0  0  0
 30 29  1  0  0  0  0
 31 32  1  0  0  0  0
 32 40  1  0  0  0  0
 32 33  2  0  0  0  0
 33 41  1  0  0  0  0
 34 42  1  0  0  0  0
 34 43  1  0  0  0  0
 35 45  1  0  0  0  0
 35 34  1  0  0  0  0
 35 36  1  0  0  0  0
 36 27  1  0  0  0  0
 37 29  1  0  0  0  0
 38 30  1  0  0  0  0
 39 31  1  0  0  0  0
 44 35  1  0  0  0  0
 46 36  1  0  0  0  0
 47 36  1  0  0  0  0
M  END
$$$$
