CSD_code = RUZNUW | q = 0 | S = 0 | Stoichiometry = C28H36Cl2OTi | MND = 8
 OpenBabel04212202093D

 68 71  0  0  1  0  0  0  0  0999 V2000
    5.0133    6.1966    4.4518 Ti  0  0  0  0  0  0  0  0  0  0  0  0
    4.9513    4.2354    3.4647 Cl  0  0  0  0  0  0  0  0  0  0  0  0
    4.0113    5.4532    6.2550 Cl  0  0  0  0  0  0  0  0  0  0  0  0
    3.7708    7.0151    3.7057 O   0  0  0  0  0  0  0  0  0  0  0  0
    6.3753    7.8042    5.3514 C   0  0  1  0  0  0  0  0  0  0  0  0
    6.9121    6.5305    5.7347 C   0  0  0  0  0  0  0  0  0  0  0  0
    7.3010    5.8510    4.5606 C   0  0  0  0  0  0  0  0  0  0  0  0
    7.0041    6.6844    3.4391 C   0  0  2  0  0  0  0  0  0  0  0  0
    6.4536    7.9005    3.9262 C   0  0  2  0  0  3  0  0  0  0  0  0
    7.2154    6.0856    7.1370 C   0  0  0  0  0  0  0  0  0  0  0  0
    8.2034    5.6253    7.1733 H   0  0  0  0  0  0  0  0  0  0  0  0
    6.4856    5.3572    7.4976 H   0  0  0  0  0  0  0  0  0  0  0  0
    7.2051    6.9405    7.8121 H   0  0  0  0  0  0  0  0  0  0  0  0
    8.0372    4.5444    4.5114 C   0  0  0  0  0  0  0  0  0  0  0  0
    9.1136    4.7193    4.5919 H   0  0  0  0  0  0  0  0  0  0  0  0
    7.8450    4.0247    3.5742 H   0  0  0  0  0  0  0  0  0  0  0  0
    7.7316    3.8966    5.3328 H   0  0  0  0  0  0  0  0  0  0  0  0
    7.3685    6.3739    2.0159 C   0  0  0  0  0  0  0  0  0  0  0  0
    6.9218    7.0934    1.3315 H   0  0  0  0  0  0  0  0  0  0  0  0
    7.0345    5.3722    1.7398 H   0  0  0  0  0  0  0  0  0  0  0  0
    8.4534    6.4141    1.8925 H   0  0  0  0  0  0  0  0  0  0  0  0
    6.0829    9.0939    3.0891 C   0  0  0  0  0  0  0  0  0  0  0  0
    6.9802    9.6493    2.8044 H   0  0  0  0  0  0  0  0  0  0  0  0
    5.4249    9.7638    3.6419 H   0  0  0  0  0  0  0  0  0  0  0  0
    5.5710    8.7929    2.1728 H   0  0  0  0  0  0  0  0  0  0  0  0
    5.9974    8.8707    6.2873 C   0  0  0  0  0  0  0  0  0  0  0  0
    6.4923   10.1658    6.1312 C   0  0  0  0  0  0  0  0  0  0  0  0
    7.1662   10.3847    5.3164 H   0  0  0  0  0  0  0  0  0  0  0  0
    6.1536   11.1627    7.0254 C   0  0  0  0  0  0  0  0  0  0  0  0
    6.5484   12.1593    6.8866 H   0  0  0  0  0  0  0  0  0  0  0  0
    5.3196   10.9036    8.1065 C   0  0  0  0  0  0  0  0  0  0  0  0
    4.8377    9.6105    8.2702 C   0  0  0  0  0  0  0  0  0  0  0  0
    4.1911    9.3853    9.1069 H   0  0  0  0  0  0  0  0  0  0  0  0
    5.1681    8.6066    7.3797 C   0  0  0  0  0  0  0  0  0  0  0  0
    4.7597    7.6131    7.5135 H   0  0  0  0  0  0  0  0  0  0  0  0
    4.9339   11.9996    9.0523 C   0  0  0  0  0  0  0  0  0  0  0  0
    4.1316   12.5994    8.6203 H   0  0  0  0  0  0  0  0  0  0  0  0
    5.7772   12.6601    9.2437 H   0  0  0  0  0  0  0  0  0  0  0  0
    4.5821   11.5930    9.9974 H   0  0  0  0  0  0  0  0  0  0  0  0
    2.9962    7.8287    2.9962 C   0  0  0  0  0  0  0  0  0  0  0  0
    2.8367    7.6048    1.6155 C   0  0  0  0  0  0  0  0  0  0  0  0
    2.0334    8.4716    0.8933 C   0  0  0  0  0  0  0  0  0  0  0  0
    1.8898    8.3139   -0.1639 H   0  0  0  0  0  0  0  0  0  0  0  0
    1.4059    9.5385    1.5124 C   0  0  0  0  0  0  0  0  0  0  0  0
    0.7811   10.2029    0.9344 H   0  0  0  0  0  0  0  0  0  0  0  0
    1.5665    9.7522    2.8704 C   0  0  0  0  0  0  0  0  0  0  0  0
    1.0634   10.5831    3.3386 H   0  0  0  0  0  0  0  0  0  0  0  0
    2.3613    8.9119    3.6319 C   0  0  0  0  0  0  0  0  0  0  0  0
    3.4949    6.3837    1.0200 C   0  0  0  0  0  0  0  0  0  0  0  0
    4.4342    6.2055    1.5704 H   0  0  0  0  0  0  0  0  0  0  0  0
    3.8225    6.5221   -0.4645 C   0  0  0  0  0  0  0  0  0  0  0  0
    4.4346    5.6812   -0.7827 H   0  0  0  0  0  0  0  0  0  0  0  0
    4.3709    7.4421   -0.6578 H   0  0  0  0  0  0  0  0  0  0  0  0
    2.9169    6.5230   -1.0663 H   0  0  0  0  0  0  0  0  0  0  0  0
    2.5777    5.1783    1.2639 C   0  0  0  0  0  0  0  0  0  0  0  0
    1.6257    5.3188    0.7549 H   0  0  0  0  0  0  0  0  0  0  0  0
    2.3900    5.0601    2.3326 H   0  0  0  0  0  0  0  0  0  0  0  0
    3.0463    4.2683    0.8968 H   0  0  0  0  0  0  0  0  0  0  0  0
    2.5467    9.0562    5.1227 C   0  0  0  0  0  0  0  0  0  0  0  0
    3.5655    8.7140    5.3633 H   0  0  0  0  0  0  0  0  0  0  0  0
    2.3915   10.4888    5.6247 C   0  0  0  0  0  0  0  0  0  0  0  0
    3.0061   11.1722    5.0422 H   0  0  0  0  0  0  0  0  0  0  0  0
    2.7097   10.5444    6.6631 H   0  0  0  0  0  0  0  0  0  0  0  0
    1.3549   10.8127    5.5694 H   0  0  0  0  0  0  0  0  0  0  0  0
    1.5666    8.1198    5.8399 C   0  0  0  0  0  0  0  0  0  0  0  0
    0.5394    8.3858    5.5959 H   0  0  0  0  0  0  0  0  0  0  0  0
    1.7034    8.1901    6.9165 H   0  0  0  0  0  0  0  0  0  0  0  0
    1.7433    7.0867    5.5374 H   0  0  0  0  0  0  0  0  0  0  0  0
  1  5  1  0  0  0  0
  1  3  1  0  0  0  0
  2  1  1  0  0  0  0
  4  1  1  0  0  0  0
  5  6  1  0  0  0  0
  5 26  1  1  0  0  0
  6 10  1  0  0  0  0
  7  6  2  0  0  0  0
  8 18  1  6  0  0  0
  8  9  1  0  0  0  0
  8  1  1  0  0  0  0
  8  7  1  0  0  0  0
  9 22  1  1  0  0  0
  9  5  1  0  0  0  0
 10 11  1  0  0  0  0
 10 12  1  0  0  0  0
 10 13  1  0  0  0  0
 14  7  1  0  0  0  0
 14 15  1  0  0  0  0
 14 17  1  0  0  0  0
 16 14  1  0  0  0  0
 19 18  1  0  0  0  0
 20 18  1  0  0  0  0
 21 18  1  0  0  0  0
 22 24  1  0  0  0  0
 23 22  1  0  0  0  0
 25 22  1  0  0  0  0
 26 34  1  0  0  0  0
 27 26  2  0  0  0  0
 27 29  1  0  0  0  0
 28 27  1  0  0  0  0
 29 31  2  0  0  0  0
 30 29  1  0  0  0  0
 31 32  1  0  0  0  0
 31 36  1  0  0  0  0
 32 33  1  0  0  0  0
 34 35  1  0  0  0  0
 34 32  2  0  0  0  0
 36 38  1  0  0  0  0
 36 39  1  0  0  0  0
 37 36  1  0  0  0  0
 40 48  1  0  0  0  0
 40  4  1  0  0  0  0
 41 40  2  0  0  0  0
 42 44  2  0  0  0  0
 42 41  1  0  0  0  0
 43 42  1  0  0  0  0
 44 46  1  0  0  0  0
 45 44  1  0  0  0  0
 46 47  1  0  0  0  0
 46 48  2  0  0  0  0
 48 59  1  0  0  0  0
 49 55  1  0  0  0  0
 49 50  1  0  0  0  0
 49 41  1  0  0  0  0
 51 49  1  0  0  0  0
 52 51  1  0  0  0  0
 53 51  1  0  0  0  0
 54 51  1  0  0  0  0
 55 57  1  0  0  0  0
 56 55  1  0  0  0  0
 58 55  1  0  0  0  0
 59 60  1  0  0  0  0
 59 61  1  0  0  0  0
 59 65  1  0  0  0  0
 61 63  1  0  0  0  0
 62 61  1  0  0  0  0
 64 61  1  0  0  0  0
 65 67  1  0  0  0  0
 66 65  1  0  0  0  0
 68 65  1  0  0  0  0
M  END
$$$$
