CSD_code = RUZXUH | q = 1 | S = 0 | Stoichiometry = C17H29ClN5Zn(1+) | MND = 6
 OpenBabel04212202093D

 53 59  0  0  1  0  0  0  0  0999 V2000
    9.3300    2.9517    0.8939 Zn  0  0  0  0  0  0  0  0  0  0  0  0
   10.9172    2.9355   -0.6817 Cl  0  0  0  0  0  0  0  0  0  0  0  0
   10.1622    1.4998    2.3297 N   0  0  2  0  0  4  0  0  0  0  0  0
    7.8160    3.0985    2.4807 N   0  0  2  0  0  4  0  0  0  0  0  0
    8.2770    4.8382    0.3792 N   0  0  1  0  0  4  0  0  0  0  0  0
   10.3208    4.2251    2.3076 N   0  0  2  0  0  4  0  0  0  0  0  0
    8.5498    1.1130    0.1050 N   0  0  0  0  0  0  0  0  0  0  0  0
    9.1437    1.2017    3.3432 C   0  0  0  0  0  0  0  0  0  0  0  0
    9.4363    1.6501    4.2926 H   0  0  0  0  0  0  0  0  0  0  0  0
    9.0653    0.1205    3.5050 H   0  0  0  0  0  0  0  0  0  0  0  0
    7.7496    1.7296    2.9759 C   0  0  0  0  0  0  0  0  0  0  0  0
    7.3188    1.1028    2.1959 H   0  0  0  0  0  0  0  0  0  0  0  0
    7.1050    1.6524    3.8624 H   0  0  0  0  0  0  0  0  0  0  0  0
    6.6339    3.4900    1.7214 C   0  0  0  0  0  0  0  0  0  0  0  0
    5.7732    3.6777    2.3771 H   0  0  0  0  0  0  0  0  0  0  0  0
    6.3796    2.6558    1.0669 H   0  0  0  0  0  0  0  0  0  0  0  0
    6.8877    4.7424    0.8539 C   0  0  0  0  0  0  0  0  0  0  0  0
    6.2120    4.6872   -0.0019 H   0  0  0  0  0  0  0  0  0  0  0  0
    6.6107    5.6442    1.4075 H   0  0  0  0  0  0  0  0  0  0  0  0
    9.0344    5.9086    1.0597 C   0  0  0  0  0  0  0  0  0  0  0  0
    8.4797    6.2595    1.9296 H   0  0  0  0  0  0  0  0  0  0  0  0
    9.1601    6.7640    0.3889 H   0  0  0  0  0  0  0  0  0  0  0  0
   10.4207    5.4482    1.5150 C   0  0  0  0  0  0  0  0  0  0  0  0
   11.0302    5.2279    0.6382 H   0  0  0  0  0  0  0  0  0  0  0  0
   10.8978    6.2594    2.0803 H   0  0  0  0  0  0  0  0  0  0  0  0
   11.6018    3.5416    2.4697 C   0  0  0  0  0  0  0  0  0  0  0  0
   12.2439    4.0459    3.2019 H   0  0  0  0  0  0  0  0  0  0  0  0
   12.1013    3.5572    1.5012 H   0  0  0  0  0  0  0  0  0  0  0  0
   11.3959    2.0713    2.8936 C   0  0  0  0  0  0  0  0  0  0  0  0
   12.2648    1.5052    2.5543 H   0  0  0  0  0  0  0  0  0  0  0  0
   11.3809    1.9912    3.9835 H   0  0  0  0  0  0  0  0  0  0  0  0
    8.1380    4.0602    3.5341 C   0  0  0  0  0  0  0  0  0  0  0  0
    7.8396    3.6690    4.5128 H   0  0  0  0  0  0  0  0  0  0  0  0
    7.5529    4.9625    3.3675 H   0  0  0  0  0  0  0  0  0  0  0  0
    9.6409    4.4264    3.5850 C   0  0  0  0  0  0  0  0  0  0  0  0
    9.7389    5.4668    3.9137 H   0  0  0  0  0  0  0  0  0  0  0  0
   10.1304    3.8117    4.3380 H   0  0  0  0  0  0  0  0  0  0  0  0
   10.4231    0.3576    1.4585 C   0  0  0  0  0  0  0  0  0  0  0  0
   10.6363   -0.5533    2.0349 H   0  0  0  0  0  0  0  0  0  0  0  0
   11.3024    0.5957    0.8501 H   0  0  0  0  0  0  0  0  0  0  0  0
    9.3224    0.0911    0.4700 C   0  0  2  0  0  3  0  0  0  0  0  0
    9.1857   -1.1695   -0.1013 C   0  0  0  0  0  0  0  0  0  0  0  0
    9.8269   -1.9761    0.2176 H   0  0  0  0  0  0  0  0  0  0  0  0
    8.2367   -1.3670   -1.0879 C   0  0  0  0  0  0  0  0  0  0  0  0
    8.1189   -2.3340   -1.5511 H   0  0  0  0  0  0  0  0  0  0  0  0
    7.4467   -0.2933   -1.4743 C   0  0  0  0  0  0  0  0  0  0  0  0
    6.7017   -0.3963   -2.2459 H   0  0  0  0  0  0  0  0  0  0  0  0
    7.6398    0.9221   -0.8477 C   0  0  0  0  0  0  0  0  0  0  0  0
    7.0456    1.7838   -1.1189 H   0  0  0  0  0  0  0  0  0  0  0  0
    8.3266    5.0517   -1.0717 C   0  0  0  0  0  0  0  0  0  0  0  0
    9.3641    5.0694   -1.3965 H   0  0  0  0  0  0  0  0  0  0  0  0
    7.8446    5.9931   -1.3539 H   0  0  0  0  0  0  0  0  0  0  0  0
    7.8340    4.2295   -1.5865 H   0  0  0  0  0  0  0  0  0  0  0  0
  1  6  1  0  0  0  0
  1  3  1  0  0  0  0
  1  4  1  0  0  0  0
  2  1  1  0  0  0  0
  3 38  1  6  0  0  0
  3 29  1  0  0  0  0
  3  8  1  0  0  0  0
  4 14  1  6  0  0  0
  4 11  1  0  0  0  0
  4 32  1  0  0  0  0
  5 50  1  6  0  0  0
  5 17  1  0  0  0  0
  5  1  1  0  0  0  0
  5 20  1  0  0  0  0
  6 23  1  6  0  0  0
  6 26  1  0  0  0  0
  6 35  1  0  0  0  0
  7 41  1  0  0  0  0
  7  1  1  0  0  0  0
  8 10  1  0  0  0  0
  8  9  1  0  0  0  0
 11  8  1  0  0  0  0
 11 13  1  0  0  0  0
 12 11  1  0  0  0  0
 14 15  1  0  0  0  0
 16 14  1  0  0  0  0
 17 19  1  0  0  0  0
 17 14  1  0  0  0  0
 18 17  1  0  0  0  0
 20 23  1  0  0  0  0
 20 21  1  0  0  0  0
 22 20  1  0  0  0  0
 23 25  1  0  0  0  0
 24 23  1  0  0  0  0
 26 29  1  0  0  0  0
 26 27  1  0  0  0  0
 28 26  1  0  0  0  0
 29 31  1  0  0  0  0
 30 29  1  0  0  0  0
 32 35  1  0  0  0  0
 32 33  1  0  0  0  0
 34 32  1  0  0  0  0
 35 36  1  0  0  0  0
 35 37  1  0  0  0  0
 38 39  1  0  0  0  0
 40 38  1  0  0  0  0
 41 42  1  6  0  0  0
 41 38  1  0  0  0  0
 42 43  1  0  0  0  0
 44 42  2  0  0  0  0
 45 44  1  0  0  0  0
 46 44  1  0  0  0  0
 46 48  2  0  0  0  0
 47 46  1  0  0  0  0
 48  7  1  0  0  0  0
 49 48  1  0  0  0  0
 51 50  1  0  0  0  0
 52 50  1  0  0  0  0
 53 50  1  0  0  0  0
M  END
$$$$
