CSD_code = SABQUI | q = 0 | S = 0 | Stoichiometry = C16H11Cl2N3ORu | MND = 6
 OpenBabel04212202093D

 34 38  0  0  1  0  0  0  0  0999 V2000
    5.6995    1.6487    7.6673 Ru  0  0  0  0  0  0  0  0  0  0  0  0
    4.8093    3.8633    7.6324 Cl  0  0  0  0  0  0  0  0  0  0  0  0
    6.6121   -0.5478    7.4552 Cl  0  0  0  0  0  0  0  0  0  0  0  0
    5.5306    1.5044    9.5126 C   0  0  0  0  0  2  0  0  0  0  0  0
    5.4260    1.4175   10.6481 O   0  0  0  0  0  1  0  0  0  0  0  0
    3.9007    0.9348    7.1349 N   0  0  0  0  0  0  0  0  0  0  0  0
    2.9114    0.5061    7.9152 C   0  0  0  0  0  3  0  0  0  0  0  0
    1.7091    0.0363    7.4195 C   0  0  0  0  0  0  0  0  0  0  0  0
    1.5135    0.0055    6.0455 C   0  0  0  0  0  0  0  0  0  0  0  0
    2.5344    0.4483    5.2263 C   0  0  0  0  0  0  0  0  0  0  0  0
    3.7207    0.9093    5.7916 C   0  0  0  0  0  0  0  0  0  0  0  0
    4.8568    1.4001    5.0113 C   0  0  1  0  0  3  0  0  0  0  0  0
    4.9566    1.4863    3.6241 C   0  0  0  0  0  0  0  0  0  0  0  0
    6.1271    1.9856    3.0732 C   0  0  0  0  0  0  0  0  0  0  0  0
    7.1681    2.3880    3.8961 C   0  0  0  0  0  0  0  0  0  0  0  0
    7.0081    2.2766    5.2759 C   0  0  0  0  0  0  0  0  0  0  0  0
    5.8726    1.7917    5.7853 N   0  0  0  0  0  0  0  0  0  0  0  0
    7.9731    2.6385    6.3142 C   0  0  2  0  0  3  0  0  0  0  0  0
    7.5538    2.4123    7.5834 N   0  0  0  0  0  0  0  0  0  0  0  0
    8.3757    2.7135    8.5858 C   0  0  0  0  0  0  0  0  0  0  0  0
    9.6363    3.2482    8.3929 C   0  0  0  0  0  0  0  0  0  0  0  0
   10.0753    3.4869    7.0978 C   0  0  0  0  0  0  0  0  0  0  0  0
    9.2301    3.1763    6.0497 C   0  0  0  0  0  0  0  0  0  0  0  0
    3.0920    0.5417    8.9827 H   0  0  0  0  0  0  0  0  0  0  0  0
    0.9424   -0.2983    8.0992 H   0  0  0  0  0  0  0  0  0  0  0  0
    0.5879   -0.3548    5.6246 H   0  0  0  0  0  0  0  0  0  0  0  0
    2.4190    0.4397    4.1546 H   0  0  0  0  0  0  0  0  0  0  0  0
    4.1452    1.1724    2.9886 H   0  0  0  0  0  0  0  0  0  0  0  0
    6.2280    2.0612    2.0015 H   0  0  0  0  0  0  0  0  0  0  0  0
    8.0794    2.7765    3.4726 H   0  0  0  0  0  0  0  0  0  0  0  0
    8.0065    2.5175    9.5850 H   0  0  0  0  0  0  0  0  0  0  0  0
   10.2597    3.4730    9.2430 H   0  0  0  0  0  0  0  0  0  0  0  0
   11.0522    3.9048    6.9110 H   0  0  0  0  0  0  0  0  0  0  0  0
    9.5362    3.3476    5.0304 H   0  0  0  0  0  0  0  0  0  0  0  0
  1  4  1  0  0  0  0
  2  1  1  0  0  0  0
  3  1  1  0  0  0  0
  4  5  1  0  0  0  0
  6  1  1  0  0  0  0
  6  7  1  0  0  0  0
  7 24  1  0  0  0  0
  8  7  1  0  0  0  0
  8 25  1  0  0  0  0
  9  8  2  0  0  0  0
 10 11  2  0  0  0  0
 10  9  1  0  0  0  0
 11  6  1  0  0  0  0
 12 13  1  1  0  0  0
 12 17  1  0  0  0  0
 12 11  1  0  0  0  0
 14 13  2  0  0  0  0
 14 15  1  0  0  0  0
 15 16  2  0  0  0  0
 16 17  1  0  0  0  0
 17  1  1  0  0  0  0
 18 16  1  1  0  0  0
 18 19  1  0  0  0  0
 19  1  1  0  0  0  0
 19 20  1  0  0  0  0
 20 31  1  0  0  0  0
 21 20  2  0  0  0  0
 21 32  1  0  0  0  0
 22 21  1  0  0  0  0
 23 18  1  0  0  0  0
 23 22  2  0  0  0  0
 26  9  1  0  0  0  0
 27 10  1  0  0  0  0
 28 13  1  0  0  0  0
 29 14  1  0  0  0  0
 30 15  1  0  0  0  0
 33 22  1  0  0  0  0
 34 23  1  0  0  0  0
M  END
$$$$
