CSD_code = SACHUC | q = 0 | S = 0 | Stoichiometry = C29H35Cl2N2NiP | MND = 4
 OpenBabel04212202093D

 70 73  0  0  0  0  0  0  0  0999 V2000
    0.8986    6.6835    9.1812 Ni  0  0  0  0  0  0  0  0  0  0  0  0
    0.3401    8.3194   10.4356 Cl  0  0  0  0  0  0  0  0  0  0  0  0
    1.2791    5.0880    7.8118 Cl  0  0  0  0  0  0  0  0  0  0  0  0
   -0.9832    5.7864    9.7556 P   0  0  0  0  0  4  0  0  0  0  0  0
    3.7134    7.4220    9.2345 N   0  0  0  0  0  0  0  0  0  0  0  0
    2.6748    8.4389    7.6316 N   0  0  0  0  0  0  0  0  0  0  0  0
   -2.1819    6.5770    8.6450 C   0  0  0  0  0  0  0  0  0  0  0  0
   -2.2910    6.1164    7.3339 C   0  0  0  0  0  0  0  0  0  0  0  0
   -1.7193    5.2517    7.0228 H   0  0  0  0  0  0  0  0  0  0  0  0
   -3.1130    6.7723    6.4368 C   0  0  0  0  0  0  0  0  0  0  0  0
   -3.2009    6.4082    5.4233 H   0  0  0  0  0  0  0  0  0  0  0  0
   -3.8159    7.8986    6.8350 C   0  0  0  0  0  0  0  0  0  0  0  0
   -4.4586    8.4098    6.1328 H   0  0  0  0  0  0  0  0  0  0  0  0
   -3.6840    8.3775    8.1283 C   0  0  0  0  0  0  0  0  0  0  0  0
   -4.2176    9.2660    8.4331 H   0  0  0  0  0  0  0  0  0  0  0  0
   -2.8646    7.7259    9.0323 C   0  0  0  0  0  0  0  0  0  0  0  0
   -2.7400    8.1101   10.0348 H   0  0  0  0  0  0  0  0  0  0  0  0
   -1.7314    5.9545   11.4114 C   0  0  0  0  0  0  0  0  0  0  0  0
   -3.1048    5.8249   11.5861 C   0  0  0  0  0  0  0  0  0  0  0  0
   -3.7492    5.6887   10.7289 H   0  0  0  0  0  0  0  0  0  0  0  0
   -3.6483    5.8800   12.8555 C   0  0  0  0  0  0  0  0  0  0  0  0
   -4.7171    5.7880   12.9858 H   0  0  0  0  0  0  0  0  0  0  0  0
   -2.8271    6.0522   13.9585 C   0  0  0  0  0  0  0  0  0  0  0  0
   -3.2567    6.0977   14.9487 H   0  0  0  0  0  0  0  0  0  0  0  0
   -1.4580    6.1652   13.7895 C   0  0  0  0  0  0  0  0  0  0  0  0
   -0.8153    6.2975   14.6475 H   0  0  0  0  0  0  0  0  0  0  0  0
   -0.9109    6.1123   12.5200 C   0  0  0  0  0  0  0  0  0  0  0  0
    0.1560    6.2158   12.3828 H   0  0  0  0  0  0  0  0  0  0  0  0
   -1.3065    3.9983    9.5571 C   0  0  0  0  0  0  0  0  0  0  0  0
   -2.5149    3.4828    9.1058 C   0  0  0  0  0  0  0  0  0  0  0  0
   -3.3045    4.1461    8.7815 H   0  0  0  0  0  0  0  0  0  0  0  0
   -2.7061    2.1137    9.0576 C   0  0  0  0  0  0  0  0  0  0  0  0
   -3.6459    1.7176    8.7000 H   0  0  0  0  0  0  0  0  0  0  0  0
   -1.7005    1.2522    9.4629 C   0  0  0  0  0  0  0  0  0  0  0  0
   -1.8546    0.1839    9.4184 H   0  0  0  0  0  0  0  0  0  0  0  0
   -0.4975    1.7617    9.9219 C   0  0  0  0  0  0  0  0  0  0  0  0
    0.2901    1.0928   10.2370 H   0  0  0  0  0  0  0  0  0  0  0  0
   -0.3039    3.1290    9.9712 C   0  0  0  0  0  0  0  0  0  0  0  0
    0.6389    3.5334   10.3170 H   0  0  0  0  0  0  0  0  0  0  0  0
    2.5050    7.5617    8.6438 C   0  0  0  0  0  0  0  0  0  0  0  0
    4.6331    8.1975    8.5814 C   0  0  0  0  0  0  0  0  0  0  0  0
    5.6632    8.2520    8.8592 H   0  0  0  0  0  0  0  0  0  0  0  0
    3.9855    8.8312    7.5827 C   0  0  0  0  0  0  0  0  0  0  0  0
    4.3677    9.5194    6.8605 H   0  0  0  0  0  0  0  0  0  0  0  0
    4.0959    6.4621   10.2782 C   0  0  0  0  0  0  0  0  0  0  0  0
    2.9229    6.1831   11.2152 C   0  0  0  0  0  0  0  0  0  0  0  0
    2.5972    7.1026   11.6995 H   0  0  0  0  0  0  0  0  0  0  0  0
    3.2231    5.4667   11.9763 H   0  0  0  0  0  0  0  0  0  0  0  0
    2.0773    5.7432   10.6552 H   0  0  0  0  0  0  0  0  0  0  0  0
    4.5252    5.1716    9.5716 C   0  0  0  0  0  0  0  0  0  0  0  0
    3.6989    4.7827    8.9794 H   0  0  0  0  0  0  0  0  0  0  0  0
    4.8203    4.4230   10.3017 H   0  0  0  0  0  0  0  0  0  0  0  0
    5.3650    5.3602    8.9060 H   0  0  0  0  0  0  0  0  0  0  0  0
    5.2495    7.0347   11.1091 C   0  0  0  0  0  0  0  0  0  0  0  0
    6.1861    7.0370   10.5579 H   0  0  0  0  0  0  0  0  0  0  0  0
    5.3915    6.4193   11.9934 H   0  0  0  0  0  0  0  0  0  0  0  0
    5.0205    8.0482   11.4309 H   0  0  0  0  0  0  0  0  0  0  0  0
    1.7154    8.8128    6.5836 C   0  0  0  0  0  0  0  0  0  0  0  0
    0.2805    8.7118    7.0907 C   0  0  0  0  0  0  0  0  0  0  0  0
    0.0601    7.6877    7.4221 H   0  0  0  0  0  0  0  0  0  0  0  0
   -0.4132    8.9486    6.2878 H   0  0  0  0  0  0  0  0  0  0  0  0
    0.1115    9.4015    7.9152 H   0  0  0  0  0  0  0  0  0  0  0  0
    1.9256    7.8424    5.4162 C   0  0  0  0  0  0  0  0  0  0  0  0
    2.9462    7.9023    5.0433 H   0  0  0  0  0  0  0  0  0  0  0  0
    1.2427    8.0794    4.6051 H   0  0  0  0  0  0  0  0  0  0  0  0
    1.7381    6.8231    5.7478 H   0  0  0  0  0  0  0  0  0  0  0  0
    1.9735   10.2585    6.1449 C   0  0  0  0  0  0  0  0  0  0  0  0
    2.0490   10.9103    7.0124 H   0  0  0  0  0  0  0  0  0  0  0  0
    1.1411   10.5981    5.5345 H   0  0  0  0  0  0  0  0  0  0  0  0
    2.8775   10.3505    5.5485 H   0  0  0  0  0  0  0  0  0  0  0  0
  1  4  1  0  0  0  0
  1  2  1  0  0  0  0
  3  1  1  0  0  0  0
  4 18  1  0  0  0  0
  5 45  1  0  0  0  0
  6 40  1  0  0  0  0
  7 16  1  0  0  0  0
  7  4  1  0  0  0  0
  8  7  2  0  0  0  0
  9  8  1  0  0  0  0
 10 12  2  0  0  0  0
 10  8  1  0  0  0  0
 11 10  1  0  0  0  0
 12 14  1  0  0  0  0
 13 12  1  0  0  0  0
 14 15  1  0  0  0  0
 14 16  2  0  0  0  0
 16 17  1  0  0  0  0
 18 19  2  0  0  0  0
 18 27  1  0  0  0  0
 19 21  1  0  0  0  0
 20 19  1  0  0  0  0
 21 22  1  0  0  0  0
 21 23  2  0  0  0  0
 23 24  1  0  0  0  0
 25 23  1  0  0  0  0
 25 26  1  0  0  0  0
 27 25  2  0  0  0  0
 28 27  1  0  0  0  0
 29  4  1  0  0  0  0
 29 38  1  0  0  0  0
 30 29  2  0  0  0  0
 31 30  1  0  0  0  0
 32 30  1  0  0  0  0
 32 34  2  0  0  0  0
 33 32  1  0  0  0  0
 34 36  1  0  0  0  0
 35 34  1  0  0  0  0
 36 38  2  0  0  0  0
 36 37  1  0  0  0  0
 38 39  1  0  0  0  0
 40  1  2  0  0  0  0
 40  5  1  0  0  0  0
 41 42  1  0  0  0  0
 41  5  1  0  0  0  0
 43  6  1  0  0  0  0
 43 41  2  0  0  0  0
 44 43  1  0  0  0  0
 45 54  1  0  0  0  0
 45 46  1  0  0  0  0
 46 47  1  0  0  0  0
 46 48  1  0  0  0  0
 49 46  1  0  0  0  0
 50 45  1  0  0  0  0
 50 52  1  0  0  0  0
 51 50  1  0  0  0  0
 53 50  1  0  0  0  0
 54 57  1  0  0  0  0
 54 56  1  0  0  0  0
 55 54  1  0  0  0  0
 58 59  1  0  0  0  0
 58  6  1  0  0  0  0
 59 60  1  0  0  0  0
 59 62  1  0  0  0  0
 61 59  1  0  0  0  0
 63 66  1  0  0  0  0
 63 58  1  0  0  0  0
 64 63  1  0  0  0  0
 65 63  1  0  0  0  0
 67 58  1  0  0  0  0
 67 68  1  0  0  0  0
 69 67  1  0  0  0  0
 70 67  1  0  0  0  0
M  END
$$$$
