CSD_code = SACLUG | q = 0 | S = 0 | Stoichiometry = C29H30ClN3O2RuS | MND = 9
 OpenBabel04212202093D

 67 71  0  0  1  0  0  0  0  0999 V2000
   -2.9354    4.2391   10.0726 Ru  0  0  1  0  0  0  0  0  0  0  0  0
   -3.0387    5.9656    8.5700 Cl  0  0  0  0  0  0  0  0  0  0  0  0
   -0.7051    6.0463   11.3346 S   0  0  0  0  0  0  0  0  0  0  0  0
   -1.9986    6.6296   11.5694 O   0  0  0  0  0  0  0  0  0  0  0  0
    0.0053    5.5749   12.4985 O   0  0  0  0  0  0  0  0  0  0  0  0
   -2.0697    3.0323    8.8212 N   0  0  0  0  0  0  0  0  0  0  0  0
   -2.6076    2.1012    8.1628 N   0  0  0  0  0  2  0  0  0  0  0  0
   -1.0150    4.7884   10.3260 N   0  0  0  0  0  0  0  0  0  0  0  0
   -0.6903    3.1286    8.7507 C   0  0  0  0  0  0  0  0  0  0  0  0
    0.1177    2.3385    7.9293 C   0  0  0  0  0  0  0  0  0  0  0  0
   -0.3505    1.5979    7.3000 H   0  0  0  0  0  0  0  0  0  0  0  0
    1.4804    2.5258    7.9440 C   0  0  0  0  0  0  0  0  0  0  0  0
    2.1149    1.9246    7.3118 H   0  0  0  0  0  0  0  0  0  0  0  0
    2.0501    3.4907    8.7785 C   0  0  0  0  0  0  0  0  0  0  0  0
    3.1227    3.6165    8.7855 H   0  0  0  0  0  0  0  0  0  0  0  0
    1.2763    4.2834    9.5942 C   0  0  0  0  0  0  0  0  0  0  0  0
    1.7191    5.0131   10.2526 H   0  0  0  0  0  0  0  0  0  0  0  0
   -0.1171    4.1201    9.5894 C   0  0  0  0  0  0  0  0  0  0  0  0
   -3.3088    3.2269   12.1617 C   0  0  1  0  0  3  0  0  0  0  0  0
   -4.0914    2.5944   11.1622 C   0  0  1  0  0  0  0  0  0  0  0  0
   -3.9903    1.5228   11.0093 H   0  0  0  0  0  0  0  0  0  0  0  0
   -5.1482    3.2708   10.5145 C   0  0  0  0  0  0  0  0  0  0  0  0
   -5.8234    2.7223    9.8685 H   0  0  0  0  0  0  0  0  0  0  0  0
   -5.3481    4.6388   10.7410 C   0  0  0  0  0  0  0  0  0  0  0  0
   -4.5847    5.2675   11.7572 C   0  0  0  0  0  0  0  0  0  0  0  0
   -4.7826    6.3017   12.0052 H   0  0  0  0  0  0  0  0  0  0  0  0
   -3.6237    4.5675   12.4763 C   0  0  0  0  0  0  0  0  0  0  0  0
   -3.1143    5.0702   13.2844 H   0  0  0  0  0  0  0  0  0  0  0  0
   -2.3312    2.3885   12.9630 C   0  0  0  0  0  0  0  0  0  0  0  0
   -2.8819    1.4981   13.3011 H   0  0  0  0  0  0  0  0  0  0  0  0
   -1.1686    1.9276   12.0762 C   0  0  0  0  0  0  0  0  0  0  0  0
   -1.5213    1.4571   11.1586 H   0  0  0  0  0  0  0  0  0  0  0  0
   -0.5509    1.2099   12.6116 H   0  0  0  0  0  0  0  0  0  0  0  0
   -0.5484    2.7848   11.8202 H   0  0  0  0  0  0  0  0  0  0  0  0
   -1.7703    3.1099   14.1865 C   0  0  0  0  0  0  0  0  0  0  0  0
   -1.1766    3.9703   13.8820 H   0  0  0  0  0  0  0  0  0  0  0  0
   -1.1226    2.4315   14.7373 H   0  0  0  0  0  0  0  0  0  0  0  0
   -2.5665    3.4337   14.8540 H   0  0  0  0  0  0  0  0  0  0  0  0
   -6.4022    5.4058   10.0037 C   0  0  0  0  0  0  0  0  0  0  0  0
   -7.0749    4.7341    9.4754 H   0  0  0  0  0  0  0  0  0  0  0  0
   -5.9228    6.0588    9.2717 H   0  0  0  0  0  0  0  0  0  0  0  0
   -6.9730    6.0312   10.6878 H   0  0  0  0  0  0  0  0  0  0  0  0
    0.3326    7.2019   10.4528 C   0  0  0  0  0  0  0  0  0  0  0  0
    1.4927    7.6492   11.0558 C   0  0  0  0  0  0  0  0  0  0  0  0
    1.7465    7.2749   12.0356 H   0  0  0  0  0  0  0  0  0  0  0  0
    2.2936    8.5592   10.3900 C   0  0  0  0  0  0  0  0  0  0  0  0
    3.2014    8.9157   10.8549 H   0  0  0  0  0  0  0  0  0  0  0  0
    1.9390    9.0226    9.1264 C   0  0  0  0  0  0  0  0  0  0  0  0
    0.7657    8.5564    8.5424 C   0  0  0  0  0  0  0  0  0  0  0  0
    0.4790    8.9098    7.5631 H   0  0  0  0  0  0  0  0  0  0  0  0
   -0.0433    7.6467    9.2011 C   0  0  0  0  0  0  0  0  0  0  0  0
   -0.9577    7.2887    8.7533 H   0  0  0  0  0  0  0  0  0  0  0  0
    2.8202    9.9917    8.4003 C   0  0  0  0  0  0  0  0  0  0  0  0
    3.3285   10.6525    9.0984 H   0  0  0  0  0  0  0  0  0  0  0  0
    2.2441   10.5901    7.6993 H   0  0  0  0  0  0  0  0  0  0  0  0
    3.5798    9.4494    7.8366 H   0  0  0  0  0  0  0  0  0  0  0  0
   -3.9530    2.0524    7.8950 C   0  0  0  0  0  0  0  0  0  0  0  0
   -4.6099    0.8197    7.9731 C   0  0  0  0  0  0  0  0  0  0  0  0
   -4.0640   -0.0421    8.3261 H   0  0  0  0  0  0  0  0  0  0  0  0
   -5.9411    0.7211    7.6228 C   0  0  0  0  0  0  0  0  0  0  0  0
   -6.4460   -0.2310    7.7013 H   0  0  0  0  0  0  0  0  0  0  0  0
   -6.6303    1.8348    7.1646 C   0  0  0  0  0  0  0  0  0  0  0  0
   -7.6699    1.7499    6.8846 H   0  0  0  0  0  0  0  0  0  0  0  0
   -5.9736    3.0503    7.0489 C   0  0  0  0  0  0  0  0  0  0  0  0
   -6.4982    3.9138    6.6670 H   0  0  0  0  0  0  0  0  0  0  0  0
   -4.6467    3.1719    7.4144 C   0  0  0  0  0  0  0  0  0  0  0  0
   -4.1236    4.1109    7.2875 H   0  0  0  0  0  0  0  0  0  0  0  0
  1  2  1  6  0  0  0
  1  8  1  0  0  0  0
  1 20  1  0  0  0  0
  3  4  2  0  0  0  0
  3  5  2  0  0  0  0
  6  1  1  0  0  0  0
  7  6  1  0  0  0  0
  8  3  1  0  0  0  0
  9  6  1  0  0  0  0
  9 18  1  0  0  0  0
 10 12  1  0  0  0  0
 10  9  2  0  0  0  0
 11 10  1  0  0  0  0
 12 14  2  0  0  0  0
 13 12  1  0  0  0  0
 14 15  1  0  0  0  0
 14 16  1  0  0  0  0
 16 17  1  0  0  0  0
 18 16  2  0  0  0  0
 18  8  1  0  0  0  0
 19 27  1  0  0  0  0
 19 29  1  1  0  0  0
 20 21  1  6  0  0  0
 20 19  1  0  0  0  0
 22 24  2  0  0  0  0
 22 20  1  0  0  0  0
 23 22  1  0  0  0  0
 24 25  1  0  0  0  0
 25 26  1  0  0  0  0
 25 27  2  0  0  0  0
 27 28  1  0  0  0  0
 29 30  1  0  0  0  0
 29 35  1  0  0  0  0
 31 33  1  0  0  0  0
 31 29  1  0  0  0  0
 32 31  1  0  0  0  0
 34 31  1  0  0  0  0
 35 37  1  0  0  0  0
 35 38  1  0  0  0  0
 36 35  1  0  0  0  0
 39 42  1  0  0  0  0
 39 24  1  0  0  0  0
 40 39  1  0  0  0  0
 41 39  1  0  0  0  0
 43 44  1  0  0  0  0
 43  3  1  0  0  0  0
 44 45  1  0  0  0  0
 46 47  1  0  0  0  0
 46 44  2  0  0  0  0
 48 46  1  0  0  0  0
 49 48  2  0  0  0  0
 49 51  1  0  0  0  0
 50 49  1  0  0  0  0
 51 43  2  0  0  0  0
 52 51  1  0  0  0  0
 53 54  1  0  0  0  0
 53 48  1  0  0  0  0
 55 53  1  0  0  0  0
 56 53  1  0  0  0  0
 57 58  1  0  0  0  0
 57  7  1  0  0  0  0
 58 59  1  0  0  0  0
 60 61  1  0  0  0  0
 60 58  2  0  0  0  0
 62 60  1  0  0  0  0
 63 62  1  0  0  0  0
 64 62  2  0  0  0  0
 64 66  1  0  0  0  0
 65 64  1  0  0  0  0
 66 57  2  0  0  0  0
 67 66  1  0  0  0  0
M  END
$$$$
