CSD_code = SACQIX | q = 0 | S = 0 | Stoichiometry = C23H27Cl2N3Pd | MND = 4
 OpenBabel04212202093D

 56 59  0  0  0  0  0  0  0  0999 V2000
    1.3079    2.2708    1.6790 Pd  0  0  0  0  0  0  0  0  0  0  0  0
    2.2153    2.8802    3.6334 Cl  0  0  0  0  0  0  0  0  0  0  0  0
    3.0892    1.0171    1.2897 Cl  0  0  0  0  0  0  0  0  0  0  0  0
   -0.4129    3.2647    1.8553 N   0  0  0  0  0  0  0  0  0  0  0  0
    0.4153    1.7699   -0.0691 N   0  0  0  0  0  0  0  0  0  0  0  0
   -1.2985    2.0642   -1.4268 N   0  0  0  0  0  0  0  0  0  0  0  0
   -1.3124    3.0513    0.9378 C   0  0  0  0  0  0  0  0  0  0  0  0
   -2.7305    3.4297    1.0728 C   0  0  0  0  0  0  0  0  0  0  0  0
   -3.7048    2.4445    0.9009 C   0  0  0  0  0  0  0  0  0  0  0  0
   -3.4042    1.4376    0.6464 H   0  0  0  0  0  0  0  0  0  0  0  0
   -5.0397    2.7400    1.0965 C   0  0  0  0  0  0  0  0  0  0  0  0
   -5.7836    1.9675    0.9718 H   0  0  0  0  0  0  0  0  0  0  0  0
   -5.4213    4.0210    1.4625 C   0  0  0  0  0  0  0  0  0  0  0  0
   -6.4646    4.2506    1.6160 H   0  0  0  0  0  0  0  0  0  0  0  0
   -4.4601    5.0016    1.6392 C   0  0  0  0  0  0  0  0  0  0  0  0
   -4.7519    5.9994    1.9297 H   0  0  0  0  0  0  0  0  0  0  0  0
   -3.1206    4.7106    1.4535 C   0  0  0  0  0  0  0  0  0  0  0  0
   -2.3800    5.4809    1.5943 H   0  0  0  0  0  0  0  0  0  0  0  0
   -0.6306    3.9767    3.0415 C   0  0  0  0  0  0  0  0  0  0  0  0
   -1.2012    3.3376    4.1505 C   0  0  0  0  0  0  0  0  0  0  0  0
   -1.2116    4.0241    5.3554 C   0  0  0  0  0  0  0  0  0  0  0  0
   -1.6152    3.5530    6.2366 H   0  0  0  0  0  0  0  0  0  0  0  0
   -0.6944    5.3013    5.4517 C   0  0  0  0  0  0  0  0  0  0  0  0
   -0.6938    5.8093    6.4042 H   0  0  0  0  0  0  0  0  0  0  0  0
   -0.1794    5.9345    4.3358 C   0  0  0  0  0  0  0  0  0  0  0  0
    0.2092    6.9353    4.4300 H   0  0  0  0  0  0  0  0  0  0  0  0
   -0.1414    5.2910    3.1100 C   0  0  0  0  0  0  0  0  0  0  0  0
   -0.8059    2.3010   -0.1798 C   0  0  0  0  0  0  0  0  0  0  0  0
    0.7059    1.1640   -1.2405 C   0  0  0  0  0  0  0  0  0  0  0  0
    1.6375    0.6533   -1.3874 H   0  0  0  0  0  0  0  0  0  0  0  0
   -0.3500    1.3408   -2.0911 C   0  0  0  0  0  0  0  0  0  0  0  0
   -0.4942    1.0200   -3.1022 H   0  0  0  0  0  0  0  0  0  0  0  0
   -2.5297    2.5268   -2.0056 C   0  0  0  0  0  0  0  0  0  0  0  0
   -2.8013    3.4940   -1.5850 H   0  0  0  0  0  0  0  0  0  0  0  0
   -3.3443    1.8238   -1.8169 H   0  0  0  0  0  0  0  0  0  0  0  0
   -2.3982    2.6283   -3.0822 H   0  0  0  0  0  0  0  0  0  0  0  0
   -1.7420    1.9271    4.0292 C   0  0  0  0  0  0  0  0  0  0  0  0
   -2.1650    1.8050    3.0253 H   0  0  0  0  0  0  0  0  0  0  0  0
   -0.6202    0.8941    4.2029 C   0  0  0  0  0  0  0  0  0  0  0  0
   -1.0400   -0.1098    4.2307 H   0  0  0  0  0  0  0  0  0  0  0  0
   -0.0808    1.0785    5.1289 H   0  0  0  0  0  0  0  0  0  0  0  0
    0.1060    0.9394    3.3691 H   0  0  0  0  0  0  0  0  0  0  0  0
   -2.8702    1.6458    5.0232 C   0  0  0  0  0  0  0  0  0  0  0  0
   -3.3601    0.7095    4.7636 H   0  0  0  0  0  0  0  0  0  0  0  0
   -3.6130    2.4406    4.9970 H   0  0  0  0  0  0  0  0  0  0  0  0
   -2.4872    1.5515    6.0354 H   0  0  0  0  0  0  0  0  0  0  0  0
    0.3965    5.9695    1.8634 C   0  0  0  0  0  0  0  0  0  0  0  0
   -0.1433    5.5691    0.9935 H   0  0  0  0  0  0  0  0  0  0  0  0
    1.8884    5.6716    1.6623 C   0  0  0  0  0  0  0  0  0  0  0  0
    2.2830    6.2858    0.8548 H   0  0  0  0  0  0  0  0  0  0  0  0
    2.0565    4.6106    1.4006 H   0  0  0  0  0  0  0  0  0  0  0  0
    2.4399    5.8862    2.5742 H   0  0  0  0  0  0  0  0  0  0  0  0
    0.1710    7.4835    1.8842 C   0  0  0  0  0  0  0  0  0  0  0  0
    0.3649    7.8964    0.8961 H   0  0  0  0  0  0  0  0  0  0  0  0
    0.8455    7.9675    2.5849 H   0  0  0  0  0  0  0  0  0  0  0  0
   -0.8536    7.7242    2.1625 H   0  0  0  0  0  0  0  0  0  0  0  0
  1  4  1  0  0  0  0
  1  2  1  0  0  0  0
  3  1  1  0  0  0  0
  4 19  1  0  0  0  0
  5  1  1  0  0  0  0
  6 28  1  0  0  0  0
  7  8  1  0  0  0  0
  7  4  1  0  0  0  0
  8 17  1  0  0  0  0
  9  8  2  0  0  0  0
  9 11  1  0  0  0  0
 10  9  1  0  0  0  0
 11 13  2  0  0  0  0
 12 11  1  0  0  0  0
 13 14  1  0  0  0  0
 13 15  1  0  0  0  0
 15 16  1  0  0  0  0
 17 18  1  0  0  0  0
 17 15  2  0  0  0  0
 19 27  2  0  0  0  0
 19 20  1  0  0  0  0
 20 21  2  0  0  0  0
 21 23  1  0  0  0  0
 21 22  1  0  0  0  0
 23 24  1  0  0  0  0
 25 26  1  0  0  0  0
 25 23  2  0  0  0  0
 27 25  1  0  0  0  0
 28  5  1  0  0  0  0
 28  7  2  0  0  0  0
 29  5  1  0  0  0  0
 30 29  1  0  0  0  0
 31  6  1  0  0  0  0
 31 29  2  0  0  0  0
 32 31  1  0  0  0  0
 33 35  1  0  0  0  0
 33 34  1  0  0  0  0
 33  6  1  0  0  0  0
 36 33  1  0  0  0  0
 37 20  1  0  0  0  0
 37 39  1  0  0  0  0
 37 43  1  0  0  0  0
 38 37  1  0  0  0  0
 39 40  1  0  0  0  0
 39 41  1  0  0  0  0
 42 39  1  0  0  0  0
 43 46  1  0  0  0  0
 44 43  1  0  0  0  0
 45 43  1  0  0  0  0
 47 53  1  0  0  0  0
 47 27  1  0  0  0  0
 48 47  1  0  0  0  0
 49 47  1  0  0  0  0
 49 52  1  0  0  0  0
 50 49  1  0  0  0  0
 51 49  1  0  0  0  0
 53 56  1  0  0  0  0
 53 55  1  0  0  0  0
 54 53  1  0  0  0  0
M  END
$$$$
