CSD_code = SACQOD | q = 0 | S = 0 | Stoichiometry = C27H29Cl2N3Pd | MND = 4
 OpenBabel04212202093D

 62 66  0  0  0  0  0  0  0  0999 V2000
    1.4639    9.9876    2.2747 Pd  0  0  0  0  0  0  0  0  0  0  0  0
    2.5313   10.9524    3.9967 Cl  0  0  0  0  0  0  0  0  0  0  0  0
    3.2535    8.7188    2.0032 Cl  0  0  0  0  0  0  0  0  0  0  0  0
   -0.2458   10.9697    2.4615 N   0  0  0  0  0  0  0  0  0  0  0  0
    0.4001    9.1942    0.7132 N   0  0  0  0  0  0  0  0  0  0  0  0
   -1.4908    9.2856   -0.4723 N   0  0  0  0  0  0  0  0  0  0  0  0
   -1.2344   10.6013    1.6953 C   0  0  0  0  0  0  0  0  0  0  0  0
   -2.6415   10.9613    1.9460 C   0  0  0  0  0  0  0  0  0  0  0  0
   -3.5869    9.9364    2.0271 C   0  0  0  0  0  0  0  0  0  0  0  0
   -3.2772    8.9131    1.8670 H   0  0  0  0  0  0  0  0  0  0  0  0
   -4.9002   10.2209    2.3454 C   0  0  0  0  0  0  0  0  0  0  0  0
   -5.6201    9.4194    2.4157 H   0  0  0  0  0  0  0  0  0  0  0  0
   -5.2897   11.5293    2.5841 C   0  0  0  0  0  0  0  0  0  0  0  0
   -6.3159   11.7503    2.8350 H   0  0  0  0  0  0  0  0  0  0  0  0
   -4.3577   12.5500    2.5064 C   0  0  0  0  0  0  0  0  0  0  0  0
   -4.6553   13.5704    2.6943 H   0  0  0  0  0  0  0  0  0  0  0  0
   -3.0387   12.2719    2.1960 C   0  0  0  0  0  0  0  0  0  0  0  0
   -2.3216   13.0744    2.1371 H   0  0  0  0  0  0  0  0  0  0  0  0
   -0.3671   11.8563    3.5398 C   0  0  0  0  0  0  0  0  0  0  0  0
   -0.8012   11.3922    4.7889 C   0  0  0  0  0  0  0  0  0  0  0  0
   -0.7186   12.2638    5.8646 C   0  0  0  0  0  0  0  0  0  0  0  0
   -1.0157   11.9326    6.8459 H   0  0  0  0  0  0  0  0  0  0  0  0
   -0.2428   13.5506    5.7036 C   0  0  0  0  0  0  0  0  0  0  0  0
   -0.1676   14.2055    6.5585 H   0  0  0  0  0  0  0  0  0  0  0  0
    0.1343   14.0069    4.4542 C   0  0  0  0  0  0  0  0  0  0  0  0
    0.4913   15.0182    4.3481 H   0  0  0  0  0  0  0  0  0  0  0  0
    0.0745   13.1755    3.3481 C   0  0  0  0  0  0  0  0  0  0  0  0
   -0.8320    9.6978    0.6529 C   0  0  0  0  0  0  0  0  0  0  0  0
    0.5638    8.4015   -0.3867 C   0  0  0  0  0  0  0  0  0  0  0  0
   -0.6288    8.4504   -1.1443 C   0  0  0  0  0  0  0  0  0  0  0  0
   -0.7622    7.7372   -2.3275 C   0  0  0  0  0  0  0  0  0  0  0  0
   -1.6723    7.7644   -2.9067 H   0  0  0  0  0  0  0  0  0  0  0  0
    0.3212    6.9826   -2.7288 C   0  0  0  0  0  0  0  0  0  0  0  0
    0.2543    6.4129   -3.6433 H   0  0  0  0  0  0  0  0  0  0  0  0
    1.5035    6.9340   -1.9830 C   0  0  0  0  0  0  0  0  0  0  0  0
    2.3208    6.3284   -2.3428 H   0  0  0  0  0  0  0  0  0  0  0  0
    1.6488    7.6355   -0.8068 C   0  0  0  0  0  0  0  0  0  0  0  0
    2.5506    7.6115   -0.2143 H   0  0  0  0  0  0  0  0  0  0  0  0
   -2.7673    9.7129   -0.9745 C   0  0  0  0  0  0  0  0  0  0  0  0
   -3.5531    8.9981   -0.7177 H   0  0  0  0  0  0  0  0  0  0  0  0
   -2.7083    9.7931   -2.0603 H   0  0  0  0  0  0  0  0  0  0  0  0
   -3.0273   10.6851   -0.5604 H   0  0  0  0  0  0  0  0  0  0  0  0
   -1.2982    9.9698    4.9505 C   0  0  0  0  0  0  0  0  0  0  0  0
   -1.8083    9.6745    4.0264 H   0  0  0  0  0  0  0  0  0  0  0  0
   -2.3178    9.8333    6.0827 C   0  0  0  0  0  0  0  0  0  0  0  0
   -3.0855   10.6004    6.0034 H   0  0  0  0  0  0  0  0  0  0  0  0
   -1.8383    9.9104    7.0545 H   0  0  0  0  0  0  0  0  0  0  0  0
   -2.7990    8.8592    6.0247 H   0  0  0  0  0  0  0  0  0  0  0  0
   -0.1277    9.0029    5.1776 C   0  0  0  0  0  0  0  0  0  0  0  0
   -0.5062    8.0122    5.4225 H   0  0  0  0  0  0  0  0  0  0  0  0
    0.4972    9.3553    5.9949 H   0  0  0  0  0  0  0  0  0  0  0  0
    0.5056    8.9140    4.2745 H   0  0  0  0  0  0  0  0  0  0  0  0
    0.4516   13.6573    1.9590 C   0  0  0  0  0  0  0  0  0  0  0  0
   -0.1710   13.1208    1.2289 H   0  0  0  0  0  0  0  0  0  0  0  0
    0.1872   15.1535    1.7729 C   0  0  0  0  0  0  0  0  0  0  0  0
    0.2558   15.4092    0.7173 H   0  0  0  0  0  0  0  0  0  0  0  0
    0.9231   15.7476    2.3075 H   0  0  0  0  0  0  0  0  0  0  0  0
   -0.8056   15.4240    2.1281 H   0  0  0  0  0  0  0  0  0  0  0  0
    1.9198   13.3490    1.6349 C   0  0  0  0  0  0  0  0  0  0  0  0
    2.2040   13.8392    0.7054 H   0  0  0  0  0  0  0  0  0  0  0  0
    2.0886   12.2630    1.5147 H   0  0  0  0  0  0  0  0  0  0  0  0
    2.5633   13.7049    2.4356 H   0  0  0  0  0  0  0  0  0  0  0  0
  1  4  1  0  0  0  0
  1  2  1  0  0  0  0
  3  1  1  0  0  0  0
  4 19  1  0  0  0  0
  5  1  1  0  0  0  0
  6 28  1  0  0  0  0
  7  8  1  0  0  0  0
  7  4  1  0  0  0  0
  8  9  2  0  0  0  0
  8 17  1  0  0  0  0
  9 11  1  0  0  0  0
 10  9  1  0  0  0  0
 11 12  1  0  0  0  0
 11 13  2  0  0  0  0
 13 14  1  0  0  0  0
 15 13  1  0  0  0  0
 15 16  1  0  0  0  0
 17 15  2  0  0  0  0
 18 17  1  0  0  0  0
 19 20  1  0  0  0  0
 20 43  1  0  0  0  0
 20 21  2  0  0  0  0
 21 22  1  0  0  0  0
 23 21  1  0  0  0  0
 23 24  1  0  0  0  0
 25 23  2  0  0  0  0
 26 25  1  0  0  0  0
 27 19  2  0  0  0  0
 27 25  1  0  0  0  0
 28  5  1  0  0  0  0
 28  7  2  0  0  0  0
 29  5  1  0  0  0  0
 30  6  1  0  0  0  0
 30 29  2  0  0  0  0
 31 30  1  0  0  0  0
 32 31  1  0  0  0  0
 33 31  2  0  0  0  0
 33 35  1  0  0  0  0
 34 33  1  0  0  0  0
 35 37  2  0  0  0  0
 36 35  1  0  0  0  0
 37 29  1  0  0  0  0
 37 38  1  0  0  0  0
 39 40  1  0  0  0  0
 39 42  1  0  0  0  0
 39  6  1  0  0  0  0
 41 39  1  0  0  0  0
 43 49  1  0  0  0  0
 43 45  1  0  0  0  0
 44 43  1  0  0  0  0
 45 47  1  0  0  0  0
 46 45  1  0  0  0  0
 48 45  1  0  0  0  0
 49 50  1  0  0  0  0
 49 51  1  0  0  0  0
 52 49  1  0  0  0  0
 53 27  1  0  0  0  0
 54 53  1  0  0  0  0
 55 53  1  0  0  0  0
 55 58  1  0  0  0  0
 55 57  1  0  0  0  0
 56 55  1  0  0  0  0
 59 53  1  0  0  0  0
 59 62  1  0  0  0  0
 60 59  1  0  0  0  0
 61 59  1  0  0  0  0
M  END
$$$$
