CSD_code = SADGUZ | q = -1 | S = 0 | Stoichiometry = C13H8Cl3NO2STc(1-) | MND = 6
 OpenBabel04212202093D

 29 32  0  0  1  0  0  0  0  0999 V2000
    3.2921   -1.1014    7.5166 Tc  0  0  0  0  0  0  0  0  0  0  0  0
    5.5124   -1.1982    8.4404 Cl  0  0  0  0  0  0  0  0  0  0  0  0
    1.1190   -0.5885    6.7278 Cl  0  0  0  0  0  0  0  0  0  0  0  0
    4.0242   -1.5931    5.3904 Cl  0  0  0  0  0  0  0  0  0  0  0  0
    3.6843    0.6435    7.2577 O   0  0  0  0  0  0  0  0  0  0  0  0
    2.9561   -2.6418    7.9150 O   0  0  0  0  0  1  0  0  0  0  0  0
    2.7169   -0.2415    9.5358 N   0  0  0  0  0  0  0  0  0  0  0  0
    2.8383    1.1769   11.6868 S   0  0  0  0  0  0  0  0  0  0  0  0
    3.2123    0.8758    9.9864 C   0  0  2  0  0  3  0  0  0  0  0  0
    3.9365    1.8664    9.2462 C   0  0  0  0  0  0  0  0  0  0  0  0
    4.4378    3.0136    9.8673 C   0  0  0  0  0  0  0  0  0  0  0  0
    5.0875    3.9881    9.1462 C   0  0  0  0  0  0  0  0  0  0  0  0
    5.2469    3.8402    7.7703 C   0  0  0  0  0  0  0  0  0  0  0  0
    4.7672    2.7253    7.1263 C   0  0  0  0  0  0  0  0  0  0  0  0
    4.1145    1.7070    7.8424 C   0  0  0  0  0  0  0  0  0  0  0  0
    1.9366   -0.3049   11.7277 C   0  0  0  0  0  0  0  0  0  0  0  0
    1.2375   -0.8559   12.7875 C   0  0  0  0  0  0  0  0  0  0  0  0
    0.5630   -2.0417   12.5742 C   0  0  0  0  0  0  0  0  0  0  0  0
    0.5847   -2.6574   11.3246 C   0  0  0  0  0  0  0  0  0  0  0  0
    1.2822   -2.1133   10.2673 C   0  0  0  0  0  0  0  0  0  0  0  0
    1.9827   -0.9252   10.4641 C   0  0  0  0  0  0  0  0  0  0  0  0
    4.3081    3.1220   10.9358 H   0  0  0  0  0  0  0  0  0  0  0  0
    5.4725    4.8645    9.6460 H   0  0  0  0  0  0  0  0  0  0  0  0
    5.7558    4.6074    7.2040 H   0  0  0  0  0  0  0  0  0  0  0  0
    4.8936    2.5872    6.0629 H   0  0  0  0  0  0  0  0  0  0  0  0
    1.2230   -0.3609   13.7464 H   0  0  0  0  0  0  0  0  0  0  0  0
    0.0076   -2.4906   13.3847 H   0  0  0  0  0  0  0  0  0  0  0  0
    0.0400   -3.5781   11.1794 H   0  0  0  0  0  0  0  0  0  0  0  0
    1.3033   -2.5829    9.2964 H   0  0  0  0  0  0  0  0  0  0  0  0
  1  6  1  0  0  0  0
  1  2  1  0  0  0  0
  1  7  1  0  0  0  0
  3  1  1  0  0  0  0
  4  1  1  0  0  0  0
  5  1  1  0  0  0  0
  5 15  1  0  0  0  0
  7  9  1  0  0  0  0
  7 21  1  0  0  0  0
  8 16  1  0  0  0  0
  9 10  1  6  0  0  0
  9  8  1  0  0  0  0
 10 11  1  0  0  0  0
 11 22  1  0  0  0  0
 12 23  1  0  0  0  0
 12 11  2  0  0  0  0
 13 12  1  0  0  0  0
 14 13  2  0  0  0  0
 14 15  1  0  0  0  0
 15 10  2  0  0  0  0
 16 17  1  0  0  0  0
 17 26  1  0  0  0  0
 18 17  2  0  0  0  0
 18 27  1  0  0  0  0
 19 18  1  0  0  0  0
 20 21  1  0  0  0  0
 20 19  2  0  0  0  0
 21 16  2  0  0  0  0
 24 13  1  0  0  0  0
 25 14  1  0  0  0  0
 28 19  1  0  0  0  0
 29 20  1  0  0  0  0
M  END
$$$$
