CSD_code = SADKAM | q = 0 | S = 0 | Stoichiometry = C9H16ClCuN2 | MND = 2
 OpenBabel04212202093D

 29 29  0  0  1  0  0  0  0  0999 V2000
    1.7512    0.0302    1.5791 Cu  0  0  0  0  0  0  0  0  0  0  0  0
    1.3765   -1.3860    0.1104 Cl  0  0  0  0  0  0  0  0  0  0  0  0
    3.2838    1.5931    3.5325 N   0  0  0  0  0  0  0  0  0  0  0  0
    1.2188    2.1877    3.4982 N   0  0  0  0  0  0  0  0  0  0  0  0
    2.1009    1.3345    2.9352 C   0  0  2  0  0  3  0  0  0  0  0  0
    3.1423    2.5926    4.4533 C   0  0  0  0  0  0  0  0  0  0  0  0
    3.9534    2.9586    5.0469 H   0  0  0  0  0  0  0  0  0  0  0  0
   -0.1864    2.2703    3.1515 C   0  0  0  0  0  0  0  0  0  0  0  0
   -0.3491    1.5003    2.3869 H   0  0  0  0  0  0  0  0  0  0  0  0
    1.8418    2.9668    4.4321 C   0  0  0  0  0  0  0  0  0  0  0  0
    1.3324    3.7149    5.0021 H   0  0  0  0  0  0  0  0  0  0  0  0
    4.5291    0.9173    3.2251 C   0  0  0  0  0  0  0  0  0  0  0  0
    4.2782    0.1620    2.4696 H   0  0  0  0  0  0  0  0  0  0  0  0
   -0.5023    3.6421    2.5598 C   0  0  0  0  0  0  0  0  0  0  0  0
    0.1436    3.8410    1.7080 H   0  0  0  0  0  0  0  0  0  0  0  0
   -0.3610    4.4279    3.2983 H   0  0  0  0  0  0  0  0  0  0  0  0
   -1.5345    3.6673    2.2233 H   0  0  0  0  0  0  0  0  0  0  0  0
   -1.0527    1.9615    4.3701 C   0  0  0  0  0  0  0  0  0  0  0  0
   -0.7891    0.9907    4.7827 H   0  0  0  0  0  0  0  0  0  0  0  0
   -2.0987    1.9400    4.0785 H   0  0  0  0  0  0  0  0  0  0  0  0
   -0.9261    2.7170    5.1421 H   0  0  0  0  0  0  0  0  0  0  0  0
    5.5305    1.9068    2.6336 C   0  0  0  0  0  0  0  0  0  0  0  0
    5.1039    2.3955    1.7610 H   0  0  0  0  0  0  0  0  0  0  0  0
    6.4300    1.3802    2.3288 H   0  0  0  0  0  0  0  0  0  0  0  0
    5.8049    2.6666    3.3620 H   0  0  0  0  0  0  0  0  0  0  0  0
    5.0792    0.2233    4.4685 C   0  0  0  0  0  0  0  0  0  0  0  0
    4.3339   -0.4503    4.8845 H   0  0  0  0  0  0  0  0  0  0  0  0
    5.3612    0.9476    5.2292 H   0  0  0  0  0  0  0  0  0  0  0  0
    5.9585   -0.3566    4.2036 H   0  0  0  0  0  0  0  0  0  0  0  0
  2  1  1  0  0  0  0
  3  6  1  0  0  0  0
  4 10  1  0  0  0  0
  5  1  1  1  0  0  0
  5  4  1  0  0  0  0
  5  3  1  0  0  0  0
  6  7  1  0  0  0  0
  8  4  1  0  0  0  0
  8 18  1  0  0  0  0
  9  8  1  0  0  0  0
 10  6  2  0  0  0  0
 10 11  1  0  0  0  0
 12  3  1  0  0  0  0
 12 26  1  0  0  0  0
 13 12  1  0  0  0  0
 14  8  1  0  0  0  0
 14 16  1  0  0  0  0
 15 14  1  0  0  0  0
 17 14  1  0  0  0  0
 18 19  1  0  0  0  0
 18 21  1  0  0  0  0
 20 18  1  0  0  0  0
 22 12  1  0  0  0  0
 22 25  1  0  0  0  0
 23 22  1  0  0  0  0
 24 22  1  0  0  0  0
 26 27  1  0  0  0  0
 26 28  1  0  0  0  0
 29 26  1  0  0  0  0
M  END
$$$$
