CSD_code = SADMIW | q = 0 | S = 0 | Stoichiometry = C25H32Cl2N2Ti | MND = 9
 OpenBabel04212202093D

 62 65  0  0  1  0  0  0  0  0999 V2000
    2.8286   -0.1727    6.1144 C   0  0  0  0  0  0  0  0  0  0  0  0
    2.1042    0.2242    7.2841 C   0  0  1  0  0  0  0  0  0  0  0  0
    1.2248   -0.8286    7.6412 C   0  0  0  0  0  0  0  0  0  0  0  0
    1.3852   -1.8690    6.6941 C   0  0  0  0  0  0  0  0  0  0  0  0
    2.3557   -1.4563    5.7325 C   0  0  0  0  0  0  0  0  0  0  0  0
    4.0116    0.5705    5.5627 C   0  0  0  0  0  0  0  0  0  0  0  0
    4.5196   -0.0103    4.7952 H   0  0  0  0  0  0  0  0  0  0  0  0
    4.7233    0.7644    6.3671 H   0  0  0  0  0  0  0  0  0  0  0  0
    3.7154    1.5303    5.1352 H   0  0  0  0  0  0  0  0  0  0  0  0
    2.3511    1.4652    8.0899 C   0  0  0  0  0  0  0  0  0  0  0  0
    1.4094    1.8990    8.4309 H   0  0  0  0  0  0  0  0  0  0  0  0
    2.8731    2.2125    7.4956 H   0  0  0  0  0  0  0  0  0  0  0  0
    2.9575    1.2282    8.9679 H   0  0  0  0  0  0  0  0  0  0  0  0
    0.3989   -0.8971    8.8911 C   0  0  0  0  0  0  0  0  0  0  0  0
    0.9465   -1.4305    9.6722 H   0  0  0  0  0  0  0  0  0  0  0  0
   -0.5412   -1.4183    8.7134 H   0  0  0  0  0  0  0  0  0  0  0  0
    0.1669    0.1015    9.2564 H   0  0  0  0  0  0  0  0  0  0  0  0
    0.9006   -3.2784    6.8453 C   0  0  0  0  0  0  0  0  0  0  0  0
    0.6451   -3.7258    5.8857 H   0  0  0  0  0  0  0  0  0  0  0  0
    0.0378   -3.3311    7.5049 H   0  0  0  0  0  0  0  0  0  0  0  0
    1.6969   -3.8803    7.2925 H   0  0  0  0  0  0  0  0  0  0  0  0
    2.9279   -2.3874    4.7010 C   0  0  0  0  0  0  0  0  0  0  0  0
    3.7318   -1.9172    4.1396 H   0  0  0  0  0  0  0  0  0  0  0  0
    2.1628   -2.7198    3.9965 H   0  0  0  0  0  0  0  0  0  0  0  0
    3.3342   -3.2736    5.1942 H   0  0  0  0  0  0  0  0  0  0  0  0
   -1.6549   -2.4501    5.0730 C   0  0  0  0  0  3  0  0  0  0  0  0
   -1.7559   -2.8090    6.0887 H   0  0  0  0  0  0  0  0  0  0  0  0
   -2.4634   -2.9363    4.0665 C   0  0  0  0  0  0  0  0  0  0  0  0
   -3.2011   -3.6928    4.2769 H   0  0  0  0  0  0  0  0  0  0  0  0
   -2.3057   -2.4274    2.7740 C   0  0  0  0  0  0  0  0  0  0  0  0
   -2.9158   -2.8039    1.9659 H   0  0  0  0  0  0  0  0  0  0  0  0
   -1.3865   -1.4363    2.5420 C   0  0  0  0  0  0  0  0  0  0  0  0
   -1.2499   -0.9903    1.5687 H   0  0  0  0  0  0  0  0  0  0  0  0
   -0.6097   -0.9770    3.6307 C   0  0  0  0  0  0  0  0  0  0  0  0
    0.3256    0.9468    2.5834 C   0  0  0  0  0  0  0  0  0  0  0  0
    1.4805    1.0659    1.7998 C   0  0  0  0  0  0  0  0  0  0  0  0
    1.5158    1.9861    0.7649 C   0  0  0  0  0  0  0  0  0  0  0  0
    2.4104    2.0715    0.1648 H   0  0  0  0  0  0  0  0  0  0  0  0
    0.4199    2.7848    0.4958 C   0  0  0  0  0  0  0  0  0  0  0  0
    0.4496    3.4931   -0.3187 H   0  0  0  0  0  0  0  0  0  0  0  0
   -0.7114    2.6773    1.2814 C   0  0  0  0  0  0  0  0  0  0  0  0
   -1.5661    3.3063    1.0779 H   0  0  0  0  0  0  0  0  0  0  0  0
   -0.7799    1.7770    2.3371 C   0  0  0  0  0  0  0  0  0  0  0  0
   -2.0178    1.7754    3.1968 C   0  0  0  0  0  0  0  0  0  0  0  0
   -2.0170    0.9352    3.8976 H   0  0  0  0  0  0  0  0  0  0  0  0
   -2.8995    1.6771    2.5555 H   0  0  0  0  0  0  0  0  0  0  0  0
   -2.1199    3.0697    4.0078 C   0  0  0  0  0  0  0  0  0  0  0  0
   -1.2577    3.1639    4.6655 H   0  0  0  0  0  0  0  0  0  0  0  0
   -3.0192    3.0549    4.6196 H   0  0  0  0  0  0  0  0  0  0  0  0
   -2.1525    3.9385    3.3548 H   0  0  0  0  0  0  0  0  0  0  0  0
    2.6517    0.1629    2.0609 C   0  0  0  0  0  0  0  0  0  0  0  0
    2.7128   -0.0240    3.1372 H   0  0  0  0  0  0  0  0  0  0  0  0
    3.5712    0.6510    1.7318 H   0  0  0  0  0  0  0  0  0  0  0  0
    2.4843   -1.1621    1.3138 C   0  0  0  0  0  0  0  0  0  0  0  0
    1.5831   -1.6732    1.6488 H   0  0  0  0  0  0  0  0  0  0  0  0
    3.3385   -1.8141    1.4848 H   0  0  0  0  0  0  0  0  0  0  0  0
    2.3972   -0.9822    0.2441 H   0  0  0  0  0  0  0  0  0  0  0  0
    1.1712    2.2241    5.2005 Cl  0  0  0  0  0  0  0  0  0  0  0  0
   -1.2164    0.7492    6.6138 Cl  0  0  0  0  0  0  0  0  0  0  0  0
   -0.7239   -1.5244    4.8647 N   0  0  0  0  0  0  0  0  0  0  0  0
    0.3005    0.0050    3.6349 N   0  0  0  0  0  0  0  0  0  0  0  0
    0.6024    0.0958    5.5547 Ti  0  0  0  0  0  0  0  0  0  0  0  0
  1  2  1  0  0  0  0
  2  3  1  0  0  0  0
  2 10  1  1  0  0  0
  3 14  1  0  0  0  0
  4 18  1  0  0  0  0
  4  3  2  0  0  0  0
  5  1  2  0  0  0  0
  5  4  1  0  0  0  0
  6  1  1  0  0  0  0
  6  8  1  0  0  0  0
  7  6  1  0  0  0  0
  9  6  1  0  0  0  0
 10 11  1  0  0  0  0
 10 13  1  0  0  0  0
 12 10  1  0  0  0  0
 14 17  1  0  0  0  0
 14 15  1  0  0  0  0
 16 14  1  0  0  0  0
 18 21  1  0  0  0  0
 18 20  1  0  0  0  0
 19 18  1  0  0  0  0
 22 25  1  0  0  0  0
 22  5  1  0  0  0  0
 23 22  1  0  0  0  0
 24 22  1  0  0  0  0
 26 27  1  0  0  0  0
 28 29  1  0  0  0  0
 28 26  1  0  0  0  0
 30 28  2  0  0  0  0
 31 30  1  0  0  0  0
 32 30  1  0  0  0  0
 32 34  2  0  0  0  0
 33 32  1  0  0  0  0
 34 61  1  0  0  0  0
 34 60  1  0  0  0  0
 35 61  1  0  0  0  0
 36 51  1  0  0  0  0
 36 35  2  0  0  0  0
 37 36  1  0  0  0  0
 38 37  1  0  0  0  0
 39 37  2  0  0  0  0
 39 41  1  0  0  0  0
 40 39  1  0  0  0  0
 41 43  2  0  0  0  0
 42 41  1  0  0  0  0
 43 35  1  0  0  0  0
 43 44  1  0  0  0  0
 44 45  1  0  0  0  0
 44 47  1  0  0  0  0
 46 44  1  0  0  0  0
 47 49  1  0  0  0  0
 47 48  1  0  0  0  0
 50 47  1  0  0  0  0
 51 52  1  0  0  0  0
 53 51  1  0  0  0  0
 54 56  1  0  0  0  0
 54 55  1  0  0  0  0
 54 51  1  0  0  0  0
 57 54  1  0  0  0  0
 58 62  1  0  0  0  0
 60 26  1  0  0  0  0
 60 62  1  0  0  0  0
 61 62  1  0  0  0  0
 62 59  1  0  0  0  0
 62  2  1  0  0  0  0
M  END
$$$$
