CSD_code = SADTUN | q = 0 | S = 0 | Stoichiometry = C28H28Cl2N4OZr | MND = 7
 OpenBabel04212202093D

 64 69  0  0  0  0  0  0  0  0999 V2000
    6.9319    9.7340    2.8085 Zr  0  0  0  0  0  0  0  0  0  0  0  0
    7.7429    9.2347    5.0393 Cl  0  0  0  0  0 15  0  0  0  0  0  0
    6.9320    7.3953    2.8082 O   0  0  0  0  0  0  0  0  0  0  0  0
    8.8471    9.2562    1.9209 N   0  0  0  0  0  0  0  0  0  0  0  0
    8.2534   11.5111    3.2353 N   0  0  0  0  0  0  0  0  0  0  0  0
    9.4349    8.2679    1.2387 C   0  0  0  0  0  0  0  0  0  0  0  0
    8.8478    7.5318    0.7106 H   0  0  0  0  0  0  0  0  0  0  0  0
   11.1098    9.4918    2.0618 C   0  0  0  0  0  0  0  0  0  0  0  0
   12.0754    9.8848    2.3163 H   0  0  0  0  0  0  0  0  0  0  0  0
    9.8683   10.0322    2.4415 C   0  0  0  0  0  0  0  0  0  0  0  0
    9.5084   11.1752    3.1765 C   0  0  0  0  0  3  0  0  0  0  0  0
   10.2806   11.7772    3.6633 H   0  0  0  0  0  0  0  0  0  0  0  0
    7.8313   12.5476    4.0799 C   0  0  0  0  0  0  0  0  0  0  0  0
    8.1535   12.5420    5.4345 C   0  0  0  0  0  0  0  0  0  0  0  0
    8.7474   11.7330    5.8341 H   0  0  0  0  0  0  0  0  0  0  0  0
    7.6580   13.5376    6.2569 C   0  0  0  0  0  0  0  0  0  0  0  0
    7.8958   13.5293    7.3098 H   0  0  0  0  0  0  0  0  0  0  0  0
    6.8491   14.5303    5.7368 C   0  0  0  0  0  0  0  0  0  0  0  0
    6.4469   15.2931    6.3876 H   0  0  0  0  0  0  0  0  0  0  0  0
    7.0536   13.5847    3.5397 C   0  0  0  0  0  0  0  0  0  0  0  0
    6.0400    6.5559    2.0475 C   0  0  0  0  0  0  0  0  0  0  0  0
    6.3391    6.5915    0.9920 H   0  0  0  0  0  0  0  0  0  0  0  0
    5.0239    6.9544    2.1374 H   0  0  0  0  0  0  0  0  0  0  0  0
    6.1953    5.1485    2.6118 C   0  0  0  0  0  0  0  0  0  0  0  0
    5.9433    4.3839    1.8814 H   0  0  0  0  0  0  0  0  0  0  0  0
    5.5684    5.0176    3.4944 H   0  0  0  0  0  0  0  0  0  0  0  0
   10.8286    8.3731    1.2952 C   0  0  0  0  0  0  0  0  0  0  0  0
   11.5347    7.7132    0.8291 H   0  0  0  0  0  0  0  0  0  0  0  0
    5.6441   15.6575    3.8652 C   0  0  0  0  0  0  0  0  0  0  0  0
    6.1719   16.6110    3.8582 H   0  0  0  0  0  0  0  0  0  0  0  0
    4.7774   15.7642    4.5155 H   0  0  0  0  0  0  0  0  0  0  0  0
    5.3032   15.4431    2.8561 H   0  0  0  0  0  0  0  0  0  0  0  0
    6.5381   14.5689    4.3810 C   0  0  0  0  0  0  0  0  0  0  0  0
    6.1203    9.2396    0.5779 Cl  0  0  0  0  0  0  0  0  0  0  0  0
    7.6690    5.1486    3.0042 C   0  0  0  0  0  0  0  0  0  0  0  0
    7.8243    6.5560    3.5687 C   0  0  0  0  0  0  0  0  0  0  0  0
    7.5253    6.5915    4.6243 H   0  0  0  0  0  0  0  0  0  0  0  0
    8.8403    6.9546    3.4787 H   0  0  0  0  0  0  0  0  0  0  0  0
    7.9211    4.3839    3.7345 H   0  0  0  0  0  0  0  0  0  0  0  0
    8.2959    5.0179    2.1215 H   0  0  0  0  0  0  0  0  0  0  0  0
    5.0167    9.2557    3.6959 N   0  0  0  0  0  0  0  0  0  0  0  0
    4.4288    8.2672    4.3778 C   0  0  0  0  0  0  0  0  0  0  0  0
    5.0158    7.5309    4.9057 H   0  0  0  0  0  0  0  0  0  0  0  0
    3.0350    8.3725    4.3213 C   0  0  0  0  0  0  0  0  0  0  0  0
    2.7539    9.4915    3.5551 C   0  0  0  0  0  0  0  0  0  0  0  0
    1.7885    9.8847    3.3006 H   0  0  0  0  0  0  0  0  0  0  0  0
    3.9956   10.0319    3.1755 C   0  0  0  0  0  0  0  0  0  0  0  0
    4.3554   11.1750    2.4406 C   0  0  0  0  0  3  0  0  0  0  0  0
    5.6104   11.5110    2.3817 N   0  0  0  0  0  0  0  0  0  0  0  0
    6.0321   12.5477    1.5371 C   0  0  0  0  0  0  0  0  0  0  0  0
    5.7092   12.5422    0.1827 C   0  0  0  0  0  0  0  0  0  0  0  0
    5.1150   11.7334   -0.2167 H   0  0  0  0  0  0  0  0  0  0  0  0
    6.2046   13.5378   -0.6399 C   0  0  0  0  0  0  0  0  0  0  0  0
    5.9662   13.5297   -1.6926 H   0  0  0  0  0  0  0  0  0  0  0  0
    7.0140   14.5302   -0.1202 C   0  0  0  0  0  0  0  0  0  0  0  0
    7.4161   15.2930   -0.7710 H   0  0  0  0  0  0  0  0  0  0  0  0
    7.3257   14.5686    1.2355 C   0  0  0  0  0  0  0  0  0  0  0  0
    6.8103   13.5846    2.0771 C   0  0  0  0  0  0  0  0  0  0  0  0
    8.2208   15.6569    1.7502 C   0  0  0  0  0  0  0  0  0  0  0  0
    7.6963   16.6123    1.7491 H   0  0  0  0  0  0  0  0  0  0  0  0
    9.0913   15.7569    1.1037 H   0  0  0  0  0  0  0  0  0  0  0  0
    8.5559   15.4468    2.7622 H   0  0  0  0  0  0  0  0  0  0  0  0
    3.5830   11.7771    1.9543 H   0  0  0  0  0  0  0  0  0  0  0  0
    2.3289    7.7125    4.7872 H   0  0  0  0  0  0  0  0  0  0  0  0
  1  5  1  0  0  0  0
  1 41  1  0  0  0  0
  3 36  1  0  0  0  0
  4 10  1  0  0  0  0
  4  1  1  0  0  0  0
  5 13  1  0  0  0  0
  6 27  2  0  0  0  0
  6  4  1  0  0  0  0
  7  6  1  0  0  0  0
  8  9  1  0  0  0  0
  8 10  2  0  0  0  0
 10 11  1  0  0  0  0
 11  5  1  0  0  0  0
 11 12  1  0  0  0  0
 13 14  1  0  0  0  0
 14 15  1  0  0  0  0
 14 16  2  0  0  0  0
 16 17  1  0  0  0  0
 18 16  1  0  0  0  0
 18 19  1  0  0  0  0
 20 13  2  0  0  0  0
 20 33  1  0  0  0  0
 21 23  1  0  0  0  0
 21 24  1  0  0  0  0
 21  3  1  0  0  0  0
 22 21  1  0  0  0  0
 24 35  1  0  0  0  0
 24 26  1  0  0  0  0
 25 24  1  0  0  0  0
 27  8  1  0  0  0  0
 28 27  1  0  0  0  0
 29 33  1  0  0  0  0
 29 31  1  0  0  0  0
 30 29  1  0  0  0  0
 32 29  1  0  0  0  0
 33 18  2  0  0  0  0
 34  1  1  0  0  0  0
 35 36  1  0  0  0  0
 35 39  1  0  0  0  0
 36 37  1  0  0  0  0
 38 36  1  0  0  0  0
 40 35  1  0  0  0  0
 41 42  1  0  0  0  0
 42 43  1  0  0  0  0
 44 42  2  0  0  0  0
 44 64  1  0  0  0  0
 45 44  1  0  0  0  0
 46 45  1  0  0  0  0
 47 45  2  0  0  0  0
 47 41  1  0  0  0  0
 48 47  1  0  0  0  0
 49 48  1  0  0  0  0
 49  1  1  0  0  0  0
 50 58  1  0  0  0  0
 50 49  1  0  0  0  0
 51 50  2  0  0  0  0
 52 51  1  0  0  0  0
 53 55  2  0  0  0  0
 53 51  1  0  0  0  0
 54 53  1  0  0  0  0
 55 57  1  0  0  0  0
 56 55  1  0  0  0  0
 57 59  1  0  0  0  0
 57 58  2  0  0  0  0
 58 20  1  0  0  0  0
 59 62  1  0  0  0  0
 60 59  1  0  0  0  0
 61 59  1  0  0  0  0
 63 48  1  0  0  0  0
M  END
$$$$
