CSD_code = SADWOK | q = 0 | S = 0 | Stoichiometry = C18H22F2Zr | MND = 12
 OpenBabel04212202093D

 43 46  0  0  1  0  0  0  0  0999 V2000
   -0.7440   -0.3338    9.9802 C   0  0  0  0  0  0  0  0  0  0  0  0
   -1.5053   -0.1148   10.7186 H   0  0  0  0  0  0  0  0  0  0  0  0
   -0.9431   -0.3924    8.5792 C   0  0  0  0  0  0  0  0  0  0  0  0
   -1.8797   -0.2147    8.0621 H   0  0  0  0  0  0  0  0  0  0  0  0
    0.2293   -0.9375    7.9977 C   0  0  0  0  0  0  0  0  0  0  0  0
    0.4831   -1.2782    6.5507 C   0  0  0  0  0  0  0  0  0  0  0  0
    0.4940   -0.3654    5.9437 H   0  0  0  0  0  0  0  0  0  0  0  0
   -0.3254   -1.9111    6.1693 H   0  0  0  0  0  0  0  0  0  0  0  0
    1.8253   -2.0061    6.3999 C   0  0  0  0  0  0  0  0  0  0  0  0
    1.6970   -3.0620    6.6518 H   0  0  0  0  0  0  0  0  0  0  0  0
    2.1541   -1.9485    5.3609 H   0  0  0  0  0  0  0  0  0  0  0  0
    2.8897   -1.4123    7.3254 C   0  0  0  0  0  0  0  0  0  0  0  0
    3.8682   -1.8303    7.0794 H   0  0  0  0  0  0  0  0  0  0  0  0
    2.9345   -0.3216    7.1981 H   0  0  0  0  0  0  0  0  0  0  0  0
    2.5308   -1.7308    8.7794 C   0  0  0  0  0  0  0  0  0  0  0  0
    2.5419   -2.8173    8.9308 H   0  0  0  0  0  0  0  0  0  0  0  0
    3.2604   -1.2889    9.4648 H   0  0  0  0  0  0  0  0  0  0  0  0
    1.1573   -1.1797    9.0369 C   0  0  2  0  0  0  0  0  0  0  0  0
    0.5591   -0.7965   10.2642 C   0  0  0  0  0  0  0  0  0  0  0  0
    0.9832   -0.9545   11.2494 H   0  0  0  0  0  0  0  0  0  0  0  0
   -0.5884    3.1941    8.4734 C   0  0  0  0  0  0  0  0  0  0  0  0
   -1.1346    3.3434    7.5489 H   0  0  0  0  0  0  0  0  0  0  0  0
   -1.0938    2.6158    9.6579 C   0  0  0  0  0  0  0  0  0  0  0  0
   -2.1134    2.2821    9.8060 H   0  0  0  0  0  0  0  0  0  0  0  0
   -0.1050    2.7261   10.6658 C   0  0  0  0  0  0  0  0  0  0  0  0
   -0.2354    2.4807   11.7141 H   0  0  0  0  0  0  0  0  0  0  0  0
    1.0020    3.4178   10.1124 C   0  0  0  0  0  0  0  0  0  0  0  0
    2.2691    3.8567   10.8021 C   0  0  0  0  0  0  0  0  0  0  0  0
    2.8509    2.9822   11.1160 H   0  0  0  0  0  0  0  0  0  0  0  0
    2.0241    4.4241   11.7064 H   0  0  0  0  0  0  0  0  0  0  0  0
    3.1181    4.7226    9.8620 C   0  0  0  0  0  0  0  0  0  0  0  0
    4.1468    4.7505   10.2252 H   0  0  0  0  0  0  0  0  0  0  0  0
    2.7348    5.7463    9.8649 H   0  0  0  0  0  0  0  0  0  0  0  0
    3.0779    4.1936    8.4265 C   0  0  0  0  0  0  0  0  0  0  0  0
    3.3163    3.1208    8.4128 H   0  0  0  0  0  0  0  0  0  0  0  0
    3.8160    4.7203    7.8178 H   0  0  0  0  0  0  0  0  0  0  0  0
    1.6746    4.4005    7.8500 C   0  0  0  0  0  0  0  0  0  0  0  0
    1.4504    5.4735    7.8056 H   0  0  0  0  0  0  0  0  0  0  0  0
    1.6103    4.0016    6.8331 H   0  0  0  0  0  0  0  0  0  0  0  0
    0.7053    3.6996    8.7588 C   0  0  2  0  0  0  0  0  0  0  0  0
    1.3458    1.5191    7.0959 F   0  0  0  0  0  0  0  0  0  0  0  0
    2.6381    1.1358    9.6482 F   0  0  0  0  0  0  0  0  0  0  0  0
    0.8998    1.2580    8.9146 Zr  0  0  0  0  0  0  0  0  0  0  0  0
  1 19  2  0  0  0  0
  1  2  1  0  0  0  0
  3  1  1  0  0  0  0
  4  3  1  0  0  0  0
  5  3  2  0  0  0  0
  5 18  1  0  0  0  0
  6  5  1  0  0  0  0
  7  6  1  0  0  0  0
  8  6  1  0  0  0  0
  9  6  1  0  0  0  0
  9 10  1  0  0  0  0
  9 12  1  0  0  0  0
 11  9  1  0  0  0  0
 12 15  1  0  0  0  0
 13 12  1  0  0  0  0
 14 12  1  0  0  0  0
 15 16  1  0  0  0  0
 15 18  1  0  0  0  0
 15 17  1  0  0  0  0
 18 43  1  6  0  0  0
 18 19  1  0  0  0  0
 19 20  1  0  0  0  0
 21 40  1  0  0  0  0
 21 23  2  0  0  0  0
 22 21  1  0  0  0  0
 23 24  1  0  0  0  0
 23 25  1  0  0  0  0
 25 26  1  0  0  0  0
 27 25  2  0  0  0  0
 27 28  1  0  0  0  0
 28 29  1  0  0  0  0
 28 30  1  0  0  0  0
 31 33  1  0  0  0  0
 31 32  1  0  0  0  0
 31 28  1  0  0  0  0
 34 31  1  0  0  0  0
 35 34  1  0  0  0  0
 36 34  1  0  0  0  0
 37 34  1  0  0  0  0
 37 40  1  0  0  0  0
 38 37  1  0  0  0  0
 39 37  1  0  0  0  0
 40 43  1  6  0  0  0
 40 27  1  0  0  0  0
 41 43  1  0  0  0  0
 43 42  1  0  0  0  0
M  END
$$$$
