CSD_code = SAFBUY | q = 0 | S = 0 | Stoichiometry = C15H17Br2HgN5 | MND = 4
 OpenBabel04212202093D

 40 42  0  0  1  0  0  0  0  0999 V2000
   -0.7576   18.2657   17.5128 Hg  0  0  0  0  0  0  0  0  0  0  0  0
   -2.4328   19.9860   17.1235 Br  0  0  0  0  0  0  0  0  0  0  0  0
    0.0910   16.1525   18.3853 Br  0  0  0  0  0  0  0  0  0  0  0  0
   -0.5685   17.8462   14.9485 N   0  0  0  0  0  0  0  0  0  0  0  0
    1.2581   19.1426   16.6362 N   0  0  0  0  0  0  0  0  0  0  0  0
    1.4008   19.0184   15.3320 C   0  0  2  0  0  3  0  0  0  0  0  0
    2.4705   19.5519   17.1227 C   0  0  0  0  0  0  0  0  0  0  0  0
    3.3772   19.6669   16.0448 C   0  0  0  0  0  0  0  0  0  0  0  0
    0.3496   18.5613   14.4297 C   0  0  0  0  0  0  0  0  0  0  0  0
   -1.6027   17.2364   14.1570 C   0  0  0  0  0  0  0  0  0  0  0  0
   -1.3198   17.1559   13.1018 H   0  0  0  0  0  0  0  0  0  0  0  0
   -2.4973   17.8660   14.2294 H   0  0  0  0  0  0  0  0  0  0  0  0
    0.2545   15.1603   13.7839 N   0  0  0  0  0  0  0  0  0  0  0  0
    2.6566   19.3372   14.9273 N   0  0  0  0  0  0  0  0  0  0  0  0
    3.0181   19.2249   13.9936 H   0  0  0  0  0  0  0  0  0  0  0  0
    2.0575   16.0004   12.8265 N   0  0  0  0  0  0  0  0  0  0  0  0
    2.8745   19.8317   18.4251 C   0  0  0  0  0  0  0  0  0  0  0  0
    2.1822   19.7414   19.2485 H   0  0  0  0  0  0  0  0  0  0  0  0
    4.6949   20.0544   16.2405 C   0  0  0  0  0  0  0  0  0  0  0  0
    5.3850   20.1391   15.4157 H   0  0  0  0  0  0  0  0  0  0  0  0
    0.4926   18.9571   12.9907 C   0  0  0  0  0  0  0  0  0  0  0  0
   -0.4796   19.0615   12.5167 H   0  0  0  0  0  0  0  0  0  0  0  0
    1.0634   18.1930   12.4588 H   0  0  0  0  0  0  0  0  0  0  0  0
    1.0157   19.9068   12.9113 H   0  0  0  0  0  0  0  0  0  0  0  0
    5.0772   20.3245   17.5376 C   0  0  0  0  0  0  0  0  0  0  0  0
    6.0930   20.6306   17.7354 H   0  0  0  0  0  0  0  0  0  0  0  0
    1.4450   15.7727   13.9586 C   0  0  0  0  0  0  0  0  0  0  0  0
    1.8291   16.0248   14.9277 H   0  0  0  0  0  0  0  0  0  0  0  0
    1.2336   15.5029   11.8633 C   0  0  0  0  0  0  0  0  0  0  0  0
    1.5042   15.5523   10.8276 H   0  0  0  0  0  0  0  0  0  0  0  0
    4.1837   20.2155   18.6094 C   0  0  0  0  0  0  0  0  0  0  0  0
    4.5365   20.4367   19.6049 H   0  0  0  0  0  0  0  0  0  0  0  0
    0.1103   14.9819   12.4372 C   0  0  0  0  0  0  0  0  0  0  0  0
   -0.7500   14.5062   12.0133 H   0  0  0  0  0  0  0  0  0  0  0  0
   -1.9439   15.8445   14.7027 C   0  0  0  0  0  0  0  0  0  0  0  0
   -2.6982   15.4123   14.0431 H   0  0  0  0  0  0  0  0  0  0  0  0
   -2.3810   15.9395   15.6996 H   0  0  0  0  0  0  0  0  0  0  0  0
   -0.7232   14.9069   14.8055 C   0  0  0  0  0  0  0  0  0  0  0  0
   -0.2264   15.0476   15.7671 H   0  0  0  0  0  0  0  0  0  0  0  0
   -1.0592   13.8677   14.7433 H   0  0  0  0  0  0  0  0  0  0  0  0
  1  3  1  0  0  0  0
  2  1  1  0  0  0  0
  5  7  1  0  0  0  0
  5  1  1  0  0  0  0
  6  9  1  1  0  0  0
  6  5  1  0  0  0  0
  7 17  1  0  0  0  0
  8 19  1  0  0  0  0
  8  7  2  0  0  0  0
  9  4  2  0  0  0  0
 10 12  1  0  0  0  0
 10 35  1  0  0  0  0
 10  4  1  0  0  0  0
 11 10  1  0  0  0  0
 13 27  1  0  0  0  0
 13 38  1  0  0  0  0
 14  6  1  0  0  0  0
 14  8  1  0  0  0  0
 15 14  1  0  0  0  0
 16 27  2  0  0  0  0
 17 31  2  0  0  0  0
 17 18  1  0  0  0  0
 19 25  2  0  0  0  0
 20 19  1  0  0  0  0
 21  9  1  0  0  0  0
 22 21  1  0  0  0  0
 23 21  1  0  0  0  0
 24 21  1  0  0  0  0
 25 26  1  0  0  0  0
 25 31  1  0  0  0  0
 27 28  1  0  0  0  0
 29 33  2  0  0  0  0
 29 16  1  0  0  0  0
 30 29  1  0  0  0  0
 31 32  1  0  0  0  0
 33 13  1  0  0  0  0
 34 33  1  0  0  0  0
 35 38  1  0  0  0  0
 35 37  1  0  0  0  0
 36 35  1  0  0  0  0
 38 39  1  0  0  0  0
 40 38  1  0  0  0  0
M  END
$$$$
