CSD_code = SAFMUH | q = 0 | S = 0 | Stoichiometry = C10H20BrCuN2S3 | MND = 3
 OpenBabel04212202093D

 37 38  0  0  1  0  0  0  0  0999 V2000
    0.6731    9.4855    2.9716 Cu  0  0  1  0  0  0  0  0  0  0  0  0
    0.1295    7.7765    1.6319 Br  0  0  0  0  0  0  0  0  0  0  0  0
    0.3595    9.0934    5.2607 S   0  0  0  0  0  0  0  0  0  0  0  0
    2.2534   11.3857    5.0418 S   0  0  0  0  0  0  0  0  0  0  0  0
    1.9738   11.0209    2.1023 S   0  0  0  0  0  0  0  0  0  0  0  0
    2.4167    9.4825    6.8727 N   0  0  0  0  0  0  0  0  0  0  0  0
    0.1095   12.2139    3.6217 N   0  0  0  0  0  0  0  0  0  0  0  0
    1.7244    9.9007    5.8230 C   0  0  1  0  0  3  0  0  0  0  0  0
    1.1756   11.3871    3.5386 C   0  0  1  0  0  0  0  0  0  0  0  0
    3.5646   10.2086    7.3798 C   0  0  0  0  0  0  0  0  0  0  0  0
    4.8527    9.7871    6.6784 C   0  0  0  0  0  0  0  0  0  0  0  0
    2.0743    8.2362    7.5344 C   0  0  0  0  0  0  0  0  0  0  0  0
    1.0447    8.4536    8.6377 C   0  0  0  0  0  0  0  0  0  0  0  0
   -0.5032   12.5880    4.8814 C   0  0  0  0  0  0  0  0  0  0  0  0
   -0.0269   13.9597    5.3520 C   0  0  0  0  0  0  0  0  0  0  0  0
   -0.5959   12.5967    2.4127 C   0  0  0  0  0  0  0  0  0  0  0  0
   -1.6578   11.5796    2.0038 C   0  0  0  0  0  0  0  0  0  0  0  0
    5.6930   10.3335    7.0964 H   0  0  0  0  0  0  0  0  0  0  0  0
    5.0304    8.7221    6.8066 H   0  0  0  0  0  0  0  0  0  0  0  0
    4.7951   10.0030    5.6149 H   0  0  0  0  0  0  0  0  0  0  0  0
   -0.5185   14.2177    6.2858 H   0  0  0  0  0  0  0  0  0  0  0  0
    1.0489   13.9562    5.5115 H   0  0  0  0  0  0  0  0  0  0  0  0
   -0.2619   14.7217    4.6129 H   0  0  0  0  0  0  0  0  0  0  0  0
    3.6351   10.0098    8.4513 H   0  0  0  0  0  0  0  0  0  0  0  0
    3.3982   11.2805    7.2406 H   0  0  0  0  0  0  0  0  0  0  0  0
   -0.2793   11.8333    5.6389 H   0  0  0  0  0  0  0  0  0  0  0  0
   -1.5864   12.5985    4.7373 H   0  0  0  0  0  0  0  0  0  0  0  0
    0.1387   12.7087    1.6104 H   0  0  0  0  0  0  0  0  0  0  0  0
   -1.0580   13.5686    2.5999 H   0  0  0  0  0  0  0  0  0  0  0  0
   -2.1700   11.9224    1.1095 H   0  0  0  0  0  0  0  0  0  0  0  0
   -1.2008   10.6143    1.7826 H   0  0  0  0  0  0  0  0  0  0  0  0
   -2.3919   11.4387    2.7945 H   0  0  0  0  0  0  0  0  0  0  0  0
    2.9931    7.8145    7.9456 H   0  0  0  0  0  0  0  0  0  0  0  0
    1.6704    7.5460    6.7900 H   0  0  0  0  0  0  0  0  0  0  0  0
    0.8357    7.5091    9.1307 H   0  0  0  0  0  0  0  0  0  0  0  0
    1.4114    9.1613    9.3778 H   0  0  0  0  0  0  0  0  0  0  0  0
    0.1198    8.8343    8.2136 H   0  0  0  0  0  0  0  0  0  0  0  0
  1  2  1  6  0  0  0
  1  9  1  0  0  0  0
  1  3  1  0  0  0  0
  3  8  1  0  0  0  0
  4  8  1  0  0  0  0
  5  1  1  0  0  0  0
  5  9  1  0  0  0  0
  6 10  1  0  0  0  0
  6 12  1  0  0  0  0
  7 14  1  0  0  0  0
  8  6  1  1  0  0  0
  9  7  1  6  0  0  0
  9  4  1  0  0  0  0
 10 24  1  0  0  0  0
 11 19  1  0  0  0  0
 11 18  1  0  0  0  0
 11 10  1  0  0  0  0
 12 33  1  0  0  0  0
 12 13  1  0  0  0  0
 13 35  1  0  0  0  0
 13 36  1  0  0  0  0
 14 15  1  0  0  0  0
 14 26  1  0  0  0  0
 15 22  1  0  0  0  0
 15 21  1  0  0  0  0
 16 29  1  0  0  0  0
 16  7  1  0  0  0  0
 17 16  1  0  0  0  0
 17 32  1  0  0  0  0
 20 11  1  0  0  0  0
 23 15  1  0  0  0  0
 25 10  1  0  0  0  0
 27 14  1  0  0  0  0
 28 16  1  0  0  0  0
 30 17  1  0  0  0  0
 31 17  1  0  0  0  0
 34 12  1  0  0  0  0
 37 13  1  0  0  0  0
M  END
$$$$
