CSD_code = SAFMOE | q = 0 | S = 0 | Stoichiometry = C25H38BrNP2Pd | MND = 4
 OpenBabel04212202093D

 68 69  0  0  0  0  0  0  0  0999 V2000
    2.4074   -4.3547    5.4410 Pd  0  0  0  0  0  0  0  0  0  0  0  0
    2.2617   -6.7726    5.7361 Br  0  0  0  0  0  0  0  0  0  0  0  0
    1.9413   -3.9194    7.6138 P   0  0  0  0  0  4  0  0  0  0  0  0
    3.0052   -4.7746    3.3001 P   0  0  0  0  0  4  0  0  0  0  0  0
    2.4836    7.1433    4.1426 N   0  0  0  0  0  0  0  0  0  0  0  0
    2.4682   -2.4096    5.1529 C   0  0  0  0  0  0  0  0  0  0  0  0
    1.2853   -1.7206    4.9025 C   0  0  0  0  0  0  0  0  0  0  0  0
    0.3414   -2.2597    4.8330 H   0  0  0  0  0  0  0  0  0  0  0  0
    3.6588   -1.6954    5.2310 C   0  0  0  0  0  0  0  0  0  0  0  0
    4.5926   -2.2146    5.4357 H   0  0  0  0  0  0  0  0  0  0  0  0
    1.2855   -0.3482    4.7370 C   0  0  0  0  0  0  0  0  0  0  0  0
    0.3634    0.1839    4.5460 H   0  0  0  0  0  0  0  0  0  0  0  0
    3.6745   -0.3239    5.0634 C   0  0  0  0  0  0  0  0  0  0  0  0
    4.6023    0.2282    5.1257 H   0  0  0  0  0  0  0  0  0  0  0  0
    2.4841    0.3648    4.8177 C   0  0  0  0  0  0  0  0  0  0  0  0
    2.4895    1.7656    4.6644 C   0  0  0  0  0  0  0  0  0  0  0  0
    2.4902    2.9680    4.5440 C   0  0  0  0  0  0  0  0  0  0  0  0
    2.4890    4.3699    4.4068 C   0  0  0  0  0  0  0  0  0  0  0  0
    1.3022    5.0693    4.1662 C   0  0  0  0  0  0  0  0  0  0  0  0
    0.3650    4.5407    4.0792 H   0  0  0  0  0  0  0  0  0  0  0  0
    3.6731    5.1066    4.5101 C   0  0  0  0  0  0  0  0  0  0  0  0
    4.6124    4.6078    4.6955 H   0  0  0  0  0  0  0  0  0  0  0  0
    1.3632    6.4450    4.0445 C   0  0  0  0  0  0  0  0  0  0  0  0
    0.4684    7.0255    3.8583 H   0  0  0  0  0  0  0  0  0  0  0  0
    3.6067    6.4803    4.3700 C   0  0  0  0  0  0  0  0  0  0  0  0
    4.4991    7.0891    4.4431 H   0  0  0  0  0  0  0  0  0  0  0  0
    2.4674   -5.1955    8.8287 C   0  0  0  0  0  0  0  0  0  0  0  0
    2.1398   -4.9101    9.8316 H   0  0  0  0  0  0  0  0  0  0  0  0
    1.9695   -6.1297    8.5526 H   0  0  0  0  0  0  0  0  0  0  0  0
    3.9784   -5.3841    8.7594 C   0  0  0  0  0  0  0  0  0  0  0  0
    4.2729   -5.6119    7.7316 H   0  0  0  0  0  0  0  0  0  0  0  0
    4.2923   -6.2135    9.3890 H   0  0  0  0  0  0  0  0  0  0  0  0
    4.5049   -4.4859    9.0797 H   0  0  0  0  0  0  0  0  0  0  0  0
    0.1116   -3.8335    7.8386 C   0  0  0  0  0  0  0  0  0  0  0  0
   -0.1566   -4.1154    8.8607 H   0  0  0  0  0  0  0  0  0  0  0  0
   -0.1919   -2.7951    7.6676 H   0  0  0  0  0  0  0  0  0  0  0  0
   -0.5714   -4.7512    6.8273 C   0  0  0  0  0  0  0  0  0  0  0  0
   -0.2188   -4.5103    5.8116 H   0  0  0  0  0  0  0  0  0  0  0  0
   -1.6530   -4.6281    6.8538 H   0  0  0  0  0  0  0  0  0  0  0  0
   -0.3376   -5.7956    7.0334 H   0  0  0  0  0  0  0  0  0  0  0  0
    2.5204   -2.3302    8.3585 C   0  0  0  0  0  0  0  0  0  0  0  0
    3.6038   -2.2753    8.2095 H   0  0  0  0  0  0  0  0  0  0  0  0
    2.0766   -1.5338    7.7524 H   0  0  0  0  0  0  0  0  0  0  0  0
    2.1778   -2.1177    9.8269 C   0  0  0  0  0  0  0  0  0  0  0  0
    1.1106   -2.2358   10.0012 H   0  0  0  0  0  0  0  0  0  0  0  0
    2.4589   -1.1090   10.1248 H   0  0  0  0  0  0  0  0  0  0  0  0
    2.7147   -2.8152   10.4649 H   0  0  0  0  0  0  0  0  0  0  0  0
    3.4714   -3.4685    2.0769 C   0  0  0  0  0  0  0  0  0  0  0  0
    4.2107   -2.8249    2.5639 H   0  0  0  0  0  0  0  0  0  0  0  0
    3.9551   -3.9646    1.2287 H   0  0  0  0  0  0  0  0  0  0  0  0
    2.3002   -2.6236    1.5961 C   0  0  0  0  0  0  0  0  0  0  0  0
    1.6043   -3.2201    1.0097 H   0  0  0  0  0  0  0  0  0  0  0  0
    2.6573   -1.8078    0.9697 H   0  0  0  0  0  0  0  0  0  0  0  0
    1.7671   -2.1932    2.4423 H   0  0  0  0  0  0  0  0  0  0  0  0
    4.5816   -5.7279    3.3853 C   0  0  0  0  0  0  0  0  0  0  0  0
    4.3343   -6.7499    3.6878 H   0  0  0  0  0  0  0  0  0  0  0  0
    5.0652   -5.7594    2.4046 H   0  0  0  0  0  0  0  0  0  0  0  0
    5.4915   -5.0904    4.4341 C   0  0  0  0  0  0  0  0  0  0  0  0
    5.8451   -4.1142    4.1028 H   0  0  0  0  0  0  0  0  0  0  0  0
    6.3562   -5.7204    4.6342 H   0  0  0  0  0  0  0  0  0  0  0  0
    4.9342   -4.9601    5.3790 H   0  0  0  0  0  0  0  0  0  0  0  0
    1.8577   -5.8609    2.3533 C   0  0  0  0  0  0  0  0  0  0  0  0
    2.0451   -5.7513    1.2814 H   0  0  0  0  0  0  0  0  0  0  0  0
    2.0623   -6.8952    2.6438 H   0  0  0  0  0  0  0  0  0  0  0  0
    0.4151   -5.5106    2.7102 C   0  0  0  0  0  0  0  0  0  0  0  0
    0.2715   -5.6223    3.7897 H   0  0  0  0  0  0  0  0  0  0  0  0
   -0.2825   -6.1778    2.2080 H   0  0  0  0  0  0  0  0  0  0  0  0
    0.1764   -4.4841    2.4336 H   0  0  0  0  0  0  0  0  0  0  0  0
  1  2  1  0  0  0  0
  1  3  1  0  0  0  0
  3 34  1  0  0  0  0
  3 41  1  0  0  0  0
  3 27  1  0  0  0  0
  4 55  1  0  0  0  0
  4  1  1  0  0  0  0
  5 25  1  0  0  0  0
  6  9  1  0  0  0  0
  6  1  1  0  0  0  0
  7  6  2  0  0  0  0
  8  7  1  0  0  0  0
  9 10  1  0  0  0  0
 11 15  2  0  0  0  0
 11  7  1  0  0  0  0
 12 11  1  0  0  0  0
 13 14  1  0  0  0  0
 13  9  2  0  0  0  0
 15 13  1  0  0  0  0
 16 15  1  0  0  0  0
 17 16  3  0  0  0  0
 18 21  1  0  0  0  0
 18 17  1  0  0  0  0
 19 18  2  0  0  0  0
 20 19  1  0  0  0  0
 21 22  1  0  0  0  0
 23  5  2  0  0  0  0
 23 19  1  0  0  0  0
 24 23  1  0  0  0  0
 25 26  1  0  0  0  0
 25 21  2  0  0  0  0
 27 28  1  0  0  0  0
 29 27  1  0  0  0  0
 30 27  1  0  0  0  0
 30 33  1  0  0  0  0
 30 32  1  0  0  0  0
 31 30  1  0  0  0  0
 34 35  1  0  0  0  0
 36 34  1  0  0  0  0
 37 39  1  0  0  0  0
 37 40  1  0  0  0  0
 37 34  1  0  0  0  0
 38 37  1  0  0  0  0
 41 44  1  0  0  0  0
 42 41  1  0  0  0  0
 43 41  1  0  0  0  0
 44 45  1  0  0  0  0
 44 46  1  0  0  0  0
 44 47  1  0  0  0  0
 48 49  1  0  0  0  0
 48  4  1  0  0  0  0
 50 48  1  0  0  0  0
 51 48  1  0  0  0  0
 51 54  1  0  0  0  0
 52 51  1  0  0  0  0
 53 51  1  0  0  0  0
 55 56  1  0  0  0  0
 55 58  1  0  0  0  0
 57 55  1  0  0  0  0
 58 60  1  0  0  0  0
 58 61  1  0  0  0  0
 59 58  1  0  0  0  0
 62 64  1  0  0  0  0
 62 65  1  0  0  0  0
 62  4  1  0  0  0  0
 63 62  1  0  0  0  0
 65 66  1  0  0  0  0
 67 65  1  0  0  0  0
 68 65  1  0  0  0  0
M  END
$$$$
