CSD_code = SAGBOS | q = 0 | S = 0 | Stoichiometry = C21H17Cl2N5Ru | MND = 6
 OpenBabel04212202093D

 46 51  0  0  1  0  0  0  0  0999 V2000
    2.5776    6.0955    3.2958 Ru  0  0  0  0  0  0  0  0  0  0  0  0
    1.7064    7.1444    5.2058 Cl  0  0  0  0  0  0  0  0  0  0  0  0
    0.4326    5.2928    2.7116 Cl  0  0  0  0  0  0  0  0  0  0  0  0
    3.0253    4.6190    4.5691 N   0  0  0  0  0  0  0  0  0  0  0  0
    4.8177    6.0365    4.9070 N   0  0  0  0  0  2  0  0  0  0  0  0
    4.3024    6.6224    3.8793 N   0  0  0  0  0  0  0  0  0  0  0  0
    2.1439    7.5805    2.0755 N   0  0  0  0  0  0  0  0  0  0  0  0
    3.0843    5.2446    1.5682 N   0  0  0  0  0  0  0  0  0  0  0  0
    4.1104    4.9579    5.3136 C   0  0  2  0  0  3  0  0  0  0  0  0
    4.4997    4.2001    6.4265 C   0  0  0  0  0  0  0  0  0  0  0  0
    3.7492    3.1001    6.7718 C   0  0  0  0  0  0  0  0  0  0  0  0
    2.6340    2.7691    6.0028 C   0  0  0  0  0  0  0  0  0  0  0  0
    2.3090    3.5558    4.9153 C   0  0  0  0  0  0  0  0  0  0  0  0
    4.9495    7.7765    3.4491 C   0  0  0  0  0  0  0  0  0  0  0  0
    5.3875    8.7184    4.3815 C   0  0  0  0  0  0  0  0  0  0  0  0
    5.9398    9.9077    3.9486 C   0  0  0  0  0  0  0  0  0  0  0  0
    6.0814   10.1618    2.5936 C   0  0  0  0  0  0  0  0  0  0  0  0
    5.6760    9.2143    1.6661 C   0  0  0  0  0  0  0  0  0  0  0  0
    5.1118    8.0259    2.0854 C   0  0  0  0  0  0  0  0  0  0  0  0
    2.0500    7.2157    0.7751 C   0  0  0  0  0  0  0  0  0  0  0  0
    1.5442    8.0938   -0.1842 C   0  0  0  0  0  0  0  0  0  0  0  0
    1.1390    9.3565    0.1980 C   0  0  0  0  0  0  0  0  0  0  0  0
    1.2588    9.7208    1.5348 C   0  0  0  0  0  0  0  0  0  0  0  0
    1.7648    8.8046    2.4345 C   0  0  0  0  0  0  0  0  0  0  0  0
    2.5663    5.8847    0.4918 C   0  0  0  0  0  0  0  0  0  0  0  0
    2.5991    5.2960   -0.7740 C   0  0  0  0  0  0  0  0  0  0  0  0
    3.1714    4.0515   -0.9346 C   0  0  0  0  0  0  0  0  0  0  0  0
    3.7229    3.4202    0.1771 C   0  0  0  0  0  0  0  0  0  0  0  0
    3.6520    4.0511    1.4010 C   0  0  0  0  0  0  0  0  0  0  0  0
    5.3615    4.5166    6.9893 H   0  0  0  0  0  0  0  0  0  0  0  0
    4.0134    2.5047    7.6325 H   0  0  0  0  0  0  0  0  0  0  0  0
    2.0181    1.9213    6.2547 H   0  0  0  0  0  0  0  0  0  0  0  0
    1.4410    3.3510    4.3003 H   0  0  0  0  0  0  0  0  0  0  0  0
    5.2527    8.5052    5.4304 H   0  0  0  0  0  0  0  0  0  0  0  0
    6.2626   10.6411    4.6719 H   0  0  0  0  0  0  0  0  0  0  0  0
    6.5141   11.0925    2.2589 H   0  0  0  0  0  0  0  0  0  0  0  0
    5.8046    9.4015    0.6102 H   0  0  0  0  0  0  0  0  0  0  0  0
    4.8250    7.2709    1.3651 H   0  0  0  0  0  0  0  0  0  0  0  0
    1.4584    7.7829   -1.2126 H   0  0  0  0  0  0  0  0  0  0  0  0
    0.7343   10.0449   -0.5276 H   0  0  0  0  0  0  0  0  0  0  0  0
    0.9523   10.6960    1.8762 H   0  0  0  0  0  0  0  0  0  0  0  0
    1.8524    9.0364    3.4894 H   0  0  0  0  0  0  0  0  0  0  0  0
    2.1639    5.8072   -1.6167 H   0  0  0  0  0  0  0  0  0  0  0  0
    3.1915    3.5767   -1.9029 H   0  0  0  0  0  0  0  0  0  0  0  0
    4.1854    2.4502    0.0948 H   0  0  0  0  0  0  0  0  0  0  0  0
    4.0580    3.5857    2.2921 H   0  0  0  0  0  0  0  0  0  0  0  0
  1  6  1  0  0  0  0
  1  4  1  0  0  0  0
  1  2  1  0  0  0  0
  3  1  1  0  0  0  0
  4 13  1  0  0  0  0
  4  9  1  0  0  0  0
  6  5  1  0  0  0  0
  7 24  1  0  0  0  0
  7  1  1  0  0  0  0
  8  1  1  0  0  0  0
  9  5  1  6  0  0  0
  9 10  1  0  0  0  0
 10 11  2  0  0  0  0
 10 30  1  0  0  0  0
 11 31  1  0  0  0  0
 12 32  1  0  0  0  0
 12 11  1  0  0  0  0
 13 12  2  0  0  0  0
 14  6  1  0  0  0  0
 14 15  1  0  0  0  0
 15 34  1  0  0  0  0
 16 15  2  0  0  0  0
 16 35  1  0  0  0  0
 17 16  1  0  0  0  0
 18 19  1  0  0  0  0
 18 17  2  0  0  0  0
 19 14  2  0  0  0  0
 20  7  1  0  0  0  0
 21 22  2  0  0  0  0
 21 20  1  0  0  0  0
 22 23  1  0  0  0  0
 23 41  1  0  0  0  0
 23 24  2  0  0  0  0
 24 42  1  0  0  0  0
 25 20  2  0  0  0  0
 25  8  1  0  0  0  0
 26 25  1  0  0  0  0
 27 26  2  0  0  0  0
 27 28  1  0  0  0  0
 28 29  2  0  0  0  0
 29  8  1  0  0  0  0
 29 46  1  0  0  0  0
 33 13  1  0  0  0  0
 36 17  1  0  0  0  0
 37 18  1  0  0  0  0
 38 19  1  0  0  0  0
 39 21  1  0  0  0  0
 40 22  1  0  0  0  0
 43 26  1  0  0  0  0
 44 27  1  0  0  0  0
 45 28  1  0  0  0  0
M  END
$$$$
