CSD_code = SAHLIZ | q = 0 | S = 0 | Stoichiometry = C6H16Cl2N2Pt | MND = 4
 OpenBabel04212202093D

 27 27  0  0  0  0  0  0  0  0999 V2000
    1.9786   10.7877    3.7023 Pt  0  0  0  0  0  0  0  0  0  0  0  0
    3.7357   10.3981    5.0402 Cl  0  0  0  0  0  0  0  0  0  0  0  0
    3.2784   11.3407    1.9584 Cl  0  0  0  0  0  0  0  0  0  0  0  0
    0.5771   10.3509    5.2471 N   0  0  0  0  0  4  0  0  0  0  0  0
    0.2635   11.1828    2.5283 N   0  0  0  0  0  4  0  0  0  0  0  0
    0.4865   12.0528    2.0417 H   0  0  0  0  0  0  0  0  0  0  0  0
    0.6750   11.4140    6.2468 C   0  0  0  0  0  0  0  0  0  0  0  0
    1.6827   11.4121    6.6607 H   0  0  0  0  0  0  0  0  0  0  0  0
   -0.0496   11.2579    7.0557 H   0  0  0  0  0  0  0  0  0  0  0  0
    0.4933   12.3869    5.7918 H   0  0  0  0  0  0  0  0  0  0  0  0
   -0.9605   10.6384    0.4193 C   0  0  0  0  0  0  0  0  0  0  0  0
   -1.0632    9.8681   -0.3396 H   0  0  0  0  0  0  0  0  0  0  0  0
   -0.5868   11.5400   -0.0611 H   0  0  0  0  0  0  0  0  0  0  0  0
   -1.9489   10.8435    0.8259 H   0  0  0  0  0  0  0  0  0  0  0  0
    0.8323    9.0650    5.8945 C   0  0  0  0  0  0  0  0  0  0  0  0
    0.8092    8.2650    5.1551 H   0  0  0  0  0  0  0  0  0  0  0  0
    0.0879    8.8611    6.6732 H   0  0  0  0  0  0  0  0  0  0  0  0
    1.8269    9.0888    6.3376 H   0  0  0  0  0  0  0  0  0  0  0  0
    0.0149   10.1695    1.4951 C   0  0  0  0  0  0  0  0  0  0  0  0
   -0.3559    9.2595    1.9716 H   0  0  0  0  0  0  0  0  0  0  0  0
    0.9793    9.9470    1.0299 H   0  0  0  0  0  0  0  0  0  0  0  0
   -0.7457   10.3467    4.6022 C   0  0  0  0  0  0  0  0  0  0  0  0
   -0.9086    9.3563    4.1697 H   0  0  0  0  0  0  0  0  0  0  0  0
   -1.5376   10.5266    5.3426 H   0  0  0  0  0  0  0  0  0  0  0  0
   -0.8319   11.3901    3.4821 C   0  0  0  0  0  0  0  0  0  0  0  0
   -0.7398   12.3942    3.9036 H   0  0  0  0  0  0  0  0  0  0  0  0
   -1.8133   11.3172    2.9982 H   0  0  0  0  0  0  0  0  0  0  0  0
  1  2  1  0  0  0  0
  1  4  1  0  0  0  0
  3  1  1  0  0  0  0
  4 15  1  0  0  0  0
  4  7  1  0  0  0  0
  5 25  1  0  0  0  0
  5  1  1  0  0  0  0
  6  5  1  0  0  0  0
  7  8  1  0  0  0  0
  7  9  1  0  0  0  0
 10  7  1  0  0  0  0
 11 14  1  0  0  0  0
 11 19  1  0  0  0  0
 12 11  1  0  0  0  0
 13 11  1  0  0  0  0
 15 18  1  0  0  0  0
 15 17  1  0  0  0  0
 16 15  1  0  0  0  0
 19 20  1  0  0  0  0
 19  5  1  0  0  0  0
 21 19  1  0  0  0  0
 22  4  1  0  0  0  0
 22 24  1  0  0  0  0
 23 22  1  0  0  0  0
 25 26  1  0  0  0  0
 25 22  1  0  0  0  0
 27 25  1  0  0  0  0
M  END
$$$$
