CSD_code = SAHYUV | q = 0 | S = 0 | Stoichiometry = C26H24Br2NiP2 | MND = 4
 OpenBabel04212202093D

 55 59  0  0  0  0  0  0  0  0999 V2000
    1.1850    3.0596    5.6000 Ni  0  0  0  0  0  0  0  0  0  0  0  0
   -0.6168    2.6447    4.3207 Br  0  0  0  0  0  0  0  0  0  0  0  0
    2.7098    1.8029    4.5270 Br  0  0  0  0  0  0  0  0  0  0  0  0
    2.7623    3.6531    6.9136 P   0  0  0  0  0  4  0  0  0  0  0  0
   -0.0892    4.2685    6.8165 P   0  0  0  0  0  4  0  0  0  0  0  0
    0.9052    5.3361    7.9754 C   0  0  0  0  0  0  0  0  0  0  0  0
    2.0892    4.4985    8.4317 C   0  0  0  0  0  0  0  0  0  0  0  0
    4.1766    2.7000    7.5186 C   0  0  0  0  0  0  0  0  0  0  0  0
    4.0964    1.9957    8.7158 C   0  0  0  0  0  0  0  0  0  0  0  0
    5.1672    1.2291    9.1377 C   0  0  0  0  0  0  0  0  0  0  0  0
    6.3121    1.1479    8.3623 C   0  0  0  0  0  0  0  0  0  0  0  0
    6.3831    1.8259    7.1559 C   0  0  0  0  0  0  0  0  0  0  0  0
    5.3181    2.5949    6.7279 C   0  0  0  0  0  0  0  0  0  0  0  0
    3.4953    5.0699    6.0436 C   0  0  0  0  0  0  0  0  0  0  0  0
    4.5649    5.7814    6.5785 C   0  0  0  0  0  0  0  0  0  0  0  0
    5.0618    6.8799    5.9032 C   0  0  0  0  0  0  0  0  0  0  0  0
    4.4954    7.2752    4.7002 C   0  0  0  0  0  0  0  0  0  0  0  0
    3.4296    6.5710    4.1652 C   0  0  0  0  0  0  0  0  0  0  0  0
    2.9318    5.4692    4.8360 C   0  0  0  0  0  0  0  0  0  0  0  0
   -1.4894    5.3082    6.3341 C   0  0  0  0  0  0  0  0  0  0  0  0
   -1.3023    6.6539    6.0343 C   0  0  0  0  0  0  0  0  0  0  0  0
   -2.3715    7.4204    5.6085 C   0  0  0  0  0  0  0  0  0  0  0  0
   -3.6239    6.8469    5.4637 C   0  0  0  0  0  0  0  0  0  0  0  0
   -3.8067    5.5006    5.7362 C   0  0  0  0  0  0  0  0  0  0  0  0
   -2.7438    4.7281    6.1635 C   0  0  0  0  0  0  0  0  0  0  0  0
   -0.7811    3.0649    7.9887 C   0  0  0  0  0  0  0  0  0  0  0  0
   -1.6521    3.4509    9.0031 C   0  0  0  0  0  0  0  0  0  0  0  0
   -2.1098    2.5105    9.9064 C   0  0  0  0  0  0  0  0  0  0  0  0
   -1.7022    1.1885    9.8053 C   0  0  0  0  0  0  0  0  0  0  0  0
   -0.8368    0.7998    8.7963 C   0  0  0  0  0  0  0  0  0  0  0  0
   -0.3780    1.7371    7.8893 C   0  0  0  0  0  0  0  0  0  0  0  0
    2.8664    5.0984    8.9132 H   0  0  0  0  0  0  0  0  0  0  0  0
    1.7525    3.7320    9.1372 H   0  0  0  0  0  0  0  0  0  0  0  0
    0.2862    5.6770    8.8098 H   0  0  0  0  0  0  0  0  0  0  0  0
    1.2605    6.2123    7.4235 H   0  0  0  0  0  0  0  0  0  0  0  0
    3.1973    2.0366    9.3157 H   0  0  0  0  0  0  0  0  0  0  0  0
    5.1035    0.6871   10.0699 H   0  0  0  0  0  0  0  0  0  0  0  0
    7.1443    0.5447    8.6932 H   0  0  0  0  0  0  0  0  0  0  0  0
    7.2670    1.7479    6.5412 H   0  0  0  0  0  0  0  0  0  0  0  0
    5.3610    3.1042    5.7757 H   0  0  0  0  0  0  0  0  0  0  0  0
    5.0102    5.4637    7.5123 H   0  0  0  0  0  0  0  0  0  0  0  0
    5.8963    7.4293    6.3136 H   0  0  0  0  0  0  0  0  0  0  0  0
    4.8922    8.1315    4.1759 H   0  0  0  0  0  0  0  0  0  0  0  0
    2.9917    6.8734    3.2260 H   0  0  0  0  0  0  0  0  0  0  0  0
    2.1020    4.9013    4.4012 H   0  0  0  0  0  0  0  0  0  0  0  0
   -0.3225    7.1033    6.1229 H   0  0  0  0  0  0  0  0  0  0  0  0
   -2.2237    8.4658    5.3803 H   0  0  0  0  0  0  0  0  0  0  0  0
   -4.4548    7.4476    5.1254 H   0  0  0  0  0  0  0  0  0  0  0  0
   -4.7777    5.0480    5.6052 H   0  0  0  0  0  0  0  0  0  0  0  0
   -2.8779    3.6725    6.3522 H   0  0  0  0  0  0  0  0  0  0  0  0
   -1.9750    4.4815    9.0726 H   0  0  0  0  0  0  0  0  0  0  0  0
   -2.7890    2.8075   10.6921 H   0  0  0  0  0  0  0  0  0  0  0  0
   -2.0669    0.4588   10.5126 H   0  0  0  0  0  0  0  0  0  0  0  0
   -0.5247   -0.2302    8.7113 H   0  0  0  0  0  0  0  0  0  0  0  0
    0.2918    1.4244    7.0809 H   0  0  0  0  0  0  0  0  0  0  0  0
  1  5  1  0  0  0  0
  1  4  1  0  0  0  0
  2  1  1  0  0  0  0
  3  1  1  0  0  0  0
  4  8  1  0  0  0  0
  4  7  1  0  0  0  0
  5  6  1  0  0  0  0
  5 26  1  0  0  0  0
  6  7  1  0  0  0  0
  6 34  1  0  0  0  0
  7 32  1  0  0  0  0
  7 33  1  0  0  0  0
  8  9  1  0  0  0  0
  9 10  2  0  0  0  0
  9 36  1  0  0  0  0
 10 37  1  0  0  0  0
 11 38  1  0  0  0  0
 11 10  1  0  0  0  0
 12 11  2  0  0  0  0
 13 12  1  0  0  0  0
 13  8  2  0  0  0  0
 14 15  1  0  0  0  0
 14  4  1  0  0  0  0
 15 41  1  0  0  0  0
 16 42  1  0  0  0  0
 16 15  2  0  0  0  0
 17 16  1  0  0  0  0
 18 17  2  0  0  0  0
 18 19  1  0  0  0  0
 19 14  2  0  0  0  0
 20  5  1  0  0  0  0
 21 46  1  0  0  0  0
 21 20  2  0  0  0  0
 22 21  1  0  0  0  0
 23 22  2  0  0  0  0
 23 24  1  0  0  0  0
 24 25  2  0  0  0  0
 25 20  1  0  0  0  0
 25 50  1  0  0  0  0
 26 27  1  0  0  0  0
 27 51  1  0  0  0  0
 27 28  2  0  0  0  0
 28 52  1  0  0  0  0
 29 28  1  0  0  0  0
 29 53  1  0  0  0  0
 30 29  2  0  0  0  0
 31 26  2  0  0  0  0
 31 30  1  0  0  0  0
 35  6  1  0  0  0  0
 39 12  1  0  0  0  0
 40 13  1  0  0  0  0
 43 17  1  0  0  0  0
 44 18  1  0  0  0  0
 45 19  1  0  0  0  0
 47 22  1  0  0  0  0
 48 23  1  0  0  0  0
 49 24  1  0  0  0  0
 54 30  1  0  0  0  0
 55 31  1  0  0  0  0
M  END
$$$$
