CSD_code = SAJCOV | q = 0 | S = 0 | Stoichiometry = C10H10F4N2OW | MND = 7
 OpenBabel04212202093D

 28 28  0  0  0  0  0  0  0  0999 V2000
   -1.0480    2.9021    3.2103 W   0  0  0  0  0  0  0  0  0  0  0  0
   -1.6077    4.3296    4.3522 F   0  0  0  0  0  0  0  0  0  0  0  0
    0.5225    3.1153    4.3254 F   0  0  0  0  0  0  0  0  0  0  0  0
   -1.0470    1.2018    3.2097 O   0  0  0  0  0  1  0  0  0  0  0  0
   -2.6699    2.1334    4.6779 N   0  0  0  0  0  0  0  0  0  0  0  0
   -2.0806    1.8832    5.8571 C   0  0  0  0  0  3  0  0  0  0  0  0
   -2.5709    0.9435    6.7473 C   0  0  0  0  0  0  0  0  0  0  0  0
   -3.7238    0.2414    6.4205 C   0  0  0  0  0  0  0  0  0  0  0  0
   -4.3472    0.5196    5.2141 C   0  0  0  0  0  0  0  0  0  0  0  0
   -3.7915    1.4744    4.3779 C   0  0  0  0  0  0  0  0  0  0  0  0
   -1.1858    2.4727    6.0787 H   0  0  0  0  0  0  0  0  0  0  0  0
   -2.0631    0.7655    7.6822 H   0  0  0  0  0  0  0  0  0  0  0  0
   -4.1278   -0.4991    7.0941 H   0  0  0  0  0  0  0  0  0  0  0  0
   -5.2528    0.0088    4.9273 H   0  0  0  0  0  0  0  0  0  0  0  0
   -4.2409    1.7285    3.4236 H   0  0  0  0  0  0  0  0  0  0  0  0
   -0.4893    4.3311    2.0699 F   0  0  0  0  0  0  0  0  0  0  0  0
   -2.6182    3.1154    2.0947 F   0  0  0  0  0  0  0  0  0  0  0  0
    0.5737    2.1354    1.7410 N   0  0  0  0  0  0  0  0  0  0  0  0
   -0.0177    1.8846    0.5629 C   0  0  0  0  0  0  0  0  0  0  0  0
    1.6956    1.4762    2.0395 C   0  0  0  0  0  0  0  0  0  0  0  0
    0.4701    0.9433   -0.3270 C   0  0  0  0  0  0  0  0  0  0  0  0
   -0.9122    2.4749    0.3421 H   0  0  0  0  0  0  0  0  0  0  0  0
    2.2489    0.5199    1.2034 C   0  0  0  0  0  0  0  0  0  0  0  0
    2.1467    1.7309    2.9928 H   0  0  0  0  0  0  0  0  0  0  0  0
    1.6229    0.2404   -0.0012 C   0  0  0  0  0  0  0  0  0  0  0  0
   -0.0395    0.7647   -1.2607 H   0  0  0  0  0  0  0  0  0  0  0  0
    3.1547    0.0088    1.4891 H   0  0  0  0  0  0  0  0  0  0  0  0
    2.0248   -0.5013   -0.6747 H   0  0  0  0  0  0  0  0  0  0  0  0
  1  3  1  0  0  0  0
  1  2  1  0  0  0  0
  1  5  1  0  0  0  0
  4  1  1  0  0  0  0
  5  6  1  0  0  0  0
  6 11  1  0  0  0  0
  6  7  1  0  0  0  0
  7 12  1  0  0  0  0
  8  7  2  0  0  0  0
  8 13  1  0  0  0  0
  9  8  1  0  0  0  0
 10  5  1  0  0  0  0
 10  9  2  0  0  0  0
 14  9  1  0  0  0  0
 15 10  1  0  0  0  0
 16  1  1  0  0  0  0
 17  1  1  0  0  0  0
 18 20  1  0  0  0  0
 19 18  2  0  0  0  0
 20 24  1  0  0  0  0
 21 25  2  0  0  0  0
 21 19  1  0  0  0  0
 22 19  1  0  0  0  0
 23 27  1  0  0  0  0
 23 20  2  0  0  0  0
 25 23  1  0  0  0  0
 26 21  1  0  0  0  0
 28 25  1  0  0  0  0
M  END
$$$$
