CSD_code = SAJCIP | q = 0 | S = 0 | Stoichiometry = C5H5F4NOW | MND = 6
 OpenBabel04212202093D

 17 17  0  0  0  0  0  0  0  0999 V2000
    5.2127    6.1776    5.3919 W   0  0  0  0  0  0  0  0  0  0  0  0
    4.6782    6.6916    3.6512 F   0  0  0  0  0  0  0  0  0  0  0  0
    5.2303    5.0558    6.9153 F   0  0  0  0  0  0  0  0  0  0  0  0
    6.3636    4.9360    4.5471 F   0  0  0  0  0  0  0  0  0  0  0  0
    3.5432    6.8104    6.0174 F   0  0  0  0  0  0  0  0  0  0  0  0
    6.2570    7.4044    5.8307 O   0  0  0  0  0  1  0  0  0  0  0  0
    3.7781    4.4908    4.7895 N   0  0  0  0  0  0  0  0  0  0  0  0
    4.0980    3.2130    5.0073 C   0  0  0  0  0  3  0  0  0  0  0  0
    3.2645    2.1644    4.6538 C   0  0  0  0  0  0  0  0  0  0  0  0
    2.0495    2.4500    4.0491 C   0  0  0  0  0  0  0  0  0  0  0  0
    1.7164    3.7770    3.8229 C   0  0  0  0  0  0  0  0  0  0  0  0
    2.6080    4.7650    4.2082 C   0  0  0  0  0  0  0  0  0  0  0  0
    5.0596    3.0349    5.4829 H   0  0  0  0  0  0  0  0  0  0  0  0
    3.5629    1.1468    4.8488 H   0  0  0  0  0  0  0  0  0  0  0  0
    1.3775    1.6558    3.7607 H   0  0  0  0  0  0  0  0  0  0  0  0
    0.7820    4.0439    3.3557 H   0  0  0  0  0  0  0  0  0  0  0  0
    2.3871    5.8180    4.0502 H   0  0  0  0  0  0  0  0  0  0  0  0
  1  6  1  0  0  0  0
  1  5  1  0  0  0  0
  1  3  1  0  0  0  0
  2  1  1  0  0  0  0
  4  1  1  0  0  0  0
  7  8  1  0  0  0  0
  7  1  1  0  0  0  0
  8 13  1  0  0  0  0
  9 14  1  0  0  0  0
  9  8  1  0  0  0  0
 10  9  2  0  0  0  0
 11 10  1  0  0  0  0
 11 12  2  0  0  0  0
 12  7  1  0  0  0  0
 15 10  1  0  0  0  0
 16 11  1  0  0  0  0
 17 12  1  0  0  0  0
M  END
$$$$
