CSD_code = SAJDUF | q = 0 | S = 0 | Stoichiometry = C18H28Br2N2P2Pd | MND = 4
 OpenBabel04212202093D

 53 55  0  0  0  0  0  0  0  0999 V2000
    0.7493    7.0394    2.9944 Pd  0  0  0  0  0  0  0  0  0  0  0  0
    0.2018    9.3802    2.7435 Br  0  0  0  0  0  0  0  0  0  0  0  0
   -0.3027    6.2761    0.9729 Br  0  0  0  0  0  0  0  0  0  0  0  0
    1.2624    7.4240    5.1435 P   0  0  2  0  0  4  0  0  0  0  0  0
    1.9908    5.1501    3.1083 P   0  0  2  0  0  4  0  0  0  0  0  0
    2.9374    6.1747    6.8830 N   0  0  0  0  0  0  0  0  0  0  0  0
    2.4119    6.1295    5.6857 C   0  0  0  0  0  0  0  0  0  0  0  0
    2.6406    5.0413    4.8031 C   0  0  0  0  0  0  0  0  0  0  0  0
    3.2911    3.9713    5.1805 N   0  0  0  0  0  0  0  0  0  0  0  0
    3.8131    3.9725    6.4263 C   0  0  0  0  0  0  0  0  0  0  0  0
    4.5286    2.8518    6.8872 C   0  0  0  0  0  0  0  0  0  0  0  0
    4.6180    1.9980    6.2341 H   0  0  0  0  0  0  0  0  0  0  0  0
    5.0972    2.8749    8.1316 C   0  0  0  0  0  0  0  0  0  0  0  0
    5.6516    2.0194    8.4870 H   0  0  0  0  0  0  0  0  0  0  0  0
    4.9740    4.0031    8.9597 C   0  0  0  0  0  0  0  0  0  0  0  0
    5.4353    3.9928    9.9357 H   0  0  0  0  0  0  0  0  0  0  0  0
    4.2774    5.1055    8.5451 C   0  0  0  0  0  0  0  0  0  0  0  0
    4.1668    5.9791    9.1685 H   0  0  0  0  0  0  0  0  0  0  0  0
    3.6751    5.1117    7.2735 C   0  0  0  0  0  0  0  0  0  0  0  0
   -0.3070    6.9260    6.0549 C   0  0  0  0  0  0  0  0  0  0  0  0
   -0.5897    5.4549    5.7375 C   0  0  0  0  0  0  0  0  0  0  0  0
    0.1641    4.7960    6.1700 H   0  0  0  0  0  0  0  0  0  0  0  0
   -0.6208    5.2959    4.6486 H   0  0  0  0  0  0  0  0  0  0  0  0
   -1.5601    5.1694    6.1415 H   0  0  0  0  0  0  0  0  0  0  0  0
   -1.4367    7.7758    5.4695 C   0  0  0  0  0  0  0  0  0  0  0  0
   -1.5837    7.5355    4.4054 H   0  0  0  0  0  0  0  0  0  0  0  0
   -1.2225    8.8416    5.5530 H   0  0  0  0  0  0  0  0  0  0  0  0
   -2.3704    7.5724    5.9918 H   0  0  0  0  0  0  0  0  0  0  0  0
   -0.1610    7.1404    7.5576 C   0  0  0  0  0  0  0  0  0  0  0  0
    0.7481    6.6686    7.9300 H   0  0  0  0  0  0  0  0  0  0  0  0
   -1.0125    6.7002    8.0747 H   0  0  0  0  0  0  0  0  0  0  0  0
   -0.1305    8.2005    7.7987 H   0  0  0  0  0  0  0  0  0  0  0  0
    1.8788    8.9318    5.9503 C   0  0  0  0  0  0  0  0  0  0  0  0
    1.0989    9.6926    5.9472 H   0  0  0  0  0  0  0  0  0  0  0  0
    2.7240    9.3072    5.3707 H   0  0  0  0  0  0  0  0  0  0  0  0
    2.1983    8.6905    6.9631 H   0  0  0  0  0  0  0  0  0  0  0  0
    3.5321    5.5480    2.0914 C   0  0  0  0  0  0  0  0  0  0  0  0
    4.7735    4.8538    2.6464 C   0  0  0  0  0  0  0  0  0  0  0  0
    4.5964    3.7928    2.8105 H   0  0  0  0  0  0  0  0  0  0  0  0
    5.0858    5.2954    3.5916 H   0  0  0  0  0  0  0  0  0  0  0  0
    5.5935    4.9583    1.9376 H   0  0  0  0  0  0  0  0  0  0  0  0
    3.7080    7.0712    2.1373 C   0  0  0  0  0  0  0  0  0  0  0  0
    2.8515    7.5819    1.6603 H   0  0  0  0  0  0  0  0  0  0  0  0
    4.6062    7.3614    1.5936 H   0  0  0  0  0  0  0  0  0  0  0  0
    3.8121    7.4225    3.1712 H   0  0  0  0  0  0  0  0  0  0  0  0
    3.2710    5.1041    0.6518 C   0  0  0  0  0  0  0  0  0  0  0  0
    3.2757    4.0195    0.5672 H   0  0  0  0  0  0  0  0  0  0  0  0
    4.0498    5.4983    0.0008 H   0  0  0  0  0  0  0  0  0  0  0  0
    2.3122    5.4806    0.2931 H   0  0  0  0  0  0  0  0  0  0  0  0
    1.5643    3.4231    2.7243 C   0  0  0  0  0  0  0  0  0  0  0  0
    1.1537    3.3760    1.7158 H   0  0  0  0  0  0  0  0  0  0  0  0
    0.8041    3.0915    3.4326 H   0  0  0  0  0  0  0  0  0  0  0  0
    2.4475    2.7934    2.8195 H   0  0  0  0  0  0  0  0  0  0  0  0
  1  5  1  0  0  0  0
  1  4  1  0  0  0  0
  2  1  1  0  0  0  0
  3  1  1  0  0  0  0
  4  7  1  0  0  0  0
  4 33  1  1  0  0  0
  4 20  1  0  0  0  0
  5 37  1  6  0  0  0
  5  8  1  0  0  0  0
  6 19  1  0  0  0  0
  7  6  2  0  0  0  0
  8  9  2  0  0  0  0
  8  7  1  0  0  0  0
  9 10  1  0  0  0  0
 10 11  2  0  0  0  0
 10 19  1  0  0  0  0
 11 13  1  0  0  0  0
 12 11  1  0  0  0  0
 13 14  1  0  0  0  0
 13 15  2  0  0  0  0
 15 16  1  0  0  0  0
 17 15  1  0  0  0  0
 17 18  1  0  0  0  0
 19 17  2  0  0  0  0
 20 29  1  0  0  0  0
 21 20  1  0  0  0  0
 21 24  1  0  0  0  0
 21 22  1  0  0  0  0
 23 21  1  0  0  0  0
 25 27  1  0  0  0  0
 25 28  1  0  0  0  0
 25 20  1  0  0  0  0
 26 25  1  0  0  0  0
 29 32  1  0  0  0  0
 29 30  1  0  0  0  0
 29 31  1  0  0  0  0
 33 36  1  0  0  0  0
 34 33  1  0  0  0  0
 35 33  1  0  0  0  0
 37 42  1  0  0  0  0
 37 38  1  0  0  0  0
 38 39  1  0  0  0  0
 38 40  1  0  0  0  0
 41 38  1  0  0  0  0
 42 45  1  0  0  0  0
 43 42  1  0  0  0  0
 44 42  1  0  0  0  0
 46 37  1  0  0  0  0
 47 46  1  0  0  0  0
 48 46  1  0  0  0  0
 49 46  1  0  0  0  0
 50 53  1  0  0  0  0
 50  5  1  0  0  0  0
 50 52  1  0  0  0  0
 51 50  1  0  0  0  0
M  END
$$$$
