CSD_code = SAJNEZ | q = 0 | S = 0 | Stoichiometry = C6H8Cl2N2Pd | MND = 4
 OpenBabel04212202093D

 19 20  0  0  0  0  0  0  0  0999 V2000
    2.7843    5.2906    1.4970 Pd  0  0  0  0  0  0  0  0  0  0  0  0
    1.2559    6.7942    0.9623 Cl  0  0  0  0  0  0  0  0  0  0  0  0
    1.4559    3.6724    1.0322 N   0  0  0  0  0  4  0  0  0  0  0  0
    0.6284    3.7786    1.6243 H   0  0  0  0  0  0  0  0  0  0  0  0
    1.1409    3.7678    0.0640 H   0  0  0  0  0  0  0  0  0  0  0  0
    2.1258    2.4192    1.2632 C   0  0  0  0  0  0  0  0  0  0  0  0
    1.4815    1.2088    1.0309 C   0  0  0  0  0  0  0  0  0  0  0  0
    0.4639    1.2120    0.6672 H   0  0  0  0  0  0  0  0  0  0  0  0
    2.1324    0.0114    1.2627 C   0  0  0  0  0  0  0  0  0  0  0  0
    1.6227   -0.9213    1.0788 H   0  0  0  0  0  0  0  0  0  0  0  0
    4.1127    3.6724    1.9619 N   0  0  0  0  0  4  0  0  0  0  0  0
    4.9402    3.7786    1.3698 H   0  0  0  0  0  0  0  0  0  0  0  0
    4.4277    3.7678    2.9301 H   0  0  0  0  0  0  0  0  0  0  0  0
    3.4428    2.4192    1.7309 C   0  0  0  0  0  0  0  0  0  0  0  0
    4.0871    1.2088    1.9632 C   0  0  0  0  0  0  0  0  0  0  0  0
    5.1047    1.2120    2.3269 H   0  0  0  0  0  0  0  0  0  0  0  0
    3.4362    0.0114    1.7314 C   0  0  0  0  0  0  0  0  0  0  0  0
    3.9460   -0.9213    1.9153 H   0  0  0  0  0  0  0  0  0  0  0  0
    4.3127    6.7942    2.0318 Cl  0  0  0  0  0  0  0  0  0  0  0  0
  1 11  1  0  0  0  0
  1 19  1  0  0  0  0
  2  1  1  0  0  0  0
  3  6  1  0  0  0  0
  3  1  1  0  0  0  0
  3  4  1  0  0  0  0
  5  3  1  0  0  0  0
  6 14  1  0  0  0  0
  7  9  1  0  0  0  0
  7  6  2  0  0  0  0
  8  7  1  0  0  0  0
  9 17  2  0  0  0  0
 10  9  1  0  0  0  0
 11 13  1  0  0  0  0
 12 11  1  0  0  0  0
 14 11  1  0  0  0  0
 14 15  2  0  0  0  0
 15 16  1  0  0  0  0
 17 18  1  0  0  0  0
 17 15  1  0  0  0  0
M  END
$$$$
