CSD_code = SAJTUT | q = 0 | S = 0 | Stoichiometry = C27H18Cl2N2OPt | MND = 4
 OpenBabel04212202093D

 51 56  0  0  1  0  0  0  0  0999 V2000
    0.5484    8.0075    9.3424 Pt  0  0  0  0  0  0  0  0  0  0  0  0
    2.7957    7.9610    9.2906 Cl  0  0  0  0  0  0  0  0  0  0  0  0
    0.4494   10.2270    8.9945 Cl  0  0  0  0  0  0  0  0  0  0  0  0
    0.2167    6.9506    3.9015 O   0  0  0  0  0  0  0  0  0  0  0  0
    0.5759    6.0156    9.6126 N   0  0  0  0  0  0  0  0  0  0  0  0
   -1.4623    7.9837    9.3550 N   0  0  0  0  0  0  0  0  0  0  0  0
    0.9148    5.3549   10.7153 C   0  0  0  0  0  0  0  0  0  0  0  0
    1.1124    5.9556   11.5935 H   0  0  0  0  0  0  0  0  0  0  0  0
    1.0267    3.9782   10.7376 C   0  0  0  0  0  0  0  0  0  0  0  0
    1.3079    3.4736   11.6475 H   0  0  0  0  0  0  0  0  0  0  0  0
    0.7830    3.2674    9.5683 C   0  0  0  0  0  0  0  0  0  0  0  0
    0.8655    2.1916    9.5526 H   0  0  0  0  0  0  0  0  0  0  0  0
    0.4425    3.9600    8.4219 C   0  0  0  0  0  0  0  0  0  0  0  0
    0.2592    3.4497    7.4900 H   0  0  0  0  0  0  0  0  0  0  0  0
    0.3471    5.3495    8.4736 C   0  0  0  0  0  0  0  0  0  0  0  0
   -2.2695    8.4295   10.3125 C   0  0  0  0  0  0  0  0  0  0  0  0
   -1.7937    8.7591   11.2269 H   0  0  0  0  0  0  0  0  0  0  0  0
   -3.6397    8.4870   10.1460 C   0  0  0  0  0  0  0  0  0  0  0  0
   -4.2655    8.8583   10.9410 H   0  0  0  0  0  0  0  0  0  0  0  0
   -4.1855    8.0712    8.9372 C   0  0  0  0  0  0  0  0  0  0  0  0
   -5.2516    8.1071    8.7751 H   0  0  0  0  0  0  0  0  0  0  0  0
   -3.3409    7.6193    7.9410 C   0  0  0  0  0  0  0  0  0  0  0  0
   -3.7204    7.3008    6.9835 H   0  0  0  0  0  0  0  0  0  0  0  0
   -1.9681    7.5879    8.1799 C   0  0  0  0  0  0  0  0  0  0  0  0
    0.0542    6.1509    7.2857 C   0  0  0  0  0  0  0  0  0  0  0  0
   -1.0117    7.1821    7.1505 C   0  0  0  0  0  0  0  0  0  0  0  0
   -1.0499    7.6136    5.8590 C   0  0  2  0  0  3  0  0  0  0  0  0
   -0.0156    6.8655    5.0836 C   0  0  0  0  0  0  0  0  0  0  0  0
    0.6505    5.9682    6.0746 C   0  0  1  0  0  3  0  0  0  0  0  0
    1.7959    5.1393    5.7525 C   0  0  0  0  0  0  0  0  0  0  0  0
    2.8654    5.0382    6.6473 C   0  0  0  0  0  0  0  0  0  0  0  0
    2.8522    5.6116    7.5626 H   0  0  0  0  0  0  0  0  0  0  0  0
    3.9610    4.2596    6.3334 C   0  0  0  0  0  0  0  0  0  0  0  0
    4.7871    4.1972    7.0261 H   0  0  0  0  0  0  0  0  0  0  0  0
    4.0091    3.5719    5.1303 C   0  0  0  0  0  0  0  0  0  0  0  0
    4.8674    2.9623    4.8893 H   0  0  0  0  0  0  0  0  0  0  0  0
    2.9617    3.6830    4.2301 C   0  0  0  0  0  0  0  0  0  0  0  0
    3.0032    3.1602    3.2858 H   0  0  0  0  0  0  0  0  0  0  0  0
    1.8635    4.4652    4.5321 C   0  0  0  0  0  0  0  0  0  0  0  0
    1.0496    4.5544    3.8294 H   0  0  0  0  0  0  0  0  0  0  0  0
   -1.8574    8.6749    5.2896 C   0  0  0  0  0  0  0  0  0  0  0  0
   -2.1002    9.8428    6.0188 C   0  0  0  0  0  0  0  0  0  0  0  0
   -1.6505    9.9675    6.9930 H   0  0  0  0  0  0  0  0  0  0  0  0
   -2.8579   10.8579    5.4706 C   0  0  0  0  0  0  0  0  0  0  0  0
   -3.0298   11.7608    6.0374 H   0  0  0  0  0  0  0  0  0  0  0  0
   -3.3842   10.7272    4.1944 C   0  0  0  0  0  0  0  0  0  0  0  0
   -3.9780   11.5230    3.7698 H   0  0  0  0  0  0  0  0  0  0  0  0
   -3.1312    9.5810    3.4582 C   0  0  0  0  0  0  0  0  0  0  0  0
   -3.5276    9.4829    2.4582 H   0  0  0  0  0  0  0  0  0  0  0  0
   -2.3684    8.5619    3.9955 C   0  0  0  0  0  0  0  0  0  0  0  0
   -2.1687    7.6710    3.4206 H   0  0  0  0  0  0  0  0  0  0  0  0
  1  6  1  0  0  0  0
  1  5  1  0  0  0  0
  2  1  1  0  0  0  0
  3  1  1  0  0  0  0
  4 28  2  0  0  0  0
  5  7  1  0  0  0  0
  6 16  1  0  0  0  0
  7  9  2  0  0  0  0
  7  8  1  0  0  0  0
  9 10  1  0  0  0  0
 11  9  1  0  0  0  0
 12 11  1  0  0  0  0
 13 15  1  0  0  0  0
 13 11  2  0  0  0  0
 14 13  1  0  0  0  0
 15  5  1  0  0  0  0
 16 17  1  0  0  0  0
 18 16  2  0  0  0  0
 18 19  1  0  0  0  0
 20 18  1  0  0  0  0
 21 20  1  0  0  0  0
 22 24  1  0  0  0  0
 22 20  2  0  0  0  0
 23 22  1  0  0  0  0
 24  6  1  0  0  0  0
 25 15  2  0  0  0  0
 26 25  1  0  0  0  0
 26 24  2  0  0  0  0
 27 41  1  1  0  0  0
 27 26  1  0  0  0  0
 28 27  1  0  0  0  0
 28 29  1  0  0  0  0
 29 30  1  1  0  0  0
 29 25  1  0  0  0  0
 30 31  1  0  0  0  0
 31 32  1  0  0  0  0
 33 31  2  0  0  0  0
 33 34  1  0  0  0  0
 35 33  1  0  0  0  0
 36 35  1  0  0  0  0
 37 39  1  0  0  0  0
 37 35  2  0  0  0  0
 38 37  1  0  0  0  0
 39 30  2  0  0  0  0
 40 39  1  0  0  0  0
 41 42  1  0  0  0  0
 42 43  1  0  0  0  0
 44 42  2  0  0  0  0
 44 45  1  0  0  0  0
 46 44  1  0  0  0  0
 47 46  1  0  0  0  0
 48 50  1  0  0  0  0
 48 46  2  0  0  0  0
 49 48  1  0  0  0  0
 50 41  2  0  0  0  0
 51 50  1  0  0  0  0
M  END
$$$$
