CSD_code = SAJTUU | q = 1 | S = 0 | Stoichiometry = C19H17AuClN4S(1+) | MND = 2
 OpenBabel04212202093D

 43 45  0  0  1  0  0  0  0  0999 V2000
   -0.0644    4.5174    5.4846 Au  0  0  0  0  0  0  0  0  0  0  0  0
   -1.0835    3.6524    3.5427 S   0  0  0  0  0  0  0  0  0  0  0  0
    0.5357    5.3626    7.4990 Cl  0  0  0  0  0  0  0  0  0  0  0  0
   -6.7650    4.1004    6.5672 N   0  0  0  0  0  0  0  0  0  0  0  0
   -6.4368    4.1020    5.6046 H   0  0  0  0  0  0  0  0  0  0  0  0
   -4.2525    3.7035    5.7833 N   0  0  0  0  0  0  0  0  0  0  0  0
   -3.0149    3.6966    5.3076 N   0  0  0  0  0  0  0  0  0  0  0  0
   -2.2130    3.9442    5.9161 H   0  0  0  0  0  0  0  0  0  0  0  0
   -3.7013    3.0643    3.2223 N   0  0  0  0  0  0  0  0  0  0  0  0
   -4.5895    3.0067    3.7154 H   0  0  0  0  0  0  0  0  0  0  0  0
   -5.7960    3.9867    7.5086 C   0  0  1  0  0  3  0  0  0  0  0  0
   -6.1868    3.9686    8.8534 C   0  0  0  0  0  0  0  0  0  0  0  0
   -5.4314    3.8658    9.6161 H   0  0  0  0  0  0  0  0  0  0  0  0
   -7.5216    4.0712    9.1801 C   0  0  0  0  0  0  0  0  0  0  0  0
   -7.8291    4.0575   10.2138 H   0  0  0  0  0  0  0  0  0  0  0  0
   -8.4838    4.1886    8.1671 C   0  0  0  0  0  0  0  0  0  0  0  0
   -9.5308    4.2699    8.4063 H   0  0  0  0  0  0  0  0  0  0  0  0
   -8.0697    4.1967    6.8596 C   0  0  0  0  0  0  0  0  0  0  0  0
   -8.7584    4.2833    6.0331 H   0  0  0  0  0  0  0  0  0  0  0  0
   -4.4287    3.8773    7.0688 C   0  0  0  0  0  0  0  0  0  0  0  0
   -2.6942    3.4539    4.0043 C   0  0  2  0  0  3  0  0  0  0  0  0
   -3.7982    2.7314    1.8628 C   0  0  0  0  0  0  0  0  0  0  0  0
   -2.7173    2.6453    0.9924 C   0  0  0  0  0  0  0  0  0  0  0  0
   -1.7160    2.8361    1.3340 H   0  0  0  0  0  0  0  0  0  0  0  0
   -2.9338    2.3032   -0.3315 C   0  0  0  0  0  0  0  0  0  0  0  0
   -2.0899    2.2370   -1.0001 H   0  0  0  0  0  0  0  0  0  0  0  0
   -4.2112    2.0458   -0.7990 C   0  0  0  0  0  0  0  0  0  0  0  0
   -4.3681    1.7809   -1.8326 H   0  0  0  0  0  0  0  0  0  0  0  0
   -5.2896    2.1283    0.0688 C   0  0  0  0  0  0  0  0  0  0  0  0
   -6.2894    1.9280   -0.2842 H   0  0  0  0  0  0  0  0  0  0  0  0
   -5.0859    2.4669    1.3914 C   0  0  0  0  0  0  0  0  0  0  0  0
   -5.9290    2.5272    2.0668 H   0  0  0  0  0  0  0  0  0  0  0  0
   -3.3317    3.9712    8.0477 C   0  0  0  0  0  0  0  0  0  0  0  0
   -3.2057    5.0954    8.8648 C   0  0  0  0  0  0  0  0  0  0  0  0
   -3.9221    5.9004    8.7809 H   0  0  0  0  0  0  0  0  0  0  0  0
   -2.1428    5.1970    9.7412 C   0  0  0  0  0  0  0  0  0  0  0  0
   -2.0361    6.0803   10.3506 H   0  0  0  0  0  0  0  0  0  0  0  0
   -1.2071    4.1778    9.8258 C   0  0  0  0  0  0  0  0  0  0  0  0
   -0.3743    4.2658   10.5042 H   0  0  0  0  0  0  0  0  0  0  0  0
   -1.3377    3.0490    9.0331 C   0  0  0  0  0  0  0  0  0  0  0  0
   -0.6145    2.2519    9.1010 H   0  0  0  0  0  0  0  0  0  0  0  0
   -2.3836    2.9488    8.1362 C   0  0  0  0  0  0  0  0  0  0  0  0
   -2.4909    2.0627    7.5247 H   0  0  0  0  0  0  0  0  0  0  0  0
  1  3  1  0  0  0  0
  2  1  1  0  0  0  0
  4 18  1  0  0  0  0
  4 11  1  0  0  0  0
  5  4  1  0  0  0  0
  6 20  2  0  0  0  0
  7  6  1  0  0  0  0
  7  8  1  0  0  0  0
  9 10  1  0  0  0  0
  9 21  1  0  0  0  0
 11 20  1  6  0  0  0
 11 12  1  0  0  0  0
 12 14  2  0  0  0  0
 12 13  1  0  0  0  0
 14 15  1  0  0  0  0
 16 17  1  0  0  0  0
 16 14  1  0  0  0  0
 18 16  2  0  0  0  0
 19 18  1  0  0  0  0
 20 33  1  0  0  0  0
 21  2  1  1  0  0  0
 21  7  1  0  0  0  0
 22  9  1  0  0  0  0
 23 24  1  0  0  0  0
 23 22  2  0  0  0  0
 25 23  1  0  0  0  0
 26 25  1  0  0  0  0
 27 25  2  0  0  0  0
 27 29  1  0  0  0  0
 28 27  1  0  0  0  0
 29 31  2  0  0  0  0
 30 29  1  0  0  0  0
 31 22  1  0  0  0  0
 31 32  1  0  0  0  0
 33 42  2  0  0  0  0
 33 34  1  0  0  0  0
 34 36  2  0  0  0  0
 35 34  1  0  0  0  0
 36 38  1  0  0  0  0
 36 37  1  0  0  0  0
 38 39  1  0  0  0  0
 40 41  1  0  0  0  0
 40 38  2  0  0  0  0
 42 40  1  0  0  0  0
 43 42  1  0  0  0  0
M  END
$$$$
