CSD_code = SAJVAB | q = 0 | S = 0 | Stoichiometry = C27H18Cl2N2OZn | MND = 4
 OpenBabel04212202093D

 51 56  0  0  1  0  0  0  0  0999 V2000
    4.4442    3.5256   10.2874 Zn  0  0  0  0  0  0  0  0  0  0  0  0
    4.3728    5.0382   11.8896 Cl  0  0  0  0  0  0  0  0  0  0  0  0
    6.0943    2.5610    9.1909 Cl  0  0  0  0  0  0  0  0  0  0  0  0
    0.2184    6.2634   13.3864 O   0  0  0  0  0  0  0  0  0  0  0  0
    3.0491    4.0618    8.7922 N   0  0  0  0  0  0  0  0  0  0  0  0
    3.1392    1.9417   10.7930 N   0  0  0  0  0  0  0  0  0  0  0  0
    0.7170    5.5254   12.5777 C   0  0  0  0  0  0  0  0  0  0  0  0
    1.0500    5.8323   11.1482 C   0  0  0  0  0  0  0  0  0  0  0  0
    1.5625    4.7083   10.5850 C   0  0  0  0  0  0  0  0  0  0  0  0
    1.6037    3.6258   11.5986 C   0  0  0  0  0  0  0  0  0  0  0  0
    1.1150    4.0933   12.7757 C   0  0  0  0  0  0  0  0  0  0  0  0
    0.9160    7.1557   10.5743 C   0  0  0  0  0  0  0  0  0  0  0  0
   -0.1620    7.9757   10.9149 C   0  0  0  0  0  0  0  0  0  0  0  0
   -0.9112    7.6127   11.6007 H   0  0  0  0  0  0  0  0  0  0  0  0
   -0.2729    9.2412   10.3714 C   0  0  0  0  0  0  0  0  0  0  0  0
   -1.1134    9.8655   10.6361 H   0  0  0  0  0  0  0  0  0  0  0  0
    0.6894    9.7118    9.4927 C   0  0  0  0  0  0  0  0  0  0  0  0
    0.6017   10.7029    9.0731 H   0  0  0  0  0  0  0  0  0  0  0  0
    1.7746    8.9127    9.1655 C   0  0  0  0  0  0  0  0  0  0  0  0
    2.5386    9.2852    8.4993 H   0  0  0  0  0  0  0  0  0  0  0  0
    1.8900    7.6453    9.6991 C   0  0  0  0  0  0  0  0  0  0  0  0
    2.7560    7.0383    9.4802 H   0  0  0  0  0  0  0  0  0  0  0  0
    1.8722    4.5680    9.1647 C   0  0  1  0  0  3  0  0  0  0  0  0
    0.9303    4.9769    8.2153 C   0  0  0  0  0  0  0  0  0  0  0  0
   -0.0139    5.3807    8.5449 H   0  0  0  0  0  0  0  0  0  0  0  0
    1.2272    4.8548    6.8726 C   0  0  0  0  0  0  0  0  0  0  0  0
    0.5140    5.1673    6.1245 H   0  0  0  0  0  0  0  0  0  0  0  0
    2.4552    4.3215    6.5033 C   0  0  0  0  0  0  0  0  0  0  0  0
    2.7275    4.2072    5.4667 H   0  0  0  0  0  0  0  0  0  0  0  0
    3.3322    3.9385    7.5005 C   0  0  0  0  0  0  0  0  0  0  0  0
    4.3011    3.5136    7.2778 H   0  0  0  0  0  0  0  0  0  0  0  0
    1.0506    3.4266   14.0604 C   0  0  0  0  0  0  0  0  0  0  0  0
   -0.0111    3.6654   14.9355 C   0  0  0  0  0  0  0  0  0  0  0  0
   -0.7976    4.3442   14.6455 H   0  0  0  0  0  0  0  0  0  0  0  0
   -0.0589    3.0299   16.1616 C   0  0  0  0  0  0  0  0  0  0  0  0
   -0.8870    3.2166   16.8291 H   0  0  0  0  0  0  0  0  0  0  0  0
    0.9509    2.1594   16.5380 C   0  0  0  0  0  0  0  0  0  0  0  0
    0.9122    1.6674   17.4986 H   0  0  0  0  0  0  0  0  0  0  0  0
    2.0208    1.9338   15.6850 C   0  0  0  0  0  0  0  0  0  0  0  0
    2.8214    1.2739   15.9850 H   0  0  0  0  0  0  0  0  0  0  0  0
    2.0734    2.5596   14.4562 C   0  0  0  0  0  0  0  0  0  0  0  0
    2.9263    2.4191   13.8091 H   0  0  0  0  0  0  0  0  0  0  0  0
    1.9652    2.2315   11.3568 C   0  0  2  0  0  3  0  0  0  0  0  0
    1.0776    1.2192   11.7347 C   0  0  0  0  0  0  0  0  0  0  0  0
    0.1338    1.4824   12.1855 H   0  0  0  0  0  0  0  0  0  0  0  0
    1.4271   -0.0997   11.5239 C   0  0  0  0  0  0  0  0  0  0  0  0
    0.7570   -0.8955   11.8125 H   0  0  0  0  0  0  0  0  0  0  0  0
    2.6521   -0.3824   10.9340 C   0  0  0  0  0  0  0  0  0  0  0  0
    2.9648   -1.3975   10.7509 H   0  0  0  0  0  0  0  0  0  0  0  0
    3.4725    0.6733   10.5840 C   0  0  0  0  0  0  0  0  0  0  0  0
    4.4351    0.5189   10.1166 H   0  0  0  0  0  0  0  0  0  0  0  0
  1  6  1  0  0  0  0
  1  2  1  0  0  0  0
  3  1  1  0  0  0  0
  5 23  1  0  0  0  0
  5  1  1  0  0  0  0
  6 43  1  0  0  0  0
  7 11  1  0  0  0  0
  7  4  2  0  0  0  0
  8  7  1  0  0  0  0
  9  8  2  0  0  0  0
  9 10  1  0  0  0  0
 10 11  2  0  0  0  0
 11 32  1  0  0  0  0
 12 13  1  0  0  0  0
 12  8  1  0  0  0  0
 13 14  1  0  0  0  0
 15 16  1  0  0  0  0
 15 13  2  0  0  0  0
 17 15  1  0  0  0  0
 18 17  1  0  0  0  0
 19 17  2  0  0  0  0
 19 21  1  0  0  0  0
 20 19  1  0  0  0  0
 21 12  2  0  0  0  0
 22 21  1  0  0  0  0
 23 24  1  6  0  0  0
 23  9  1  0  0  0  0
 24 25  1  0  0  0  0
 26 24  2  0  0  0  0
 27 26  1  0  0  0  0
 28 26  1  0  0  0  0
 28 30  2  0  0  0  0
 29 28  1  0  0  0  0
 30  5  1  0  0  0  0
 31 30  1  0  0  0  0
 32 41  2  0  0  0  0
 32 33  1  0  0  0  0
 33 35  2  0  0  0  0
 34 33  1  0  0  0  0
 35 37  1  0  0  0  0
 35 36  1  0  0  0  0
 37 38  1  0  0  0  0
 39 40  1  0  0  0  0
 39 37  2  0  0  0  0
 41 39  1  0  0  0  0
 42 41  1  0  0  0  0
 43 10  1  1  0  0  0
 43 44  1  0  0  0  0
 44 45  1  0  0  0  0
 46 44  2  0  0  0  0
 46 47  1  0  0  0  0
 48 46  1  0  0  0  0
 49 48  1  0  0  0  0
 50  6  1  0  0  0  0
 50 48  2  0  0  0  0
 51 50  1  0  0  0  0
M  END
$$$$
