CSD_code = SAJVEF | q = 0 | S = 0 | Stoichiometry = C27H18Cl2HgN2O | MND = 4
 OpenBabel04212202093D

 51 56  0  0  1  0  0  0  0  0999 V2000
    6.1835    1.5265    9.2312 Hg  0  0  0  0  0  0  0  0  0  0  0  0
    7.5371    3.3675    9.1531 Cl  0  0  0  0  0  0  0  0  0  0  0  0
    4.1549    0.6990    9.8796 Cl  0  0  0  0  0  0  0  0  0  0  0  0
   11.5302    3.1190    7.3663 O   0  0  0  0  0  0  0  0  0  0  0  0
    6.4616    0.3140    7.1081 N   0  0  0  0  0  0  0  0  0  0  0  0
    7.6031   -0.4171    9.7385 N   0  0  0  0  0  0  0  0  0  0  0  0
   10.6490    2.3162    7.5207 C   0  0  0  0  0  0  0  0  0  0  0  0
    9.5191    2.0093    6.5785 C   0  0  0  0  0  0  0  0  0  0  0  0
    8.7675    1.0285    7.1370 C   0  0  0  0  0  0  0  0  0  0  0  0
    9.3424    0.6504    8.4501 C   0  0  0  0  0  0  0  0  0  0  0  0
   10.4483    1.3966    8.6923 C   0  0  0  0  0  0  0  0  0  0  0  0
    9.2898    2.7383    5.3486 C   0  0  0  0  0  0  0  0  0  0  0  0
   10.3614    3.1952    4.5779 C   0  0  0  0  0  0  0  0  0  0  0  0
   11.3718    2.9908    4.8958 H   0  0  0  0  0  0  0  0  0  0  0  0
   10.1305    3.8977    3.4109 C   0  0  0  0  0  0  0  0  0  0  0  0
   10.9658    4.2430    2.8198 H   0  0  0  0  0  0  0  0  0  0  0  0
    8.8347    4.1634    2.9988 C   0  0  0  0  0  0  0  0  0  0  0  0
    8.6577    4.7162    2.0883 H   0  0  0  0  0  0  0  0  0  0  0  0
    7.7644    3.7311    3.7675 C   0  0  0  0  0  0  0  0  0  0  0  0
    6.7534    3.9560    3.4611 H   0  0  0  0  0  0  0  0  0  0  0  0
    7.9863    3.0252    4.9321 C   0  0  0  0  0  0  0  0  0  0  0  0
    7.1549    2.7258    5.5539 H   0  0  0  0  0  0  0  0  0  0  0  0
    7.6438    0.3507    6.4870 C   0  0  2  0  0  3  0  0  0  0  0  0
    7.8294   -0.2339    5.2323 C   0  0  0  0  0  0  0  0  0  0  0  0
    8.7968   -0.1762    4.7582 H   0  0  0  0  0  0  0  0  0  0  0  0
    6.7671   -0.8732    4.6235 C   0  0  0  0  0  0  0  0  0  0  0  0
    6.8869   -1.3305    3.6526 H   0  0  0  0  0  0  0  0  0  0  0  0
    5.5474   -0.9184    5.2843 C   0  0  0  0  0  0  0  0  0  0  0  0
    4.6934   -1.4109    4.8480 H   0  0  0  0  0  0  0  0  0  0  0  0
    5.4446   -0.3090    6.5217 C   0  0  0  0  0  0  0  0  0  0  0  0
    4.5159   -0.3134    7.0774 H   0  0  0  0  0  0  0  0  0  0  0  0
    8.8621   -0.4472    9.2926 C   0  0  1  0  0  3  0  0  0  0  0  0
    9.7296   -1.4912    9.6208 C   0  0  0  0  0  0  0  0  0  0  0  0
   10.7417   -1.4772    9.2477 H   0  0  0  0  0  0  0  0  0  0  0  0
    9.2722   -2.5209   10.4198 C   0  0  0  0  0  0  0  0  0  0  0  0
    9.9258   -3.3374   10.6884 H   0  0  0  0  0  0  0  0  0  0  0  0
    7.9588   -2.4861   10.8670 C   0  0  0  0  0  0  0  0  0  0  0  0
    7.5590   -3.2702   11.4895 H   0  0  0  0  0  0  0  0  0  0  0  0
    7.1654   -1.4139   10.5009 C   0  0  0  0  0  0  0  0  0  0  0  0
    6.1352   -1.3383   10.8235 H   0  0  0  0  0  0  0  0  0  0  0  0
   11.2870    1.4205    9.8727 C   0  0  0  0  0  0  0  0  0  0  0  0
   10.7295    1.2253   11.1399 C   0  0  0  0  0  0  0  0  0  0  0  0
    9.6613    1.0921   11.2323 H   0  0  0  0  0  0  0  0  0  0  0  0
   11.5266    1.2556   12.2658 C   0  0  0  0  0  0  0  0  0  0  0  0
   11.0834    1.1132   13.2405 H   0  0  0  0  0  0  0  0  0  0  0  0
   12.8901    1.4808   12.1500 C   0  0  0  0  0  0  0  0  0  0  0  0
   13.5111    1.5036   13.0330 H   0  0  0  0  0  0  0  0  0  0  0  0
   13.4496    1.6914   10.9002 C   0  0  0  0  0  0  0  0  0  0  0  0
   14.5094    1.8783   10.8084 H   0  0  0  0  0  0  0  0  0  0  0  0
   12.6579    1.6671    9.7682 C   0  0  0  0  0  0  0  0  0  0  0  0
   13.0974    1.8314    8.7968 H   0  0  0  0  0  0  0  0  0  0  0  0
  1  6  1  0  0  0  0
  1  3  1  0  0  0  0
  2  1  1  0  0  0  0
  4  7  2  0  0  0  0
  5  1  1  0  0  0  0
  6 39  1  0  0  0  0
  7 11  1  0  0  0  0
  8  9  2  0  0  0  0
  8  7  1  0  0  0  0
  9 10  1  0  0  0  0
 10 11  2  0  0  0  0
 11 41  1  0  0  0  0
 12  8  1  0  0  0  0
 13 14  1  0  0  0  0
 13 12  2  0  0  0  0
 15 13  1  0  0  0  0
 16 15  1  0  0  0  0
 17 15  2  0  0  0  0
 17 19  1  0  0  0  0
 18 17  1  0  0  0  0
 19 21  2  0  0  0  0
 20 19  1  0  0  0  0
 21 12  1  0  0  0  0
 21 22  1  0  0  0  0
 23 24  1  6  0  0  0
 23  5  1  0  0  0  0
 23  9  1  0  0  0  0
 25 24  1  0  0  0  0
 26 24  2  0  0  0  0
 26 28  1  0  0  0  0
 27 26  1  0  0  0  0
 28 30  2  0  0  0  0
 29 28  1  0  0  0  0
 30 31  1  0  0  0  0
 30  5  1  0  0  0  0
 32 10  1  1  0  0  0
 32 33  1  0  0  0  0
 32  6  1  0  0  0  0
 33 35  2  0  0  0  0
 34 33  1  0  0  0  0
 35 36  1  0  0  0  0
 35 37  1  0  0  0  0
 37 38  1  0  0  0  0
 39 40  1  0  0  0  0
 39 37  2  0  0  0  0
 41 42  1  0  0  0  0
 42 43  1  0  0  0  0
 42 44  2  0  0  0  0
 44 45  1  0  0  0  0
 46 44  1  0  0  0  0
 46 47  1  0  0  0  0
 48 46  2  0  0  0  0
 49 48  1  0  0  0  0
 50 41  2  0  0  0  0
 50 48  1  0  0  0  0
 51 50  1  0  0  0  0
M  END
$$$$
