CSD_code = SAKBUC | q = 0 | S = 0 | Stoichiometry = C33H26Cl2N3PRu | MND = 6
 OpenBabel04212202093D

 66 73  0  0  1  0  0  0  0  0999 V2000
   21.7177    1.4662    4.3368 Ru  0  0  0  0  0  0  0  0  0  0  0  0
   22.6226    1.9969    6.4607 Cl  0  0  0  0  0  0  0  0  0  0  0  0
   19.5392    1.7003    5.2424 Cl  0  0  0  0  0  0  0  0  0  0  0  0
   23.8460    1.2749    3.4476 P   0  0  0  0  0  4  0  0  0  0  0  0
   21.5122   -0.4958    4.6447 N   0  0  0  0  0  0  0  0  0  0  0  0
   20.8444    1.0491    2.7508 N   0  0  0  0  0  0  0  0  0  0  0  0
   21.5279    3.3225    3.6282 N   0  0  0  0  0  0  0  0  0  0  0  0
   21.8125   -1.2008    5.7307 C   0  0  0  0  0  3  0  0  0  0  0  0
   22.2892   -0.6515    6.5339 H   0  0  0  0  0  0  0  0  0  0  0  0
   21.5275   -2.5467    5.8542 C   0  0  0  0  0  0  0  0  0  0  0  0
   21.7889   -3.0712    6.7587 H   0  0  0  0  0  0  0  0  0  0  0  0
   20.8962   -3.1985    4.8015 C   0  0  0  0  0  0  0  0  0  0  0  0
   20.6647   -4.2508    4.8615 H   0  0  0  0  0  0  0  0  0  0  0  0
   20.5502   -2.4667    3.6827 C   0  0  0  0  0  0  0  0  0  0  0  0
   20.0352   -2.9342    2.8587 H   0  0  0  0  0  0  0  0  0  0  0  0
   20.8527   -1.1070    3.6262 C   0  0  0  0  0  0  0  0  0  0  0  0
   20.4671   -0.2240    2.5338 C   0  0  1  0  0  3  0  0  0  0  0  0
   19.7491   -0.5522    1.3893 C   0  0  0  0  0  0  0  0  0  0  0  0
   19.4434   -1.5690    1.2043 H   0  0  0  0  0  0  0  0  0  0  0  0
   19.4174    0.4541    0.4934 C   0  0  0  0  0  0  0  0  0  0  0  0
   18.8643    0.2181   -0.4020 H   0  0  0  0  0  0  0  0  0  0  0  0
   19.7682    1.7685    0.7657 C   0  0  0  0  0  0  0  0  0  0  0  0
   19.4794    2.5599    0.0938 H   0  0  0  0  0  0  0  0  0  0  0  0
   20.4814    2.0479    1.9259 C   0  0  0  0  0  0  0  0  0  0  0  0
   20.8764    3.3529    2.4363 C   0  0  1  0  0  3  0  0  0  0  0  0
   20.5921    4.5637    1.8066 C   0  0  0  0  0  0  0  0  0  0  0  0
   20.0813    4.5642    0.8570 H   0  0  0  0  0  0  0  0  0  0  0  0
   20.9524    5.7507    2.4129 C   0  0  0  0  0  0  0  0  0  0  0  0
   20.7342    6.6962    1.9405 H   0  0  0  0  0  0  0  0  0  0  0  0
   21.5838    5.7023    3.6506 C   0  0  0  0  0  0  0  0  0  0  0  0
   21.8608    6.6047    4.1709 H   0  0  0  0  0  0  0  0  0  0  0  0
   21.8485    4.4706    4.2166 C   0  0  0  0  0  0  0  0  0  0  0  0
   22.3283    4.3865    5.1846 H   0  0  0  0  0  0  0  0  0  0  0  0
   23.5762    1.0644    1.6629 C   0  0  0  0  0  0  0  0  0  0  0  0
   23.2285   -0.1851    1.1524 C   0  0  0  0  0  0  0  0  0  0  0  0
   23.2713   -1.0548    1.7964 H   0  0  0  0  0  0  0  0  0  0  0  0
   22.8280   -0.3127   -0.1645 C   0  0  0  0  0  0  0  0  0  0  0  0
   22.5696   -1.2860   -0.5555 H   0  0  0  0  0  0  0  0  0  0  0  0
   22.7462    0.8054   -0.9788 C   0  0  0  0  0  0  0  0  0  0  0  0
   22.4307    0.7032   -2.0063 H   0  0  0  0  0  0  0  0  0  0  0  0
   23.0585    2.0552   -0.4696 C   0  0  0  0  0  0  0  0  0  0  0  0
   22.9811    2.9307   -1.0978 H   0  0  0  0  0  0  0  0  0  0  0  0
   23.4613    2.1876    0.8464 C   0  0  0  0  0  0  0  0  0  0  0  0
   23.6940    3.1652    1.2497 H   0  0  0  0  0  0  0  0  0  0  0  0
   25.0984    2.5966    3.5437 C   0  0  0  0  0  0  0  0  0  0  0  0
   25.1437    3.3964    4.6803 C   0  0  0  0  0  0  0  0  0  0  0  0
   24.4224    3.2326    5.4707 H   0  0  0  0  0  0  0  0  0  0  0  0
   26.1242    4.3661    4.8004 C   0  0  0  0  0  0  0  0  0  0  0  0
   26.1560    4.9884    5.6823 H   0  0  0  0  0  0  0  0  0  0  0  0
   27.0653    4.5330    3.7985 C   0  0  0  0  0  0  0  0  0  0  0  0
   27.8290    5.2914    3.8917 H   0  0  0  0  0  0  0  0  0  0  0  0
   27.0383    3.7156    2.6791 C   0  0  0  0  0  0  0  0  0  0  0  0
   27.7834    3.8327    1.9053 H   0  0  0  0  0  0  0  0  0  0  0  0
   26.0640    2.7439    2.5508 C   0  0  0  0  0  0  0  0  0  0  0  0
   26.0516    2.1014    1.6811 H   0  0  0  0  0  0  0  0  0  0  0  0
   24.9098   -0.1118    3.9596 C   0  0  0  0  0  0  0  0  0  0  0  0
   25.6874   -0.8643    3.0864 C   0  0  0  0  0  0  0  0  0  0  0  0
   25.6625   -0.6694    2.0234 H   0  0  0  0  0  0  0  0  0  0  0  0
   26.5005   -1.8665    3.5852 C   0  0  0  0  0  0  0  0  0  0  0  0
   27.1001   -2.4557    2.9062 H   0  0  0  0  0  0  0  0  0  0  0  0
   26.5539   -2.1117    4.9477 C   0  0  0  0  0  0  0  0  0  0  0  0
   27.1896   -2.8980    5.3277 H   0  0  0  0  0  0  0  0  0  0  0  0
   25.8047   -1.3398    5.8213 C   0  0  0  0  0  0  0  0  0  0  0  0
   25.8615   -1.5159    6.8851 H   0  0  0  0  0  0  0  0  0  0  0  0
   24.9873   -0.3379    5.3320 C   0  0  0  0  0  0  0  0  0  0  0  0
   24.4134    0.2938    5.9996 H   0  0  0  0  0  0  0  0  0  0  0  0
  1  5  1  0  0  0  0
  1  3  1  0  0  0  0
  1  2  1  0  0  0  0
  4 45  1  0  0  0  0
  4 56  1  0  0  0  0
  4  1  1  0  0  0  0
  5  8  1  0  0  0  0
  6  1  1  0  0  0  0
  7 32  1  0  0  0  0
  7  1  1  0  0  0  0
  8 10  1  0  0  0  0
  8  9  1  0  0  0  0
 10 11  1  0  0  0  0
 12 13  1  0  0  0  0
 12 10  2  0  0  0  0
 14 12  1  0  0  0  0
 15 14  1  0  0  0  0
 16 14  2  0  0  0  0
 16  5  1  0  0  0  0
 17 18  1  1  0  0  0
 17  6  1  0  0  0  0
 17 16  1  0  0  0  0
 19 18  1  0  0  0  0
 20 22  1  0  0  0  0
 20 18  2  0  0  0  0
 21 20  1  0  0  0  0
 22 24  2  0  0  0  0
 23 22  1  0  0  0  0
 24 25  1  0  0  0  0
 24  6  1  0  0  0  0
 25 26  1  1  0  0  0
 25  7  1  0  0  0  0
 26 28  2  0  0  0  0
 27 26  1  0  0  0  0
 28 30  1  0  0  0  0
 29 28  1  0  0  0  0
 30 31  1  0  0  0  0
 30 32  2  0  0  0  0
 32 33  1  0  0  0  0
 34  4  1  0  0  0  0
 35 34  1  0  0  0  0
 35 36  1  0  0  0  0
 37 35  2  0  0  0  0
 38 37  1  0  0  0  0
 39 41  2  0  0  0  0
 39 37  1  0  0  0  0
 40 39  1  0  0  0  0
 41 43  1  0  0  0  0
 42 41  1  0  0  0  0
 43 44  1  0  0  0  0
 43 34  2  0  0  0  0
 45 46  1  0  0  0  0
 46 48  2  0  0  0  0
 46 47  1  0  0  0  0
 48 49  1  0  0  0  0
 50 51  1  0  0  0  0
 50 48  1  0  0  0  0
 52 50  2  0  0  0  0
 53 52  1  0  0  0  0
 54 52  1  0  0  0  0
 54 45  2  0  0  0  0
 55 54  1  0  0  0  0
 56 65  1  0  0  0  0
 57 59  1  0  0  0  0
 57 56  2  0  0  0  0
 58 57  1  0  0  0  0
 59 61  2  0  0  0  0
 60 59  1  0  0  0  0
 61 62  1  0  0  0  0
 61 63  1  0  0  0  0
 63 64  1  0  0  0  0
 65 63  2  0  0  0  0
 65 66  1  0  0  0  0
M  END
$$$$
