CSD_code = SAKFIW | q = 0 | S = 0 | Stoichiometry = C21H27ClO9RuS3 | MND = 6
 OpenBabel04212202093D

 62 65  0  0  1  0  0  0  0  0999 V2000
   -0.3935    1.8119    9.2865 Ru  0  0  0  0  0  0  0  0  0  0  0  0
    1.3579    0.9605    8.1133 S   0  0  0  0  0  0  0  0  0  0  0  0
    0.6936    1.6958   11.2263 S   0  0  0  0  0  0  0  0  0  0  0  0
   -1.3734   -0.1957    9.4187 S   0  0  0  0  0  0  0  0  0  0  0  0
   -2.1758    2.7339   10.4678 Cl  0  0  0  0  0  0  0  0  0  0  0  0
    0.4517    3.6962    8.8818 O   0  0  0  0  0  0  0  0  0  0  0  0
   -1.3721    2.2440    7.4817 O   0  0  0  0  0  0  0  0  0  0  0  0
   -2.9555    2.0273    5.4272 O   0  0  0  0  0  0  0  0  0  0  0  0
   -2.4863    1.7959    6.2630 H   0  0  0  0  0  0  0  0  0  0  0  0
   -3.0032    5.5398    2.3076 O   0  0  0  0  0  0  0  0  0  0  0  0
   -2.6059    6.3982    2.1146 H   0  0  0  0  0  0  0  0  0  0  0  0
   -0.1319    5.8412    6.0493 O   0  0  0  0  0  0  0  0  0  0  0  0
    4.2952    8.8756    9.2413 O   0  0  0  0  0  0  0  0  0  0  0  0
    4.7483    8.4993   10.0058 H   0  0  0  0  0  0  0  0  0  0  0  0
    0.9410    0.6735    6.7424 O   0  0  0  0  0  1  0  0  0  0  0  0
    2.1029    1.3424   11.0912 O   0  0  0  0  0  1  0  0  0  0  0  0
   -0.5296   -1.2092   10.0502 O   0  0  0  0  0  1  0  0  0  0  0  0
   -0.0153    4.1648    7.7586 C   0  0  0  0  0  0  0  0  0  0  0  0
   -0.9978    3.3808    7.0327 C   0  0  0  0  0  0  0  0  0  0  0  0
   -1.5227    3.9083    5.8152 C   0  0  0  0  0  0  0  0  0  0  0  0
   -2.4965    3.2194    5.0384 C   0  0  2  0  0  3  0  0  0  0  0  0
   -2.9699    3.7923    3.8765 C   0  0  0  0  0  0  0  0  0  0  0  0
   -3.7085    3.2786    3.2855 H   0  0  0  0  0  0  0  0  0  0  0  0
   -2.4973    5.0386    3.4549 C   0  0  0  0  0  0  0  0  0  0  0  0
   -1.5446    5.7215    4.1923 C   0  0  0  0  0  0  0  0  0  0  0  0
   -1.1685    6.6823    3.8756 H   0  0  0  0  0  0  0  0  0  0  0  0
   -1.0569    5.1590    5.3705 C   0  0  0  0  0  0  0  0  0  0  0  0
    0.3995    5.3786    7.2125 C   0  0  0  0  0  0  0  0  0  0  0  0
    1.4081    6.2649    7.7708 C   0  0  0  0  0  0  0  0  0  0  0  0
    2.1859    5.9070    8.8757 C   0  0  0  0  0  0  0  0  0  0  0  0
    2.0330    4.9478    9.3400 H   0  0  0  0  0  0  0  0  0  0  0  0
    3.1462    6.7630    9.3724 C   0  0  0  0  0  0  0  0  0  0  0  0
    3.7398    6.4669   10.2276 H   0  0  0  0  0  0  0  0  0  0  0  0
    3.3603    8.0043    8.7830 C   0  0  0  0  0  0  0  0  0  0  0  0
    2.5926    8.3739    7.6802 C   0  0  0  0  0  0  0  0  0  0  0  0
    2.7653    9.3387    7.2308 H   0  0  0  0  0  0  0  0  0  0  0  0
    1.6363    7.5187    7.1852 C   0  0  0  0  0  0  0  0  0  0  0  0
    1.0473    7.8182    6.3335 H   0  0  0  0  0  0  0  0  0  0  0  0
    2.8367    2.0146    8.0123 C   0  0  0  0  0  0  0  0  0  0  0  0
    3.5822    1.5084    7.4104 H   0  0  0  0  0  0  0  0  0  0  0  0
    3.1724    2.1659    9.0317 H   0  0  0  0  0  0  0  0  0  0  0  0
    2.5561    2.9581    7.5569 H   0  0  0  0  0  0  0  0  0  0  0  0
    2.1905   -0.5375    8.7099 C   0  0  0  0  0  0  0  0  0  0  0  0
    1.4305   -1.2717    8.9565 H   0  0  0  0  0  0  0  0  0  0  0  0
    2.7449   -0.2688    9.6000 H   0  0  0  0  0  0  0  0  0  0  0  0
    2.8336   -0.8986    7.9163 H   0  0  0  0  0  0  0  0  0  0  0  0
    0.0004    0.6679   12.5523 C   0  0  0  0  0  0  0  0  0  0  0  0
   -0.0291   -0.3532   12.1846 H   0  0  0  0  0  0  0  0  0  0  0  0
   -0.9996    1.0393   12.7465 H   0  0  0  0  0  0  0  0  0  0  0  0
    0.6360    0.7442   13.4264 H   0  0  0  0  0  0  0  0  0  0  0  0
    0.6425    3.2945   12.0783 C   0  0  0  0  0  0  0  0  0  0  0  0
    0.9828    4.0388   11.3649 H   0  0  0  0  0  0  0  0  0  0  0  0
    1.2931    3.2555   12.9440 H   0  0  0  0  0  0  0  0  0  0  0  0
   -0.3906    3.4899   12.3428 H   0  0  0  0  0  0  0  0  0  0  0  0
   -3.0232   -0.3682   10.1639 C   0  0  0  0  0  0  0  0  0  0  0  0
   -3.3838   -1.3732    9.9792 H   0  0  0  0  0  0  0  0  0  0  0  0
   -3.6622    0.3863    9.7205 H   0  0  0  0  0  0  0  0  0  0  0  0
   -2.9282   -0.1825   11.2276 H   0  0  0  0  0  0  0  0  0  0  0  0
   -1.7849   -0.8204    7.7630 C   0  0  0  0  0  0  0  0  0  0  0  0
   -0.9575   -0.5733    7.1012 H   0  0  0  0  0  0  0  0  0  0  0  0
   -2.6905   -0.3290    7.4278 H   0  0  0  0  0  0  0  0  0  0  0  0
   -1.9156   -1.8946    7.8277 H   0  0  0  0  0  0  0  0  0  0  0  0
  1  4  1  0  0  0  0
  1  5  1  0  0  0  0
  1  3  1  0  0  0  0
  2 43  1  0  0  0  0
  2  1  1  0  0  0  0
  3 51  1  0  0  0  0
  3 47  1  0  0  0  0
  4 17  1  0  0  0  0
  4 55  1  0  0  0  0
  6  1  1  0  0  0  0
  7  1  1  0  0  0  0
  8  9  1  0  0  0  0
 10 24  1  0  0  0  0
 11 10  1  0  0  0  0
 12 28  1  0  0  0  0
 13 14  1  0  0  0  0
 15  2  1  0  0  0  0
 16  3  1  0  0  0  0
 18  6  1  0  0  0  0
 19  7  1  0  0  0  0
 19 18  1  0  0  0  0
 20 19  2  0  0  0  0
 21  8  1  1  0  0  0
 21 20  1  0  0  0  0
 22 21  1  0  0  0  0
 23 22  1  0  0  0  0
 24 22  2  0  0  0  0
 24 25  1  0  0  0  0
 25 27  2  0  0  0  0
 26 25  1  0  0  0  0
 27 20  1  0  0  0  0
 27 12  1  0  0  0  0
 28 18  2  0  0  0  0
 28 29  1  0  0  0  0
 29 30  1  0  0  0  0
 30 31  1  0  0  0  0
 30 32  2  0  0  0  0
 32 33  1  0  0  0  0
 34 13  1  0  0  0  0
 34 32  1  0  0  0  0
 35 34  2  0  0  0  0
 36 35  1  0  0  0  0
 37 35  1  0  0  0  0
 37 29  2  0  0  0  0
 38 37  1  0  0  0  0
 39  2  1  0  0  0  0
 39 41  1  0  0  0  0
 40 39  1  0  0  0  0
 42 39  1  0  0  0  0
 43 44  1  0  0  0  0
 43 45  1  0  0  0  0
 46 43  1  0  0  0  0
 47 49  1  0  0  0  0
 47 50  1  0  0  0  0
 48 47  1  0  0  0  0
 51 54  1  0  0  0  0
 51 53  1  0  0  0  0
 52 51  1  0  0  0  0
 55 58  1  0  0  0  0
 56 55  1  0  0  0  0
 57 55  1  0  0  0  0
 59 62  1  0  0  0  0
 59  4  1  0  0  0  0
 60 59  1  0  0  0  0
 61 59  1  0  0  0  0
M  END
$$$$
