CSD_code = SAKREB | q = 0 | S = 0 | Stoichiometry = C30H35ClOP2W | MND = 7
 OpenBabel04212202093D

 70 69  0  0  1  0  0  0  0  0999 V2000
    2.8785    2.1665    3.0858 W   0  0  0  0  0  0  0  0  0  0  0  0
    2.2841    3.9220    4.5471 Cl  0  0  0  0  0 15  0  0  0  0  0  0
    4.5999    3.7356    2.2908 P   0  0  0  0  0  0  0  0  0  0  0  0
    0.5785    1.3393    3.3918 P   0  0  0  0  0  0  0  0  0  0  0  0
    3.1276    0.9602    1.4364 C   0  0  1  0  0  3  0  0  0  0  0  0
    3.7202   -0.3803    1.4017 C   0  0  0  0  0  0  0  0  0  0  0  0
    3.0386   -1.4525    0.8135 C   0  0  0  0  0  0  0  0  0  0  0  0
    3.5650   -2.7297    0.8280 C   0  0  0  0  0  0  0  0  0  0  0  0
    4.8003   -2.9711    1.4061 C   0  0  0  0  0  0  0  0  0  0  0  0
    5.5057   -1.9168    1.9652 C   0  0  0  0  0  0  0  0  0  0  0  0
    4.9728   -0.6430    1.9660 C   0  0  0  0  0  0  0  0  0  0  0  0
    1.8582    3.2497    1.5168 C   0  0  0  0  0  3  0  0  0  0  0  0
    1.9442    2.6302    0.1725 C   0  0  0  0  0  0  0  0  0  0  0  0
    1.4262    3.2433   -1.0405 C   0  0  0  0  0  0  0  0  0  0  0  0
    0.3130    4.0892   -1.0092 C   0  0  0  0  0  0  0  0  0  0  0  0
   -0.1545    4.6838   -2.1647 C   0  0  0  0  0  0  0  0  0  0  0  0
    0.4716    4.4512   -3.3783 C   0  0  0  0  0  0  0  0  0  0  0  0
    1.5818    3.6224   -3.4245 C   0  0  0  0  0  0  0  0  0  0  0  0
    2.0558    3.0285   -2.2728 C   0  0  0  0  0  0  0  0  0  0  0  0
    3.3988    0.6981    4.5573 C   0  0  0  0  0  3  0  0  0  0  0  0
    4.4452    1.4255    4.2929 C   0  0  0  0  0  0  0  0  0  0  0  0
    2.9956   -0.3986    5.4009 C   0  0  0  0  0  0  0  0  0  0  0  0
    2.9489   -1.7054    4.9061 C   0  0  0  0  0  0  0  0  0  0  0  0
    2.5511   -2.7456    5.7238 C   0  0  0  0  0  0  0  0  0  0  0  0
    2.1879   -2.5064    7.0398 C   0  0  0  0  0  0  0  0  0  0  0  0
    2.2372   -1.2152    7.5406 C   0  0  0  0  0  0  0  0  0  0  0  0
    2.6381   -0.1685    6.7331 C   0  0  0  0  0  0  0  0  0  0  0  0
    5.5481    4.5737    3.6180 C   0  0  0  0  0  0  0  0  0  0  0  0
    5.9438    3.0599    1.2434 C   0  0  0  0  0  0  0  0  0  0  0  0
    4.1130    5.1985    1.3004 C   0  0  0  0  0  0  0  0  0  0  0  0
   -0.7857    2.1303    2.4564 C   0  0  0  0  0  0  0  0  0  0  0  0
    0.2324   -0.4239    3.0394 C   0  0  0  0  0  0  0  0  0  0  0  0
   -0.0763    1.5006    5.0965 C   0  0  0  0  0  0  0  0  0  0  0  0
    2.5880    1.4149    0.2093 C   0  0  0  0  0  0  0  0  0  0  0  0
    1.2560    4.3051    1.7172 O   0  0  0  0  0  0  0  0  0  0  0  0
    2.0734   -1.2793    0.3573 H   0  0  0  0  0  0  0  0  0  0  0  0
    3.0095   -3.5432    0.3826 H   0  0  0  0  0  0  0  0  0  0  0  0
    5.2121   -3.9694    1.4162 H   0  0  0  0  0  0  0  0  0  0  0  0
    6.4772   -2.0932    2.4050 H   0  0  0  0  0  0  0  0  0  0  0  0
    5.5306    0.1776    2.3969 H   0  0  0  0  0  0  0  0  0  0  0  0
   -0.1777    4.2815   -0.0688 H   0  0  0  0  0  0  0  0  0  0  0  0
   -1.0177    5.3330   -2.1199 H   0  0  0  0  0  0  0  0  0  0  0  0
    0.1022    4.9157   -4.2811 H   0  0  0  0  0  0  0  0  0  0  0  0
    2.0829    3.4438   -4.3658 H   0  0  0  0  0  0  0  0  0  0  0  0
    2.9363    2.4032   -2.3170 H   0  0  0  0  0  0  0  0  0  0  0  0
    5.4633    1.4272    4.6618 H   0  0  0  0  0  0  0  0  0  0  0  0
    3.2403   -1.8917    3.8817 H   0  0  0  0  0  0  0  0  0  0  0  0
    2.5242   -3.7517    5.3304 H   0  0  0  0  0  0  0  0  0  0  0  0
    1.8734   -3.3223    7.6735 H   0  0  0  0  0  0  0  0  0  0  0  0
    1.9637   -1.0232    8.5684 H   0  0  0  0  0  0  0  0  0  0  0  0
    2.6853    0.8394    7.1239 H   0  0  0  0  0  0  0  0  0  0  0  0
    6.0661    3.8367    4.2287 H   0  0  0  0  0  0  0  0  0  0  0  0
    4.8445    5.1175    4.2485 H   0  0  0  0  0  0  0  0  0  0  0  0
    6.2715    5.2686    3.1913 H   0  0  0  0  0  0  0  0  0  0  0  0
    6.5085    2.3194    1.8059 H   0  0  0  0  0  0  0  0  0  0  0  0
    6.6117    3.8566    0.9171 H   0  0  0  0  0  0  0  0  0  0  0  0
    5.4992    2.5739    0.3761 H   0  0  0  0  0  0  0  0  0  0  0  0
    3.3182    5.7311    1.8230 H   0  0  0  0  0  0  0  0  0  0  0  0
    3.7286    4.8777    0.3329 H   0  0  0  0  0  0  0  0  0  0  0  0
    4.9699    5.8576    1.1565 H   0  0  0  0  0  0  0  0  0  0  0  0
   -0.7717    3.2035    2.6459 H   0  0  0  0  0  0  0  0  0  0  0  0
   -1.7451    1.7121    2.7634 H   0  0  0  0  0  0  0  0  0  0  0  0
   -0.6375    1.9657    1.3894 H   0  0  0  0  0  0  0  0  0  0  0  0
    0.8718   -1.0546    3.6538 H   0  0  0  0  0  0  0  0  0  0  0  0
    0.4483   -0.6217    1.9916 H   0  0  0  0  0  0  0  0  0  0  0  0
   -0.8133   -0.6512    3.2457 H   0  0  0  0  0  0  0  0  0  0  0  0
    0.5235    0.8967    5.7765 H   0  0  0  0  0  0  0  0  0  0  0  0
   -1.1149    1.1713    5.1374 H   0  0  0  0  0  0  0  0  0  0  0  0
   -0.0111    2.5454    5.4001 H   0  0  0  0  0  0  0  0  0  0  0  0
    2.6809    0.8174   -0.6947 H   0  0  0  0  0  0  0  0  0  0  0  0
  1 21  1  0  0  0  0
  3 28  1  0  0  0  0
  4 33  1  0  0  0  0
  5 34  1  1  0  0  0
  5  1  1  0  0  0  0
  6  5  1  0  0  0  0
  6 11  1  0  0  0  0
  7  8  1  0  0  0  0
  7  6  2  0  0  0  0
  8  9  2  0  0  0  0
  9 38  1  0  0  0  0
  9 10  1  0  0  0  0
 10 11  2  0  0  0  0
 10 39  1  0  0  0  0
 11 40  1  0  0  0  0
 12 35  2  0  0  0  0
 13 34  2  0  0  0  0
 13 12  1  0  0  0  0
 14 15  1  0  0  0  0
 14 13  1  0  0  0  0
 15 41  1  0  0  0  0
 16 42  1  0  0  0  0
 16 15  2  0  0  0  0
 17 16  1  0  0  0  0
 18 17  2  0  0  0  0
 18 19  1  0  0  0  0
 19 14  2  0  0  0  0
 20 22  1  0  0  0  0
 21 20  2  0  0  0  0
 21 46  1  0  0  0  0
 22 27  1  0  0  0  0
 23 22  2  0  0  0  0
 23 24  1  0  0  0  0
 24 25  2  0  0  0  0
 25 26  1  0  0  0  0
 25 49  1  0  0  0  0
 26 50  1  0  0  0  0
 27 51  1  0  0  0  0
 27 26  2  0  0  0  0
 28 52  1  0  0  0  0
 28 53  1  0  0  0  0
 29 55  1  0  0  0  0
 29  3  1  0  0  0  0
 30 58  1  0  0  0  0
 30  3  1  0  0  0  0
 31 61  1  0  0  0  0
 31 62  1  0  0  0  0
 31  4  1  0  0  0  0
 32 66  1  0  0  0  0
 32  4  1  0  0  0  0
 32 64  1  0  0  0  0
 33 68  1  0  0  0  0
 33 69  1  0  0  0  0
 33 67  1  0  0  0  0
 36  7  1  0  0  0  0
 37  8  1  0  0  0  0
 43 17  1  0  0  0  0
 44 18  1  0  0  0  0
 45 19  1  0  0  0  0
 47 23  1  0  0  0  0
 48 24  1  0  0  0  0
 54 28  1  0  0  0  0
 56 29  1  0  0  0  0
 57 29  1  0  0  0  0
 59 30  1  0  0  0  0
 60 30  1  0  0  0  0
 63 31  1  0  0  0  0
 65 32  1  0  0  0  0
 70 34  1  0  0  0  0
M  END
$$$$
