CSD_code = SALDUF | q = 0 | S = 0 | Stoichiometry = C13H23ClNPPtSe | MND = 4
 OpenBabel04212202093D

 41 42  0  0  1  0  0  0  0  0999 V2000
    0.4220    3.4483    2.7216 Pt  0  0  1  0  0  0  0  0  0  0  0  0
    0.2187    5.2555    4.2637 Se  0  0  0  0  0  0  0  0  0  0  0  0
    0.7080    1.6057    1.2665 Cl  0  0  0  0  0  0  0  0  0  0  0  0
   -0.5059    1.8459    4.0110 P   0  0  0  0  0  4  0  0  0  0  0  0
    1.3835    4.8066    1.3802 N   0  0  0  0  0  4  0  0  0  0  0  0
   -1.8815    0.9127    3.2465 C   0  0  0  0  0  0  0  0  0  0  0  0
   -2.2692    0.1888    3.9631 H   0  0  0  0  0  0  0  0  0  0  0  0
   -1.5143    0.4032    2.3582 H   0  0  0  0  0  0  0  0  0  0  0  0
   -2.6736    1.6019    2.9591 H   0  0  0  0  0  0  0  0  0  0  0  0
    0.6574    0.5294    4.5014 C   0  0  0  0  0  0  0  0  0  0  0  0
    0.1406   -0.2339    5.0821 H   0  0  0  0  0  0  0  0  0  0  0  0
    1.4719    0.9611    5.0813 H   0  0  0  0  0  0  0  0  0  0  0  0
    1.0661    0.0873    3.5942 H   0  0  0  0  0  0  0  0  0  0  0  0
    1.2829    6.2324    1.7883 C   0  0  1  0  0  0  0  0  0  0  0  0
    0.2460    6.5268    1.5784 H   0  0  0  0  0  0  0  0  0  0  0  0
    1.5016    6.3937    3.2831 C   0  0  0  0  0  0  0  0  0  0  0  0
    1.3204    7.4269    3.5841 H   0  0  0  0  0  0  0  0  0  0  0  0
    2.5145    6.1218    3.5846 H   0  0  0  0  0  0  0  0  0  0  0  0
    0.7825    4.6266    0.0554 C   0  0  0  0  0  0  0  0  0  0  0  0
    1.2975    5.2220   -0.7057 H   0  0  0  0  0  0  0  0  0  0  0  0
   -0.2686    4.9206    0.0840 H   0  0  0  0  0  0  0  0  0  0  0  0
    0.8435    3.5775   -0.2322 H   0  0  0  0  0  0  0  0  0  0  0  0
    2.7689    4.3271    1.3532 C   0  0  0  0  0  0  0  0  0  0  0  0
    3.3612    4.8516    0.5966 H   0  0  0  0  0  0  0  0  0  0  0  0
    2.7728    3.2630    1.1108 H   0  0  0  0  0  0  0  0  0  0  0  0
    3.2340    4.4649    2.3307 H   0  0  0  0  0  0  0  0  0  0  0  0
    2.2182    7.1799    1.0300 C   0  0  0  0  0  0  0  0  0  0  0  0
    1.9325    8.2040    1.2572 H   0  0  0  0  0  0  0  0  0  0  0  0
    2.1488    7.0477   -0.0469 H   0  0  0  0  0  0  0  0  0  0  0  0
    3.2523    7.0451    1.3386 H   0  0  0  0  0  0  0  0  0  0  0  0
   -1.2815    2.4130    5.5545 C   0  0  0  0  0  0  0  0  0  0  0  0
   -2.2870    3.3680    5.4264 C   0  0  0  0  0  0  0  0  0  0  0  0
   -2.5426    3.7304    4.4384 H   0  0  0  0  0  0  0  0  0  0  0  0
   -2.9328    3.8597    6.5437 C   0  0  0  0  0  0  0  0  0  0  0  0
   -3.7096    4.6020    6.4364 H   0  0  0  0  0  0  0  0  0  0  0  0
   -2.5738    3.4056    7.8029 C   0  0  0  0  0  0  0  0  0  0  0  0
   -3.0718    3.7914    8.6801 H   0  0  0  0  0  0  0  0  0  0  0  0
   -1.5666    2.4659    7.9373 C   0  0  0  0  0  0  0  0  0  0  0  0
   -1.2790    2.1198    8.9196 H   0  0  0  0  0  0  0  0  0  0  0  0
   -0.9183    1.9704    6.8187 C   0  0  0  0  0  0  0  0  0  0  0  0
   -0.1278    1.2453    6.9400 H   0  0  0  0  0  0  0  0  0  0  0  0
  1  3  1  1  0  0  0
  1  4  1  0  0  0  0
  1  2  1  0  0  0  0
  4 10  1  0  0  0  0
  4 31  1  0  0  0  0
  5 14  1  0  0  0  0
  5  1  1  0  0  0  0
  6  7  1  0  0  0  0
  6  4  1  0  0  0  0
  8  6  1  0  0  0  0
  9  6  1  0  0  0  0
 10 12  1  0  0  0  0
 10 11  1  0  0  0  0
 13 10  1  0  0  0  0
 14 15  1  6  0  0  0
 14 16  1  0  0  0  0
 16 17  1  0  0  0  0
 16 18  1  0  0  0  0
 16  2  1  0  0  0  0
 19 21  1  0  0  0  0
 19  5  1  0  0  0  0
 20 19  1  0  0  0  0
 22 19  1  0  0  0  0
 23  5  1  0  0  0  0
 23 26  1  0  0  0  0
 24 23  1  0  0  0  0
 25 23  1  0  0  0  0
 27 28  1  0  0  0  0
 27 30  1  0  0  0  0
 27 14  1  0  0  0  0
 29 27  1  0  0  0  0
 31 40  1  0  0  0  0
 32 31  2  0  0  0  0
 32 34  1  0  0  0  0
 33 32  1  0  0  0  0
 34 36  2  0  0  0  0
 35 34  1  0  0  0  0
 36 38  1  0  0  0  0
 36 37  1  0  0  0  0
 38 39  1  0  0  0  0
 40 41  1  0  0  0  0
 40 38  2  0  0  0  0
M  END
$$$$
