CSD_code = SALNEY | q = -1 | S = 0 | Stoichiometry = C8H6Cl2N3O7PdS(1-) | MND = 4
 OpenBabel04212202093D

 28 29  0  0  1  0  0  0  0  0999 V2000
    3.5382    3.0583    2.6915 Pd  0  0  0  0  0  0  0  0  0  0  0  0
    4.8108    1.4067    1.7448 Cl  0  0  0  0  0  0  0  0  0  0  0  0
    1.9418    2.9716    1.1519 Cl  0  0  0  0  0  0  0  0  0  0  0  0
    5.2031    3.0726    4.1918 S   0  0  0  0  0  0  0  0  0  0  0  0
    5.0762    4.0304    5.2911 O   0  0  0  0  0  1  0  0  0  0  0  0
    4.5612    5.5621    2.0542 O   0  0  0  0  0  0  0  0  0  0  0  0
    3.9178    7.5748    2.4608 O   0  0  0  0  0  0  0  0  0  0  0  0
   -0.1019    7.5256    7.0782 O   0  0  0  0  0  0  0  0  0  0  0  0
    0.9534    9.0138    5.9014 O   0  0  0  0  0  0  0  0  0  0  0  0
    0.6166    2.9076    6.1613 O   0  0  0  0  0  0  0  0  0  0  0  0
    2.0812    2.0545    4.8350 O   0  0  0  0  0  0  0  0  0  0  0  0
    3.8413    6.3761    2.6275 N   0  0  0  0  0  0  0  0  0  0  0  0
    0.6732    7.8632    6.1976 N   0  0  0  0  0  0  0  0  0  0  0  0
    1.4600    3.0092    5.2958 N   0  0  0  0  0  0  0  0  0  0  0  0
    2.6843    4.4544    3.6904 C   0  0  0  0  0  0  0  0  0  0  0  0
    2.9143    5.8618    3.5554 C   0  0  1  0  0  3  0  0  0  0  0  0
    2.1744    6.5788    4.4562 C   0  0  1  0  0  3  0  0  0  0  0  0
    1.3011    6.8486    5.4775 C   0  0  2  0  0  3  0  0  0  0  0  0
    1.4036    5.4911    5.3167 C   0  0  1  0  0  3  0  0  0  0  0  0
    1.7991    4.2855    4.8039 C   0  0  2  0  0  3  0  0  0  0  0  0
    5.5233    1.4508    4.9518 C   0  0  0  0  0  0  0  0  0  0  0  0
    6.8352    3.3597    3.4408 C   0  0  0  0  0  0  0  0  0  0  0  0
    5.7543    0.7592    4.1498 H   0  0  0  0  0  0  0  0  0  0  0  0
    4.6054    1.1557    5.4510 H   0  0  0  0  0  0  0  0  0  0  0  0
    6.3356    1.5479    5.6625 H   0  0  0  0  0  0  0  0  0  0  0  0
    7.0148    2.5540    2.7386 H   0  0  0  0  0  0  0  0  0  0  0  0
    7.5818    3.4007    4.2252 H   0  0  0  0  0  0  0  0  0  0  0  0
    6.7724    4.3087    2.9163 H   0  0  0  0  0  0  0  0  0  0  0  0
  1 15  2  0  0  0  0
  1  4  1  0  0  0  0
  2  1  1  0  0  0  0
  3  1  1  0  0  0  0
  4 21  1  0  0  0  0
  4  5  1  0  0  0  0
  6 12  2  0  0  0  0
  7 12  2  0  0  0  0
  9 13  2  0  0  0  0
 11 14  2  0  0  0  0
 13  8  2  0  0  0  0
 14 10  2  0  0  0  0
 15 20  1  0  0  0  0
 16 12  1  1  0  0  0
 16 15  1  0  0  0  0
 16 17  1  0  0  0  0
 17 19  1  0  0  0  0
 17 18  1  0  0  0  0
 18 13  1  0  0  0  0
 19 18  1  0  0  0  0
 20 14  1  0  0  0  0
 20 19  1  0  0  0  0
 21 24  1  0  0  0  0
 21 25  1  0  0  0  0
 22  4  1  0  0  0  0
 22 27  1  0  0  0  0
 23 21  1  0  0  0  0
 26 22  1  0  0  0  0
 28 22  1  0  0  0  0
M  END
$$$$
