CSD_code = SALVAD | q = 0 | S = 0 | Stoichiometry = C8H16Cl2N8Zn | MND = 4
 OpenBabel04212202093D

 35 36  0  0  1  0  0  0  0  0999 V2000
    1.3507    2.0882    2.5491 Zn  0  0  0  0  0  0  0  0  0  0  0  0
    0.8625    4.1974    2.0180 Cl  0  0  0  0  0  0  0  0  0  0  0  0
    3.5035    1.6049    2.8945 Cl  0  0  0  0  0  0  0  0  0  0  0  0
    0.7858    1.6500    4.4577 N   0  0  0  0  0  0  0  0  0  0  0  0
    0.5274    0.3585    4.7253 N   0  0  0  0  0  0  0  0  0  0  0  0
    1.8327    1.1400    6.2807 N   0  0  0  0  0  0  0  0  0  0  0  0
    2.5984    1.2497    7.4333 N   0  0  0  0  0  0  0  0  0  0  0  0
    3.4094    1.8359    7.2474 H   0  0  0  0  0  0  0  0  0  0  0  0
    2.9052    0.3250    7.7230 H   0  0  0  0  0  0  0  0  0  0  0  0
    0.6991    1.3100    0.7807 N   0  0  0  0  0  0  0  0  0  0  0  0
   -0.6037    1.0029    0.6660 N   0  0  0  0  0  0  0  0  0  0  0  0
    0.0164    2.0714   -1.1251 N   0  0  0  0  0  0  0  0  0  0  0  0
    0.0119    2.6551   -2.3848 N   0  0  0  0  0  0  0  0  0  0  0  0
    0.6106    3.4780   -2.3799 H   0  0  0  0  0  0  0  0  0  0  0  0
   -0.9373    2.9251   -2.6281 H   0  0  0  0  0  0  0  0  0  0  0  0
    1.1521    0.0444    5.8213 C   0  0  0  0  0  0  0  0  0  0  0  0
    1.5693    2.1315    5.3999 C   0  0  1  0  0  3  0  0  0  0  0  0
    1.1609   -1.2746    6.4906 C   0  0  0  0  0  0  0  0  0  0  0  0
    0.7964   -1.1896    7.5140 H   0  0  0  0  0  0  0  0  0  0  0  0
    2.1691   -1.6906    6.5066 H   0  0  0  0  0  0  0  0  0  0  0  0
    0.5153   -1.9449    5.9327 H   0  0  0  0  0  0  0  0  0  0  0  0
    2.1125    3.4999    5.4951 C   0  0  0  0  0  0  0  0  0  0  0  0
    2.0107    3.8822    6.5096 H   0  0  0  0  0  0  0  0  0  0  0  0
    1.5821    4.1472    4.8013 H   0  0  0  0  0  0  0  0  0  0  0  0
    3.1668    3.4963    5.2127 H   0  0  0  0  0  0  0  0  0  0  0  0
   -1.0218    1.4550   -0.4791 C   0  0  0  0  0  0  0  0  0  0  0  0
    1.0838    1.9501   -0.3034 C   0  0  1  0  0  3  0  0  0  0  0  0
   -2.3908    1.3497   -1.0290 C   0  0  0  0  0  0  0  0  0  0  0  0
   -2.3802    0.8367   -1.9903 H   0  0  0  0  0  0  0  0  0  0  0  0
   -2.8301    2.3394   -1.1605 H   0  0  0  0  0  0  0  0  0  0  0  0
   -2.9986    0.7880   -0.3274 H   0  0  0  0  0  0  0  0  0  0  0  0
    2.4281    2.4839   -0.5942 C   0  0  0  0  0  0  0  0  0  0  0  0
    2.7192    2.2519   -1.6175 H   0  0  0  0  0  0  0  0  0  0  0  0
    3.1449    2.0518    0.0996 H   0  0  0  0  0  0  0  0  0  0  0  0
    2.4326    3.5658   -0.4504 H   0  0  0  0  0  0  0  0  0  0  0  0
  1  3  1  0  0  0  0
  1  4  1  0  0  0  0
  2  1  1  0  0  0  0
  4  5  1  0  0  0  0
  4 17  1  0  0  0  0
  5 16  2  0  0  0  0
  6  7  1  0  0  0  0
  7  9  1  0  0  0  0
  8  7  1  0  0  0  0
 10  1  1  0  0  0  0
 11 10  1  0  0  0  0
 12 26  1  0  0  0  0
 12 27  1  0  0  0  0
 13 14  1  0  0  0  0
 13 12  1  0  0  0  0
 15 13  1  0  0  0  0
 16  6  1  0  0  0  0
 16 18  1  0  0  0  0
 17 22  1  6  0  0  0
 17  6  1  0  0  0  0
 18 20  1  0  0  0  0
 18 19  1  0  0  0  0
 21 18  1  0  0  0  0
 22 23  1  0  0  0  0
 24 22  1  0  0  0  0
 25 22  1  0  0  0  0
 26 11  2  0  0  0  0
 27 32  1  1  0  0  0
 27 10  1  0  0  0  0
 28 26  1  0  0  0  0
 28 31  1  0  0  0  0
 29 28  1  0  0  0  0
 30 28  1  0  0  0  0
 32 35  1  0  0  0  0
 32 34  1  0  0  0  0
 33 32  1  0  0  0  0
M  END
$$$$
