CSD_code = SAMCOY | q = 0 | S = 0 | Stoichiometry = C14H12ClMoNOS4 | MND = 6
 OpenBabel04212202093D

 34 38  0  0  0  0  0  0  0  0999 V2000
   -2.1476    1.6028   15.1538 Mo  0  0  0  0  0  0  0  0  0  0  0  0
   -0.6584    3.3303   15.1134 Cl  0  0  0  0  0  0  0  0  0  0  0  0
   -3.5743    2.4675   15.6601 N   0  0  0  0  0  2  0  0  0  0  0  0
   -4.5623    2.9924   15.9955 O   0  0  0  0  0  1  0  0  0  0  0  0
   -1.8286    0.5557   17.2727 S   0  0  0  0  0  0  0  0  0  0  0  0
   -0.2380    0.1165   14.4129 S   0  0  1  0  0  3  0  0  0  0  0  0
   -3.5993   -0.4914   14.8027 S   0  0  1  0  0  3  0  0  0  0  0  0
   -2.5762    1.7606   12.6922 S   0  0  0  0  0  0  0  0  0  0  0  0
    0.2692   -0.6877   15.9240 C   0  0  0  0  0  0  0  0  0  0  0  0
    1.3805   -1.5165   15.8759 C   0  0  0  0  0  0  0  0  0  0  0  0
    1.8283   -2.1422   17.0237 C   0  0  0  0  0  0  0  0  0  0  0  0
    1.1635   -1.9290   18.2238 C   0  0  0  0  0  0  0  0  0  0  0  0
    0.0593   -1.1037   18.2733 C   0  0  0  0  0  0  0  0  0  0  0  0
   -0.4045   -0.4622   17.1232 C   0  0  0  0  0  0  0  0  0  0  0  0
   -4.3718   -0.2637   13.2121 C   0  0  0  0  0  0  0  0  0  0  0  0
   -5.4381   -1.0884   12.8834 C   0  0  0  0  0  0  0  0  0  0  0  0
   -6.0861   -0.9302   11.6743 C   0  0  0  0  0  0  0  0  0  0  0  0
   -5.6678    0.0663   10.8002 C   0  0  0  0  0  0  0  0  0  0  0  0
   -4.6142    0.8908   11.1285 C   0  0  0  0  0  0  0  0  0  0  0  0
   -3.9477    0.7502   12.3502 C   0  0  0  0  0  0  0  0  0  0  0  0
   -1.1577   -1.2568   13.6113 C   0  0  0  0  0  0  0  0  0  0  0  0
   -2.3291   -1.7673   14.4189 C   0  0  0  0  0  0  0  0  0  0  0  0
    1.8906   -1.6549   14.9344 H   0  0  0  0  0  0  0  0  0  0  0  0
    2.6944   -2.7839   16.9844 H   0  0  0  0  0  0  0  0  0  0  0  0
    1.5115   -2.4088   19.1257 H   0  0  0  0  0  0  0  0  0  0  0  0
   -0.4656   -0.9299   19.1995 H   0  0  0  0  0  0  0  0  0  0  0  0
   -5.7497   -1.8448   13.5876 H   0  0  0  0  0  0  0  0  0  0  0  0
   -6.9144   -1.5710   11.4172 H   0  0  0  0  0  0  0  0  0  0  0  0
   -6.1742    0.2011    9.8565 H   0  0  0  0  0  0  0  0  0  0  0  0
   -4.2860    1.6684   10.4569 H   0  0  0  0  0  0  0  0  0  0  0  0
   -0.4393   -2.0615   13.4432 H   0  0  0  0  0  0  0  0  0  0  0  0
   -1.4802   -0.8489   12.6501 H   0  0  0  0  0  0  0  0  0  0  0  0
   -2.8439   -2.5645   13.8808 H   0  0  0  0  0  0  0  0  0  0  0  0
   -2.0079   -2.1360   15.3968 H   0  0  0  0  0  0  0  0  0  0  0  0
  1  3  1  0  0  0  0
  1  5  1  0  0  0  0
  2  1  1  0  0  0  0
  3  4  1  0  0  0  0
  6  1  1  0  0  0  0
  6  9  1  1  0  0  0
  7 15  1  6  0  0  0
  7  1  1  0  0  0  0
  8  1  1  0  0  0  0
  9 14  1  0  0  0  0
 10  9  2  0  0  0  0
 10 11  1  0  0  0  0
 11 12  2  0  0  0  0
 12 13  1  0  0  0  0
 12 25  1  0  0  0  0
 13 26  1  0  0  0  0
 14  5  1  0  0  0  0
 14 13  2  0  0  0  0
 16 15  1  0  0  0  0
 16 27  1  0  0  0  0
 17 16  2  0  0  0  0
 18 19  2  0  0  0  0
 18 17  1  0  0  0  0
 19 20  1  0  0  0  0
 20  8  1  0  0  0  0
 20 15  2  0  0  0  0
 21  6  1  0  0  0  0
 21 22  1  0  0  0  0
 22  7  1  0  0  0  0
 22 34  1  0  0  0  0
 23 10  1  0  0  0  0
 24 11  1  0  0  0  0
 28 17  1  0  0  0  0
 29 18  1  0  0  0  0
 30 19  1  0  0  0  0
 31 21  1  0  0  0  0
 32 21  1  0  0  0  0
 33 22  1  0  0  0  0
M  END
$$$$
