CSD_code = SAMHUL | q = 0 | S = 0 | Stoichiometry = C21H30BrCuN12Se3 | MND = 4
 OpenBabel04212202093D

 68 73  0  0  1  0  0  0  0  0999 V2000
    6.3846   16.2650    1.0358 C   0  0  2  0  0  3  0  0  0  0  0  0
    5.9291   10.9908    1.1010 C   0  0  0  0  0  0  0  0  0  0  0  0
    6.1302   13.2329    1.0382 C   0  0  2  0  0  3  0  0  0  0  0  0
    5.8069    8.5912    1.1257 C   0  0  0  0  0  0  0  0  0  0  0  0
    5.1088    7.8814    1.5726 H   0  0  0  0  0  0  0  0  0  0  0  0
    6.7103    8.6410    1.7368 H   0  0  0  0  0  0  0  0  0  0  0  0
    6.1771    8.1580   -0.2901 C   0  0  0  0  0  0  0  0  0  0  0  0
    5.3002    8.1506   -0.9337 H   0  0  0  0  0  0  0  0  0  0  0  0
    6.6069    7.1606   -0.2721 H   0  0  0  0  0  0  0  0  0  0  0  0
    6.9104    8.8457   -0.7023 H   0  0  0  0  0  0  0  0  0  0  0  0
    3.7347    9.9903    1.1418 C   0  0  0  0  0  0  0  0  0  0  0  0
    3.4552   10.9338    0.6700 H   0  0  0  0  0  0  0  0  0  0  0  0
    3.3369    9.1606    0.5518 H   0  0  0  0  0  0  0  0  0  0  0  0
    3.1822    9.9473    2.5636 C   0  0  0  0  0  0  0  0  0  0  0  0
    3.4699    9.0262    3.0654 H   0  0  0  0  0  0  0  0  0  0  0  0
    2.0978   10.0069    2.5397 H   0  0  0  0  0  0  0  0  0  0  0  0
    3.5651   10.7890    3.1339 H   0  0  0  0  0  0  0  0  0  0  0  0
    5.7677   17.4171    1.0648 N   0  0  0  0  0  0  0  0  0  0  0  0
    5.3325   12.1978    1.0772 N   0  0  0  0  0  0  0  0  0  0  0  0
    7.7039   16.0750    1.0288 N   0  0  0  0  0  0  0  0  0  0  0  0
    5.1790    9.8965    1.1302 N   0  0  0  0  0  0  0  0  0  0  0  0
    8.4119   14.5703    2.2987 Cu  0  0  1  0  0  0  0  0  0  0  0  0
    5.1383   14.8425    0.9044 Se  0  0  0  0  0  0  0  0  0  0  0  0
    8.4115   14.5704    4.5738 Br  0  0  0  0  0  0  0  0  0  0  0  0
    7.9582   11.9669    1.0363 C   0  0  0  0  0  0  0  0  0  0  0  0
   10.8936   15.4787    1.0362 C   0  0  2  0  0  3  0  0  0  0  0  0
   12.7535   14.2095    1.1010 C   0  0  0  0  0  0  0  0  0  0  0  0
    6.5538   18.5102    1.1010 C   0  0  0  0  0  0  0  0  0  0  0  0
   10.7112   13.2626    1.0388 C   0  0  0  0  0  0  0  0  0  0  0  0
    8.3949   17.2150    1.0386 C   0  0  0  0  0  0  0  0  0  0  0  0
   14.8926   15.3035    1.1252 C   0  0  0  0  0  0  0  0  0  0  0  0
    4.5368   19.8158    1.1254 C   0  0  0  0  0  0  0  0  0  0  0  0
   15.8565   15.0540    1.5720 H   0  0  0  0  0  0  0  0  0  0  0  0
    4.2709   20.7753    1.5722 H   0  0  0  0  0  0  0  0  0  0  0  0
   14.3979   16.0612    1.7362 H   0  0  0  0  0  0  0  0  0  0  0  0
    4.1279   19.0085    1.7362 H   0  0  0  0  0  0  0  0  0  0  0  0
   15.0825   15.8404   -0.2908 C   0  0  0  0  0  0  0  0  0  0  0  0
    3.9769   19.7120   -0.2906 C   0  0  0  0  0  0  0  0  0  0  0  0
   15.5273   15.0845   -0.9343 H   0  0  0  0  0  0  0  0  0  0  0  0
    4.4092   20.4752   -0.9340 H   0  0  0  0  0  0  0  0  0  0  0  0
   15.7313   16.7112   -0.2732 H   0  0  0  0  0  0  0  0  0  0  0  0
    2.8983   19.8385   -0.2730 H   0  0  0  0  0  0  0  0  0  0  0  0
   14.1202   16.1315   -0.7030 H   0  0  0  0  0  0  0  0  0  0  0  0
    4.2059   18.7332   -0.7028 H   0  0  0  0  0  0  0  0  0  0  0  0
   14.7171   12.8094    1.1419 C   0  0  0  0  0  0  0  0  0  0  0  0
    6.7845   20.9108    1.1423 C   0  0  0  0  0  0  0  0  0  0  0  0
   14.0397   12.0955    0.6704 H   0  0  0  0  0  0  0  0  0  0  0  0
    7.7415   20.6812    0.6708 H   0  0  0  0  0  0  0  0  0  0  0  0
   15.6345   12.8796    0.5518 H   0  0  0  0  0  0  0  0  0  0  0  0
    6.2651   21.6704    0.5523 H   0  0  0  0  0  0  0  0  0  0  0  0
   15.0308   12.3528    2.5637 C   0  0  0  0  0  0  0  0  0  0  0  0
    7.0231   21.4106    2.5642 C   0  0  0  0  0  0  0  0  0  0  0  0
   15.6847   13.0626    3.0653 H   0  0  0  0  0  0  0  0  0  0  0  0
    6.0815   21.6219    3.0659 H   0  0  0  0  0  0  0  0  0  0  0  0
   15.5214   11.3839    2.5400 H   0  0  0  0  0  0  0  0  0  0  0  0
    7.6169   22.3199    2.5407 H   0  0  0  0  0  0  0  0  0  0  0  0
   14.1105   12.2637    3.1342 H   0  0  0  0  0  0  0  0  0  0  0  0
    7.5604   20.6580    3.1346 H   0  0  0  0  0  0  0  0  0  0  0  0
    7.2688   10.8566    1.0652 N   0  0  0  0  0  0  0  0  0  0  0  0
   12.1998   15.4369    1.0650 N   0  0  0  0  0  0  0  0  0  0  0  0
   12.0065   13.0894    1.0776 N   0  0  0  0  0  0  0  0  0  0  0  0
    7.8973   18.4234    1.0776 N   0  0  0  0  0  0  0  0  0  0  0  0
    7.4630   13.2044    1.0290 N   0  0  0  0  0  0  0  0  0  0  0  0
   10.0695   14.4311    1.0293 N   0  0  0  0  0  0  0  0  0  0  0  0
   14.0762   14.1071    1.1300 N   0  0  0  0  0  0  0  0  0  0  0  0
    5.9811   19.7069    1.1302 N   0  0  0  0  0  0  0  0  0  0  0  0
    9.8132   11.5988    0.9055 Se  0  0  0  0  0  0  0  0  0  0  0  0
   10.2849   17.2692    0.9052 Se  0  0  0  0  0  0  0  0  0  0  0  0
  1 23  1  6  0  0  0
  1 18  1  0  0  0  0
  2 21  1  0  0  0  0
  3 23  1  6  0  0  0
  3 19  1  0  0  0  0
  4 21  1  0  0  0  0
  4  5  1  0  0  0  0
  4  6  1  0  0  0  0
  7  9  1  0  0  0  0
  7  4  1  0  0  0  0
  8  7  1  0  0  0  0
 10  7  1  0  0  0  0
 11 14  1  0  0  0  0
 12 11  1  0  0  0  0
 13 11  1  0  0  0  0
 14 15  1  0  0  0  0
 14 17  1  0  0  0  0
 16 14  1  0  0  0  0
 18 28  2  0  0  0  0
 19  2  2  0  0  0  0
 20  1  1  0  0  0  0
 20 30  1  0  0  0  0
 20 22  1  0  0  0  0
 21 11  1  0  0  0  0
 22 24  1  1  0  0  0
 25 59  2  0  0  0  0
 26 68  1  6  0  0  0
 26 60  1  0  0  0  0
 27 65  1  0  0  0  0
 28 66  1  0  0  0  0
 29 61  2  0  0  0  0
 30 62  2  0  0  0  0
 31 65  1  0  0  0  0
 31 33  1  0  0  0  0
 31 35  1  0  0  0  0
 32 66  1  0  0  0  0
 32 34  1  0  0  0  0
 32 36  1  0  0  0  0
 37 41  1  0  0  0  0
 37 31  1  0  0  0  0
 38 42  1  0  0  0  0
 38 32  1  0  0  0  0
 39 37  1  0  0  0  0
 40 38  1  0  0  0  0
 43 37  1  0  0  0  0
 44 38  1  0  0  0  0
 45 51  1  0  0  0  0
 46 52  1  0  0  0  0
 47 45  1  0  0  0  0
 48 46  1  0  0  0  0
 49 45  1  0  0  0  0
 50 46  1  0  0  0  0
 51 53  1  0  0  0  0
 51 57  1  0  0  0  0
 52 54  1  0  0  0  0
 52 58  1  0  0  0  0
 55 51  1  0  0  0  0
 56 52  1  0  0  0  0
 59  2  1  0  0  0  0
 60 27  2  0  0  0  0
 61 27  1  0  0  0  0
 62 28  1  0  0  0  0
 63 25  1  0  0  0  0
 63  3  1  0  0  0  0
 63 22  1  0  0  0  0
 64 26  1  0  0  0  0
 64 29  1  0  0  0  0
 64 22  1  0  0  0  0
 65 45  1  0  0  0  0
 66 46  1  0  0  0  0
 67 25  1  0  0  0  0
 67 29  1  0  0  0  0
 68 30  1  0  0  0  0
M  END
$$$$
