CSD_code = SAMPOM | q = 0 | S = 0 | Stoichiometry = C24H25ClMoN4O3 | MND = 6
 OpenBabel04212202093D

 58 63  0  0  1  0  0  0  0  0999 V2000
    5.8966    4.5248   15.2383 Mo  0  0  0  0  0  0  0  0  0  0  0  0
    6.6921    2.5127   15.9256 Cl  0  0  0  0  0  0  0  0  0  0  0  0
    5.0769    5.5738   13.9919 O   0  0  0  0  0  0  0  0  0  0  0  0
    4.9530    4.7667   16.5707 O   0  0  0  0  0  1  0  0  0  0  0  0
    7.3390    5.3125   15.3986 O   0  0  0  0  0  1  0  0  0  0  0  0
    5.9268    3.8180   12.0587 N   0  0  1  0  0  0  0  0  0  0  0  0
    6.6691    3.6916   13.1750 N   0  0  0  0  0  0  0  0  0  0  0  0
    3.8719    3.2366   13.0465 N   0  0  2  0  0  0  0  0  0  0  0  0
    4.2417    3.1665   14.3408 N   0  0  0  0  0  0  0  0  0  0  0  0
    4.4397    5.6203   12.7877 C   0  0  0  0  0  0  0  0  0  0  0  0
    4.5346    4.1608   12.1677 C   0  0  1  0  0  0  0  0  0  0  0  0
    6.1588    3.8560    9.5673 C   0  0  0  0  0  0  0  0  0  0  0  0
    6.6958    3.7364   10.9463 C   0  0  2  0  0  3  0  0  0  0  0  0
    7.9845    3.5287   11.3849 C   0  0  0  0  0  0  0  0  0  0  0  0
    7.9246    3.5106   12.7884 C   0  0  0  0  0  0  0  0  0  0  0  0
    9.0325    3.3455   13.7546 C   0  0  0  0  0  0  0  0  0  0  0  0
    2.1807    2.2587   11.4683 C   0  0  0  0  0  0  0  0  0  0  0  0
    2.8064    2.4338   12.8034 C   0  0  1  0  0  3  0  0  0  0  0  0
    2.4864    1.8414   14.0043 C   0  0  0  0  0  0  0  0  0  0  0  0
    3.4096    2.3302   14.9435 C   0  0  0  0  0  0  0  0  0  0  0  0
    3.5045    2.0258   16.3881 C   0  0  0  0  0  0  0  0  0  0  0  0
    2.9716    6.0008   12.9859 C   0  0  0  0  0  0  0  0  0  0  0  0
    2.6169    6.5691   14.2048 C   0  0  0  0  0  0  0  0  0  0  0  0
    1.3037    6.9202   14.4597 C   0  0  0  0  0  0  0  0  0  0  0  0
    0.3268    6.7086   13.5018 C   0  0  0  0  0  0  0  0  0  0  0  0
    0.6718    6.1405   12.2885 C   0  0  0  0  0  0  0  0  0  0  0  0
    1.9852    5.7855   12.0311 C   0  0  0  0  0  0  0  0  0  0  0  0
    5.1864    6.5697   11.8395 C   0  0  0  0  0  0  0  0  0  0  0  0
    4.6718    6.9724   10.6137 C   0  0  0  0  0  0  0  0  0  0  0  0
    5.4158    7.7900    9.7794 C   0  0  0  0  0  0  0  0  0  0  0  0
    6.6801    8.2085   10.1565 C   0  0  0  0  0  0  0  0  0  0  0  0
    7.1926    7.8183   11.3818 C   0  0  0  0  0  0  0  0  0  0  0  0
    6.4512    7.0056   12.2208 C   0  0  0  0  0  0  0  0  0  0  0  0
    4.0796    4.1132   11.1759 H   0  0  0  0  0  0  0  0  0  0  0  0
    5.7425    4.8497    9.4004 H   0  0  0  0  0  0  0  0  0  0  0  0
    5.3824    3.1138    9.3799 H   0  0  0  0  0  0  0  0  0  0  0  0
    6.9644    3.6959    8.8568 H   0  0  0  0  0  0  0  0  0  0  0  0
    8.8577    3.4075   10.7778 H   0  0  0  0  0  0  0  0  0  0  0  0
    9.9913    3.3993   13.2466 H   0  0  0  0  0  0  0  0  0  0  0  0
    8.9433    2.3915   14.2747 H   0  0  0  0  0  0  0  0  0  0  0  0
    8.9598    4.1337   14.5081 H   0  0  0  0  0  0  0  0  0  0  0  0
    1.5863    3.1306   11.1978 H   0  0  0  0  0  0  0  0  0  0  0  0
    1.5207    1.3962   11.4983 H   0  0  0  0  0  0  0  0  0  0  0  0
    2.9324    2.0920   10.6976 H   0  0  0  0  0  0  0  0  0  0  0  0
    1.6950    1.1437   14.1850 H   0  0  0  0  0  0  0  0  0  0  0  0
    3.7755    2.9375   16.9251 H   0  0  0  0  0  0  0  0  0  0  0  0
    2.5596    1.6357   16.7569 H   0  0  0  0  0  0  0  0  0  0  0  0
    4.2938    1.2943   16.5659 H   0  0  0  0  0  0  0  0  0  0  0  0
    3.3849    6.7181   14.9548 H   0  0  0  0  0  0  0  0  0  0  0  0
    1.0445    7.3577   15.4115 H   0  0  0  0  0  0  0  0  0  0  0  0
   -0.6991    6.9809   13.6988 H   0  0  0  0  0  0  0  0  0  0  0  0
   -0.0842    5.9683   11.5359 H   0  0  0  0  0  0  0  0  0  0  0  0
    2.2211    5.3396   11.0754 H   0  0  0  0  0  0  0  0  0  0  0  0
    3.6833    6.6710   10.3048 H   0  0  0  0  0  0  0  0  0  0  0  0
    5.0026    8.0995    8.8305 H   0  0  0  0  0  0  0  0  0  0  0  0
    7.2580    8.8424    9.5009 H   0  0  0  0  0  0  0  0  0  0  0  0
    8.1728    8.1478   11.6906 H   0  0  0  0  0  0  0  0  0  0  0  0
    6.8444    6.7109   13.1876 H   0  0  0  0  0  0  0  0  0  0  0  0
  1  5  1  0  0  0  0
  1  2  1  0  0  0  0
  1  4  1  0  0  0  0
  3  1  1  0  0  0  0
  6 11  1  0  0  0  0
  6  7  1  1  0  0  0
  7  1  1  0  0  0  0
  8  9  1  1  0  0  0
  9 20  1  0  0  0  0
  9  1  1  0  0  0  0
 10 22  1  0  0  0  0
 10  3  1  0  0  0  0
 11 34  1  6  0  0  0
 11 10  1  0  0  0  0
 11  8  1  0  0  0  0
 13 12  1  6  0  0  0
 13 14  1  0  0  0  0
 13  6  1  0  0  0  0
 14 15  2  0  0  0  0
 15  7  1  0  0  0  0
 15 16  1  0  0  0  0
 16 40  1  0  0  0  0
 16 41  1  0  0  0  0
 17 43  1  0  0  0  0
 18 17  1  6  0  0  0
 18  8  1  0  0  0  0
 18 19  1  0  0  0  0
 19 45  1  0  0  0  0
 19 20  2  0  0  0  0
 20 21  1  0  0  0  0
 21 48  1  0  0  0  0
 21 47  1  0  0  0  0
 21 46  1  0  0  0  0
 22 23  1  0  0  0  0
 23 24  2  0  0  0  0
 23 49  1  0  0  0  0
 24 50  1  0  0  0  0
 25 51  1  0  0  0  0
 25 24  1  0  0  0  0
 26 25  2  0  0  0  0
 27 26  1  0  0  0  0
 27 22  2  0  0  0  0
 28 33  1  0  0  0  0
 28 10  1  0  0  0  0
 29 28  2  0  0  0  0
 30 31  2  0  0  0  0
 30 29  1  0  0  0  0
 31 32  1  0  0  0  0
 32 57  1  0  0  0  0
 32 33  2  0  0  0  0
 33 58  1  0  0  0  0
 35 12  1  0  0  0  0
 36 12  1  0  0  0  0
 37 12  1  0  0  0  0
 38 14  1  0  0  0  0
 39 16  1  0  0  0  0
 42 17  1  0  0  0  0
 44 17  1  0  0  0  0
 52 26  1  0  0  0  0
 53 27  1  0  0  0  0
 54 29  1  0  0  0  0
 55 30  1  0  0  0  0
 56 31  1  0  0  0  0
M  END
$$$$
