CSD_code = SAMRII | q = -1 | S = 0 | Stoichiometry = C13H18F4I2NOPRh(1-) | MND = 5
 OpenBabel04212202093D

 41 41  0  0  0  0  0  0  0  0999 V2000
    4.3047    2.5535    5.5381 I   0  0  0  0  0  0  0  0  0  0  0  0
    4.7554   -0.8679    3.7285 I   0  0  0  0  0  0  0  0  0  0  0  0
    3.1912    1.2690    3.4887 Rh  0  0  0  0  0  0  0  0  0  0  0  0
    1.4556    2.7616    3.5385 P   0  0  0  0  0  4  0  0  0  0  0  0
    3.3017    0.9008    0.0851 F   0  0  0  0  0  0  0  0  0  0  0  0
    1.7155   -0.7183   -1.4022 F   0  0  0  0  0  0  0  0  0  0  0  0
   -0.4795   -2.2791    2.2088 F   0  0  0  0  0  0  0  0  0  0  0  0
    1.0277   -0.7293    3.9156 F   0  0  0  0  0  0  0  0  0  0  0  0
    3.6104    3.3002    1.6709 O   0  0  0  0  0  0  0  0  0  0  0  0
    0.6382   -1.4755    0.4217 N   0  0  0  0  0  0  0  0  0  0  0  0
    0.0975    2.1501    4.6443 C   0  0  0  0  0  0  0  0  0  0  0  0
   -0.6312    2.9517    4.8050 H   0  0  0  0  0  0  0  0  0  0  0  0
   -0.4086    1.3320    4.1217 H   0  0  0  0  0  0  0  0  0  0  0  0
    0.6364    1.6515    5.9799 C   0  0  0  0  0  0  0  0  0  0  0  0
    1.3973    0.8834    5.8230 H   0  0  0  0  0  0  0  0  0  0  0  0
   -0.1624    1.2103    6.5751 H   0  0  0  0  0  0  0  0  0  0  0  0
    1.0850    2.4627    6.5511 H   0  0  0  0  0  0  0  0  0  0  0  0
    1.5785    4.4873    4.1927 C   0  0  0  0  0  0  0  0  0  0  0  0
    0.5651    4.9020    4.1657 H   0  0  0  0  0  0  0  0  0  0  0  0
    1.8790    4.4027    5.2410 H   0  0  0  0  0  0  0  0  0  0  0  0
    2.5490    5.4000    3.4609 C   0  0  0  0  0  0  0  0  0  0  0  0
    3.5698    5.0491    3.5875 H   0  0  0  0  0  0  0  0  0  0  0  0
    2.4843    6.4103    3.8649 H   0  0  0  0  0  0  0  0  0  0  0  0
    2.3344    5.4314    2.3953 H   0  0  0  0  0  0  0  0  0  0  0  0
    0.5369    2.9743    1.9418 C   0  0  0  0  0  0  0  0  0  0  0  0
    1.2820    3.2366    1.1868 H   0  0  0  0  0  0  0  0  0  0  0  0
    0.1529    1.9790    1.6876 H   0  0  0  0  0  0  0  0  0  0  0  0
   -0.6056    3.9809    1.9162 C   0  0  0  0  0  0  0  0  0  0  0  0
   -1.3363    3.7758    2.6968 H   0  0  0  0  0  0  0  0  0  0  0  0
   -1.1164    3.9206    0.9555 H   0  0  0  0  0  0  0  0  0  0  0  0
   -0.2387    4.9972    2.0354 H   0  0  0  0  0  0  0  0  0  0  0  0
    2.2168    0.1978    2.0953 C   0  0  0  0  0  0  0  0  0  0  0  0
    2.3698    0.1396    0.7057 C   0  0  0  0  0  0  0  0  0  0  0  0
    1.5748   -0.6909   -0.0664 C   0  0  0  0  0  0  0  0  0  0  0  0
    0.4841   -1.4737    1.7302 C   0  0  0  0  0  0  0  0  0  0  0  0
    1.2349   -0.6814    2.5733 C   0  0  0  0  0  0  0  0  0  0  0  0
    4.1778    2.3821    2.1963 C   0  0  0  0  0  0  0  0  0  0  0  0
    5.6293    2.0539    1.9645 C   0  0  0  0  0  0  0  0  0  0  0  0
    6.0743    2.8583    1.3775 H   0  0  0  0  0  0  0  0  0  0  0  0
    5.7075    1.1197    1.4098 H   0  0  0  0  0  0  0  0  0  0  0  0
    6.1694    1.9394    2.9032 H   0  0  0  0  0  0  0  0  0  0  0  0
  3  4  1  0  0  0  0
  3  2  1  0  0  0  0
  3  1  1  0  0  0  0
  4 18  1  0  0  0  0
  4 11  1  0  0  0  0
  5 33  1  0  0  0  0
  6 34  1  0  0  0  0
  9 37  2  0  0  0  0
 10 35  1  0  0  0  0
 11 12  1  0  0  0  0
 11 14  1  0  0  0  0
 13 11  1  0  0  0  0
 14 17  1  0  0  0  0
 14 16  1  0  0  0  0
 15 14  1  0  0  0  0
 18 20  1  0  0  0  0
 19 18  1  0  0  0  0
 21 22  1  0  0  0  0
 21 23  1  0  0  0  0
 21 18  1  0  0  0  0
 24 21  1  0  0  0  0
 25  4  1  0  0  0  0
 26 25  1  0  0  0  0
 27 25  1  0  0  0  0
 28 25  1  0  0  0  0
 28 31  1  0  0  0  0
 28 29  1  0  0  0  0
 30 28  1  0  0  0  0
 32 36  1  0  0  0  0
 32  3  1  0  0  0  0
 33 32  2  0  0  0  0
 34 10  2  0  0  0  0
 34 33  1  0  0  0  0
 35  7  1  0  0  0  0
 35 36  2  0  0  0  0
 36  8  1  0  0  0  0
 37  3  1  0  0  0  0
 38 37  1  0  0  0  0
 38 41  1  0  0  0  0
 39 38  1  0  0  0  0
 40 38  1  0  0  0  0
M  END
$$$$
