CSD_code = SAMSAA | q = 0 | S = 0 | Stoichiometry = C19H21Cl2N2OPSTi | MND = 8
 OpenBabel04212202093D

 48 50  0  0  1  0  0  0  0  0999 V2000
    1.5716    2.2881    2.3320 Ti  0  0  0  0  0  0  0  0  0  0  0  0
   -0.3059    1.5605    1.4323 Cl  0  0  0  0  0  0  0  0  0  0  0  0
    1.5546    0.6206    3.8103 Cl  0  0  0  0  0  0  0  0  0  0  0  0
    2.8961    1.3058    0.6481 C   0  0  0  0  0  0  0  0  0  0  0  0
    3.6838    1.3191    1.8133 C   0  0  0  0  0  0  0  0  0  0  0  0
    3.8720    2.6629    2.2046 C   0  0  0  0  0  0  0  0  0  0  0  0
    3.2221    3.4850    1.2541 C   0  0  1  0  0  0  0  0  0  0  0  0
    2.6176    2.6419    0.2942 C   0  0  0  0  0  0  0  0  0  0  0  0
    1.0415    3.4479    3.5615 N   0  0  0  0  0  2  0  0  0  0  0  0
    1.0940    4.9518    3.9714 P   0  0  0  0  0  4  0  0  0  0  0  0
    2.7693    5.6453    4.1164 C   0  0  0  0  0  0  0  0  0  0  0  0
    3.6650    4.9244    4.8981 C   0  0  0  0  0  0  0  0  0  0  0  0
    4.9740    5.3540    5.0177 C   0  0  0  0  0  0  0  0  0  0  0  0
    5.3879    6.4978    4.3510 C   0  0  0  0  0  0  0  0  0  0  0  0
    4.4955    7.2120    3.5679 C   0  0  0  0  0  0  0  0  0  0  0  0
    3.1831    6.7873    3.4480 C   0  0  0  0  0  0  0  0  0  0  0  0
    0.2962    5.2057    5.5850 C   0  0  0  0  0  0  0  0  0  0  0  0
   -0.1557    4.0828    6.2632 C   0  0  0  0  0  0  0  0  0  0  0  0
   -0.7746    4.2279    7.4925 C   0  0  0  0  0  0  0  0  0  0  0  0
   -0.9384    5.4923    8.0362 C   0  0  0  0  0  0  0  0  0  0  0  0
   -0.4855    6.6128    7.3559 C   0  0  0  0  0  0  0  0  0  0  0  0
    0.1350    6.4721    6.1277 C   0  0  0  0  0  0  0  0  0  0  0  0
    0.2703    5.9837    2.9206 N   0  0  0  0  0  2  0  0  0  0  0  0
   -0.4380    5.2028    1.7824 S   0  0  0  0  0  0  0  0  0  0  0  0
    0.3893    4.3726    0.9439 O   0  0  0  0  0  1  0  0  0  0  0  0
   -1.8440    4.2473    2.3880 C   0  0  0  0  0  0  0  0  0  0  0  0
   -1.1974    6.4955    0.7634 C   0  0  0  0  0  0  0  0  0  0  0  0
    2.6352    0.4281    0.0685 H   0  0  0  0  0  0  0  0  0  0  0  0
    4.1222    0.4542    2.2953 H   0  0  0  0  0  0  0  0  0  0  0  0
    4.5198    3.0062    3.0023 H   0  0  0  0  0  0  0  0  0  0  0  0
    3.2807    4.5658    1.2028 H   0  0  0  0  0  0  0  0  0  0  0  0
    2.1089    2.9711   -0.6033 H   0  0  0  0  0  0  0  0  0  0  0  0
    3.3147    4.0268    5.3955 H   0  0  0  0  0  0  0  0  0  0  0  0
    5.6745    4.7994    5.6250 H   0  0  0  0  0  0  0  0  0  0  0  0
    6.4114    6.8311    4.4401 H   0  0  0  0  0  0  0  0  0  0  0  0
    4.8253    8.1007    3.0494 H   0  0  0  0  0  0  0  0  0  0  0  0
    2.4674    7.3280    2.8456 H   0  0  0  0  0  0  0  0  0  0  0  0
   -0.0038    3.1102    5.8074 H   0  0  0  0  0  0  0  0  0  0  0  0
   -1.1267    3.3585    8.0277 H   0  0  0  0  0  0  0  0  0  0  0  0
   -1.4198    5.6065    8.9965 H   0  0  0  0  0  0  0  0  0  0  0  0
   -0.6159    7.5947    7.7876 H   0  0  0  0  0  0  0  0  0  0  0  0
    0.4953    7.3291    5.5770 H   0  0  0  0  0  0  0  0  0  0  0  0
   -2.5273    4.9252    2.8849 H   0  0  0  0  0  0  0  0  0  0  0  0
   -1.4424    3.5120    3.0857 H   0  0  0  0  0  0  0  0  0  0  0  0
   -2.2997    3.7381    1.5468 H   0  0  0  0  0  0  0  0  0  0  0  0
   -1.8151    6.0222    0.0095 H   0  0  0  0  0  0  0  0  0  0  0  0
   -0.4007    7.0600    0.2935 H   0  0  0  0  0  0  0  0  0  0  0  0
   -1.7816    7.1386    1.4089 H   0  0  0  0  0  0  0  0  0  0  0  0
  1  9  1  0  0  0  0
  1  3  1  0  0  0  0
  2  1  1  0  0  0  0
  4  5  1  0  0  0  0
  5  6  2  0  0  0  0
  5 29  1  0  0  0  0
  6 30  1  0  0  0  0
  7 31  1  6  0  0  0
  7  6  1  0  0  0  0
  7  1  1  0  0  0  0
  8  4  2  0  0  0  0
  8  7  1  0  0  0  0
  9 10  1  0  0  0  0
 10 11  1  0  0  0  0
 10 17  1  0  0  0  0
 11 12  1  0  0  0  0
 12 13  2  0  0  0  0
 12 33  1  0  0  0  0
 13 34  1  0  0  0  0
 14 35  1  0  0  0  0
 14 13  1  0  0  0  0
 15 14  2  0  0  0  0
 16 15  1  0  0  0  0
 16 11  2  0  0  0  0
 17 22  2  0  0  0  0
 17 18  1  0  0  0  0
 18 19  2  0  0  0  0
 19 39  1  0  0  0  0
 19 20  1  0  0  0  0
 20 40  1  0  0  0  0
 21 41  1  0  0  0  0
 21 20  2  0  0  0  0
 22 21  1  0  0  0  0
 23 10  1  0  0  0  0
 24 26  1  0  0  0  0
 24 23  1  0  0  0  0
 25 24  1  0  0  0  0
 26 43  1  0  0  0  0
 26 44  1  0  0  0  0
 27 48  1  0  0  0  0
 27 24  1  0  0  0  0
 28  4  1  0  0  0  0
 32  8  1  0  0  0  0
 36 15  1  0  0  0  0
 37 16  1  0  0  0  0
 38 18  1  0  0  0  0
 42 22  1  0  0  0  0
 45 26  1  0  0  0  0
 46 27  1  0  0  0  0
 47 27  1  0  0  0  0
M  END
$$$$
