CSD_code = SANDAM | q = 0 | S = 0 | Stoichiometry = C8H16Cl4N2O4Pd | MND = 4
 OpenBabel04212202093D

 35 34  0  0  1  0  0  0  0  0999 V2000
   -0.1274    5.7635    9.9715 Pd  0  0  0  0  0  0  0  0  0  0  0  0
    1.6832    5.8357   11.4151 Cl  0  0  0  0  0  0  0  0  0  0  0  0
   -1.9377    6.0826    8.5614 Cl  0  0  0  0  0  0  0  0  0  0  0  0
   -0.5924    3.1565   11.2759 Cl  0  0  0  0  0  0  0  0  0  0  0  0
    0.3348    3.4149    8.2433 Cl  0  0  0  0  0  0  0  0  0  0  0  0
   -1.4448    5.8655   11.5970 N   0  0  0  0  0  4  0  0  0  0  0  0
   -2.5681    4.9334   11.6658 C   0  0  1  0  0  0  0  0  0  0  0  0
   -2.2533    3.6506   10.8857 C   0  0  0  0  0  0  0  0  0  0  0  0
   -2.8592    4.6080   13.1381 C   0  0  0  0  0  0  0  0  0  0  0  0
   -2.2279    5.0767   14.0468 O   0  0  0  0  0  0  0  0  0  0  0  0
   -3.8732    3.7642   13.2654 O   0  0  0  0  0  0  0  0  0  0  0  0
   -4.2061    3.3730   14.5956 C   0  0  0  0  0  0  0  0  0  0  0  0
    1.1898    6.1385    8.3865 N   0  0  0  0  0  4  0  0  0  0  0  0
    2.3121    5.2306    8.1595 C   0  0  1  0  0  0  0  0  0  0  0  0
    1.9964    3.8341    8.7103 C   0  0  0  0  0  0  0  0  0  0  0  0
    2.6024    5.1606    6.6530 C   0  0  0  0  0  0  0  0  0  0  0  0
    1.9711    5.7778    5.8380 O   0  0  0  0  0  0  0  0  0  0  0  0
    3.6156    4.3500    6.3833 O   0  0  0  0  0  0  0  0  0  0  0  0
    3.9484    4.1918    5.0058 C   0  0  0  0  0  0  0  0  0  0  0  0
   -1.7716    6.8356   11.5967 H   0  0  0  0  0  0  0  0  0  0  0  0
   -0.8573    5.7424   12.4354 H   0  0  0  0  0  0  0  0  0  0  0  0
   -3.4627    5.3798   11.2156 H   0  0  0  0  0  0  0  0  0  0  0  0
   -2.9348    2.8453   11.1523 H   0  0  0  0  0  0  0  0  0  0  0  0
   -2.2805    3.8567    9.8112 H   0  0  0  0  0  0  0  0  0  0  0  0
   -4.9878    2.6244   14.5030 H   0  0  0  0  0  0  0  0  0  0  0  0
   -4.5635    4.2338   15.1630 H   0  0  0  0  0  0  0  0  0  0  0  0
   -3.3294    2.9581   15.0953 H   0  0  0  0  0  0  0  0  0  0  0  0
    1.5177    7.0941    8.5516 H   0  0  0  0  0  0  0  0  0  0  0  0
    0.6019    6.1605    7.5396 H   0  0  0  0  0  0  0  0  0  0  0  0
    3.2074    5.5932    8.6784 H   0  0  0  0  0  0  0  0  0  0  0  0
    2.6769    3.0852    8.3102 H   0  0  0  0  0  0  0  0  0  0  0  0
    2.0246    3.8546    9.8042 H   0  0  0  0  0  0  0  0  0  0  0  0
    4.7246    3.4327    4.9684 H   0  0  0  0  0  0  0  0  0  0  0  0
    4.3135    5.1351    4.5960 H   0  0  0  0  0  0  0  0  0  0  0  0
    3.0698    3.8762    4.4411 H   0  0  0  0  0  0  0  0  0  0  0  0
  1  2  1  0  0  0  0
  1  6  1  0  0  0  0
  3  1  1  0  0  0  0
  5 15  1  0  0  0  0
  6  7  1  0  0  0  0
  6 21  1  0  0  0  0
  7 22  1  6  0  0  0
  7  9  1  0  0  0  0
  8 23  1  0  0  0  0
  8  4  1  0  0  0  0
  8  7  1  0  0  0  0
  9 11  1  0  0  0  0
  9 10  2  0  0  0  0
 11 12  1  0  0  0  0
 12 27  1  0  0  0  0
 12 26  1  0  0  0  0
 13 28  1  0  0  0  0
 13  1  1  0  0  0  0
 14 13  1  0  0  0  0
 14 30  1  1  0  0  0
 14 15  1  0  0  0  0
 15 32  1  0  0  0  0
 16 14  1  0  0  0  0
 17 16  2  0  0  0  0
 18 16  1  0  0  0  0
 19 18  1  0  0  0  0
 20  6  1  0  0  0  0
 24  8  1  0  0  0  0
 25 12  1  0  0  0  0
 29 13  1  0  0  0  0
 31 15  1  0  0  0  0
 33 19  1  0  0  0  0
 34 19  1  0  0  0  0
 35 19  1  0  0  0  0
M  END
$$$$
