CSD_code = SANSAC | q = 0 | S = 0 | Stoichiometry = C18H24ClCoN6O4 | MND = 6
 OpenBabel04212202093D

 54 57  0  0  0  0  0  0  0  0999 V2000
    6.6697   14.3947    5.8009 Co  0  0  0  0  0  0  0  0  0  0  0  0
    5.6493   14.5429    3.8874 Cl  0  0  0  0  0  0  0  0  0  0  0  0
    7.6123   11.7611    5.0732 O   0  0  0  0  0  0  0  0  0  0  0  0
    6.7088   11.6493    5.5665 H   0  0  0  0  0  0  0  0  0  0  0  0
    7.9791   16.8397    5.4193 O   0  0  0  0  0  1  0  0  0  0  0  0
    5.6851   17.0287    6.4663 O   0  0  0  0  0  0  0  0  0  0  0  0
    6.6161   17.1386    6.0177 H   0  0  0  0  0  0  0  0  0  0  0  0
    5.4776   11.9260    6.4349 O   0  0  0  0  0  1  0  0  0  0  0  0
    8.8028   13.5868    4.3658 C   0  0  0  0  0  0  0  0  0  0  0  0
    8.9260   15.0176    4.4557 C   0  0  0  0  0  0  0  0  0  0  0  0
    9.7639   12.7527    3.5883 C   0  0  0  0  0  0  0  0  0  0  0  0
    9.4533   11.7120    3.6205 H   0  0  0  0  0  0  0  0  0  0  0  0
   10.7668   12.8450    4.0024 H   0  0  0  0  0  0  0  0  0  0  0  0
    9.7899   13.0905    2.5543 H   0  0  0  0  0  0  0  0  0  0  0  0
   10.0353   15.7824    3.8082 C   0  0  0  0  0  0  0  0  0  0  0  0
    9.9214   16.8347    4.0591 H   0  0  0  0  0  0  0  0  0  0  0  0
    9.9932   15.6693    2.7262 H   0  0  0  0  0  0  0  0  0  0  0  0
   11.0059   15.4313    4.1557 H   0  0  0  0  0  0  0  0  0  0  0  0
    4.3397   15.2276    6.8814 C   0  0  0  0  0  0  0  0  0  0  0  0
    4.2629   13.7897    6.8853 C   0  0  0  0  0  0  0  0  0  0  0  0
    3.2112   16.0848    7.3464 C   0  0  0  0  0  0  0  0  0  0  0  0
    3.4702   17.1314    7.2118 H   0  0  0  0  0  0  0  0  0  0  0  0
    3.0000   15.8970    8.3982 H   0  0  0  0  0  0  0  0  0  0  0  0
    2.3156   15.8573    6.7717 H   0  0  0  0  0  0  0  0  0  0  0  0
    3.0812   13.0406    7.4127 C   0  0  0  0  0  0  0  0  0  0  0  0
    3.2869   11.9746    7.3411 H   0  0  0  0  0  0  0  0  0  0  0  0
    2.1934   13.2696    6.8259 H   0  0  0  0  0  0  0  0  0  0  0  0
    2.8871   13.3053    8.4516 H   0  0  0  0  0  0  0  0  0  0  0  0
    7.9278   15.2473    8.3625 C   0  0  0  0  0  0  0  0  0  0  0  0
    7.9224   16.2736    8.0533 H   0  0  0  0  0  0  0  0  0  0  0  0
    8.2957   14.7071    9.5581 C   0  0  0  0  0  0  0  0  0  0  0  0
    8.6422   15.1662   10.4603 H   0  0  0  0  0  0  0  0  0  0  0  0
    7.6946   13.1189    8.1996 C   0  0  0  0  0  3  0  0  0  0  0  0
    7.4871   12.1372    7.8183 H   0  0  0  0  0  0  0  0  0  0  0  0
    8.2718   12.3840   10.4939 C   0  0  0  0  0  0  0  0  0  0  0  0
    9.1318   12.6413   11.1175 H   0  0  0  0  0  0  0  0  0  0  0  0
    8.4468   11.4051   10.0373 H   0  0  0  0  0  0  0  0  0  0  0  0
    7.0105   12.3468   11.3300 C   0  0  0  0  0  0  0  0  0  0  0  0
    5.7784   12.1475   10.7183 C   0  0  0  0  0  0  0  0  0  0  0  0
    5.7203   12.0105    9.6483 H   0  0  0  0  0  0  0  0  0  0  0  0
    4.6216   12.1237   11.4758 C   0  0  0  0  0  0  0  0  0  0  0  0
    3.6692   11.9654   10.9929 H   0  0  0  0  0  0  0  0  0  0  0  0
    4.6846   12.2956   12.8488 C   0  0  0  0  0  0  0  0  0  0  0  0
    3.7811   12.2746   13.4391 H   0  0  0  0  0  0  0  0  0  0  0  0
    5.9093   12.4932   13.4621 C   0  0  0  0  0  0  0  0  0  0  0  0
    5.9649   12.6272   14.5318 H   0  0  0  0  0  0  0  0  0  0  0  0
    7.0679   12.5233   12.7046 C   0  0  0  0  0  0  0  0  0  0  0  0
    8.0221   12.6789   13.1876 H   0  0  0  0  0  0  0  0  0  0  0  0
    7.8074   13.1041    5.0309 N   0  0  0  0  0  0  0  0  0  0  0  0
    7.9953   15.5820    5.1676 N   0  0  0  0  0  0  0  0  0  0  0  0
    5.4699   15.6928    6.4667 N   0  0  0  0  0  0  0  0  0  0  0  0
    5.3261   13.2054    6.4202 N   0  0  0  0  0  0  0  0  0  0  0  0
    7.5481   14.2421    7.5258 N   0  0  0  0  0  0  0  0  0  0  0  0
    8.1464   13.3569    9.4381 N   0  0  0  0  0  0  0  0  0  0  0  0
  1 52  1  0  0  0  0
  1 51  1  0  0  0  0
  1 53  1  0  0  0  0
  2  1  1  0  0  0  0
  3  4  1  0  0  0  0
  6 51  1  0  0  0  0
  7  6  1  0  0  0  0
  9 10  2  0  0  0  0
  9 49  1  0  0  0  0
 10 50  1  0  0  0  0
 11 12  1  0  0  0  0
 11 13  1  0  0  0  0
 11  9  1  0  0  0  0
 14 11  1  0  0  0  0
 15 16  1  0  0  0  0
 15 18  1  0  0  0  0
 15 10  1  0  0  0  0
 17 15  1  0  0  0  0
 19 20  2  0  0  0  0
 19 21  1  0  0  0  0
 20 25  1  0  0  0  0
 21 23  1  0  0  0  0
 22 21  1  0  0  0  0
 24 21  1  0  0  0  0
 25 28  1  0  0  0  0
 26 25  1  0  0  0  0
 27 25  1  0  0  0  0
 29 31  2  0  0  0  0
 30 29  1  0  0  0  0
 31 32  1  0  0  0  0
 33 54  1  0  0  0  0
 34 33  1  0  0  0  0
 35 36  1  0  0  0  0
 35 38  1  0  0  0  0
 37 35  1  0  0  0  0
 38 47  1  0  0  0  0
 39 38  2  0  0  0  0
 39 41  1  0  0  0  0
 40 39  1  0  0  0  0
 41 43  2  0  0  0  0
 42 41  1  0  0  0  0
 43 44  1  0  0  0  0
 43 45  1  0  0  0  0
 45 46  1  0  0  0  0
 47 48  1  0  0  0  0
 47 45  2  0  0  0  0
 49  3  1  0  0  0  0
 49  1  1  0  0  0  0
 50  5  1  0  0  0  0
 50  1  1  0  0  0  0
 51 19  1  0  0  0  0
 52  8  1  0  0  0  0
 52 20  1  0  0  0  0
 53 33  1  0  0  0  0
 53 29  1  0  0  0  0
 54 31  1  0  0  0  0
 54 35  1  0  0  0  0
M  END
$$$$
