CSD_code = SAPPUU | q = 0 | S = 0 | Stoichiometry = C24H34Cl2Zr | MND = 12
 OpenBabel04212202093D

 61 64  0  0  1  0  0  0  0  0999 V2000
   -0.1896    0.8918    3.5266 Zr  0  0  0  0  0  0  0  0  0  0  0  0
    0.5768   -0.8354    2.1311 Cl  0  0  0  0  0  0  0  0  0  0  0  0
    2.1440    1.7167    3.6043 C   0  0  0  0  0  0  0  0  0  0  0  0
    2.0102    0.7486    4.6367 C   0  0  1  0  0  0  0  0  0  0  0  0
    1.1359    1.2614    5.6225 C   0  0  0  0  0  0  0  0  0  0  0  0
    0.6990    2.5335    5.2012 C   0  0  0  0  0  0  0  0  0  0  0  0
    1.3208    2.8175    3.9619 C   0  0  0  0  0  0  0  0  0  0  0  0
    3.1209    1.7041    2.4405 C   0  0  0  0  0  0  0  0  0  0  0  0
    4.1582    2.8239    2.6775 C   0  0  0  0  0  0  0  0  0  0  0  0
    5.0772    3.0413    1.4784 C   0  0  0  0  0  0  0  0  0  0  0  0
    4.2649    3.3508    0.2252 C   0  0  0  0  0  0  0  0  0  0  0  0
    3.2747    2.2257   -0.0605 C   0  0  0  0  0  0  0  0  0  0  0  0
    2.3518    2.0080    1.1378 C   0  0  0  0  0  0  0  0  0  0  0  0
    3.8187    0.3432    2.3586 C   0  0  0  0  0  0  0  0  0  0  0  0
    2.5543   -0.1840    4.7208 H   0  0  0  0  0  0  0  0  0  0  0  0
    0.9171    0.7950    6.5754 H   0  0  0  0  0  0  0  0  0  0  0  0
    0.1417    3.2394    5.8029 H   0  0  0  0  0  0  0  0  0  0  0  0
    1.2920    3.7801    3.4666 H   0  0  0  0  0  0  0  0  0  0  0  0
    4.7510    2.5796    3.5612 H   0  0  0  0  0  0  0  0  0  0  0  0
    3.6320    3.7582    2.8843 H   0  0  0  0  0  0  0  0  0  0  0  0
    5.6892    2.1551    1.3073 H   0  0  0  0  0  0  0  0  0  0  0  0
    5.7552    3.8702    1.6939 H   0  0  0  0  0  0  0  0  0  0  0  0
    4.9328    3.4861   -0.6278 H   0  0  0  0  0  0  0  0  0  0  0  0
    3.7184    4.2862    0.3715 H   0  0  0  0  0  0  0  0  0  0  0  0
    3.8165    1.3088   -0.2929 H   0  0  0  0  0  0  0  0  0  0  0  0
    2.6714    2.4779   -0.9356 H   0  0  0  0  0  0  0  0  0  0  0  0
    1.7776    2.9285    1.2806 H   0  0  0  0  0  0  0  0  0  0  0  0
    1.6565    1.1851    0.9310 H   0  0  0  0  0  0  0  0  0  0  0  0
    4.4012    0.1644    3.2597 H   0  0  0  0  0  0  0  0  0  0  0  0
    3.0841   -0.4506    2.2431 H   0  0  0  0  0  0  0  0  0  0  0  0
    4.4952    0.3022    1.5115 H   0  0  0  0  0  0  0  0  0  0  0  0
   -0.9547   -0.8367    4.9228 Cl  0  0  0  0  0  0  0  0  0  0  0  0
   -2.5232    1.7167    3.4495 C   0  0  0  0  0  0  0  0  0  0  0  0
   -2.3895    0.7487    2.4170 C   0  0  1  0  0  0  0  0  0  0  0  0
   -1.5151    1.2613    1.4313 C   0  0  0  0  0  0  0  0  0  0  0  0
   -1.0784    2.5335    1.8524 C   0  0  0  0  0  0  0  0  0  0  0  0
   -1.7000    2.8175    3.0918 C   0  0  0  0  0  0  0  0  0  0  0  0
   -3.5000    1.7041    4.6134 C   0  0  0  0  0  0  0  0  0  0  0  0
   -2.9334   -0.1841    2.3331 H   0  0  0  0  0  0  0  0  0  0  0  0
   -1.2962    0.7948    0.4784 H   0  0  0  0  0  0  0  0  0  0  0  0
   -0.5212    3.2394    1.2507 H   0  0  0  0  0  0  0  0  0  0  0  0
   -1.6712    3.7801    3.5872 H   0  0  0  0  0  0  0  0  0  0  0  0
   -4.5373    2.8239    4.3763 C   0  0  0  0  0  0  0  0  0  0  0  0
   -2.7309    2.0082    5.9160 C   0  0  0  0  0  0  0  0  0  0  0  0
   -4.1979    0.3433    4.6952 C   0  0  0  0  0  0  0  0  0  0  0  0
   -5.4561    3.0413    5.5755 C   0  0  0  0  0  0  0  0  0  0  0  0
   -5.1300    2.5796    3.4926 H   0  0  0  0  0  0  0  0  0  0  0  0
   -4.0110    3.7581    4.1696 H   0  0  0  0  0  0  0  0  0  0  0  0
   -3.6537    2.2256    7.1144 C   0  0  0  0  0  0  0  0  0  0  0  0
   -2.1566    2.9286    5.7732 H   0  0  0  0  0  0  0  0  0  0  0  0
   -2.0357    1.1853    6.1228 H   0  0  0  0  0  0  0  0  0  0  0  0
   -4.7805    0.1644    3.7941 H   0  0  0  0  0  0  0  0  0  0  0  0
   -3.4634   -0.4505    4.8107 H   0  0  0  0  0  0  0  0  0  0  0  0
   -4.8743    0.3023    5.5424 H   0  0  0  0  0  0  0  0  0  0  0  0
   -4.6439    3.3508    6.8287 C   0  0  0  0  0  0  0  0  0  0  0  0
   -6.0682    2.1551    5.7466 H   0  0  0  0  0  0  0  0  0  0  0  0
   -6.1342    3.8702    5.3600 H   0  0  0  0  0  0  0  0  0  0  0  0
   -4.1955    1.3088    7.3469 H   0  0  0  0  0  0  0  0  0  0  0  0
   -3.0504    2.4779    7.9895 H   0  0  0  0  0  0  0  0  0  0  0  0
   -5.3116    3.4861    7.6818 H   0  0  0  0  0  0  0  0  0  0  0  0
   -4.0973    4.2862    6.6824 H   0  0  0  0  0  0  0  0  0  0  0  0
  1  4  1  0  0  0  0
  1 32  1  0  0  0  0
  2  1  1  0  0  0  0
  3  7  2  0  0  0  0
  3  4  1  0  0  0  0
  4 15  1  1  0  0  0
  4  5  1  0  0  0  0
  5 16  1  0  0  0  0
  6  5  2  0  0  0  0
  6 17  1  0  0  0  0
  7  6  1  0  0  0  0
  8  9  1  0  0  0  0
  8  3  1  0  0  0  0
  9 20  1  0  0  0  0
  9 19  1  0  0  0  0
 10 22  1  0  0  0  0
 10  9  1  0  0  0  0
 11 24  1  0  0  0  0
 11 10  1  0  0  0  0
 12 11  1  0  0  0  0
 12 13  1  0  0  0  0
 13 27  1  0  0  0  0
 13  8  1  0  0  0  0
 14  8  1  0  0  0  0
 14 29  1  0  0  0  0
 18  7  1  0  0  0  0
 21 10  1  0  0  0  0
 23 11  1  0  0  0  0
 25 12  1  0  0  0  0
 26 12  1  0  0  0  0
 28 13  1  0  0  0  0
 30 14  1  0  0  0  0
 31 14  1  0  0  0  0
 33 38  1  0  0  0  0
 34 39  1  6  0  0  0
 34 33  1  0  0  0  0
 34  1  1  0  0  0  0
 35 36  2  0  0  0  0
 35 34  1  0  0  0  0
 36 37  1  0  0  0  0
 37 33  2  0  0  0  0
 37 42  1  0  0  0  0
 38 45  1  0  0  0  0
 38 44  1  0  0  0  0
 40 35  1  0  0  0  0
 41 36  1  0  0  0  0
 43 38  1  0  0  0  0
 43 46  1  0  0  0  0
 44 51  1  0  0  0  0
 44 49  1  0  0  0  0
 45 53  1  0  0  0  0
 45 54  1  0  0  0  0
 46 56  1  0  0  0  0
 46 55  1  0  0  0  0
 47 43  1  0  0  0  0
 48 43  1  0  0  0  0
 49 58  1  0  0  0  0
 49 59  1  0  0  0  0
 50 44  1  0  0  0  0
 52 45  1  0  0  0  0
 55 49  1  0  0  0  0
 55 60  1  0  0  0  0
 57 46  1  0  0  0  0
 61 55  1  0  0  0  0
M  END
$$$$
