CSD_code = SAPSIM | q = 0 | S = 0 | Stoichiometry = C24H36Br2NiP2 | MND = 4
 OpenBabel04212202093D

 65 67  0  0  0  0  0  0  0  0999 V2000
   -0.8993    1.5396    2.7723 Br  0  0  0  0  0  0  0  0  0  0  0  0
    0.4237    3.3540    2.6154 Ni  0  0  0  0  0  0  0  0  0  0  0  0
   -1.1276    4.5460    3.5736 P   0  0  0  0  0  4  0  0  0  0  0  0
    1.4734    4.8863    2.3847 C   0  0  0  0  0  0  0  0  0  0  0  0
    3.1298    4.6773    4.7973 Br  0  0  0  0  0  0  0  0  0  0  0  0
    2.0144    2.1178    1.7817 P   0  0  0  0  0  4  0  0  0  0  0  0
    2.4641    5.4004    3.1684 C   0  0  0  0  0  0  0  0  0  0  0  0
    3.9991    7.5200    2.9585 C   0  0  0  0  0  0  0  0  0  0  0  0
    4.5843    7.4125    3.8606 H   0  0  0  0  0  0  0  0  0  0  0  0
    4.2281    8.6123    2.0964 C   0  0  0  0  0  0  0  0  0  0  0  0
    4.9977    9.3201    2.3709 H   0  0  0  0  0  0  0  0  0  0  0  0
    3.5203    8.8132    0.9368 C   0  0  0  0  0  0  0  0  0  0  0  0
    3.7324    9.6683    0.3111 H   0  0  0  0  0  0  0  0  0  0  0  0
    1.6704    7.9360   -0.5858 C   0  0  0  0  0  0  0  0  0  0  0  0
    1.7733    8.7378   -1.3029 H   0  0  0  0  0  0  0  0  0  0  0  0
    0.7310    6.9524   -0.7746 C   0  0  0  0  0  0  0  0  0  0  0  0
    0.0960    6.9923   -1.6490 H   0  0  0  0  0  0  0  0  0  0  0  0
    0.5484    5.8802    0.1224 C   0  0  0  0  0  0  0  0  0  0  0  0
   -0.2142    5.1443   -0.0863 H   0  0  0  0  0  0  0  0  0  0  0  0
    1.3456    5.8075    1.2374 C   0  0  0  0  0  0  0  0  0  0  0  0
    3.0245    6.6216    2.6124 C   0  0  0  0  0  0  0  0  0  0  0  0
    2.5064    7.9017    0.5548 C   0  0  0  0  0  0  0  0  0  0  0  0
    2.3031    6.8316    1.4185 C   0  0  0  0  0  0  0  0  0  0  0  0
   -0.8202    6.3451    3.8898 C   0  0  0  0  0  0  0  0  0  0  0  0
    0.0329    6.3814    4.5750 H   0  0  0  0  0  0  0  0  0  0  0  0
   -0.4874    6.7908    2.9475 H   0  0  0  0  0  0  0  0  0  0  0  0
   -1.9754    7.1565    4.4591 C   0  0  0  0  0  0  0  0  0  0  0  0
   -2.7813    7.2573    3.7362 H   0  0  0  0  0  0  0  0  0  0  0  0
   -1.6253    8.1567    4.7097 H   0  0  0  0  0  0  0  0  0  0  0  0
   -2.3758    6.7072    5.3654 H   0  0  0  0  0  0  0  0  0  0  0  0
   -1.4588    3.8716    5.2581 C   0  0  0  0  0  0  0  0  0  0  0  0
   -2.0356    4.5950    5.8390 H   0  0  0  0  0  0  0  0  0  0  0  0
   -2.0625    2.9693    5.1276 H   0  0  0  0  0  0  0  0  0  0  0  0
   -0.1538    3.5179    5.9598 C   0  0  0  0  0  0  0  0  0  0  0  0
    0.4552    2.8867    5.3044 H   0  0  0  0  0  0  0  0  0  0  0  0
   -0.3414    2.9680    6.8794 H   0  0  0  0  0  0  0  0  0  0  0  0
    0.4210    4.4090    6.2027 H   0  0  0  0  0  0  0  0  0  0  0  0
   -2.8263    4.5018    2.8587 C   0  0  0  0  0  0  0  0  0  0  0  0
   -3.1534    3.4588    2.8773 H   0  0  0  0  0  0  0  0  0  0  0  0
   -3.4839    5.0789    3.5134 H   0  0  0  0  0  0  0  0  0  0  0  0
   -2.8695    5.0264    1.4304 C   0  0  0  0  0  0  0  0  0  0  0  0
   -2.4782    6.0409    1.3676 H   0  0  0  0  0  0  0  0  0  0  0  0
   -3.8904    5.0247    1.0534 H   0  0  0  0  0  0  0  0  0  0  0  0
   -2.2718    4.3850    0.7845 H   0  0  0  0  0  0  0  0  0  0  0  0
    2.5275    0.6357    2.7500 C   0  0  0  0  0  0  0  0  0  0  0  0
    1.6237    0.0473    2.9310 H   0  0  0  0  0  0  0  0  0  0  0  0
    3.2013    0.0425    2.1257 H   0  0  0  0  0  0  0  0  0  0  0  0
    3.1805    0.9977    4.0771 C   0  0  0  0  0  0  0  0  0  0  0  0
    4.0872    1.5810    3.9299 H   0  0  0  0  0  0  0  0  0  0  0  0
    3.4372    0.0970    4.6309 H   0  0  0  0  0  0  0  0  0  0  0  0
    2.4972    1.5862    4.6872 H   0  0  0  0  0  0  0  0  0  0  0  0
    3.6159    2.8978    1.2774 C   0  0  0  0  0  0  0  0  0  0  0  0
    3.3630    3.6448    0.5171 H   0  0  0  0  0  0  0  0  0  0  0  0
    3.9925    3.4461    2.1442 H   0  0  0  0  0  0  0  0  0  0  0  0
    4.7079    1.9720    0.7597 C   0  0  0  0  0  0  0  0  0  0  0  0
    5.0529    1.2948    1.5368 H   0  0  0  0  0  0  0  0  0  0  0  0
    5.5592    2.5678    0.4338 H   0  0  0  0  0  0  0  0  0  0  0  0
    4.3707    1.3827   -0.0900 H   0  0  0  0  0  0  0  0  0  0  0  0
    1.4330    1.3144    0.2255 C   0  0  0  0  0  0  0  0  0  0  0  0
    2.2870    0.9011   -0.3151 H   0  0  0  0  0  0  0  0  0  0  0  0
    0.7731    0.4920    0.5137 H   0  0  0  0  0  0  0  0  0  0  0  0
    0.6664    2.3079   -0.6367 C   0  0  0  0  0  0  0  0  0  0  0  0
   -0.1612    2.7234   -0.0553 H   0  0  0  0  0  0  0  0  0  0  0  0
    0.2509    1.8220   -1.5173 H   0  0  0  0  0  0  0  0  0  0  0  0
    1.3080    3.1266   -0.9606 H   0  0  0  0  0  0  0  0  0  0  0  0
  2  1  1  0  0  0  0
  2  3  1  0  0  0  0
  3 24  1  0  0  0  0
  3 31  1  0  0  0  0
  4  2  1  0  0  0  0
  4  7  2  0  0  0  0
  6  2  1  0  0  0  0
  6 45  1  0  0  0  0
  7  5  1  0  0  0  0
  8  9  1  0  0  0  0
 10 11  1  0  0  0  0
 10  8  2  0  0  0  0
 12 10  1  0  0  0  0
 13 12  1  0  0  0  0
 14 22  1  0  0  0  0
 15 14  1  0  0  0  0
 16 14  2  0  0  0  0
 16 18  1  0  0  0  0
 17 16  1  0  0  0  0
 18 20  2  0  0  0  0
 19 18  1  0  0  0  0
 20 23  1  0  0  0  0
 20  4  1  0  0  0  0
 21  8  1  0  0  0  0
 21  7  1  0  0  0  0
 22 12  2  0  0  0  0
 22 23  1  0  0  0  0
 23 21  2  0  0  0  0
 24 27  1  0  0  0  0
 24 25  1  0  0  0  0
 26 24  1  0  0  0  0
 27 29  1  0  0  0  0
 27 30  1  0  0  0  0
 28 27  1  0  0  0  0
 31 32  1  0  0  0  0
 31 34  1  0  0  0  0
 33 31  1  0  0  0  0
 34 37  1  0  0  0  0
 34 36  1  0  0  0  0
 35 34  1  0  0  0  0
 38 39  1  0  0  0  0
 38 40  1  0  0  0  0
 38  3  1  0  0  0  0
 41 38  1  0  0  0  0
 42 41  1  0  0  0  0
 43 41  1  0  0  0  0
 44 41  1  0  0  0  0
 45 46  1  0  0  0  0
 45 48  1  0  0  0  0
 47 45  1  0  0  0  0
 48 50  1  0  0  0  0
 48 51  1  0  0  0  0
 49 48  1  0  0  0  0
 52  6  1  0  0  0  0
 52 54  1  0  0  0  0
 53 52  1  0  0  0  0
 55 52  1  0  0  0  0
 55 56  1  0  0  0  0
 57 55  1  0  0  0  0
 58 55  1  0  0  0  0
 59 61  1  0  0  0  0
 59  6  1  0  0  0  0
 60 59  1  0  0  0  0
 62 63  1  0  0  0  0
 62 59  1  0  0  0  0
 64 62  1  0  0  0  0
 65 62  1  0  0  0  0
M  END
$$$$
