CSD_code = SAQFEY | q = 0 | S = 0 | Stoichiometry = C18H14Br2CdN4O | MND = 5
 OpenBabel04212202093D

 40 44  0  0  1  0  0  0  0  0999 V2000
    2.7546    0.8301    5.6177 C   0  0  0  0  0  3  0  0  0  0  0  0
    3.5704    0.6322    6.3027 H   0  0  0  0  0  0  0  0  0  0  0  0
    1.4320    0.7301    6.0266 C   0  0  0  0  0  0  0  0  0  0  0  0
    1.1960    0.4585    7.0426 H   0  0  0  0  0  0  0  0  0  0  0  0
    0.4337    0.9787    5.0984 C   0  0  0  0  0  0  0  0  0  0  0  0
   -0.6078    0.8976    5.3717 H   0  0  0  0  0  0  0  0  0  0  0  0
    0.7913    1.3283    3.8069 C   0  0  0  0  0  0  0  0  0  0  0  0
    0.0409    1.5042    3.0514 H   0  0  0  0  0  0  0  0  0  0  0  0
    2.1446    1.4210    3.4866 C   0  0  0  0  0  0  0  0  0  0  0  0
    2.6102    1.7577    2.1292 C   0  0  1  0  0  3  0  0  0  0  0  0
    1.9094    2.7656    1.3218 C   0  0  0  0  0  0  0  0  0  0  0  0
    1.1433    3.7683    1.9218 C   0  0  0  0  0  0  0  0  0  0  0  0
    1.0352    3.8049    2.9936 H   0  0  0  0  0  0  0  0  0  0  0  0
    0.5665    4.7365    1.1198 C   0  0  0  0  0  0  0  0  0  0  0  0
   -0.0265    5.5241    1.5601 H   0  0  0  0  0  0  0  0  0  0  0  0
    0.7695    4.6886   -0.2512 C   0  0  0  0  0  0  0  0  0  0  0  0
    0.3347    5.4240   -0.9087 H   0  0  0  0  0  0  0  0  0  0  0  0
    1.5729    3.6783   -0.7547 C   0  0  0  0  0  0  0  0  0  0  0  0
    1.7925    3.6061   -1.8119 H   0  0  0  0  0  0  0  0  0  0  0  0
    5.6075    1.0438    0.4616 C   0  0  2  0  0  3  0  0  0  0  0  0
    6.1949    1.3122   -0.8659 C   0  0  0  0  0  0  0  0  0  0  0  0
    5.4291    1.3969   -2.0283 C   0  0  0  0  0  0  0  0  0  0  0  0
    4.3607    1.2423   -1.9970 H   0  0  0  0  0  0  0  0  0  0  0  0
    6.0463    1.6439   -3.2401 C   0  0  0  0  0  0  0  0  0  0  0  0
    5.4537    1.7023   -4.1408 H   0  0  0  0  0  0  0  0  0  0  0  0
    7.4207    1.8154   -3.3047 C   0  0  0  0  0  0  0  0  0  0  0  0
    7.8937    2.0142   -4.2546 H   0  0  0  0  0  0  0  0  0  0  0  0
    8.1866    1.7260   -2.1536 C   0  0  0  0  0  0  0  0  0  0  0  0
    9.2569    1.8550   -2.2032 H   0  0  0  0  0  0  0  0  0  0  0  0
    7.5787    1.4697   -0.9399 C   0  0  0  0  0  0  0  0  0  0  0  0
    8.1577    1.3970   -0.0317 H   0  0  0  0  0  0  0  0  0  0  0  0
    3.1003    1.1647    4.3853 N   0  0  0  0  0  0  0  0  0  0  0  0
    2.1254    2.7478    0.0008 N   0  0  0  0  0  0  0  0  0  0  0  0
    3.7072    1.1753    1.7902 N   0  0  1  0  0  0  0  0  0  0  0  0
    4.2829    1.3643    0.6009 N   0  0  0  0  0  0  0  0  0  0  0  0
    6.2540    0.5813    1.3928 O   0  0  0  0  0  0  0  0  0  0  0  0
    5.4399    3.8095    2.9140 Br  0  0  0  0  0  0  0  0  0  0  0  0
    6.4757    0.1618    5.5031 Br  0  0  0  0  0  0  0  0  0  0  0  0
    5.4916    1.3757    3.5863 Cd  0  0  0  0  0  0  0  0  0  0  0  0
    3.7665    1.9478   -0.0732 H   0  0  0  0  0  0  0  0  0  0  0  0
  1  3  1  0  0  0  0
  1  2  1  0  0  0  0
  3  4  1  0  0  0  0
  5  6  1  0  0  0  0
  5  3  2  0  0  0  0
  7  5  1  0  0  0  0
  8  7  1  0  0  0  0
  9  7  2  0  0  0  0
  9 32  1  0  0  0  0
 10 11  1  1  0  0  0
 10  9  1  0  0  0  0
 11 12  1  0  0  0  0
 12 13  1  0  0  0  0
 14 15  1  0  0  0  0
 14 12  2  0  0  0  0
 16 14  1  0  0  0  0
 17 16  1  0  0  0  0
 18 16  2  0  0  0  0
 18 33  1  0  0  0  0
 19 18  1  0  0  0  0
 20 21  1  1  0  0  0
 20 35  1  0  0  0  0
 20 36  1  0  0  0  0
 22 23  1  0  0  0  0
 22 21  2  0  0  0  0
 24 22  1  0  0  0  0
 25 24  1  0  0  0  0
 26 24  2  0  0  0  0
 26 28  1  0  0  0  0
 27 26  1  0  0  0  0
 28 30  2  0  0  0  0
 29 28  1  0  0  0  0
 30 21  1  0  0  0  0
 30 31  1  0  0  0  0
 32  1  1  0  0  0  0
 33 11  2  0  0  0  0
 34 35  1  6  0  0  0
 34 10  1  0  0  0  0
 34 39  1  0  0  0  0
 36 39  1  0  0  0  0
 37 39  1  0  0  0  0
 39 32  1  0  0  0  0
 39 38  1  0  0  0  0
 40 35  1  0  0  0  0
M  END
$$$$
