CSD_code = SAQFEV | q = 0 | S = 0 | Stoichiometry = C10H11Cl3MoN6 | MND = 6
 OpenBabel04212202093D

 31 33  0  0  1  0  0  0  0  0999 V2000
    4.0842    1.2747    6.8403 Mo  0  0  0  0  0  0  0  0  0  0  0  0
    6.2153    0.3993    7.6315 Cl  0  0  0  0  0  0  0  0  0  0  0  0
    1.7736    1.5188    6.2034 Cl  0  0  0  0  0  0  0  0  0  0  0  0
    4.4250    0.1607    4.8318 Cl  0  0  0  0  0  0  0  0  0  0  0  0
    3.6179    1.8232    8.6239 N   0  0  0  0  0  0  0  0  0  0  0  0
    3.0361    0.8968    9.4627 N   0  0  0  0  0  0  0  0  0  0  0  0
    3.3538   -0.5361    7.7279 N   0  0  0  0  0  0  0  0  0  0  0  0
    4.7306    2.7974    6.3021 N   0  0  0  0  0  2  0  0  0  0  0  0
    5.2354    3.8866    5.9419 N   0  0  0  0  0  0  0  0  0  0  0  0
    6.7586    5.2527    4.9181 N   0  0  0  0  0  0  0  0  0  0  0  0
    2.8476   -0.3407    8.9582 C   0  0  1  0  0  3  0  0  0  0  0  0
    2.2098   -1.3611    9.6842 C   0  0  0  0  0  0  0  0  0  0  0  0
    2.1149   -2.6064    9.1142 C   0  0  0  0  0  0  0  0  0  0  0  0
    2.6565   -2.8132    7.8441 C   0  0  0  0  0  0  0  0  0  0  0  0
    3.2590   -1.7574    7.1974 C   0  0  0  0  0  0  0  0  0  0  0  0
    6.3607    3.9848    5.2734 C   0  0  0  0  0  0  0  0  0  0  0  0
    7.8960    5.4942    4.2270 C   0  0  0  0  0  0  0  0  0  0  0  0
    8.7108    4.4762    3.8515 C   0  0  0  0  0  0  0  0  0  0  0  0
    8.3511    3.1450    4.1954 C   0  0  0  0  0  0  0  0  0  0  0  0
    7.2092    2.9025    4.8865 C   0  0  0  0  0  0  0  0  0  0  0  0
    3.7382    2.6994    9.1283 H   0  0  0  0  0  0  0  0  0  0  0  0
    2.5610    1.1929   10.3062 H   0  0  0  0  0  0  0  0  0  0  0  0
    1.8109   -1.1503   10.6638 H   0  0  0  0  0  0  0  0  0  0  0  0
    1.6292   -3.4135    9.6409 H   0  0  0  0  0  0  0  0  0  0  0  0
    2.6027   -3.7784    7.3694 H   0  0  0  0  0  0  0  0  0  0  0  0
    3.6872   -1.8750    6.2090 H   0  0  0  0  0  0  0  0  0  0  0  0
    6.1455    6.0086    5.1920 H   0  0  0  0  0  0  0  0  0  0  0  0
    8.1090    6.5274    3.9987 H   0  0  0  0  0  0  0  0  0  0  0  0
    9.6152    4.6724    3.3020 H   0  0  0  0  0  0  0  0  0  0  0  0
    8.9958    2.3316    3.9017 H   0  0  0  0  0  0  0  0  0  0  0  0
    6.9019    1.9045    5.1711 H   0  0  0  0  0  0  0  0  0  0  0  0
  1  2  1  0  0  0  0
  1  7  1  0  0  0  0
  1  5  1  0  0  0  0
  3  1  1  0  0  0  0
  4  1  1  0  0  0  0
  5 21  1  0  0  0  0
  5  6  1  0  0  0  0
  6 22  1  0  0  0  0
  7 11  1  0  0  0  0
  8  1  1  0  0  0  0
  9  8  1  0  0  0  0
 10 27  1  0  0  0  0
 10 16  1  0  0  0  0
 11  6  1  0  0  0  0
 11 12  1  1  0  0  0
 12 23  1  0  0  0  0
 13 24  1  0  0  0  0
 13 12  2  0  0  0  0
 14 13  1  0  0  0  0
 15  7  1  0  0  0  0
 15 14  2  0  0  0  0
 16  9  2  0  0  0  0
 17 10  1  0  0  0  0
 18 19  1  0  0  0  0
 18 17  2  0  0  0  0
 19 20  2  0  0  0  0
 20 31  1  0  0  0  0
 20 16  1  0  0  0  0
 25 14  1  0  0  0  0
 26 15  1  0  0  0  0
 28 17  1  0  0  0  0
 29 18  1  0  0  0  0
 30 19  1  0  0  0  0
M  END
$$$$
