CSD_code = SAQJAY | q = 0 | S = 0 | Stoichiometry = C22H36Cl2N2Zn | MND = 4
 OpenBabel04212202093D

 63 67  0  0  1  0  0  0  0  0999 V2000
    4.0501    4.7789   11.7599 Zn  0  0  0  0  0  0  0  0  0  0  0  0
    5.1868    2.8734   11.8811 Cl  0  0  0  0  0  0  0  0  0  0  0  0
    4.6430    6.8002   11.0518 Cl  0  0  0  0  0  0  0  0  0  0  0  0
    2.1243    4.6566   10.9063 N   0  0  1  0  0  0  0  0  0  0  0  0
    3.0442    4.7074   13.6131 N   0  0  1  0  0  0  0  0  0  0  0  0
    1.2353    4.9566   12.0038 C   0  0  0  0  0  0  0  0  0  0  0  0
    0.2079    4.6413   11.7866 H   0  0  0  0  0  0  0  0  0  0  0  0
    1.2414    6.0396   12.1714 H   0  0  0  0  0  0  0  0  0  0  0  0
    1.7156    4.2563   13.2722 C   0  0  0  0  0  0  0  0  0  0  0  0
    1.0036    4.4527   14.0824 H   0  0  0  0  0  0  0  0  0  0  0  0
    1.7506    3.1761   13.0905 H   0  0  0  0  0  0  0  0  0  0  0  0
    3.4785    4.5621   14.7951 C   0  0  1  0  0  3  0  0  0  0  0  0
    2.7433    3.9559   15.9621 C   0  0  0  0  0  0  0  0  0  0  0  0
    2.4163    2.9394   15.7336 H   0  0  0  0  0  0  0  0  0  0  0  0
    1.8551    4.5372   16.2173 H   0  0  0  0  0  0  0  0  0  0  0  0
    3.8059    4.0046   17.0626 C   0  0  1  0  0  0  0  0  0  0  0  0
    3.4041    3.9092   18.0704 H   0  0  0  0  0  0  0  0  0  0  0  0
    4.8459    2.9388   16.6950 C   0  0  0  0  0  0  0  0  0  0  0  0
    5.5509    2.7781   17.5093 H   0  0  0  0  0  0  0  0  0  0  0  0
    4.3725    1.9811   16.4797 H   0  0  0  0  0  0  0  0  0  0  0  0
    5.5267    3.5410   15.4535 C   0  0  0  0  0  0  0  0  0  0  0  0
    5.3899    2.9356   14.5582 H   0  0  0  0  0  0  0  0  0  0  0  0
    6.5977    3.6753   15.5951 H   0  0  0  0  0  0  0  0  0  0  0  0
    4.8506    4.9269   15.2847 C   0  0  2  0  0  0  0  0  0  0  0  0
    4.5386    5.3268   16.7530 C   0  0  0  0  0  0  0  0  0  0  0  0
    5.7650    5.5668   17.6287 C   0  0  0  0  0  0  0  0  0  0  0  0
    6.2555    6.4934   17.3399 H   0  0  0  0  0  0  0  0  0  0  0  0
    6.4924    4.7663   17.5634 H   0  0  0  0  0  0  0  0  0  0  0  0
    5.4533    5.6613   18.6674 H   0  0  0  0  0  0  0  0  0  0  0  0
    3.6504    6.5687   16.8517 C   0  0  0  0  0  0  0  0  0  0  0  0
    2.8570    6.5719   16.1096 H   0  0  0  0  0  0  0  0  0  0  0  0
    4.2487    7.4628   16.6934 H   0  0  0  0  0  0  0  0  0  0  0  0
    3.2034    6.6326   17.8423 H   0  0  0  0  0  0  0  0  0  0  0  0
    5.6444    5.8991   14.4428 C   0  0  0  0  0  0  0  0  0  0  0  0
    5.9211    5.4383   13.4949 H   0  0  0  0  0  0  0  0  0  0  0  0
    6.5616    6.1758   14.9571 H   0  0  0  0  0  0  0  0  0  0  0  0
    5.0706    6.7992   14.2357 H   0  0  0  0  0  0  0  0  0  0  0  0
    1.7292    4.8104    9.7116 C   0  0  1  0  0  3  0  0  0  0  0  0
    0.3712    5.2819    9.2607 C   0  0  0  0  0  0  0  0  0  0  0  0
    0.1345    6.2589    9.6871 H   0  0  0  0  0  0  0  0  0  0  0  0
   -0.4133    4.5890    9.5716 H   0  0  0  0  0  0  0  0  0  0  0  0
    0.5416    5.3228    7.7403 C   0  0  1  0  0  0  0  0  0  0  0  0
   -0.3980    5.3339    7.1896 H   0  0  0  0  0  0  0  0  0  0  0  0
    1.4575    6.5182    7.4486 C   0  0  0  0  0  0  0  0  0  0  0  0
    1.1054    7.4188    7.9511 H   0  0  0  0  0  0  0  0  0  0  0  0
    1.4965    6.7343    6.3820 H   0  0  0  0  0  0  0  0  0  0  0  0
    2.8177    6.0459    7.9911 C   0  0  0  0  0  0  0  0  0  0  0  0
    3.5875    6.0359    7.2215 H   0  0  0  0  0  0  0  0  0  0  0  0
    3.1850    6.6616    8.8113 H   0  0  0  0  0  0  0  0  0  0  0  0
    2.5510    4.5958    8.4731 C   0  0  2  0  0  0  0  0  0  0  0  0
    1.4594    4.1100    7.4802 C   0  0  0  0  0  0  0  0  0  0  0  0
    1.9173    3.9887    6.0297 C   0  0  0  0  0  0  0  0  0  0  0  0
    1.0518    3.8205    5.3914 H   0  0  0  0  0  0  0  0  0  0  0  0
    2.5867    3.1390    5.9183 H   0  0  0  0  0  0  0  0  0  0  0  0
    2.4341    4.8730    5.6758 H   0  0  0  0  0  0  0  0  0  0  0  0
    0.8468    2.7677    7.8849 C   0  0  0  0  0  0  0  0  0  0  0  0
    0.6766    2.6947    8.9554 H   0  0  0  0  0  0  0  0  0  0  0  0
    1.5165    1.9580    7.6051 H   0  0  0  0  0  0  0  0  0  0  0  0
   -0.0998    2.6164    7.3689 H   0  0  0  0  0  0  0  0  0  0  0  0
    3.7994    3.7557    8.6146 C   0  0  0  0  0  0  0  0  0  0  0  0
    4.5393    4.2789    9.2197 H   0  0  0  0  0  0  0  0  0  0  0  0
    4.2394    3.5735    7.6370 H   0  0  0  0  0  0  0  0  0  0  0  0
    3.5791    2.8010    9.0861 H   0  0  0  0  0  0  0  0  0  0  0  0
  1  2  1  0  0  0  0
  1  5  1  0  0  0  0
  3  1  1  0  0  0  0
  4  1  1  0  0  0  0
  4  6  1  1  0  0  0
  5  9  1  6  0  0  0
  5 12  1  0  0  0  0
  6  8  1  0  0  0  0
  6  9  1  0  0  0  0
  7  6  1  0  0  0  0
  9 10  1  0  0  0  0
 11  9  1  0  0  0  0
 12 24  1  0  0  0  0
 12 13  1  6  0  0  0
 13 15  1  0  0  0  0
 13 16  1  0  0  0  0
 14 13  1  0  0  0  0
 16 17  1  1  0  0  0
 18 16  1  0  0  0  0
 18 19  1  0  0  0  0
 20 18  1  0  0  0  0
 21 23  1  0  0  0  0
 21 18  1  0  0  0  0
 22 21  1  0  0  0  0
 24 34  1  6  0  0  0
 24 21  1  0  0  0  0
 24 25  1  0  0  0  0
 25 30  1  0  0  0  0
 25 16  1  0  0  0  0
 25 26  1  0  0  0  0
 26 29  1  0  0  0  0
 27 26  1  0  0  0  0
 28 26  1  0  0  0  0
 30 33  1  0  0  0  0
 31 30  1  0  0  0  0
 32 30  1  0  0  0  0
 34 36  1  0  0  0  0
 35 34  1  0  0  0  0
 37 34  1  0  0  0  0
 38 39  1  1  0  0  0
 38  4  1  0  0  0  0
 39 41  1  0  0  0  0
 39 40  1  0  0  0  0
 42 43  1  6  0  0  0
 42 39  1  0  0  0  0
 44 42  1  0  0  0  0
 44 45  1  0  0  0  0
 44 47  1  0  0  0  0
 46 44  1  0  0  0  0
 47 50  1  0  0  0  0
 47 49  1  0  0  0  0
 48 47  1  0  0  0  0
 50 60  1  1  0  0  0
 50 38  1  0  0  0  0
 51 42  1  0  0  0  0
 51 56  1  0  0  0  0
 51 50  1  0  0  0  0
 52 51  1  0  0  0  0
 53 52  1  0  0  0  0
 54 52  1  0  0  0  0
 55 52  1  0  0  0  0
 56 57  1  0  0  0  0
 58 56  1  0  0  0  0
 59 56  1  0  0  0  0
 60 63  1  0  0  0  0
 60 61  1  0  0  0  0
 62 60  1  0  0  0  0
M  END
$$$$
