CSD_code = SAQTEK | q = 0 | S = 0 | Stoichiometry = C3H9AuI3P | MND = 4
 OpenBabel04212202093D

 17 16  0  0  0  0  0  0  0  0999 V2000
    5.9451    1.3452    0.5433 Au  0  0  0  0  0  0  0  0  0  0  0  0
    5.9685    0.6124    2.7629 P   0  0  0  0  0  4  0  0  0  0  0  0
    5.7195   -1.1071   -0.3440 I   0  0  0  0  0  0  0  0  0  0  0  0
    7.4942    1.0624    3.6388 C   0  0  0  0  0  0  0  0  0  0  0  0
    7.4276    0.6844    4.6613 H   0  0  0  0  0  0  0  0  0  0  0  0
    7.6271    2.1438    3.6534 H   0  0  0  0  0  0  0  0  0  0  0  0
    8.3451    0.5988    3.1346 H   0  0  0  0  0  0  0  0  0  0  0  0
    5.9332    2.2705   -1.9074 I   0  0  0  0  0  0  0  0  0  0  0  0
    4.6096    1.3001    3.7519 C   0  0  0  0  0  0  0  0  0  0  0  0
    3.6579    1.0089    3.3021 H   0  0  0  0  0  0  0  0  0  0  0  0
    4.6730    2.3872    3.7922 H   0  0  0  0  0  0  0  0  0  0  0  0
    4.6756    0.8875    4.7607 H   0  0  0  0  0  0  0  0  0  0  0  0
    6.1700    3.7668    1.5308 I   0  0  0  0  0  0  0  0  0  0  0  0
    5.8345   -1.1664    3.1017 C   0  0  0  0  0  0  0  0  0  0  0  0
    6.6619   -1.7021    2.6351 H   0  0  0  0  0  0  0  0  0  0  0  0
    4.8962   -1.5545    2.7038 H   0  0  0  0  0  0  0  0  0  0  0  0
    5.8646   -1.3073    4.1841 H   0  0  0  0  0  0  0  0  0  0  0  0
  1 13  1  0  0  0  0
  1  2  1  0  0  0  0
  2 14  1  0  0  0  0
  2  4  1  0  0  0  0
  2  9  1  0  0  0  0
  3  1  1  0  0  0  0
  4  6  1  0  0  0  0
  4  5  1  0  0  0  0
  7  4  1  0  0  0  0
  8  1  1  0  0  0  0
  9 11  1  0  0  0  0
  9 12  1  0  0  0  0
 10  9  1  0  0  0  0
 14 17  1  0  0  0  0
 15 14  1  0  0  0  0
 16 14  1  0  0  0  0
M  END
$$$$
