CSD_code = SARKOM | q = 0 | S = 0 | Stoichiometry = C23H36Cl2NP3Ru | MND = 6
 OpenBabel04212202093D

 66 70  0  0  1  0  0  0  0  0999 V2000
    1.5511    1.5032   12.2430 Ru  0  0  0  0  0  0  0  0  0  0  0  0
   -0.5702    2.5217   12.6854 Cl  0  0  0  0  0  0  0  0  0  0  0  0
    3.5557    0.2240   12.0703 Cl  0  0  0  0  0  0  0  0  0  0  0  0
    1.5053    1.9754   10.0332 P   0  0  0  0  0  4  0  0  0  0  0  0
    0.4077   -0.4215   11.7389 P   0  0  0  0  0  4  0  0  0  0  0  0
    2.4216    3.4839   12.9739 P   0  0  0  0  0  4  0  0  0  0  0  0
    1.5825    1.0153   14.3752 N   0  0  0  0  0  4  0  0  0  0  0  0
    0.6074    1.1171   14.6755 H   0  0  0  0  0  0  0  0  0  0  0  0
    1.8716    0.0449   14.5128 H   0  0  0  0  0  0  0  0  0  0  0  0
    3.0643    2.3300    9.1515 C   0  0  0  0  0  0  0  0  0  0  0  0
    2.8998    2.3478    8.0744 H   0  0  0  0  0  0  0  0  0  0  0  0
    3.7814    1.5526    9.4141 H   0  0  0  0  0  0  0  0  0  0  0  0
    3.4485    3.2927    9.4881 H   0  0  0  0  0  0  0  0  0  0  0  0
    0.4044    3.3022    9.4285 C   0  0  0  0  0  0  0  0  0  0  0  0
    0.6931    4.2256    9.9314 H   0  0  0  0  0  0  0  0  0  0  0  0
   -0.6225    3.0717    9.7092 H   0  0  0  0  0  0  0  0  0  0  0  0
    0.4936    3.4267    8.3501 H   0  0  0  0  0  0  0  0  0  0  0  0
    1.2418   -2.0470   11.6673 C   0  0  0  0  0  0  0  0  0  0  0  0
    0.5358   -2.8347   11.4064 H   0  0  0  0  0  0  0  0  0  0  0  0
    1.6701   -2.2505   12.6495 H   0  0  0  0  0  0  0  0  0  0  0  0
    2.0619   -2.0050   10.9530 H   0  0  0  0  0  0  0  0  0  0  0  0
   -1.1180   -0.8499   12.6553 C   0  0  0  0  0  0  0  0  0  0  0  0
   -1.7193    0.0523   12.7611 H   0  0  0  0  0  0  0  0  0  0  0  0
   -0.8559   -1.2256   13.6454 H   0  0  0  0  0  0  0  0  0  0  0  0
   -1.6758   -1.6138   12.1148 H   0  0  0  0  0  0  0  0  0  0  0  0
    0.9188    0.4389    9.1931 C   0  0  1  0  0  0  0  0  0  0  0  0
    1.7759   -0.2499    9.2494 H   0  0  0  0  0  0  0  0  0  0  0  0
   -0.2267   -0.1432   10.0306 C   0  0  1  0  0  0  0  0  0  0  0  0
   -1.0085    0.6234   10.1427 H   0  0  0  0  0  0  0  0  0  0  0  0
   -0.7349   -1.2883    9.1606 C   0  0  0  0  0  0  0  0  0  0  0  0
   -1.7553   -1.5818    9.4042 H   0  0  0  0  0  0  0  0  0  0  0  0
   -0.0880   -2.1590    9.2739 H   0  0  0  0  0  0  0  0  0  0  0  0
   -0.6230   -0.7422    7.7239 C   0  0  0  0  0  0  0  0  0  0  0  0
   -0.2621   -1.5158    7.0466 H   0  0  0  0  0  0  0  0  0  0  0  0
   -1.5989   -0.4181    7.3625 H   0  0  0  0  0  0  0  0  0  0  0  0
    0.3514    0.4553    7.7746 C   0  0  0  0  0  0  0  0  0  0  0  0
    1.1341    0.3729    7.0216 H   0  0  0  0  0  0  0  0  0  0  0  0
   -0.1951    1.3815    7.5974 H   0  0  0  0  0  0  0  0  0  0  0  0
    2.4390    1.9073   15.1603 C   0  0  0  0  0  0  0  0  0  0  0  0
    3.4819    1.6952   14.8911 H   0  0  0  0  0  0  0  0  0  0  0  0
    2.3097    1.7356   16.2396 H   0  0  0  0  0  0  0  0  0  0  0  0
    2.1012    3.3504   14.7975 C   0  0  0  0  0  0  0  0  0  0  0  0
    2.7045    4.0617   15.3658 H   0  0  0  0  0  0  0  0  0  0  0  0
    1.0386    3.5340   14.9821 H   0  0  0  0  0  0  0  0  0  0  0  0
    1.6672    5.0644   12.4802 C   0  0  0  0  0  0  0  0  0  0  0  0
    0.5056    5.5755   13.0463 C   0  0  0  0  0  0  0  0  0  0  0  0
    0.0154    5.0564   13.8544 H   0  0  0  0  0  0  0  0  0  0  0  0
   -0.0490    6.7445   12.5542 C   0  0  0  0  0  0  0  0  0  0  0  0
   -0.9521    7.1346   13.0005 H   0  0  0  0  0  0  0  0  0  0  0  0
    0.5406    7.4093   11.4930 C   0  0  0  0  0  0  0  0  0  0  0  0
    0.1027    8.3207   11.1128 H   0  0  0  0  0  0  0  0  0  0  0  0
    1.6915    6.8983   10.9137 C   0  0  0  0  0  0  0  0  0  0  0  0
    2.1526    7.4082   10.0799 H   0  0  0  0  0  0  0  0  0  0  0  0
    2.2470    5.7310   11.4010 C   0  0  0  0  0  0  0  0  0  0  0  0
    3.1453    5.3254   10.9512 H   0  0  0  0  0  0  0  0  0  0  0  0
    4.1753    3.9895   12.9943 C   0  0  0  0  0  0  0  0  0  0  0  0
    4.5434    5.1879   13.6027 C   0  0  0  0  0  0  0  0  0  0  0  0
    3.7849    5.8222   14.0436 H   0  0  0  0  0  0  0  0  0  0  0  0
    5.8694    5.5719   13.6276 C   0  0  0  0  0  0  0  0  0  0  0  0
    6.1521    6.5021   14.0998 H   0  0  0  0  0  0  0  0  0  0  0  0
    6.8374    4.7666   13.0452 C   0  0  0  0  0  0  0  0  0  0  0  0
    7.8739    5.0712   13.0672 H   0  0  0  0  0  0  0  0  0  0  0  0
    6.4747    3.5780   12.4370 C   0  0  0  0  0  0  0  0  0  0  0  0
    7.2267    2.9493   11.9832 H   0  0  0  0  0  0  0  0  0  0  0  0
    5.1456    3.1884   12.4082 C   0  0  0  0  0  0  0  0  0  0  0  0
    4.8554    2.2547   11.9474 H   0  0  0  0  0  0  0  0  0  0  0  0
  1  2  1  0  0  0  0
  1  6  1  0  0  0  0
  1  7  1  0  0  0  0
  3  1  1  0  0  0  0
  4  1  1  0  0  0  0
  5  1  1  0  0  0  0
  5 22  1  0  0  0  0
  6 56  1  0  0  0  0
  6 42  1  0  0  0  0
  7  9  1  0  0  0  0
  7  8  1  0  0  0  0
  7 39  1  0  0  0  0
 10 12  1  0  0  0  0
 10 13  1  0  0  0  0
 10  4  1  0  0  0  0
 11 10  1  0  0  0  0
 14 16  1  0  0  0  0
 14 15  1  0  0  0  0
 14  4  1  0  0  0  0
 17 14  1  0  0  0  0
 18  5  1  0  0  0  0
 18 20  1  0  0  0  0
 19 18  1  0  0  0  0
 21 18  1  0  0  0  0
 22 23  1  0  0  0  0
 22 24  1  0  0  0  0
 25 22  1  0  0  0  0
 26 27  1  1  0  0  0
 26 28  1  0  0  0  0
 26  4  1  0  0  0  0
 28 29  1  1  0  0  0
 28  5  1  0  0  0  0
 30 32  1  0  0  0  0
 30 31  1  0  0  0  0
 30 28  1  0  0  0  0
 33 36  1  0  0  0  0
 33 30  1  0  0  0  0
 34 33  1  0  0  0  0
 35 33  1  0  0  0  0
 36 26  1  0  0  0  0
 37 36  1  0  0  0  0
 38 36  1  0  0  0  0
 39 41  1  0  0  0  0
 40 39  1  0  0  0  0
 42 44  1  0  0  0  0
 42 39  1  0  0  0  0
 42 43  1  0  0  0  0
 45  6  1  0  0  0  0
 45 46  1  0  0  0  0
 46 47  1  0  0  0  0
 48 49  1  0  0  0  0
 48 46  2  0  0  0  0
 50 48  1  0  0  0  0
 51 50  1  0  0  0  0
 52 54  1  0  0  0  0
 52 50  2  0  0  0  0
 53 52  1  0  0  0  0
 54 45  2  0  0  0  0
 55 54  1  0  0  0  0
 56 57  1  0  0  0  0
 57 59  2  0  0  0  0
 57 58  1  0  0  0  0
 59 60  1  0  0  0  0
 61 62  1  0  0  0  0
 61 59  1  0  0  0  0
 63 61  2  0  0  0  0
 64 63  1  0  0  0  0
 65 63  1  0  0  0  0
 65 56  2  0  0  0  0
 66 65  1  0  0  0  0
M  END
$$$$
