CSD_code = SARQEJ | q = 0 | S = 0 | Stoichiometry = C14H12Cl3N5Os | MND = 6
 OpenBabel04212202093D

 35 38  0  0  1  0  0  0  0  0999 V2000
    6.7076    2.0913    2.2112 Os  0  0  0  0  0  0  0  0  0  0  0  0
    6.7076   -0.1632    2.2143 Cl  0  0  0  0  0  0  0  0  0  0  0  0
    6.0479    2.0180   -0.0852 Cl  0  0  0  0  0  0  0  0  0  0  0  0
    6.7073    3.7543    2.2092 N   0  0  0  0  0  1  0  0  0  0  0  0
    8.6934    1.9793    1.5662 N   0  0  0  0  0  0  0  0  0  0  0  0
    8.9698    1.7696    0.2677 N   0  0  0  0  0  0  0  0  0  0  0  0
    8.1931    1.7474   -0.3990 H   0  0  0  0  0  0  0  0  0  0  0  0
    9.8244    1.9951    2.2450 C   0  0  0  0  0  0  0  0  0  0  0  0
    9.8432    2.1486    3.3077 H   0  0  0  0  0  0  0  0  0  0  0  0
   10.9030    1.7902    1.3609 C   0  0  0  0  0  0  0  0  0  0  0  0
   10.3012    1.6495    0.0829 C   0  0  1  0  0  3  0  0  0  0  0  0
   11.0633    1.4284   -1.0650 C   0  0  0  0  0  0  0  0  0  0  0  0
   10.5953    1.3223   -2.0304 H   0  0  0  0  0  0  0  0  0  0  0  0
   12.4249    1.3546   -0.9028 C   0  0  0  0  0  0  0  0  0  0  0  0
   13.0530    1.1852   -1.7642 H   0  0  0  0  0  0  0  0  0  0  0  0
   13.0332    1.4933    0.3573 C   0  0  0  0  0  0  0  0  0  0  0  0
   14.1085    1.4260    0.4217 H   0  0  0  0  0  0  0  0  0  0  0  0
   12.2958    1.7096    1.4927 C   0  0  0  0  0  0  0  0  0  0  0  0
   12.7600    1.8157    2.4602 H   0  0  0  0  0  0  0  0  0  0  0  0
    7.3659    2.0268    4.5087 Cl  0  0  0  0  0  0  0  0  0  0  0  0
    4.7222    1.9800    2.8576 N   0  0  0  0  0  0  0  0  0  0  0  0
    4.4462    1.7687    4.1560 N   0  0  0  0  0  0  0  0  0  0  0  0
    5.2229    1.7469    4.8226 H   0  0  0  0  0  0  0  0  0  0  0  0
    3.5909    1.9969    2.1792 C   0  0  0  0  0  0  0  0  0  0  0  0
    3.5718    2.1517    1.1167 H   0  0  0  0  0  0  0  0  0  0  0  0
    2.5126    1.7913    3.0635 C   0  0  0  0  0  0  0  0  0  0  0  0
    3.1148    1.6489    4.3411 C   0  0  0  0  0  0  0  0  0  0  0  0
    2.3531    1.4267    5.4890 C   0  0  0  0  0  0  0  0  0  0  0  0
    2.8214    1.3193    6.4541 H   0  0  0  0  0  0  0  0  0  0  0  0
    0.9913    1.3534    5.3273 C   0  0  0  0  0  0  0  0  0  0  0  0
    0.3636    1.1832    6.1887 H   0  0  0  0  0  0  0  0  0  0  0  0
    0.3826    1.4937    4.0675 C   0  0  0  0  0  0  0  0  0  0  0  0
   -0.6927    1.4268    4.0035 H   0  0  0  0  0  0  0  0  0  0  0  0
    1.1197    1.7112    2.9322 C   0  0  0  0  0  3  0  0  0  0  0  0
    0.6551    1.8185    1.9649 H   0  0  0  0  0  0  0  0  0  0  0  0
  1  2  1  0  0  0  0
  1 21  1  0  0  0  0
  1 20  1  0  0  0  0
  3  1  1  0  0  0  0
  4  1  1  0  0  0  0
  5  1  1  0  0  0  0
  5  8  1  0  0  0  0
  6  5  1  0  0  0  0
  7  6  1  0  0  0  0
  8  9  1  0  0  0  0
 10 18  1  0  0  0  0
 10  8  2  0  0  0  0
 11 12  1  1  0  0  0
 11  6  1  0  0  0  0
 11 10  1  0  0  0  0
 12 14  2  0  0  0  0
 13 12  1  0  0  0  0
 14 16  1  0  0  0  0
 15 14  1  0  0  0  0
 16 17  1  0  0  0  0
 16 18  2  0  0  0  0
 18 19  1  0  0  0  0
 21 22  1  0  0  0  0
 22 27  1  0  0  0  0
 22 23  1  0  0  0  0
 24 21  1  0  0  0  0
 24 26  2  0  0  0  0
 25 24  1  0  0  0  0
 26 27  1  0  0  0  0
 27 28  2  0  0  0  0
 28 29  1  0  0  0  0
 30 28  1  0  0  0  0
 30 31  1  0  0  0  0
 32 30  2  0  0  0  0
 33 32  1  0  0  0  0
 34 26  1  0  0  0  0
 34 32  1  0  0  0  0
 35 34  1  0  0  0  0
M  END
$$$$
