CSD_code = SASRIQ | q = 0 | S = 0 | Stoichiometry = C12H8AuCl3N2 | MND = 4
 OpenBabel04212202093D

 26 28  0  0  0  0  0  0  0  0999 V2000
    3.2087    4.7447   -1.3092 C   0  0  0  0  0  0  0  0  0  0  0  0
    3.5629    3.8950   -1.8726 H   0  0  0  0  0  0  0  0  0  0  0  0
    2.6156    5.7963   -1.9655 C   0  0  0  0  0  0  0  0  0  0  0  0
    2.4990    5.7869   -3.0377 H   0  0  0  0  0  0  0  0  0  0  0  0
    2.1618    6.8882   -1.2151 C   0  0  0  0  0  0  0  0  0  0  0  0
    1.6890    7.7341   -1.6961 H   0  0  0  0  0  0  0  0  0  0  0  0
    2.9561    6.0599    2.1591 C   0  0  0  0  0  0  0  0  0  0  0  0
    2.5697    6.9584    2.6133 H   0  0  0  0  0  0  0  0  0  0  0  0
    3.5207    5.0759    2.8978 C   0  0  0  0  0  0  0  0  0  0  0  0
    3.5999    5.1646    3.9718 H   0  0  0  0  0  0  0  0  0  0  0  0
    5.0623    1.8342    2.5054 C   0  0  0  0  0  0  0  0  0  0  0  0
    5.4972    1.1088    3.1760 H   0  0  0  0  0  0  0  0  0  0  0  0
    5.0291    1.6124    1.1349 C   0  0  0  0  0  0  0  0  0  0  0  0
    5.4392    0.7003    0.7333 H   0  0  0  0  0  0  0  0  0  0  0  0
    4.4668    2.5676    0.3190 C   0  0  0  0  0  0  0  0  0  0  0  0
    4.4329    2.4039   -0.7464 H   0  0  0  0  0  0  0  0  0  0  0  0
    2.8493    5.9454    0.7429 C   0  0  0  0  0  0  0  0  0  0  0  0
    4.0231    3.8975    2.2846 C   0  0  0  0  0  0  0  0  0  0  0  0
    3.9462    3.7436    0.8739 C   0  0  0  0  0  0  0  0  0  0  0  0
    3.3444    4.7895    0.0893 C   0  0  0  0  0  0  0  0  0  0  0  0
    2.2746    6.9602    0.0847 N   0  0  0  0  0  2  0  0  0  0  0  0
    4.5741    2.9321    3.0494 N   0  0  0  0  0  0  0  0  0  0  0  0
    2.4514    2.4297    5.1417 Cl  0  0  0  0  0  0  0  0  0  0  0  0
    4.7254    3.2304    7.3182 Cl  0  0  0  0  0  0  0  0  0  0  0  0
    6.8313    3.7265    4.8966 Cl  0  0  0  0  0  0  0  0  0  0  0  0
    4.6434    3.0916    5.1033 Au  0  0  0  0  0  0  0  0  0  0  0  0
  1 20  2  0  0  0  0
  2  1  1  0  0  0  0
  3  1  1  0  0  0  0
  3  5  2  0  0  0  0
  4  3  1  0  0  0  0
  5 21  1  0  0  0  0
  6  5  1  0  0  0  0
  7  8  1  0  0  0  0
  7  9  1  0  0  0  0
  9 10  1  0  0  0  0
 11 22  1  0  0  0  0
 11 12  1  0  0  0  0
 13 11  2  0  0  0  0
 14 13  1  0  0  0  0
 15 19  2  0  0  0  0
 15 13  1  0  0  0  0
 16 15  1  0  0  0  0
 17  7  2  0  0  0  0
 18  9  2  0  0  0  0
 18 22  1  0  0  0  0
 19 18  1  0  0  0  0
 20 17  1  0  0  0  0
 20 19  1  0  0  0  0
 21 17  1  0  0  0  0
 22 26  1  0  0  0  0
 25 26  1  0  0  0  0
 26 23  1  0  0  0  0
 26 24  1  0  0  0  0
M  END
$$$$
