CSD_code = SASTAK | q = 1 | S = 0 | Stoichiometry = C15H17BrN5Pd(1+) | MND = 4
 OpenBabel04212202093D

 39 43  0  0  1  0  0  0  0  0999 V2000
    3.9879   -0.2212   11.4401 Pd  0  0  2  0  0  0  0  0  0  0  0  0
    5.2068   -2.1448   10.9524 Br  0  0  0  0  0  0  0  0  0  0  0  0
    4.6297   -0.8308   14.5510 N   0  0  0  0  0  0  0  0  0  0  0  0
    3.7465    1.0479   13.9563 N   0  0  0  0  0  0  0  0  0  0  0  0
    3.1707    1.5106   11.8208 N   0  0  0  0  0  0  0  0  0  0  0  0
    2.8324    1.5771    9.5877 N   0  0  0  0  0  0  0  0  0  0  0  0
    3.3213   -0.0694    8.2788 N   0  0  0  0  0  0  0  0  0  0  0  0
    4.2242   -0.1531   13.4764 C   0  0  2  0  0  3  0  0  0  0  0  0
    4.4236   -0.0933   15.6876 C   0  0  0  0  0  0  0  0  0  0  0  0
    4.6819   -0.4592   16.6602 H   0  0  0  0  0  0  0  0  0  0  0  0
    3.8742    1.0890   15.3240 C   0  0  0  0  0  0  0  0  0  0  0  0
    3.5730    1.9258   15.9182 H   0  0  0  0  0  0  0  0  0  0  0  0
    3.2066    1.9765   13.0719 C   0  0  2  0  0  3  0  0  0  0  0  0
    2.7422    3.2511   13.3661 C   0  0  0  0  0  0  0  0  0  0  0  0
    2.7625    3.6368   14.3710 H   0  0  0  0  0  0  0  0  0  0  0  0
    2.2554    4.0210   12.3165 C   0  0  0  0  0  0  0  0  0  0  0  0
    1.8867    5.0145   12.5140 H   0  0  0  0  0  0  0  0  0  0  0  0
    2.2486    3.5355   11.0143 C   0  0  0  0  0  0  0  0  0  0  0  0
    1.8865    4.1407   10.2010 H   0  0  0  0  0  0  0  0  0  0  0  0
    2.7307    2.2515   10.8005 C   0  0  0  0  0  0  0  0  0  0  0  0
    2.4129    1.9371    8.3294 C   0  0  0  0  0  0  0  0  0  0  0  0
    1.9413    2.8721    8.1115 H   0  0  0  0  0  0  0  0  0  0  0  0
    2.7188    0.8982    7.5178 C   0  0  0  0  0  0  0  0  0  0  0  0
    2.5560    0.7784    6.4662 H   0  0  0  0  0  0  0  0  0  0  0  0
    3.4039    0.3230    9.5507 C   0  0  0  0  0  0  0  0  0  0  0  0
    5.1036   -2.1986   14.5254 C   0  0  0  0  0  0  0  0  0  0  0  0
    5.5823   -2.4157   15.4813 H   0  0  0  0  0  0  0  0  0  0  0  0
    5.8373   -2.3035   13.7220 H   0  0  0  0  0  0  0  0  0  0  0  0
    3.9334   -3.1455   14.2751 C   0  0  0  0  0  0  0  0  0  0  0  0
    3.2129   -3.1011   15.0888 H   0  0  0  0  0  0  0  0  0  0  0  0
    4.3011   -4.1621   14.1860 H   0  0  0  0  0  0  0  0  0  0  0  0
    3.4345   -2.8781   13.3411 H   0  0  0  0  0  0  0  0  0  0  0  0
    3.7031   -1.3817    7.8012 C   0  0  0  0  0  0  0  0  0  0  0  0
    3.7544   -1.3510    6.7120 H   0  0  0  0  0  0  0  0  0  0  0  0
    4.6892   -1.6303    8.2021 H   0  0  0  0  0  0  0  0  0  0  0  0
    2.6853   -2.4178    8.2694 C   0  0  0  0  0  0  0  0  0  0  0  0
    2.6033   -2.3901    9.3581 H   0  0  0  0  0  0  0  0  0  0  0  0
    3.0155   -3.4092    7.9779 H   0  0  0  0  0  0  0  0  0  0  0  0
    1.7064   -2.2296    7.8339 H   0  0  0  0  0  0  0  0  0  0  0  0
  1  2  1  6  0  0  0
  1  5  1  0  0  0  0
  1  8  1  0  0  0  0
  3  9  1  0  0  0  0
  4 11  1  0  0  0  0
  5 13  1  0  0  0  0
  6 20  1  0  0  0  0
  7 25  1  0  0  0  0
  8  4  1  1  0  0  0
  8  3  1  0  0  0  0
  9 10  1  0  0  0  0
 11  9  2  0  0  0  0
 11 12  1  0  0  0  0
 13 14  1  6  0  0  0
 13  4  1  0  0  0  0
 14 15  1  0  0  0  0
 16 17  1  0  0  0  0
 16 14  2  0  0  0  0
 18 16  1  0  0  0  0
 19 18  1  0  0  0  0
 20 18  2  0  0  0  0
 20  5  1  0  0  0  0
 21  6  1  0  0  0  0
 22 21  1  0  0  0  0
 23  7  1  0  0  0  0
 23 21  2  0  0  0  0
 24 23  1  0  0  0  0
 25  6  1  0  0  0  0
 25  1  2  0  0  0  0
 26  3  1  0  0  0  0
 26 27  1  0  0  0  0
 28 26  1  0  0  0  0
 29 26  1  0  0  0  0
 29 30  1  0  0  0  0
 31 29  1  0  0  0  0
 32 29  1  0  0  0  0
 33 35  1  0  0  0  0
 33 36  1  0  0  0  0
 33  7  1  0  0  0  0
 34 33  1  0  0  0  0
 36 37  1  0  0  0  0
 38 36  1  0  0  0  0
 39 36  1  0  0  0  0
M  END
$$$$
