CSD_code = SASVUE | q = 0 | S = 0 | Stoichiometry = C11H15Cl2N3O3Zn | MND = 4
 OpenBabel04212202093D

 35 36  0  0  0  0  0  0  0  0999 V2000
    1.1457    1.9142    6.3769 Zn  0  0  0  0  0  0  0  0  0  0  0  0
   -0.4040    1.2375    7.7674 Cl  0  0  0  0  0  0  0  0  0  0  0  0
    2.3827    3.5463    7.4790 Cl  0  0  0  0  0  0  0  0  0  0  0  0
    5.3109    3.0168    0.1361 O   0  0  0  0  0  0  0  0  0  0  0  0
    6.4600    1.8407    1.5229 O   0  0  0  0  0  0  0  0  0  0  0  0
    1.0778    2.2671    4.5592 O   0  0  0  0  0  0  0  0  0  0  0  0
    5.4387    2.4089    1.1809 N   0  0  0  0  0  0  0  0  0  0  0  0
    2.7828    0.6557    6.3344 N   0  0  0  0  0  0  0  0  0  0  0  0
    2.8573    1.3650    9.3482 N   0  0  0  0  0  4  0  0  0  0  0  0
    3.3504    1.5984    4.1562 C   0  0  0  0  0  0  0  0  0  0  0  0
    2.1188    2.2606    3.8222 C   0  0  0  0  0  0  0  0  0  0  0  0
    2.0583    2.9439    2.5709 C   0  0  0  0  0  0  0  0  0  0  0  0
    1.1249    3.4301    2.3333 H   0  0  0  0  0  0  0  0  0  0  0  0
    3.1172    2.9983    1.7179 C   0  0  0  0  0  0  0  0  0  0  0  0
    3.0624    3.5246    0.7770 H   0  0  0  0  0  0  0  0  0  0  0  0
    4.3192    2.3555    2.0649 C   0  0  0  0  0  0  0  0  0  0  0  0
    4.4205    1.6711    3.2561 C   0  0  0  0  0  0  0  0  0  0  0  0
    5.3569    1.1834    3.4895 H   0  0  0  0  0  0  0  0  0  0  0  0
    3.5818    0.8467    5.3460 C   0  0  0  0  0  3  0  0  0  0  0  0
    4.5723    0.3772    5.3872 H   0  0  0  0  0  0  0  0  0  0  0  0
    3.2450   -0.2098    7.4005 C   0  0  0  0  0  0  0  0  0  0  0  0
    4.3382   -0.1539    7.4930 H   0  0  0  0  0  0  0  0  0  0  0  0
    2.9917   -1.2417    7.1256 H   0  0  0  0  0  0  0  0  0  0  0  0
    2.5520    0.0571    8.7340 C   0  0  0  0  0  0  0  0  0  0  0  0
    1.4714    0.0201    8.5672 H   0  0  0  0  0  0  0  0  0  0  0  0
    2.8336   -0.7286    9.4411 H   0  0  0  0  0  0  0  0  0  0  0  0
    1.8867    1.6620   10.4097 C   0  0  0  0  0  0  0  0  0  0  0  0
    1.9623    0.9272   11.2106 H   0  0  0  0  0  0  0  0  0  0  0  0
    0.8824    1.6420    9.9866 H   0  0  0  0  0  0  0  0  0  0  0  0
    2.0788    2.6561   10.8051 H   0  0  0  0  0  0  0  0  0  0  0  0
    4.2321    1.4651    9.8405 C   0  0  0  0  0  0  0  0  0  0  0  0
    4.3937    2.4573   10.2551 H   0  0  0  0  0  0  0  0  0  0  0  0
    4.9366    1.3242    9.0251 H   0  0  0  0  0  0  0  0  0  0  0  0
    4.4159    0.7165   10.6124 H   0  0  0  0  0  0  0  0  0  0  0  0
    2.7213    2.1635    8.6103 H   0  0  0  0  0  0  0  0  0  0  0  0
  1  3  1  0  0  0  0
  1  2  1  0  0  0  0
  4  7  2  0  0  0  0
  6  1  1  0  0  0  0
  7  5  2  0  0  0  0
  7 16  1  0  0  0  0
  8  1  1  0  0  0  0
  8 21  1  0  0  0  0
  9 31  1  0  0  0  0
  9 27  1  0  0  0  0
 10 19  1  0  0  0  0
 11 10  1  0  0  0  0
 11  6  1  0  0  0  0
 12 11  2  0  0  0  0
 13 12  1  0  0  0  0
 14 16  2  0  0  0  0
 14 12  1  0  0  0  0
 15 14  1  0  0  0  0
 16 17  1  0  0  0  0
 17 18  1  0  0  0  0
 17 10  2  0  0  0  0
 19 20  1  0  0  0  0
 19  8  1  0  0  0  0
 21 22  1  0  0  0  0
 21 24  1  0  0  0  0
 23 21  1  0  0  0  0
 24  9  1  0  0  0  0
 24 26  1  0  0  0  0
 25 24  1  0  0  0  0
 27 30  1  0  0  0  0
 27 28  1  0  0  0  0
 29 27  1  0  0  0  0
 31 32  1  0  0  0  0
 31 34  1  0  0  0  0
 33 31  1  0  0  0  0
 35  9  1  0  0  0  0
M  END
$$$$
