CSD_code = SASWUF | q = 0 | S = 0 | Stoichiometry = C12H27B9ClPPdS | MND = 7
 OpenBabel04212202093D

 52 55  0  0  1  0  0  0  0  0999 V2000
    4.1599    2.6760    2.2393 Pd  0  0  0  0  0  0  0  0  0  0  0  0
    6.4721    0.6393    1.9634 S   0  0  0  0  0  0  0  0  0  0  0  0
    2.1091    3.2681    1.4519 P   0  0  0  0  0  4  0  0  0  0  0  0
    4.6227    1.8947   -0.0173 Cl  0  0  0  0  0  0  0  0  0  0  0  0
    6.4005    3.6414    2.5249 C   0  0  2  0  0  0  0  0  0  0  0  0
    6.6742    3.7468    1.4740 H   0  0  0  0  0  0  0  0  0  0  0  0
    5.5128    4.7026    3.1210 C   0  0  2  0  0  0  0  0  0  0  0  0
    5.1773    5.5011    2.4606 H   0  0  0  0  0  0  0  0  0  0  0  0
    5.0440   -0.4513    2.2500 C   0  0  0  0  0  0  0  0  0  0  0  0
    5.2036   -1.3792    1.7089 H   0  0  0  0  0  0  0  0  0  0  0  0
    4.1613    0.0625    1.8546 H   0  0  0  0  0  0  0  0  0  0  0  0
    4.9357   -0.6340    3.3155 H   0  0  0  0  0  0  0  0  0  0  0  0
    7.6708   -0.3652    2.9167 C   0  0  0  0  0  0  0  0  0  0  0  0
    7.3435   -0.4638    3.9451 H   0  0  0  0  0  0  0  0  0  0  0  0
    8.6282    0.1419    2.8857 H   0  0  0  0  0  0  0  0  0  0  0  0
    7.7573   -1.3377    2.4439 H   0  0  0  0  0  0  0  0  0  0  0  0
    2.4347    4.7733    0.4784 C   0  0  0  0  0  0  0  0  0  0  0  0
    2.6683    5.9632    1.1667 C   0  0  0  0  0  0  0  0  0  0  0  0
    2.5752    5.9817    2.2446 H   0  0  0  0  0  0  0  0  0  0  0  0
    3.0203    7.1127    0.4849 C   0  0  0  0  0  0  0  0  0  0  0  0
    3.1938    8.0309    1.0282 H   0  0  0  0  0  0  0  0  0  0  0  0
    3.1599    7.0852   -0.8938 C   0  0  0  0  0  0  0  0  0  0  0  0
    3.4392    7.9820   -1.4274 H   0  0  0  0  0  0  0  0  0  0  0  0
    2.9527    5.9021   -1.5821 C   0  0  0  0  0  0  0  0  0  0  0  0
    3.0758    5.8737   -2.6551 H   0  0  0  0  0  0  0  0  0  0  0  0
    2.5963    4.7501   -0.9024 C   0  0  0  0  0  0  0  0  0  0  0  0
    2.4628    3.8277   -1.4457 H   0  0  0  0  0  0  0  0  0  0  0  0
    1.2374    2.1662    0.2726 C   0  0  0  0  0  0  0  0  0  0  0  0
    0.7856    1.3501    0.8354 H   0  0  0  0  0  0  0  0  0  0  0  0
    1.9568    1.7458   -0.4262 H   0  0  0  0  0  0  0  0  0  0  0  0
    0.4621    2.7115   -0.2643 H   0  0  0  0  0  0  0  0  0  0  0  0
    0.6781    3.8017    2.4849 C   0  0  0  0  0  0  0  0  0  0  0  0
    0.9959    4.5135    3.2410 H   0  0  0  0  0  0  0  0  0  0  0  0
    0.2733    2.9275    2.9907 H   0  0  0  0  0  0  0  0  0  0  0  0
   -0.0931    4.2523    1.8621 H   0  0  0  0  0  0  0  0  0  0  0  0
    6.0340    2.1092    3.1482 B   0  0  0  0  0  2  0  0  0  0  0  0
    7.4988    3.0099    3.6285 B   0  0  0  0  0  0  0  0  0  0  0  0
    8.5454    2.6470    3.2203 H   0  0  0  0  0  0  0  0  0  0  0  0
    7.1259    4.7411    3.6620 B   0  0  2  0  0  0  0  0  0  0  0  0
    7.8291    5.5923    3.2650 H   0  0  0  0  0  0  0  0  0  0  0  0
    4.3626    3.8809    4.0859 B   0  0  0  0  0  0  0  0  0  0  0  0
    3.3175    4.4097    4.2678 H   0  0  0  0  0  0  0  0  0  0  0  0
    4.8251    2.1851    4.3505 B   0  0  2  0  0  0  0  0  0  0  0  0
    4.0911    1.3156    4.7037 H   0  0  0  0  0  0  0  0  0  0  0  0
    6.5411    2.1867    4.8844 B   0  0  1  0  0  0  0  0  0  0  0  0
    6.9734    1.2582    5.4727 H   0  0  0  0  0  0  0  0  0  0  0  0
    7.0927    3.8406    5.1730 B   0  0  2  0  0  0  0  0  0  0  0  0
    7.8680    4.0786    6.0251 H   0  0  0  0  0  0  0  0  0  0  0  0
    5.7437    4.9163    4.7481 B   0  0  2  0  0  0  0  0  0  0  0  0
    5.4502    5.9602    5.2038 H   0  0  0  0  0  0  0  0  0  0  0  0
    5.3913    3.3523    5.5258 B   0  0  1  0  0  0  0  0  0  0  0  0
    4.9653    3.3459    6.6240 H   0  0  0  0  0  0  0  0  0  0  0  0
  2  9  1  0  0  0  0
  2 13  1  0  0  0  0
  3  1  1  0  0  0  0
  3 32  1  0  0  0  0
  4  1  1  0  0  0  0
  5  6  1  6  0  0  0
  5  7  1  0  0  0  0
  5 36  1  0  0  0  0
  5 37  1  0  0  0  0
  7  8  1  6  0  0  0
  7 39  1  0  0  0  0
  7 49  1  0  0  0  0
  9 12  1  0  0  0  0
 10  9  1  0  0  0  0
 11  9  1  0  0  0  0
 13 14  1  0  0  0  0
 15 13  1  0  0  0  0
 16 13  1  0  0  0  0
 17 18  1  0  0  0  0
 17  3  1  0  0  0  0
 18 19  1  0  0  0  0
 20 21  1  0  0  0  0
 20 18  2  0  0  0  0
 22 20  1  0  0  0  0
 23 22  1  0  0  0  0
 24 26  1  0  0  0  0
 24 22  2  0  0  0  0
 25 24  1  0  0  0  0
 26 17  2  0  0  0  0
 27 26  1  0  0  0  0
 28 29  1  0  0  0  0
 28  3  1  0  0  0  0
 30 28  1  0  0  0  0
 31 28  1  0  0  0  0
 32 34  1  0  0  0  0
 32 33  1  0  0  0  0
 35 32  1  0  0  0  0
 36 43  1  0  0  0  0
 37 45  1  0  0  0  0
 38 37  1  0  0  0  0
 39 40  1  6  0  0  0
 39 49  1  0  0  0  0
 39 47  1  0  0  0  0
 41 42  1  0  0  0  0
 41 43  1  0  0  0  0
 41 51  1  0  0  0  0
 43 44  1  1  0  0  0
 43 51  1  0  0  0  0
 45 47  1  0  0  0  0
 45 46  1  1  0  0  0
 45 51  1  0  0  0  0
 47 48  1  1  0  0  0
 49 47  1  0  0  0  0
 49 50  1  1  0  0  0
 51 52  1  1  0  0  0
M  END
$$$$
