CSD_code = SATGUS | q = 0 | S = 0 | Stoichiometry = C19H20AgClN2 | MND = 2
 OpenBabel04212202093D

 43 45  0  0  1  0  0  0  0  0999 V2000
    7.3439    5.0364   11.6475 Ag  0  0  0  0  0  0  0  0  0  0  0  0
    8.8902    6.6522   11.6833 Cl  0  0  0  0  0  0  0  0  0  0  0  0
    5.3547    4.6624    6.9150 C   0  0  0  0  0  0  0  0  0  0  0  0
    5.3789    5.7221    6.7110 H   0  0  0  0  0  0  0  0  0  0  0  0
    5.9927    2.7988    8.3029 C   0  0  0  0  0  0  0  0  0  0  0  0
    5.7705    2.4932   10.6799 N   0  0  0  0  0  0  0  0  0  0  0  0
    4.0563    2.0166   16.6779 C   0  0  0  0  0  0  0  0  0  0  0  0
    3.2542    1.5960   17.2663 H   0  0  0  0  0  0  0  0  0  0  0  0
    4.0703    2.2416   12.0264 C   0  0  0  0  0  0  0  0  0  0  0  0
    3.2011    1.9152   12.5582 H   0  0  0  0  0  0  0  0  0  0  0  0
    6.0971    3.1027   15.1694 C   0  0  0  0  0  0  0  0  0  0  0  0
    6.8950    3.5353   14.5763 H   0  0  0  0  0  0  0  0  0  0  0  0
    4.6722    1.7207   10.9312 C   0  0  0  0  0  0  0  0  0  0  0  0
    4.3937    0.8831   10.3270 H   0  0  0  0  0  0  0  0  0  0  0  0
    4.8084    3.3280   12.4020 N   0  0  0  0  0  0  0  0  0  0  0  0
    3.7573    2.7896   15.5678 C   0  0  0  0  0  0  0  0  0  0  0  0
    2.7236    2.9621   15.3108 H   0  0  0  0  0  0  0  0  0  0  0  0
    4.6547    2.4474    6.3353 C   0  0  0  0  0  0  0  0  0  0  0  0
    4.1281    1.7727    5.6766 H   0  0  0  0  0  0  0  0  0  0  0  0
    6.0065    4.1612    8.0260 C   0  0  0  0  0  0  0  0  0  0  0  0
    6.5394    4.8335    8.6919 H   0  0  0  0  0  0  0  0  0  0  0  0
    5.8635    3.4927   11.5803 C   0  0  2  0  0  3  0  0  0  0  0  0
    4.5273    4.1624   13.5563 C   0  0  1  0  0  0  0  0  0  0  0  0
    5.2754    4.9716   13.5252 H   0  0  0  0  0  0  0  0  0  0  0  0
    5.3061    1.9461    7.4499 C   0  0  0  0  0  0  0  0  0  0  0  0
    5.2789    0.8840    7.6400 H   0  0  0  0  0  0  0  0  0  0  0  0
    3.1393    4.7845   13.4451 C   0  0  0  0  0  0  0  0  0  0  0  0
    3.0997    5.4262   12.5677 H   0  0  0  0  0  0  0  0  0  0  0  0
    2.9372    5.3875   14.3258 H   0  0  0  0  0  0  0  0  0  0  0  0
    2.3641    4.0286   13.3498 H   0  0  0  0  0  0  0  0  0  0  0  0
    4.7762    3.3429   14.8061 C   0  0  0  0  0  0  0  0  0  0  0  0
    4.6767    3.8039    6.0651 C   0  0  0  0  0  0  0  0  0  0  0  0
    4.1687    4.1916    5.1948 H   0  0  0  0  0  0  0  0  0  0  0  0
    6.6838    2.3199    9.5636 C   0  0  1  0  0  0  0  0  0  0  0  0
    7.5262    3.0011    9.7656 H   0  0  0  0  0  0  0  0  0  0  0  0
    6.3954    2.3287   16.2744 C   0  0  0  0  0  0  0  0  0  0  0  0
    7.4253    2.1545   16.5467 H   0  0  0  0  0  0  0  0  0  0  0  0
    5.3724    1.7831   17.0330 C   0  0  0  0  0  0  0  0  0  0  0  0
    5.6016    1.1808   17.8991 H   0  0  0  0  0  0  0  0  0  0  0  0
    7.2209    0.8938    9.5075 C   0  0  0  0  0  0  0  0  0  0  0  0
    6.4254    0.1603    9.4101 H   0  0  0  0  0  0  0  0  0  0  0  0
    7.7755    0.6770   10.4178 H   0  0  0  0  0  0  0  0  0  0  0  0
    7.8919    0.7939    8.6588 H   0  0  0  0  0  0  0  0  0  0  0  0
  1  2  1  0  0  0  0
  3 20  1  0  0  0  0
  4  3  1  0  0  0  0
  5 34  1  0  0  0  0
  6 13  1  0  0  0  0
  6 22  1  0  0  0  0
  7 38  1  0  0  0  0
  7  8  1  0  0  0  0
  9 15  1  0  0  0  0
  9 10  1  0  0  0  0
 11 36  1  0  0  0  0
 12 11  1  0  0  0  0
 13  9  2  0  0  0  0
 14 13  1  0  0  0  0
 15 23  1  0  0  0  0
 16  7  2  0  0  0  0
 17 16  1  0  0  0  0
 18 25  2  0  0  0  0
 19 18  1  0  0  0  0
 20  5  2  0  0  0  0
 20 21  1  0  0  0  0
 22  1  1  6  0  0  0
 22 15  1  0  0  0  0
 23 24  1  6  0  0  0
 23 31  1  0  0  0  0
 25 26  1  0  0  0  0
 25  5  1  0  0  0  0
 27 23  1  0  0  0  0
 27 29  1  0  0  0  0
 28 27  1  0  0  0  0
 30 27  1  0  0  0  0
 31 11  2  0  0  0  0
 31 16  1  0  0  0  0
 32 18  1  0  0  0  0
 32  3  2  0  0  0  0
 33 32  1  0  0  0  0
 34 35  1  1  0  0  0
 34  6  1  0  0  0  0
 36 37  1  0  0  0  0
 36 38  2  0  0  0  0
 38 39  1  0  0  0  0
 40 34  1  0  0  0  0
 40 42  1  0  0  0  0
 41 40  1  0  0  0  0
 43 40  1  0  0  0  0
M  END
$$$$
