CSD_code = SATLAC | q = 1 | S = 0 | Stoichiometry = C16H25ClN7O3Zn(1+) | MND = 4
 OpenBabel04212202093D

 53 58  0  0  1  0  0  0  0  0999 V2000
    6.0953    0.9854    1.9819 Zn  0  0  0  0  0  0  0  0  0  0  0  0
    5.5022   -0.5994    0.6489 Cl  0  0  0  0  0  0  0  0  0  0  0  0
    8.4451   -1.9380    1.7043 O   0  0  0  0  0  0  0  0  0  0  0  0
    7.2171   -5.0505    6.0960 O   0  0  0  0  0  0  0  0  0  0  0  0
    8.2718   -5.2154    4.2242 O   0  0  0  0  0  0  0  0  0  0  0  0
    4.1999    1.2144    3.2857 N   0  0  2  0  0  4  0  0  0  0  0  0
    5.0778    2.6533    0.9603 N   0  0  1  0  0  4  0  0  0  0  0  0
    7.8159    2.3919    1.7075 N   0  0  1  0  0  4  0  0  0  0  0  0
    6.9077    1.0249    4.1960 N   0  0  0  0  0  4  0  0  0  0  0  0
    8.0345   -0.8085    2.2794 N   0  0  0  0  0  0  0  0  0  0  0  0
    8.3481   -2.9868    2.4843 N   0  0  0  0  0  0  0  0  0  0  0  0
    7.6737   -4.6034    5.0699 N   0  0  0  0  0  0  0  0  0  0  0  0
    3.6284    2.5204    2.9361 C   0  0  0  0  0  0  0  0  0  0  0  0
    3.7004    2.7857    1.4324 C   0  0  0  0  0  0  0  0  0  0  0  0
    5.8898    3.8563    1.1139 C   0  0  0  0  0  0  0  0  0  0  0  0
    7.3492    3.4963    0.8553 C   0  0  0  0  0  0  0  0  0  0  0  0
    8.1371    2.8768    3.0527 C   0  0  0  0  0  0  0  0  0  0  0  0
    8.1800    1.7536    4.0880 C   0  0  0  0  0  0  0  0  0  0  0  0
    5.9121    1.7278    5.0002 C   0  0  0  0  0  0  0  0  0  0  0  0
    4.5204    1.1642    4.7169 C   0  0  0  0  0  0  0  0  0  0  0  0
    3.2405    0.1517    2.9665 C   0  0  0  0  0  0  0  0  0  0  0  0
    9.0073    1.8083    1.0807 C   0  0  0  0  0  0  0  0  0  0  0  0
    7.0896   -0.3415    4.5138 C   0  0  0  0  0  0  0  0  0  0  0  0
    6.7305   -0.9994    5.6661 C   0  0  0  0  0  0  0  0  0  0  0  0
    6.9370   -2.3878    5.8228 C   0  0  0  0  0  0  0  0  0  0  0  0
    7.4843   -3.1815    4.8491 C   0  0  0  0  0  0  0  0  0  0  0  0
    7.8550   -2.5647    3.6331 C   0  0  0  0  0  0  0  0  0  0  0  0
    7.6580   -1.1471    3.4988 C   0  0  0  0  0  0  0  0  0  0  0  0
    5.0619    2.4039   -0.0265 H   0  0  0  0  0  0  0  0  0  0  0  0
    4.1897    3.2957    3.4603 H   0  0  0  0  0  0  0  0  0  0  0  0
    2.5819    2.5827    3.2588 H   0  0  0  0  0  0  0  0  0  0  0  0
    3.0862    2.0585    0.9019 H   0  0  0  0  0  0  0  0  0  0  0  0
    3.3001    3.7853    1.2261 H   0  0  0  0  0  0  0  0  0  0  0  0
    5.5882    4.6475    0.4165 H   0  0  0  0  0  0  0  0  0  0  0  0
    5.7566    4.2391    2.1274 H   0  0  0  0  0  0  0  0  0  0  0  0
    7.9820    4.3818    0.9893 H   0  0  0  0  0  0  0  0  0  0  0  0
    7.4379    3.1693   -0.1828 H   0  0  0  0  0  0  0  0  0  0  0  0
    9.1127    3.3795    3.0579 H   0  0  0  0  0  0  0  0  0  0  0  0
    7.3839    3.6084    3.3472 H   0  0  0  0  0  0  0  0  0  0  0  0
    8.4444    2.1831    5.0623 H   0  0  0  0  0  0  0  0  0  0  0  0
    8.9583    1.0425    3.8146 H   0  0  0  0  0  0  0  0  0  0  0  0
    5.9472    2.7813    4.7220 H   0  0  0  0  0  0  0  0  0  0  0  0
    6.1305    1.6624    6.0723 H   0  0  0  0  0  0  0  0  0  0  0  0
    4.4911    0.1201    5.0310 H   0  0  0  0  0  0  0  0  0  0  0  0
    3.7777    1.7141    5.3077 H   0  0  0  0  0  0  0  0  0  0  0  0
    3.6784   -0.8185    3.1897 H   0  0  0  0  0  0  0  0  0  0  0  0
    3.0062    0.1641    1.9068 H   0  0  0  0  0  0  0  0  0  0  0  0
    2.3167    0.2707    3.5408 H   0  0  0  0  0  0  0  0  0  0  0  0
    9.4396    1.0488    1.7219 H   0  0  0  0  0  0  0  0  0  0  0  0
    9.7592    2.5787    0.8854 H   0  0  0  0  0  0  0  0  0  0  0  0
    8.7298    1.3303    0.1445 H   0  0  0  0  0  0  0  0  0  0  0  0
    6.2857   -0.4746    6.4958 H   0  0  0  0  0  0  0  0  0  0  0  0
    6.6528   -2.8573    6.7541 H   0  0  0  0  0  0  0  0  0  0  0  0
  1  6  1  0  0  0  0
  1  9  1  0  0  0  0
  2  1  1  0  0  0  0
  3 10  1  0  0  0  0
  3 11  1  0  0  0  0
  5 12  2  0  0  0  0
  6 21  1  6  0  0  0
  6 20  1  0  0  0  0
  7 29  1  6  0  0  0
  7 15  1  0  0  0  0
  7 14  1  0  0  0  0
  7  1  1  0  0  0  0
  8 22  1  6  0  0  0
  8  1  1  0  0  0  0
  8 17  1  0  0  0  0
  9 23  1  0  0  0  0
  9 19  1  0  0  0  0
 10 28  2  0  0  0  0
 11 27  2  0  0  0  0
 12  4  2  0  0  0  0
 13 31  1  0  0  0  0
 13  6  1  0  0  0  0
 13 30  1  0  0  0  0
 14 13  1  0  0  0  0
 15 35  1  0  0  0  0
 16 36  1  0  0  0  0
 16 15  1  0  0  0  0
 16  8  1  0  0  0  0
 17 38  1  0  0  0  0
 17 39  1  0  0  0  0
 17 18  1  0  0  0  0
 18  9  1  0  0  0  0
 18 40  1  0  0  0  0
 19 43  1  0  0  0  0
 20 19  1  0  0  0  0
 20 44  1  0  0  0  0
 20 45  1  0  0  0  0
 21 46  1  0  0  0  0
 21 48  1  0  0  0  0
 22 49  1  0  0  0  0
 23 24  2  0  0  0  0
 24 25  1  0  0  0  0
 24 52  1  0  0  0  0
 25 53  1  0  0  0  0
 26 12  1  0  0  0  0
 26 25  2  0  0  0  0
 27 26  1  0  0  0  0
 28 27  1  0  0  0  0
 28 23  1  0  0  0  0
 32 14  1  0  0  0  0
 33 14  1  0  0  0  0
 34 15  1  0  0  0  0
 37 16  1  0  0  0  0
 41 18  1  0  0  0  0
 42 19  1  0  0  0  0
 47 21  1  0  0  0  0
 50 22  1  0  0  0  0
 51 22  1  0  0  0  0
M  END
$$$$
