CSD_code = SATMIL | q = 0 | S = 0 | Stoichiometry = C16H16ClN2O2Rh | MND = 4
 OpenBabel04212202093D

 38 39  0  0  0  0  0  0  0  0999 V2000
    2.8326    8.8387   -0.0874 C   0  0  0  0  0  3  0  0  0  0  0  0
    3.6752    8.2389   -0.4228 H   0  0  0  0  0  0  0  0  0  0  0  0
    2.0580    8.3418    0.9932 C   0  0  0  0  0  0  0  0  0  0  0  0
    0.9829    9.1795    1.4083 C   0  0  0  0  0  0  0  0  0  0  0  0
    0.3369    8.8620    2.2106 H   0  0  0  0  0  0  0  0  0  0  0  0
    0.7356   10.3490    0.7354 C   0  0  0  0  0  0  0  0  0  0  0  0
   -0.0884   10.9812    1.0268 H   0  0  0  0  0  0  0  0  0  0  0  0
    1.5130   10.7278   -0.3502 C   0  0  0  0  0  0  0  0  0  0  0  0
    1.3157   11.6218   -0.9165 H   0  0  0  0  0  0  0  0  0  0  0  0
    3.2707   10.2949   -1.9596 C   0  0  0  0  0  0  0  0  0  0  0  0
    3.1071   11.3644   -2.1335 H   0  0  0  0  0  0  0  0  0  0  0  0
    2.6627    9.4872   -3.1055 C   0  0  0  0  0  0  0  0  0  0  0  0
    2.6820    8.4246   -2.8700 H   0  0  0  0  0  0  0  0  0  0  0  0
    3.2234    9.6586   -4.0196 H   0  0  0  0  0  0  0  0  0  0  0  0
    1.6274    9.7758   -3.2715 H   0  0  0  0  0  0  0  0  0  0  0  0
    4.7704   10.0454   -1.8332 C   0  0  0  0  0  0  0  0  0  0  0  0
    5.1510   10.4292   -0.8891 H   0  0  0  0  0  0  0  0  0  0  0  0
    5.2828   10.5587   -2.6424 H   0  0  0  0  0  0  0  0  0  0  0  0
    5.0074    8.9876   -1.9101 H   0  0  0  0  0  0  0  0  0  0  0  0
    1.7605    6.6139    2.6020 C   0  0  0  0  0  0  0  0  0  0  0  0
    1.6643    7.3419    3.7895 C   0  0  0  0  0  0  0  0  0  0  0  0
    2.0415    8.3546    3.8289 H   0  0  0  0  0  0  0  0  0  0  0  0
    1.1312    6.7562    4.9222 C   0  0  0  0  0  0  0  0  0  0  0  0
    1.0686    7.3281    5.8370 H   0  0  0  0  0  0  0  0  0  0  0  0
    0.6872    5.4447    4.8949 C   0  0  0  0  0  0  0  0  0  0  0  0
    0.2696    4.9951    5.7830 H   0  0  0  0  0  0  0  0  0  0  0  0
    0.7946    4.7086    3.7250 C   0  0  0  0  0  0  0  0  0  0  0  0
    0.4594    3.6821    3.6998 H   0  0  0  0  0  0  0  0  0  0  0  0
    1.3288    5.2842    2.5907 C   0  0  0  0  0  0  0  0  0  0  0  0
    1.4123    4.7170    1.6596 H   0  0  0  0  0  0  0  0  0  0  0  0
    4.1258    4.6111   -0.9616 C   0  0  0  0  0  2  0  0  0  0  0  0
    4.5542    5.4556    1.5895 C   0  0  0  0  0  2  0  0  0  0  0  0
    1.8724    6.2697   -1.3917 Cl  0  0  0  0  0  0  0  0  0  0  0  0
    2.3476    7.1310    1.4474 N   0  0  0  0  0  0  0  0  0  0  0  0
    2.5418    9.9548   -0.7336 N   0  0  0  0  0  0  0  0  0  0  0  0
    4.5477    3.9140   -1.7640 O   0  0  0  0  0  1  0  0  0  0  0  0
    5.3013    5.2655    2.4386 O   0  0  0  0  0  1  0  0  0  0  0  0
    3.3520    5.7819    0.2313 Rh  0  0  0  0  0  0  0  0  0  0  0  0
  1  3  1  0  0  0  0
  2  1  1  0  0  0  0
  3  4  2  0  0  0  0
  3 34  1  0  0  0  0
  4  5  1  0  0  0  0
  6  7  1  0  0  0  0
  6  4  1  0  0  0  0
  8  6  2  0  0  0  0
  9  8  1  0  0  0  0
 10 16  1  0  0  0  0
 10 35  1  0  0  0  0
 11 10  1  0  0  0  0
 12 13  1  0  0  0  0
 12 10  1  0  0  0  0
 14 12  1  0  0  0  0
 15 12  1  0  0  0  0
 16 17  1  0  0  0  0
 18 16  1  0  0  0  0
 19 16  1  0  0  0  0
 20 21  1  0  0  0  0
 21 22  1  0  0  0  0
 21 23  2  0  0  0  0
 23 24  1  0  0  0  0
 25 23  1  0  0  0  0
 25 26  1  0  0  0  0
 27 25  2  0  0  0  0
 28 27  1  0  0  0  0
 29 20  2  0  0  0  0
 29 27  1  0  0  0  0
 30 29  1  0  0  0  0
 31 38  1  0  0  0  0
 32 37  1  0  0  0  0
 33 38  1  0  0  0  0
 34 20  1  0  0  0  0
 35  8  1  0  0  0  0
 35  1  1  0  0  0  0
 36 31  1  0  0  0  0
 38 34  1  0  0  0  0
 38 32  1  0  0  0  0
M  END
$$$$
