CSD_code = SATMIM | q = 0 | S = 0 | Stoichiometry = C10H14AuCl2N | MND = 4
 OpenBabel04212202093D

 28 29  0  0  1  0  0  0  0  0999 V2000
    6.1924    6.5808    0.2730 Au  0  0  0  0  0  0  0  0  0  0  0  0
    4.5945    5.6928   -0.5379 C   0  0  0  0  0  0  0  0  0  0  0  0
    3.7718    6.2243   -1.5096 C   0  0  0  0  0  0  0  0  0  0  0  0
    4.0188    7.1693   -1.9658 H   0  0  0  0  0  0  0  0  0  0  0  0
    2.6360    5.5366   -1.9130 C   0  0  0  0  0  0  0  0  0  0  0  0
    2.0025    5.9578   -2.6783 H   0  0  0  0  0  0  0  0  0  0  0  0
    2.3251    4.3210   -1.3347 C   0  0  0  0  0  0  0  0  0  0  0  0
    1.4429    3.7809   -1.6436 H   0  0  0  0  0  0  0  0  0  0  0  0
    3.1461    3.7878   -0.3563 C   0  0  0  0  0  0  0  0  0  0  0  0
    2.8960    2.8353    0.0836 H   0  0  0  0  0  0  0  0  0  0  0  0
    4.2849    4.4686    0.0535 C   0  0  0  0  0  0  0  0  0  0  0  0
    5.2495    3.9281    1.0795 C   0  0  2  0  0  0  0  0  0  0  0  0
    6.0660    3.4395    0.5302 H   0  0  0  0  0  0  0  0  0  0  0  0
    4.6332    2.8998    2.0259 C   0  0  0  0  0  0  0  0  0  0  0  0
    4.4341    1.9851    1.4746 H   0  0  0  0  0  0  0  0  0  0  0  0
    3.6988    3.2590    2.4487 H   0  0  0  0  0  0  0  0  0  0  0  0
    5.3174    2.6492    2.8315 H   0  0  0  0  0  0  0  0  0  0  0  0
    7.1286    4.6886    2.4414 C   0  0  0  0  0  0  0  0  0  0  0  0
    6.9367    4.0240    3.2851 H   0  0  0  0  0  0  0  0  0  0  0  0
    7.6360    5.5843    2.7972 H   0  0  0  0  0  0  0  0  0  0  0  0
    7.7844    4.1908    1.7302 H   0  0  0  0  0  0  0  0  0  0  0  0
    4.9871    5.6852    2.7732 C   0  0  0  0  0  0  0  0  0  0  0  0
    5.4400    6.6033    3.1425 H   0  0  0  0  0  0  0  0  0  0  0  0
    4.8290    5.0124    3.6182 H   0  0  0  0  0  0  0  0  0  0  0  0
    4.0289    5.9211    2.3134 H   0  0  0  0  0  0  0  0  0  0  0  0
    6.3852    8.0206   -1.4183 Cl  0  0  0  0  0  0  0  0  0  0  0  0
    7.9056    7.5926    1.4861 Cl  0  0  0  0  0  0  0  0  0  0  0  0
    5.8830    5.0837    1.7791 N   0  0  0  0  0  4  0  0  0  0  0  0
  1 27  1  0  0  0  0
  1 28  1  0  0  0  0
  2 11  1  0  0  0  0
  2  1  1  0  0  0  0
  3  2  2  0  0  0  0
  4  3  1  0  0  0  0
  5  3  1  0  0  0  0
  5  7  2  0  0  0  0
  6  5  1  0  0  0  0
  7  9  1  0  0  0  0
  8  7  1  0  0  0  0
  9 11  2  0  0  0  0
  9 10  1  0  0  0  0
 11 12  1  0  0  0  0
 12 13  1  6  0  0  0
 12 28  1  0  0  0  0
 12 14  1  0  0  0  0
 14 16  1  0  0  0  0
 14 17  1  0  0  0  0
 15 14  1  0  0  0  0
 18 20  1  0  0  0  0
 18 19  1  0  0  0  0
 21 18  1  0  0  0  0
 22 23  1  0  0  0  0
 22 24  1  0  0  0  0
 25 22  1  0  0  0  0
 26  1  1  0  0  0  0
 28 18  1  0  0  0  0
 28 22  1  0  0  0  0
M  END
$$$$
