CSD_code = SATTEM | q = 0 | S = 0 | Stoichiometry = C6H15AuClP | MND = 2
 OpenBabel04212202093D

 24 23  0  0  0  0  0  0  0  0999 V2000
   -0.9161    5.2574    2.8176 Au  0  0  0  0  0  0  0  0  0  0  0  0
   -0.8882    3.8513    4.5893 Cl  0  0  0  0  0  0  0  0  0  0  0  0
   -0.9674    6.6775    1.0802 P   0  0  0  0  0  4  0  0  0  0  0  0
   -0.7002    8.4454    1.5065 C   0  0  0  0  0  0  0  0  0  0  0  0
   -1.5085    8.8377    2.7378 C   0  0  0  0  0  0  0  0  0  0  0  0
    0.2976    6.3404   -0.2117 C   0  0  0  0  0  0  0  0  0  0  0  0
    0.2823    7.2426   -1.4406 C   0  0  0  0  0  0  0  0  0  0  0  0
   -2.5764    6.6998    0.1955 C   0  0  0  0  0  0  0  0  0  0  0  0
   -2.9387    5.3126   -0.3199 C   0  0  0  0  0  0  0  0  0  0  0  0
   -0.9657    9.0748    0.6516 H   0  0  0  0  0  0  0  0  0  0  0  0
    0.3693    8.5617    1.7094 H   0  0  0  0  0  0  0  0  0  0  0  0
   -1.2806    9.8601    3.0316 H   0  0  0  0  0  0  0  0  0  0  0  0
   -1.2711    8.1772    3.5712 H   0  0  0  0  0  0  0  0  0  0  0  0
   -2.5771    8.7686    2.5436 H   0  0  0  0  0  0  0  0  0  0  0  0
    0.1653    5.2931   -0.5018 H   0  0  0  0  0  0  0  0  0  0  0  0
    1.2631    6.4093    0.3015 H   0  0  0  0  0  0  0  0  0  0  0  0
    1.0795    6.9450   -2.1186 H   0  0  0  0  0  0  0  0  0  0  0  0
    0.4437    8.2828   -1.1678 H   0  0  0  0  0  0  0  0  0  0  0  0
   -0.6603    7.1640   -1.9769 H   0  0  0  0  0  0  0  0  0  0  0  0
   -2.5462    7.4355   -0.6144 H   0  0  0  0  0  0  0  0  0  0  0  0
   -3.3210    7.0289    0.9271 H   0  0  0  0  0  0  0  0  0  0  0  0
   -3.9459    5.3110   -0.7309 H   0  0  0  0  0  0  0  0  0  0  0  0
   -2.8974    4.5876    0.4929 H   0  0  0  0  0  0  0  0  0  0  0  0
   -2.2513    4.9914   -1.0998 H   0  0  0  0  0  0  0  0  0  0  0  0
  1  2  1  0  0  0  0
  3  4  1  0  0  0  0
  3  1  1  0  0  0  0
  4 11  1  0  0  0  0
  4  5  1  0  0  0  0
  5 12  1  0  0  0  0
  5 13  1  0  0  0  0
  6 16  1  0  0  0  0
  6  3  1  0  0  0  0
  7 18  1  0  0  0  0
  7  6  1  0  0  0  0
  8 21  1  0  0  0  0
  8  3  1  0  0  0  0
  9  8  1  0  0  0  0
  9 23  1  0  0  0  0
 10  4  1  0  0  0  0
 14  5  1  0  0  0  0
 15  6  1  0  0  0  0
 17  7  1  0  0  0  0
 19  7  1  0  0  0  0
 20  8  1  0  0  0  0
 22  9  1  0  0  0  0
 24  9  1  0  0  0  0
M  END
$$$$
