CSD_code = SAVREP | q = 0 | S = 0 | Stoichiometry = C26H32Cl2N2Pd | MND = 4
 OpenBabel04212202093D

 63 67  0  0  1  0  0  0  0  0999 V2000
    1.1018    5.3640    9.2827 Pd  0  0  0  0  0  0  0  0  0  0  0  0
    2.7850    6.7665    9.6549 Cl  0  0  0  0  0  0  0  0  0  0  0  0
    1.7249    5.2230    7.1560 Cl  0  0  0  0  0  0  0  0  0  0  0  0
   -0.3609    3.9964    9.1128 N   0  0  0  0  0  0  0  0  0  0  0  0
    0.4098    5.4749   11.1536 N   0  0  0  0  0  0  0  0  0  0  0  0
   -1.4990    3.7907    6.9874 C   0  0  0  0  0  0  0  0  0  0  0  0
   -0.5255    4.6153   11.3536 C   0  0  0  0  0  0  0  0  0  0  0  0
   -0.9398    3.7954   10.2441 C   0  0  0  0  0  0  0  0  0  0  0  0
   -0.6025    3.2832    7.9309 C   0  0  0  0  0  0  0  0  0  0  0  0
   -1.6995    3.0742    5.8181 C   0  0  0  0  0  0  0  0  0  0  0  0
   -2.3936    3.4506    5.0813 H   0  0  0  0  0  0  0  0  0  0  0  0
   -2.1494    5.1178    7.2335 C   0  0  0  0  0  0  0  0  0  0  0  0
   -2.9357    5.0468    7.9865 H   0  0  0  0  0  0  0  0  0  0  0  0
   -2.5867    5.5045    6.3172 H   0  0  0  0  0  0  0  0  0  0  0  0
   -1.3921    5.8286    7.5929 H   0  0  0  0  0  0  0  0  0  0  0  0
   -1.0023    1.9037    5.5784 C   0  0  0  0  0  0  0  0  0  0  0  0
   -1.1702    1.3550    4.6641 H   0  0  0  0  0  0  0  0  0  0  0  0
    0.8287    6.4200   12.1019 C   0  0  0  0  0  0  0  0  0  0  0  0
   -2.0735    2.9382   10.7587 C   0  0  1  0  0  0  0  0  0  0  0  0
   -1.4087    4.2453   12.5093 C   0  0  2  0  0  0  0  0  0  0  0  0
   -1.0470    4.5296   13.4946 H   0  0  0  0  0  0  0  0  0  0  0  0
   -1.5930    2.7302   12.2300 C   0  0  0  0  0  0  0  0  0  0  0  0
   -0.0512    1.4635    6.4821 C   0  0  0  0  0  0  0  0  0  0  0  0
    0.5384    0.5862    6.2612 H   0  0  0  0  0  0  0  0  0  0  0  0
    0.1755    2.1517    7.6625 C   0  0  0  0  0  0  0  0  0  0  0  0
   -2.7914    4.8206   12.1444 C   0  0  0  0  0  0  0  0  0  0  0  0
   -3.4762    4.7292   12.9858 H   0  0  0  0  0  0  0  0  0  0  0  0
   -2.7219    5.8777   11.8885 H   0  0  0  0  0  0  0  0  0  0  0  0
   -3.2293    3.9565   10.9467 C   0  0  0  0  0  0  0  0  0  0  0  0
   -3.3716    4.5523   10.0456 H   0  0  0  0  0  0  0  0  0  0  0  0
   -4.1631    3.4307   11.1413 H   0  0  0  0  0  0  0  0  0  0  0  0
    1.2715    1.7720    8.6122 C   0  0  0  0  0  0  0  0  0  0  0  0
    1.8647    2.6698    8.8610 H   0  0  0  0  0  0  0  0  0  0  0  0
    1.9304    1.0363    8.1593 H   0  0  0  0  0  0  0  0  0  0  0  0
    0.8754    1.3579    9.5404 H   0  0  0  0  0  0  0  0  0  0  0  0
   -0.2800    1.9541   12.3283 C   0  0  0  0  0  0  0  0  0  0  0  0
    0.5064    2.4022   11.7239 H   0  0  0  0  0  0  0  0  0  0  0  0
   -0.4253    0.9270   11.9998 H   0  0  0  0  0  0  0  0  0  0  0  0
    0.0573    1.9277   13.3629 H   0  0  0  0  0  0  0  0  0  0  0  0
   -2.4513    1.7147    9.9509 C   0  0  0  0  0  0  0  0  0  0  0  0
   -2.7972    2.0050    8.9613 H   0  0  0  0  0  0  0  0  0  0  0  0
   -3.2503    1.1704   10.4493 H   0  0  0  0  0  0  0  0  0  0  0  0
   -1.6009    1.0490    9.8289 H   0  0  0  0  0  0  0  0  0  0  0  0
    1.7573    6.0733   13.0850 C   0  0  0  0  0  0  0  0  0  0  0  0
   -0.5066    8.0869   10.7947 C   0  0  0  0  0  0  0  0  0  0  0  0
   -0.0348    7.7344    9.8580 H   0  0  0  0  0  0  0  0  0  0  0  0
   -0.6433    9.1628   10.7304 H   0  0  0  0  0  0  0  0  0  0  0  0
   -1.4883    7.6159   10.8776 H   0  0  0  0  0  0  0  0  0  0  0  0
   -2.6076    2.0500   13.1435 C   0  0  0  0  0  0  0  0  0  0  0  0
   -2.6699    0.9914   12.9022 H   0  0  0  0  0  0  0  0  0  0  0  0
   -3.6018    2.4744   13.0630 H   0  0  0  0  0  0  0  0  0  0  0  0
   -2.2826    2.1403   14.1780 H   0  0  0  0  0  0  0  0  0  0  0  0
    1.6629    8.3374   13.8973 C   0  0  0  0  0  0  0  0  0  0  0  0
    1.9834    9.0858   14.6062 H   0  0  0  0  0  0  0  0  0  0  0  0
    0.7914    8.6808   12.8786 C   0  0  0  0  0  0  0  0  0  0  0  0
    0.4461    9.6996   12.7839 H   0  0  0  0  0  0  0  0  0  0  0  0
    0.3709    7.7347   11.9584 C   0  0  0  0  0  0  0  0  0  0  0  0
    2.1577    7.0487   13.9847 C   0  0  0  0  0  0  0  0  0  0  0  0
    2.8777    6.7967   14.7492 H   0  0  0  0  0  0  0  0  0  0  0  0
    2.3440    4.6946   13.0904 C   0  0  0  0  0  0  0  0  0  0  0  0
    3.2279    4.6585   13.7211 H   0  0  0  0  0  0  0  0  0  0  0  0
    2.6285    4.4192   12.0689 H   0  0  0  0  0  0  0  0  0  0  0  0
    1.6275    3.9587   13.4559 H   0  0  0  0  0  0  0  0  0  0  0  0
  1  2  1  0  0  0  0
  1  5  1  0  0  0  0
  3  1  1  0  0  0  0
  4  1  1  0  0  0  0
  4  8  1  0  0  0  0
  5  7  1  0  0  0  0
  5 18  1  0  0  0  0
  6 12  1  0  0  0  0
  6  9  1  0  0  0  0
  7 20  1  0  0  0  0
  8 19  1  0  0  0  0
  8  7  2  0  0  0  0
  9  4  1  0  0  0  0
 10  6  2  0  0  0  0
 11 10  1  0  0  0  0
 12 15  1  0  0  0  0
 12 13  1  0  0  0  0
 14 12  1  0  0  0  0
 16 10  1  0  0  0  0
 16 23  2  0  0  0  0
 17 16  1  0  0  0  0
 18 44  1  0  0  0  0
 19 40  1  6  0  0  0
 19 29  1  0  0  0  0
 19 22  1  0  0  0  0
 20 21  1  1  0  0  0
 22 36  1  0  0  0  0
 22 20  1  0  0  0  0
 22 49  1  0  0  0  0
 23 25  1  0  0  0  0
 24 23  1  0  0  0  0
 25  9  2  0  0  0  0
 25 32  1  0  0  0  0
 26 20  1  0  0  0  0
 26 27  1  0  0  0  0
 28 26  1  0  0  0  0
 29 31  1  0  0  0  0
 29 26  1  0  0  0  0
 30 29  1  0  0  0  0
 32 33  1  0  0  0  0
 32 35  1  0  0  0  0
 34 32  1  0  0  0  0
 36 39  1  0  0  0  0
 37 36  1  0  0  0  0
 38 36  1  0  0  0  0
 40 42  1  0  0  0  0
 41 40  1  0  0  0  0
 43 40  1  0  0  0  0
 44 60  1  0  0  0  0
 44 58  2  0  0  0  0
 45 48  1  0  0  0  0
 45 57  1  0  0  0  0
 46 45  1  0  0  0  0
 47 45  1  0  0  0  0
 49 52  1  0  0  0  0
 50 49  1  0  0  0  0
 51 49  1  0  0  0  0
 53 58  1  0  0  0  0
 53 54  1  0  0  0  0
 55 53  2  0  0  0  0
 56 55  1  0  0  0  0
 57 18  2  0  0  0  0
 57 55  1  0  0  0  0
 58 59  1  0  0  0  0
 60 63  1  0  0  0  0
 60 61  1  0  0  0  0
 62 60  1  0  0  0  0
M  END
$$$$
