CSD_code = SAWFEB | q = 0 | S = 0 | Stoichiometry = C12H18Cl2MoN2O2 | MND = 6
 OpenBabel04212202093D

 37 39  0  0  1  0  0  0  0  0999 V2000
   20.4968   10.4280    3.9087 Mo  0  0  0  0  0  0  0  0  0  0  0  0
   19.1172   10.8564    5.9163 Cl  0  0  0  0  0  0  0  0  0  0  0  0
   21.9131   10.0121    1.9237 Cl  0  0  0  0  0  0  0  0  0  0  0  0
   19.4372   11.4981    2.9967 O   0  0  0  0  0  0  0  0  0  0  0  0
   19.9443    8.7587    3.8175 O   0  0  0  0  0  0  0  0  0  0  0  0
   21.5412   12.0980    4.2061 N   0  0  2  0  0  0  0  0  0  0  0  0
   21.8798    9.6590    5.1185 N   0  0  1  0  0  0  0  0  0  0  0  0
   17.9519   13.0382    1.9032 C   0  0  0  0  0  0  0  0  0  0  0  0
   19.1957   12.7210    2.6847 C   0  0  0  0  0  0  0  0  0  0  0  0
   20.1280   13.6659    3.0735 C   0  0  0  0  0  0  0  0  0  0  0  0
   21.3015   13.3379    3.7740 C   0  0  2  0  0  3  0  0  0  0  0  0
   22.2927   14.4545    3.9881 C   0  0  0  0  0  0  0  0  0  0  0  0
   22.8194   11.8583    4.8389 C   0  0  0  0  0  0  0  0  0  0  0  0
   22.6744   10.6704    5.7799 C   0  0  0  0  0  0  0  0  0  0  0  0
   23.0960    8.0257    6.5395 C   0  0  0  0  0  0  0  0  0  0  0  0
   22.0625    8.3945    5.5047 C   0  0  1  0  0  3  0  0  0  0  0  0
   21.2867    7.3419    4.9894 C   0  0  0  0  0  0  0  0  0  0  0  0
   20.2149    7.5444    4.1388 C   0  0  0  0  0  0  0  0  0  0  0  0
   19.3442    6.4418    3.6055 C   0  0  0  0  0  0  0  0  0  0  0  0
   17.8914   14.0989    1.6838 H   0  0  0  0  0  0  0  0  0  0  0  0
   17.0749   12.7371    2.4769 H   0  0  0  0  0  0  0  0  0  0  0  0
   17.9532   12.4736    0.9703 H   0  0  0  0  0  0  0  0  0  0  0  0
   19.9647   14.6948    2.7963 H   0  0  0  0  0  0  0  0  0  0  0  0
   21.9466   15.3560    3.4923 H   0  0  0  0  0  0  0  0  0  0  0  0
   23.2664   14.1903    3.5775 H   0  0  0  0  0  0  0  0  0  0  0  0
   22.4108   14.6783    5.0485 H   0  0  0  0  0  0  0  0  0  0  0  0
   23.1846   12.7189    5.4066 H   0  0  0  0  0  0  0  0  0  0  0  0
   23.5472   11.6089    4.0521 H   0  0  0  0  0  0  0  0  0  0  0  0
   22.1341   10.9896    6.6839 H   0  0  0  0  0  0  0  0  0  0  0  0
   23.6702   10.3169    6.0622 H   0  0  0  0  0  0  0  0  0  0  0  0
   24.1045    8.2269    6.1775 H   0  0  0  0  0  0  0  0  0  0  0  0
   22.9382    8.5859    7.4602 H   0  0  0  0  0  0  0  0  0  0  0  0
   23.0279    6.9668    6.7686 H   0  0  0  0  0  0  0  0  0  0  0  0
   21.5150    6.3348    5.2992 H   0  0  0  0  0  0  0  0  0  0  0  0
   19.3577    6.4628    2.5155 H   0  0  0  0  0  0  0  0  0  0  0  0
   19.6891    5.4732    3.9514 H   0  0  0  0  0  0  0  0  0  0  0  0
   18.3156    6.5983    3.9319 H   0  0  0  0  0  0  0  0  0  0  0  0
  1  6  1  0  0  0  0
  1  7  1  0  0  0  0
  1  2  1  0  0  0  0
  3  1  1  0  0  0  0
  4  1  1  0  0  0  0
  5  1  1  0  0  0  0
  5 18  1  0  0  0  0
  6 13  1  6  0  0  0
  7 16  1  0  0  0  0
  7 14  1  1  0  0  0
  8 21  1  0  0  0  0
  8  9  1  0  0  0  0
  9  4  1  0  0  0  0
  9 10  2  0  0  0  0
 10 11  1  0  0  0  0
 11 12  1  6  0  0  0
 11  6  1  0  0  0  0
 12 26  1  0  0  0  0
 13 27  1  0  0  0  0
 13 14  1  0  0  0  0
 14 30  1  0  0  0  0
 14 29  1  0  0  0  0
 15 33  1  0  0  0  0
 15 32  1  0  0  0  0
 16 15  1  1  0  0  0
 17 34  1  0  0  0  0
 17 16  1  0  0  0  0
 18 17  2  0  0  0  0
 19 37  1  0  0  0  0
 19 36  1  0  0  0  0
 19 18  1  0  0  0  0
 20  8  1  0  0  0  0
 22  8  1  0  0  0  0
 23 10  1  0  0  0  0
 24 12  1  0  0  0  0
 25 12  1  0  0  0  0
 28 13  1  0  0  0  0
 31 15  1  0  0  0  0
 35 19  1  0  0  0  0
M  END
$$$$
