CSD_code = SAWGEE | q = 0 | S = 0 | Stoichiometry = C14H20Br2N2OZn | MND = 4
 OpenBabel04212202093D

 40 41  0  0  1  0  0  0  0  0999 V2000
    1.4670    1.3446    9.6823 Br  0  0  0  0  0  0  0  0  0  0  0  0
    2.3802   -1.8628    6.6047 Br  0  0  0  0  0  0  0  0  0  0  0  0
    2.4150   -0.5089    8.4972 Zn  0  0  0  0  0  0  0  0  0  0  0  0
    4.0893   -0.7626    9.6255 O   0  0  0  0  0  0  0  0  0  0  0  0
    3.6808   -0.7803   10.8492 N   0  0  0  0  0  0  0  0  0  0  0  0
    1.7503   -2.0136   10.2458 N   0  0  0  0  0  0  0  0  0  0  0  0
    3.9633    0.0686   11.7678 C   0  0  2  0  0  3  0  0  0  0  0  0
    3.2810   -0.2649   13.0423 C   0  0  0  0  0  0  0  0  0  0  0  0
    2.7265    0.6012   13.4071 H   0  0  0  0  0  0  0  0  0  0  0  0
    4.0139   -0.5330   13.8071 H   0  0  0  0  0  0  0  0  0  0  0  0
    2.3438   -1.4527   12.7109 C   0  0  0  0  0  0  0  0  0  0  0  0
    2.7652   -1.8631   11.2699 C   0  0  2  0  0  0  0  0  0  0  0  0
    3.3710   -2.7785   11.2888 H   0  0  0  0  0  0  0  0  0  0  0  0
    1.5481   -3.3938    9.7713 C   0  0  0  0  0  0  0  0  0  0  0  0
    2.4904   -3.7518    9.3502 H   0  0  0  0  0  0  0  0  0  0  0  0
    0.8164   -3.3520    8.9600 H   0  0  0  0  0  0  0  0  0  0  0  0
    1.0629   -4.3193   10.8549 C   0  0  0  0  0  0  0  0  0  0  0  0
    1.8947   -5.2935   11.3908 C   0  0  0  0  0  0  0  0  0  0  0  0
    2.8926   -5.4217   10.9959 H   0  0  0  0  0  0  0  0  0  0  0  0
    1.4500   -6.1114   12.4160 C   0  0  0  0  0  0  0  0  0  0  0  0
    2.1049   -6.8679   12.8216 H   0  0  0  0  0  0  0  0  0  0  0  0
    0.1698   -5.9582   12.9200 C   0  0  0  0  0  0  0  0  0  0  0  0
   -0.1762   -6.5932   13.7214 H   0  0  0  0  0  0  0  0  0  0  0  0
   -0.6702   -4.9949   12.3859 C   0  0  0  0  0  0  0  0  0  0  0  0
   -1.6738   -4.8798   12.7673 H   0  0  0  0  0  0  0  0  0  0  0  0
   -0.2269   -4.1830   11.3575 C   0  0  0  0  0  0  0  0  0  0  0  0
   -0.8940   -3.4474   10.9285 H   0  0  0  0  0  0  0  0  0  0  0  0
    4.8190    1.2483   11.5353 C   0  0  0  0  0  0  0  0  0  0  0  0
    5.4557    1.0785   10.6694 H   0  0  0  0  0  0  0  0  0  0  0  0
    5.4219    1.4721   12.4114 H   0  0  0  0  0  0  0  0  0  0  0  0
    4.1820    2.1105   11.3272 H   0  0  0  0  0  0  0  0  0  0  0  0
    2.5694   -2.6141   13.6797 C   0  0  0  0  0  0  0  0  0  0  0  0
    1.9231   -3.4523   13.4316 H   0  0  0  0  0  0  0  0  0  0  0  0
    2.3419   -2.2984   14.6948 H   0  0  0  0  0  0  0  0  0  0  0  0
    3.6021   -2.9551   13.6487 H   0  0  0  0  0  0  0  0  0  0  0  0
    0.8886   -0.9913   12.8026 C   0  0  0  0  0  0  0  0  0  0  0  0
    0.2027   -1.8114   12.5980 H   0  0  0  0  0  0  0  0  0  0  0  0
    0.6925   -0.1586   12.1289 H   0  0  0  0  0  0  0  0  0  0  0  0
    0.6899   -0.6503   13.8158 H   0  0  0  0  0  0  0  0  0  0  0  0
    0.8624   -1.6538   10.5909 H   0  0  0  0  0  0  0  0  0  0  0  0
  2  3  1  0  0  0  0
  3  4  1  0  0  0  0
  3  1  1  0  0  0  0
  4  5  1  0  0  0  0
  5 12  1  0  0  0  0
  5  7  1  0  0  0  0
  6 40  1  0  0  0  0
  6 12  1  0  0  0  0
  7 28  1  6  0  0  0
  7  8  1  0  0  0  0
  8  9  1  0  0  0  0
  8 10  1  0  0  0  0
 11 36  1  0  0  0  0
 11  8  1  0  0  0  0
 11 32  1  0  0  0  0
 12 13  1  1  0  0  0
 12 11  1  0  0  0  0
 14  6  1  0  0  0  0
 14 17  1  0  0  0  0
 15 14  1  0  0  0  0
 16 14  1  0  0  0  0
 17 26  2  0  0  0  0
 17 18  1  0  0  0  0
 18 20  2  0  0  0  0
 19 18  1  0  0  0  0
 20 21  1  0  0  0  0
 20 22  1  0  0  0  0
 22 23  1  0  0  0  0
 24 25  1  0  0  0  0
 24 22  2  0  0  0  0
 26 24  1  0  0  0  0
 27 26  1  0  0  0  0
 28 30  1  0  0  0  0
 29 28  1  0  0  0  0
 31 28  1  0  0  0  0
 32 34  1  0  0  0  0
 33 32  1  0  0  0  0
 35 32  1  0  0  0  0
 36 39  1  0  0  0  0
 37 36  1  0  0  0  0
 38 36  1  0  0  0  0
M  END
$$$$
