CSD_code = SAWHOO | q = 0 | S = 0 | Stoichiometry = C23H24ClOPPd | MND = 5
 OpenBabel04212202093D

 51 51  0  0  0  0  0  0  0  0999 V2000
    3.8222    8.8682   16.5819 Pd  0  0  0  0  0  0  0  0  0  0  0  0
    3.8743    7.1198   15.1468 P   0  0  2  0  0  0  0  0  0  0  0  0
    2.2749    7.7266   17.8633 Cl  0  0  0  0  0 15  0  0  0  0  0  0
    2.5392    7.1362   14.2377 O   0  0  0  0  0  0  0  0  0  0  0  0
    3.8131   10.6625   17.7111 C   0  0  0  0  0  3  0  0  0  0  0  0
    2.9348   11.0154   18.2444 H   0  0  0  0  0  0  0  0  0  0  0  0
    4.7139   10.5923   18.3196 H   0  0  0  0  0  0  0  0  0  0  0  0
    3.9262   10.9339   16.3380 C   0  0  0  0  0  0  0  0  0  0  0  0
    5.0104   10.3459   15.6498 C   0  0  0  0  0  3  0  0  0  0  0  0
    5.9763   10.2872   16.1460 H   0  0  0  0  0  0  0  0  0  0  0  0
    5.0778   10.4820   14.5746 H   0  0  0  0  0  0  0  0  0  0  0  0
    2.7721   11.5385   15.5793 C   0  0  0  0  0  0  0  0  0  0  0  0
    2.7450   11.1792   14.5479 H   0  0  0  0  0  0  0  0  0  0  0  0
    2.8867   12.6238   15.5561 H   0  0  0  0  0  0  0  0  0  0  0  0
    1.8208   11.3102   16.0680 H   0  0  0  0  0  0  0  0  0  0  0  0
    1.3618    7.7947   14.6948 C   0  0  0  0  0  0  0  0  0  0  0  0
    0.7731    8.0354   13.8088 H   0  0  0  0  0  0  0  0  0  0  0  0
    1.6184    8.7198   15.2440 H   0  0  0  0  0  0  0  0  0  0  0  0
    0.7905    7.1456   15.3612 H   0  0  0  0  0  0  0  0  0  0  0  0
    5.0697    6.9927   13.7744 C   0  0  0  0  0  0  0  0  0  0  0  0
    4.9760    7.9261   12.7483 C   0  0  0  0  0  0  0  0  0  0  0  0
    4.1778    8.6562   12.7748 H   0  0  0  0  0  0  0  0  0  0  0  0
    5.8801    7.9121   11.7037 C   0  0  0  0  0  0  0  0  0  0  0  0
    5.7969    8.6347   10.9047 H   0  0  0  0  0  0  0  0  0  0  0  0
    6.8980    6.9715   11.6847 C   0  0  0  0  0  0  0  0  0  0  0  0
    7.6080    6.9601   10.8709 H   0  0  0  0  0  0  0  0  0  0  0  0
    7.0040    6.0467   12.7098 C   0  0  0  0  0  0  0  0  0  0  0  0
    7.7964    5.3127   12.6957 H   0  0  0  0  0  0  0  0  0  0  0  0
    6.0949    6.0562   13.7538 C   0  0  0  0  0  0  0  0  0  0  0  0
    6.1743    5.3257   14.5474 H   0  0  0  0  0  0  0  0  0  0  0  0
    3.9255    5.4228   15.8175 C   0  0  0  0  0  0  0  0  0  0  0  0
    3.3513    4.4136   15.0516 C   0  0  0  0  0  0  0  0  0  0  0  0
    2.9237    4.6674   14.0917 H   0  0  0  0  0  0  0  0  0  0  0  0
    3.3208    3.1117   15.5116 C   0  0  0  0  0  0  0  0  0  0  0  0
    2.8745    2.3342   14.9093 H   0  0  0  0  0  0  0  0  0  0  0  0
    3.8613    2.8103   16.7525 C   0  0  0  0  0  0  0  0  0  0  0  0
    3.8387    1.7947   17.1197 H   0  0  0  0  0  0  0  0  0  0  0  0
    4.4244    3.8084   17.5240 C   0  0  0  0  0  0  0  0  0  0  0  0
    4.8480    3.5716   18.4893 H   0  0  0  0  0  0  0  0  0  0  0  0
    4.4721    5.1249   17.0695 C   0  0  0  0  0  0  0  0  0  0  0  0
    5.0387    6.1827   17.9172 C   0  0  0  0  0  0  0  0  0  0  0  0
    5.9190    7.1364   17.3981 C   0  0  0  0  0  0  0  0  0  0  0  0
    6.3154    7.0175   16.3916 H   0  0  0  0  0  0  0  0  0  0  0  0
    6.3783    8.1737   18.2058 C   0  0  0  0  0  0  0  0  0  0  0  0
    7.1072    8.8754   17.8171 H   0  0  0  0  0  0  0  0  0  0  0  0
    5.9612    8.2656   19.5268 C   0  0  0  0  0  0  0  0  0  0  0  0
    6.3150    9.0743   20.1512 H   0  0  0  0  0  0  0  0  0  0  0  0
    5.1030    7.3110   20.0479 C   0  0  0  0  0  0  0  0  0  0  0  0
    4.7735    7.3832   21.0735 H   0  0  0  0  0  0  0  0  0  0  0  0
    4.6499    6.2753   19.2530 C   0  0  0  0  0  0  0  0  0  0  0  0
    3.9509    5.5553   19.6499 H   0  0  0  0  0  0  0  0  0  0  0  0
  2  4  1  6  0  0  0
  2 31  1  0  0  0  0
  4 16  1  0  0  0  0
  5  6  1  0  0  0  0
  5  7  1  0  0  0  0
  8  1  1  0  0  0  0
  8  5  1  0  0  0  0
  9 10  1  0  0  0  0
  9  8  1  0  0  0  0
 11  9  1  0  0  0  0
 12 15  1  0  0  0  0
 12  8  1  0  0  0  0
 13 12  1  0  0  0  0
 14 12  1  0  0  0  0
 16 18  1  0  0  0  0
 16 19  1  0  0  0  0
 17 16  1  0  0  0  0
 20  2  1  0  0  0  0
 21 22  1  0  0  0  0
 21 20  2  0  0  0  0
 23 21  1  0  0  0  0
 24 23  1  0  0  0  0
 25 23  2  0  0  0  0
 25 27  1  0  0  0  0
 26 25  1  0  0  0  0
 27 29  2  0  0  0  0
 28 27  1  0  0  0  0
 29 20  1  0  0  0  0
 29 30  1  0  0  0  0
 31 40  1  0  0  0  0
 32 34  1  0  0  0  0
 32 31  2  0  0  0  0
 33 32  1  0  0  0  0
 34 36  2  0  0  0  0
 35 34  1  0  0  0  0
 36 37  1  0  0  0  0
 36 38  1  0  0  0  0
 38 39  1  0  0  0  0
 40 38  2  0  0  0  0
 40 41  1  0  0  0  0
 41 50  1  0  0  0  0
 42 41  2  0  0  0  0
 42 44  1  0  0  0  0
 43 42  1  0  0  0  0
 44 46  2  0  0  0  0
 45 44  1  0  0  0  0
 46 48  1  0  0  0  0
 46 47  1  0  0  0  0
 48 49  1  0  0  0  0
 50 51  1  0  0  0  0
 50 48  2  0  0  0  0
M  END
$$$$
