CSD_code = SAWHOQ | q = 0 | S = 0 | Stoichiometry = C18H30Cl4N2O2Zr | MND = 6
 OpenBabel04212202093D

 57 56  0  0  0  0  0  0  0  0999 V2000
    1.5329    2.4200    4.3522 Zr  0  0  0  0  0  0  0  0  0  0  0  0
    1.8594    3.5322    2.2700 Cl  0  0  0  0  0  0  0  0  0  0  0  0
    3.0090    3.9433    5.4834 Cl  0  0  0  0  0  0  0  0  0  0  0  0
    2.8375   -0.6441    2.6559 C   0  0  0  0  0  0  0  0  0  0  0  0
    2.4210   -1.0285    3.5890 H   0  0  0  0  0  0  0  0  0  0  0  0
    3.5540   -1.3489    2.2421 H   0  0  0  0  0  0  0  0  0  0  0  0
    2.0176   -0.5246    1.9447 H   0  0  0  0  0  0  0  0  0  0  0  0
    3.4711    0.6979    2.9056 C   0  0  0  0  0  0  0  0  0  0  0  0
    3.1193    1.3277    3.9689 O   0  0  0  0  0  0  0  0  0  0  0  0
    4.4128    1.1750    2.0008 C   0  0  0  0  0  0  0  0  0  0  0  0
    4.6176    0.5489    1.1475 H   0  0  0  0  0  0  0  0  0  0  0  0
    5.1007    2.3950    2.0728 C   0  0  0  0  0  0  0  0  0  0  0  0
    4.9551    3.2253    3.0790 N   0  0  0  0  0  4  0  0  0  0  0  0
    4.2361    3.0176    3.7796 H   0  0  0  0  0  0  0  0  0  0  0  0
    6.0726    2.7312    0.9868 C   0  0  0  0  0  0  0  0  0  0  0  0
    5.8515    3.7165    0.5814 H   0  0  0  0  0  0  0  0  0  0  0  0
    6.0222    2.0002    0.1867 H   0  0  0  0  0  0  0  0  0  0  0  0
    7.0881    2.7425    1.3819 H   0  0  0  0  0  0  0  0  0  0  0  0
    5.5806    4.5088    3.2684 C   0  0  0  0  0  0  0  0  0  0  0  0
    6.5197    4.5612    2.7156 H   0  0  0  0  0  0  0  0  0  0  0  0
    5.7817    4.6062    4.3382 H   0  0  0  0  0  0  0  0  0  0  0  0
    4.6554    5.6672    2.8534 C   0  0  0  0  0  0  0  0  0  0  0  0
    3.7055    5.5389    3.3768 H   0  0  0  0  0  0  0  0  0  0  0  0
    5.1207    6.5984    3.1795 H   0  0  0  0  0  0  0  0  0  0  0  0
    4.4083    5.6967    1.3782 C   0  0  0  0  0  0  0  0  0  0  0  0
    3.7067    4.9570    1.0183 H   0  0  0  0  0  0  0  0  0  0  0  0
    4.9767    6.5577    0.5538 C   0  0  0  0  0  0  0  0  0  0  0  0
    5.6612    7.3148    0.9041 H   0  0  0  0  0  0  0  0  0  0  0  0
    4.7758    6.5547   -0.5043 H   0  0  0  0  0  0  0  0  0  0  0  0
    1.2061    1.3075    6.4343 Cl  0  0  0  0  0  0  0  0  0  0  0  0
    0.0566    0.8966    3.2208 Cl  0  0  0  0  0  0  0  0  0  0  0  0
    0.2276    5.4842    6.0482 C   0  0  0  0  0  0  0  0  0  0  0  0
    0.6434    5.8689    5.1149 H   0  0  0  0  0  0  0  0  0  0  0  0
   -0.4889    6.1887    6.4626 H   0  0  0  0  0  0  0  0  0  0  0  0
    1.0480    5.3648    6.7588 H   0  0  0  0  0  0  0  0  0  0  0  0
   -0.4058    4.1420    5.7986 C   0  0  0  0  0  0  0  0  0  0  0  0
   -0.0537    3.5121    4.7356 O   0  0  0  0  0  0  0  0  0  0  0  0
   -1.3476    3.6649    6.7033 C   0  0  0  0  0  0  0  0  0  0  0  0
   -1.5527    4.2911    7.5566 H   0  0  0  0  0  0  0  0  0  0  0  0
   -2.0353    2.4448    6.6315 C   0  0  0  0  0  0  0  0  0  0  0  0
   -1.8893    1.6145    5.6253 N   0  0  0  0  0  4  0  0  0  0  0  0
   -1.1704    1.8223    4.9247 H   0  0  0  0  0  0  0  0  0  0  0  0
   -3.0071    2.1084    7.7174 C   0  0  0  0  0  0  0  0  0  0  0  0
   -2.7860    1.1230    8.1226 H   0  0  0  0  0  0  0  0  0  0  0  0
   -2.9567    2.8393    8.5176 H   0  0  0  0  0  0  0  0  0  0  0  0
   -4.0226    2.0973    7.3223 H   0  0  0  0  0  0  0  0  0  0  0  0
   -2.5148    0.3310    5.4358 C   0  0  0  0  0  0  0  0  0  0  0  0
   -3.4540    0.2785    5.9885 H   0  0  0  0  0  0  0  0  0  0  0  0
   -2.7159    0.2336    4.3659 H   0  0  0  0  0  0  0  0  0  0  0  0
   -1.5896   -0.8275    5.8507 C   0  0  0  0  0  0  0  0  0  0  0  0
   -0.6396   -0.6990    5.3275 H   0  0  0  0  0  0  0  0  0  0  0  0
   -2.0549   -1.7587    5.5244 H   0  0  0  0  0  0  0  0  0  0  0  0
   -1.3426   -0.8572    7.3259 C   0  0  0  0  0  0  0  0  0  0  0  0
   -0.6411   -0.1175    7.6860 H   0  0  0  0  0  0  0  0  0  0  0  0
   -1.9111   -1.7182    8.1502 C   0  0  0  0  0  0  0  0  0  0  0  0
   -2.5957   -2.4752    7.7997 H   0  0  0  0  0  0  0  0  0  0  0  0
   -1.7105   -1.7153    9.2083 H   0  0  0  0  0  0  0  0  0  0  0  0
  1 37  1  0  0  0  0
  1  3  1  0  0  0  0
  1 30  1  0  0  0  0
  2  1  1  0  0  0  0
  4  8  1  0  0  0  0
  4  5  1  0  0  0  0
  6  4  1  0  0  0  0
  7  4  1  0  0  0  0
  8  9  1  0  0  0  0
  9  1  1  0  0  0  0
 10 12  1  0  0  0  0
 10  8  2  0  0  0  0
 11 10  1  0  0  0  0
 12 13  2  0  0  0  0
 13 19  1  0  0  0  0
 13 14  1  0  0  0  0
 15 18  1  0  0  0  0
 15 12  1  0  0  0  0
 16 15  1  0  0  0  0
 17 15  1  0  0  0  0
 19 21  1  0  0  0  0
 20 19  1  0  0  0  0
 22 24  1  0  0  0  0
 22 19  1  0  0  0  0
 22 23  1  0  0  0  0
 25 22  1  0  0  0  0
 26 25  1  0  0  0  0
 27 28  1  0  0  0  0
 27 25  2  0  0  0  0
 29 27  1  0  0  0  0
 31  1  1  0  0  0  0
 32 34  1  0  0  0  0
 32 35  1  0  0  0  0
 33 32  1  0  0  0  0
 36 32  1  0  0  0  0
 36 38  2  0  0  0  0
 37 36  1  0  0  0  0
 38 39  1  0  0  0  0
 40 38  1  0  0  0  0
 40 43  1  0  0  0  0
 41 40  2  0  0  0  0
 42 41  1  0  0  0  0
 43 44  1  0  0  0  0
 43 45  1  0  0  0  0
 46 43  1  0  0  0  0
 47 41  1  0  0  0  0
 47 50  1  0  0  0  0
 47 48  1  0  0  0  0
 49 47  1  0  0  0  0
 50 53  1  0  0  0  0
 51 50  1  0  0  0  0
 52 50  1  0  0  0  0
 53 54  1  0  0  0  0
 53 55  2  0  0  0  0
 55 57  1  0  0  0  0
 56 55  1  0  0  0  0
M  END
$$$$
