CSD_code = SAWJEI | q = 0 | S = 0 | Stoichiometry = C22H36ClNiOPS | MND = 4
 OpenBabel04212202093D

 63 64  0  0  1  0  0  0  0  0999 V2000
    3.7353   11.0272    5.1854 Ni  0  0  1  0  0  0  0  0  0  0  0  0
    3.7297   13.0935    5.5638 Cl  0  0  0  0  0  0  0  0  0  0  0  0
    3.3229    6.4642    5.7175 C   0  0  0  0  0  0  0  0  0  0  0  0
    4.1490    6.0685    6.3093 H   0  0  0  0  0  0  0  0  0  0  0  0
    3.5265    6.2629    4.6690 H   0  0  0  0  0  0  0  0  0  0  0  0
    2.4140    5.9461    6.0172 H   0  0  0  0  0  0  0  0  0  0  0  0
    3.1980    7.9400    5.9579 C   0  0  2  0  0  3  0  0  0  0  0  0
    3.8391    8.9053    4.7199 S   0  0  0  0  0  0  0  0  0  0  0  0
    2.6116    8.3774    7.1209 C   0  0  0  0  0  0  0  0  0  0  0  0
    2.2709    7.6250    7.8163 H   0  0  0  0  0  0  0  0  0  0  0  0
    2.4495    9.7323    7.4849 C   0  0  0  0  0  0  0  0  0  0  0  0
    2.8527   10.7105    6.8086 O   0  0  0  0  0  0  0  0  0  0  0  0
    1.7859   10.0557    8.7729 C   0  0  0  0  0  0  0  0  0  0  0  0
    2.1283   11.2528    9.4012 C   0  0  0  0  0  0  0  0  0  0  0  0
    2.8579   11.8963    8.9323 H   0  0  0  0  0  0  0  0  0  0  0  0
    1.5441   11.6052   10.6020 C   0  0  0  0  0  0  0  0  0  0  0  0
    1.8219   12.5307   11.0840 H   0  0  0  0  0  0  0  0  0  0  0  0
    0.6000   10.7744   11.1832 C   0  0  0  0  0  0  0  0  0  0  0  0
    0.1404   11.0484   12.1215 H   0  0  0  0  0  0  0  0  0  0  0  0
    0.2367    9.5952   10.5530 C   0  0  0  0  0  0  0  0  0  0  0  0
   -0.5125    8.9551   10.9959 H   0  0  0  0  0  0  0  0  0  0  0  0
    0.8245    9.2335    9.3550 C   0  0  0  0  0  0  0  0  0  0  0  0
    0.5109    8.3250    8.8627 H   0  0  0  0  0  0  0  0  0  0  0  0
    4.6877   11.7030    3.3842 P   0  0  0  0  0  4  0  0  0  0  0  0
    6.2524   12.6243    3.6631 C   0  0  0  0  0  0  0  0  0  0  0  0
    6.8186   12.6969    2.7322 H   0  0  0  0  0  0  0  0  0  0  0  0
    5.9811   13.6279    3.9975 H   0  0  0  0  0  0  0  0  0  0  0  0
    7.0621   11.9193    4.7502 C   0  0  0  0  0  0  0  0  0  0  0  0
    6.4000   11.7399    5.6100 H   0  0  0  0  0  0  0  0  0  0  0  0
    7.4045   10.9460    4.3885 H   0  0  0  0  0  0  0  0  0  0  0  0
    8.2623   12.7455    5.2020 C   0  0  0  0  0  0  0  0  0  0  0  0
    7.9104   13.7100    5.5732 H   0  0  0  0  0  0  0  0  0  0  0  0
    8.9143   12.9345    4.3452 H   0  0  0  0  0  0  0  0  0  0  0  0
    9.0524   12.0392    6.2967 C   0  0  0  0  0  0  0  0  0  0  0  0
    8.4194   11.8586    7.1623 H   0  0  0  0  0  0  0  0  0  0  0  0
    9.8988   12.6454    6.6105 H   0  0  0  0  0  0  0  0  0  0  0  0
    9.4283   11.0817    5.9419 H   0  0  0  0  0  0  0  0  0  0  0  0
    3.6361   12.8231    2.3798 C   0  0  0  0  0  0  0  0  0  0  0  0
    3.5692   13.7706    2.9189 H   0  0  0  0  0  0  0  0  0  0  0  0
    4.0926   12.9984    1.4040 H   0  0  0  0  0  0  0  0  0  0  0  0
    2.2475   12.1983    2.2553 C   0  0  0  0  0  0  0  0  0  0  0  0
    2.3049   11.2783    1.6673 H   0  0  0  0  0  0  0  0  0  0  0  0
    1.9054   11.9254    3.2651 H   0  0  0  0  0  0  0  0  0  0  0  0
    1.2362   13.1477    1.6211 C   0  0  0  0  0  0  0  0  0  0  0  0
    1.5792   13.4257    0.6211 H   0  0  0  0  0  0  0  0  0  0  0  0
    1.1790   14.0589    2.2195 H   0  0  0  0  0  0  0  0  0  0  0  0
   -0.1467   12.5147    1.5282 C   0  0  0  0  0  0  0  0  0  0  0  0
   -0.1155   11.6120    0.9214 H   0  0  0  0  0  0  0  0  0  0  0  0
   -0.8559   13.2060    1.0794 H   0  0  0  0  0  0  0  0  0  0  0  0
   -0.5070   12.2482    2.5192 H   0  0  0  0  0  0  0  0  0  0  0  0
    5.1868   10.3657    2.2014 C   0  0  0  0  0  0  0  0  0  0  0  0
    5.9857    9.8116    2.7040 H   0  0  0  0  0  0  0  0  0  0  0  0
    4.3414    9.6788    2.1124 H   0  0  0  0  0  0  0  0  0  0  0  0
    5.6450   10.8045    0.8149 C   0  0  0  0  0  0  0  0  0  0  0  0
    4.7941   11.1775    0.2426 H   0  0  0  0  0  0  0  0  0  0  0  0
    6.3774   11.6113    0.8897 H   0  0  0  0  0  0  0  0  0  0  0  0
    6.2729    9.6362    0.0548 C   0  0  0  0  0  0  0  0  0  0  0  0
    7.1400    9.2692    0.6083 H   0  0  0  0  0  0  0  0  0  0  0  0
    5.5511    8.8191   -0.0087 H   0  0  0  0  0  0  0  0  0  0  0  0
    6.7041   10.0433   -1.3490 C   0  0  0  0  0  0  0  0  0  0  0  0
    5.8499   10.3904   -1.9262 H   0  0  0  0  0  0  0  0  0  0  0  0
    7.1500    9.2001   -1.8707 H   0  0  0  0  0  0  0  0  0  0  0  0
    7.4369   10.8463   -1.3063 H   0  0  0  0  0  0  0  0  0  0  0  0
  1  2  1  1  0  0  0
  1 12  1  0  0  0  0
  3  6  1  0  0  0  0
  3  4  1  0  0  0  0
  5  3  1  0  0  0  0
  7  3  1  1  0  0  0
  7  9  1  0  0  0  0
  8  1  1  0  0  0  0
  8  7  1  0  0  0  0
  9 11  2  0  0  0  0
  9 10  1  0  0  0  0
 11 13  1  0  0  0  0
 12 11  1  0  0  0  0
 13 22  2  0  0  0  0
 13 14  1  0  0  0  0
 14 16  2  0  0  0  0
 15 14  1  0  0  0  0
 16 17  1  0  0  0  0
 16 18  1  0  0  0  0
 18 19  1  0  0  0  0
 20 21  1  0  0  0  0
 20 18  2  0  0  0  0
 22 20  1  0  0  0  0
 23 22  1  0  0  0  0
 24 25  1  0  0  0  0
 24  1  1  0  0  0  0
 25 27  1  0  0  0  0
 25 28  1  0  0  0  0
 26 25  1  0  0  0  0
 28 31  1  0  0  0  0
 28 29  1  0  0  0  0
 30 28  1  0  0  0  0
 31 32  1  0  0  0  0
 31 34  1  0  0  0  0
 33 31  1  0  0  0  0
 34 36  1  0  0  0  0
 34 35  1  0  0  0  0
 37 34  1  0  0  0  0
 38 39  1  0  0  0  0
 38 24  1  0  0  0  0
 40 38  1  0  0  0  0
 41 38  1  0  0  0  0
 41 43  1  0  0  0  0
 42 41  1  0  0  0  0
 44 46  1  0  0  0  0
 44 41  1  0  0  0  0
 45 44  1  0  0  0  0
 47 44  1  0  0  0  0
 47 50  1  0  0  0  0
 48 47  1  0  0  0  0
 49 47  1  0  0  0  0
 51 52  1  0  0  0  0
 51 24  1  0  0  0  0
 53 51  1  0  0  0  0
 54 56  1  0  0  0  0
 54 51  1  0  0  0  0
 55 54  1  0  0  0  0
 57 58  1  0  0  0  0
 57 54  1  0  0  0  0
 59 57  1  0  0  0  0
 60 63  1  0  0  0  0
 60 57  1  0  0  0  0
 61 60  1  0  0  0  0
 62 60  1  0  0  0  0
M  END
$$$$
