CSD_code = SAXCUQ | q = 0 | S = 0 | Stoichiometry = C9H10Cl3NbO2 | MND = 10
 OpenBabel04212202093D

 25 26  0  0  1  0  0  0  0  0999 V2000
    2.3361    3.8024    2.8661 Nb  0  0  0  0  0  0  0  0  0  0  0  0
    3.2866    2.0650    1.5491 Cl  0  0  0  0  0  0  0  0  0  0  0  0
    4.1971    3.4213    4.0404 O   0  0  0  0  0  0  0  0  0  0  0  0
    1.7975    5.4211    0.9750 C   0  0  0  0  0  3  0  0  0  0  0  0
    0.9835    5.3008    0.2720 H   0  0  0  0  0  0  0  0  0  0  0  0
    1.6137    4.5465    5.0136 Cl  0  0  0  0  0  0  0  0  0  0  0  0
    2.5790    1.9964    4.2799 O   0  0  0  0  0  0  0  0  0  0  0  0
    3.1422    5.0543    0.7534 C   0  0  0  0  0  0  0  0  0  0  0  0
    3.5286    4.5740   -0.1340 H   0  0  0  0  0  0  0  0  0  0  0  0
    0.2473    2.9993    2.4407 Cl  0  0  0  0  0  0  0  0  0  0  0  0
    3.9123    5.5187    1.8431 C   0  0  0  0  0  0  0  0  0  0  0  0
    4.9901    5.4773    1.9197 H   0  0  0  0  0  0  0  0  0  0  0  0
    3.0460    6.1977    2.7315 C   0  0  0  0  0  3  0  0  0  0  0  0
    3.3474    6.7711    3.5978 H   0  0  0  0  0  0  0  0  0  0  0  0
    1.7354    6.1324    2.2005 C   0  0  2  0  0  0  0  0  0  0  0  0
    0.8711    6.6579    2.5851 H   0  0  0  0  0  0  0  0  0  0  0  0
    3.7440    2.3664    4.5742 C   0  0  0  0  0  0  0  0  0  0  0  0
    4.5483    1.5818    5.5144 C   0  0  0  0  0  0  0  0  0  0  0  0
    4.0630    0.7069    5.9216 H   0  0  0  0  0  0  0  0  0  0  0  0
    5.7944    1.9330    5.8322 C   0  0  0  0  0  3  0  0  0  0  0  0
    6.2029    2.8250    5.3751 H   0  0  0  0  0  0  0  0  0  0  0  0
    6.6596    1.1749    6.7752 C   0  0  0  0  0  0  0  0  0  0  0  0
    7.6317    1.6452    6.8865 H   0  0  0  0  0  0  0  0  0  0  0  0
    6.7999    0.1553    6.4190 H   0  0  0  0  0  0  0  0  0  0  0  0
    6.1842    1.1112    7.7531 H   0  0  0  0  0  0  0  0  0  0  0  0
  1  3  1  0  0  0  0
  1  7  1  0  0  0  0
  1  6  1  0  0  0  0
  2  1  1  0  0  0  0
  3 17  1  0  0  0  0
  4 15  1  0  0  0  0
  5  4  1  0  0  0  0
  7 17  1  0  0  0  0
  8  4  1  0  0  0  0
  8 11  2  0  0  0  0
  9  8  1  0  0  0  0
 10  1  1  0  0  0  0
 11 12  1  0  0  0  0
 11 13  1  0  0  0  0
 13 14  1  0  0  0  0
 15 16  1  1  0  0  0
 15 13  1  0  0  0  0
 15  1  1  0  0  0  0
 17 18  2  0  0  0  0
 18 20  1  0  0  0  0
 18 19  1  0  0  0  0
 20 22  1  0  0  0  0
 21 20  1  0  0  0  0
 22 23  1  0  0  0  0
 22 25  1  0  0  0  0
 24 22  1  0  0  0  0
M  END
$$$$
