CSD_code = SAYFUW | q = 1 | S = 0 | Stoichiometry = C22H17Cl2N4O2Ru(1+) | MND = 6
 OpenBabel04212202093D

 48 53  0  0  1  0  0  0  0  0999 V2000
    7.0749    7.6782    6.2646 C   0  0  0  0  0  3  0  0  0  0  0  0
    6.7689    7.4327    5.2542 H   0  0  0  0  0  0  0  0  0  0  0  0
    7.2725    6.6735    7.1987 C   0  0  0  0  0  0  0  0  0  0  0  0
    7.1211    5.6440    6.9185 H   0  0  0  0  0  0  0  0  0  0  0  0
    7.6656    7.0210    8.4815 C   0  0  0  0  0  0  0  0  0  0  0  0
    7.8315    6.2649    9.2326 H   0  0  0  0  0  0  0  0  0  0  0  0
    7.8431    8.3609    8.7829 C   0  0  0  0  0  0  0  0  0  0  0  0
    8.1506    8.6611    9.7709 H   0  0  0  0  0  0  0  0  0  0  0  0
    7.6259    9.3197    7.7980 C   0  0  0  0  0  0  0  0  0  0  0  0
    7.7842   10.7668    8.0101 C   0  0  2  0  0  3  0  0  0  0  0  0
    8.1249   11.4018    9.1925 C   0  0  0  0  0  0  0  0  0  0  0  0
    8.3259   10.8320   10.0838 H   0  0  0  0  0  0  0  0  0  0  0  0
    8.2341   12.8016    9.2251 C   0  0  0  0  0  0  0  0  0  0  0  0
    7.9967   13.5033    8.0322 C   0  0  0  0  0  0  0  0  0  0  0  0
    8.0502   14.5788    8.0279 H   0  0  0  0  0  0  0  0  0  0  0  0
    7.6547   12.8094    6.8836 C   0  0  0  0  0  0  0  0  0  0  0  0
    7.3510   13.3816    5.5629 C   0  0  1  0  0  3  0  0  0  0  0  0
    7.4054   14.7417    5.2733 C   0  0  0  0  0  0  0  0  0  0  0  0
    7.6824   15.4465    6.0397 H   0  0  0  0  0  0  0  0  0  0  0  0
    7.1024   15.1799    3.9952 C   0  0  0  0  0  0  0  0  0  0  0  0
    7.1406   16.2305    3.7538 H   0  0  0  0  0  0  0  0  0  0  0  0
    6.7508   14.2432    3.0361 C   0  0  0  0  0  0  0  0  0  0  0  0
    6.5065   14.5374    2.0286 H   0  0  0  0  0  0  0  0  0  0  0  0
    6.7169   12.9037    3.3905 C   0  0  0  0  0  0  0  0  0  0  0  0
    6.4457   12.1514    2.6589 H   0  0  0  0  0  0  0  0  0  0  0  0
    8.5696   13.4990   10.4541 C   0  0  0  0  0  0  0  0  0  0  0  0
    8.1589   13.0001   11.6996 C   0  0  0  0  0  0  0  0  0  0  0  0
    7.5570   12.1058   11.7493 H   0  0  0  0  0  0  0  0  0  0  0  0
    8.4565   13.6679   12.8591 C   0  0  0  0  0  0  0  0  0  0  0  0
    8.1240   13.2998   13.8162 H   0  0  0  0  0  0  0  0  0  0  0  0
    9.2014   14.8575   12.8325 C   0  0  0  0  0  0  0  0  0  0  0  0
    9.6273   15.3538   11.5966 C   0  0  0  0  0  0  0  0  0  0  0  0
   10.2145   16.2560   11.5385 H   0  0  0  0  0  0  0  0  0  0  0  0
    9.3039   14.6887   10.4342 C   0  0  0  0  0  0  0  0  0  0  0  0
    9.6712   15.0774    9.4964 H   0  0  0  0  0  0  0  0  0  0  0  0
   10.1699   16.6341   14.0851 C   0  0  0  0  0  0  0  0  0  0  0  0
   11.1837   16.5115   13.6945 H   0  0  0  0  0  0  0  0  0  0  0  0
   10.2192   16.8880   15.1420 H   0  0  0  0  0  0  0  0  0  0  0  0
    9.6592   17.4349   13.5435 H   0  0  0  0  0  0  0  0  0  0  0  0
    6.5446    9.7492    3.8902 N   0  0  0  0  0  2  0  0  0  0  0  0
    7.2468    8.9634    6.5522 N   0  0  0  0  0  0  0  0  0  0  0  0
    7.5552   11.4749    6.8978 N   0  0  0  0  0  0  0  0  0  0  0  0
    7.0082   12.4824    4.6159 N   0  0  0  0  0  0  0  0  0  0  0  0
    6.2103    9.2045    2.9411 O   0  0  0  0  0  1  0  0  0  0  0  0
    9.4432   15.4241   14.0197 O   0  0  0  0  0  0  0  0  0  0  0  0
    7.0213   10.5512    5.2849 Ru  0  0  0  0  0  0  0  0  0  0  0  0
    9.3641   10.4898    4.8850 Cl  0  0  0  0  0  0  0  0  0  0  0  0
    4.8418   10.8938    6.1756 Cl  0  0  0  0  0  0  0  0  0  0  0  0
  1 41  1  0  0  0  0
  1  3  1  0  0  0  0
  2  1  1  0  0  0  0
  3  5  2  0  0  0  0
  4  3  1  0  0  0  0
  5  7  1  0  0  0  0
  5  6  1  0  0  0  0
  7  8  1  0  0  0  0
  9  7  2  0  0  0  0
 10  9  1  1  0  0  0
 10 11  1  0  0  0  0
 11 13  2  0  0  0  0
 11 12  1  0  0  0  0
 13 26  1  0  0  0  0
 14 13  1  0  0  0  0
 15 14  1  0  0  0  0
 16 42  1  0  0  0  0
 16 14  2  0  0  0  0
 17 18  1  6  0  0  0
 17 16  1  0  0  0  0
 18 19  1  0  0  0  0
 20 18  2  0  0  0  0
 21 20  1  0  0  0  0
 22 24  2  0  0  0  0
 22 20  1  0  0  0  0
 23 22  1  0  0  0  0
 24 43  1  0  0  0  0
 25 24  1  0  0  0  0
 26 27  1  0  0  0  0
 27 28  1  0  0  0  0
 27 29  2  0  0  0  0
 29 30  1  0  0  0  0
 31 29  1  0  0  0  0
 31 45  1  0  0  0  0
 32 31  2  0  0  0  0
 33 32  1  0  0  0  0
 34 26  2  0  0  0  0
 34 32  1  0  0  0  0
 35 34  1  0  0  0  0
 36 38  1  0  0  0  0
 37 36  1  0  0  0  0
 39 36  1  0  0  0  0
 40 46  1  0  0  0  0
 41  9  1  0  0  0  0
 42 10  1  0  0  0  0
 43 46  1  0  0  0  0
 43 17  1  0  0  0  0
 44 40  1  0  0  0  0
 45 36  1  0  0  0  0
 46 48  1  0  0  0  0
 46 41  1  0  0  0  0
 46 42  1  0  0  0  0
 47 46  1  0  0  0  0
M  END
$$$$
