CSD_code = SAYQIT | q = 0 | S = 0 | Stoichiometry = C24H22ClN5OPd | MND = 4
 OpenBabel04212202093D

 54 59  0  0  0  0  0  0  0  0999 V2000
    0.1481    2.2959    4.7246 Pd  0  0  2  0  0  0  0  0  0  0  0  0
    1.3551    2.9132    2.9023 Cl  0  0  0  0  0  0  0  0  0  0  0  0
    0.9144    0.3991    4.6940 N   0  0  0  0  0  0  0  0  0  0  0  0
    2.1717    0.2482    4.2479 C   0  0  0  0  0  0  0  0  0  0  0  0
    2.8728   -0.9327    4.3203 C   0  0  0  0  0  0  0  0  0  0  0  0
    2.2735   -2.0635    4.8853 C   0  0  0  0  0  0  0  0  0  0  0  0
    0.9904   -1.9114    5.3558 C   0  0  0  0  0  0  0  0  0  0  0  0
    0.3190   -0.6764    5.2698 C   0  0  0  0  0  0  0  0  0  0  0  0
   -0.9411   -0.6934    5.7633 N   0  0  0  0  0  0  0  0  0  0  0  0
   -1.6561    0.3519    6.0261 C   0  0  0  0  0  0  0  0  0  0  0  0
   -3.0407    0.2611    6.5060 C   0  0  0  0  0  0  0  0  0  0  0  0
   -3.8376   -0.8266    6.7976 C   0  0  0  0  0  0  0  0  0  0  0  0
   -5.1386   -0.5682    7.2356 C   0  0  0  0  0  0  0  0  0  0  0  0
   -5.5953    0.7520    7.3620 C   0  0  0  0  0  0  0  0  0  0  0  0
   -4.7880    1.8326    7.0650 C   0  0  0  0  0  0  0  0  0  0  0  0
   -3.4982    1.5761    6.6354 C   0  0  0  0  0  0  0  0  0  0  0  0
   -2.3885    2.4419    6.2378 C   0  0  0  0  0  0  0  0  0  0  0  0
   -1.3090    1.6623    5.9465 N   0  0  0  0  0  0  0  0  0  0  0  0
   -2.4809    3.7311    6.2124 N   0  0  0  0  0  0  0  0  0  0  0  0
   -1.5049    4.5810    5.8185 C   0  0  0  0  0  0  0  0  0  0  0  0
   -1.7303    5.9247    6.1748 C   0  0  0  0  0  0  0  0  0  0  0  0
   -0.8350    6.9136    5.8413 C   0  0  0  0  0  0  0  0  0  0  0  0
    0.3055    6.5157    5.1351 C   0  0  0  0  0  0  0  0  0  0  0  0
    0.4741    5.1932    4.7980 C   0  0  0  0  0  0  0  0  0  0  0  0
   -0.4043    4.2262    5.1078 N   0  0  0  0  0  0  0  0  0  0  0  0
    3.0051   -3.3628    4.9652 C   0  0  0  0  0  0  0  0  0  0  0  0
   -6.0409   -1.5230    7.5656 O   0  0  0  0  0  0  0  0  0  0  0  0
   -5.6677   -2.8843    7.4762 C   0  0  0  0  0  0  0  0  0  0  0  0
   -6.8731   -3.7216    7.9048 C   0  0  0  0  0  0  0  0  0  0  0  0
   -6.5435   -5.1802    7.9091 C   0  0  0  0  0  0  0  0  0  0  0  0
   -7.1853   -6.0922    7.2045 C   0  0  0  0  0  0  0  0  0  0  0  0
   -1.0539    8.3452    6.2049 C   0  0  0  0  0  0  0  0  0  0  0  0
    2.6315    1.1181    3.7925 H   0  0  0  0  0  0  0  0  0  0  0  0
    3.8788   -0.9777    3.9348 H   0  0  0  0  0  0  0  0  0  0  0  0
    0.4528   -2.7252    5.8151 H   0  0  0  0  0  0  0  0  0  0  0  0
   -3.4461   -1.8230    6.6805 H   0  0  0  0  0  0  0  0  0  0  0  0
   -6.6091    0.8954    7.7015 H   0  0  0  0  0  0  0  0  0  0  0  0
   -5.1455    2.8448    7.1620 H   0  0  0  0  0  0  0  0  0  0  0  0
   -2.6315    6.1349    6.7278 H   0  0  0  0  0  0  0  0  0  0  0  0
    1.0529    7.2372    4.8460 H   0  0  0  0  0  0  0  0  0  0  0  0
    1.3490    4.8905    4.2338 H   0  0  0  0  0  0  0  0  0  0  0  0
    2.3780   -4.1379    5.3966 H   0  0  0  0  0  0  0  0  0  0  0  0
    3.3217   -3.6755    3.9714 H   0  0  0  0  0  0  0  0  0  0  0  0
    3.8994   -3.2513    5.5770 H   0  0  0  0  0  0  0  0  0  0  0  0
   -4.8131   -3.0870    8.1365 H   0  0  0  0  0  0  0  0  0  0  0  0
   -5.3839   -3.1362    6.4455 H   0  0  0  0  0  0  0  0  0  0  0  0
   -7.7063   -3.5190    7.2311 H   0  0  0  0  0  0  0  0  0  0  0  0
   -7.1634   -3.4059    8.9105 H   0  0  0  0  0  0  0  0  0  0  0  0
   -5.7163   -5.4642    8.5471 H   0  0  0  0  0  0  0  0  0  0  0  0
   -6.9193   -7.1346    7.2422 H   0  0  0  0  0  0  0  0  0  0  0  0
   -8.0121   -5.8340    6.5635 H   0  0  0  0  0  0  0  0  0  0  0  0
   -1.9855    8.4711    6.7494 H   0  0  0  0  0  0  0  0  0  0  0  0
   -0.2318    8.7054    6.8218 H   0  0  0  0  0  0  0  0  0  0  0  0
   -1.0850    8.9578    5.3051 H   0  0  0  0  0  0  0  0  0  0  0  0
  1  2  1  6  0  0  0
  1 25  1  0  0  0  0
  1 18  1  0  0  0  0
  3  1  1  0  0  0  0
  3  8  1  0  0  0  0
  4  5  2  0  0  0  0
  4  3  1  0  0  0  0
  5  6  1  0  0  0  0
  6 26  1  0  0  0  0
  6  7  2  0  0  0  0
  7 35  1  0  0  0  0
  8  7  1  0  0  0  0
  8  9  2  0  0  0  0
  9 10  1  0  0  0  0
 10 11  2  0  0  0  0
 11 16  1  0  0  0  0
 11 12  1  0  0  0  0
 12 13  2  0  0  0  0
 13 14  1  0  0  0  0
 13 27  1  0  0  0  0
 14 37  1  0  0  0  0
 15 38  1  0  0  0  0
 15 14  2  0  0  0  0
 16 15  1  0  0  0  0
 17 16  2  0  0  0  0
 18 10  1  0  0  0  0
 18 17  1  0  0  0  0
 19 17  1  0  0  0  0
 20 21  1  0  0  0  0
 20 19  2  0  0  0  0
 21 39  1  0  0  0  0
 22 21  2  0  0  0  0
 22 32  1  0  0  0  0
 23 22  1  0  0  0  0
 24 25  1  0  0  0  0
 24 23  2  0  0  0  0
 25 20  1  0  0  0  0
 26 42  1  0  0  0  0
 26 44  1  0  0  0  0
 28 27  1  0  0  0  0
 28 29  1  0  0  0  0
 28 45  1  0  0  0  0
 29 30  1  0  0  0  0
 29 48  1  0  0  0  0
 30 49  1  0  0  0  0
 31 50  1  0  0  0  0
 31 30  2  0  0  0  0
 32 52  1  0  0  0  0
 32 53  1  0  0  0  0
 33  4  1  0  0  0  0
 34  5  1  0  0  0  0
 36 12  1  0  0  0  0
 40 23  1  0  0  0  0
 41 24  1  0  0  0  0
 43 26  1  0  0  0  0
 46 28  1  0  0  0  0
 47 29  1  0  0  0  0
 51 31  1  0  0  0  0
 54 32  1  0  0  0  0
M  END
$$$$
