CSD_code = SAYTAQ | q = 1 | S = 0 | Stoichiometry = C21H15Cl2N4ORu(1+) | MND = 6
 OpenBabel04212202093D

 44 49  0  0  1  0  0  0  0  0999 V2000
    9.6044   -0.3012    9.1636 C   0  0  0  0  0  3  0  0  0  0  0  0
    8.6647    0.0710    8.7686 H   0  0  0  0  0  0  0  0  0  0  0  0
   10.0297   -1.6033    8.9379 C   0  0  0  0  0  0  0  0  0  0  0  0
    9.4211   -2.2753    8.3554 H   0  0  0  0  0  0  0  0  0  0  0  0
   11.2402   -2.0076    9.4763 C   0  0  0  0  0  0  0  0  0  0  0  0
   11.6059   -3.0105    9.3196 H   0  0  0  0  0  0  0  0  0  0  0  0
   11.9778   -1.1075   10.2323 C   0  0  0  0  0  0  0  0  0  0  0  0
   12.9181   -1.4067   10.6653 H   0  0  0  0  0  0  0  0  0  0  0  0
   11.4915    0.1800   10.4340 C   0  0  0  0  0  0  0  0  0  0  0  0
   12.1613    1.1809   11.2889 C   0  0  2  0  0  3  0  0  0  0  0  0
   13.3118    1.0035   12.0446 C   0  0  0  0  0  0  0  0  0  0  0  0
   13.8756    0.0872   11.9921 H   0  0  0  0  0  0  0  0  0  0  0  0
   13.7494    2.0375   12.8845 C   0  0  0  0  0  0  0  0  0  0  0  0
   12.9811    3.2076   12.9709 C   0  0  0  0  0  0  0  0  0  0  0  0
   13.2677    3.9794   13.6657 H   0  0  0  0  0  0  0  0  0  0  0  0
   11.8376    3.3305   12.1944 C   0  0  0  0  0  0  0  0  0  0  0  0
   10.8467    4.4252   12.2308 C   0  0  2  0  0  3  0  0  0  0  0  0
   10.9653    5.5421   13.0511 C   0  0  0  0  0  0  0  0  0  0  0  0
   11.8374    5.6705   13.6709 H   0  0  0  0  0  0  0  0  0  0  0  0
    9.9478    6.4854   13.0751 C   0  0  0  0  0  0  0  0  0  0  0  0
   10.0277    7.3518   13.7131 H   0  0  0  0  0  0  0  0  0  0  0  0
    8.8306    6.2928   12.2793 C   0  0  0  0  0  0  0  0  0  0  0  0
    8.0136    6.9956   12.2775 H   0  0  0  0  0  0  0  0  0  0  0  0
    8.7761    5.1637   11.4733 C   0  0  0  0  0  0  0  0  0  0  0  0
    7.9254    4.9586   10.8317 H   0  0  0  0  0  0  0  0  0  0  0  0
   14.9655    1.8893   13.6811 C   0  0  0  0  0  0  0  0  0  0  0  0
   15.3008    0.6582   14.2495 C   0  0  0  0  0  0  0  0  0  0  0  0
   14.6380   -0.1863   14.1346 H   0  0  0  0  0  0  0  0  0  0  0  0
   16.4487    0.5285   15.0069 C   0  0  0  0  0  0  0  0  0  0  0  0
   16.6906   -0.4235   15.4531 H   0  0  0  0  0  0  0  0  0  0  0  0
   17.2869    1.6165   15.1952 C   0  0  0  0  0  0  0  0  0  0  0  0
   18.1860    1.5107   15.7817 H   0  0  0  0  0  0  0  0  0  0  0  0
   16.9672    2.8410   14.6294 C   0  0  0  0  0  0  0  0  0  0  0  0
   17.6207    3.6881   14.7688 H   0  0  0  0  0  0  0  0  0  0  0  0
   15.8121    2.9818   13.8852 C   0  0  0  0  0  0  0  0  0  0  0  0
   15.5844    3.9315   13.4243 H   0  0  0  0  0  0  0  0  0  0  0  0
    7.5987    2.4940    9.5988 Cl  0  0  0  0  0  0  0  0  0  0  0  0
    9.0374    1.5537   12.3371 Cl  0  0  0  0  0  0  0  0  0  0  0  0
   10.3728    3.1698    8.9931 N   0  0  0  0  0  2  0  0  0  0  0  0
   10.3139    0.5561    9.8797 N   0  0  0  0  0  0  0  0  0  0  0  0
   11.5084    2.3427   11.3591 N   0  0  0  0  0  0  0  0  0  0  0  0
    9.7514    4.2697   11.4486 N   0  0  0  0  0  0  0  0  0  0  0  0
   10.8135    3.6380    8.0399 O   0  0  0  0  0  1  0  0  0  0  0  0
    9.7961    2.4811   10.4178 Ru  0  0  0  0  0  0  0  0  0  0  0  0
  1 40  1  0  0  0  0
  2  1  1  0  0  0  0
  3  1  1  0  0  0  0
  3  5  2  0  0  0  0
  4  3  1  0  0  0  0
  5  7  1  0  0  0  0
  6  5  1  0  0  0  0
  7  9  2  0  0  0  0
  7  8  1  0  0  0  0
 10  9  1  1  0  0  0
 10 41  1  0  0  0  0
 10 11  1  0  0  0  0
 11 13  2  0  0  0  0
 12 11  1  0  0  0  0
 13 14  1  0  0  0  0
 13 26  1  0  0  0  0
 14 15  1  0  0  0  0
 16 14  2  0  0  0  0
 17 16  1  1  0  0  0
 17 18  1  0  0  0  0
 18 20  2  0  0  0  0
 18 19  1  0  0  0  0
 20 21  1  0  0  0  0
 22 20  1  0  0  0  0
 23 22  1  0  0  0  0
 24 22  2  0  0  0  0
 25 24  1  0  0  0  0
 26 35  2  0  0  0  0
 26 27  1  0  0  0  0
 27 29  2  0  0  0  0
 28 27  1  0  0  0  0
 29 31  1  0  0  0  0
 29 30  1  0  0  0  0
 31 32  1  0  0  0  0
 33 34  1  0  0  0  0
 33 31  2  0  0  0  0
 35 33  1  0  0  0  0
 36 35  1  0  0  0  0
 37 44  1  0  0  0  0
 39 44  1  0  0  0  0
 40 44  1  0  0  0  0
 40  9  1  0  0  0  0
 41 16  1  0  0  0  0
 42 24  1  0  0  0  0
 42 17  1  0  0  0  0
 43 39  1  0  0  0  0
 44 41  1  0  0  0  0
 44 42  1  0  0  0  0
 44 38  1  0  0  0  0
M  END
$$$$
