CSD_code = SAYYUM | q = 0 | S = 0 | Stoichiometry = C8H20Cl2F12N8Ni | MND = 6
 OpenBabel04212202093D

 51 48  0  0  0  0  0  0  0  0999 V2000
   -1.2467    3.2134    5.3651 Ni  0  0  0  0  0  0  0  0  0  0  0  0
    0.4000    1.9012    4.9610 Cl  0  0  0  0  0  0  0  0  0  0  0  0
   -1.3983    2.4316    2.5742 N   0  0  0  0  0  0  0  0  0  0  0  0
   -2.1843    2.5132    3.7569 N   0  0  0  0  0  4  0  0  0  0  0  0
   -1.9042    1.4913    1.5964 C   0  0  0  0  0  0  0  0  0  0  0  0
   -3.1463    2.0463    0.9009 C   0  0  0  0  0  0  0  0  0  0  0  0
   -4.2028    2.1131    1.7323 F   0  0  0  0  0  0  0  0  0  0  0  0
   -2.9625    3.2734    0.4145 F   0  0  0  0  0  0  0  0  0  0  0  0
   -3.5197    1.2637   -0.1208 F   0  0  0  0  0  0  0  0  0  0  0  0
   -0.1717    5.0012    4.0752 N   0  0  0  0  0  0  0  0  0  0  0  0
   -0.3969    6.2493    4.7264 N   0  0  0  0  0  0  0  0  0  0  0  0
   -0.0562    7.4333    3.9677 C   0  0  0  0  0  0  0  0  0  0  0  0
   -0.9220    7.7005    2.7282 C   0  0  0  0  0  0  0  0  0  0  0  0
   -0.6892    6.8198    1.7386 F   0  0  0  0  0  0  0  0  0  0  0  0
   -0.6825    8.9181    2.2196 F   0  0  0  0  0  0  0  0  0  0  0  0
   -2.2295    7.6358    3.0018 F   0  0  0  0  0  0  0  0  0  0  0  0
   -2.5129    1.5864    4.0730 H   0  0  0  0  0  0  0  0  0  0  0  0
   -3.0098    3.0916    3.5729 H   0  0  0  0  0  0  0  0  0  0  0  0
   -0.4559    2.1518    2.8652 H   0  0  0  0  0  0  0  0  0  0  0  0
   -1.1436    1.3474    0.8267 H   0  0  0  0  0  0  0  0  0  0  0  0
   -2.1827    0.5092    2.0181 H   0  0  0  0  0  0  0  0  0  0  0  0
   -0.5917    4.9469    3.1421 H   0  0  0  0  0  0  0  0  0  0  0  0
    0.8333    4.8631    3.9725 H   0  0  0  0  0  0  0  0  0  0  0  0
   -1.3798    6.2615    5.0136 H   0  0  0  0  0  0  0  0  0  0  0  0
    0.9846    7.3683    3.6322 H   0  0  0  0  0  0  0  0  0  0  0  0
   -0.1645    8.3006    4.6239 H   0  0  0  0  0  0  0  0  0  0  0  0
   -2.8926    4.5263    5.7707 Cl  0  0  0  0  0  0  0  0  0  0  0  0
   -0.3089    3.9137    6.9731 N   0  0  0  0  0  4  0  0  0  0  0  0
   -2.3231    1.4267    6.6552 N   0  0  0  0  0  0  0  0  0  0  0  0
   -1.0945    3.9950    8.1561 N   0  0  0  0  0  0  0  0  0  0  0  0
    0.0198    4.8406    6.6573 H   0  0  0  0  0  0  0  0  0  0  0  0
    0.5166    3.3351    7.1567 H   0  0  0  0  0  0  0  0  0  0  0  0
   -2.0980    0.1781    6.0048 N   0  0  0  0  0  0  0  0  0  0  0  0
   -1.9042    1.4810    7.5888 H   0  0  0  0  0  0  0  0  0  0  0  0
   -3.3282    1.5654    6.7567 H   0  0  0  0  0  0  0  0  0  0  0  0
   -0.5872    4.9336    9.1350 C   0  0  0  0  0  0  0  0  0  0  0  0
   -2.0367    4.2759    7.8658 H   0  0  0  0  0  0  0  0  0  0  0  0
   -2.4410   -1.0053    6.7631 C   0  0  0  0  0  0  0  0  0  0  0  0
   -1.1147    0.1651    5.7191 H   0  0  0  0  0  0  0  0  0  0  0  0
    0.6543    4.3763    9.8295 C   0  0  0  0  0  0  0  0  0  0  0  0
   -1.3475    5.0776    9.9050 H   0  0  0  0  0  0  0  0  0  0  0  0
   -0.3076    5.9158    8.7144 H   0  0  0  0  0  0  0  0  0  0  0  0
   -1.5795   -1.2714    8.0058 C   0  0  0  0  0  0  0  0  0  0  0  0
   -3.4830   -0.9402    7.0949 H   0  0  0  0  0  0  0  0  0  0  0  0
   -2.3305   -1.8731    6.1078 H   0  0  0  0  0  0  0  0  0  0  0  0
    1.7107    4.3096    8.9981 F   0  0  0  0  0  0  0  0  0  0  0  0
    0.4692    3.1485   10.3141 F   0  0  0  0  0  0  0  0  0  0  0  0
    1.0285    5.1569   10.8525 F   0  0  0  0  0  0  0  0  0  0  0  0
   -1.8176   -0.3914    8.9946 F   0  0  0  0  0  0  0  0  0  0  0  0
   -1.8188   -2.4894    8.5131 F   0  0  0  0  0  0  0  0  0  0  0  0
   -0.2711   -1.2043    7.7373 F   0  0  0  0  0  0  0  0  0  0  0  0
  1 27  1  0  0  0  0
  1 28  1  0  0  0  0
  2  1  1  0  0  0  0
  3 19  1  0  0  0  0
  3  4  1  0  0  0  0
  4 17  1  0  0  0  0
  4  1  1  0  0  0  0
  5 21  1  0  0  0  0
  5  3  1  0  0  0  0
  6  5  1  0  0  0  0
  6  7  1  0  0  0  0
  8  6  1  0  0  0  0
  9  6  1  0  0  0  0
 10 11  1  0  0  0  0
 11 24  1  0  0  0  0
 12 26  1  0  0  0  0
 12 11  1  0  0  0  0
 13 16  1  0  0  0  0
 13 12  1  0  0  0  0
 14 13  1  0  0  0  0
 15 13  1  0  0  0  0
 18  4  1  0  0  0  0
 20  5  1  0  0  0  0
 22 10  1  0  0  0  0
 23 10  1  0  0  0  0
 25 12  1  0  0  0  0
 28 32  1  0  0  0  0
 28 30  1  0  0  0  0
 29 35  1  0  0  0  0
 29 34  1  0  0  0  0
 30 36  1  0  0  0  0
 31 28  1  0  0  0  0
 33 29  1  0  0  0  0
 33 38  1  0  0  0  0
 36 40  1  0  0  0  0
 36 41  1  0  0  0  0
 37 30  1  0  0  0  0
 38 44  1  0  0  0  0
 38 43  1  0  0  0  0
 39 33  1  0  0  0  0
 40 47  1  0  0  0  0
 40 48  1  0  0  0  0
 42 36  1  0  0  0  0
 43 50  1  0  0  0  0
 43 49  1  0  0  0  0
 45 38  1  0  0  0  0
 46 40  1  0  0  0  0
 51 43  1  0  0  0  0
M  END
$$$$
