CSD_code = SAYZOI | q = 0 | S = 0 | Stoichiometry = C25H27ClNPPdS2 | MND = 4
 OpenBabel04212202093D

 58 62  0  0  1  0  0  0  0  0999 V2000
   -1.7516   12.7137   19.2264 N   0  0  1  0  0  0  0  0  0  0  0  0
    2.5507    9.3733   17.2633 P   0  0  0  0  0  4  0  0  0  0  0  0
    1.0480   10.6382   14.7770 Cl  0  0  0  0  0  0  0  0  0  0  0  0
    0.6398   10.5452   16.9927 Pd  0  0  1  0  0  0  0  0  0  0  0  0
   -1.4138   11.6113   16.8276 S   0  0  0  0  0  0  0  0  0  0  0  0
   -0.0711   10.6456   19.2025 S   0  0  0  0  0  0  0  0  0  0  0  0
   -1.1463   11.7751   18.4996 C   0  0  2  0  0  3  0  0  0  0  0  0
   -2.7175   13.6357   18.6729 C   0  0  0  0  0  0  0  0  0  0  0  0
   -2.7403   13.5203   17.5883 H   0  0  0  0  0  0  0  0  0  0  0  0
   -2.3964   14.6556   18.9146 H   0  0  0  0  0  0  0  0  0  0  0  0
   -4.0946   13.3655   19.2769 C   0  0  0  0  0  0  0  0  0  0  0  0
   -4.4186   12.3628   18.9906 H   0  0  0  0  0  0  0  0  0  0  0  0
   -4.8103   14.0822   18.8725 H   0  0  0  0  0  0  0  0  0  0  0  0
   -4.0399   13.4687   20.8027 C   0  0  2  0  0  0  0  0  0  0  0  0
   -3.7598   14.4939   21.0727 H   0  0  0  0  0  0  0  0  0  0  0  0
   -2.9624   12.5161   21.3256 C   0  0  0  0  0  0  0  0  0  0  0  0
   -2.8584   12.6160   22.4067 H   0  0  0  0  0  0  0  0  0  0  0  0
   -3.2493   11.4857   21.1053 H   0  0  0  0  0  0  0  0  0  0  0  0
   -1.6178   12.8101   20.6618 C   0  0  0  0  0  0  0  0  0  0  0  0
   -1.2915   13.8266   20.9106 H   0  0  0  0  0  0  0  0  0  0  0  0
   -0.8578   12.1020   20.9963 H   0  0  0  0  0  0  0  0  0  0  0  0
   -5.3972   13.1536   21.4230 C   0  0  0  0  0  0  0  0  0  0  0  0
   -6.1552   13.8382   21.0502 H   0  0  0  0  0  0  0  0  0  0  0  0
   -5.3525   13.2458   22.5056 H   0  0  0  0  0  0  0  0  0  0  0  0
   -5.7009   12.1385   21.1772 H   0  0  0  0  0  0  0  0  0  0  0  0
    2.1680    7.8148   16.4077 C   0  0  0  0  0  0  0  0  0  0  0  0
    0.8193    7.4751   16.2951 C   0  0  0  0  0  0  0  0  0  0  0  0
    0.0516    8.1489   16.7099 H   0  0  0  0  0  0  0  0  0  0  0  0
    0.4520    6.3060   15.6560 C   0  0  0  0  0  0  0  0  0  0  0  0
   -0.5915    6.0442   15.5629 H   0  0  0  0  0  0  0  0  0  0  0  0
    1.4258    5.4747   15.1230 C   0  0  0  0  0  0  0  0  0  0  0  0
    1.1379    4.5662   14.6150 H   0  0  0  0  0  0  0  0  0  0  0  0
    2.7650    5.8105   15.2315 C   0  0  0  0  0  0  0  0  0  0  0  0
    3.5202    5.1636   14.8097 H   0  0  0  0  0  0  0  0  0  0  0  0
    3.1403    6.9780   15.8734 C   0  0  0  0  0  0  0  0  0  0  0  0
    4.1841    7.2482   15.9534 H   0  0  0  0  0  0  0  0  0  0  0  0
    2.8270    8.8753   18.9925 C   0  0  0  0  0  0  0  0  0  0  0  0
    3.0141    9.9092   19.9082 C   0  0  0  0  0  0  0  0  0  0  0  0
    3.0086   10.9334   19.5495 H   0  0  0  0  0  0  0  0  0  0  0  0
    3.1957    9.6278   21.2476 C   0  0  0  0  0  0  0  0  0  0  0  0
    3.3402   10.4305   21.9557 H   0  0  0  0  0  0  0  0  0  0  0  0
    3.1818    8.3109   21.6825 C   0  0  0  0  0  0  0  0  0  0  0  0
    3.3162    8.0885   22.7308 H   0  0  0  0  0  0  0  0  0  0  0  0
    2.9882    7.2817   20.7769 C   0  0  0  0  0  0  0  0  0  0  0  0
    2.9733    6.2572   21.1191 H   0  0  0  0  0  0  0  0  0  0  0  0
    2.8088    7.5583   19.4319 C   0  0  0  0  0  0  0  0  0  0  0  0
    2.6540    6.7554   18.7249 H   0  0  0  0  0  0  0  0  0  0  0  0
    4.2187    9.8125   16.6852 C   0  0  0  0  0  0  0  0  0  0  0  0
    5.3486    9.5703   17.4618 C   0  0  0  0  0  0  0  0  0  0  0  0
    5.2492    9.1285   18.4433 H   0  0  0  0  0  0  0  0  0  0  0  0
    6.6017    9.8961   16.9743 C   0  0  0  0  0  0  0  0  0  0  0  0
    7.4763    9.7066   17.5798 H   0  0  0  0  0  0  0  0  0  0  0  0
    6.7363   10.4620   15.7170 C   0  0  0  0  0  0  0  0  0  0  0  0
    7.7172   10.7152   15.3424 H   0  0  0  0  0  0  0  0  0  0  0  0
    5.6123   10.7046   14.9434 C   0  0  0  0  0  0  0  0  0  0  0  0
    5.7143   11.1474   13.9640 H   0  0  0  0  0  0  0  0  0  0  0  0
    4.3552   10.3847   15.4227 C   0  0  0  0  0  0  0  0  0  0  0  0
    3.4699   10.5764   14.8317 H   0  0  0  0  0  0  0  0  0  0  0  0
  1  8  1  1  0  0  0
  1 19  1  0  0  0  0
  2 37  1  0  0  0  0
  4  3  1  1  0  0  0
  4  2  1  0  0  0  0
  4  6  1  0  0  0  0
  5  4  1  0  0  0  0
  7  5  1  1  0  0  0
  7  6  1  0  0  0  0
  7  1  1  0  0  0  0
  8 10  1  0  0  0  0
  8 11  1  0  0  0  0
  9  8  1  0  0  0  0
 11 14  1  0  0  0  0
 12 11  1  0  0  0  0
 13 11  1  0  0  0  0
 14 15  1  1  0  0  0
 14 16  1  0  0  0  0
 14 22  1  0  0  0  0
 16 17  1  0  0  0  0
 18 16  1  0  0  0  0
 19 20  1  0  0  0  0
 19 21  1  0  0  0  0
 19 16  1  0  0  0  0
 22 24  1  0  0  0  0
 23 22  1  0  0  0  0
 25 22  1  0  0  0  0
 26  2  1  0  0  0  0
 27 26  1  0  0  0  0
 27 28  1  0  0  0  0
 29 27  2  0  0  0  0
 30 29  1  0  0  0  0
 31 33  2  0  0  0  0
 31 29  1  0  0  0  0
 32 31  1  0  0  0  0
 33 35  1  0  0  0  0
 34 33  1  0  0  0  0
 35 36  1  0  0  0  0
 35 26  2  0  0  0  0
 37 46  2  0  0  0  0
 37 38  1  0  0  0  0
 38 40  2  0  0  0  0
 39 38  1  0  0  0  0
 40 42  1  0  0  0  0
 40 41  1  0  0  0  0
 42 43  1  0  0  0  0
 44 45  1  0  0  0  0
 44 42  2  0  0  0  0
 46 44  1  0  0  0  0
 47 46  1  0  0  0  0
 48  2  1  0  0  0  0
 48 49  1  0  0  0  0
 49 50  1  0  0  0  0
 51 49  2  0  0  0  0
 51 52  1  0  0  0  0
 53 51  1  0  0  0  0
 54 53  1  0  0  0  0
 55 57  1  0  0  0  0
 55 53  2  0  0  0  0
 56 55  1  0  0  0  0
 57 48  2  0  0  0  0
 58 57  1  0  0  0  0
M  END
$$$$
