CSD_code = SAZHIN | q = 0 | S = 0 | Stoichiometry = C28H23AuClN4P | MND = 2
 OpenBabel04212202093D

 58 62  0  0  0  0  0  0  0  0999 V2000
    1.2310    2.6728    0.2982 Au  0  0  0  0  0  0  0  0  0  0  0  0
    3.4680    2.9147    0.6880 Cl  0  0  0  0  0  0  0  0  0  0  0  0
   -0.9055    2.3846   -0.3111 P   0  0  0  0  0  4  0  0  0  0  0  0
   -0.2850    4.1653    2.0477 N   0  0  0  0  0  0  0  0  0  0  0  0
    2.2060    4.7539    4.5299 N   0  0  0  0  0  0  0  0  0  0  0  0
   -0.5126    0.9073    2.0346 N   0  0  0  0  0  0  0  0  0  0  0  0
    0.9702    1.5825    5.1790 N   0  0  0  0  0  0  0  0  0  0  0  0
   -2.0266    3.5771    0.5278 C   0  0  0  0  0  0  0  0  0  0  0  0
   -1.9240    4.5208   -0.0191 H   0  0  0  0  0  0  0  0  0  0  0  0
   -3.0676    3.2420    0.4993 H   0  0  0  0  0  0  0  0  0  0  0  0
   -1.8159    3.7039    4.3030 C   0  0  0  0  0  0  0  0  0  0  0  0
   -2.4158    3.5142    5.1809 H   0  0  0  0  0  0  0  0  0  0  0  0
   -1.5431    3.7604    1.9359 C   0  0  0  0  0  0  0  0  0  0  0  0
   -2.3541    3.5237    3.0363 C   0  0  0  0  0  0  0  0  0  0  0  0
   -3.3762    3.1995    2.9061 H   0  0  0  0  0  0  0  0  0  0  0  0
   -0.5091    4.1309    4.4219 C   0  0  0  0  0  0  0  0  0  0  0  0
   -0.0385    4.2861    5.3775 H   0  0  0  0  0  0  0  0  0  0  0  0
    0.2301    4.3616    3.2597 C   0  0  0  0  0  0  0  0  0  0  0  0
    1.6150    4.8392    3.3382 C   0  0  0  0  0  0  0  0  0  0  0  0
    2.2611    5.3634    2.2198 C   0  0  0  0  0  0  0  0  0  0  0  0
    1.7298    5.4441    1.2859 H   0  0  0  0  0  0  0  0  0  0  0  0
    3.5798    5.7625    2.3402 C   0  0  0  0  0  0  0  0  0  0  0  0
    4.1144    6.1472    1.4850 H   0  0  0  0  0  0  0  0  0  0  0  0
    4.2018    5.6426    3.5719 C   0  0  0  0  0  0  0  0  0  0  0  0
    5.2331    5.9291    3.7082 H   0  0  0  0  0  0  0  0  0  0  0  0
    3.4601    5.1448    4.6338 C   0  0  0  0  0  0  0  0  0  0  0  0
    3.8922    5.0516    5.6228 H   0  0  0  0  0  0  0  0  0  0  0  0
   -1.7374    0.7732    0.0159 C   0  0  0  0  0  0  0  0  0  0  0  0
   -2.7584    0.7649   -0.3784 H   0  0  0  0  0  0  0  0  0  0  0  0
   -1.1516    0.0002   -0.4928 H   0  0  0  0  0  0  0  0  0  0  0  0
   -1.6845    0.5906    1.5006 C   0  0  0  0  0  0  0  0  0  0  0  0
   -2.7708    0.1776    2.2586 C   0  0  0  0  0  0  0  0  0  0  0  0
   -3.7074   -0.0760    1.7847 H   0  0  0  0  0  0  0  0  0  0  0  0
   -2.6192    0.1060    3.6366 C   0  0  0  0  0  0  0  0  0  0  0  0
   -3.4453   -0.2052    4.2598 H   0  0  0  0  0  0  0  0  0  0  0  0
   -1.4025    0.4427    4.1953 C   0  0  0  0  0  0  0  0  0  0  0  0
   -1.2298    0.4169    5.2583 H   0  0  0  0  0  0  0  0  0  0  0  0
   -0.3575    0.8307    3.3529 C   0  0  0  0  0  0  0  0  0  0  0  0
    0.9556    1.1771    3.9087 C   0  0  0  0  0  0  0  0  0  0  0  0
    2.1121    1.0677    3.1425 C   0  0  0  0  0  0  0  0  0  0  0  0
    2.0546    0.7020    2.1307 H   0  0  0  0  0  0  0  0  0  0  0  0
    3.3217    1.4313    3.7087 C   0  0  0  0  0  0  0  0  0  0  0  0
    4.2280    1.3823    3.1251 H   0  0  0  0  0  0  0  0  0  0  0  0
    3.3325    1.8739    5.0204 C   0  0  0  0  0  0  0  0  0  0  0  0
    4.2508    2.1735    5.5007 H   0  0  0  0  0  0  0  0  0  0  0  0
    2.1274    1.9238    5.7083 C   0  0  0  0  0  0  0  0  0  0  0  0
    2.0849    2.2564    6.7375 H   0  0  0  0  0  0  0  0  0  0  0  0
   -1.2896    2.6246   -2.0718 C   0  0  0  0  0  0  0  0  0  0  0  0
   -0.2243    2.6645   -2.9640 C   0  0  0  0  0  0  0  0  0  0  0  0
    0.7832    2.5661   -2.5791 H   0  0  0  0  0  0  0  0  0  0  0  0
   -0.4550    2.8345   -4.3175 C   0  0  0  0  0  0  0  0  0  0  0  0
    0.3758    2.8638   -5.0063 H   0  0  0  0  0  0  0  0  0  0  0  0
   -1.7515    2.9715   -4.7845 C   0  0  0  0  0  0  0  0  0  0  0  0
   -1.9343    3.1079   -5.8399 H   0  0  0  0  0  0  0  0  0  0  0  0
   -2.8172    2.9380   -3.8984 C   0  0  0  0  0  0  0  0  0  0  0  0
   -3.8274    3.0491   -4.2646 H   0  0  0  0  0  0  0  0  0  0  0  0
   -2.5910    2.7635   -2.5459 C   0  0  0  0  0  0  0  0  0  0  0  0
   -3.4262    2.7404   -1.8594 H   0  0  0  0  0  0  0  0  0  0  0  0
  1  2  1  0  0  0  0
  3 28  1  0  0  0  0
  3  1  1  0  0  0  0
  3  8  1  0  0  0  0
  4 18  1  0  0  0  0
  5 26  1  0  0  0  0
  6 38  1  0  0  0  0
  7 46  1  0  0  0  0
  8 13  1  0  0  0  0
  9  8  1  0  0  0  0
 10  8  1  0  0  0  0
 11 16  1  0  0  0  0
 11 12  1  0  0  0  0
 13  4  2  0  0  0  0
 13 14  1  0  0  0  0
 14 11  2  0  0  0  0
 15 14  1  0  0  0  0
 16 17  1  0  0  0  0
 18 19  1  0  0  0  0
 18 16  2  0  0  0  0
 19  5  2  0  0  0  0
 20 22  2  0  0  0  0
 20 19  1  0  0  0  0
 21 20  1  0  0  0  0
 22 24  1  0  0  0  0
 23 22  1  0  0  0  0
 24 25  1  0  0  0  0
 24 26  2  0  0  0  0
 26 27  1  0  0  0  0
 28 31  1  0  0  0  0
 29 28  1  0  0  0  0
 30 28  1  0  0  0  0
 31  6  2  0  0  0  0
 31 32  1  0  0  0  0
 32 34  2  0  0  0  0
 33 32  1  0  0  0  0
 34 36  1  0  0  0  0
 34 35  1  0  0  0  0
 36 37  1  0  0  0  0
 38 39  1  0  0  0  0
 38 36  2  0  0  0  0
 39  7  2  0  0  0  0
 40 42  2  0  0  0  0
 40 39  1  0  0  0  0
 41 40  1  0  0  0  0
 42 44  1  0  0  0  0
 43 42  1  0  0  0  0
 44 45  1  0  0  0  0
 44 46  2  0  0  0  0
 46 47  1  0  0  0  0
 48  3  1  0  0  0  0
 49 50  1  0  0  0  0
 49 48  2  0  0  0  0
 51 49  1  0  0  0  0
 52 51  1  0  0  0  0
 53 51  2  0  0  0  0
 53 55  1  0  0  0  0
 54 53  1  0  0  0  0
 55 57  2  0  0  0  0
 56 55  1  0  0  0  0
 57 48  1  0  0  0  0
 57 58  1  0  0  0  0
M  END
$$$$
