CSD_code = SAZJOU | q = 0 | S = 0 | Stoichiometry = C22H38B2ClIrN6 | MND = 7
 OpenBabel04212202093D

 70 75  0  0  1  0  0  0  0  0999 V2000
    4.4886    3.9110    4.1936 Ir  0  0  0  0  0  0  0  0  0  0  0  0
    4.1462    2.0201    5.4886 Cl  0  0  0  0  0 15  0  0  0  0  0  0
    5.6754    3.8458    7.5172 N   0  0  2  0  0  0  0  0  0  0  0  0
    7.5343    2.8164    6.8281 N   0  0  1  0  0  0  0  0  0  0  0  0
    6.2380    1.7778    8.4990 N   0  0  1  0  0  0  0  0  0  0  0  0
    6.4209    6.1071    6.6597 N   0  0  2  0  0  0  0  0  0  0  0  0
    8.4184    5.1508    6.3074 N   0  0  2  0  0  0  0  0  0  0  0  0
    8.3573    7.3397    7.1566 N   0  0  1  0  0  0  0  0  0  0  0  0
    5.9903    4.6799    6.2522 B   0  0  1  0  0  0  0  0  0  0  0  0
    4.8795    4.7940    5.6189 H   0  0  0  0  0  0  0  0  0  0  0  0
    7.4860    3.9875    5.8033 B   0  0  2  0  0  0  0  0  0  0  0  0
    7.9123    3.6030    4.7559 H   0  0  0  0  0  0  0  0  0  0  0  0
    6.4643    2.7817    7.6017 C   0  0  1  0  0  3  0  0  0  0  0  0
    4.4412    3.9501    8.2581 C   0  0  0  0  0  0  0  0  0  0  0  0
    3.6052    3.6746    7.6004 H   0  0  0  0  0  0  0  0  0  0  0  0
    4.3076    4.9949    8.5599 H   0  0  0  0  0  0  0  0  0  0  0  0
    4.4471    3.0439    9.4820 C   0  0  0  0  0  0  0  0  0  0  0  0
    5.1502    3.4234   10.2278 H   0  0  0  0  0  0  0  0  0  0  0  0
    3.4530    3.0000    9.9265 H   0  0  0  0  0  0  0  0  0  0  0  0
    4.8950    1.6620    9.0319 C   0  0  0  0  0  0  0  0  0  0  0  0
    4.9242    0.9627    9.8729 H   0  0  0  0  0  0  0  0  0  0  0  0
    4.2086    1.2757    8.2663 H   0  0  0  0  0  0  0  0  0  0  0  0
    6.9660    0.5396    8.3208 C   0  0  0  0  0  0  0  0  0  0  0  0
    6.5266   -0.0574    7.5091 H   0  0  0  0  0  0  0  0  0  0  0  0
    6.8872   -0.0328    9.2510 H   0  0  0  0  0  0  0  0  0  0  0  0
    8.4189    0.8664    8.0066 C   0  0  0  0  0  0  0  0  0  0  0  0
    8.8439    1.4353    8.8365 H   0  0  0  0  0  0  0  0  0  0  0  0
    8.9968   -0.0486    7.8763 H   0  0  0  0  0  0  0  0  0  0  0  0
    8.4490    1.7083    6.7364 C   0  0  0  0  0  0  0  0  0  0  0  0
    9.4515    2.1095    6.5599 H   0  0  0  0  0  0  0  0  0  0  0  0
    8.1833    1.0864    5.8703 H   0  0  0  0  0  0  0  0  0  0  0  0
    7.7446    6.2069    6.7172 C   0  0  1  0  0  3  0  0  0  0  0  0
    5.5949    7.2343    7.0036 C   0  0  0  0  0  0  0  0  0  0  0  0
    4.5991    6.8695    7.2607 H   0  0  0  0  0  0  0  0  0  0  0  0
    5.4906    7.9115    6.1415 H   0  0  0  0  0  0  0  0  0  0  0  0
    6.2285    7.9888    8.1689 C   0  0  0  0  0  0  0  0  0  0  0  0
    5.6284    8.8520    8.4561 H   0  0  0  0  0  0  0  0  0  0  0  0
    6.3113    7.3158    9.0248 H   0  0  0  0  0  0  0  0  0  0  0  0
    7.6169    8.4401    7.7352 C   0  0  0  0  0  0  0  0  0  0  0  0
    7.5327    9.2571    7.0026 H   0  0  0  0  0  0  0  0  0  0  0  0
    8.1796    8.8198    8.5967 H   0  0  0  0  0  0  0  0  0  0  0  0
    9.7962    7.4775    7.1036 C   0  0  0  0  0  0  0  0  0  0  0  0
   10.2378    7.2235    8.0793 H   0  0  0  0  0  0  0  0  0  0  0  0
   10.0322    8.5262    6.8904 H   0  0  0  0  0  0  0  0  0  0  0  0
   10.3695    6.5737    6.0206 C   0  0  0  0  0  0  0  0  0  0  0  0
   11.4586    6.6047    6.0426 H   0  0  0  0  0  0  0  0  0  0  0  0
   10.0262    6.9170    5.0430 H   0  0  0  0  0  0  0  0  0  0  0  0
    9.8547    5.1568    6.2596 C   0  0  0  0  0  0  0  0  0  0  0  0
   10.1601    4.4898    5.4497 H   0  0  0  0  0  0  0  0  0  0  0  0
   10.2729    4.7642    7.1985 H   0  0  0  0  0  0  0  0  0  0  0  0
    4.4895    2.7886    2.3997 C   0  0  0  0  0  3  0  0  0  0  0  0
    4.8105    1.7733    2.6196 H   0  0  0  0  0  0  0  0  0  0  0  0
    3.1711    3.1301    2.7470 C   0  0  2  0  0  0  0  0  0  0  0  0
    2.5514    2.3427    3.1738 H   0  0  0  0  0  0  0  0  0  0  0  0
    2.3672    4.2053    2.0462 C   0  0  0  0  0  0  0  0  0  0  0  0
    1.4383    4.3444    2.6022 H   0  0  0  0  0  0  0  0  0  0  0  0
    2.0958    3.8627    1.0420 H   0  0  0  0  0  0  0  0  0  0  0  0
    3.1145    5.5495    1.9715 C   0  0  0  0  0  0  0  0  0  0  0  0
    3.6332    5.6440    1.0166 H   0  0  0  0  0  0  0  0  0  0  0  0
    2.3888    6.3633    2.0254 H   0  0  0  0  0  0  0  0  0  0  0  0
    4.1197    5.6997    3.0991 C   0  0  0  0  0  3  0  0  0  0  0  0
    3.9055    6.5281    3.7724 H   0  0  0  0  0  0  0  0  0  0  0  0
    5.4643    5.3237    2.9681 C   0  0  2  0  0  0  0  0  0  0  0  0
    6.1998    5.8781    3.5463 H   0  0  0  0  0  0  0  0  0  0  0  0
    6.0542    4.6632    1.7434 C   0  0  0  0  0  0  0  0  0  0  0  0
    6.1589    5.3973    0.9359 H   0  0  0  0  0  0  0  0  0  0  0  0
    7.0570    4.3266    2.0108 H   0  0  0  0  0  0  0  0  0  0  0  0
    5.2345    3.4526    1.2605 C   0  0  0  0  0  0  0  0  0  0  0  0
    5.9102    2.7281    0.8026 H   0  0  0  0  0  0  0  0  0  0  0  0
    4.5197    3.7561    0.4940 H   0  0  0  0  0  0  0  0  0  0  0  0
  3 13  1  0  0  0  0
  3 14  1  6  0  0  0
  4 29  1  6  0  0  0
  4 13  1  0  0  0  0
  5 20  1  0  0  0  0
  6 32  1  0  0  0  0
  6 33  1  1  0  0  0
  7 48  1  6  0  0  0
  7 32  1  0  0  0  0
  8 39  1  0  0  0  0
  9 10  1  6  0  0  0
  9  6  1  0  0  0  0
  9  3  1  0  0  0  0
 11 12  1  6  0  0  0
 11  9  1  0  0  0  0
 11  7  1  0  0  0  0
 11  4  1  0  0  0  0
 13  5  1  0  0  0  0
 14 16  1  0  0  0  0
 14 17  1  0  0  0  0
 15 14  1  0  0  0  0
 17 19  1  0  0  0  0
 17 18  1  0  0  0  0
 20 17  1  0  0  0  0
 20 21  1  0  0  0  0
 22 20  1  0  0  0  0
 23  5  1  0  0  0  0
 23 25  1  0  0  0  0
 24 23  1  0  0  0  0
 26 23  1  0  0  0  0
 26 27  1  0  0  0  0
 28 26  1  0  0  0  0
 29 26  1  0  0  0  0
 30 29  1  0  0  0  0
 31 29  1  0  0  0  0
 32  8  1  0  0  0  0
 33 34  1  0  0  0  0
 33 36  1  0  0  0  0
 35 33  1  0  0  0  0
 36 37  1  0  0  0  0
 36 38  1  0  0  0  0
 39 36  1  0  0  0  0
 39 41  1  0  0  0  0
 40 39  1  0  0  0  0
 42  8  1  0  0  0  0
 42 43  1  0  0  0  0
 44 42  1  0  0  0  0
 45 46  1  0  0  0  0
 45 48  1  0  0  0  0
 45 42  1  0  0  0  0
 47 45  1  0  0  0  0
 48 50  1  0  0  0  0
 49 48  1  0  0  0  0
 51 52  1  0  0  0  0
 51 53  1  0  0  0  0
 53 54  1  1  0  0  0
 53  1  1  0  0  0  0
 55 56  1  0  0  0  0
 55 53  1  0  0  0  0
 57 55  1  0  0  0  0
 58 60  1  0  0  0  0
 58 55  1  0  0  0  0
 58 61  1  0  0  0  0
 59 58  1  0  0  0  0
 61 62  1  0  0  0  0
 63 61  1  0  0  0  0
 63 64  1  1  0  0  0
 63  1  1  0  0  0  0
 65 67  1  0  0  0  0
 65 63  1  0  0  0  0
 66 65  1  0  0  0  0
 68 65  1  0  0  0  0
 68 51  1  0  0  0  0
 69 68  1  0  0  0  0
 70 68  1  0  0  0  0
M  END
$$$$
