CSD_code = SAZNAL | q = 0 | S = 0 | Stoichiometry = C32H30ClN2O2P2Rh | MND = 4
 OpenBabel04212202093D

 70 76  0  0  0  0  0  0  0  0999 V2000
    6.3492    4.2929    6.2757 Rh  0  0  1  0  0  0  0  0  0  0  0  0
    5.6670    5.7955    4.7160 Cl  0  0  0  0  0  0  0  0  0  0  0  0
    6.7089    2.7657    7.8310 P   0  0  1  0  0  4  0  0  0  0  0  0
    8.2974    4.0899    5.2206 P   0  0  0  0  0  4  0  0  0  0  0  0
    7.9690    2.5623    8.8554 O   0  0  0  0  0  0  0  0  0  0  0  0
    5.4494    2.6879    8.9085 O   0  0  0  0  0  0  0  0  0  0  0  0
    4.4057    4.5998    7.0801 N   0  0  0  0  0  4  0  0  0  0  0  0
    4.1700    5.4747    6.5944 H   0  0  0  0  0  0  0  0  0  0  0  0
    6.6992    1.1285    7.3840 N   0  0  0  0  0  0  0  0  0  0  0  0
    4.3497    4.8005    8.4861 C   0  0  0  0  0  0  0  0  0  0  0  0
    3.7896    5.9598    9.0129 C   0  0  0  0  0  0  0  0  0  0  0  0
    3.4211    6.7165    8.3342 H   0  0  0  0  0  0  0  0  0  0  0  0
    3.7090    6.1543   10.3791 C   0  0  0  0  0  0  0  0  0  0  0  0
    3.2712    7.0608   10.7676 H   0  0  0  0  0  0  0  0  0  0  0  0
    4.1817    5.1808   11.2426 C   0  0  0  0  0  0  0  0  0  0  0  0
    4.1133    5.3205   12.3103 H   0  0  0  0  0  0  0  0  0  0  0  0
    4.7620    4.0320   10.7367 C   0  0  0  0  0  0  0  0  0  0  0  0
    5.1618    3.2729   11.3909 H   0  0  0  0  0  0  0  0  0  0  0  0
    4.8525    3.8333    9.3664 C   0  0  0  0  0  0  0  0  0  0  0  0
    3.4834    3.5614    6.6027 C   0  0  0  0  0  0  0  0  0  0  0  0
    3.5711    3.4826    5.5172 H   0  0  0  0  0  0  0  0  0  0  0  0
    2.4474    3.8139    6.8575 H   0  0  0  0  0  0  0  0  0  0  0  0
    3.7276    2.6015    7.0583 H   0  0  0  0  0  0  0  0  0  0  0  0
    6.0851    0.6611    6.1701 C   0  0  0  0  0  0  0  0  0  0  0  0
    5.7525    1.5418    5.6090 H   0  0  0  0  0  0  0  0  0  0  0  0
    5.2224    0.0224    6.3802 H   0  0  0  0  0  0  0  0  0  0  0  0
    6.8034    0.1046    5.5640 H   0  0  0  0  0  0  0  0  0  0  0  0
    7.6380    0.4033    8.0916 C   0  0  0  0  0  0  0  0  0  0  0  0
    7.9328   -0.9452    8.0364 C   0  0  0  0  0  0  0  0  0  0  0  0
    7.4060   -1.6000    7.3604 H   0  0  0  0  0  0  0  0  0  0  0  0
    8.9222   -1.4376    8.8789 C   0  0  0  0  0  0  0  0  0  0  0  0
    9.1641   -2.4892    8.8458 H   0  0  0  0  0  0  0  0  0  0  0  0
    9.5924   -0.6084    9.7583 C   0  0  0  0  0  0  0  0  0  0  0  0
   10.3522   -1.0134   10.4084 H   0  0  0  0  0  0  0  0  0  0  0  0
    9.3039    0.7531    9.8141 C   0  0  0  0  0  0  0  0  0  0  0  0
    9.8257    1.4139   10.4875 H   0  0  0  0  0  0  0  0  0  0  0  0
    8.3364    1.2392    8.9699 C   0  0  0  0  0  0  0  0  0  0  0  0
    9.1889    1.4520    4.7780 C   0  0  0  0  0  0  0  0  0  0  0  0
    8.5596    1.4599    3.8983 H   0  0  0  0  0  0  0  0  0  0  0  0
    9.8844    0.3067    5.1240 C   0  0  0  0  0  0  0  0  0  0  0  0
    9.7897   -0.5831    4.5179 H   0  0  0  0  0  0  0  0  0  0  0  0
   10.7041    0.2997    6.2395 C   0  0  0  0  0  0  0  0  0  0  0  0
   11.2460   -0.5944    6.5087 H   0  0  0  0  0  0  0  0  0  0  0  0
   10.8258    1.4431    7.0120 C   0  0  0  0  0  0  0  0  0  0  0  0
   11.4674    1.4407    7.8804 H   0  0  0  0  0  0  0  0  0  0  0  0
   10.1218    2.5842    6.6773 C   0  0  0  0  0  0  0  0  0  0  0  0
   10.2027    3.4734    7.2874 H   0  0  0  0  0  0  0  0  0  0  0  0
    9.3048    2.6019    5.5506 C   0  0  0  0  0  0  0  0  0  0  0  0
    9.4845    5.4229    5.5650 C   0  0  0  0  0  0  0  0  0  0  0  0
   10.8296    5.3598    5.2109 C   0  0  0  0  0  0  0  0  0  0  0  0
   11.2194    4.4726    4.7293 H   0  0  0  0  0  0  0  0  0  0  0  0
   11.6650    6.4245    5.4940 C   0  0  0  0  0  0  0  0  0  0  0  0
   12.7084    6.3778    5.2164 H   0  0  0  0  0  0  0  0  0  0  0  0
   11.1687    7.5501    6.1339 C   0  0  0  0  0  0  0  0  0  0  0  0
   11.8268    8.3792    6.3495 H   0  0  0  0  0  0  0  0  0  0  0  0
    9.8351    7.6091    6.5037 C   0  0  0  0  0  0  0  0  0  0  0  0
    9.4527    8.4826    7.0110 H   0  0  0  0  0  0  0  0  0  0  0  0
    8.9957    6.5462    6.2225 C   0  0  0  0  0  0  0  0  0  0  0  0
    7.9458    6.5692    6.5071 H   0  0  0  0  0  0  0  0  0  0  0  0
    8.1555    4.0532    3.4018 C   0  0  0  0  0  0  0  0  0  0  0  0
    9.0161    4.6941    2.5225 C   0  0  0  0  0  0  0  0  0  0  0  0
    9.8449    5.2760    2.8984 H   0  0  0  0  0  0  0  0  0  0  0  0
    8.7970    4.6080    1.1578 C   0  0  0  0  0  0  0  0  0  0  0  0
    9.4649    5.1153    0.4765 H   0  0  0  0  0  0  0  0  0  0  0  0
    7.7231    3.8879    0.6641 C   0  0  0  0  0  0  0  0  0  0  0  0
    7.5552    3.8294   -0.4013 H   0  0  0  0  0  0  0  0  0  0  0  0
    6.8514    3.2584    1.5387 C   0  0  0  0  0  0  0  0  0  0  0  0
    6.0007    2.7126    1.1568 H   0  0  0  0  0  0  0  0  0  0  0  0
    7.0650    3.3472    2.8998 C   0  0  0  0  0  0  0  0  0  0  0  0
    6.3687    2.8966    3.6014 H   0  0  0  0  0  0  0  0  0  0  0  0
  1  2  1  6  0  0  0
  1  7  1  0  0  0  0
  1  3  1  0  0  0  0
  3  5  1  1  0  0  0
  3  6  1  0  0  0  0
  4 48  1  0  0  0  0
  4 49  1  0  0  0  0
  4  1  1  0  0  0  0
  5 37  1  0  0  0  0
  6 19  1  0  0  0  0
  7 10  1  0  0  0  0
  8  7  1  0  0  0  0
  9  3  1  0  0  0  0
  9 28  1  0  0  0  0
 10 11  2  0  0  0  0
 10 19  1  0  0  0  0
 11 13  1  0  0  0  0
 12 11  1  0  0  0  0
 13 14  1  0  0  0  0
 13 15  2  0  0  0  0
 15 16  1  0  0  0  0
 17 15  1  0  0  0  0
 17 18  1  0  0  0  0
 19 17  2  0  0  0  0
 20 22  1  0  0  0  0
 20 23  1  0  0  0  0
 20  7  1  0  0  0  0
 21 20  1  0  0  0  0
 24 26  1  0  0  0  0
 24  9  1  0  0  0  0
 25 24  1  0  0  0  0
 27 24  1  0  0  0  0
 28 37  1  0  0  0  0
 29 28  2  0  0  0  0
 29 31  1  0  0  0  0
 30 29  1  0  0  0  0
 31 33  2  0  0  0  0
 32 31  1  0  0  0  0
 33 35  1  0  0  0  0
 33 34  1  0  0  0  0
 35 36  1  0  0  0  0
 37 35  2  0  0  0  0
 38 40  2  0  0  0  0
 38 48  1  0  0  0  0
 39 38  1  0  0  0  0
 40 42  1  0  0  0  0
 41 40  1  0  0  0  0
 42 43  1  0  0  0  0
 42 44  2  0  0  0  0
 44 45  1  0  0  0  0
 46 44  1  0  0  0  0
 46 47  1  0  0  0  0
 48 46  2  0  0  0  0
 49 58  1  0  0  0  0
 50 52  1  0  0  0  0
 50 49  2  0  0  0  0
 51 50  1  0  0  0  0
 52 54  2  0  0  0  0
 53 52  1  0  0  0  0
 54 55  1  0  0  0  0
 54 56  1  0  0  0  0
 56 57  1  0  0  0  0
 58 56  2  0  0  0  0
 58 59  1  0  0  0  0
 60  4  1  0  0  0  0
 61 62  1  0  0  0  0
 61 60  2  0  0  0  0
 63 61  1  0  0  0  0
 64 63  1  0  0  0  0
 65 63  2  0  0  0  0
 65 67  1  0  0  0  0
 66 65  1  0  0  0  0
 67 69  2  0  0  0  0
 68 67  1  0  0  0  0
 69 60  1  0  0  0  0
 69 70  1  0  0  0  0
M  END
$$$$
