CSD_code = SEBHEN | q = 0 | S = 0 | Stoichiometry = C25H19ClN2OPRh | MND = 4
 OpenBabel04212202093D

 50 54  0  0  0  0  0  0  0  0999 V2000
    1.1113    1.5341    2.6501 Rh  0  0  2  0  0  0  0  0  0  0  0  0
   -0.5846    2.6536    3.6314 Cl  0  0  0  0  0  0  0  0  0  0  0  0
    3.0222    0.5125    2.0612 P   0  0  0  0  0  4  0  0  0  0  0  0
   -0.7094   -0.5809    1.6130 O   0  0  0  0  0  1  0  0  0  0  0  0
    2.3566    2.9822    3.2435 N   0  0  0  0  0  0  0  0  0  0  0  0
    3.9176    0.4914    3.4752 N   0  0  0  0  0  0  0  0  0  0  0  0
    1.9891    4.1969    2.8254 C   0  0  0  0  0  3  0  0  0  0  0  0
    1.0176    4.2705    2.3474 H   0  0  0  0  0  0  0  0  0  0  0  0
    2.7717    5.3241    2.9982 C   0  0  0  0  0  0  0  0  0  0  0  0
    2.4245    6.2779    2.6347 H   0  0  0  0  0  0  0  0  0  0  0  0
    3.9916    5.2034    3.6458 C   0  0  0  0  0  0  0  0  0  0  0  0
    4.6301    6.0594    3.8000 H   0  0  0  0  0  0  0  0  0  0  0  0
    4.3713    3.9508    4.0940 C   0  0  0  0  0  0  0  0  0  0  0  0
    5.3171    3.8025    4.5922 H   0  0  0  0  0  0  0  0  0  0  0  0
    3.5361    2.8584    3.8766 C   0  0  0  0  0  0  0  0  0  0  0  0
    4.0301    1.5109    4.2454 C   0  0  0  0  0  0  0  0  0  0  0  0
    4.7224    1.3477    5.5234 C   0  0  0  0  0  0  0  0  0  0  0  0
    4.4225    2.1641    6.6154 C   0  0  0  0  0  0  0  0  0  0  0  0
    3.6697    2.9332    6.5226 H   0  0  0  0  0  0  0  0  0  0  0  0
    5.0587    1.9650    7.8260 C   0  0  0  0  0  0  0  0  0  0  0  0
    4.8154    2.5953    8.6682 H   0  0  0  0  0  0  0  0  0  0  0  0
    6.0011    0.9583    7.9627 C   0  0  0  0  0  0  0  0  0  0  0  0
    6.4989    0.8100    8.9093 H   0  0  0  0  0  0  0  0  0  0  0  0
    6.2982    0.1371    6.8854 C   0  0  0  0  0  0  0  0  0  0  0  0
    7.0277   -0.6517    6.9930 H   0  0  0  0  0  0  0  0  0  0  0  0
    5.6605    0.3247    5.6758 C   0  0  0  0  0  0  0  0  0  0  0  0
    5.8802   -0.3060    4.8281 H   0  0  0  0  0  0  0  0  0  0  0  0
    3.2614   -1.2009    1.5250 C   0  0  0  0  0  0  0  0  0  0  0  0
    3.0495   -1.5147    0.1865 C   0  0  0  0  0  0  0  0  0  0  0  0
    2.7950   -0.7248   -0.5089 H   0  0  0  0  0  0  0  0  0  0  0  0
    3.1668   -2.8230   -0.2425 C   0  0  0  0  0  0  0  0  0  0  0  0
    3.0069   -3.0675   -1.2825 H   0  0  0  0  0  0  0  0  0  0  0  0
    3.4841   -3.8223    0.6646 C   0  0  0  0  0  0  0  0  0  0  0  0
    3.5733   -4.8450    0.3287 H   0  0  0  0  0  0  0  0  0  0  0  0
    3.6777   -3.5136    2.0012 C   0  0  0  0  0  0  0  0  0  0  0  0
    3.9154   -4.2967    2.7066 H   0  0  0  0  0  0  0  0  0  0  0  0
    3.5606   -2.2055    2.4358 C   0  0  0  0  0  0  0  0  0  0  0  0
    3.7006   -1.9477    3.4755 H   0  0  0  0  0  0  0  0  0  0  0  0
    4.0952    1.4323    0.9003 C   0  0  0  0  0  0  0  0  0  0  0  0
    3.5388    2.4689    0.1627 C   0  0  0  0  0  0  0  0  0  0  0  0
    2.4742    2.6711    0.2609 H   0  0  0  0  0  0  0  0  0  0  0  0
    4.3341    3.2146   -0.6887 C   0  0  0  0  0  0  0  0  0  0  0  0
    3.9036    4.0192   -1.2666 H   0  0  0  0  0  0  0  0  0  0  0  0
    5.6847    2.9252   -0.7986 C   0  0  0  0  0  0  0  0  0  0  0  0
    6.3075    3.5077   -1.4615 H   0  0  0  0  0  0  0  0  0  0  0  0
    6.2402    1.8886   -0.0640 C   0  0  0  0  0  0  0  0  0  0  0  0
    7.2930    1.6652   -0.1573 H   0  0  0  0  0  0  0  0  0  0  0  0
    5.4483    1.1395    0.7866 C   0  0  0  0  0  0  0  0  0  0  0  0
    5.8652    0.3265    1.3650 H   0  0  0  0  0  0  0  0  0  0  0  0
   -0.0289    0.2436    2.0238 C   0  0  0  0  0  2  0  0  0  0  0  0
  1  5  1  0  0  0  0
  1  2  1  1  0  0  0
  3  1  1  0  0  0  0
  3  6  1  0  0  0  0
  4 50  1  0  0  0  0
  5 15  1  0  0  0  0
  6 16  2  0  0  0  0
  7  9  1  0  0  0  0
  7  5  1  0  0  0  0
  8  7  1  0  0  0  0
  9 11  2  0  0  0  0
 10  9  1  0  0  0  0
 11 12  1  0  0  0  0
 11 13  1  0  0  0  0
 13 14  1  0  0  0  0
 15 13  2  0  0  0  0
 15 16  1  0  0  0  0
 16 17  1  0  0  0  0
 17 26  2  0  0  0  0
 17 18  1  0  0  0  0
 18 20  2  0  0  0  0
 19 18  1  0  0  0  0
 20 22  1  0  0  0  0
 20 21  1  0  0  0  0
 22 23  1  0  0  0  0
 24 25  1  0  0  0  0
 24 22  2  0  0  0  0
 26 24  1  0  0  0  0
 27 26  1  0  0  0  0
 28  3  1  0  0  0  0
 28 37  1  0  0  0  0
 29 28  2  0  0  0  0
 30 29  1  0  0  0  0
 31 29  1  0  0  0  0
 31 33  2  0  0  0  0
 32 31  1  0  0  0  0
 33 35  1  0  0  0  0
 34 33  1  0  0  0  0
 35 37  2  0  0  0  0
 35 36  1  0  0  0  0
 37 38  1  0  0  0  0
 39  3  1  0  0  0  0
 40 41  1  0  0  0  0
 40 39  2  0  0  0  0
 42 40  1  0  0  0  0
 43 42  1  0  0  0  0
 44 42  2  0  0  0  0
 44 46  1  0  0  0  0
 45 44  1  0  0  0  0
 46 48  2  0  0  0  0
 47 46  1  0  0  0  0
 48 39  1  0  0  0  0
 48 49  1  0  0  0  0
 50  1  1  0  0  0  0
M  END
$$$$
