CSD_code = SEBHOX | q = 0 | S = 0 | Stoichiometry = C24H19Cl2N2PPt | MND = 4
 OpenBabel04212202093D

 49 53  0  0  0  0  0  0  0  0999 V2000
    7.3021    7.6433    2.5063 Pt  0  0  0  0  0  0  0  0  0  0  0  0
    6.0401    5.9582    1.7737 Cl  0  0  0  0  0  0  0  0  0  0  0  0
    5.4831    8.8169    3.2385 Cl  0  0  0  0  0  0  0  0  0  0  0  0
    9.2031    6.5326    1.9407 P   0  0  0  0  0  4  0  0  0  0  0  0
    8.5282    9.1517    3.0666 N   0  0  0  0  0  0  0  0  0  0  0  0
   10.1373    6.6235    3.3075 N   0  0  0  0  0  0  0  0  0  0  0  0
    8.1426   10.3795    2.6988 C   0  0  0  0  0  3  0  0  0  0  0  0
    7.1626   10.4535    2.2450 H   0  0  0  0  0  0  0  0  0  0  0  0
    8.9158   11.5042    2.8983 C   0  0  0  0  0  0  0  0  0  0  0  0
    8.5519   12.4668    2.5782 H   0  0  0  0  0  0  0  0  0  0  0  0
   10.1556   11.3691    3.5101 C   0  0  0  0  0  0  0  0  0  0  0  0
   10.7951   12.2225    3.6717 H   0  0  0  0  0  0  0  0  0  0  0  0
   10.5487   10.1076    3.9116 C   0  0  0  0  0  0  0  0  0  0  0  0
   11.5061    9.9515    4.3842 H   0  0  0  0  0  0  0  0  0  0  0  0
    9.7188    9.0089    3.6824 C   0  0  0  0  0  0  0  0  0  0  0  0
   10.2421    7.6750    4.0442 C   0  0  0  0  0  0  0  0  0  0  0  0
   10.9830    7.5467    5.3000 C   0  0  0  0  0  0  0  0  0  0  0  0
   10.6817    8.3506    6.4016 C   0  0  0  0  0  0  0  0  0  0  0  0
    9.8982    9.0904    6.3298 H   0  0  0  0  0  0  0  0  0  0  0  0
   11.3567    8.1759    7.5947 C   0  0  0  0  0  0  0  0  0  0  0  0
   11.1119    8.7967    8.4434 H   0  0  0  0  0  0  0  0  0  0  0  0
   12.3389    7.2046    7.7066 C   0  0  0  0  0  0  0  0  0  0  0  0
   12.8659    7.0748    8.6398 H   0  0  0  0  0  0  0  0  0  0  0  0
   12.6370    6.3947    6.6213 C   0  0  0  0  0  0  0  0  0  0  0  0
   13.3972    5.6330    6.7090 H   0  0  0  0  0  0  0  0  0  0  0  0
   11.9617    6.5587    5.4287 C   0  0  0  0  0  0  0  0  0  0  0  0
   12.1835    5.9366    4.5754 H   0  0  0  0  0  0  0  0  0  0  0  0
   10.1363    7.4252    0.6539 C   0  0  0  0  0  0  0  0  0  0  0  0
    9.4997    8.4239   -0.0710 C   0  0  0  0  0  0  0  0  0  0  0  0
    8.4469    8.6230    0.1149 H   0  0  0  0  0  0  0  0  0  0  0  0
   10.2026    9.1334   -1.0284 C   0  0  0  0  0  0  0  0  0  0  0  0
    9.7100    9.9086   -1.5968 H   0  0  0  0  0  0  0  0  0  0  0  0
   11.5387    8.8454   -1.2572 C   0  0  0  0  0  0  0  0  0  0  0  0
   12.0881    9.3998   -2.0036 H   0  0  0  0  0  0  0  0  0  0  0  0
   12.1730    7.8461   -0.5349 C   0  0  0  0  0  0  0  0  0  0  0  0
   13.2133    7.6232   -0.7206 H   0  0  0  0  0  0  0  0  0  0  0  0
   11.4745    7.1327    0.4219 C   0  0  0  0  0  0  0  0  0  0  0  0
   11.9529    6.3481    0.9919 H   0  0  0  0  0  0  0  0  0  0  0  0
    9.3770    4.7951    1.4928 C   0  0  0  0  0  0  0  0  0  0  0  0
    9.0038    4.4037    0.2110 C   0  0  0  0  0  0  0  0  0  0  0  0
    8.6555    5.1490   -0.4918 H   0  0  0  0  0  0  0  0  0  0  0  0
    9.0732    3.0707   -0.1454 C   0  0  0  0  0  0  0  0  0  0  0  0
    8.7836    2.7613   -1.1388 H   0  0  0  0  0  0  0  0  0  0  0  0
    9.5056    2.1294    0.7765 C   0  0  0  0  0  0  0  0  0  0  0  0
    9.5551    1.0872    0.4974 H   0  0  0  0  0  0  0  0  0  0  0  0
    9.8636    2.5190    2.0571 C   0  0  0  0  0  0  0  0  0  0  0  0
   10.1899    1.7802    2.7747 H   0  0  0  0  0  0  0  0  0  0  0  0
    9.7931    3.8512    2.4227 C   0  0  0  0  0  0  0  0  0  0  0  0
   10.0555    4.1729    3.4199 H   0  0  0  0  0  0  0  0  0  0  0  0
  1  5  1  0  0  0  0
  1  3  1  0  0  0  0
  2  1  1  0  0  0  0
  4  1  1  0  0  0  0
  4  6  1  0  0  0  0
  5 15  1  0  0  0  0
  6 16  2  0  0  0  0
  7  9  1  0  0  0  0
  7  5  1  0  0  0  0
  8  7  1  0  0  0  0
  9 11  2  0  0  0  0
 10  9  1  0  0  0  0
 11 12  1  0  0  0  0
 11 13  1  0  0  0  0
 13 14  1  0  0  0  0
 15 13  2  0  0  0  0
 15 16  1  0  0  0  0
 16 17  1  0  0  0  0
 17 26  2  0  0  0  0
 17 18  1  0  0  0  0
 18 20  2  0  0  0  0
 19 18  1  0  0  0  0
 20 22  1  0  0  0  0
 20 21  1  0  0  0  0
 22 23  1  0  0  0  0
 24 25  1  0  0  0  0
 24 22  2  0  0  0  0
 26 24  1  0  0  0  0
 27 26  1  0  0  0  0
 28  4  1  0  0  0  0
 29 30  1  0  0  0  0
 29 28  2  0  0  0  0
 31 29  1  0  0  0  0
 32 31  1  0  0  0  0
 33 31  2  0  0  0  0
 33 35  1  0  0  0  0
 34 33  1  0  0  0  0
 35 37  2  0  0  0  0
 36 35  1  0  0  0  0
 37 28  1  0  0  0  0
 37 38  1  0  0  0  0
 39  4  1  0  0  0  0
 39 48  1  0  0  0  0
 40 39  2  0  0  0  0
 41 40  1  0  0  0  0
 42 40  1  0  0  0  0
 42 44  2  0  0  0  0
 43 42  1  0  0  0  0
 44 46  1  0  0  0  0
 45 44  1  0  0  0  0
 46 48  2  0  0  0  0
 46 47  1  0  0  0  0
 48 49  1  0  0  0  0
M  END
$$$$
