CSD_code = SEBHIR | q = 0 | S = 0 | Stoichiometry = C24H19Cl2N2PPd | MND = 4
 OpenBabel04212202093D

 49 53  0  0  0  0  0  0  0  0999 V2000
    9.3314   10.3424    8.8205 Pd  0  0  0  0  0  0  0  0  0  0  0  0
    8.7283   10.2830    6.6372 Cl  0  0  0  0  0  0  0  0  0  0  0  0
    7.3530   11.0794    9.4575 Cl  0  0  0  0  0  0  0  0  0  0  0  0
   10.0469   10.2754   10.9467 P   0  0  0  0  0  4  0  0  0  0  0  0
   11.2476    9.7695    8.3458 N   0  0  0  0  0  0  0  0  0  0  0  0
   10.7786    8.8027   11.1302 N   0  0  0  0  0  0  0  0  0  0  0  0
   11.7757   10.4392    7.3174 C   0  0  0  0  0  3  0  0  0  0  0  0
   11.0988   11.0918    6.7737 H   0  0  0  0  0  0  0  0  0  0  0  0
   13.0941   10.2997    6.9276 C   0  0  0  0  0  0  0  0  0  0  0  0
   13.4676   10.8648    6.0893 H   0  0  0  0  0  0  0  0  0  0  0  0
   13.9137    9.4266    7.6300 C   0  0  0  0  0  0  0  0  0  0  0  0
   14.9503    9.2958    7.3605 H   0  0  0  0  0  0  0  0  0  0  0  0
   13.3682    8.7252    8.6876 C   0  0  0  0  0  0  0  0  0  0  0  0
   13.9697    8.0457    9.2713 H   0  0  0  0  0  0  0  0  0  0  0  0
   12.0281    8.9156    9.0302 C   0  0  0  0  0  0  0  0  0  0  0  0
   11.5223    8.2365   10.2424 C   0  0  0  0  0  0  0  0  0  0  0  0
   11.9376    6.8549   10.4828 C   0  0  0  0  0  0  0  0  0  0  0  0
   12.0099    6.3687   11.7902 C   0  0  0  0  0  0  0  0  0  0  0  0
   11.8000    7.0436   12.6056 H   0  0  0  0  0  0  0  0  0  0  0  0
   12.3566    5.0541   12.0286 C   0  0  0  0  0  0  0  0  0  0  0  0
   12.4170    4.6889   13.0429 H   0  0  0  0  0  0  0  0  0  0  0  0
   12.6243    4.2018   10.9681 C   0  0  0  0  0  0  0  0  0  0  0  0
   12.8924    3.1728   11.1550 H   0  0  0  0  0  0  0  0  0  0  0  0
   12.5389    4.6700    9.6665 C   0  0  0  0  0  0  0  0  0  0  0  0
   12.7316    4.0039    8.8389 H   0  0  0  0  0  0  0  0  0  0  0  0
   12.2007    5.9869    9.4205 C   0  0  0  0  0  0  0  0  0  0  0  0
   12.1089    6.3383    8.4032 H   0  0  0  0  0  0  0  0  0  0  0  0
    9.1648   10.4517   12.5110 C   0  0  0  0  0  0  0  0  0  0  0  0
    8.8954    9.3530   13.3165 C   0  0  0  0  0  0  0  0  0  0  0  0
    9.2568    8.3793   13.0198 H   0  0  0  0  0  0  0  0  0  0  0  0
    8.1675    9.5230   14.4803 C   0  0  0  0  0  0  0  0  0  0  0  0
    7.9569    8.6729   15.1128 H   0  0  0  0  0  0  0  0  0  0  0  0
    7.6988   10.7790   14.8303 C   0  0  0  0  0  0  0  0  0  0  0  0
    7.1253   10.9060   15.7367 H   0  0  0  0  0  0  0  0  0  0  0  0
    7.9516   11.8716   14.0149 C   0  0  0  0  0  0  0  0  0  0  0  0
    7.5728   12.8462   14.2843 H   0  0  0  0  0  0  0  0  0  0  0  0
    8.6797   11.7104   12.8517 C   0  0  0  0  0  0  0  0  0  0  0  0
    8.8701   12.5490   12.1946 H   0  0  0  0  0  0  0  0  0  0  0  0
   11.3604   11.5466   11.0279 C   0  0  0  0  0  0  0  0  0  0  0  0
   12.3687   11.4903   11.9811 C   0  0  0  0  0  0  0  0  0  0  0  0
   12.3617   10.6967   12.7153 H   0  0  0  0  0  0  0  0  0  0  0  0
   13.3675   12.4478   11.9771 C   0  0  0  0  0  0  0  0  0  0  0  0
   14.1554   12.4072   12.7148 H   0  0  0  0  0  0  0  0  0  0  0  0
   13.3569   13.4592   11.0295 C   0  0  0  0  0  0  0  0  0  0  0  0
   14.1383   14.2044   11.0303 H   0  0  0  0  0  0  0  0  0  0  0  0
   12.3461   13.5209   10.0826 C   0  0  0  0  0  0  0  0  0  0  0  0
   12.3377   14.3148    9.3508 H   0  0  0  0  0  0  0  0  0  0  0  0
   11.3477   12.5632   10.0774 C   0  0  0  0  0  0  0  0  0  0  0  0
   10.5348   12.6020    9.3400 H   0  0  0  0  0  0  0  0  0  0  0  0
  1  3  1  0  0  0  0
  1  4  1  0  0  0  0
  2  1  1  0  0  0  0
  4 39  1  0  0  0  0
  4  6  1  0  0  0  0
  4 28  1  0  0  0  0
  5  1  1  0  0  0  0
  5 15  1  0  0  0  0
  7  5  1  0  0  0  0
  8  7  1  0  0  0  0
  9  7  1  0  0  0  0
  9 11  2  0  0  0  0
 10  9  1  0  0  0  0
 11 13  1  0  0  0  0
 12 11  1  0  0  0  0
 13 15  2  0  0  0  0
 13 14  1  0  0  0  0
 15 16  1  0  0  0  0
 16 17  1  0  0  0  0
 16  6  2  0  0  0  0
 17 18  1  0  0  0  0
 18 20  2  0  0  0  0
 18 19  1  0  0  0  0
 20 21  1  0  0  0  0
 22 23  1  0  0  0  0
 22 20  1  0  0  0  0
 24 22  2  0  0  0  0
 25 24  1  0  0  0  0
 26 24  1  0  0  0  0
 26 17  2  0  0  0  0
 27 26  1  0  0  0  0
 28 37  2  0  0  0  0
 28 29  1  0  0  0  0
 29 31  2  0  0  0  0
 30 29  1  0  0  0  0
 31 33  1  0  0  0  0
 31 32  1  0  0  0  0
 33 34  1  0  0  0  0
 35 36  1  0  0  0  0
 35 33  2  0  0  0  0
 37 35  1  0  0  0  0
 38 37  1  0  0  0  0
 39 40  1  0  0  0  0
 40 41  1  0  0  0  0
 42 40  2  0  0  0  0
 42 43  1  0  0  0  0
 44 45  1  0  0  0  0
 44 42  1  0  0  0  0
 46 44  2  0  0  0  0
 47 46  1  0  0  0  0
 48 46  1  0  0  0  0
 48 39  2  0  0  0  0
 49 48  1  0  0  0  0
M  END
$$$$
