CSD_code = SECSOJ | q = 1 | S = 0 | Stoichiometry = C27H24ClIrN3O3(1+) | MND = 6
 OpenBabel04212202093D

 59 65  0  0  1  0  0  0  0  0999 V2000
   10.5553   14.7224   13.6089 C   0  0  0  0  0  0  0  0  0  0  0  0
    9.6262   15.2873   13.5627 H   0  0  0  0  0  0  0  0  0  0  0  0
   11.3087   15.2976   14.1480 H   0  0  0  0  0  0  0  0  0  0  0  0
   11.0234   14.3974   12.2570 C   0  0  0  0  0  0  0  0  0  0  0  0
   10.2586   14.1093   11.5471 H   0  0  0  0  0  0  0  0  0  0  0  0
   12.2928   14.4557   11.8628 C   0  0  0  0  0  0  0  0  0  0  0  0
   13.0799   14.7616   12.5335 H   0  0  0  0  0  0  0  0  0  0  0  0
   12.5856   14.2380   10.8506 H   0  0  0  0  0  0  0  0  0  0  0  0
    9.2147   12.1358   13.3897 C   0  0  0  0  0  2  0  0  0  0  0  0
   11.9967   10.1883   13.2923 C   0  0  0  0  0  0  0  0  0  0  0  0
   11.3437    9.9204   12.0966 C   0  0  0  0  0  0  0  0  0  0  0  0
   11.4182   10.6202   11.2771 H   0  0  0  0  0  0  0  0  0  0  0  0
   10.6054    8.7588   11.9546 C   0  0  0  0  0  0  0  0  0  0  0  0
   10.1040    8.5535   11.0216 H   0  0  0  0  0  0  0  0  0  0  0  0
   10.5081    7.8654   13.0082 C   0  0  0  0  0  0  0  0  0  0  0  0
    9.9273    6.9627   12.8989 H   0  0  0  0  0  0  0  0  0  0  0  0
   11.1546    8.1313   14.2034 C   0  0  0  0  0  0  0  0  0  0  0  0
   11.0756    7.4411   15.0288 H   0  0  0  0  0  0  0  0  0  0  0  0
   11.8959    9.2898   14.3480 C   0  0  0  0  0  0  0  0  0  0  0  0
   12.3830    9.4950   15.2903 H   0  0  0  0  0  0  0  0  0  0  0  0
   12.7609   11.4819   13.4603 C   0  0  2  0  0  0  0  0  0  0  0  0
   12.7859   12.0193   12.5047 H   0  0  0  0  0  0  0  0  0  0  0  0
   14.1686   11.3479   14.0916 C   0  0  0  0  0  0  0  0  0  0  0  0
   14.4387   10.3102   14.3008 H   0  0  0  0  0  0  0  0  0  0  0  0
   14.9517   11.8123   13.4893 H   0  0  0  0  0  0  0  0  0  0  0  0
   12.8674   12.5432   15.4302 C   0  0  0  0  0  0  0  0  0  0  0  0
   12.3567   13.2854   16.5736 C   0  0  0  0  0  0  0  0  0  0  0  0
   12.9953   13.5630   17.7773 C   0  0  0  0  0  0  0  0  0  0  0  0
   14.0221   13.2691   17.9236 H   0  0  0  0  0  0  0  0  0  0  0  0
   12.2673   14.2017   18.7740 C   0  0  0  0  0  0  0  0  0  0  0  0
   12.7352   14.4299   19.7187 H   0  0  0  0  0  0  0  0  0  0  0  0
   10.9280   14.5151   18.5717 C   0  0  0  0  0  0  0  0  0  0  0  0
   10.3287   14.9701   19.3436 H   0  0  0  0  0  0  0  0  0  0  0  0
   10.3603   14.2041   17.3415 C   0  0  0  0  0  0  0  0  0  0  0  0
    8.9653   14.3171   16.9399 C   0  0  1  0  0  3  0  0  0  0  0  0
    6.7775   14.6667   16.9776 C   0  0  0  0  0  0  0  0  0  0  0  0
    6.3183   15.6507   16.8582 H   0  0  0  0  0  0  0  0  0  0  0  0
    6.1214   14.0306   17.5747 H   0  0  0  0  0  0  0  0  0  0  0  0
    7.1744   14.0206   15.6265 C   0  0  1  0  0  0  0  0  0  0  0  0
    6.7162   13.0344   15.4973 H   0  0  0  0  0  0  0  0  0  0  0  0
    6.9012   14.8656   14.4032 C   0  0  0  0  0  0  0  0  0  0  0  0
    7.2959   16.1987   14.3695 C   0  0  0  0  0  0  0  0  0  0  0  0
    7.7806   16.6456   15.2266 H   0  0  0  0  0  0  0  0  0  0  0  0
    7.0720   16.9626   13.2377 C   0  0  0  0  0  0  0  0  0  0  0  0
    7.3757   17.9979   13.2213 H   0  0  0  0  0  0  0  0  0  0  0  0
    6.4607   16.3987   12.1302 C   0  0  0  0  0  0  0  0  0  0  0  0
    6.2847   16.9963   11.2496 H   0  0  0  0  0  0  0  0  0  0  0  0
    6.0749   15.0692   12.1562 C   0  0  0  0  0  0  0  0  0  0  0  0
    5.5969   14.6273   11.2960 H   0  0  0  0  0  0  0  0  0  0  0  0
    6.2972   14.3028   13.2874 C   0  0  0  0  0  0  0  0  0  0  0  0
    5.9920   13.2675   13.3072 H   0  0  0  0  0  0  0  0  0  0  0  0
    9.8012   11.0323   16.2703 Cl  0  0  0  0  0  0  0  0  0  0  0  0
   10.1619   12.9553   14.7952 Ir  0  0  0  0  0  0  0  0  0  0  0  0
   12.0698   12.3133   14.4353 N   0  0  0  0  0  0  0  0  0  0  0  0
   11.0802   13.6334   16.3679 N   0  0  0  0  0  0  0  0  0  0  0  0
    8.6136   13.8461   15.7853 N   0  0  2  0  0  0  0  0  0  0  0  0
   14.0875   12.0559   15.3402 O   0  0  0  0  0  0  0  0  0  0  0  0
    8.0139   14.8270   17.6918 O   0  0  0  0  0  0  0  0  0  0  0  0
    8.6016   11.5651   12.6238 O   0  0  0  0  0  1  0  0  0  0  0  0
  1  3  1  0  0  0  0
  1 53  1  0  0  0  0
  2  1  1  0  0  0  0
  4  1  1  0  0  0  0
  5  4  1  0  0  0  0
  6  4  2  0  0  0  0
  6  7  1  0  0  0  0
  8  6  1  0  0  0  0
  9 53  1  0  0  0  0
 10 21  1  0  0  0  0
 10 19  1  0  0  0  0
 11 10  2  0  0  0  0
 12 11  1  0  0  0  0
 13 11  1  0  0  0  0
 13 15  2  0  0  0  0
 14 13  1  0  0  0  0
 15 17  1  0  0  0  0
 16 15  1  0  0  0  0
 17 19  2  0  0  0  0
 17 18  1  0  0  0  0
 19 20  1  0  0  0  0
 21 22  1  6  0  0  0
 21 23  1  0  0  0  0
 21 54  1  0  0  0  0
 23 24  1  0  0  0  0
 23 57  1  0  0  0  0
 25 23  1  0  0  0  0
 26 27  2  0  0  0  0
 27 28  1  0  0  0  0
 28 29  1  0  0  0  0
 28 30  2  0  0  0  0
 30 31  1  0  0  0  0
 32 30  1  0  0  0  0
 32 33  1  0  0  0  0
 34 32  2  0  0  0  0
 35 34  1  1  0  0  0
 35 58  1  0  0  0  0
 36 38  1  0  0  0  0
 36 58  1  0  0  0  0
 37 36  1  0  0  0  0
 39 40  1  6  0  0  0
 39 56  1  0  0  0  0
 39 36  1  0  0  0  0
 41 39  1  0  0  0  0
 42 41  1  0  0  0  0
 42 43  1  0  0  0  0
 44 42  2  0  0  0  0
 45 44  1  0  0  0  0
 46 48  2  0  0  0  0
 46 44  1  0  0  0  0
 47 46  1  0  0  0  0
 48 50  1  0  0  0  0
 49 48  1  0  0  0  0
 50 51  1  0  0  0  0
 50 41  2  0  0  0  0
 53 56  1  0  0  0  0
 53 52  1  0  0  0  0
 53 55  1  0  0  0  0
 54 53  1  0  0  0  0
 54 26  1  0  0  0  0
 55 27  1  0  0  0  0
 55 34  1  0  0  0  0
 56 35  1  0  0  0  0
 57 26  1  0  0  0  0
 59  9  1  0  0  0  0
M  END
$$$$
