CSD_code = SECTEA | q = 0 | S = 0 | Stoichiometry = C20H21Cl2OPPtS2 | MND = 4
 OpenBabel04212202093D

 48 50  0  0  0  0  0  0  0  0999 V2000
    6.3532    2.8402    2.6398 Pt  0  0  0  0  0  0  0  0  0  0  0  0
    7.5225    1.5036    1.2094 Cl  0  0  0  0  0  0  0  0  0  0  0  0
    6.5000    4.5895    1.2155 Cl  0  0  0  0  0  0  0  0  0  0  0  0
    5.2391    4.1583    4.3321 S   0  0  0  0  0  0  0  0  0  0  0  0
    6.2715    1.0758    4.0784 S   0  0  0  0  0  0  0  0  0  0  0  0
    3.5257    3.7507    3.4024 P   0  0  0  0  0  4  0  0  0  0  0  0
    5.1369    1.0421    4.9970 O   0  0  0  0  0  1  0  0  0  0  0  0
    3.4100    2.1431    2.5380 C   0  0  0  0  0  0  0  0  0  0  0  0
    3.9485    2.0514    1.2511 C   0  0  0  0  0  0  0  0  0  0  0  0
    3.9461    0.8316    0.5969 C   0  0  0  0  0  0  0  0  0  0  0  0
    3.4094   -0.2877    1.2164 C   0  0  0  0  0  0  0  0  0  0  0  0
    2.8532   -0.1856    2.4809 C   0  0  0  0  0  0  0  0  0  0  0  0
    2.8528    1.0287    3.1485 C   0  0  0  0  0  0  0  0  0  0  0  0
    2.2195    3.7591    4.6628 C   0  0  0  0  0  0  0  0  0  0  0  0
    2.4577    3.0422    5.8326 C   0  0  0  0  0  0  0  0  0  0  0  0
    1.4982    3.0196    6.8278 C   0  0  0  0  0  0  0  0  0  0  0  0
    0.3112    3.7167    6.6631 C   0  0  0  0  0  0  0  0  0  0  0  0
    0.0811    4.4371    5.5025 C   0  0  0  0  0  0  0  0  0  0  0  0
    1.0327    4.4606    4.4977 C   0  0  0  0  0  0  0  0  0  0  0  0
    3.0920    4.9906    2.1485 C   0  0  0  0  0  0  0  0  0  0  0  0
    3.7698    6.2013    2.1221 C   0  0  0  0  0  0  0  0  0  0  0  0
    3.4379    7.1485    1.1701 C   0  0  0  0  0  0  0  0  0  0  0  0
    2.4319    6.8882    0.2547 C   0  0  0  0  0  0  0  0  0  0  0  0
    1.7504    5.6808    0.2879 C   0  0  0  0  0  0  0  0  0  0  0  0
    2.0776    4.7269    1.2329 C   0  0  0  0  0  0  0  0  0  0  0  0
    6.4663   -0.6178    3.4450 C   0  0  0  0  0  0  0  0  0  0  0  0
    7.7820    1.1484    5.0877 C   0  0  0  0  0  0  0  0  0  0  0  0
    4.3183    2.9378    0.7467 H   0  0  0  0  0  0  0  0  0  0  0  0
    4.3698    0.7571   -0.3922 H   0  0  0  0  0  0  0  0  0  0  0  0
    3.4183   -1.2399    0.7065 H   0  0  0  0  0  0  0  0  0  0  0  0
    2.4225   -1.0542    2.9569 H   0  0  0  0  0  0  0  0  0  0  0  0
    2.4290    1.1053    4.1382 H   0  0  0  0  0  0  0  0  0  0  0  0
    3.3925    2.5095    5.9502 H   0  0  0  0  0  0  0  0  0  0  0  0
    1.6775    2.4613    7.7343 H   0  0  0  0  0  0  0  0  0  0  0  0
   -0.4348    3.7025    7.4436 H   0  0  0  0  0  0  0  0  0  0  0  0
   -0.8411    4.9853    5.3794 H   0  0  0  0  0  0  0  0  0  0  0  0
    0.8588    5.0257    3.5931 H   0  0  0  0  0  0  0  0  0  0  0  0
    4.5660    6.3822    2.8297 H   0  0  0  0  0  0  0  0  0  0  0  0
    3.9725    8.0851    1.1374 H   0  0  0  0  0  0  0  0  0  0  0  0
    2.1795    7.6248   -0.4933 H   0  0  0  0  0  0  0  0  0  0  0  0
    0.9682    5.4798   -0.4290 H   0  0  0  0  0  0  0  0  0  0  0  0
    1.5590    3.7776    1.2601 H   0  0  0  0  0  0  0  0  0  0  0  0
    6.5886   -1.2849    4.2899 H   0  0  0  0  0  0  0  0  0  0  0  0
    5.5649   -0.8639    2.8945 H   0  0  0  0  0  0  0  0  0  0  0  0
    7.3225   -0.6289    2.7817 H   0  0  0  0  0  0  0  0  0  0  0  0
    7.7844    0.3348    5.8037 H   0  0  0  0  0  0  0  0  0  0  0  0
    8.6240    1.0846    4.4071 H   0  0  0  0  0  0  0  0  0  0  0  0
    7.7849    2.1033    5.6047 H   0  0  0  0  0  0  0  0  0  0  0  0
  1  5  1  0  0  0  0
  1  4  1  0  0  0  0
  2  1  1  0  0  0  0
  3  1  1  0  0  0  0
  5  7  1  0  0  0  0
  5 27  1  0  0  0  0
  6  4  1  0  0  0  0
  6 14  1  0  0  0  0
  8 13  1  0  0  0  0
  8  6  1  0  0  0  0
  9  8  2  0  0  0  0
 10 11  2  0  0  0  0
 10  9  1  0  0  0  0
 11 12  1  0  0  0  0
 12 31  1  0  0  0  0
 12 13  2  0  0  0  0
 13 32  1  0  0  0  0
 14 15  1  0  0  0  0
 15 33  1  0  0  0  0
 15 16  2  0  0  0  0
 16 34  1  0  0  0  0
 17 16  1  0  0  0  0
 17 35  1  0  0  0  0
 18 17  2  0  0  0  0
 19 14  2  0  0  0  0
 19 18  1  0  0  0  0
 20  6  1  0  0  0  0
 21 20  1  0  0  0  0
 21 38  1  0  0  0  0
 22 21  2  0  0  0  0
 23 24  2  0  0  0  0
 23 22  1  0  0  0  0
 24 25  1  0  0  0  0
 25 42  1  0  0  0  0
 25 20  2  0  0  0  0
 26  5  1  0  0  0  0
 26 43  1  0  0  0  0
 27 48  1  0  0  0  0
 27 46  1  0  0  0  0
 28  9  1  0  0  0  0
 29 10  1  0  0  0  0
 30 11  1  0  0  0  0
 36 18  1  0  0  0  0
 37 19  1  0  0  0  0
 39 22  1  0  0  0  0
 40 23  1  0  0  0  0
 41 24  1  0  0  0  0
 44 26  1  0  0  0  0
 45 26  1  0  0  0  0
 47 27  1  0  0  0  0
M  END
$$$$
