CSD_code = SEDCIO | q = 0 | S = 0 | Stoichiometry = C21H15ClN2Pd | MND = 4
 OpenBabel04212202093D

 40 45  0  0  1  0  0  0  0  0999 V2000
    9.0289    5.0845    3.9095 Pd  0  0  1  0  0  0  0  0  0  0  0  0
    8.1755    6.8187    2.8302 Cl  0  0  0  0  0  0  0  0  0  0  0  0
    9.9164    3.4788    4.8053 N   0  0  0  0  0  0  0  0  0  0  0  0
    7.0884    3.3398    4.9107 N   0  0  0  0  0  0  0  0  0  0  0  0
   11.2421    3.4602    4.6332 C   0  0  0  0  0  0  0  0  0  0  0  0
   12.0564    2.5737    5.3701 C   0  0  0  0  0  0  0  0  0  0  0  0
   11.4861    1.6710    6.2179 C   0  0  0  0  0  0  0  0  0  0  0  0
   10.0792    1.5965    6.3174 C   0  0  0  0  0  0  0  0  0  0  0  0
    9.4355    0.5959    7.0674 C   0  0  0  0  0  0  0  0  0  0  0  0
    8.0702    0.5057    7.0688 C   0  0  0  0  0  0  0  0  0  0  0  0
    7.3074    1.4320    6.3552 C   0  0  0  0  0  0  0  0  0  0  0  0
    7.8950    2.4635    5.6509 C   0  0  0  0  0  0  0  0  0  0  0  0
    9.3164    2.5543    5.5944 C   0  0  0  0  0  0  0  0  0  0  0  0
   11.7442    4.3706    3.6132 C   0  0  0  0  0  0  0  0  0  0  0  0
   10.7843    5.1964    2.9872 C   0  0  0  0  0  0  0  0  0  0  0  0
   11.1795    6.0190    1.9425 C   0  0  0  0  0  0  0  0  0  0  0  0
   12.5026    6.0335    1.5238 C   0  0  0  0  0  0  0  0  0  0  0  0
   13.4478    5.2349    2.1489 C   0  0  0  0  0  0  0  0  0  0  0  0
   13.0738    4.4040    3.1853 C   0  0  0  0  0  0  0  0  0  0  0  0
    6.9793    4.7176    5.1829 C   0  0  1  0  0  0  0  0  0  0  0  0
    7.8457    5.3803    6.0801 C   0  0  0  0  0  0  0  0  0  0  0  0
    7.6513    6.7359    6.3436 C   0  0  0  0  0  0  0  0  0  0  0  0
    6.6162    7.4328    5.7453 C   0  0  0  0  0  0  0  0  0  0  0  0
    5.7524    6.7756    4.8817 C   0  0  0  0  0  0  0  0  0  0  0  0
    5.9199    5.4317    4.6091 C   0  0  0  0  0  3  0  0  0  0  0  0
   13.1271    2.6202    5.2600 H   0  0  0  0  0  0  0  0  0  0  0  0
   12.0898    0.9870    6.7960 H   0  0  0  0  0  0  0  0  0  0  0  0
   10.0406   -0.1116    7.6136 H   0  0  0  0  0  0  0  0  0  0  0  0
    7.5721   -0.2760    7.6212 H   0  0  0  0  0  0  0  0  0  0  0  0
    6.2299    1.3444    6.3544 H   0  0  0  0  0  0  0  0  0  0  0  0
   10.4582    6.6559    1.4488 H   0  0  0  0  0  0  0  0  0  0  0  0
   12.7971    6.6768    0.7074 H   0  0  0  0  0  0  0  0  0  0  0  0
   14.4776    5.2581    1.8235 H   0  0  0  0  0  0  0  0  0  0  0  0
   13.8178    3.7790    3.6569 H   0  0  0  0  0  0  0  0  0  0  0  0
    6.2069    2.9278    4.6263 H   0  0  0  0  0  0  0  0  0  0  0  0
    8.5575    4.8161    6.6813 H   0  0  0  0  0  0  0  0  0  0  0  0
    8.3059    7.2331    7.0458 H   0  0  0  0  0  0  0  0  0  0  0  0
    6.4829    8.4834    5.9486 H   0  0  0  0  0  0  0  0  0  0  0  0
    4.9420    7.3134    4.4150 H   0  0  0  0  0  0  0  0  0  0  0  0
    5.2405    4.9220    3.9388 H   0  0  0  0  0  0  0  0  0  0  0  0
  1  2  1  6  0  0  0
  1  3  1  0  0  0  0
  1 20  1  0  0  0  0
  3 13  1  0  0  0  0
  4 20  1  0  0  0  0
  4 12  1  0  0  0  0
  5  3  1  0  0  0  0
  5  6  1  0  0  0  0
  6  7  2  0  0  0  0
  7  8  1  0  0  0  0
  7 27  1  0  0  0  0
  8  9  1  0  0  0  0
  9 10  2  0  0  0  0
  9 28  1  0  0  0  0
 10 29  1  0  0  0  0
 11 10  1  0  0  0  0
 12 11  2  0  0  0  0
 13 12  1  0  0  0  0
 13  8  2  0  0  0  0
 14  5  2  0  0  0  0
 15 14  1  0  0  0  0
 15  1  2  0  0  0  0
 16 15  1  0  0  0  0
 17 16  2  0  0  0  0
 17 18  1  0  0  0  0
 18 19  2  0  0  0  0
 19 14  1  0  0  0  0
 19 34  1  0  0  0  0
 20 25  1  6  0  0  0
 20 21  1  0  0  0  0
 21 22  2  0  0  0  0
 21 36  1  0  0  0  0
 22 37  1  0  0  0  0
 23 38  1  0  0  0  0
 23 22  1  0  0  0  0
 24 23  2  0  0  0  0
 25 24  1  0  0  0  0
 26  6  1  0  0  0  0
 30 11  1  0  0  0  0
 31 16  1  0  0  0  0
 32 17  1  0  0  0  0
 33 18  1  0  0  0  0
 35  4  1  0  0  0  0
 39 24  1  0  0  0  0
 40 25  1  0  0  0  0
M  END
$$$$
