CSD_code = SEFDAI | q = 1 | S = 0 | Stoichiometry = C12H36Cl2MoNP4(1+) | MND = 6
 OpenBabel04212202093D

 56 55  0  0  0  0  0  0  0  0999 V2000
    5.5649    6.1997   11.0008 Mo  0  0  0  0  0  0  0  0  0  0  0  0
    4.0638    4.6870   11.6592 Cl  0  0  0  0  0  0  0  0  0  0  0  0
    7.4669    4.6798   11.4955 Cl  0  0  0  0  0  0  0  0  0  0  0  0
    5.6030    4.7946    8.9688 P   0  0  0  0  0  4  0  0  0  0  0  0
    4.3563    4.8651    7.6284 C   0  0  0  0  0  0  0  0  0  0  0  0
    7.1523    4.9372    8.0215 C   0  0  0  0  0  0  0  0  0  0  0  0
    5.5590    3.0128    9.3450 C   0  0  0  0  0  0  0  0  0  0  0  0
    5.4736    6.6819   13.4063 P   0  0  0  0  0  4  0  0  0  0  0  0
    6.2114    5.3449   14.3964 C   0  0  0  0  0  0  0  0  0  0  0  0
    3.8567    6.8433   14.2457 C   0  0  0  0  0  0  0  0  0  0  0  0
    6.3859    8.1321   14.0409 C   0  0  0  0  0  0  0  0  0  0  0  0
    3.7888    7.7565   10.4308 P   0  0  0  0  0  4  0  0  0  0  0  0
    3.8554    9.3905   11.2521 C   0  0  0  0  0  0  0  0  0  0  0  0
    3.7091    8.3110    8.6895 C   0  0  0  0  0  0  0  0  0  0  0  0
    2.0721    7.2333   10.7282 C   0  0  0  0  0  0  0  0  0  0  0  0
    6.7198    7.4812   10.4990 N   0  0  0  0  0  2  0  0  0  0  0  0
    8.0730    8.2923   10.2979 P   0  0  0  0  0  4  0  0  0  0  0  0
    7.9463   10.0321   10.8474 C   0  0  0  0  0  0  0  0  0  0  0  0
    8.5980    8.3608    8.5512 C   0  0  0  0  0  0  0  0  0  0  0  0
    9.4409    7.5217   11.2201 C   0  0  0  0  0  0  0  0  0  0  0  0
    4.4540    5.7987    7.0780 H   0  0  0  0  0  0  0  0  0  0  0  0
    3.3561    4.7967    8.0563 H   0  0  0  0  0  0  0  0  0  0  0  0
    4.5095    4.0301    6.9448 H   0  0  0  0  0  0  0  0  0  0  0  0
    7.1940    5.9208    7.5555 H   0  0  0  0  0  0  0  0  0  0  0  0
    7.1936    4.1658    7.2517 H   0  0  0  0  0  0  0  0  0  0  0  0
    7.9878    4.8171    8.7112 H   0  0  0  0  0  0  0  0  0  0  0  0
    6.3094    2.7778   10.1006 H   0  0  0  0  0  0  0  0  0  0  0  0
    5.7657    2.4480    8.4347 H   0  0  0  0  0  0  0  0  0  0  0  0
    4.5710    2.7430    9.7226 H   0  0  0  0  0  0  0  0  0  0  0  0
    5.7002    4.4072   14.1683 H   0  0  0  0  0  0  0  0  0  0  0  0
    6.1166    5.5663   15.4604 H   0  0  0  0  0  0  0  0  0  0  0  0
    7.2630    5.2371   14.1295 H   0  0  0  0  0  0  0  0  0  0  0  0
    3.2650    5.9487   14.0484 H   0  0  0  0  0  0  0  0  0  0  0  0
    3.3144    7.7163   13.8867 H   0  0  0  0  0  0  0  0  0  0  0  0
    4.0178    6.9368   15.3199 H   0  0  0  0  0  0  0  0  0  0  0  0
    7.4228    8.0483   13.7171 H   0  0  0  0  0  0  0  0  0  0  0  0
    6.3460    8.1538   15.1302 H   0  0  0  0  0  0  0  0  0  0  0  0
    5.9560    9.0490   13.6413 H   0  0  0  0  0  0  0  0  0  0  0  0
    3.7821    9.2698   12.3311 H   0  0  0  0  0  0  0  0  0  0  0  0
    3.0449   10.0295   10.9007 H   0  0  0  0  0  0  0  0  0  0  0  0
    4.8156    9.8475   11.0122 H   0  0  0  0  0  0  0  0  0  0  0  0
    3.3357    7.4983    8.0701 H   0  0  0  0  0  0  0  0  0  0  0  0
    4.7149    8.5780    8.3638 H   0  0  0  0  0  0  0  0  0  0  0  0
    3.0475    9.1719    8.5903 H   0  0  0  0  0  0  0  0  0  0  0  0
    1.9300    7.0292   11.7888 H   0  0  0  0  0  0  0  0  0  0  0  0
    1.8824    6.3154   10.1712 H   0  0  0  0  0  0  0  0  0  0  0  0
    1.3818    8.0122   10.4034 H   0  0  0  0  0  0  0  0  0  0  0  0
    8.9272   10.5003   10.8119 H   0  0  0  0  0  0  0  0  0  0  0  0
    7.5650   10.0593   11.8666 H   0  0  0  0  0  0  0  0  0  0  0  0
    7.2643   10.5685   10.1892 H   0  0  0  0  0  0  0  0  0  0  0  0
    9.3992    9.0878    8.4384 H   0  0  0  0  0  0  0  0  0  0  0  0
    7.7511    8.6488    7.9296 H   0  0  0  0  0  0  0  0  0  0  0  0
    8.9552    7.3770    8.2523 H   0  0  0  0  0  0  0  0  0  0  0  0
   10.3975    7.7709   10.7676 H   0  0  0  0  0  0  0  0  0  0  0  0
    9.2795    6.4412   11.1983 H   0  0  0  0  0  0  0  0  0  0  0  0
    9.4249    7.8581   12.2550 H   0  0  0  0  0  0  0  0  0  0  0  0
  1  3  1  0  0  0  0
  1  2  1  0  0  0  0
  1  8  1  0  0  0  0
  4  7  1  0  0  0  0
  4  1  1  0  0  0  0
  5 22  1  0  0  0  0
  5  4  1  0  0  0  0
  6 26  1  0  0  0  0
  6  4  1  0  0  0  0
  7 29  1  0  0  0  0
  7 27  1  0  0  0  0
  8 11  1  0  0  0  0
  8 10  1  0  0  0  0
  8  9  1  0  0  0  0
  9 31  1  0  0  0  0
 10 35  1  0  0  0  0
 11 37  1  0  0  0  0
 12 15  1  0  0  0  0
 12  1  1  0  0  0  0
 12 13  1  0  0  0  0
 13 39  1  0  0  0  0
 14 12  1  0  0  0  0
 15 45  1  0  0  0  0
 16  1  1  0  0  0  0
 17 16  1  0  0  0  0
 17 18  1  0  0  0  0
 17 20  1  0  0  0  0
 18 49  1  0  0  0  0
 19 17  1  0  0  0  0
 20 56  1  0  0  0  0
 21  5  1  0  0  0  0
 23  5  1  0  0  0  0
 24  6  1  0  0  0  0
 25  6  1  0  0  0  0
 28  7  1  0  0  0  0
 30  9  1  0  0  0  0
 32  9  1  0  0  0  0
 33 10  1  0  0  0  0
 34 10  1  0  0  0  0
 36 11  1  0  0  0  0
 38 11  1  0  0  0  0
 40 13  1  0  0  0  0
 41 13  1  0  0  0  0
 42 14  1  0  0  0  0
 43 14  1  0  0  0  0
 44 14  1  0  0  0  0
 46 15  1  0  0  0  0
 47 15  1  0  0  0  0
 48 18  1  0  0  0  0
 50 18  1  0  0  0  0
 51 19  1  0  0  0  0
 52 19  1  0  0  0  0
 53 19  1  0  0  0  0
 54 20  1  0  0  0  0
 55 20  1  0  0  0  0
M  END
$$$$
