CSD_code = SEGRUT | q = 0 | S = 0 | Stoichiometry = C17H10HgI2N4S | MND = 4
 OpenBabel04212202093D

 35 38  0  0  0  0  0  0  0  0999 V2000
    2.0700   13.2261    3.5008 Hg  0  0  0  0  0  0  0  0  0  0  0  0
    0.7162   10.4392    4.8812 C   0  0  0  0  0  0  0  0  0  0  0  0
    1.1279   10.9428    5.7465 H   0  0  0  0  0  0  0  0  0  0  0  0
    0.0974    9.1970    5.0204 C   0  0  0  0  0  0  0  0  0  0  0  0
    0.0290    8.7354    5.9922 H   0  0  0  0  0  0  0  0  0  0  0  0
   -0.4122    8.5891    3.8998 C   0  0  0  0  0  0  0  0  0  0  0  0
   -0.8970    7.6256    3.9654 H   0  0  0  0  0  0  0  0  0  0  0  0
   -0.2987    9.2356    2.6603 C   0  0  0  0  0  0  0  0  0  0  0  0
   -0.7854    8.7170    1.4382 C   0  0  0  0  0  0  0  0  0  0  0  0
   -0.6591    9.3979    0.2242 C   0  0  0  0  0  0  0  0  0  0  0  0
   -0.0210   10.6664    0.1591 C   0  0  0  0  0  0  0  0  0  0  0  0
    0.1252   11.3868   -1.0322 C   0  0  0  0  0  0  0  0  0  0  0  0
   -0.2624   10.9609   -1.9446 H   0  0  0  0  0  0  0  0  0  0  0  0
    0.7553   12.6066   -0.9925 C   0  0  0  0  0  0  0  0  0  0  0  0
    0.8924   13.2020   -1.8807 H   0  0  0  0  0  0  0  0  0  0  0  0
    1.2262   13.0731    0.2352 C   0  0  0  0  0  0  0  0  0  0  0  0
    1.7273   14.0314    0.2965 H   0  0  0  0  0  0  0  0  0  0  0  0
    0.4849   11.2142    1.3604 C   0  0  0  0  0  0  0  0  0  0  0  0
    0.3466   10.5003    2.6145 C   0  0  0  0  0  0  0  0  0  0  0  0
   -1.6740    7.5766   -0.2183 C   0  0  0  0  0  0  0  0  0  0  0  0
   -2.3402    6.5290   -0.9239 C   0  0  0  0  0  0  0  0  0  0  0  0
   -2.8553    5.3492   -0.4442 C   0  0  0  0  0  0  0  0  0  0  0  0
   -2.8178    5.0495    0.5883 H   0  0  0  0  0  0  0  0  0  0  0  0
   -3.4420    4.5663   -1.4523 C   0  0  0  0  0  0  0  0  0  0  0  0
   -3.8988    3.6096   -1.2749 H   0  0  0  0  0  0  0  0  0  0  0  0
   -3.3676    5.1544   -2.6782 C   0  0  0  0  0  0  0  0  0  0  0  0
   -3.7336    4.7762   -3.6119 H   0  0  0  0  0  0  0  0  0  0  0  0
    4.5079   12.3092    3.2943 I   0  0  0  0  0  0  0  0  0  0  0  0
    0.2515   14.9083    4.3205 I   0  0  0  0  0  0  0  0  0  0  0  0
    0.8380   11.0634    3.7288 N   0  0  0  0  0  0  0  0  0  0  0  0
    1.1012   12.4097    1.3659 N   0  0  0  0  0  0  0  0  0  0  0  0
   -1.4373    7.5552    1.1336 N   0  0  0  0  0  0  0  0  0  0  0  0
   -1.6948    6.8208    1.7705 H   0  0  0  0  0  0  0  0  0  0  0  0
   -1.2144    8.6743   -0.7774 N   0  0  0  0  0  0  0  0  0  0  0  0
   -2.5806    6.6762   -2.6332 S   0  0  0  0  0  0  0  0  0  0  0  0
  1 29  1  0  0  0  0
  2  4  1  0  0  0  0
  2  3  1  0  0  0  0
  4  5  1  0  0  0  0
  6  7  1  0  0  0  0
  6  4  2  0  0  0  0
  8  6  1  0  0  0  0
  9  8  2  0  0  0  0
 10  9  1  0  0  0  0
 11 10  2  0  0  0  0
 11 18  1  0  0  0  0
 12 14  2  0  0  0  0
 12 11  1  0  0  0  0
 13 12  1  0  0  0  0
 14 16  1  0  0  0  0
 15 14  1  0  0  0  0
 16 17  1  0  0  0  0
 16 31  2  0  0  0  0
 18 31  1  0  0  0  0
 18 19  2  0  0  0  0
 19  8  1  0  0  0  0
 19 30  1  0  0  0  0
 20 32  1  0  0  0  0
 21 22  2  0  0  0  0
 21 20  1  0  0  0  0
 22 23  1  0  0  0  0
 24 25  1  0  0  0  0
 24 22  1  0  0  0  0
 26 35  1  0  0  0  0
 26 24  2  0  0  0  0
 27 26  1  0  0  0  0
 28  1  1  0  0  0  0
 30  2  2  0  0  0  0
 32  9  1  0  0  0  0
 32 33  1  0  0  0  0
 34 20  2  0  0  0  0
 34 10  1  0  0  0  0
 35 21  1  0  0  0  0
M  END
$$$$
