CSD_code = SEGSAA | q = 0 | S = 0 | Stoichiometry = C17H9BrHgI2N4S | MND = 4
 OpenBabel04212202093D

 35 38  0  0  0  0  0  0  0  0999 V2000
   -4.9515   20.4041    8.0749 Hg  0  0  0  0  0  0  0  0  0  0  0  0
   -7.2248   21.1550    9.1248 I   0  0  0  0  0  0  0  0  0  0  0  0
   -3.3951   19.4936    6.1929 I   0  0  0  0  0  0  0  0  0  0  0  0
    1.4626   22.3303   19.4358 Br  0  0  0  0  0  0  0  0  0  0  0  0
   -0.0004   21.6336   16.7585 S   0  0  0  0  0  0  0  0  0  0  0  0
   -3.5059   22.1739    9.1112 N   0  0  0  0  0  0  0  0  0  0  0  0
   -3.7803   19.6608   10.1436 N   0  0  0  0  0  0  0  0  0  0  0  0
   -1.1549   23.3106   13.2819 N   0  0  0  0  0  0  0  0  0  0  0  0
   -0.8941   24.2805   13.2303 H   0  0  0  0  0  0  0  0  0  0  0  0
   -1.3766   21.2498   14.0938 N   0  0  0  0  0  0  0  0  0  0  0  0
   -3.3725   23.3723    8.5836 C   0  0  0  0  0  0  0  0  0  0  0  0
   -3.7958   23.5124    7.5972 H   0  0  0  0  0  0  0  0  0  0  0  0
   -2.7274   24.4279    9.2276 C   0  0  0  0  0  0  0  0  0  0  0  0
   -2.6513   25.3882    8.7439 H   0  0  0  0  0  0  0  0  0  0  0  0
   -2.2039   24.2111   10.4784 C   0  0  0  0  0  0  0  0  0  0  0  0
   -1.7009   25.0045   11.0122 H   0  0  0  0  0  0  0  0  0  0  0  0
   -2.3261   22.9403   11.0587 C   0  0  0  0  0  0  0  0  0  0  0  0
   -1.8235   22.5886   12.3335 C   0  0  0  0  0  0  0  0  0  0  0  0
   -1.9493   21.3032   12.8671 C   0  0  0  0  0  0  0  0  0  0  0  0
   -2.6054   20.2697   12.1441 C   0  0  0  0  0  0  0  0  0  0  0  0
   -2.7452   18.9653   12.6325 C   0  0  0  0  0  0  0  0  0  0  0  0
   -2.3374   18.7294   13.6032 H   0  0  0  0  0  0  0  0  0  0  0  0
   -3.3941   18.0364   11.8560 C   0  0  0  0  0  0  0  0  0  0  0  0
   -3.5245   17.0175   12.1832 H   0  0  0  0  0  0  0  0  0  0  0  0
   -3.8962   18.4376   10.6177 C   0  0  0  0  0  0  0  0  0  0  0  0
   -4.4152   17.7279    9.9854 H   0  0  0  0  0  0  0  0  0  0  0  0
   -3.1384   20.5892   10.8744 C   0  0  0  0  0  0  0  0  0  0  0  0
   -2.9968   21.9246   10.3270 C   0  0  0  0  0  0  0  0  0  0  0  0
   -0.9093   22.4563   14.3268 C   0  0  0  0  0  0  0  0  0  0  0  0
   -0.2312   22.8310   15.5266 C   0  0  0  0  0  0  0  0  0  0  0  0
    0.2942   24.0469   15.8904 C   0  0  0  0  0  0  0  0  0  0  0  0
    0.2600   24.9274   15.2742 H   0  0  0  0  0  0  0  0  0  0  0  0
    0.8883   24.0322   17.1617 C   0  0  0  0  0  0  0  0  0  0  0  0
    1.3543   24.8818   17.6261 H   0  0  0  0  0  0  0  0  0  0  0  0
    0.8048   22.8017   17.7464 C   0  0  0  0  0  0  0  0  0  0  0  0
  1  2  1  0  0  0  0
  3  1  1  0  0  0  0
  5 35  1  0  0  0  0
  6 28  1  0  0  0  0
  7 25  2  0  0  0  0
  7 27  1  0  0  0  0
  8 29  1  0  0  0  0
  9  8  1  0  0  0  0
 10 29  2  0  0  0  0
 11  6  2  0  0  0  0
 11 13  1  0  0  0  0
 12 11  1  0  0  0  0
 13 15  2  0  0  0  0
 14 13  1  0  0  0  0
 15 16  1  0  0  0  0
 15 17  1  0  0  0  0
 17 18  1  0  0  0  0
 18 19  2  0  0  0  0
 18  8  1  0  0  0  0
 19 10  1  0  0  0  0
 20 21  1  0  0  0  0
 20 19  1  0  0  0  0
 21 22  1  0  0  0  0
 23 24  1  0  0  0  0
 23 21  2  0  0  0  0
 25 23  1  0  0  0  0
 26 25  1  0  0  0  0
 27 20  2  0  0  0  0
 28 27  1  0  0  0  0
 28 17  2  0  0  0  0
 29 30  1  0  0  0  0
 30 31  2  0  0  0  0
 30  5  1  0  0  0  0
 31 33  1  0  0  0  0
 32 31  1  0  0  0  0
 33 34  1  0  0  0  0
 33 35  2  0  0  0  0
 35  4  1  0  0  0  0
M  END
$$$$
