CSD_code = SEGSED | q = 1 | S = 0 | Stoichiometry = C24H12Cl2CoN4O4(1+) | MND = 6
 OpenBabel04212202093D

 47 54  0  0  0  0  0  0  0  0999 V2000
   -5.6684   11.3012   16.9746 Co  0  0  0  0  0  0  0  0  0  0  0  0
   -7.0300   10.8536   18.6058 Cl  0  0  0  0  0  0  0  0  0  0  0  0
   -4.1273   10.0044   17.7871 Cl  0  0  0  0  0  0  0  0  0  0  0  0
   -6.9297   17.0219   19.3403 O   0  0  0  0  0  0  0  0  0  0  0  0
   -9.0005   16.6579   17.5552 O   0  0  0  0  0  0  0  0  0  0  0  0
   -2.6463    9.2155   11.8139 O   0  0  0  0  0  0  0  0  0  0  0  0
   -4.5575    7.2723   12.2378 O   0  0  0  0  0  0  0  0  0  0  0  0
   -5.1577   12.8030   18.0343 N   0  0  0  0  0  0  0  0  0  0  0  0
   -7.0739   12.4957   16.2892 N   0  0  0  0  0  0  0  0  0  0  0  0
   -6.1744    9.7739   15.9489 N   0  0  0  0  0  0  0  0  0  0  0  0
   -4.4222   11.6540   15.4932 N   0  0  0  0  0  0  0  0  0  0  0  0
   -4.1687   12.8960   18.9194 C   0  0  0  0  0  3  0  0  0  0  0  0
   -3.4771   12.0645   18.9592 H   0  0  0  0  0  0  0  0  0  0  0  0
   -4.0297   13.9832   19.7723 C   0  0  0  0  0  0  0  0  0  0  0  0
   -3.2155   14.0015   20.4788 H   0  0  0  0  0  0  0  0  0  0  0  0
   -4.9464   15.0185   19.7116 C   0  0  0  0  0  0  0  0  0  0  0  0
   -4.8884   15.8787   20.3621 H   0  0  0  0  0  0  0  0  0  0  0  0
   -5.9818   14.9353   18.7810 C   0  0  0  0  0  0  0  0  0  0  0  0
   -6.9928   16.0218   18.6783 C   0  0  0  0  0  0  0  0  0  0  0  0
   -8.1419   15.8262   17.6698 C   0  0  0  0  0  0  0  0  0  0  0  0
   -8.1283   14.5816   16.8533 C   0  0  0  0  0  0  0  0  0  0  0  0
   -9.1420   14.3286   15.9316 C   0  0  0  0  0  0  0  0  0  0  0  0
   -9.9415   15.0451   15.8142 H   0  0  0  0  0  0  0  0  0  0  0  0
   -9.0893   13.1555   15.1968 C   0  0  0  0  0  0  0  0  0  0  0  0
   -9.8529   12.9197   14.4733 H   0  0  0  0  0  0  0  0  0  0  0  0
   -8.0405   12.2711   15.4050 C   0  0  0  0  0  3  0  0  0  0  0  0
   -7.9865   11.3499   14.8420 H   0  0  0  0  0  0  0  0  0  0  0  0
   -7.1155   13.6313   17.0013 C   0  0  0  0  0  0  0  0  0  0  0  0
   -6.0506   13.8046   17.9648 C   0  0  0  0  0  0  0  0  0  0  0  0
   -7.0761    8.8402   16.2405 C   0  0  0  0  0  3  0  0  0  0  0  0
   -7.7063    9.0297   17.0998 H   0  0  0  0  0  0  0  0  0  0  0  0
   -7.1995    7.6666   15.5081 C   0  0  0  0  0  0  0  0  0  0  0  0
   -7.9399    6.9377   15.7960 H   0  0  0  0  0  0  0  0  0  0  0  0
   -6.3607    7.4452   14.4295 C   0  0  0  0  0  0  0  0  0  0  0  0
   -6.4087    6.5430   13.8377 H   0  0  0  0  0  0  0  0  0  0  0  0
   -5.4187    8.4223   14.1089 C   0  0  0  0  0  0  0  0  0  0  0  0
   -4.4944    8.2306   12.9590 C   0  0  0  0  0  0  0  0  0  0  0  0
   -3.4383    9.3252   12.7097 C   0  0  0  0  0  0  0  0  0  0  0  0
   -3.4549   10.5074   13.6144 C   0  0  0  0  0  0  0  0  0  0  0  0
   -2.5243   11.5322   13.4569 C   0  0  0  0  0  0  0  0  0  0  0  0
   -1.7886   11.4626   12.6692 H   0  0  0  0  0  0  0  0  0  0  0  0
   -2.5739   12.6093   14.3264 C   0  0  0  0  0  0  0  0  0  0  0  0
   -1.8733   13.4241   14.2406 H   0  0  0  0  0  0  0  0  0  0  0  0
   -3.5363   12.6305   15.3258 C   0  0  0  0  0  3  0  0  0  0  0  0
   -3.5859   13.4619   16.0150 H   0  0  0  0  0  0  0  0  0  0  0  0
   -4.3843   10.6105   14.6517 C   0  0  0  0  0  0  0  0  0  0  0  0
   -5.3583    9.5704   14.9010 C   0  0  0  0  0  0  0  0  0  0  0  0
  1  3  1  0  0  0  0
  1  8  1  0  0  0  0
  1  2  1  0  0  0  0
  5 20  2  0  0  0  0
  6 38  2  0  0  0  0
  7 37  2  0  0  0  0
  8 12  1  0  0  0  0
  9  1  1  0  0  0  0
  9 28  1  0  0  0  0
 10 30  1  0  0  0  0
 10  1  1  0  0  0  0
 11  1  1  0  0  0  0
 12 13  1  0  0  0  0
 12 14  1  0  0  0  0
 14 15  1  0  0  0  0
 16 14  2  0  0  0  0
 16 17  1  0  0  0  0
 18 16  1  0  0  0  0
 19 18  1  0  0  0  0
 19  4  2  0  0  0  0
 20 19  1  0  0  0  0
 21 28  2  0  0  0  0
 21 20  1  0  0  0  0
 22 21  1  0  0  0  0
 23 22  1  0  0  0  0
 24 26  1  0  0  0  0
 24 22  2  0  0  0  0
 25 24  1  0  0  0  0
 26  9  1  0  0  0  0
 27 26  1  0  0  0  0
 28 29  1  0  0  0  0
 29  8  1  0  0  0  0
 29 18  2  0  0  0  0
 30 31  1  0  0  0  0
 32 33  1  0  0  0  0
 32 30  1  0  0  0  0
 34 32  2  0  0  0  0
 35 34  1  0  0  0  0
 36 34  1  0  0  0  0
 36 47  2  0  0  0  0
 37 36  1  0  0  0  0
 38 37  1  0  0  0  0
 38 39  1  0  0  0  0
 39 46  2  0  0  0  0
 40 39  1  0  0  0  0
 40 42  2  0  0  0  0
 41 40  1  0  0  0  0
 42 44  1  0  0  0  0
 43 42  1  0  0  0  0
 44 11  1  0  0  0  0
 44 45  1  0  0  0  0
 46 47  1  0  0  0  0
 46 11  1  0  0  0  0
 47 10  1  0  0  0  0
M  END
$$$$
