CSD_code = SEGXAG | q = -1 | S = 0 | Stoichiometry = C7H8Cl3IrNO3(1-) | MND = 6
 OpenBabel04212202093D

 23 23  0  0  0  0  0  0  0  0999 V2000
    7.6581    1.1205    3.1201 Ir  0  0  0  0  0  0  0  0  0  0  0  0
    9.0013    2.9155    2.3603 Cl  0  0  0  0  0  0  0  0  0  0  0  0
    6.2319   -0.5668    3.8778 Cl  0  0  0  0  0  0  0  0  0  0  0  0
    9.4879   -0.2875    3.2638 Cl  0  0  0  0  0  0  0  0  0  0  0  0
    6.0234    2.4199    3.0064 O   0  0  0  0  0  0  0  0  0  0  0  0
    4.4740    3.0444    1.5390 O   0  0  0  0  0  0  0  0  0  0  0  0
    7.1262    0.7000    1.3179 N   0  0  0  0  0  0  0  0  0  0  0  0
    7.7019   -0.1788    0.4935 C   0  0  0  0  0  3  0  0  0  0  0  0
    8.5625   -0.7076    0.8819 H   0  0  0  0  0  0  0  0  0  0  0  0
    7.2275   -0.4018   -0.7845 C   0  0  0  0  0  0  0  0  0  0  0  0
    7.7258   -1.1223   -1.4144 H   0  0  0  0  0  0  0  0  0  0  0  0
    6.1196    0.3016   -1.2366 C   0  0  0  0  0  0  0  0  0  0  0  0
    5.7309    0.1432   -2.2318 H   0  0  0  0  0  0  0  0  0  0  0  0
    5.5277    1.2101   -0.3771 C   0  0  0  0  0  0  0  0  0  0  0  0
    4.6642    1.7991   -0.6460 H   0  0  0  0  0  0  0  0  0  0  0  0
    6.0514    1.3865    0.8915 C   0  0  0  0  0  0  0  0  0  0  0  0
    5.4385    2.3816    1.8846 C   0  0  0  0  0  0  0  0  0  0  0  0
    8.0222    1.8590    5.1953 O   0  0  0  0  0  0  0  0  0  0  0  0
    7.5117    2.6799    5.1186 H   0  0  0  0  0  0  0  0  0  0  0  0
    9.3440    2.1790    5.6083 C   0  0  0  0  0  0  0  0  0  0  0  0
    9.9020    1.2434    5.6302 H   0  0  0  0  0  0  0  0  0  0  0  0
    9.3163    2.6198    6.6102 H   0  0  0  0  0  0  0  0  0  0  0  0
    9.8264    2.8630    4.9057 H   0  0  0  0  0  0  0  0  0  0  0  0
  1  4  1  0  0  0  0
  1  3  1  0  0  0  0
  2  1  1  0  0  0  0
  5  1  1  0  0  0  0
  6 17  2  0  0  0  0
  7  1  1  0  0  0  0
  8  9  1  0  0  0  0
  8  7  1  0  0  0  0
 10  8  1  0  0  0  0
 11 10  1  0  0  0  0
 12 10  2  0  0  0  0
 12 14  1  0  0  0  0
 13 12  1  0  0  0  0
 14 16  2  0  0  0  0
 15 14  1  0  0  0  0
 16  7  1  0  0  0  0
 16 17  1  0  0  0  0
 17  5  1  0  0  0  0
 18 20  1  0  0  0  0
 19 18  1  0  0  0  0
 20 21  1  0  0  0  0
 20 22  1  0  0  0  0
 23 20  1  0  0  0  0
M  END
$$$$
