CSD_code = SEHCEO | q = 0 | S = 0 | Stoichiometry = C12H8Cl4N2O4Pt | MND = 6
 OpenBabel04212202093D

 31 33  0  0  1  0  0  0  0  0999 V2000
    3.0912   10.1964    1.3227 Pt  0  0  0  0  0  0  0  0  0  0  0  0
    5.4311   10.3758    0.9229 Cl  0  0  0  0  0  0  0  0  0  0  0  0
    3.2012   11.5836    3.1366 Cl  0  0  0  0  0  0  0  0  0  0  0  0
    0.7808    9.7605    1.6805 Cl  0  0  0  0  0  0  0  0  0  0  0  0
    2.6373   12.0289    0.0331 Cl  0  0  0  0  0  0  0  0  0  0  0  0
    3.6906    8.3726    3.6643 C   0  0  0  0  0  3  0  0  0  0  0  0
    3.9482    7.1583    4.2960 C   0  0  0  0  0  0  0  0  0  0  0  0
    3.9917    6.0022    3.5208 C   0  0  0  0  0  0  0  0  0  0  0  0
    3.7807    6.1020    2.1583 C   0  0  0  0  0  0  0  0  0  0  0  0
    3.5301    7.3509    1.5880 C   0  0  0  0  0  0  0  0  0  0  0  0
    4.1655    7.1427    5.7726 C   0  0  0  0  0  0  0  0  0  0  0  0
    3.2943    7.5592    0.1550 C   0  0  2  0  0  3  0  0  0  0  0  0
    3.3281    6.5351   -0.7926 C   0  0  0  0  0  0  0  0  0  0  0  0
    3.0918    6.8263   -2.1231 C   0  0  0  0  0  0  0  0  0  0  0  0
    2.8219    8.1431   -2.4873 C   0  0  0  0  0  0  0  0  0  0  0  0
    2.8057    9.1177   -1.4922 C   0  0  0  0  0  0  0  0  0  0  0  0
    2.5525    8.5458   -3.8990 C   0  0  0  0  0  0  0  0  0  0  0  0
    3.4918    8.4492    2.3632 N   0  0  0  0  0  0  0  0  0  0  0  0
    3.0359    8.8222   -0.2281 N   0  0  0  0  0  0  0  0  0  0  0  0
    4.1282    8.1179    6.4683 O   0  0  0  0  0  0  0  0  0  0  0  0
    4.4081    5.9133    6.2367 O   0  0  0  0  0  0  0  0  0  0  0  0
    2.2975    9.6655   -4.2421 O   0  0  0  0  0  0  0  0  0  0  0  0
    2.6267    7.5132   -4.7440 O   0  0  0  0  0  0  0  0  0  0  0  0
    3.6463    9.2983    4.2306 H   0  0  0  0  0  0  0  0  0  0  0  0
    4.1875    5.0478    3.9841 H   0  0  0  0  0  0  0  0  0  0  0  0
    3.8095    5.2152    1.5476 H   0  0  0  0  0  0  0  0  0  0  0  0
    4.5447    5.9393    7.1976 H   0  0  0  0  0  0  0  0  0  0  0  0
    3.5395    5.5209   -0.4978 H   0  0  0  0  0  0  0  0  0  0  0  0
    3.1142    6.0518   -2.8737 H   0  0  0  0  0  0  0  0  0  0  0  0
    2.6029   10.1573   -1.7321 H   0  0  0  0  0  0  0  0  0  0  0  0
    2.4481    7.8096   -5.6511 H   0  0  0  0  0  0  0  0  0  0  0  0
  1  4  1  0  0  0  0
  1 18  1  0  0  0  0
  1  3  1  0  0  0  0
  2  1  1  0  0  0  0
  5  1  1  0  0  0  0
  6 24  1  0  0  0  0
  6  7  1  0  0  0  0
  7 11  1  0  0  0  0
  8 25  1  0  0  0  0
  8  7  2  0  0  0  0
  9  8  1  0  0  0  0
 10  9  2  0  0  0  0
 10 18  1  0  0  0  0
 11 21  1  0  0  0  0
 11 20  2  0  0  0  0
 12 13  1  6  0  0  0
 12 10  1  0  0  0  0
 13 28  1  0  0  0  0
 14 13  2  0  0  0  0
 15 14  1  0  0  0  0
 15 16  2  0  0  0  0
 16 19  1  0  0  0  0
 17 15  1  0  0  0  0
 18  6  1  0  0  0  0
 19 12  1  0  0  0  0
 19  1  1  0  0  0  0
 21 27  1  0  0  0  0
 22 17  2  0  0  0  0
 23 17  1  0  0  0  0
 26  9  1  0  0  0  0
 29 14  1  0  0  0  0
 30 16  1  0  0  0  0
 31 23  1  0  0  0  0
M  END
$$$$
