CSD_code = SEJREG | q = 0 | S = 0 | Stoichiometry = C18H19Br2N3Pt | MND = 4
 OpenBabel04212202093D

 43 46  0  0  1  0  0  0  0  0999 V2000
   -2.4075    0.0672    4.9001 Pt  0  0  0  0  0  0  0  0  0  0  0  0
   -4.3980   -0.8284    5.9439 Br  0  0  0  0  0  0  0  0  0  0  0  0
   -3.6398    1.7954    3.7923 Br  0  0  0  0  0  0  0  0  0  0  0  0
   -0.6825    0.7109    4.1239 C   0  0  0  0  0  0  0  0  0  0  0  0
   -0.2619    1.0003    2.8831 N   0  0  0  0  0  0  0  0  0  0  0  0
    1.5182    1.0633    4.1675 C   0  0  0  0  0  0  0  0  0  0  0  0
    2.4957    1.1512    4.5948 H   0  0  0  0  0  0  0  0  0  0  0  0
    1.0916    1.2207    2.8921 C   0  0  0  0  0  0  0  0  0  0  0  0
    1.6361    1.4508    1.9998 H   0  0  0  0  0  0  0  0  0  0  0  0
    0.4102    0.7602    4.9119 N   0  0  0  0  0  0  0  0  0  0  0  0
    0.3444    0.4343    6.3149 C   0  0  0  0  0  0  0  0  0  0  0  0
   -0.3906    1.0963    6.7976 H   0  0  0  0  0  0  0  0  0  0  0  0
    1.3219    0.5909    6.7731 H   0  0  0  0  0  0  0  0  0  0  0  0
   -0.1036   -1.0000    6.4776 C   0  0  1  0  0  3  0  0  0  0  0  0
   -1.2580   -1.3444    5.8890 N   0  0  0  0  0  0  0  0  0  0  0  0
   -1.6648   -2.6128    5.9679 C   0  0  0  0  0  0  0  0  0  0  0  0
   -2.5983   -2.8560    5.4797 H   0  0  0  0  0  0  0  0  0  0  0  0
   -0.9577   -3.5805    6.6565 C   0  0  0  0  0  0  0  0  0  0  0  0
   -1.3357   -4.5886    6.6976 H   0  0  0  0  0  0  0  0  0  0  0  0
    0.2235   -3.2279    7.2896 C   0  0  0  0  0  0  0  0  0  0  0  0
    0.7966   -3.9523    7.8464 H   0  0  0  0  0  0  0  0  0  0  0  0
    0.6584   -1.9151    7.1835 C   0  0  0  0  0  0  0  0  0  0  0  0
    1.5766   -1.5981    7.6532 H   0  0  0  0  0  0  0  0  0  0  0  0
   -1.0756    1.0787    1.7177 C   0  0  0  0  0  0  0  0  0  0  0  0
   -1.6585   -0.0796    1.2047 C   0  0  0  0  0  0  0  0  0  0  0  0
   -2.4267    0.0250    0.0560 C   0  0  0  0  0  0  0  0  0  0  0  0
   -2.8925   -0.8629   -0.3454 H   0  0  0  0  0  0  0  0  0  0  0  0
   -2.6266    1.2438   -0.5754 C   0  0  0  0  0  0  0  0  0  0  0  0
   -2.0495    2.3807   -0.0291 C   0  0  0  0  0  0  0  0  0  0  0  0
   -2.2236    3.3397   -0.4939 H   0  0  0  0  0  0  0  0  0  0  0  0
   -1.2766    2.3225    1.1188 C   0  0  0  0  0  0  0  0  0  0  0  0
   -1.5149   -1.3957    1.9058 C   0  0  0  0  0  0  0  0  0  0  0  0
   -0.4856   -1.5822    2.2116 H   0  0  0  0  0  0  0  0  0  0  0  0
   -1.8476   -2.2094    1.2676 H   0  0  0  0  0  0  0  0  0  0  0  0
   -2.1486   -1.3932    2.8062 H   0  0  0  0  0  0  0  0  0  0  0  0
   -3.4904    1.3329   -1.7941 C   0  0  0  0  0  0  0  0  0  0  0  0
   -3.2544    2.2195   -2.3766 H   0  0  0  0  0  0  0  0  0  0  0  0
   -4.5360    1.3932   -1.4940 H   0  0  0  0  0  0  0  0  0  0  0  0
   -3.3720    0.4526   -2.4214 H   0  0  0  0  0  0  0  0  0  0  0  0
   -0.7395    3.5719    1.7459 C   0  0  0  0  0  0  0  0  0  0  0  0
    0.3483    3.5676    1.8008 H   0  0  0  0  0  0  0  0  0  0  0  0
   -1.1347    3.6636    2.7571 H   0  0  0  0  0  0  0  0  0  0  0  0
   -1.0530    4.4423    1.1777 H   0  0  0  0  0  0  0  0  0  0  0  0
  1 15  1  0  0  0  0
  1  2  1  0  0  0  0
  3  1  1  0  0  0  0
  4  1  2  0  0  0  0
  4 10  1  0  0  0  0
  5  8  1  0  0  0  0
  5  4  1  0  0  0  0
  6  7  1  0  0  0  0
  6 10  1  0  0  0  0
  8  6  2  0  0  0  0
  9  8  1  0  0  0  0
 10 11  1  0  0  0  0
 11 14  1  0  0  0  0
 11 13  1  0  0  0  0
 11 12  1  0  0  0  0
 14 22  1  6  0  0  0
 15 16  1  0  0  0  0
 15 14  1  0  0  0  0
 16 18  2  0  0  0  0
 17 16  1  0  0  0  0
 18 19  1  0  0  0  0
 18 20  1  0  0  0  0
 20 21  1  0  0  0  0
 22 20  2  0  0  0  0
 22 23  1  0  0  0  0
 24  5  1  0  0  0  0
 25 24  1  0  0  0  0
 25 32  1  0  0  0  0
 26 25  2  0  0  0  0
 27 26  1  0  0  0  0
 28 29  2  0  0  0  0
 28 26  1  0  0  0  0
 29 31  1  0  0  0  0
 30 29  1  0  0  0  0
 31 24  2  0  0  0  0
 31 40  1  0  0  0  0
 32 33  1  0  0  0  0
 32 35  1  0  0  0  0
 34 32  1  0  0  0  0
 36 38  1  0  0  0  0
 36 28  1  0  0  0  0
 37 36  1  0  0  0  0
 39 36  1  0  0  0  0
 40 41  1  0  0  0  0
 40 42  1  0  0  0  0
 43 40  1  0  0  0  0
M  END
$$$$
