CSD_code = SEJTEI | q = 0 | S = 0 | Stoichiometry = C19H19Cl2PPt | MND = 5
 OpenBabel04212202093D

 42 42  0  0  1  0  0  0  0  0999 V2000
    1.9011   -8.2234    6.1079 C   0  0  0  0  0  3  0  0  0  0  0  0
    1.2382   -8.2745    6.9694 H   0  0  0  0  0  0  0  0  0  0  0  0
    2.2335   -9.4433    5.5177 C   0  0  2  0  0  0  0  0  0  0  0  0
    1.8443  -10.3349    6.0088 H   0  0  0  0  0  0  0  0  0  0  0  0
    3.4578   -9.7161    4.6770 C   0  0  0  0  0  0  0  0  0  0  0  0
    3.2799  -10.6429    4.1223 H   0  0  0  0  0  0  0  0  0  0  0  0
    4.3002   -9.9042    5.3518 H   0  0  0  0  0  0  0  0  0  0  0  0
    3.8215   -8.6014    3.6898 C   0  0  2  0  0  0  0  0  0  0  0  0
    4.5228   -8.9976    2.9444 H   0  0  0  0  0  0  0  0  0  0  0  0
    4.4957   -7.4007    4.3541 C   0  0  0  0  0  0  0  0  0  0  0  0
    5.3558   -7.7534    4.9357 H   0  0  0  0  0  0  0  0  0  0  0  0
    4.8959   -6.7472    3.5733 H   0  0  0  0  0  0  0  0  0  0  0  0
    3.6261   -6.5712    5.2437 C   0  0  0  0  0  0  0  0  0  0  0  0
    3.9492   -5.5407    5.3209 H   0  0  0  0  0  0  0  0  0  0  0  0
    2.5583   -6.9317    5.9634 C   0  0  0  0  0  0  0  0  0  0  0  0
    2.1006   -6.1552    6.5649 H   0  0  0  0  0  0  0  0  0  0  0  0
    2.2088   -8.9986    1.2569 C   0  0  0  0  0  0  0  0  0  0  0  0
    2.8631  -10.2076    1.0424 C   0  0  0  0  0  0  0  0  0  0  0  0
    3.4643  -10.6542    1.8212 H   0  0  0  0  0  0  0  0  0  0  0  0
    2.7424  -10.8525   -0.1759 C   0  0  0  0  0  0  0  0  0  0  0  0
    3.2565  -11.7883   -0.3391 H   0  0  0  0  0  0  0  0  0  0  0  0
    1.9590  -10.3074   -1.1793 C   0  0  0  0  0  0  0  0  0  0  0  0
    1.8641  -10.8176   -2.1261 H   0  0  0  0  0  0  0  0  0  0  0  0
    1.2887   -9.1137   -0.9629 C   0  0  0  0  0  0  0  0  0  0  0  0
    0.6659   -8.6942   -1.7385 H   0  0  0  0  0  0  0  0  0  0  0  0
    1.4083   -8.4617    0.2489 C   0  0  0  0  0  0  0  0  0  0  0  0
    0.8731   -7.5408    0.4319 H   0  0  0  0  0  0  0  0  0  0  0  0
    2.4132   -6.3941    2.3447 C   0  0  0  0  0  0  0  0  0  0  0  0
    1.5744   -5.4474    2.9202 C   0  0  0  0  0  0  0  0  0  0  0  0
    0.8242   -5.7739    3.6337 H   0  0  0  0  0  0  0  0  0  0  0  0
    1.6935   -4.1154    2.5666 C   0  0  0  0  0  0  0  0  0  0  0  0
    1.0394   -3.3788    3.0084 H   0  0  0  0  0  0  0  0  0  0  0  0
    2.6504   -3.7293    1.6420 C   0  0  0  0  0  0  0  0  0  0  0  0
    2.7446   -2.6897    1.3655 H   0  0  0  0  0  0  0  0  0  0  0  0
    3.4839   -4.6738    1.0617 C   0  0  0  0  0  0  0  0  0  0  0  0
    4.2229   -4.3687    0.3353 H   0  0  0  0  0  0  0  0  0  0  0  0
    3.3668   -6.0072    1.4075 C   0  0  0  0  0  0  0  0  0  0  0  0
    4.0034   -6.7522    0.9487 H   0  0  0  0  0  0  0  0  0  0  0  0
    2.2282   -8.1244    2.8432 P   0  0  0  0  0  0  0  0  0  0  0  0
   -1.0913   -9.0504    5.8417 Cl  0  0  0  0  0 15  0  0  0  0  0  0
   -0.9158   -8.2483    2.7481 Cl  0  0  0  0  0 15  0  0  0  0  0  0
    0.6046   -8.5676    4.3818 Pt  0  0  0  0  0  0  0  0  0  0  0  0
  1  2  1  0  0  0  0
  3  4  1  1  0  0  0
  3  1  1  0  0  0  0
  5  7  1  0  0  0  0
  5  3  1  0  0  0  0
  6  5  1  0  0  0  0
  8  9  1  6  0  0  0
  8 10  1  0  0  0  0
  8  5  1  0  0  0  0
 10 11  1  0  0  0  0
 10 13  1  0  0  0  0
 12 10  1  0  0  0  0
 13 14  1  0  0  0  0
 13 15  2  0  0  0  0
 15  1  1  0  0  0  0
 15 16  1  0  0  0  0
 17 39  1  0  0  0  0
 18 17  1  0  0  0  0
 18 19  1  0  0  0  0
 20 18  2  0  0  0  0
 21 20  1  0  0  0  0
 22 24  2  0  0  0  0
 22 20  1  0  0  0  0
 23 22  1  0  0  0  0
 24 26  1  0  0  0  0
 25 24  1  0  0  0  0
 26 27  1  0  0  0  0
 26 17  2  0  0  0  0
 28 39  1  0  0  0  0
 28 29  1  0  0  0  0
 29 30  1  0  0  0  0
 31 29  2  0  0  0  0
 31 32  1  0  0  0  0
 33 31  1  0  0  0  0
 34 33  1  0  0  0  0
 35 37  1  0  0  0  0
 35 33  2  0  0  0  0
 36 35  1  0  0  0  0
 37 28  2  0  0  0  0
 38 37  1  0  0  0  0
 39  8  1  0  0  0  0
 42  3  1  0  0  0  0
M  END
$$$$
