CSD_code = SEJVAH | q = 1 | S = 0 | Stoichiometry = C10H12Cl2N3O2Ru(1+) | MND = 6
 OpenBabel04212202093D

 30 30  0  0  0  0  0  0  0  0999 V2000
    0.4555    6.2196    5.4938 Ru  0  0  0  0  0  0  0  0  0  0  0  0
   -0.9906    4.9903    4.1312 Cl  0  0  0  0  0  0  0  0  0  0  0  0
    1.8199    7.9783    6.2261 Cl  0  0  0  0  0  0  0  0  0  0  0  0
    0.5924    5.1797    6.7920 N   0  0  0  0  0  2  0  0  0  0  0  0
    0.2703    7.6374    3.7509 O   0  0  0  0  0  0  0  0  0  0  0  0
   -1.1310    7.2657    6.3375 N   0  0  0  0  0  0  0  0  0  0  0  0
    2.0419    5.2921    4.4791 N   0  0  0  0  0  0  0  0  0  0  0  0
   -2.1598    7.6571    5.5878 C   0  0  0  0  0  3  0  0  0  0  0  0
   -2.1677    7.3353    4.5533 H   0  0  0  0  0  0  0  0  0  0  0  0
    0.6968    4.4643    7.6794 O   0  0  0  0  0  1  0  0  0  0  0  0
    3.0302    6.0019    3.9342 C   0  0  0  0  0  3  0  0  0  0  0  0
    3.0232    7.0714    4.1092 H   0  0  0  0  0  0  0  0  0  0  0  0
   -1.0989    7.6210    7.6239 C   0  0  0  0  0  0  0  0  0  0  0  0
   -0.2450    7.3025    8.2112 H   0  0  0  0  0  0  0  0  0  0  0  0
   -3.1982    8.4204    6.0947 C   0  0  0  0  0  0  0  0  0  0  0  0
   -4.0108    8.7115    5.4488 H   0  0  0  0  0  0  0  0  0  0  0  0
    4.0611    4.0391    3.0473 C   0  0  0  0  0  0  0  0  0  0  0  0
    4.8458    3.5516    2.4903 H   0  0  0  0  0  0  0  0  0  0  0  0
    2.0457    3.9650    4.3286 C   0  0  0  0  0  0  0  0  0  0  0  0
    1.2279    3.4096    4.7721 H   0  0  0  0  0  0  0  0  0  0  0  0
    3.0353    3.3041    3.6223 C   0  0  0  0  0  0  0  0  0  0  0  0
    2.9965    2.2309    3.5300 H   0  0  0  0  0  0  0  0  0  0  0  0
   -2.0987    8.3800    8.2057 C   0  0  0  0  0  0  0  0  0  0  0  0
   -2.0309    8.6403    9.2495 H   0  0  0  0  0  0  0  0  0  0  0  0
   -3.1715    8.7922    7.4292 C   0  0  0  0  0  0  0  0  0  0  0  0
   -3.9653    9.3860    7.8546 H   0  0  0  0  0  0  0  0  0  0  0  0
    4.0553    5.4154    3.2117 C   0  0  0  0  0  0  0  0  0  0  0  0
    4.8339    6.0324    2.7929 H   0  0  0  0  0  0  0  0  0  0  0  0
    0.0767    7.3208    2.8548 H   0  0  0  0  0  0  0  0  0  0  0  0
    0.8301    8.4299    3.7181 H   0  0  0  0  0  0  0  0  0  0  0  0
  1  3  1  0  0  0  0
  1  6  1  0  0  0  0
  1  4  1  0  0  0  0
  2  1  1  0  0  0  0
  4 10  1  0  0  0  0
  6 13  1  0  0  0  0
  7  1  1  0  0  0  0
  8 15  1  0  0  0  0
  8  6  1  0  0  0  0
  9  8  1  0  0  0  0
 11 12  1  0  0  0  0
 11  7  1  0  0  0  0
 13 23  2  0  0  0  0
 13 14  1  0  0  0  0
 15 25  2  0  0  0  0
 16 15  1  0  0  0  0
 17 27  2  0  0  0  0
 17 21  1  0  0  0  0
 18 17  1  0  0  0  0
 19  7  1  0  0  0  0
 19 20  1  0  0  0  0
 21 19  2  0  0  0  0
 22 21  1  0  0  0  0
 23 24  1  0  0  0  0
 25 26  1  0  0  0  0
 25 23  1  0  0  0  0
 27 11  1  0  0  0  0
 28 27  1  0  0  0  0
 29  5  1  0  0  0  0
 30  5  1  0  0  0  0
M  END
$$$$
