CSD_code = SEKCOC | q = 0 | S = 0 | Stoichiometry = C20H34Cl2NOPPd | MND = 4
 OpenBabel04212202093D

 60 61  0  0  1  0  0  0  0  0999 V2000
   -0.0656   11.2510    0.7306 Pd  0  0  0  0  0  0  0  0  0  0  0  0
    1.7790   11.7766   -0.4185 Cl  0  0  0  0  0  0  0  0  0  0  0  0
   -0.9528   10.3370   -1.1457 Cl  0  0  0  0  0  0  0  0  0  0  0  0
    0.7989   11.9229    2.6615 P   0  0  0  0  0  4  0  0  0  0  0  0
   -0.4821   11.6296    3.6964 O   0  0  0  0  0  0  0  0  0  0  0  0
   -1.7047   10.9023    1.9158 N   0  0  0  0  0  0  0  0  0  0  0  0
   -2.8949   10.4833    1.2860 C   0  0  0  0  0  0  0  0  0  0  0  0
   -3.0391    9.1283    0.9692 C   0  0  0  0  0  0  0  0  0  0  0  0
   -4.2048    8.7307    0.3322 C   0  0  0  0  0  0  0  0  0  0  0  0
   -4.3542    7.6922    0.0861 H   0  0  0  0  0  0  0  0  0  0  0  0
   -5.1701    9.6564   -0.0147 C   0  0  0  0  0  0  0  0  0  0  0  0
   -6.0685    9.3321   -0.5184 H   0  0  0  0  0  0  0  0  0  0  0  0
   -4.9793   11.0010    0.2467 C   0  0  0  0  0  0  0  0  0  0  0  0
   -5.7249   11.7100   -0.0739 H   0  0  0  0  0  0  0  0  0  0  0  0
   -3.8420   11.4432    0.9050 C   0  0  0  0  0  0  0  0  0  0  0  0
   -3.5621   12.9145    1.1310 C   0  0  0  0  0  0  0  0  0  0  0  0
   -3.0177   13.0272    2.0772 H   0  0  0  0  0  0  0  0  0  0  0  0
   -2.6647   13.4361   -0.0008 C   0  0  0  0  0  0  0  0  0  0  0  0
   -1.6969   12.8996   -0.0284 H   0  0  0  0  0  0  0  0  0  0  0  0
   -2.4696   14.4988    0.1327 H   0  0  0  0  0  0  0  0  0  0  0  0
   -3.1532   13.2852   -0.9607 H   0  0  0  0  0  0  0  0  0  0  0  0
   -4.8294   13.7630    1.2310 C   0  0  0  0  0  0  0  0  0  0  0  0
   -5.3177   13.8513    0.2645 H   0  0  0  0  0  0  0  0  0  0  0  0
   -4.5732   14.7659    1.5665 H   0  0  0  0  0  0  0  0  0  0  0  0
   -5.5307   13.3305    1.9417 H   0  0  0  0  0  0  0  0  0  0  0  0
   -1.9284    8.1581    1.3046 C   0  0  0  0  0  0  0  0  0  0  0  0
   -0.9792    8.7259    1.2996 H   0  0  0  0  0  0  0  0  0  0  0  0
   -1.7846    7.0548    0.2588 C   0  0  0  0  0  0  0  0  0  0  0  0
   -2.6224    6.3624    0.2868 H   0  0  0  0  0  0  0  0  0  0  0  0
   -0.8738    6.4901    0.4465 H   0  0  0  0  0  0  0  0  0  0  0  0
   -1.7172    7.4990   -0.7306 H   0  0  0  0  0  0  0  0  0  0  0  0
   -2.1389    7.5571    2.6972 C   0  0  0  0  0  0  0  0  0  0  0  0
   -2.1496    8.3297    3.4639 H   0  0  0  0  0  0  0  0  0  0  0  0
   -1.3414    6.8534    2.9266 H   0  0  0  0  0  0  0  0  0  0  0  0
   -3.0878    7.0253    2.7350 H   0  0  0  0  0  0  0  0  0  0  0  0
   -1.6294   11.1798    3.1551 C   0  0  2  0  0  3  0  0  0  0  0  0
   -2.7455   11.0629    4.1480 C   0  0  0  0  0  0  0  0  0  0  0  0
   -3.0396   12.0556    4.4870 H   0  0  0  0  0  0  0  0  0  0  0  0
   -2.4028   10.5058    5.0179 H   0  0  0  0  0  0  0  0  0  0  0  0
   -3.6021   10.5688    3.6974 H   0  0  0  0  0  0  0  0  0  0  0  0
    1.2322   13.6555    3.1371 C   0  0  0  0  0  0  0  0  0  0  0  0
    2.2075   13.8437    2.6759 H   0  0  0  0  0  0  0  0  0  0  0  0
    1.3077   13.8669    4.6433 C   0  0  0  0  0  0  0  0  0  0  0  0
    1.5294   14.9103    4.8605 H   0  0  0  0  0  0  0  0  0  0  0  0
    2.0883   13.2528    5.0862 H   0  0  0  0  0  0  0  0  0  0  0  0
    0.3598   13.6123    5.1128 H   0  0  0  0  0  0  0  0  0  0  0  0
    0.1954   14.5519    2.4611 C   0  0  0  0  0  0  0  0  0  0  0  0
   -0.7894   14.4008    2.9045 H   0  0  0  0  0  0  0  0  0  0  0  0
    0.1421   14.3125    1.3935 H   0  0  0  0  0  0  0  0  0  0  0  0
    0.4608   15.6017    2.5677 H   0  0  0  0  0  0  0  0  0  0  0  0
    2.0701   10.7818    3.3694 C   0  0  0  0  0  0  0  0  0  0  0  0
    2.0387   10.8181    4.4651 H   0  0  0  0  0  0  0  0  0  0  0  0
    3.4394   11.1902    2.8378 C   0  0  0  0  0  0  0  0  0  0  0  0
    4.1774   10.4250    3.0705 H   0  0  0  0  0  0  0  0  0  0  0  0
    3.7729   12.1282    3.2765 H   0  0  0  0  0  0  0  0  0  0  0  0
    3.3907   11.3067    1.7540 H   0  0  0  0  0  0  0  0  0  0  0  0
    1.6908    9.3835    2.8773 C   0  0  0  0  0  0  0  0  0  0  0  0
    1.6280    9.3821    1.7760 H   0  0  0  0  0  0  0  0  0  0  0  0
    0.7294    9.0720    3.2909 H   0  0  0  0  0  0  0  0  0  0  0  0
    2.4417    8.6539    3.1758 H   0  0  0  0  0  0  0  0  0  0  0  0
  1  6  1  0  0  0  0
  1  4  1  0  0  0  0
  2  1  1  0  0  0  0
  3  1  1  0  0  0  0
  4 41  1  0  0  0  0
  4 51  1  0  0  0  0
  4  5  1  0  0  0  0
  6 36  1  0  0  0  0
  7  6  1  0  0  0  0
  8  7  1  0  0  0  0
  8 26  1  0  0  0  0
  9  8  2  0  0  0  0
 10  9  1  0  0  0  0
 11 13  2  0  0  0  0
 11  9  1  0  0  0  0
 12 11  1  0  0  0  0
 13 15  1  0  0  0  0
 14 13  1  0  0  0  0
 15 16  1  0  0  0  0
 15  7  2  0  0  0  0
 16 22  1  0  0  0  0
 16 17  1  0  0  0  0
 18 20  1  0  0  0  0
 18 16  1  0  0  0  0
 19 18  1  0  0  0  0
 21 18  1  0  0  0  0
 22 24  1  0  0  0  0
 22 25  1  0  0  0  0
 23 22  1  0  0  0  0
 26 32  1  0  0  0  0
 27 26  1  0  0  0  0
 28 29  1  0  0  0  0
 28 30  1  0  0  0  0
 28 26  1  0  0  0  0
 31 28  1  0  0  0  0
 32 35  1  0  0  0  0
 32 34  1  0  0  0  0
 32 33  1  0  0  0  0
 36  5  1  0  0  0  0
 36 37  1  6  0  0  0
 37 38  1  0  0  0  0
 37 39  1  0  0  0  0
 40 37  1  0  0  0  0
 41 43  1  0  0  0  0
 42 41  1  0  0  0  0
 43 44  1  0  0  0  0
 43 45  1  0  0  0  0
 43 46  1  0  0  0  0
 47 50  1  0  0  0  0
 47 48  1  0  0  0  0
 47 41  1  0  0  0  0
 49 47  1  0  0  0  0
 51 52  1  0  0  0  0
 53 54  1  0  0  0  0
 53 55  1  0  0  0  0
 53 51  1  0  0  0  0
 56 53  1  0  0  0  0
 57 60  1  0  0  0  0
 57 59  1  0  0  0  0
 57 51  1  0  0  0  0
 58 57  1  0  0  0  0
M  END
$$$$
