CSD_code = SEKCAO | q = 0 | S = 0 | Stoichiometry = C20H34Br2NNiOP | MND = 4
 OpenBabel04212202093D

 60 61  0  0  1  0  0  0  0  0999 V2000
    4.4138   10.9187   14.2714 Ni  0  0  0  0  0  0  0  0  0  0  0  0
    3.5187   10.7100   16.3141 Br  0  0  0  0  0  0  0  0  0  0  0  0
    6.4425   11.4092   15.0497 Br  0  0  0  0  0  0  0  0  0  0  0  0
    5.2230   10.3581   12.3717 P   0  0  0  0  0  4  0  0  0  0  0  0
    3.8542   10.2561   11.4143 O   0  0  0  0  0  0  0  0  0  0  0  0
    2.6544   10.8720   13.2425 N   0  0  0  0  0  0  0  0  0  0  0  0
    1.4614   11.2963   13.8736 C   0  0  0  0  0  0  0  0  0  0  0  0
    0.4275   10.3916   14.1332 C   0  0  0  0  0  0  0  0  0  0  0  0
   -0.7113   10.8700   14.7663 C   0  0  0  0  0  0  0  0  0  0  0  0
   -1.5198   10.1911   14.9864 H   0  0  0  0  0  0  0  0  0  0  0  0
   -0.8223   12.1980   15.1261 C   0  0  0  0  0  0  0  0  0  0  0  0
   -1.7213   12.5527   15.6070 H   0  0  0  0  0  0  0  0  0  0  0  0
    0.2275   13.0693   14.9018 C   0  0  0  0  0  0  0  0  0  0  0  0
    0.1407   14.0957   15.2180 H   0  0  0  0  0  0  0  0  0  0  0  0
    1.3924   12.6331   14.2921 C   0  0  0  0  0  0  0  0  0  0  0  0
    2.5672   13.5616   14.0751 C   0  0  0  0  0  0  0  0  0  0  0  0
    3.5032   12.9546   14.0849 H   0  0  0  0  0  0  0  0  0  0  0  0
    2.7179   14.5998   15.1842 C   0  0  0  0  0  0  0  0  0  0  0  0
    1.9369   15.3546   15.1309 H   0  0  0  0  0  0  0  0  0  0  0  0
    3.6782   15.1019   15.0868 H   0  0  0  0  0  0  0  0  0  0  0  0
    2.6815   14.1166   16.1575 H   0  0  0  0  0  0  0  0  0  0  0  0
    2.4600   14.2397   12.7071 C   0  0  0  0  0  0  0  0  0  0  0  0
    2.4218   13.5049   11.9035 H   0  0  0  0  0  0  0  0  0  0  0  0
    3.3156   14.8910   12.5403 H   0  0  0  0  0  0  0  0  0  0  0  0
    1.5534   14.8402   12.6606 H   0  0  0  0  0  0  0  0  0  0  0  0
    0.5602    8.9177   13.8272 C   0  0  0  0  0  0  0  0  0  0  0  0
    1.4643    8.7525   13.2312 H   0  0  0  0  0  0  0  0  0  0  0  0
    0.7235    8.1450   15.1395 C   0  0  0  0  0  0  0  0  0  0  0  0
    1.5708    8.5289   15.7022 H   0  0  0  0  0  0  0  0  0  0  0  0
    0.8854    7.0883   14.9369 H   0  0  0  0  0  0  0  0  0  0  0  0
   -0.1646    8.2488   15.7568 H   0  0  0  0  0  0  0  0  0  0  0  0
   -0.6333    8.3852   13.0313 C   0  0  0  0  0  0  0  0  0  0  0  0
   -0.4447    7.3593   12.7213 H   0  0  0  0  0  0  0  0  0  0  0  0
   -0.8161    8.9883   12.1436 H   0  0  0  0  0  0  0  0  0  0  0  0
   -1.5353    8.3910   13.6366 H   0  0  0  0  0  0  0  0  0  0  0  0
    2.6995   10.6097   11.9975 C   0  0  1  0  0  3  0  0  0  0  0  0
    1.5534   10.6821   11.0393 C   0  0  0  0  0  0  0  0  0  0  0  0
    0.7260   11.2362   11.4758 H   0  0  0  0  0  0  0  0  0  0  0  0
    1.2184    9.6748   10.7942 H   0  0  0  0  0  0  0  0  0  0  0  0
    1.8851   11.1573   10.1178 H   0  0  0  0  0  0  0  0  0  0  0  0
    5.7744    8.5873   12.3853 C   0  0  0  0  0  0  0  0  0  0  0  0
    6.7810    8.5981   12.8193 H   0  0  0  0  0  0  0  0  0  0  0  0
    4.8430    7.8340   13.3361 C   0  0  0  0  0  0  0  0  0  0  0  0
    3.8382    7.7620   12.9175 H   0  0  0  0  0  0  0  0  0  0  0  0
    4.7803    8.3454   14.3059 H   0  0  0  0  0  0  0  0  0  0  0  0
    5.2072    6.8249   13.5181 H   0  0  0  0  0  0  0  0  0  0  0  0
    5.8045    7.9576   10.9989 C   0  0  0  0  0  0  0  0  0  0  0  0
    6.0718    6.9052   11.0809 H   0  0  0  0  0  0  0  0  0  0  0  0
    6.5345    8.4434   10.3554 H   0  0  0  0  0  0  0  0  0  0  0  0
    4.8265    8.0244   10.5248 H   0  0  0  0  0  0  0  0  0  0  0  0
    6.3123   11.2495   11.1708 C   0  0  0  0  0  0  0  0  0  0  0  0
    6.0852   10.8415   10.1778 H   0  0  0  0  0  0  0  0  0  0  0  0
    5.9240   12.7260   11.2219 C   0  0  0  0  0  0  0  0  0  0  0  0
    6.1153   13.1268   12.2177 H   0  0  0  0  0  0  0  0  0  0  0  0
    4.8680   12.8616   10.9862 H   0  0  0  0  0  0  0  0  0  0  0  0
    6.5082   13.3010   10.5063 H   0  0  0  0  0  0  0  0  0  0  0  0
    7.7855   11.0615   11.5083 C   0  0  0  0  0  0  0  0  0  0  0  0
    8.3940   11.6636   10.8358 H   0  0  0  0  0  0  0  0  0  0  0  0
    8.0925   10.0234   11.4030 H   0  0  0  0  0  0  0  0  0  0  0  0
    7.9875   11.3819   12.5288 H   0  0  0  0  0  0  0  0  0  0  0  0
  1  3  1  0  0  0  0
  1  2  1  0  0  0  0
  4 41  1  0  0  0  0
  4  1  1  0  0  0  0
  5 36  1  0  0  0  0
  5  4  1  0  0  0  0
  6  7  1  0  0  0  0
  6  1  1  0  0  0  0
  7  8  2  0  0  0  0
  7 15  1  0  0  0  0
  8  9  1  0  0  0  0
  9 10  1  0  0  0  0
  9 11  2  0  0  0  0
 11 12  1  0  0  0  0
 13 11  1  0  0  0  0
 13 14  1  0  0  0  0
 15 13  2  0  0  0  0
 16 17  1  0  0  0  0
 16 15  1  0  0  0  0
 16 18  1  0  0  0  0
 18 21  1  0  0  0  0
 19 18  1  0  0  0  0
 20 18  1  0  0  0  0
 22 16  1  0  0  0  0
 23 22  1  0  0  0  0
 24 22  1  0  0  0  0
 25 22  1  0  0  0  0
 26  8  1  0  0  0  0
 26 28  1  0  0  0  0
 27 26  1  0  0  0  0
 28 29  1  0  0  0  0
 28 31  1  0  0  0  0
 30 28  1  0  0  0  0
 32 35  1  0  0  0  0
 32 26  1  0  0  0  0
 33 32  1  0  0  0  0
 34 32  1  0  0  0  0
 36 37  1  6  0  0  0
 36  6  1  0  0  0  0
 37 38  1  0  0  0  0
 39 37  1  0  0  0  0
 40 37  1  0  0  0  0
 41 42  1  0  0  0  0
 41 43  1  0  0  0  0
 43 46  1  0  0  0  0
 43 45  1  0  0  0  0
 44 43  1  0  0  0  0
 47 48  1  0  0  0  0
 47 41  1  0  0  0  0
 49 47  1  0  0  0  0
 50 47  1  0  0  0  0
 51 53  1  0  0  0  0
 51 57  1  0  0  0  0
 51  4  1  0  0  0  0
 52 51  1  0  0  0  0
 53 54  1  0  0  0  0
 55 53  1  0  0  0  0
 56 53  1  0  0  0  0
 57 60  1  0  0  0  0
 58 57  1  0  0  0  0
 59 57  1  0  0  0  0
M  END
$$$$
