CSD_code = SEKNAY | q = 0 | S = 0 | Stoichiometry = C14H16ClN3OPt | MND = 4
 OpenBabel04212202093D

 36 39  0  0  1  0  0  0  0  0999 V2000
    1.4261    3.9854   21.8420 C   0  0  0  0  0  0  0  0  0  0  0  0
    1.5219    5.0388   21.6113 H   0  0  0  0  0  0  0  0  0  0  0  0
    1.5352    3.5245   23.1600 C   0  0  0  0  0  0  0  0  0  0  0  0
    1.7169    4.2356   23.9499 H   0  0  0  0  0  0  0  0  0  0  0  0
    1.4098    2.1862   23.4237 C   0  0  0  0  0  0  0  0  0  0  0  0
    1.4889    1.8040   24.4307 H   0  0  0  0  0  0  0  0  0  0  0  0
    1.1737    1.2877   22.3612 C   0  0  0  0  0  0  0  0  0  0  0  0
    1.0370   -0.1042   22.5231 C   0  0  0  0  0  0  0  0  0  0  0  0
    1.1104   -0.5225   23.5152 H   0  0  0  0  0  0  0  0  0  0  0  0
    0.8170   -0.9090   21.4329 C   0  0  0  0  0  0  0  0  0  0  0  0
    0.7168   -1.9757   21.5684 H   0  0  0  0  0  0  0  0  0  0  0  0
    0.7156   -0.3871   20.1421 C   0  0  0  0  0  0  0  0  0  0  0  0
    0.5462   -1.0330   19.2961 H   0  0  0  0  0  0  0  0  0  0  0  0
    0.8349    0.9768   19.9372 C   0  0  0  0  0  0  0  0  0  0  0  0
    1.0709    1.8317   21.0570 C   0  0  2  0  0  3  0  0  0  0  0  0
    0.7082    1.1342   17.5052 C   0  0  0  0  0  0  0  0  0  0  0  0
    0.8628    2.2334   16.4184 C   0  0  2  0  0  0  0  0  0  0  0  0
    0.2262    1.9497   15.5684 H   0  0  0  0  0  0  0  0  0  0  0  0
    2.3281    2.2232   15.9307 C   0  0  0  0  0  0  0  0  0  0  0  0
    2.5160    1.2042   15.5765 H   0  0  0  0  0  0  0  0  0  0  0  0
    3.3144    2.5376   17.0548 C   0  0  0  0  0  0  0  0  0  0  0  0
    3.0739    3.4873   17.5483 H   0  0  0  0  0  0  0  0  0  0  0  0
    4.3197    2.6216   16.6490 H   0  0  0  0  0  0  0  0  0  0  0  0
    3.3182    1.7434   17.7983 H   0  0  0  0  0  0  0  0  0  0  0  0
    2.5289    3.1859   14.7585 C   0  0  0  0  0  0  0  0  0  0  0  0
    2.5196    4.2241   15.0871 H   0  0  0  0  0  0  0  0  0  0  0  0
    1.7613    3.0469   13.9997 H   0  0  0  0  0  0  0  0  0  0  0  0
    3.4952    3.0019   14.2964 H   0  0  0  0  0  0  0  0  0  0  0  0
    1.0909    5.8762   19.0272 Cl  0  0  0  0  0  0  0  0  0  0  0  0
    1.2018    3.1735   20.8278 N   0  0  0  0  0  0  0  0  0  0  0  0
    0.7732    1.6486   18.7429 N   0  0  0  0  0  0  0  0  0  0  0  0
    0.4788    3.5719   16.9252 N   0  0  0  0  0  4  0  0  0  0  0  0
   -0.5366    3.6898   16.8680 H   0  0  0  0  0  0  0  0  0  0  0  0
    0.9010    4.3040   16.3498 H   0  0  0  0  0  0  0  0  0  0  0  0
    0.5962   -0.0372   17.1882 O   0  0  0  0  0  0  0  0  0  0  0  0
    0.9292    3.5968   18.9318 Pt  0  0  2  0  0  0  0  0  0  0  0  0
  1  3  2  0  0  0  0
  2  1  1  0  0  0  0
  3  5  1  0  0  0  0
  3  4  1  0  0  0  0
  5  6  1  0  0  0  0
  7  8  1  0  0  0  0
  7  5  2  0  0  0  0
  8  9  1  0  0  0  0
 10 11  1  0  0  0  0
 10  8  2  0  0  0  0
 12 10  1  0  0  0  0
 13 12  1  0  0  0  0
 14 12  2  0  0  0  0
 15 14  1  6  0  0  0
 15  7  1  0  0  0  0
 16 31  1  0  0  0  0
 17 18  1  6  0  0  0
 17 32  1  0  0  0  0
 17 16  1  0  0  0  0
 19 17  1  0  0  0  0
 19 21  1  0  0  0  0
 20 19  1  0  0  0  0
 21 22  1  0  0  0  0
 21 24  1  0  0  0  0
 23 21  1  0  0  0  0
 25 26  1  0  0  0  0
 25 19  1  0  0  0  0
 27 25  1  0  0  0  0
 28 25  1  0  0  0  0
 30 15  1  0  0  0  0
 30  1  1  0  0  0  0
 31 36  1  0  0  0  0
 31 14  1  0  0  0  0
 32 36  1  0  0  0  0
 33 32  1  0  0  0  0
 34 32  1  0  0  0  0
 35 16  2  0  0  0  0
 36 29  1  6  0  0  0
 36 30  1  0  0  0  0
M  END
$$$$
