CSD_code = SEKSAE | q = 0 | S = 0 | Stoichiometry = C11H12AuClN2 | MND = 2
 OpenBabel04212202093D

 27 29  0  0  0  0  0  0  0  0999 V2000
   11.6849    0.0994    8.0475 Au  0  0  0  0  0  0  0  0  0  0  0  0
   11.4597   -2.1178    7.7903 Cl  0  0  0  0  0  0  0  0  0  0  0  0
   13.0198    2.6672    8.6995 N   0  0  0  0  0  0  0  0  0  0  0  0
   12.8648    4.0304    8.8268 N   0  0  0  0  0  0  0  0  0  0  0  0
   11.9213    2.0544    8.2806 C   0  0  0  0  0  0  0  0  0  0  0  0
   10.9798    3.1025    8.0584 C   0  0  0  0  0  0  0  0  0  0  0  0
    9.6595    3.0986    7.6060 C   0  0  0  0  0  3  0  0  0  0  0  0
    9.1801    2.1636    7.3630 H   0  0  0  0  0  0  0  0  0  0  0  0
    9.0113    4.3050    7.4857 C   0  0  0  0  0  0  0  0  0  0  0  0
    7.9906    4.3349    7.1370 H   0  0  0  0  0  0  0  0  0  0  0  0
    9.6515    5.5085    7.8061 C   0  0  0  0  0  0  0  0  0  0  0  0
    9.1084    6.4349    7.6940 H   0  0  0  0  0  0  0  0  0  0  0  0
   10.9525    5.5434    8.2573 C   0  0  0  0  0  0  0  0  0  0  0  0
   11.4367    6.4766    8.5008 H   0  0  0  0  0  0  0  0  0  0  0  0
   11.6113    4.3249    8.3865 C   0  0  0  0  0  0  0  0  0  0  0  0
   13.9795    4.9409    8.9049 C   0  0  0  0  0  0  0  0  0  0  0  0
   13.6448    5.8347    9.4379 H   0  0  0  0  0  0  0  0  0  0  0  0
   14.2840    5.2392    7.8912 H   0  0  0  0  0  0  0  0  0  0  0  0
   15.1564    4.2885    9.6206 C   0  0  0  0  0  0  0  0  0  0  0  0
   16.0264    4.9397    9.5441 H   0  0  0  0  0  0  0  0  0  0  0  0
   14.9225    4.1538   10.6785 H   0  0  0  0  0  0  0  0  0  0  0  0
   15.4319    2.9321    8.9797 C   0  0  0  0  0  0  0  0  0  0  0  0
   15.6250    3.0566    7.9122 H   0  0  0  0  0  0  0  0  0  0  0  0
   16.3047    2.4617    9.4303 H   0  0  0  0  0  0  0  0  0  0  0  0
   14.2180    2.0351    9.1899 C   0  0  0  0  0  0  0  0  0  0  0  0
   14.3214    1.0806    8.6702 H   0  0  0  0  0  0  0  0  0  0  0  0
   14.0963    1.8258   10.2604 H   0  0  0  0  0  0  0  0  0  0  0  0
  1  5  1  0  0  0  0
  2  1  1  0  0  0  0
  3  4  1  0  0  0  0
  3 25  1  0  0  0  0
  4 16  1  0  0  0  0
  5  3  1  0  0  0  0
  6  5  2  0  0  0  0
  6 15  1  0  0  0  0
  7  6  1  0  0  0  0
  8  7  1  0  0  0  0
  9  7  1  0  0  0  0
  9 11  2  0  0  0  0
 10  9  1  0  0  0  0
 11 13  1  0  0  0  0
 12 11  1  0  0  0  0
 13 15  2  0  0  0  0
 13 14  1  0  0  0  0
 15  4  1  0  0  0  0
 16 17  1  0  0  0  0
 16 19  1  0  0  0  0
 18 16  1  0  0  0  0
 19 21  1  0  0  0  0
 20 19  1  0  0  0  0
 22 25  1  0  0  0  0
 22 24  1  0  0  0  0
 22 19  1  0  0  0  0
 23 22  1  0  0  0  0
 25 27  1  0  0  0  0
 26 25  1  0  0  0  0
M  END
$$$$
