CSD_code = SEKWAJ | q = 0 | S = 0 | Stoichiometry = C17H40ClN3OP2Ru | MND = 6
 OpenBabel04212202093D

 65 66  0  0  0  0  0  0  0  0999 V2000
    2.7585    7.5213    4.9364 Ru  0  0  0  0  0  0  0  0  0  0  0  0
    3.4262    6.5036    5.8394 H   0  0  0  0  0  0  0  0  0  0  0  0
    1.5859    9.2040    3.6942 Cl  0  0  0  0  0  0  0  0  0  0  0  0
    1.6065    5.7670    3.9590 P   0  0  0  0  0  4  0  0  0  0  0  0
    3.8748    9.2008    6.1008 P   0  0  0  0  0  4  0  0  0  0  0  0
    4.0792    7.4224    3.6759 C   0  0  0  0  0  2  0  0  0  0  0  0
    4.9010    7.3766    2.8678 O   0  0  0  0  0  1  0  0  0  0  0  0
    1.0377    8.7691    6.0546 H   0  0  0  0  0  0  0  0  0  0  0  0
    1.0527    7.8096    6.4296 N   0  0  0  0  0  4  0  0  0  0  0  0
   -0.2977    7.2694    6.2155 C   0  0  0  0  0  0  0  0  0  0  0  0
   -1.0424    7.9600    6.6402 H   0  0  0  0  0  0  0  0  0  0  0  0
   -0.3736    6.3178    6.7579 H   0  0  0  0  0  0  0  0  0  0  0  0
   -0.6490    7.0172    4.7434 C   0  0  0  0  0  0  0  0  0  0  0  0
   -1.7381    6.9459    4.6528 H   0  0  0  0  0  0  0  0  0  0  0  0
   -0.3078    7.8583    4.1331 H   0  0  0  0  0  0  0  0  0  0  0  0
   -0.0721    5.8002    4.1996 N   0  0  0  0  0  0  0  0  0  0  0  0
   -0.4078    4.9805    4.6975 H   0  0  0  0  0  0  0  0  0  0  0  0
    2.0066    4.0548    4.5760 C   0  0  0  0  0  0  0  0  0  0  0  0
    1.3235    3.3546    4.0802 H   0  0  0  0  0  0  0  0  0  0  0  0
    1.7959    3.9629    6.0836 C   0  0  0  0  0  0  0  0  0  0  0  0
    2.1282    2.9934    6.4514 H   0  0  0  0  0  0  0  0  0  0  0  0
    0.7469    4.0803    6.3546 H   0  0  0  0  0  0  0  0  0  0  0  0
    2.3741    4.7399    6.5819 H   0  0  0  0  0  0  0  0  0  0  0  0
    3.4505    3.7275    4.2160 C   0  0  0  0  0  0  0  0  0  0  0  0
    4.1043    4.5146    4.5932 H   0  0  0  0  0  0  0  0  0  0  0  0
    3.5844    3.6595    3.1391 H   0  0  0  0  0  0  0  0  0  0  0  0
    3.7516    2.7794    4.6594 H   0  0  0  0  0  0  0  0  0  0  0  0
    1.6993    5.5299    2.1059 C   0  0  0  0  0  0  0  0  0  0  0  0
    2.7681    5.4877    1.8595 H   0  0  0  0  0  0  0  0  0  0  0  0
    1.0875    6.7502    1.4261 C   0  0  0  0  0  0  0  0  0  0  0  0
    1.1915    6.6750    0.3446 H   0  0  0  0  0  0  0  0  0  0  0  0
    1.5800    7.6638    1.7485 H   0  0  0  0  0  0  0  0  0  0  0  0
    0.0287    6.8229    1.6696 H   0  0  0  0  0  0  0  0  0  0  0  0
    0.9942    4.2657    1.6223 C   0  0  0  0  0  0  0  0  0  0  0  0
   -0.0142    4.2223    2.0299 H   0  0  0  0  0  0  0  0  0  0  0  0
    1.5315    3.3616    1.8969 H   0  0  0  0  0  0  0  0  0  0  0  0
    0.9183    4.2885    0.5361 H   0  0  0  0  0  0  0  0  0  0  0  0
    1.2999    7.9030    7.8753 C   0  0  0  0  0  0  0  0  0  0  0  0
    0.9048    6.9980    8.3498 H   0  0  0  0  0  0  0  0  0  0  0  0
    0.7649    8.7682    8.2935 H   0  0  0  0  0  0  0  0  0  0  0  0
    2.7767    7.9937    8.2665 C   0  0  0  0  0  0  0  0  0  0  0  0
    2.8277    8.0304    9.3584 H   0  0  0  0  0  0  0  0  0  0  0  0
    3.2816    7.0825    7.9228 H   0  0  0  0  0  0  0  0  0  0  0  0
    3.3875    9.2003    7.7264 N   0  0  0  0  0  0  0  0  0  0  0  0
    4.0993    9.5798    8.3428 H   0  0  0  0  0  0  0  0  0  0  0  0
    3.6859   11.0354    5.8191 C   0  0  0  0  0  0  0  0  0  0  0  0
    4.3154   11.5168    6.5792 H   0  0  0  0  0  0  0  0  0  0  0  0
    2.2466   11.4823    6.0575 C   0  0  0  0  0  0  0  0  0  0  0  0
    2.1903   12.5699    6.0406 H   0  0  0  0  0  0  0  0  0  0  0  0
    1.8939   11.1356    7.0286 H   0  0  0  0  0  0  0  0  0  0  0  0
    1.5958   11.0998    5.2745 H   0  0  0  0  0  0  0  0  0  0  0  0
    4.1610   11.4191    4.4237 C   0  0  0  0  0  0  0  0  0  0  0  0
    3.5482   10.9218    3.6751 H   0  0  0  0  0  0  0  0  0  0  0  0
    5.1989   11.1338    4.2604 H   0  0  0  0  0  0  0  0  0  0  0  0
    4.0711   12.4945    4.2762 H   0  0  0  0  0  0  0  0  0  0  0  0
    5.7489    9.0301    6.1128 C   0  0  0  0  0  0  0  0  0  0  0  0
    6.0386    9.0441    5.0551 H   0  0  0  0  0  0  0  0  0  0  0  0
    6.5019   10.1320    6.8554 C   0  0  0  0  0  0  0  0  0  0  0  0
    6.1321   10.2532    7.8738 H   0  0  0  0  0  0  0  0  0  0  0  0
    6.4376   11.0885    6.3440 H   0  0  0  0  0  0  0  0  0  0  0  0
    7.5555    9.8624    6.9195 H   0  0  0  0  0  0  0  0  0  0  0  0
    6.1235    7.6670    6.6887 C   0  0  0  0  0  0  0  0  0  0  0  0
    7.1909    7.4876    6.5719 H   0  0  0  0  0  0  0  0  0  0  0  0
    5.5815    6.8781    6.1695 H   0  0  0  0  0  0  0  0  0  0  0  0
    5.8846    7.6174    7.7511 H   0  0  0  0  0  0  0  0  0  0  0  0
  1  2  1  0  0  0  0
  1  5  1  0  0  0  0
  1  9  1  0  0  0  0
  3  1  1  0  0  0  0
  4 16  1  0  0  0  0
  4 18  1  0  0  0  0
  4  1  1  0  0  0  0
  5 56  1  0  0  0  0
  5 44  1  0  0  0  0
  6  1  1  0  0  0  0
  7  6  1  0  0  0  0
  8  9  1  0  0  0  0
  9 38  1  0  0  0  0
 10  9  1  0  0  0  0
 10 11  1  0  0  0  0
 10 12  1  0  0  0  0
 13 10  1  0  0  0  0
 14 13  1  0  0  0  0
 15 13  1  0  0  0  0
 16 17  1  0  0  0  0
 16 13  1  0  0  0  0
 18 20  1  0  0  0  0
 19 18  1  0  0  0  0
 20 22  1  0  0  0  0
 20 21  1  0  0  0  0
 20 23  1  0  0  0  0
 24 18  1  0  0  0  0
 24 25  1  0  0  0  0
 24 27  1  0  0  0  0
 26 24  1  0  0  0  0
 28  4  1  0  0  0  0
 29 28  1  0  0  0  0
 30 33  1  0  0  0  0
 30 32  1  0  0  0  0
 30 28  1  0  0  0  0
 31 30  1  0  0  0  0
 34 36  1  0  0  0  0
 34 35  1  0  0  0  0
 34 28  1  0  0  0  0
 37 34  1  0  0  0  0
 38 41  1  0  0  0  0
 38 40  1  0  0  0  0
 38 39  1  0  0  0  0
 41 42  1  0  0  0  0
 43 41  1  0  0  0  0
 44 41  1  0  0  0  0
 44 45  1  0  0  0  0
 46 48  1  0  0  0  0
 46  5  1  0  0  0  0
 46 47  1  0  0  0  0
 48 50  1  0  0  0  0
 49 48  1  0  0  0  0
 51 48  1  0  0  0  0
 52 46  1  0  0  0  0
 53 52  1  0  0  0  0
 54 52  1  0  0  0  0
 55 52  1  0  0  0  0
 56 62  1  0  0  0  0
 56 58  1  0  0  0  0
 57 56  1  0  0  0  0
 58 61  1  0  0  0  0
 58 59  1  0  0  0  0
 60 58  1  0  0  0  0
 62 65  1  0  0  0  0
 63 62  1  0  0  0  0
 64 62  1  0  0  0  0
M  END
$$$$
