CSD_code = SELKIE | q = 0 | S = 0 | Stoichiometry = C14H16ClN2OReS2 | MND = 6
 OpenBabel04212202093D

 37 40  0  0  0  0  0  0  0  0999 V2000
    5.8289   10.5092   12.1533 Re  0  0  0  0  0  0  0  0  0  0  0  0
    7.3717   11.8177   12.9240 Cl  0  0  0  0  0  0  0  0  0  0  0  0
    4.7995   10.6563   14.6031 S   0  0  2  0  0  3  0  0  0  0  0  0
    4.9587   12.6819   10.8856 S   0  0  1  0  0  3  0  0  0  0  0  0
    4.3444    9.8491   11.7359 O   0  0  0  0  0  1  0  0  0  0  0  0
    6.6503    8.8793   12.9547 N   0  0  0  0  0  0  0  0  0  0  0  0
    7.2299    8.2404   12.4176 H   0  0  0  0  0  0  0  0  0  0  0  0
    6.7515   10.2619   10.4029 N   0  0  0  0  0  0  0  0  0  0  0  0
    7.3097    9.4392   10.1923 H   0  0  0  0  0  0  0  0  0  0  0  0
    5.7308    9.2268   15.1584 C   0  0  0  0  0  0  0  0  0  0  0  0
    6.5349    8.5099   14.2543 C   0  0  0  0  0  0  0  0  0  0  0  0
    7.2188    7.3905   14.7631 C   0  0  0  0  0  0  0  0  0  0  0  0
    7.8409    6.8183   14.0897 H   0  0  0  0  0  0  0  0  0  0  0  0
    7.1116    7.0265   16.0865 C   0  0  0  0  0  0  0  0  0  0  0  0
    7.6520    6.1629   16.4450 H   0  0  0  0  0  0  0  0  0  0  0  0
    6.3215    7.7593   16.9619 C   0  0  0  0  0  0  0  0  0  0  0  0
    6.2431    7.4747   17.9992 H   0  0  0  0  0  0  0  0  0  0  0  0
    5.6373    8.8640   16.4893 C   0  0  0  0  0  0  0  0  0  0  0  0
    5.0214    9.4551   17.1510 H   0  0  0  0  0  0  0  0  0  0  0  0
    3.1508    9.8795   14.4573 C   0  0  0  0  0  0  0  0  0  0  0  0
    2.4278   10.6856   14.3922 H   0  0  0  0  0  0  0  0  0  0  0  0
    2.9736    9.2776   15.3424 H   0  0  0  0  0  0  0  0  0  0  0  0
    3.1297    9.2767   13.5535 H   0  0  0  0  0  0  0  0  0  0  0  0
    5.9754   12.3377    9.4478 C   0  0  0  0  0  0  0  0  0  0  0  0
    6.7366   11.1566    9.3840 C   0  0  0  0  0  0  0  0  0  0  0  0
    7.4883   10.9488    8.2128 C   0  0  0  0  0  0  0  0  0  0  0  0
    8.0768   10.0457    8.1333 H   0  0  0  0  0  0  0  0  0  0  0  0
    7.4885   11.8697    7.1894 C   0  0  0  0  0  0  0  0  0  0  0  0
    8.0804   11.6813    6.3059 H   0  0  0  0  0  0  0  0  0  0  0  0
    6.7432   13.0372    7.2853 C   0  0  0  0  0  0  0  0  0  0  0  0
    6.7514   13.7605    6.4852 H   0  0  0  0  0  0  0  0  0  0  0  0
    5.9907   13.2654    8.4226 C   0  0  0  0  0  0  0  0  0  0  0  0
    5.4061   14.1676    8.5245 H   0  0  0  0  0  0  0  0  0  0  0  0
    3.3328   12.1948   10.2056 C   0  0  0  0  0  0  0  0  0  0  0  0
    2.5793   12.6073   10.8680 H   0  0  0  0  0  0  0  0  0  0  0  0
    3.2727   11.1101   10.1910 H   0  0  0  0  0  0  0  0  0  0  0  0
    3.2360   12.6131    9.2094 H   0  0  0  0  0  0  0  0  0  0  0  0
  1  2  1  0  0  0  0
  1  6  1  0  0  0  0
  1  3  1  0  0  0  0
  3 20  1  6  0  0  0
  3 10  1  0  0  0  0
  4 34  1  6  0  0  0
  4  1  1  0  0  0  0
  5  1  1  0  0  0  0
  6 11  1  0  0  0  0
  7  6  1  0  0  0  0
  8  1  1  0  0  0  0
  9  8  1  0  0  0  0
 10 18  1  0  0  0  0
 11 12  1  0  0  0  0
 11 10  2  0  0  0  0
 12 14  2  0  0  0  0
 13 12  1  0  0  0  0
 14 15  1  0  0  0  0
 14 16  1  0  0  0  0
 16 17  1  0  0  0  0
 18 16  2  0  0  0  0
 18 19  1  0  0  0  0
 20 22  1  0  0  0  0
 21 20  1  0  0  0  0
 23 20  1  0  0  0  0
 24  4  1  0  0  0  0
 25 24  1  0  0  0  0
 25  8  1  0  0  0  0
 26 25  2  0  0  0  0
 27 26  1  0  0  0  0
 28 30  2  0  0  0  0
 28 26  1  0  0  0  0
 29 28  1  0  0  0  0
 30 32  1  0  0  0  0
 31 30  1  0  0  0  0
 32 33  1  0  0  0  0
 32 24  2  0  0  0  0
 34 35  1  0  0  0  0
 36 34  1  0  0  0  0
 37 34  1  0  0  0  0
M  END
$$$$
