CSD_code = SELRIN | q = 0 | S = 0 | Stoichiometry = C16H32CdCl2N8S4 | MND = 6
 OpenBabel04212202093D

 63 66  0  0  0  0  0  0  0  0999 V2000
    5.0184    2.2886    0.6462 C   0  0  0  0  0  3  0  0  0  0  0  0
    6.4446    0.3024    0.6755 C   0  0  0  0  0  0  0  0  0  0  0  0
    5.9890   -0.4905    0.0683 H   0  0  0  0  0  0  0  0  0  0  0  0
    6.9559   -0.1713    1.5171 H   0  0  0  0  0  0  0  0  0  0  0  0
    7.4191    1.1172   -0.1679 C   0  0  0  0  0  0  0  0  0  0  0  0
    8.1153    0.4576   -0.6838 H   0  0  0  0  0  0  0  0  0  0  0  0
    7.9869    1.7913    0.4755 H   0  0  0  0  0  0  0  0  0  0  0  0
    6.6223    1.9438   -1.1726 C   0  0  0  0  0  0  0  0  0  0  0  0
    7.2800    2.6025   -1.7456 H   0  0  0  0  0  0  0  0  0  0  0  0
    6.1015    1.2795   -1.8759 H   0  0  0  0  0  0  0  0  0  0  0  0
    0.0686    0.6472    4.3760 C   0  0  0  0  0  3  0  0  0  0  0  0
    0.6336   -1.5154    5.3238 C   0  0  0  0  0  0  0  0  0  0  0  0
    1.2109   -1.2879    6.2296 H   0  0  0  0  0  0  0  0  0  0  0  0
    1.0278   -2.4348    4.8866 H   0  0  0  0  0  0  0  0  0  0  0  0
   -0.8485   -1.6560    5.6524 C   0  0  0  0  0  0  0  0  0  0  0  0
   -1.3880   -1.9565    4.7527 H   0  0  0  0  0  0  0  0  0  0  0  0
   -0.9989   -2.4118    6.4220 H   0  0  0  0  0  0  0  0  0  0  0  0
   -1.3746   -0.3049    6.1267 C   0  0  0  0  0  0  0  0  0  0  0  0
   -2.4618   -0.3302    6.2416 H   0  0  0  0  0  0  0  0  0  0  0  0
   -0.9266   -0.0497    7.0972 H   0  0  0  0  0  0  0  0  0  0  0  0
    5.4116    1.1586    1.2117 N   0  0  0  0  0  0  0  0  0  0  0  0
    5.6840    2.7620   -0.4356 N   0  0  0  0  0  0  0  0  0  0  0  0
    0.8062   -0.4538    4.3587 N   0  0  0  0  0  0  0  0  0  0  0  0
   -1.0355    0.6991    5.1443 N   0  0  0  0  0  0  0  0  0  0  0  0
    3.7697    3.2267    1.2617 S   0  0  0  0  0  0  0  0  0  0  0  0
    0.3948    1.9664    3.3824 S   0  0  0  0  0  0  0  0  0  0  0  0
    3.6657   -0.1233    3.3331 Cl  0  0  0  0  0  0  0  0  0  0  0  0
    3.1118    2.3005    3.9287 Cd  0  0  0  0  0  0  0  0  0  0  0  0
    1.7028   -0.4161    3.8580 H   0  0  0  0  0  0  0  0  0  0  0  0
    5.2384    3.5346   -0.9059 H   0  0  0  0  0  0  0  0  0  0  0  0
    4.8335    0.7650    1.9713 H   0  0  0  0  0  0  0  0  0  0  0  0
   -1.5518    1.5633    5.1087 H   0  0  0  0  0  0  0  0  0  0  0  0
    1.2051    2.3122    7.2110 C   0  0  0  0  0  3  0  0  0  0  0  0
   -0.2212    4.2984    7.1817 C   0  0  0  0  0  0  0  0  0  0  0  0
    0.2344    5.0913    7.7889 H   0  0  0  0  0  0  0  0  0  0  0  0
   -0.7325    4.7722    6.3401 H   0  0  0  0  0  0  0  0  0  0  0  0
   -1.1957    3.4836    8.0251 C   0  0  0  0  0  0  0  0  0  0  0  0
   -1.8919    4.1433    8.5410 H   0  0  0  0  0  0  0  0  0  0  0  0
   -1.7634    2.8096    7.3816 H   0  0  0  0  0  0  0  0  0  0  0  0
   -0.3989    2.6570    9.0298 C   0  0  0  0  0  0  0  0  0  0  0  0
   -1.0566    1.9983    9.6028 H   0  0  0  0  0  0  0  0  0  0  0  0
    0.1218    3.3213    9.7331 H   0  0  0  0  0  0  0  0  0  0  0  0
    6.1549    3.9537    3.4812 C   0  0  0  0  0  3  0  0  0  0  0  0
    5.5899    6.1163    2.5334 C   0  0  0  0  0  0  0  0  0  0  0  0
    5.0125    5.8888    1.6276 H   0  0  0  0  0  0  0  0  0  0  0  0
    5.1957    7.0357    2.9705 H   0  0  0  0  0  0  0  0  0  0  0  0
    7.0720    6.2569    2.2048 C   0  0  0  0  0  0  0  0  0  0  0  0
    7.6114    6.5573    3.1044 H   0  0  0  0  0  0  0  0  0  0  0  0
    7.2224    7.0126    1.4352 H   0  0  0  0  0  0  0  0  0  0  0  0
    7.5981    4.9058    1.7305 C   0  0  0  0  0  0  0  0  0  0  0  0
    8.6852    4.9310    1.6155 H   0  0  0  0  0  0  0  0  0  0  0  0
    7.1500    4.6506    0.7600 H   0  0  0  0  0  0  0  0  0  0  0  0
    0.8118    3.4423    6.6455 N   0  0  0  0  0  0  0  0  0  0  0  0
    0.5394    1.8389    8.2927 N   0  0  0  0  0  0  0  0  0  0  0  0
    5.4173    5.0548    3.4985 N   0  0  0  0  0  0  0  0  0  0  0  0
    7.2590    3.9017    2.7129 N   0  0  0  0  0  0  0  0  0  0  0  0
    2.4537    1.3742    6.5955 S   0  0  0  0  0  0  0  0  0  0  0  0
    5.8286    2.6345    4.4748 S   0  0  0  0  0  0  0  0  0  0  0  0
    2.5576    4.7241    4.5241 Cl  0  0  0  0  0  0  0  0  0  0  0  0
    4.5206    5.0170    3.9992 H   0  0  0  0  0  0  0  0  0  0  0  0
    0.9850    1.0663    8.7630 H   0  0  0  0  0  0  0  0  0  0  0  0
    1.3900    3.8359    5.8860 H   0  0  0  0  0  0  0  0  0  0  0  0
    7.7752    3.0376    2.7485 H   0  0  0  0  0  0  0  0  0  0  0  0
  1 21  1  0  0  0  0
  1 25  1  0  0  0  0
  2 21  1  0  0  0  0
  2  4  1  0  0  0  0
  3  2  1  0  0  0  0
  5  7  1  0  0  0  0
  5  2  1  0  0  0  0
  6  5  1  0  0  0  0
  8 22  1  0  0  0  0
  8  5  1  0  0  0  0
  9  8  1  0  0  0  0
 10  8  1  0  0  0  0
 11 24  1  0  0  0  0
 12 15  1  0  0  0  0
 12 13  1  0  0  0  0
 14 12  1  0  0  0  0
 15 18  1  0  0  0  0
 15 17  1  0  0  0  0
 16 15  1  0  0  0  0
 18 19  1  0  0  0  0
 18 20  1  0  0  0  0
 21 31  1  0  0  0  0
 22  1  1  0  0  0  0
 23 11  1  0  0  0  0
 23 12  1  0  0  0  0
 24 18  1  0  0  0  0
 25 28  1  0  0  0  0
 26 28  1  0  0  0  0
 26 11  1  0  0  0  0
 27 28  1  0  0  0  0
 28 58  1  0  0  0  0
 28 59  1  0  0  0  0
 28 57  1  0  0  0  0
 29 23  1  0  0  0  0
 30 22  1  0  0  0  0
 32 24  1  0  0  0  0
 33 54  1  0  0  0  0
 34 35  1  0  0  0  0
 34 37  1  0  0  0  0
 36 34  1  0  0  0  0
 37 38  1  0  0  0  0
 37 40  1  0  0  0  0
 39 37  1  0  0  0  0
 40 41  1  0  0  0  0
 40 42  1  0  0  0  0
 43 55  1  0  0  0  0
 43 58  1  0  0  0  0
 44 46  1  0  0  0  0
 44 55  1  0  0  0  0
 45 44  1  0  0  0  0
 47 44  1  0  0  0  0
 47 48  1  0  0  0  0
 49 47  1  0  0  0  0
 50 47  1  0  0  0  0
 50 56  1  0  0  0  0
 51 50  1  0  0  0  0
 52 50  1  0  0  0  0
 53 34  1  0  0  0  0
 53 33  1  0  0  0  0
 54 61  1  0  0  0  0
 54 40  1  0  0  0  0
 55 60  1  0  0  0  0
 56 63  1  0  0  0  0
 56 43  1  0  0  0  0
 57 33  1  0  0  0  0
 62 53  1  0  0  0  0
M  END
$$$$
