CSD_code = SELWUB | q = 0 | S = 0 | Stoichiometry = C12H36Br2MoP4 | MND = 6
 OpenBabel04212202093D

 55 54  0  0  0  0  0  0  0  0999 V2000
    4.8354    4.8353    6.1409 Mo  0  0  0  0  0  0  0  0  0  0  0  0
    4.8374    4.8370    3.5464 Br  0  0  0  0  0  0  0  0  0  0  0  0
    6.5208    6.5209    5.8090 P   0  0  0  0  0  4  0  0  0  0  0  0
    7.3176    7.3176    7.2542 C   0  0  0  0  0  0  0  0  0  0  0  0
    7.9876    6.0753    4.7970 C   0  0  0  0  0  0  0  0  0  0  0  0
    8.0546    8.0547    6.9329 H   0  0  0  0  0  0  0  0  0  0  0  0
    7.7993    6.5546    7.8649 H   0  0  0  0  0  0  0  0  0  0  0  0
    8.6526    6.9362    4.7140 H   0  0  0  0  0  0  0  0  0  0  0  0
    7.6352    5.7953    3.8029 H   0  0  0  0  0  0  0  0  0  0  0  0
    8.5370    5.2387    5.2216 H   0  0  0  0  0  0  0  0  0  0  0  0
    4.8386    4.8316    8.7349 Br  0  0  0  0  0  0  0  0  0  0  0  0
    3.1483    6.5217    6.4714 P   0  0  0  0  0  4  0  0  0  0  0  0
    3.1485    3.1486    5.8094 P   0  0  0  0  0  4  0  0  0  0  0  0
    6.5209    3.1490    6.4720 P   0  0  0  0  0  4  0  0  0  0  0  0
    6.0752    7.9877    4.7969 C   0  0  0  0  0  0  0  0  0  0  0  0
    6.5545    7.7994    7.8649 H   0  0  0  0  0  0  0  0  0  0  0  0
    2.3519    7.3181    5.0261 C   0  0  0  0  0  0  0  0  0  0  0  0
    3.5948    7.9878    7.4840 C   0  0  0  0  0  0  0  0  0  0  0  0
    1.6821    6.0752    7.4840 C   0  0  0  0  0  0  0  0  0  0  0  0
    2.3520    2.3521    7.2547 C   0  0  0  0  0  0  0  0  0  0  0  0
    1.6821    3.5948    4.7970 C   0  0  0  0  0  0  0  0  0  0  0  0
    3.5948    1.6822    4.7970 C   0  0  0  0  0  0  0  0  0  0  0  0
    7.3176    2.3523    5.0267 C   0  0  0  0  0  0  0  0  0  0  0  0
    6.0752    1.6823    7.4841 C   0  0  0  0  0  0  0  0  0  0  0  0
    7.9876    3.5948    7.4841 C   0  0  0  0  0  0  0  0  0  0  0  0
    6.9362    8.6527    4.7140 H   0  0  0  0  0  0  0  0  0  0  0  0
    5.7952    7.6353    3.8029 H   0  0  0  0  0  0  0  0  0  0  0  0
    5.2387    8.5370    5.2215 H   0  0  0  0  0  0  0  0  0  0  0  0
    1.6149    8.0551    5.3475 H   0  0  0  0  0  0  0  0  0  0  0  0
    3.1151    7.7997    4.4155 H   0  0  0  0  0  0  0  0  0  0  0  0
    1.8702    6.5548    4.4155 H   0  0  0  0  0  0  0  0  0  0  0  0
    2.7339    8.6529    7.5670 H   0  0  0  0  0  0  0  0  0  0  0  0
    3.8747    7.6353    8.4780 H   0  0  0  0  0  0  0  0  0  0  0  0
    4.4314    8.5372    7.0594 H   0  0  0  0  0  0  0  0  0  0  0  0
    1.0170    6.9361    7.5671 H   0  0  0  0  0  0  0  0  0  0  0  0
    2.0347    5.7953    8.4780 H   0  0  0  0  0  0  0  0  0  0  0  0
    1.1327    5.2386    7.0594 H   0  0  0  0  0  0  0  0  0  0  0  0
    1.6150    1.6151    6.9333 H   0  0  0  0  0  0  0  0  0  0  0  0
    1.8704    3.1153    7.8654 H   0  0  0  0  0  0  0  0  0  0  0  0
    3.1153    1.8704    7.8654 H   0  0  0  0  0  0  0  0  0  0  0  0
    1.0171    2.7339    4.7140 H   0  0  0  0  0  0  0  0  0  0  0  0
    2.0347    3.8747    3.8029 H   0  0  0  0  0  0  0  0  0  0  0  0
    1.1328    4.4314    5.2216 H   0  0  0  0  0  0  0  0  0  0  0  0
    2.7339    1.0172    4.7140 H   0  0  0  0  0  0  0  0  0  0  0  0
    3.8747    2.0347    3.8030 H   0  0  0  0  0  0  0  0  0  0  0  0
    4.4314    1.1329    5.2216 H   0  0  0  0  0  0  0  0  0  0  0  0
    8.0547    1.6153    5.3481 H   0  0  0  0  0  0  0  0  0  0  0  0
    6.5545    1.8706    4.4160 H   0  0  0  0  0  0  0  0  0  0  0  0
    7.7993    3.1154    4.4160 H   0  0  0  0  0  0  0  0  0  0  0  0
    6.9361    1.0173    7.5671 H   0  0  0  0  0  0  0  0  0  0  0  0
    5.7952    2.0347    8.4782 H   0  0  0  0  0  0  0  0  0  0  0  0
    5.2386    1.1329    7.0595 H   0  0  0  0  0  0  0  0  0  0  0  0
    8.6526    2.7339    7.5670 H   0  0  0  0  0  0  0  0  0  0  0  0
    7.6352    3.8748    8.4782 H   0  0  0  0  0  0  0  0  0  0  0  0
    8.5370    4.4314    7.0595 H   0  0  0  0  0  0  0  0  0  0  0  0
  1 12  1  0  0  0  0
  1 14  1  0  0  0  0
  1 11  1  0  0  0  0
  2  1  1  0  0  0  0
  3  1  1  0  0  0  0
  3  4  1  0  0  0  0
  4  7  1  0  0  0  0
  4 16  1  0  0  0  0
  5 10  1  0  0  0  0
  5  3  1  0  0  0  0
  6  4  1  0  0  0  0
  8  5  1  0  0  0  0
  9  5  1  0  0  0  0
 12 18  1  0  0  0  0
 12 19  1  0  0  0  0
 13  1  1  0  0  0  0
 13 20  1  0  0  0  0
 14 25  1  0  0  0  0
 14 24  1  0  0  0  0
 15 28  1  0  0  0  0
 15  3  1  0  0  0  0
 17 29  1  0  0  0  0
 17 12  1  0  0  0  0
 18 32  1  0  0  0  0
 18 33  1  0  0  0  0
 19 35  1  0  0  0  0
 19 36  1  0  0  0  0
 20 40  1  0  0  0  0
 20 39  1  0  0  0  0
 21 43  1  0  0  0  0
 21 13  1  0  0  0  0
 22 46  1  0  0  0  0
 22 13  1  0  0  0  0
 23 47  1  0  0  0  0
 23 14  1  0  0  0  0
 24 50  1  0  0  0  0
 24 51  1  0  0  0  0
 25 53  1  0  0  0  0
 25 54  1  0  0  0  0
 26 15  1  0  0  0  0
 27 15  1  0  0  0  0
 30 17  1  0  0  0  0
 31 17  1  0  0  0  0
 34 18  1  0  0  0  0
 37 19  1  0  0  0  0
 38 20  1  0  0  0  0
 41 21  1  0  0  0  0
 42 21  1  0  0  0  0
 44 22  1  0  0  0  0
 45 22  1  0  0  0  0
 48 23  1  0  0  0  0
 49 23  1  0  0  0  0
 52 24  1  0  0  0  0
 55 25  1  0  0  0  0
M  END
$$$$
