CSD_code = SEMMUV | q = 0 | S = 0 | Stoichiometry = C24H28Cl2N4Ru | MND = 6
 OpenBabel04212202093D

 59 62  0  0  0  0  0  0  0  0999 V2000
   12.6297   13.4556   12.7659 Ru  0  0  0  0  0  0  0  0  0  0  0  0
   10.9688   13.4562   14.4886 Cl  0  0  0  0  0  0  0  0  0  0  0  0
   11.6108   12.0345   11.7778 N   0  0  0  0  0  0  0  0  0  0  0  0
   11.6037   14.8729   11.7812 N   0  0  0  0  0  0  0  0  0  0  0  0
   12.2365   11.0030   11.1963 C   0  0  0  0  0  3  0  0  0  0  0  0
   13.3171   10.9866   11.2732 H   0  0  0  0  0  0  0  0  0  0  0  0
   11.0396   15.9026   12.4254 C   0  0  0  0  0  3  0  0  0  0  0  0
   11.1659   15.9286   13.5011 H   0  0  0  0  0  0  0  0  0  0  0  0
   10.7145   15.7578    9.7451 C   0  0  0  0  0  0  0  0  0  0  0  0
   10.6217   15.6558    8.6745 H   0  0  0  0  0  0  0  0  0  0  0  0
   11.4351   14.8181   10.4548 C   0  0  0  0  0  0  0  0  0  0  0  0
   11.9217   13.9993    9.9381 H   0  0  0  0  0  0  0  0  0  0  0  0
   10.3005   16.8772   11.7883 C   0  0  0  0  0  0  0  0  0  0  0  0
    9.8655   17.6776   12.3673 H   0  0  0  0  0  0  0  0  0  0  0  0
   10.1171   16.8242   10.4086 C   0  0  0  0  0  0  0  0  0  0  0  0
   10.2782   12.0804   11.6654 C   0  0  0  0  0  0  0  0  0  0  0  0
    9.7779   12.9029   12.1625 H   0  0  0  0  0  0  0  0  0  0  0  0
    9.3067   17.8539    9.6909 C   0  0  0  0  0  0  0  0  0  0  0  0
    9.4599   17.7906    8.6167 H   0  0  0  0  0  0  0  0  0  0  0  0
    9.5703   18.8539   10.0302 H   0  0  0  0  0  0  0  0  0  0  0  0
    8.2470   17.7022    9.8976 H   0  0  0  0  0  0  0  0  0  0  0  0
    9.5435   11.1268   10.9891 C   0  0  0  0  0  0  0  0  0  0  0  0
    8.4693   11.2215   10.9422 H   0  0  0  0  0  0  0  0  0  0  0  0
   11.5740   10.0150   10.4988 C   0  0  0  0  0  0  0  0  0  0  0  0
   12.1385    9.2131   10.0477 H   0  0  0  0  0  0  0  0  0  0  0  0
   10.1868   10.0557   10.3784 C   0  0  0  0  0  0  0  0  0  0  0  0
    9.4412    9.0062    9.6202 C   0  0  0  0  0  0  0  0  0  0  0  0
    8.3706    9.0926    9.7865 H   0  0  0  0  0  0  0  0  0  0  0  0
    9.7687    8.0127    9.9212 H   0  0  0  0  0  0  0  0  0  0  0  0
    9.6353    9.1096    8.5525 H   0  0  0  0  0  0  0  0  0  0  0  0
   14.2917   13.4566   11.0442 Cl  0  0  0  0  0  0  0  0  0  0  0  0
   13.6490   12.0347   13.7541 N   0  0  0  0  0  0  0  0  0  0  0  0
   13.6563   14.8727   13.7505 N   0  0  0  0  0  0  0  0  0  0  0  0
   13.0233   11.0033   14.3358 C   0  0  0  0  0  3  0  0  0  0  0  0
   11.9427   10.9869   14.2590 H   0  0  0  0  0  0  0  0  0  0  0  0
   14.2206   15.9023   13.1063 C   0  0  0  0  0  3  0  0  0  0  0  0
   14.0944   15.9282   12.0306 H   0  0  0  0  0  0  0  0  0  0  0  0
   14.5451   15.7578   15.7867 C   0  0  0  0  0  0  0  0  0  0  0  0
   14.6376   15.6560   16.8574 H   0  0  0  0  0  0  0  0  0  0  0  0
   13.8245   14.8181   15.0769 C   0  0  0  0  0  0  0  0  0  0  0  0
   13.3378   13.9995   15.5936 H   0  0  0  0  0  0  0  0  0  0  0  0
   14.9596   16.8770   13.7434 C   0  0  0  0  0  0  0  0  0  0  0  0
   15.3948   17.6773   13.1644 H   0  0  0  0  0  0  0  0  0  0  0  0
   15.1427   16.8241   15.1232 C   0  0  0  0  0  0  0  0  0  0  0  0
   14.9816   12.0804   13.8663 C   0  0  0  0  0  0  0  0  0  0  0  0
   15.4818   12.9029   13.3690 H   0  0  0  0  0  0  0  0  0  0  0  0
   15.9531   17.8539   15.8409 C   0  0  0  0  0  0  0  0  0  0  0  0
   15.7997   17.7906   16.9151 H   0  0  0  0  0  0  0  0  0  0  0  0
   15.6896   18.8538   15.5015 H   0  0  0  0  0  0  0  0  0  0  0  0
   17.0128   17.7021   15.6345 H   0  0  0  0  0  0  0  0  0  0  0  0
   15.7163   11.1268   14.5425 C   0  0  0  0  0  0  0  0  0  0  0  0
   16.7906   11.2214   14.5892 H   0  0  0  0  0  0  0  0  0  0  0  0
   13.6859   10.0152   15.0331 C   0  0  0  0  0  0  0  0  0  0  0  0
   13.1214    9.2133   15.4843 H   0  0  0  0  0  0  0  0  0  0  0  0
   15.0731   10.0558   15.1532 C   0  0  0  0  0  0  0  0  0  0  0  0
   15.8187    9.0062   15.9113 C   0  0  0  0  0  0  0  0  0  0  0  0
   16.8893    9.0925   15.7448 H   0  0  0  0  0  0  0  0  0  0  0  0
   15.4912    8.0127   15.6104 H   0  0  0  0  0  0  0  0  0  0  0  0
   15.6250    9.1096   16.9790 H   0  0  0  0  0  0  0  0  0  0  0  0
  1 33  1  0  0  0  0
  1 32  1  0  0  0  0
  1  2  1  0  0  0  0
  3  1  1  0  0  0  0
  4  7  1  0  0  0  0
  4  1  1  0  0  0  0
  5  6  1  0  0  0  0
  5  3  1  0  0  0  0
  7  8  1  0  0  0  0
  9 15  1  0  0  0  0
  9 11  2  0  0  0  0
 10  9  1  0  0  0  0
 11  4  1  0  0  0  0
 12 11  1  0  0  0  0
 13 14  1  0  0  0  0
 13  7  1  0  0  0  0
 15 13  2  0  0  0  0
 16  3  1  0  0  0  0
 16 17  1  0  0  0  0
 18 21  1  0  0  0  0
 18 20  1  0  0  0  0
 18 15  1  0  0  0  0
 19 18  1  0  0  0  0
 22 16  2  0  0  0  0
 23 22  1  0  0  0  0
 24  5  1  0  0  0  0
 25 24  1  0  0  0  0
 26 24  2  0  0  0  0
 26 22  1  0  0  0  0
 27 28  1  0  0  0  0
 27 29  1  0  0  0  0
 27 26  1  0  0  0  0
 30 27  1  0  0  0  0
 31  1  1  0  0  0  0
 32 45  1  0  0  0  0
 32 34  1  0  0  0  0
 33 40  1  0  0  0  0
 34 53  1  0  0  0  0
 35 34  1  0  0  0  0
 36 42  1  0  0  0  0
 36 33  1  0  0  0  0
 37 36  1  0  0  0  0
 38 39  1  0  0  0  0
 40 41  1  0  0  0  0
 40 38  2  0  0  0  0
 42 44  2  0  0  0  0
 43 42  1  0  0  0  0
 44 38  1  0  0  0  0
 44 47  1  0  0  0  0
 45 51  2  0  0  0  0
 46 45  1  0  0  0  0
 47 48  1  0  0  0  0
 49 47  1  0  0  0  0
 50 47  1  0  0  0  0
 51 52  1  0  0  0  0
 51 55  1  0  0  0  0
 53 55  2  0  0  0  0
 53 54  1  0  0  0  0
 55 56  1  0  0  0  0
 56 59  1  0  0  0  0
 57 56  1  0  0  0  0
 58 56  1  0  0  0  0
M  END
$$$$
