CSD_code = SEMPUW | q = 0 | S = 0 | Stoichiometry = C12H16Cl2OPtS2 | MND = 4
 OpenBabel04212202093D

 34 36  0  0  0  0  0  0  0  0999 V2000
   10.0603    0.3405    3.1361 Pt  0  0  0  0  0  0  0  0  0  0  0  0
   10.6653   -1.4615    4.5684 S   0  0  2  0  0  3  0  0  0  0  0  0
   10.0984    2.2834    4.5043 S   0  0  2  0  0  3  0  0  0  0  0  0
    8.0262    0.0736    4.9131 O   0  0  0  0  0  0  0  0  0  0  0  0
    8.0693   -1.1077    5.6693 C   0  0  0  0  0  0  0  0  0  0  0  0
    7.0674   -1.5580    5.7434 H   0  0  0  0  0  0  0  0  0  0  0  0
    8.4118   -0.8964    6.6958 H   0  0  0  0  0  0  0  0  0  0  0  0
    9.0005   -2.0997    4.9818 C   0  0  0  0  0  0  0  0  0  0  0  0
    8.6006   -2.3688    4.0032 H   0  0  0  0  0  0  0  0  0  0  0  0
    9.1273   -2.9907    5.5953 H   0  0  0  0  0  0  0  0  0  0  0  0
   11.3221   -0.9782    6.2394 C   0  0  0  0  0  0  0  0  0  0  0  0
   10.5058   -0.6094    6.8530 H   0  0  0  0  0  0  0  0  0  0  0  0
   11.7154   -1.8961    6.6758 H   0  0  0  0  0  0  0  0  0  0  0  0
   12.4086    0.0290    6.0453 C   0  0  0  0  0  0  0  0  0  0  0  0
   13.7028   -0.4354    5.8294 C   0  0  0  0  0  0  0  0  0  0  0  0
   13.8818   -1.5003    5.8343 H   0  0  0  0  0  0  0  0  0  0  0  0
   14.7487    0.4362    5.5988 C   0  0  0  0  0  0  0  0  0  0  0  0
   15.7424    0.0525    5.4269 H   0  0  0  0  0  0  0  0  0  0  0  0
   14.5124    1.8006    5.5815 C   0  0  0  0  0  0  0  0  0  0  0  0
   15.3195    2.4918    5.3946 H   0  0  0  0  0  0  0  0  0  0  0  0
   13.2335    2.2747    5.7955 C   0  0  0  0  0  0  0  0  0  0  0  0
   13.0422    3.3372    5.7731 H   0  0  0  0  0  0  0  0  0  0  0  0
   12.1704    1.4071    6.0280 C   0  0  0  0  0  0  0  0  0  0  0  0
   10.8076    1.9973    6.1967 C   0  0  0  0  0  0  0  0  0  0  0  0
   10.8614    2.9784    6.6686 H   0  0  0  0  0  0  0  0  0  0  0  0
   10.1367    1.3598    6.7636 H   0  0  0  0  0  0  0  0  0  0  0  0
    8.3078    2.4406    4.8522 C   0  0  0  0  0  0  0  0  0  0  0  0
    8.1542    3.3608    5.4143 H   0  0  0  0  0  0  0  0  0  0  0  0
    7.8827    2.5338    3.8517 H   0  0  0  0  0  0  0  0  0  0  0  0
    7.6769    1.2589    5.5803 C   0  0  0  0  0  0  0  0  0  0  0  0
    8.0105    1.2240    6.6299 H   0  0  0  0  0  0  0  0  0  0  0  0
    6.5844    1.3907    5.5851 H   0  0  0  0  0  0  0  0  0  0  0  0
    9.8496   -1.3825    1.6743 Cl  0  0  0  0  0  0  0  0  0  0  0  0
    9.3650    1.8642    1.6039 Cl  0  0  0  0  0  0  0  0  0  0  0  0
  1  3  1  0  0  0  0
  1  2  1  0  0  0  0
  2  8  1  1  0  0  0
  2 11  1  0  0  0  0
  3 27  1  1  0  0  0
  3 24  1  0  0  0  0
  4 30  1  0  0  0  0
  4  5  1  0  0  0  0
  5  6  1  0  0  0  0
  5  7  1  0  0  0  0
  8 10  1  0  0  0  0
  8  5  1  0  0  0  0
  9  8  1  0  0  0  0
 11 13  1  0  0  0  0
 11 12  1  0  0  0  0
 14 11  1  0  0  0  0
 15 16  1  0  0  0  0
 15 14  2  0  0  0  0
 17 15  1  0  0  0  0
 18 17  1  0  0  0  0
 19 17  2  0  0  0  0
 19 21  1  0  0  0  0
 20 19  1  0  0  0  0
 21 23  2  0  0  0  0
 22 21  1  0  0  0  0
 23 14  1  0  0  0  0
 23 24  1  0  0  0  0
 24 25  1  0  0  0  0
 24 26  1  0  0  0  0
 27 28  1  0  0  0  0
 27 30  1  0  0  0  0
 29 27  1  0  0  0  0
 30 32  1  0  0  0  0
 30 31  1  0  0  0  0
 33  1  1  0  0  0  0
 34  1  1  0  0  0  0
M  END
$$$$
