CSD_code = SENCEU | q = 0 | S = 0 | Stoichiometry = C18H21Br2N3Ni | MND = 5
 OpenBabel04212202093D

 45 47  0  0  1  0  0  0  0  0999 V2000
   10.3155    1.4235   13.3325 Ni  0  0  0  0  0  0  0  0  0  0  0  0
    8.2987    1.1408   14.5934 Br  0  0  0  0  0  0  0  0  0  0  0  0
   12.2547    2.8260   13.2461 Br  0  0  0  0  0  0  0  0  0  0  0  0
   11.1674    0.3559   14.4977 N   0  0  0  0  0  0  0  0  0  0  0  0
   10.5979   -0.2756   12.0312 N   0  0  0  0  0  0  0  0  0  0  0  0
    9.5006    2.3562   12.1160 N   0  0  0  0  0  2  0  0  0  0  0  0
   11.4326    0.7271   15.7450 C   0  0  0  0  0  3  0  0  0  0  0  0
   11.1086    1.7195   16.0385 H   0  0  0  0  0  0  0  0  0  0  0  0
   12.0879   -0.0955   16.6407 C   0  0  0  0  0  0  0  0  0  0  0  0
   12.2801    0.2497   17.6430 H   0  0  0  0  0  0  0  0  0  0  0  0
   12.4856   -1.3577   16.2214 C   0  0  0  0  0  0  0  0  0  0  0  0
   13.0002   -2.0261   16.8940 H   0  0  0  0  0  0  0  0  0  0  0  0
   12.2101   -1.7439   14.9244 C   0  0  0  0  0  0  0  0  0  0  0  0
   12.5062   -2.7171   14.5686 H   0  0  0  0  0  0  0  0  0  0  0  0
   11.5436   -0.8653   14.0711 C   0  0  0  0  0  0  0  0  0  0  0  0
   11.2085   -1.1907   12.6824 C   0  0  2  0  0  3  0  0  0  0  0  0
   10.1887   -0.3880   10.6928 C   0  0  0  0  0  0  0  0  0  0  0  0
   11.0302    0.0784    9.6777 C   0  0  0  0  0  0  0  0  0  0  0  0
   10.5540    0.0888    8.3767 C   0  0  0  0  0  0  0  0  0  0  0  0
   11.1994    0.4498    7.5885 H   0  0  0  0  0  0  0  0  0  0  0  0
    9.2729   -0.3458    8.0650 C   0  0  0  0  0  0  0  0  0  0  0  0
    8.4603   -0.8058    9.0915 C   0  0  0  0  0  0  0  0  0  0  0  0
    7.4603   -1.1480    8.8662 H   0  0  0  0  0  0  0  0  0  0  0  0
    8.8948   -0.8343   10.4072 C   0  0  0  0  0  0  0  0  0  0  0  0
   11.5805   -2.5221   12.1122 C   0  0  0  0  0  0  0  0  0  0  0  0
   11.2429   -2.5914   11.0800 H   0  0  0  0  0  0  0  0  0  0  0  0
   11.1206   -3.3226   12.6900 H   0  0  0  0  0  0  0  0  0  0  0  0
   12.6611   -2.6556   12.1406 H   0  0  0  0  0  0  0  0  0  0  0  0
    8.0056   -1.3158   11.5108 C   0  0  0  0  0  0  0  0  0  0  0  0
    7.9334   -0.5666   12.2987 H   0  0  0  0  0  0  0  0  0  0  0  0
    8.4022   -2.2268   11.9601 H   0  0  0  0  0  0  0  0  0  0  0  0
    7.0064   -1.5234   11.1385 H   0  0  0  0  0  0  0  0  0  0  0  0
    8.7876   -0.3359    6.6465 C   0  0  0  0  0  0  0  0  0  0  0  0
    7.7025   -0.2734    6.6065 H   0  0  0  0  0  0  0  0  0  0  0  0
    9.0904   -1.2545    6.1431 H   0  0  0  0  0  0  0  0  0  0  0  0
    9.2120    0.5010    6.0959 H   0  0  0  0  0  0  0  0  0  0  0  0
   12.4064    0.5656   10.0079 C   0  0  0  0  0  0  0  0  0  0  0  0
   12.8893    0.9827    9.1288 H   0  0  0  0  0  0  0  0  0  0  0  0
   13.0256   -0.2470   10.3888 H   0  0  0  0  0  0  0  0  0  0  0  0
   12.3651    1.3347   10.7787 H   0  0  0  0  0  0  0  0  0  0  0  0
    8.9880    2.7771   11.1787 C   0  0  0  0  0  2  0  0  0  0  0  0
    8.3523    3.3015   10.0156 C   0  0  0  0  0  0  0  0  0  0  0  0
    8.8296    4.2375    9.7273 H   0  0  0  0  0  0  0  0  0  0  0  0
    7.2977    3.4787   10.2242 H   0  0  0  0  0  0  0  0  0  0  0  0
    8.4475    2.5778    9.2056 H   0  0  0  0  0  0  0  0  0  0  0  0
  1  4  1  0  0  0  0
  1  2  1  0  0  0  0
  3  1  1  0  0  0  0
  4  7  1  0  0  0  0
  5 16  1  0  0  0  0
  5  1  1  0  0  0  0
  6  1  1  0  0  0  0
  7  8  1  0  0  0  0
  7  9  1  0  0  0  0
  9 10  1  0  0  0  0
 11  9  2  0  0  0  0
 11 12  1  0  0  0  0
 13 11  1  0  0  0  0
 14 13  1  0  0  0  0
 15  4  1  0  0  0  0
 15 13  2  0  0  0  0
 16 25  1  6  0  0  0
 16 15  1  0  0  0  0
 17  5  1  0  0  0  0
 18 37  1  0  0  0  0
 18 17  2  0  0  0  0
 19 18  1  0  0  0  0
 20 19  1  0  0  0  0
 21 19  2  0  0  0  0
 21 22  1  0  0  0  0
 22 24  2  0  0  0  0
 23 22  1  0  0  0  0
 24 17  1  0  0  0  0
 24 29  1  0  0  0  0
 25 28  1  0  0  0  0
 25 27  1  0  0  0  0
 26 25  1  0  0  0  0
 29 31  1  0  0  0  0
 29 30  1  0  0  0  0
 32 29  1  0  0  0  0
 33 21  1  0  0  0  0
 34 33  1  0  0  0  0
 35 33  1  0  0  0  0
 36 33  1  0  0  0  0
 37 39  1  0  0  0  0
 37 40  1  0  0  0  0
 38 37  1  0  0  0  0
 41  6  1  0  0  0  0
 42 44  1  0  0  0  0
 42 41  1  0  0  0  0
 43 42  1  0  0  0  0
 45 42  1  0  0  0  0
M  END
$$$$
