CSD_code = SENQEH | q = -1 | S = 0 | Stoichiometry = C4H8Br5OZr(1-) | MND = 6
 OpenBabel04212202093D

 19 18  0  0  0  0  0  0  0  0999 V2000
    0.7823    8.9586   13.1169 Zr  0  0  0  0  0  0  0  0  0  0  0  0
    0.6938    6.4895   12.2782 Br  0  0  0  0  0  0  0  0  0  0  0  0
    3.0785    8.8451   14.2336 Br  0  0  0  0  0  0  0  0  0  0  0  0
    0.2655   11.4571   13.6621 Br  0  0  0  0  0  0  0  0  0  0  0  0
   -0.4861    8.2410   15.2811 Br  0  0  0  0  0  0  0  0  0  0  0  0
    1.7597    9.6897   10.8110 Br  0  0  0  0  0  0  0  0  0  0  0  0
   -1.2635    9.0611   12.1214 O   0  0  0  0  0  0  0  0  0  0  0  0
   -2.5073    9.3254   12.7988 C   0  0  0  0  0  0  0  0  0  0  0  0
   -3.5232    9.6287   11.7035 C   0  0  0  0  0  0  0  0  0  0  0  0
   -3.0327    8.7177   10.5818 C   0  0  0  0  0  0  0  0  0  0  0  0
   -1.5208    8.8632   10.7169 C   0  0  0  0  0  0  0  0  0  0  0  0
   -2.3610   10.1608   13.4925 H   0  0  0  0  0  0  0  0  0  0  0  0
   -2.7975    8.4292   13.3651 H   0  0  0  0  0  0  0  0  0  0  0  0
   -4.5408    9.4158   12.0212 H   0  0  0  0  0  0  0  0  0  0  0  0
   -3.4520   10.6744   11.4014 H   0  0  0  0  0  0  0  0  0  0  0  0
   -3.3835    9.0157    9.5969 H   0  0  0  0  0  0  0  0  0  0  0  0
   -3.3323    7.6864   10.7729 H   0  0  0  0  0  0  0  0  0  0  0  0
   -0.9729    7.9768   10.3783 H   0  0  0  0  0  0  0  0  0  0  0  0
   -1.1611    9.7442   10.1674 H   0  0  0  0  0  0  0  0  0  0  0  0
  1  4  1  0  0  0  0
  1  3  1  0  0  0  0
  1  5  1  0  0  0  0
  2  1  1  0  0  0  0
  6  1  1  0  0  0  0
  7  8  1  0  0  0  0
  8 13  1  0  0  0  0
  8 12  1  0  0  0  0
  9 14  1  0  0  0  0
  9  8  1  0  0  0  0
 10 11  1  0  0  0  0
 10 17  1  0  0  0  0
 10  9  1  0  0  0  0
 11  7  1  0  0  0  0
 15  9  1  0  0  0  0
 16 10  1  0  0  0  0
 18 11  1  0  0  0  0
 19 11  1  0  0  0  0
M  END
$$$$
