CSD_code = SENVAL | q = 1 | S = 0 | Stoichiometry = C29H32ClN2ORu(1+) | MND = 9
 OpenBabel04212202093D

 66 69  0  0  1  0  0  0  0  0999 V2000
    3.8424    3.5247    5.9880 Ru  0  0  0  0  0  0  0  0  0  0  0  0
    5.6032    4.9551    5.4965 Cl  0  0  0  0  0 15  0  0  0  0  0  0
   -0.4585    8.3354    4.0173 O   0  0  0  0  0  0  0  0  0  0  0  0
    4.5153    3.4001    7.8627 N   0  0  0  0  0  0  0  0  0  0  0  0
    2.7925    4.9035    6.8786 N   0  0  0  0  0  0  0  0  0  0  0  0
    2.9746    1.4498    5.9486 C   0  0  2  0  0  0  0  0  0  0  0  0
    4.1344    1.1499    5.1574 C   0  0  2  0  0  3  0  0  0  0  0  0
    4.4892    2.0358    4.1290 C   0  0  0  0  0  0  0  0  0  0  0  0
    3.5336    3.0173    3.6696 C   0  0  0  0  0  0  0  0  0  0  0  0
    2.2290    3.0201    4.1975 C   0  0  2  0  0  3  0  0  0  0  0  0
    1.9958    2.3560    5.4433 C   0  0  1  0  0  3  0  0  0  0  0  0
    0.6395    2.4463    6.0893 C   0  0  0  0  0  0  0  0  0  0  0  0
    0.0251    1.6012    5.7749 H   0  0  0  0  0  0  0  0  0  0  0  0
    0.1300    3.3654    5.8136 H   0  0  0  0  0  0  0  0  0  0  0  0
    0.7122    2.4157    7.1742 H   0  0  0  0  0  0  0  0  0  0  0  0
    2.6769    0.6055    7.1587 C   0  0  0  0  0  0  0  0  0  0  0  0
    2.1562    1.1778    7.9237 H   0  0  0  0  0  0  0  0  0  0  0  0
    3.5903    0.2163    7.6004 H   0  0  0  0  0  0  0  0  0  0  0  0
    2.0402   -0.2361    6.8820 H   0  0  0  0  0  0  0  0  0  0  0  0
    4.8921   -0.1212    5.4191 C   0  0  0  0  0  0  0  0  0  0  0  0
    5.4477   -0.4282    4.5381 H   0  0  0  0  0  0  0  0  0  0  0  0
    5.5914   -0.0251    6.2497 H   0  0  0  0  0  0  0  0  0  0  0  0
    4.1893   -0.9158    5.6603 H   0  0  0  0  0  0  0  0  0  0  0  0
    5.7916    1.9197    3.3908 C   0  0  0  0  0  0  0  0  0  0  0  0
    6.2931    2.8875    3.3753 H   0  0  0  0  0  0  0  0  0  0  0  0
    5.6188    1.6167    2.3582 H   0  0  0  0  0  0  0  0  0  0  0  0
    6.4647    1.2078    3.8569 H   0  0  0  0  0  0  0  0  0  0  0  0
    3.8955    3.8742    2.4907 C   0  0  0  0  0  0  0  0  0  0  0  0
    3.9588    3.2729    1.5833 H   0  0  0  0  0  0  0  0  0  0  0  0
    4.8663    4.3397    2.6547 H   0  0  0  0  0  0  0  0  0  0  0  0
    3.1711    4.6679    2.3391 H   0  0  0  0  0  0  0  0  0  0  0  0
    1.0794    3.6369    3.4516 C   0  0  0  0  0  0  0  0  0  0  0  0
    1.3007    3.6919    2.3897 H   0  0  0  0  0  0  0  0  0  0  0  0
    0.8412    4.6392    3.8047 H   0  0  0  0  0  0  0  0  0  0  0  0
    0.1951    3.0155    3.5744 H   0  0  0  0  0  0  0  0  0  0  0  0
    5.5881    2.6765    8.2652 C   0  0  1  0  0  3  0  0  0  0  0  0
    6.4783    2.1443    7.3138 C   0  0  0  0  0  0  0  0  0  0  0  0
    6.3216    2.3850    6.2702 H   0  0  0  0  0  0  0  0  0  0  0  0
    7.5635    1.4089    7.7136 C   0  0  0  0  0  0  0  0  0  0  0  0
    8.2557    1.0257    6.9795 H   0  0  0  0  0  0  0  0  0  0  0  0
    7.7949    1.1602    9.0734 C   0  0  0  0  0  0  0  0  0  0  0  0
    8.6454    0.5658    9.3680 H   0  0  0  0  0  0  0  0  0  0  0  0
    6.9661    1.6985   10.0223 C   0  0  0  0  0  0  0  0  0  0  0  0
    7.1591    1.5465   11.0732 H   0  0  0  0  0  0  0  0  0  0  0  0
    5.8630    2.4871    9.6497 C   0  0  0  0  0  0  0  0  0  0  0  0
    5.0355    3.1384   10.5957 C   0  0  0  0  0  0  0  0  0  0  0  0
    5.2269    2.9979   11.6480 H   0  0  0  0  0  0  0  0  0  0  0  0
    4.0426    3.9644   10.1616 C   0  0  0  0  0  0  0  0  0  0  0  0
    3.4260    4.5246   10.8453 H   0  0  0  0  0  0  0  0  0  0  0  0
    3.8032    4.0854    8.7743 C   0  0  0  0  0  0  0  0  0  0  0  0
    2.8388    4.9485    8.1815 C   0  0  0  0  0  3  0  0  0  0  0  0
    2.2502    5.6491    8.7603 H   0  0  0  0  0  0  0  0  0  0  0  0
    1.9647    5.7507    6.1526 C   0  0  0  0  0  0  0  0  0  0  0  0
    0.6585    6.0502    6.5617 C   0  0  0  0  0  0  0  0  0  0  0  0
    0.2557    5.5910    7.4522 H   0  0  0  0  0  0  0  0  0  0  0  0
   -0.1201    6.9015    5.8170 C   0  0  0  0  0  0  0  0  0  0  0  0
   -1.1306    7.1316    6.1132 H   0  0  0  0  0  0  0  0  0  0  0  0
    0.3828    7.5089    4.6561 C   0  0  0  0  0  0  0  0  0  0  0  0
    1.6879    7.2132    4.2520 C   0  0  0  0  0  0  0  0  0  0  0  0
    2.1109    7.6718    3.3731 H   0  0  0  0  0  0  0  0  0  0  0  0
    2.4605    6.3358    4.9854 C   0  0  0  0  0  0  0  0  0  0  0  0
    3.4802    6.1295    4.6877 H   0  0  0  0  0  0  0  0  0  0  0  0
   -0.0196    9.0209    2.8626 C   0  0  0  0  0  0  0  0  0  0  0  0
    0.8418    9.6576    3.0810 H   0  0  0  0  0  0  0  0  0  0  0  0
   -0.8587    9.6419    2.5558 H   0  0  0  0  0  0  0  0  0  0  0  0
    0.2299    8.3256    2.0561 H   0  0  0  0  0  0  0  0  0  0  0  0
  1  5  1  0  0  0  0
  1  4  1  0  0  0  0
  3 58  1  0  0  0  0
  4 36  1  0  0  0  0
  4 50  1  0  0  0  0
  5 51  1  0  0  0  0
  6  1  1  0  0  0  0
  6 16  1  1  0  0  0
  7 20  1  6  0  0  0
  7  6  1  0  0  0  0
  8  7  1  0  0  0  0
  9  8  2  0  0  0  0
  9 10  1  0  0  0  0
 10 32  1  6  0  0  0
 10 11  1  0  0  0  0
 11  6  1  0  0  0  0
 11 12  1  6  0  0  0
 12 15  1  0  0  0  0
 13 12  1  0  0  0  0
 14 12  1  0  0  0  0
 16 18  1  0  0  0  0
 16 17  1  0  0  0  0
 19 16  1  0  0  0  0
 20 23  1  0  0  0  0
 20 22  1  0  0  0  0
 21 20  1  0  0  0  0
 24 27  1  0  0  0  0
 24  8  1  0  0  0  0
 25 24  1  0  0  0  0
 26 24  1  0  0  0  0
 28 30  1  0  0  0  0
 28  9  1  0  0  0  0
 29 28  1  0  0  0  0
 31 28  1  0  0  0  0
 32 35  1  0  0  0  0
 32 34  1  0  0  0  0
 33 32  1  0  0  0  0
 36 37  1  1  0  0  0
 36 45  1  0  0  0  0
 37 39  2  0  0  0  0
 38 37  1  0  0  0  0
 39 41  1  0  0  0  0
 40 39  1  0  0  0  0
 41 42  1  0  0  0  0
 41 43  2  0  0  0  0
 43 44  1  0  0  0  0
 45 43  1  0  0  0  0
 45 46  2  0  0  0  0
 46 47  1  0  0  0  0
 48 46  1  0  0  0  0
 48 49  1  0  0  0  0
 50 48  2  0  0  0  0
 51 52  1  0  0  0  0
 51 50  1  0  0  0  0
 53 54  1  0  0  0  0
 53  5  1  0  0  0  0
 54 55  1  0  0  0  0
 56 57  1  0  0  0  0
 56 54  2  0  0  0  0
 58 56  1  0  0  0  0
 59 58  2  0  0  0  0
 59 61  1  0  0  0  0
 60 59  1  0  0  0  0
 61 53  2  0  0  0  0
 62 61  1  0  0  0  0
 63 64  1  0  0  0  0
 63  3  1  0  0  0  0
 65 63  1  0  0  0  0
 66 63  1  0  0  0  0
M  END
$$$$
