CSD_code = SEPQEK | q = 0 | S = 0 | Stoichiometry = C31H31INPPd | MND = 4
 OpenBabel04212202093D

 66 71  0  0  1  0  0  0  0  0999 V2000
   -0.2540    1.9073    1.4526 I   0  0  0  0  0  0  0  0  0  0  0  0
    2.0259    2.0056    2.8362 Pd  0  0  1  0  0  0  0  0  0  0  0  0
    1.2582    3.7938    3.9190 P   0  0  0  0  0  4  0  0  0  0  0  0
    2.8738    0.2679    1.9871 N   0  0  2  0  0  4  0  0  0  0  0  0
    4.2609    0.2228    2.4456 C   0  0  0  0  0  0  0  0  0  0  0  0
    4.8638   -0.4358    1.7988 H   0  0  0  0  0  0  0  0  0  0  0  0
    4.3057   -0.1610    3.4684 H   0  0  0  0  0  0  0  0  0  0  0  0
    4.7503    1.6654    2.4256 C   0  0  1  0  0  0  0  0  0  0  0  0
    5.8268    1.7209    2.6503 H   0  0  0  0  0  0  0  0  0  0  0  0
    4.4863    2.2807    1.0689 C   0  0  0  0  0  0  0  0  0  0  0  0
    3.5716    1.7008    0.1831 C   0  0  0  0  0  0  0  0  0  0  0  0
    2.8979    0.3977    0.5378 C   0  0  0  0  0  0  0  0  0  0  0  0
    1.8804    0.3837    0.1356 H   0  0  0  0  0  0  0  0  0  0  0  0
    3.4503   -0.4438    0.0786 H   0  0  0  0  0  0  0  0  0  0  0  0
    3.9252    2.3994    3.4860 C   0  0  0  0  0  0  0  0  0  0  0  0
    4.1823    3.4699    3.5044 H   0  0  0  0  0  0  0  0  0  0  0  0
    4.1448    1.9855    4.4791 H   0  0  0  0  0  0  0  0  0  0  0  0
    2.0565   -0.8384    2.5030 C   0  0  0  0  0  0  0  0  0  0  0  0
    1.2274   -1.0213    1.8116 H   0  0  0  0  0  0  0  0  0  0  0  0
    2.6527   -1.7587    2.5855 H   0  0  0  0  0  0  0  0  0  0  0  0
    1.5025   -0.4227    3.8496 C   0  0  0  0  0  0  0  0  0  0  0  0
    0.5215    0.0615    3.8489 H   0  0  0  0  0  0  0  0  0  0  0  0
    2.0935   -0.7080    5.0033 C   0  0  0  0  0  0  0  0  0  0  0  0
    3.0190   -1.2616    5.0570 H   0  0  0  0  0  0  0  0  0  0  0  0
    1.6624   -0.4210    5.9489 H   0  0  0  0  0  0  0  0  0  0  0  0
    5.1243    3.4609    0.7031 C   0  0  0  0  0  0  0  0  0  0  0  0
    5.8353    3.9072    1.3844 H   0  0  0  0  0  0  0  0  0  0  0  0
    4.8586    4.0631   -0.5132 C   0  0  0  0  0  0  0  0  0  0  0  0
    5.3666    4.9779   -0.7814 H   0  0  0  0  0  0  0  0  0  0  0  0
    3.9400    3.4945   -1.3801 C   0  0  0  0  0  0  0  0  0  0  0  0
    3.7195    3.9651   -2.3266 H   0  0  0  0  0  0  0  0  0  0  0  0
    3.3014    2.3180   -1.0321 C   0  0  0  0  0  0  0  0  0  0  0  0
    2.5814    1.8712   -1.7024 H   0  0  0  0  0  0  0  0  0  0  0  0
    1.4341    5.2558    2.8645 C   0  0  0  0  0  0  0  0  0  0  0  0
    2.0451    5.0749    1.6278 C   0  0  0  0  0  0  0  0  0  0  0  0
    2.3794    4.0764    1.3335 H   0  0  0  0  0  0  0  0  0  0  0  0
    2.2042    6.1474    0.7690 C   0  0  0  0  0  0  0  0  0  0  0  0
    2.6725    6.0000   -0.1926 H   0  0  0  0  0  0  0  0  0  0  0  0
    1.7542    7.4023    1.1437 C   0  0  0  0  0  0  0  0  0  0  0  0
    1.8776    8.2419    0.4756 H   0  0  0  0  0  0  0  0  0  0  0  0
    1.1289    7.5834    2.3684 C   0  0  0  0  0  0  0  0  0  0  0  0
    0.7642    8.5608    2.6495 H   0  0  0  0  0  0  0  0  0  0  0  0
    0.9597    6.5142    3.2280 C   0  0  0  0  0  0  0  0  0  0  0  0
    0.4433    6.6445    4.1700 H   0  0  0  0  0  0  0  0  0  0  0  0
   -0.4683    3.9105    4.4958 C   0  0  0  0  0  0  0  0  0  0  0  0
   -1.4395    4.4375    3.6476 C   0  0  0  0  0  0  0  0  0  0  0  0
   -1.1633    4.7984    2.6673 H   0  0  0  0  0  0  0  0  0  0  0  0
   -2.7610    4.4836    4.0485 C   0  0  0  0  0  0  0  0  0  0  0  0
   -3.5060    4.8883    3.3803 H   0  0  0  0  0  0  0  0  0  0  0  0
   -3.1289    4.0023    5.2940 C   0  0  0  0  0  0  0  0  0  0  0  0
   -4.1628    4.0352    5.6040 H   0  0  0  0  0  0  0  0  0  0  0  0
   -2.1686    3.4720    6.1386 C   0  0  0  0  0  0  0  0  0  0  0  0
   -2.4505    3.0909    7.1096 H   0  0  0  0  0  0  0  0  0  0  0  0
   -0.8441    3.4214    5.7427 C   0  0  0  0  0  0  0  0  0  0  0  0
   -0.1021    3.0048    6.4095 H   0  0  0  0  0  0  0  0  0  0  0  0
    2.1686    4.1424    5.4591 C   0  0  0  0  0  0  0  0  0  0  0  0
    2.3779    3.0348    6.2792 C   0  0  0  0  0  0  0  0  0  0  0  0
    2.0260    2.0626    5.9415 H   0  0  0  0  0  0  0  0  0  0  0  0
    3.0437    3.1679    7.4815 C   0  0  0  0  0  0  0  0  0  0  0  0
    3.1987    2.3068    8.1158 H   0  0  0  0  0  0  0  0  0  0  0  0
    3.5236    4.4104    7.8664 C   0  0  0  0  0  0  0  0  0  0  0  0
    4.0500    4.5191    8.8033 H   0  0  0  0  0  0  0  0  0  0  0  0
    3.3422    5.5080    7.0428 C   0  0  0  0  0  0  0  0  0  0  0  0
    3.7320    6.4722    7.3357 H   0  0  0  0  0  0  0  0  0  0  0  0
    2.6654    5.3798    5.8410 C   0  0  0  0  0  0  0  0  0  0  0  0
    2.5410    6.2392    5.1981 H   0  0  0  0  0  0  0  0  0  0  0  0
  2  1  1  6  0  0  0
  2 15  1  0  0  0  0
  2  3  1  0  0  0  0
  3 45  1  0  0  0  0
  3 56  1  0  0  0  0
  4  5  1  0  0  0  0
  4 18  1  1  0  0  0
  4  2  1  0  0  0  0
  5  7  1  0  0  0  0
  6  5  1  0  0  0  0
  8  5  1  0  0  0  0
  8  9  1  1  0  0  0
  8 15  1  0  0  0  0
 10  8  1  0  0  0  0
 11 12  1  0  0  0  0
 11 10  2  0  0  0  0
 12  4  1  0  0  0  0
 13 12  1  0  0  0  0
 14 12  1  0  0  0  0
 15 16  1  0  0  0  0
 15 17  1  0  0  0  0
 18 20  1  0  0  0  0
 18 21  1  0  0  0  0
 19 18  1  0  0  0  0
 21 23  2  0  0  0  0
 22 21  1  0  0  0  0
 23 24  1  0  0  0  0
 23 25  1  0  0  0  0
 26 10  1  0  0  0  0
 26 27  1  0  0  0  0
 28 26  2  0  0  0  0
 29 28  1  0  0  0  0
 30 32  2  0  0  0  0
 30 28  1  0  0  0  0
 31 30  1  0  0  0  0
 32 11  1  0  0  0  0
 33 32  1  0  0  0  0
 34 43  1  0  0  0  0
 34  3  1  0  0  0  0
 35 34  2  0  0  0  0
 36 35  1  0  0  0  0
 37 39  2  0  0  0  0
 37 35  1  0  0  0  0
 38 37  1  0  0  0  0
 39 41  1  0  0  0  0
 40 39  1  0  0  0  0
 41 42  1  0  0  0  0
 41 43  2  0  0  0  0
 43 44  1  0  0  0  0
 45 54  1  0  0  0  0
 46 48  1  0  0  0  0
 46 45  2  0  0  0  0
 47 46  1  0  0  0  0
 48 50  2  0  0  0  0
 49 48  1  0  0  0  0
 50 51  1  0  0  0  0
 50 52  1  0  0  0  0
 52 53  1  0  0  0  0
 54 52  2  0  0  0  0
 54 55  1  0  0  0  0
 56 65  2  0  0  0  0
 56 57  1  0  0  0  0
 57 59  2  0  0  0  0
 58 57  1  0  0  0  0
 59 61  1  0  0  0  0
 59 60  1  0  0  0  0
 61 62  1  0  0  0  0
 63 64  1  0  0  0  0
 63 61  2  0  0  0  0
 65 63  1  0  0  0  0
 66 65  1  0  0  0  0
M  END
$$$$
