CSD_code = SEPVEO | q = 0 | S = 0 | Stoichiometry = C16H20Br2N4O3W | MND = 7
 OpenBabel04212202093D

 46 48  0  0  1  0  0  0  0  0999 V2000
    8.6070   -0.0097    2.9791 W   0  0  0  0  0  0  0  0  0  0  0  0
   10.4239    1.4276    1.6867 Br  0  0  0  0  0  0  0  0  0  0  0  0
    6.6239   -0.6078    4.6970 Br  0  0  0  0  0 15  0  0  0  0  0  0
    9.3648   -2.9957    3.6469 O   0  0  0  0  0  0  0  0  0  0  0  0
    9.3724   -2.1477    0.7860 O   0  0  0  0  0  0  0  0  0  0  0  0
    6.5221   -0.7339    0.7522 O   0  0  0  0  0  1  0  0  0  0  0  0
   10.0950    0.4487    4.7143 N   0  0  2  0  0  0  0  0  0  0  0  0
    9.8860    1.3618    5.6830 N   0  0  0  0  0  0  0  0  0  0  0  0
    7.9455    2.0738    3.5207 N   0  0  1  0  0  0  0  0  0  0  0  0
    8.1820    2.6938    4.6966 N   0  0  0  0  0  0  0  0  0  0  0  0
    9.0640   -1.9188    3.2844 C   0  0  0  0  0  0  0  0  0  0  0  0
    9.1363   -1.4293    1.6906 C   0  0  0  0  0  0  0  0  0  0  0  0
    7.2479   -0.3809    1.5763 C   0  0  0  0  0  2  0  0  0  0  0  0
   11.3568    0.0411    4.8345 C   0  0  1  0  0  3  0  0  0  0  0  0
   11.9673    0.6983    5.9199 C   0  0  0  0  0  0  0  0  0  0  0  0
   10.9982    1.5373    6.4362 C   0  0  0  0  0  0  0  0  0  0  0  0
   11.9871   -0.9636    3.9401 C   0  0  0  0  0  0  0  0  0  0  0  0
   13.3612    0.5314    6.4174 C   0  0  0  0  0  0  0  0  0  0  0  0
   11.0622    2.4739    7.5854 C   0  0  0  0  0  0  0  0  0  0  0  0
    8.5860    1.9488    5.8613 C   0  0  0  0  0  0  0  0  0  0  0  0
    7.4590    2.9966    2.6918 C   0  0  2  0  0  3  0  0  0  0  0  0
    7.3817    4.2384    3.3496 C   0  0  0  0  0  0  0  0  0  0  0  0
    7.8487    4.0067    4.6295 C   0  0  0  0  0  0  0  0  0  0  0  0
    7.0523    2.7015    1.2947 C   0  0  0  0  0  0  0  0  0  0  0  0
    6.8945    5.5134    2.7556 C   0  0  0  0  0  0  0  0  0  0  0  0
    7.9957    4.9266    5.7848 C   0  0  0  0  0  0  0  0  0  0  0  0
   13.0320   -0.7089    3.7781 H   0  0  0  0  0  0  0  0  0  0  0  0
   11.4935   -1.0025    2.9692 H   0  0  0  0  0  0  0  0  0  0  0  0
   11.9374   -1.9548    4.3926 H   0  0  0  0  0  0  0  0  0  0  0  0
   13.8677   -0.2594    5.8734 H   0  0  0  0  0  0  0  0  0  0  0  0
   13.3590    0.2741    7.4755 H   0  0  0  0  0  0  0  0  0  0  0  0
   13.9249    1.4551    6.2911 H   0  0  0  0  0  0  0  0  0  0  0  0
   12.0573    2.4388    8.0184 H   0  0  0  0  0  0  0  0  0  0  0  0
   10.3415    2.2003    8.3560 H   0  0  0  0  0  0  0  0  0  0  0  0
   10.8644    3.4981    7.2692 H   0  0  0  0  0  0  0  0  0  0  0  0
    7.8467    1.1500    6.0485 H   0  0  0  0  0  0  0  0  0  0  0  0
    8.6190    2.6237    6.7166 H   0  0  0  0  0  0  0  0  0  0  0  0
    6.6592    3.6002    0.8287 H   0  0  0  0  0  0  0  0  0  0  0  0
    6.2762    1.9348    1.2818 H   0  0  0  0  0  0  0  0  0  0  0  0
    7.9007    2.3522    0.7041 H   0  0  0  0  0  0  0  0  0  0  0  0
    6.9581    6.3253    3.4739 H   0  0  0  0  0  0  0  0  0  0  0  0
    5.8568    5.4125    2.4412 H   0  0  0  0  0  0  0  0  0  0  0  0
    7.4919    5.7752    1.8838 H   0  0  0  0  0  0  0  0  0  0  0  0
    7.7148    5.9320    5.4868 H   0  0  0  0  0  0  0  0  0  0  0  0
    9.0274    4.9532    6.1347 H   0  0  0  0  0  0  0  0  0  0  0  0
    7.3508    4.6241    6.6099 H   0  0  0  0  0  0  0  0  0  0  0  0
  1 11  1  0  0  0  0
  1  9  1  0  0  0  0
  1  7  1  0  0  0  0
  2  1  1  0  0  0  0
  5 12  2  0  0  0  0
  6 13  1  0  0  0  0
  7 14  1  0  0  0  0
  7  8  1  6  0  0  0
  8 20  1  0  0  0  0
  8 16  1  0  0  0  0
  9 10  1  6  0  0  0
 10 20  1  0  0  0  0
 11  4  2  0  0  0  0
 12  1  1  0  0  0  0
 12 11  1  0  0  0  0
 13  1  1  0  0  0  0
 14 17  1  1  0  0  0
 14 15  1  0  0  0  0
 15 18  1  0  0  0  0
 15 16  2  0  0  0  0
 16 19  1  0  0  0  0
 17 29  1  0  0  0  0
 18 31  1  0  0  0  0
 19 33  1  0  0  0  0
 19 34  1  0  0  0  0
 20 36  1  0  0  0  0
 20 37  1  0  0  0  0
 21 24  1  1  0  0  0
 21 22  1  0  0  0  0
 21  9  1  0  0  0  0
 22 23  2  0  0  0  0
 23 10  1  0  0  0  0
 23 26  1  0  0  0  0
 25 22  1  0  0  0  0
 25 41  1  0  0  0  0
 26 45  1  0  0  0  0
 26 46  1  0  0  0  0
 27 17  1  0  0  0  0
 28 17  1  0  0  0  0
 30 18  1  0  0  0  0
 32 18  1  0  0  0  0
 35 19  1  0  0  0  0
 38 24  1  0  0  0  0
 39 24  1  0  0  0  0
 40 24  1  0  0  0  0
 42 25  1  0  0  0  0
 43 25  1  0  0  0  0
 44 26  1  0  0  0  0
M  END
$$$$
