CSD_code = SEPYUI | q = 0 | S = 0 | Stoichiometry = C10H14Cl2N4Pd | MND = 4
 OpenBabel04212202093D

 31 33  0  0  1  0  0  0  0  0999 V2000
    1.7912    5.2143    5.7093 Pd  0  0  0  0  0  0  0  0  0  0  0  0
    0.1087    6.1886    6.8774 Cl  0  0  0  0  0  0  0  0  0  0  0  0
    1.6284    3.2868    6.8819 Cl  0  0  0  0  0  0  0  0  0  0  0  0
    2.1949    8.0918    5.1780 N   0  0  0  0  0  0  0  0  0  0  0  0
    1.7620    7.1084    3.3146 N   0  0  0  0  0  0  0  0  0  0  0  0
    2.6752    4.1655    3.2010 N   0  0  0  0  0  0  0  0  0  0  0  0
    4.2223    3.6686    4.6100 N   0  0  0  0  0  0  0  0  0  0  0  0
    1.9477    6.8892    4.6366 C   0  0  2  0  0  3  0  0  0  0  0  0
    1.8749    8.4534    3.0471 C   0  0  0  0  0  0  0  0  0  0  0  0
    1.7561    8.8531    2.0612 H   0  0  0  0  0  0  0  0  0  0  0  0
    2.1435    9.0670    4.2217 C   0  0  0  0  0  0  0  0  0  0  0  0
    2.3002   10.1023    4.4443 H   0  0  0  0  0  0  0  0  0  0  0  0
    2.4797    8.3156    6.5711 C   0  0  0  0  0  0  0  0  0  0  0  0
    2.7363    7.3504    7.0338 H   0  0  0  0  0  0  0  0  0  0  0  0
    1.5954    8.7050    7.0786 H   0  0  0  0  0  0  0  0  0  0  0  0
    3.3081    9.0175    6.6735 H   0  0  0  0  0  0  0  0  0  0  0  0
    1.5331    6.1516    2.2495 C   0  0  0  0  0  0  0  0  0  0  0  0
    2.3544    6.2468    1.5263 H   0  0  0  0  0  0  0  0  0  0  0  0
    0.5991    6.4198    1.7425 H   0  0  0  0  0  0  0  0  0  0  0  0
    1.4284    4.6877    2.6953 C   0  0  0  0  0  0  0  0  0  0  0  0
    0.6685    4.5962    3.4971 H   0  0  0  0  0  0  0  0  0  0  0  0
    1.1168    4.0890    1.8356 H   0  0  0  0  0  0  0  0  0  0  0  0
    3.6207    3.4498    2.5117 C   0  0  0  0  0  0  0  0  0  0  0  0
    3.5254    3.2124    1.4719 H   0  0  0  0  0  0  0  0  0  0  0  0
    4.5927    3.1368    3.4016 C   0  0  0  0  0  0  0  0  0  0  0  0
    5.4984    2.5808    3.2721 H   0  0  0  0  0  0  0  0  0  0  0  0
    4.9504    3.5549    5.8439 C   0  0  0  0  0  0  0  0  0  0  0  0
    4.2904    3.8932    6.6503 H   0  0  0  0  0  0  0  0  0  0  0  0
    5.8534    4.1687    5.8181 H   0  0  0  0  0  0  0  0  0  0  0  0
    5.2239    2.5159    6.0245 H   0  0  0  0  0  0  0  0  0  0  0  0
    3.0494    4.2987    4.4919 C   0  0  0  0  0  0  0  0  0  0  0  0
  1  2  1  0  0  0  0
  1  3  1  0  0  0  0
  4 13  1  0  0  0  0
  6 31  1  0  0  0  0
  7 27  1  0  0  0  0
  8  5  1  1  0  0  0
  8  4  1  0  0  0  0
  8  1  1  0  0  0  0
  9  5  1  0  0  0  0
  9 11  2  0  0  0  0
 10  9  1  0  0  0  0
 11 12  1  0  0  0  0
 11  4  1  0  0  0  0
 13 16  1  0  0  0  0
 13 14  1  0  0  0  0
 13 15  1  0  0  0  0
 17 20  1  0  0  0  0
 17  5  1  0  0  0  0
 18 17  1  0  0  0  0
 19 17  1  0  0  0  0
 20  6  1  0  0  0  0
 20 21  1  0  0  0  0
 22 20  1  0  0  0  0
 23  6  1  0  0  0  0
 23 25  2  0  0  0  0
 24 23  1  0  0  0  0
 25  7  1  0  0  0  0
 26 25  1  0  0  0  0
 27 30  1  0  0  0  0
 27 28  1  0  0  0  0
 29 27  1  0  0  0  0
 31  7  1  0  0  0  0
 31  1  2  0  0  0  0
M  END
$$$$
