CSD_code = SEQRAH | q = 0 | S = 0 | Stoichiometry = C18H28Cl2P2Pt | MND = 4
 OpenBabel04212202093D

 51 54  0  0  1  0  0  0  0  0999 V2000
   -6.9084  -20.6469  -17.9491 Pt  0  0  0  0  0  0  0  0  0  0  0  0
   -7.1801  -19.8697  -15.8528 P   0  0  1  0  0  4  0  0  0  0  0  0
   -4.8387  -21.3024  -17.3508 P   0  0  1  0  0  4  0  0  0  0  0  0
   -6.5683  -21.5758  -20.0159 Cl  0  0  0  0  0  0  0  0  0  0  0  0
   -8.9800  -19.8275  -18.4835 Cl  0  0  0  0  0  0  0  0  0  0  0  0
   -6.4744  -17.1483  -15.3897 C   0  0  0  0  0  0  0  0  0  0  0  0
   -7.6500  -18.0922  -15.5942 C   0  0  2  0  0  0  0  0  0  0  0  0
   -8.6968  -18.1019  -14.4768 C   0  0  0  0  0  0  0  0  0  0  0  0
   -9.5278  -19.3644  -14.6839 C   0  0  0  0  0  0  0  0  0  0  0  0
   -8.5465  -20.5352  -14.7884 C   0  0  1  0  0  0  0  0  0  0  0  0
   -9.1449  -21.7960  -15.3963 C   0  0  0  0  0  0  0  0  0  0  0  0
   -5.6447  -20.2172  -14.9233 C   0  0  0  0  0  0  0  0  0  0  0  0
   -5.4922  -19.8756  -13.5840 C   0  0  0  0  0  0  0  0  0  0  0  0
   -4.3078  -20.1432  -12.9209 C   0  0  0  0  0  0  0  0  0  0  0  0
   -3.2606  -20.7537  -13.5923 C   0  0  0  0  0  0  0  0  0  0  0  0
   -3.4030  -21.1039  -14.9232 C   0  0  0  0  0  0  0  0  0  0  0  0
   -4.5915  -20.8472  -15.5978 C   0  0  0  0  0  0  0  0  0  0  0  0
   -4.5401  -23.9689  -16.3884 C   0  0  0  0  0  0  0  0  0  0  0  0
   -4.3268  -23.0701  -17.5973 C   0  0  2  0  0  0  0  0  0  0  0  0
   -2.8954  -23.0120  -18.1380 C   0  0  0  0  0  0  0  0  0  0  0  0
   -2.8332  -21.7876  -19.0460 C   0  0  0  0  0  0  0  0  0  0  0  0
   -3.3663  -20.6022  -18.2366 C   0  0  1  0  0  0  0  0  0  0  0  0
   -3.7613  -19.3990  -19.0812 C   0  0  0  0  0  0  0  0  0  0  0  0
   -5.7726  -17.2427  -16.2174 H   0  0  0  0  0  0  0  0  0  0  0  0
   -5.9442  -17.3652  -14.4642 H   0  0  0  0  0  0  0  0  0  0  0  0
   -6.8245  -16.1184  -15.3525 H   0  0  0  0  0  0  0  0  0  0  0  0
   -8.1550  -17.8338  -16.5354 H   0  0  0  0  0  0  0  0  0  0  0  0
   -8.2118  -18.1250  -13.4975 H   0  0  0  0  0  0  0  0  0  0  0  0
   -9.3162  -17.2053  -14.5221 H   0  0  0  0  0  0  0  0  0  0  0  0
  -10.0780  -19.2822  -15.6234 H   0  0  0  0  0  0  0  0  0  0  0  0
  -10.2412  -19.5203  -13.8734 H   0  0  0  0  0  0  0  0  0  0  0  0
   -8.1271  -20.7627  -13.7995 H   0  0  0  0  0  0  0  0  0  0  0  0
   -8.3957  -22.5865  -15.4443 H   0  0  0  0  0  0  0  0  0  0  0  0
   -9.4938  -21.5884  -16.4072 H   0  0  0  0  0  0  0  0  0  0  0  0
   -9.9861  -22.1495  -14.8027 H   0  0  0  0  0  0  0  0  0  0  0  0
   -6.3048  -19.3998  -13.0540 H   0  0  0  0  0  0  0  0  0  0  0  0
   -4.1989  -19.8734  -11.8809 H   0  0  0  0  0  0  0  0  0  0  0  0
   -2.3342  -20.9584  -13.0766 H   0  0  0  0  0  0  0  0  0  0  0  0
   -2.5816  -21.5776  -15.4414 H   0  0  0  0  0  0  0  0  0  0  0  0
   -5.5775  -23.9131  -16.0610 H   0  0  0  0  0  0  0  0  0  0  0  0
   -3.9019  -23.6779  -15.5561 H   0  0  0  0  0  0  0  0  0  0  0  0
   -4.3172  -25.0022  -16.6478 H   0  0  0  0  0  0  0  0  0  0  0  0
   -4.9872  -23.4034  -18.4099 H   0  0  0  0  0  0  0  0  0  0  0  0
   -2.1795  -22.9111  -17.3182 H   0  0  0  0  0  0  0  0  0  0  0  0
   -2.6529  -23.9250  -18.6832 H   0  0  0  0  0  0  0  0  0  0  0  0
   -3.4845  -21.9460  -19.9079 H   0  0  0  0  0  0  0  0  0  0  0  0
   -1.8204  -21.5962  -19.4035 H   0  0  0  0  0  0  0  0  0  0  0  0
   -2.6275  -20.3006  -17.4824 H   0  0  0  0  0  0  0  0  0  0  0  0
   -4.1324  -18.5948  -18.4456 H   0  0  0  0  0  0  0  0  0  0  0  0
   -4.5495  -19.6805  -19.7787 H   0  0  0  0  0  0  0  0  0  0  0  0
   -2.9095  -19.0286  -19.6488 H   0  0  0  0  0  0  0  0  0  0  0  0
  1  3  1  0  0  0  0
  1  2  1  0  0  0  0
  2  7  1  0  0  0  0
  2 12  1  1  0  0  0
  2 10  1  0  0  0  0
  3 17  1  1  0  0  0
  4  1  1  0  0  0  0
  5  1  1  0  0  0  0
  6 26  1  0  0  0  0
  6 25  1  0  0  0  0
  7 27  1  6  0  0  0
  7  6  1  0  0  0  0
  7  8  1  0  0  0  0
  8 28  1  0  0  0  0
  9  8  1  0  0  0  0
  9 31  1  0  0  0  0
 10  9  1  0  0  0  0
 10 32  1  1  0  0  0
 11 35  1  0  0  0  0
 11 10  1  0  0  0  0
 12 13  1  0  0  0  0
 13 36  1  0  0  0  0
 13 14  2  0  0  0  0
 14 37  1  0  0  0  0
 15 38  1  0  0  0  0
 15 14  1  0  0  0  0
 16 15  2  0  0  0  0
 17 12  2  0  0  0  0
 17 16  1  0  0  0  0
 18 40  1  0  0  0  0
 18 41  1  0  0  0  0
 19 43  1  6  0  0  0
 19  3  1  0  0  0  0
 19 18  1  0  0  0  0
 20 19  1  0  0  0  0
 20 44  1  0  0  0  0
 21 22  1  0  0  0  0
 21 20  1  0  0  0  0
 22 48  1  1  0  0  0
 22  3  1  0  0  0  0
 23 49  1  0  0  0  0
 23 22  1  0  0  0  0
 24  6  1  0  0  0  0
 29  8  1  0  0  0  0
 30  9  1  0  0  0  0
 33 11  1  0  0  0  0
 34 11  1  0  0  0  0
 39 16  1  0  0  0  0
 42 18  1  0  0  0  0
 45 20  1  0  0  0  0
 46 21  1  0  0  0  0
 47 21  1  0  0  0  0
 50 23  1  0  0  0  0
 51 23  1  0  0  0  0
M  END
$$$$
