CSD_code = SEQRIS | q = 1 | S = 0 | Stoichiometry = C16H18ClN4OZn(1+) | MND = 5
 OpenBabel04212202093D

 41 46  0  0  1  0  0  0  0  0999 V2000
    8.5377   12.2777   10.0054 Zn  0  0  0  0  0  0  0  0  0  0  0  0
    9.0296   13.6615    8.4467 Cl  0  0  0  0  0  0  0  0  0  0  0  0
    7.1503   10.7507   10.3905 N   0  0  0  0  0  0  0  0  0  0  0  0
    9.8307   10.4918    9.6149 N   0  0  1  0  0  4  0  0  0  0  0  0
    9.9397   12.2809   11.6023 N   0  0  0  0  0  0  0  0  0  0  0  0
    7.7612   13.8002   11.3977 N   0  0  0  0  0  0  0  0  0  0  0  0
    6.0105   10.8279   11.0664 C   0  0  0  0  0  3  0  0  0  0  0  0
    5.7327   11.8092   11.4221 H   0  0  0  0  0  0  0  0  0  0  0  0
    5.2142    9.7223   11.3113 C   0  0  0  0  0  0  0  0  0  0  0  0
    4.2905    9.8290   11.8563 H   0  0  0  0  0  0  0  0  0  0  0  0
    5.6289    8.4865   10.8387 C   0  0  0  0  0  0  0  0  0  0  0  0
    5.0342    7.6021   11.0067 H   0  0  0  0  0  0  0  0  0  0  0  0
    6.8236    8.4080   10.1393 C   0  0  0  0  0  0  0  0  0  0  0  0
    7.1789    7.4676    9.7491 H   0  0  0  0  0  0  0  0  0  0  0  0
    7.5550    9.5681    9.9347 C   0  0  0  0  0  0  0  0  0  0  0  0
    8.8082    9.5795    9.1000 C   0  0  1  0  0  0  0  0  0  0  0  0
    9.2082    8.5528    8.9744 H   0  0  0  0  0  0  0  0  0  0  0  0
    8.4865   10.1573    7.8710 O   0  0  0  0  0  0  0  0  0  0  0  0
    9.7224   10.5376    7.2725 C   0  0  0  0  0  0  0  0  0  0  0  0
    9.5442   11.4660    6.7310 H   0  0  0  0  0  0  0  0  0  0  0  0
   10.0555    9.7594    6.5777 H   0  0  0  0  0  0  0  0  0  0  0  0
   10.6973   10.7070    8.4503 C   0  0  0  0  0  0  0  0  0  0  0  0
   11.4968    9.9569    8.4152 H   0  0  0  0  0  0  0  0  0  0  0  0
   11.1316   11.7054    8.4731 H   0  0  0  0  0  0  0  0  0  0  0  0
   10.5073   10.0890   10.8347 C   0  0  0  0  0  0  0  0  0  0  0  0
   11.3423    9.4051   10.6371 H   0  0  0  0  0  0  0  0  0  0  0  0
    9.7815    9.5818   11.4762 H   0  0  0  0  0  0  0  0  0  0  0  0
   11.0161   11.3440   11.5605 C   0  0  0  0  0  0  0  0  0  0  0  0
   11.3984   11.0941   12.5560 H   0  0  0  0  0  0  0  0  0  0  0  0
   11.8311   11.7890   10.9783 H   0  0  0  0  0  0  0  0  0  0  0  0
    9.8088   13.2056   12.4533 C   0  0  0  0  0  0  0  0  0  0  0  0
   10.5207   13.3867   13.2603 H   0  0  0  0  0  0  0  0  0  0  0  0
    8.6704   14.1088   12.3330 C   0  0  0  0  0  0  0  0  0  0  0  0
    8.5617   15.2500   13.1224 C   0  0  0  0  0  0  0  0  0  0  0  0
    9.3114   15.4680   13.8669 H   0  0  0  0  0  0  0  0  0  0  0  0
    7.4876   16.1040   12.9193 C   0  0  0  0  0  0  0  0  0  0  0  0
    7.3816   17.0007   13.5098 H   0  0  0  0  0  0  0  0  0  0  0  0
    6.5618   15.7852   11.9394 C   0  0  0  0  0  0  0  0  0  0  0  0
    5.7167   16.4243   11.7411 H   0  0  0  0  0  0  0  0  0  0  0  0
    6.7415   14.6187   11.2045 C   0  0  0  0  0  0  0  0  0  0  0  0
    6.0434   14.3392   10.4272 H   0  0  0  0  0  0  0  0  0  0  0  0
  1  3  1  0  0  0  0
  1  6  1  0  0  0  0
  1  5  1  0  0  0  0
  2  1  1  0  0  0  0
  3  7  1  0  0  0  0
  4 22  1  6  0  0  0
  4  1  1  0  0  0  0
  4 25  1  0  0  0  0
  5 31  1  0  0  0  0
  6 33  1  0  0  0  0
  7  9  1  0  0  0  0
  7  8  1  0  0  0  0
  9 10  1  0  0  0  0
 11 12  1  0  0  0  0
 11  9  2  0  0  0  0
 13 11  1  0  0  0  0
 14 13  1  0  0  0  0
 15 13  2  0  0  0  0
 15  3  1  0  0  0  0
 16 17  1  6  0  0  0
 16  4  1  0  0  0  0
 16 15  1  0  0  0  0
 18 16  1  0  0  0  0
 19 18  1  0  0  0  0
 19 22  1  0  0  0  0
 20 19  1  0  0  0  0
 21 19  1  0  0  0  0
 22 24  1  0  0  0  0
 23 22  1  0  0  0  0
 25 27  1  0  0  0  0
 25 28  1  0  0  0  0
 26 25  1  0  0  0  0
 28  5  1  0  0  0  0
 28 29  1  0  0  0  0
 30 28  1  0  0  0  0
 31 32  1  0  0  0  0
 33 31  2  0  0  0  0
 33 34  1  0  0  0  0
 34 35  1  0  0  0  0
 36 34  2  0  0  0  0
 36 37  1  0  0  0  0
 38 36  1  0  0  0  0
 39 38  1  0  0  0  0
 40  6  1  0  0  0  0
 40 38  2  0  0  0  0
 41 40  1  0  0  0  0
M  END
$$$$
