CSD_code = SERDOJ | q = 0 | S = 0 | Stoichiometry = C20H8Cl2N6Pt | MND = 4
 OpenBabel04212202093D

 37 42  0  0  0  0  0  0  0  0999 V2000
   -9.0421    4.9279   -2.1665 Pt  0  0  0  0  0  0  0  0  0  0  0  0
  -10.9486    4.9439   -3.3162 Cl  0  0  0  0  0  0  0  0  0  0  0  0
   -9.0085    2.7036   -2.2601 Cl  0  0  0  0  0  0  0  0  0  0  0  0
   -8.9550    6.9297   -2.0123 N   0  0  0  0  0  0  0  0  0  0  0  0
   -7.3274    5.0498   -1.1255 N   0  0  0  0  0  0  0  0  0  0  0  0
   -4.4289    8.3497    0.7899 N   0  0  0  0  0  0  0  0  0  0  0  0
   -6.1522   10.3446   -0.1568 N   0  0  0  0  0  0  0  0  0  0  0  0
   -3.0587   14.8115    1.9220 N   0  0  0  0  0  0  0  0  0  0  0  0
   -0.6329   11.9956    3.2677 N   0  0  0  0  0  0  0  0  0  0  0  0
   -9.8040    7.8398   -2.4779 C   0  0  0  0  0  0  0  0  0  0  0  0
  -10.6618    7.4533   -3.0136 H   0  0  0  0  0  0  0  0  0  0  0  0
   -9.6085    9.2026   -2.2921 C   0  0  0  0  0  0  0  0  0  0  0  0
  -10.3285    9.8988   -2.6906 H   0  0  0  0  0  0  0  0  0  0  0  0
   -8.4975    9.6508   -1.6011 C   0  0  0  0  0  0  0  0  0  0  0  0
   -8.3069   10.6987   -1.4342 H   0  0  0  0  0  0  0  0  0  0  0  0
   -7.5955    8.7074   -1.1050 C   0  0  0  0  0  0  0  0  0  0  0  0
   -6.4029    9.0676   -0.3688 C   0  0  0  0  0  0  0  0  0  0  0  0
   -5.5201    8.0465    0.1147 C   0  0  0  0  0  0  0  0  0  0  0  0
   -5.8174    6.6523   -0.1339 C   0  0  0  0  0  0  0  0  0  0  0  0
   -5.0003    5.6096    0.3076 C   0  0  0  0  0  0  0  0  0  0  0  0
   -4.1043    5.8420    0.8603 H   0  0  0  0  0  0  0  0  0  0  0  0
   -5.3736    4.3099    0.0175 C   0  0  0  0  0  0  0  0  0  0  0  0
   -4.7701    3.4773    0.3405 H   0  0  0  0  0  0  0  0  0  0  0  0
   -6.5394    4.0688   -0.6986 C   0  0  0  0  0  0  0  0  0  0  0  0
   -6.8621    3.0647   -0.9436 H   0  0  0  0  0  0  0  0  0  0  0  0
   -6.9795    6.3275   -0.8518 C   0  0  0  0  0  0  0  0  0  0  0  0
   -7.8628    7.3481   -1.3335 C   0  0  0  0  0  0  0  0  0  0  0  0
   -5.0445   10.6636    0.5275 C   0  0  0  0  0  0  0  0  0  0  0  0
   -4.7440   12.0184    0.7723 C   0  0  0  0  0  0  0  0  0  0  0  0
   -5.4150   12.7774    0.4006 H   0  0  0  0  0  0  0  0  0  0  0  0
   -3.6104   12.3504    1.4749 C   0  0  0  0  0  0  0  0  0  0  0  0
   -2.7336   11.3335    1.9600 C   0  0  0  0  0  0  0  0  0  0  0  0
   -3.0087   10.0066    1.7308 C   0  0  0  0  0  0  0  0  0  0  0  0
   -2.3540    9.2284    2.0917 H   0  0  0  0  0  0  0  0  0  0  0  0
   -4.1655    9.6452    1.0119 C   0  0  0  0  0  0  0  0  0  0  0  0
   -3.2992   13.7094    1.7260 C   0  0  0  0  0  0  0  0  0  0  0  0
   -1.5737   11.7070    2.6822 C   0  0  0  0  0  0  0  0  0  0  0  0
  1  4  1  0  0  0  0
  1  5  1  0  0  0  0
  2  1  1  0  0  0  0
  3  1  1  0  0  0  0
  4 27  1  0  0  0  0
  5 26  1  0  0  0  0
  5 24  1  0  0  0  0
  6 35  1  0  0  0  0
  7 28  1  0  0  0  0
 10 12  2  0  0  0  0
 10  4  1  0  0  0  0
 11 10  1  0  0  0  0
 12 14  1  0  0  0  0
 13 12  1  0  0  0  0
 14 15  1  0  0  0  0
 14 16  2  0  0  0  0
 16 17  1  0  0  0  0
 17  7  2  0  0  0  0
 17 18  1  0  0  0  0
 18  6  2  0  0  0  0
 19 18  1  0  0  0  0
 19 20  2  0  0  0  0
 20 21  1  0  0  0  0
 22 20  1  0  0  0  0
 22 23  1  0  0  0  0
 24 22  2  0  0  0  0
 25 24  1  0  0  0  0
 26 19  1  0  0  0  0
 27 16  1  0  0  0  0
 27 26  2  0  0  0  0
 28 29  2  0  0  0  0
 28 35  1  0  0  0  0
 29 31  1  0  0  0  0
 30 29  1  0  0  0  0
 31 36  1  0  0  0  0
 31 32  2  0  0  0  0
 32 37  1  0  0  0  0
 33 32  1  0  0  0  0
 33 34  1  0  0  0  0
 35 33  2  0  0  0  0
 36  8  3  0  0  0  0
 37  9  3  0  0  0  0
M  END
$$$$
