CSD_code = SERSIR | q = 0 | S = 0 | Stoichiometry = C12H18Cl2HfN2O2 | MND = 6
 OpenBabel04212202093D

 37 39  0  0  1  0  0  0  0  0999 V2000
    2.7942    1.5950    1.2904 Hf  0  0  0  0  0  0  0  0  0  0  0  0
    2.3606    3.6530    2.3434 Cl  0  0  0  0  0  0  0  0  0  0  0  0
    3.9500    0.8437    3.1533 Cl  0  0  0  0  0  0  0  0  0  0  0  0
    3.1552   -0.1261    0.3884 O   0  0  0  0  0  0  0  0  0  0  0  0
    1.0418    0.9119    1.8223 O   0  0  0  0  0  0  0  0  0  0  0  0
    4.4537    2.2159    0.1968 N   0  0  1  0  0  0  0  0  0  0  0  0
    1.9165    2.5833   -0.4007 N   0  0  2  0  0  0  0  0  0  0  0  0
    4.4460   -2.0687    0.8542 C   0  0  0  0  0  0  0  0  0  0  0  0
    4.3430   -0.5970    0.5483 C   0  0  0  0  0  0  0  0  0  0  0  0
    5.5098    0.1383    0.4032 C   0  0  0  0  0  0  0  0  0  0  0  0
    5.5440    1.5103    0.0671 C   0  0  1  0  0  3  0  0  0  0  0  0
    6.8235    2.0944   -0.4705 C   0  0  0  0  0  0  0  0  0  0  0  0
    4.1890    3.4828   -0.4376 C   0  0  0  0  0  0  0  0  0  0  0  0
    2.8712    3.2965   -1.2284 C   0  0  0  0  0  0  0  0  0  0  0  0
    0.0788    3.6386   -1.6362 C   0  0  0  0  0  0  0  0  0  0  0  0
    0.6320    2.7671   -0.5369 C   0  0  2  0  0  3  0  0  0  0  0  0
   -0.3132    2.1801    0.3342 C   0  0  0  0  0  0  0  0  0  0  0  0
   -0.0920    1.3633    1.4285 C   0  0  0  0  0  0  0  0  0  0  0  0
   -1.2882    0.9466    2.2531 C   0  0  0  0  0  0  0  0  0  0  0  0
    5.3766   -2.4956    0.4943 H   0  0  0  0  0  0  0  0  0  0  0  0
    4.4038   -2.1799    1.9378 H   0  0  0  0  0  0  0  0  0  0  0  0
    3.5957   -2.5935    0.4257 H   0  0  0  0  0  0  0  0  0  0  0  0
    6.4478   -0.3874    0.4799 H   0  0  0  0  0  0  0  0  0  0  0  0
    6.7590    2.2057   -1.5530 H   0  0  0  0  0  0  0  0  0  0  0  0
    7.6592    1.4399   -0.2444 H   0  0  0  0  0  0  0  0  0  0  0  0
    7.0085    3.0729   -0.0323 H   0  0  0  0  0  0  0  0  0  0  0  0
    4.9837    3.8098   -1.1178 H   0  0  0  0  0  0  0  0  0  0  0  0
    4.0290    4.2458    0.3371 H   0  0  0  0  0  0  0  0  0  0  0  0
    2.5007    4.2819   -1.5310 H   0  0  0  0  0  0  0  0  0  0  0  0
    3.0811    2.7021   -2.1296 H   0  0  0  0  0  0  0  0  0  0  0  0
   -0.9976    3.5250   -1.7136 H   0  0  0  0  0  0  0  0  0  0  0  0
    0.5304    3.3839   -2.5932 H   0  0  0  0  0  0  0  0  0  0  0  0
    0.2966    4.6842   -1.4195 H   0  0  0  0  0  0  0  0  0  0  0  0
   -1.3453    2.4316    0.1417 H   0  0  0  0  0  0  0  0  0  0  0  0
   -2.1632    0.7778    1.6325 H   0  0  0  0  0  0  0  0  0  0  0  0
   -1.0456    0.0465    2.8121 H   0  0  0  0  0  0  0  0  0  0  0  0
   -1.5143    1.7396    2.9650 H   0  0  0  0  0  0  0  0  0  0  0  0
  1  5  1  0  0  0  0
  1  2  1  0  0  0  0
  1  3  1  0  0  0  0
  4  9  1  0  0  0  0
  4  1  1  0  0  0  0
  6 13  1  6  0  0  0
  6  1  1  0  0  0  0
  7 14  1  1  0  0  0
  7  1  1  0  0  0  0
  8 21  1  0  0  0  0
  9  8  1  0  0  0  0
 10 23  1  0  0  0  0
 10  9  2  0  0  0  0
 11 12  1  6  0  0  0
 11  6  1  0  0  0  0
 11 10  1  0  0  0  0
 12 25  1  0  0  0  0
 12 26  1  0  0  0  0
 13 28  1  0  0  0  0
 14 13  1  0  0  0  0
 15 33  1  0  0  0  0
 16 15  1  1  0  0  0
 16  7  1  0  0  0  0
 16 17  1  0  0  0  0
 17 18  2  0  0  0  0
 18  5  1  0  0  0  0
 18 19  1  0  0  0  0
 19 36  1  0  0  0  0
 19 37  1  0  0  0  0
 20  8  1  0  0  0  0
 22  8  1  0  0  0  0
 24 12  1  0  0  0  0
 27 13  1  0  0  0  0
 29 14  1  0  0  0  0
 30 14  1  0  0  0  0
 31 15  1  0  0  0  0
 32 15  1  0  0  0  0
 34 17  1  0  0  0  0
 35 19  1  0  0  0  0
M  END
$$$$
