CSD_code = SERSIT | q = 0 | S = 0 | Stoichiometry = C19H28AuClN2 | MND = 2
 OpenBabel04212202093D

 51 53  0  0  1  0  0  0  0  0999 V2000
    4.0905    1.4223    2.4058 Au  0  0  0  0  0  0  0  0  0  0  0  0
    1.9765    1.9269    2.9738 Cl  0  0  0  0  0  0  0  0  0  0  0  0
    6.9435    1.1329    2.8694 N   0  0  0  0  0  0  0  0  0  0  0  0
    6.3847    0.5007    0.7448 N   0  0  2  0  0  0  0  0  0  0  0  0
    5.9972    0.9918    1.9600 C   0  0  1  0  0  3  0  0  0  0  0  0
    8.3767    1.1598    2.5945 C   0  0  0  0  0  0  0  0  0  0  0  0
    8.8616    0.3827    3.1976 H   0  0  0  0  0  0  0  0  0  0  0  0
    8.7588    2.1270    2.9352 H   0  0  0  0  0  0  0  0  0  0  0  0
    8.7021    0.9283    1.1162 C   0  0  1  0  0  0  0  0  0  0  0  0
    9.7305    0.5602    1.0512 H   0  0  0  0  0  0  0  0  0  0  0  0
    7.6949   -0.1200    0.6672 C   0  0  0  0  0  0  0  0  0  0  0  0
    7.8670   -0.4536   -0.3567 H   0  0  0  0  0  0  0  0  0  0  0  0
    7.7098   -0.9934    1.3254 H   0  0  0  0  0  0  0  0  0  0  0  0
    6.1779    1.4286   -0.3475 C   0  0  0  0  0  0  0  0  0  0  0  0
    5.1421    1.7739   -0.3302 H   0  0  0  0  0  0  0  0  0  0  0  0
    6.3743    0.9194   -1.2931 H   0  0  0  0  0  0  0  0  0  0  0  0
    7.1399    2.6045   -0.1218 C   0  0  0  0  0  0  0  0  0  0  0  0
    6.7612    3.1853    0.7229 H   0  0  0  0  0  0  0  0  0  0  0  0
    7.1491    3.2583   -0.9946 H   0  0  0  0  0  0  0  0  0  0  0  0
    8.5753    2.1368    0.1683 C   0  0  0  0  0  0  0  0  0  0  0  0
    9.1521    2.9762    0.5626 H   0  0  0  0  0  0  0  0  0  0  0  0
    9.0373    1.8399   -0.7771 H   0  0  0  0  0  0  0  0  0  0  0  0
    6.5981    1.3609    4.2398 C   0  0  0  0  0  0  0  0  0  0  0  0
    6.3696    0.2511    5.0576 C   0  0  0  0  0  0  0  0  0  0  0  0
    6.0760    0.4686    6.3967 C   0  0  0  0  0  0  0  0  0  0  0  0
    5.8904   -0.3731    7.0452 H   0  0  0  0  0  0  0  0  0  0  0  0
    6.0104    1.7494    6.9083 C   0  0  0  0  0  0  0  0  0  0  0  0
    5.7814    1.9022    7.9522 H   0  0  0  0  0  0  0  0  0  0  0  0
    6.2195    2.8355    6.0820 C   0  0  0  0  0  0  0  0  0  0  0  0
    6.1445    3.8323    6.4873 H   0  0  0  0  0  0  0  0  0  0  0  0
    6.5118    2.6637    4.7356 C   0  0  0  0  0  0  0  0  0  0  0  0
    6.6858    3.8740    3.8493 C   0  0  0  0  0  0  0  0  0  0  0  0
    6.8698    3.5403    2.8241 H   0  0  0  0  0  0  0  0  0  0  0  0
    7.8789    4.7212    4.3002 C   0  0  0  0  0  0  0  0  0  0  0  0
    7.7163    5.1152    5.2997 H   0  0  0  0  0  0  0  0  0  0  0  0
    8.0188    5.5600    3.6218 H   0  0  0  0  0  0  0  0  0  0  0  0
    8.7948    4.1319    4.3153 H   0  0  0  0  0  0  0  0  0  0  0  0
    5.4029    4.7084    3.8340 C   0  0  0  0  0  0  0  0  0  0  0  0
    4.5545    4.0909    3.5446 H   0  0  0  0  0  0  0  0  0  0  0  0
    5.4968    5.5251    3.1213 H   0  0  0  0  0  0  0  0  0  0  0  0
    5.1989    5.1305    4.8139 H   0  0  0  0  0  0  0  0  0  0  0  0
    6.4012   -1.1582    4.5148 C   0  0  0  0  0  0  0  0  0  0  0  0
    6.6588   -1.1291    3.4516 H   0  0  0  0  0  0  0  0  0  0  0  0
    5.0131   -1.7921    4.6293 C   0  0  0  0  0  0  0  0  0  0  0  0
    4.7194   -1.9015    5.6697 H   0  0  0  0  0  0  0  0  0  0  0  0
    5.0107   -2.7757    4.1648 H   0  0  0  0  0  0  0  0  0  0  0  0
    4.2745   -1.1689    4.1282 H   0  0  0  0  0  0  0  0  0  0  0  0
    7.4547   -2.0046    5.2339 C   0  0  0  0  0  0  0  0  0  0  0  0
    8.4350   -1.5346    5.1732 H   0  0  0  0  0  0  0  0  0  0  0  0
    7.5153   -2.9907    4.7787 H   0  0  0  0  0  0  0  0  0  0  0  0
    7.2035   -2.1298    6.2835 H   0  0  0  0  0  0  0  0  0  0  0  0
  1  2  1  0  0  0  0
  3 23  1  0  0  0  0
  4 14  1  6  0  0  0
  4  5  1  0  0  0  0
  5  1  1  1  0  0  0
  5  3  1  0  0  0  0
  6  3  1  0  0  0  0
  6  8  1  0  0  0  0
  6  7  1  0  0  0  0
  9 10  1  6  0  0  0
  9  6  1  0  0  0  0
 11  4  1  0  0  0  0
 11  9  1  0  0  0  0
 11 13  1  0  0  0  0
 12 11  1  0  0  0  0
 14 15  1  0  0  0  0
 14 17  1  0  0  0  0
 16 14  1  0  0  0  0
 17 20  1  0  0  0  0
 17 18  1  0  0  0  0
 19 17  1  0  0  0  0
 20 21  1  0  0  0  0
 20  9  1  0  0  0  0
 22 20  1  0  0  0  0
 23 31  2  0  0  0  0
 23 24  1  0  0  0  0
 24 25  2  0  0  0  0
 25 27  1  0  0  0  0
 25 26  1  0  0  0  0
 27 28  1  0  0  0  0
 29 30  1  0  0  0  0
 29 27  2  0  0  0  0
 31 29  1  0  0  0  0
 32 34  1  0  0  0  0
 32 31  1  0  0  0  0
 33 32  1  0  0  0  0
 34 37  1  0  0  0  0
 34 35  1  0  0  0  0
 36 34  1  0  0  0  0
 38 32  1  0  0  0  0
 38 41  1  0  0  0  0
 39 38  1  0  0  0  0
 40 38  1  0  0  0  0
 42 44  1  0  0  0  0
 42 24  1  0  0  0  0
 42 48  1  0  0  0  0
 43 42  1  0  0  0  0
 44 45  1  0  0  0  0
 46 44  1  0  0  0  0
 47 44  1  0  0  0  0
 48 51  1  0  0  0  0
 49 48  1  0  0  0  0
 50 48  1  0  0  0  0
M  END
$$$$
