CSD_code = SESDOJ | q = 0 | S = 0 | Stoichiometry = C16H15ClN2Pt | MND = 4
 OpenBabel04212202093D

 35 37  0  0  0  0  0  0  0  0999 V2000
   -5.4973    0.7573    5.5517 Pt  0  0  1  0  0  0  0  0  0  0  0  0
   -3.5906   -0.1643    6.6589 Cl  0  0  0  0  0  0  0  0  0  0  0  0
   -5.7167   -0.9547    4.6684 N   0  0  0  0  0  0  0  0  0  0  0  0
   -5.1546    2.4070    6.5095 N   0  0  0  0  0  0  0  0  0  0  0  0
   -6.0499   -2.0169    5.4065 C   0  0  0  0  0  3  0  0  0  0  0  0
   -6.0270   -3.3050    4.9074 C   0  0  0  0  0  0  0  0  0  0  0  0
   -5.6420   -3.5111    3.5909 C   0  0  0  0  0  0  0  0  0  0  0  0
   -5.2995   -2.4062    2.8260 C   0  0  0  0  0  0  0  0  0  0  0  0
   -5.3526   -1.1492    3.3984 C   0  0  0  0  0  0  0  0  0  0  0  0
   -5.8504    2.7503    7.5963 C   0  0  0  0  0  3  0  0  0  0  0  0
   -5.4772    3.7991    8.4155 C   0  0  0  0  0  0  0  0  0  0  0  0
   -4.3426    4.5314    8.0997 C   0  0  0  0  0  0  0  0  0  0  0  0
   -3.6263    4.1770    6.9661 C   0  0  0  0  0  0  0  0  0  0  0  0
   -4.0630    3.1123    6.2017 C   0  0  0  0  0  0  0  0  0  0  0  0
   -7.1090    1.5371    4.6129 C   0  0  0  0  0  0  0  0  0  0  0  0
   -6.9986    2.6647    3.7992 C   0  0  0  0  0  0  0  0  0  0  0  0
   -8.0983    3.1977    3.1469 C   0  0  0  0  0  0  0  0  0  0  0  0
   -9.3449    2.6166    3.2987 C   0  0  0  0  0  0  0  0  0  0  0  0
   -9.4806    1.4995    4.1038 C   0  0  0  0  0  0  0  0  0  0  0  0
   -8.3753    0.9677    4.7477 C   0  0  0  0  0  0  0  0  0  0  0  0
   -6.3275   -1.8196    6.4368 H   0  0  0  0  0  0  0  0  0  0  0  0
   -6.2980   -4.1333    5.5428 H   0  0  0  0  0  0  0  0  0  0  0  0
   -5.6072   -4.5056    3.1736 H   0  0  0  0  0  0  0  0  0  0  0  0
   -4.9918   -2.5164    1.7982 H   0  0  0  0  0  0  0  0  0  0  0  0
   -5.0980   -0.2623    2.8280 H   0  0  0  0  0  0  0  0  0  0  0  0
   -6.7350    2.1596    7.8095 H   0  0  0  0  0  0  0  0  0  0  0  0
   -6.0648    4.0352    9.2884 H   0  0  0  0  0  0  0  0  0  0  0  0
   -4.0234    5.3535    8.7215 H   0  0  0  0  0  0  0  0  0  0  0  0
   -2.7349    4.7137    6.6823 H   0  0  0  0  0  0  0  0  0  0  0  0
   -3.5179    2.7949    5.3186 H   0  0  0  0  0  0  0  0  0  0  0  0
   -6.0330    3.1420    3.6654 H   0  0  0  0  0  0  0  0  0  0  0  0
   -7.9825    4.0709    2.5193 H   0  0  0  0  0  0  0  0  0  0  0  0
  -10.2050    3.0317    2.7927 H   0  0  0  0  0  0  0  0  0  0  0  0
  -10.4512    1.0387    4.2286 H   0  0  0  0  0  0  0  0  0  0  0  0
   -8.5090    0.0888    5.3703 H   0  0  0  0  0  0  0  0  0  0  0  0
  1  4  1  0  0  0  0
  1  2  1  6  0  0  0
  3  5  1  0  0  0  0
  3  1  1  0  0  0  0
  4 10  1  0  0  0  0
  5 21  1  0  0  0  0
  6  5  1  0  0  0  0
  6 22  1  0  0  0  0
  7  6  2  0  0  0  0
  8  9  2  0  0  0  0
  8  7  1  0  0  0  0
  9  3  1  0  0  0  0
 10 26  1  0  0  0  0
 10 11  1  0  0  0  0
 11 27  1  0  0  0  0
 12 11  2  0  0  0  0
 12 28  1  0  0  0  0
 13 12  1  0  0  0  0
 14  4  1  0  0  0  0
 14 13  2  0  0  0  0
 15 20  1  0  0  0  0
 15  1  1  0  0  0  0
 16 15  2  0  0  0  0
 17 18  2  0  0  0  0
 17 16  1  0  0  0  0
 18 19  1  0  0  0  0
 19 34  1  0  0  0  0
 19 20  2  0  0  0  0
 20 35  1  0  0  0  0
 23  7  1  0  0  0  0
 24  8  1  0  0  0  0
 25  9  1  0  0  0  0
 29 13  1  0  0  0  0
 30 14  1  0  0  0  0
 31 16  1  0  0  0  0
 32 17  1  0  0  0  0
 33 18  1  0  0  0  0
M  END
$$$$
