CSD_code = SESGON | q = 0 | S = 0 | Stoichiometry = C12H24Cl4N4O2Pt | MND = 6
 OpenBabel04212202093D

 47 46  0  0  1  0  0  0  0  0999 V2000
   11.3750    1.7169    7.9323 Pt  0  0  0  0  0  0  0  0  0  0  0  0
   13.0585    3.3577    7.6347 Cl  0  0  0  0  0  0  0  0  0  0  0  0
   12.8834    0.0800    7.1124 Cl  0  0  0  0  0  0  0  0  0  0  0  0
    9.8829    2.5276    4.0309 O   0  0  0  0  0  0  0  0  0  0  0  0
   10.6942    1.8434    6.0480 N   0  0  0  0  0  0  0  0  0  0  0  0
   10.5207    0.9123    5.6432 H   0  0  0  0  0  0  0  0  0  0  0  0
    9.7666    1.1455    3.7416 N   0  0  0  0  0  0  0  0  0  0  0  0
   10.3823    2.7810    5.2416 C   0  0  1  0  0  3  0  0  0  0  0  0
   10.5470    4.2424    5.4902 C   0  0  0  0  0  0  0  0  0  0  0  0
   10.6813    4.4148    6.5575 H   0  0  0  0  0  0  0  0  0  0  0  0
    9.6451    4.7525    5.1473 H   0  0  0  0  0  0  0  0  0  0  0  0
   11.7632    4.7670    4.7203 C   0  0  0  0  0  0  0  0  0  0  0  0
   12.6678    4.2944    5.0924 H   0  0  0  0  0  0  0  0  0  0  0  0
   11.8485    5.8388    4.8721 H   0  0  0  0  0  0  0  0  0  0  0  0
   11.6644    4.5680    3.6558 H   0  0  0  0  0  0  0  0  0  0  0  0
    9.2483    0.8500    2.6248 C   0  0  0  0  0  0  0  0  0  0  0  0
    8.7711    1.8276    1.6031 C   0  0  0  0  0  0  0  0  0  0  0  0
    8.3596    2.7123    2.0849 H   0  0  0  0  0  0  0  0  0  0  0  0
    8.0273    1.3777    0.9520 H   0  0  0  0  0  0  0  0  0  0  0  0
    9.6184    2.1461    0.9951 H   0  0  0  0  0  0  0  0  0  0  0  0
    9.1317   -0.6032    2.3223 C   0  0  0  0  0  0  0  0  0  0  0  0
    9.6106   -0.8192    1.3690 H   0  0  0  0  0  0  0  0  0  0  0  0
    8.0801   -0.8740    2.2400 H   0  0  0  0  0  0  0  0  0  0  0  0
    9.5932   -1.1943    3.1076 H   0  0  0  0  0  0  0  0  0  0  0  0
    9.6891    0.0791    8.2324 Cl  0  0  0  0  0  0  0  0  0  0  0  0
    9.8657    3.3560    8.7524 Cl  0  0  0  0  0  0  0  0  0  0  0  0
   12.8664    0.9089   11.8343 O   0  0  0  0  0  0  0  0  0  0  0  0
   12.0558    1.5930    9.8169 N   0  0  0  0  0  0  0  0  0  0  0  0
   12.2285    2.5241   10.2218 H   0  0  0  0  0  0  0  0  0  0  0  0
   12.9827    2.2910   12.1237 N   0  0  0  0  0  0  0  0  0  0  0  0
   12.3675    0.6555   10.6235 C   0  0  2  0  0  3  0  0  0  0  0  0
   12.2024   -0.8059   10.3750 C   0  0  0  0  0  0  0  0  0  0  0  0
   12.0681   -0.9782    9.3077 H   0  0  0  0  0  0  0  0  0  0  0  0
   13.1042   -1.3160   10.7180 H   0  0  0  0  0  0  0  0  0  0  0  0
   10.9862   -1.3306   11.1449 C   0  0  0  0  0  0  0  0  0  0  0  0
   10.0815   -0.8580   10.7729 H   0  0  0  0  0  0  0  0  0  0  0  0
   10.9008   -2.4024   10.9931 H   0  0  0  0  0  0  0  0  0  0  0  0
   11.0850   -1.1317   12.2094 H   0  0  0  0  0  0  0  0  0  0  0  0
   13.5009    2.5864   13.2405 C   0  0  0  0  0  0  0  0  0  0  0  0
   13.9781    1.6088   14.2622 C   0  0  0  0  0  0  0  0  0  0  0  0
   14.3896    0.7241   13.7803 H   0  0  0  0  0  0  0  0  0  0  0  0
   14.7219    2.0587   14.9133 H   0  0  0  0  0  0  0  0  0  0  0  0
   13.1307    1.2902   14.8702 H   0  0  0  0  0  0  0  0  0  0  0  0
   13.6174    4.0397   13.5431 C   0  0  0  0  0  0  0  0  0  0  0  0
   13.1385    4.2556   14.4964 H   0  0  0  0  0  0  0  0  0  0  0  0
   14.6690    4.3104   13.6255 H   0  0  0  0  0  0  0  0  0  0  0  0
   13.1560    4.6307   12.7578 H   0  0  0  0  0  0  0  0  0  0  0  0
  1 25  1  0  0  0  0
  1 26  1  0  0  0  0
  1 28  1  0  0  0  0
  2  1  1  0  0  0  0
  3  1  1  0  0  0  0
  5  1  1  0  0  0  0
  6  5  1  0  0  0  0
  7  4  1  0  0  0  0
  8  4  1  6  0  0  0
  8  9  1  0  0  0  0
  8  5  1  0  0  0  0
  9 10  1  0  0  0  0
 11  9  1  0  0  0  0
 12 14  1  0  0  0  0
 12 13  1  0  0  0  0
 12  9  1  0  0  0  0
 15 12  1  0  0  0  0
 16  7  2  0  0  0  0
 17 18  1  0  0  0  0
 17 16  1  0  0  0  0
 19 17  1  0  0  0  0
 20 17  1  0  0  0  0
 21 16  1  0  0  0  0
 21 24  1  0  0  0  0
 22 21  1  0  0  0  0
 23 21  1  0  0  0  0
 27 30  1  0  0  0  0
 28 29  1  0  0  0  0
 28 31  1  0  0  0  0
 30 39  2  0  0  0  0
 31 27  1  1  0  0  0
 32 31  1  0  0  0  0
 32 34  1  0  0  0  0
 32 35  1  0  0  0  0
 33 32  1  0  0  0  0
 35 38  1  0  0  0  0
 36 35  1  0  0  0  0
 37 35  1  0  0  0  0
 39 44  1  0  0  0  0
 39 40  1  0  0  0  0
 40 43  1  0  0  0  0
 40 42  1  0  0  0  0
 41 40  1  0  0  0  0
 44 46  1  0  0  0  0
 44 45  1  0  0  0  0
 47 44  1  0  0  0  0
M  END
$$$$
