CSD_code = SESXIZ | q = 0 | S = 0 | Stoichiometry = C24H29Cl2N3OPtS | MND = 4
 OpenBabel04212202093D

 61 63  0  0  0  0  0  0  0  0999 V2000
   -0.4388    1.8444    3.6409 Pt  0  0  0  0  0  0  0  0  0  0  0  0
   -1.8159    3.0046    2.2272 Cl  0  0  0  0  0  0  0  0  0  0  0  0
    0.9717    0.7130    5.0901 Cl  0  0  0  0  0  0  0  0  0  0  0  0
   -2.1416    0.7832    4.6369 S   0  0  0  0  0  0  0  0  0  0  0  0
   -3.5136    1.0831    4.2861 O   0  0  0  0  0  1  0  0  0  0  0  0
    1.1492    2.6682    2.6932 N   0  0  0  0  0  0  0  0  0  0  0  0
    0.6771    4.7677    3.4715 N   0  0  0  0  0  0  0  0  0  0  0  0
    0.1870    4.2495    4.2034 H   0  0  0  0  0  0  0  0  0  0  0  0
    2.1038    4.4809    1.6180 N   0  0  0  0  0  0  0  0  0  0  0  0
    2.3278    3.8455    0.8638 H   0  0  0  0  0  0  0  0  0  0  0  0
    1.3006    3.9637    2.5805 C   0  0  0  0  0  3  0  0  0  0  0  0
    1.9220    1.7522    1.9478 C   0  0  0  0  0  0  0  0  0  0  0  0
    1.2540    0.8952    1.0740 C   0  0  0  0  0  0  0  0  0  0  0  0
    0.1788    0.9950    0.9751 H   0  0  0  0  0  0  0  0  0  0  0  0
    1.9554   -0.0470    0.3475 C   0  0  0  0  0  0  0  0  0  0  0  0
    1.4321   -0.7064   -0.3279 H   0  0  0  0  0  0  0  0  0  0  0  0
    3.3297   -0.1423    0.4942 C   0  0  0  0  0  0  0  0  0  0  0  0
    3.8854   -0.8782   -0.0669 H   0  0  0  0  0  0  0  0  0  0  0  0
    3.9891    0.6908    1.3804 C   0  0  0  0  0  0  0  0  0  0  0  0
    5.0568    0.5923    1.5130 H   0  0  0  0  0  0  0  0  0  0  0  0
    3.3078    1.6449    2.1244 C   0  0  0  0  0  0  0  0  0  0  0  0
    4.0286    2.4963    3.1244 C   0  0  0  0  0  0  0  0  0  0  0  0
    4.2614    3.4808    2.7168 H   0  0  0  0  0  0  0  0  0  0  0  0
    4.9612    2.0216    3.4176 H   0  0  0  0  0  0  0  0  0  0  0  0
    3.4101    2.6292    4.0104 H   0  0  0  0  0  0  0  0  0  0  0  0
    0.2285    6.0828    3.2328 C   0  0  0  0  0  0  0  0  0  0  0  0
   -0.1793    6.4815    1.9672 C   0  0  0  0  0  0  0  0  0  0  0  0
   -0.2136    5.7557    1.1708 H   0  0  0  0  0  0  0  0  0  0  0  0
   -0.5756    7.7865    1.7476 C   0  0  0  0  0  0  0  0  0  0  0  0
   -0.8870    8.0930    0.7611 H   0  0  0  0  0  0  0  0  0  0  0  0
   -0.5852    8.6900    2.7956 C   0  0  0  0  0  0  0  0  0  0  0  0
   -0.8908    9.7116    2.6284 H   0  0  0  0  0  0  0  0  0  0  0  0
   -0.2223    8.2776    4.0657 C   0  0  0  0  0  0  0  0  0  0  0  0
   -0.2534    8.9801    4.8858 H   0  0  0  0  0  0  0  0  0  0  0  0
    0.1869    6.9750    4.3072 C   0  0  0  0  0  0  0  0  0  0  0  0
    0.5654    6.5173    5.6822 C   0  0  0  0  0  0  0  0  0  0  0  0
    0.6032    7.3581    6.3693 H   0  0  0  0  0  0  0  0  0  0  0  0
    1.5364    6.0253    5.6764 H   0  0  0  0  0  0  0  0  0  0  0  0
   -0.1671    5.8020    6.0577 H   0  0  0  0  0  0  0  0  0  0  0  0
    2.6315    5.7785    1.5341 C   0  0  0  0  0  0  0  0  0  0  0  0
    3.0687    6.4388    2.6761 C   0  0  0  0  0  0  0  0  0  0  0  0
    3.0126    5.9405    3.6309 H   0  0  0  0  0  0  0  0  0  0  0  0
    3.5782    7.7195    2.5860 C   0  0  0  0  0  0  0  0  0  0  0  0
    3.9061    8.2295    3.4786 H   0  0  0  0  0  0  0  0  0  0  0  0
    3.6727    8.3383    1.3522 C   0  0  0  0  0  0  0  0  0  0  0  0
    4.0667    9.3400    1.2760 H   0  0  0  0  0  0  0  0  0  0  0  0
    3.2696    7.6660    0.2118 C   0  0  0  0  0  0  0  0  0  0  0  0
    3.3549    8.1481   -0.7511 H   0  0  0  0  0  0  0  0  0  0  0  0
    2.7462    6.3838    0.2787 C   0  0  0  0  0  0  0  0  0  0  0  0
    2.3065    5.6591   -0.9574 C   0  0  0  0  0  0  0  0  0  0  0  0
    2.3426    6.3212   -1.8179 H   0  0  0  0  0  0  0  0  0  0  0  0
    1.2885    5.2876   -0.8495 H   0  0  0  0  0  0  0  0  0  0  0  0
    2.9582    4.8071   -1.1592 H   0  0  0  0  0  0  0  0  0  0  0  0
   -2.0495    0.8151    6.4541 C   0  0  0  0  0  0  0  0  0  0  0  0
   -2.2713    1.8265    6.7779 H   0  0  0  0  0  0  0  0  0  0  0  0
   -1.0456    0.5307    6.7473 H   0  0  0  0  0  0  0  0  0  0  0  0
   -2.7944    0.1307    6.8426 H   0  0  0  0  0  0  0  0  0  0  0  0
   -1.8937   -1.0002    4.3855 C   0  0  0  0  0  0  0  0  0  0  0  0
   -2.6751   -1.5375    4.9105 H   0  0  0  0  0  0  0  0  0  0  0  0
   -0.9084   -1.2564    4.7586 H   0  0  0  0  0  0  0  0  0  0  0  0
   -1.9601   -1.1957    3.3197 H   0  0  0  0  0  0  0  0  0  0  0  0
  1  4  1  0  0  0  0
  1  3  1  0  0  0  0
  2  1  1  0  0  0  0
  4 54  1  0  0  0  0
  5  4  1  0  0  0  0
  6  1  1  0  0  0  0
  7  8  1  0  0  0  0
  9 11  1  0  0  0  0
 10  9  1  0  0  0  0
 11  6  1  0  0  0  0
 11  7  1  0  0  0  0
 12 21  1  0  0  0  0
 12  6  1  0  0  0  0
 13 12  2  0  0  0  0
 14 13  1  0  0  0  0
 15 17  2  0  0  0  0
 15 13  1  0  0  0  0
 16 15  1  0  0  0  0
 17 19  1  0  0  0  0
 18 17  1  0  0  0  0
 19 20  1  0  0  0  0
 19 21  2  0  0  0  0
 21 22  1  0  0  0  0
 22 24  1  0  0  0  0
 22 25  1  0  0  0  0
 23 22  1  0  0  0  0
 26  7  1  0  0  0  0
 26 35  1  0  0  0  0
 27 26  2  0  0  0  0
 28 27  1  0  0  0  0
 29 27  1  0  0  0  0
 29 31  2  0  0  0  0
 30 29  1  0  0  0  0
 31 33  1  0  0  0  0
 32 31  1  0  0  0  0
 33 35  2  0  0  0  0
 33 34  1  0  0  0  0
 35 36  1  0  0  0  0
 36 39  1  0  0  0  0
 36 37  1  0  0  0  0
 38 36  1  0  0  0  0
 40  9  1  0  0  0  0
 40 41  1  0  0  0  0
 41 42  1  0  0  0  0
 43 41  2  0  0  0  0
 43 44  1  0  0  0  0
 45 43  1  0  0  0  0
 46 45  1  0  0  0  0
 47 49  1  0  0  0  0
 47 45  2  0  0  0  0
 48 47  1  0  0  0  0
 49 40  2  0  0  0  0
 50 52  1  0  0  0  0
 50 49  1  0  0  0  0
 51 50  1  0  0  0  0
 53 50  1  0  0  0  0
 54 56  1  0  0  0  0
 54 55  1  0  0  0  0
 54 57  1  0  0  0  0
 58  4  1  0  0  0  0
 58 60  1  0  0  0  0
 58 59  1  0  0  0  0
 61 58  1  0  0  0  0
M  END
$$$$
