CSD_code = SESXOF | q = 0 | S = 0 | Stoichiometry = C24H29Cl2N3O4PtS | MND = 4
 OpenBabel04212202093D

 64 66  0  0  0  0  0  0  0  0999 V2000
    4.7498   12.2212    4.1979 Pt  0  0  0  0  0  0  0  0  0  0  0  0
    3.6035   13.7946    3.0314 Cl  0  0  0  0  0  0  0  0  0  0  0  0
    2.9045   11.0375    4.7295 Cl  0  0  0  0  0  0  0  0  0  0  0  0
    6.6288   13.3547    3.5811 S   0  0  0  0  0  0  0  0  0  0  0  0
    5.8927   10.8616    5.2382 N   0  0  0  0  0  0  0  0  0  0  0  0
    6.4040    9.9969    3.2028 N   0  0  0  0  0  0  0  0  0  0  0  0
    5.4068   10.0082    2.9897 H   0  0  0  0  0  0  0  0  0  0  0  0
    7.8900    9.6833    5.0069 N   0  0  0  0  0  0  0  0  0  0  0  0
    8.2500   10.1402    5.8346 H   0  0  0  0  0  0  0  0  0  0  0  0
    6.2720    8.5482    6.7099 O   0  0  0  0  0  0  0  0  0  0  0  0
    5.3465    8.9495    1.0590 O   0  0  0  0  0  0  0  0  0  0  0  0
   10.3885    9.5460    5.7917 O   0  0  0  0  0  0  0  0  0  0  0  0
    7.8966   12.8037    4.0562 O   0  0  0  0  0  1  0  0  0  0  0  0
    6.7284   10.1685    4.5130 C   0  0  0  0  0  3  0  0  0  0  0  0
    5.8766   10.8766    6.6297 C   0  0  0  0  0  0  0  0  0  0  0  0
    6.0370    9.7047    7.3997 C   0  0  0  0  0  0  0  0  0  0  0  0
    5.9293    9.7846    8.7808 C   0  0  0  0  0  0  0  0  0  0  0  0
    6.0452    8.8992    9.3855 H   0  0  0  0  0  0  0  0  0  0  0  0
    5.6560   10.9924    9.4021 C   0  0  0  0  0  0  0  0  0  0  0  0
    5.5745   11.0269   10.4777 H   0  0  0  0  0  0  0  0  0  0  0  0
    5.4686   12.1372    8.6500 C   0  0  0  0  0  0  0  0  0  0  0  0
    5.2328   13.0737    9.1303 H   0  0  0  0  0  0  0  0  0  0  0  0
    5.5737   12.0713    7.2742 C   0  0  0  0  0  0  0  0  0  0  0  0
    5.4078   12.9532    6.6629 H   0  0  0  0  0  0  0  0  0  0  0  0
    6.2621    7.3294    7.4103 C   0  0  0  0  0  0  0  0  0  0  0  0
    7.0885    7.2698    8.1266 H   0  0  0  0  0  0  0  0  0  0  0  0
    6.3920    6.5583    6.6522 H   0  0  0  0  0  0  0  0  0  0  0  0
    5.3133    7.1731    7.9318 H   0  0  0  0  0  0  0  0  0  0  0  0
    7.2429    9.8384    2.1011 C   0  0  0  0  0  0  0  0  0  0  0  0
    6.6633    9.2895    0.9397 C   0  0  0  0  0  0  0  0  0  0  0  0
    7.4332    9.1433   -0.2020 C   0  0  0  0  0  0  0  0  0  0  0  0
    7.0090    8.7212   -1.0990 H   0  0  0  0  0  0  0  0  0  0  0  0
    8.7647    9.5337   -0.1962 C   0  0  0  0  0  0  0  0  0  0  0  0
    9.3554    9.4059   -1.0903 H   0  0  0  0  0  0  0  0  0  0  0  0
    9.3253   10.0935    0.9352 C   0  0  0  0  0  0  0  0  0  0  0  0
   10.3546   10.4162    0.9286 H   0  0  0  0  0  0  0  0  0  0  0  0
    8.5650   10.2555    2.0818 C   0  0  0  0  0  0  0  0  0  0  0  0
    8.9815   10.7394    2.9499 H   0  0  0  0  0  0  0  0  0  0  0  0
    4.6472    8.5375   -0.0907 C   0  0  0  0  0  0  0  0  0  0  0  0
    4.6946    9.2935   -0.8800 H   0  0  0  0  0  0  0  0  0  0  0  0
    3.6138    8.4120    0.2276 H   0  0  0  0  0  0  0  0  0  0  0  0
    5.0287    7.5852   -0.4723 H   0  0  0  0  0  0  0  0  0  0  0  0
    8.6283    8.5836    4.5787 C   0  0  0  0  0  0  0  0  0  0  0  0
    9.9703    8.5106    4.9997 C   0  0  0  0  0  0  0  0  0  0  0  0
   10.7510    7.4357    4.6098 C   0  0  0  0  0  0  0  0  0  0  0  0
   11.7833    7.3674    4.9137 H   0  0  0  0  0  0  0  0  0  0  0  0
   10.2105    6.4346    3.8157 C   0  0  0  0  0  0  0  0  0  0  0  0
   10.8333    5.6071    3.5128 H   0  0  0  0  0  0  0  0  0  0  0  0
    8.8857    6.4884    3.4307 C   0  0  0  0  0  0  0  0  0  0  0  0
    8.4606    5.6975    2.8328 H   0  0  0  0  0  0  0  0  0  0  0  0
    8.0928    7.5558    3.8179 C   0  0  0  0  0  0  0  0  0  0  0  0
    7.0511    7.5822    3.5442 H   0  0  0  0  0  0  0  0  0  0  0  0
   11.7116    9.5324    6.2688 C   0  0  0  0  0  0  0  0  0  0  0  0
   11.9045    8.6542    6.8934 H   0  0  0  0  0  0  0  0  0  0  0  0
   11.8153   10.4336    6.8710 H   0  0  0  0  0  0  0  0  0  0  0  0
   12.4344    9.5617    5.4478 H   0  0  0  0  0  0  0  0  0  0  0  0
    6.6172   15.1286    3.9899 C   0  0  0  0  0  0  0  0  0  0  0  0
    6.6523   15.2229    5.0699 H   0  0  0  0  0  0  0  0  0  0  0  0
    5.6889   15.5336    3.6028 H   0  0  0  0  0  0  0  0  0  0  0  0
    7.4833   15.6040    3.5452 H   0  0  0  0  0  0  0  0  0  0  0  0
    6.7578   13.5212    1.7734 C   0  0  0  0  0  0  0  0  0  0  0  0
    7.6037   14.1541    1.5333 H   0  0  0  0  0  0  0  0  0  0  0  0
    5.8223   13.9479    1.4294 H   0  0  0  0  0  0  0  0  0  0  0  0
    6.9057   12.5304    1.3560 H   0  0  0  0  0  0  0  0  0  0  0  0
  1  3  1  0  0  0  0
  1  5  1  0  0  0  0
  2  1  1  0  0  0  0
  4 57  1  0  0  0  0
  4 13  1  0  0  0  0
  4  1  1  0  0  0  0
  5 15  1  0  0  0  0
  6 14  1  0  0  0  0
  7  6  1  0  0  0  0
  8  9  1  0  0  0  0
 10 16  1  0  0  0  0
 10 25  1  0  0  0  0
 12 53  1  0  0  0  0
 14  8  1  0  0  0  0
 14  5  1  0  0  0  0
 15 23  2  0  0  0  0
 15 16  1  0  0  0  0
 16 17  2  0  0  0  0
 17 18  1  0  0  0  0
 17 19  1  0  0  0  0
 19 20  1  0  0  0  0
 21 22  1  0  0  0  0
 21 19  2  0  0  0  0
 23 21  1  0  0  0  0
 24 23  1  0  0  0  0
 25 28  1  0  0  0  0
 25 26  1  0  0  0  0
 27 25  1  0  0  0  0
 29  6  1  0  0  0  0
 30 11  1  0  0  0  0
 30 29  2  0  0  0  0
 31 33  2  0  0  0  0
 31 30  1  0  0  0  0
 32 31  1  0  0  0  0
 33 35  1  0  0  0  0
 34 33  1  0  0  0  0
 35 37  2  0  0  0  0
 36 35  1  0  0  0  0
 37 29  1  0  0  0  0
 37 38  1  0  0  0  0
 39 41  1  0  0  0  0
 39 11  1  0  0  0  0
 40 39  1  0  0  0  0
 42 39  1  0  0  0  0
 43 44  1  0  0  0  0
 43  8  1  0  0  0  0
 44 12  1  0  0  0  0
 45 46  1  0  0  0  0
 45 44  2  0  0  0  0
 47 45  1  0  0  0  0
 48 47  1  0  0  0  0
 49 47  2  0  0  0  0
 49 51  1  0  0  0  0
 50 49  1  0  0  0  0
 51 43  2  0  0  0  0
 52 51  1  0  0  0  0
 53 55  1  0  0  0  0
 53 54  1  0  0  0  0
 56 53  1  0  0  0  0
 57 58  1  0  0  0  0
 59 57  1  0  0  0  0
 60 57  1  0  0  0  0
 61  4  1  0  0  0  0
 62 61  1  0  0  0  0
 63 61  1  0  0  0  0
 64 61  1  0  0  0  0
M  END
$$$$
