CSD_code = SESZIZ | q = 0 | S = 0 | Stoichiometry = C25H40I2P2Pt | MND = 6
 OpenBabel04212202093D

 70 72  0  0  0  0  0  0  0  0999 V2000
   -0.5824    7.0797    8.3883 Pt  0  0  0  0  0  0  0  0  0  0  0  0
    0.5827    5.1279    6.7653 I   0  0  0  0  0  0  0  0  0  0  0  0
   -1.4752    4.9516    9.9892 I   0  0  0  0  0  0  0  0  0  0  0  0
    1.3686    6.9885    9.7439 P   0  0  0  0  0  4  0  0  0  0  0  0
   -2.5149    7.0161    6.9646 P   0  0  0  0  0  4  0  0  0  0  0  0
    0.5340    8.5143    5.9621 C   0  0  0  0  0  0  0  0  0  0  0  0
    0.9946    9.5513    5.1664 C   0  0  0  0  0  0  0  0  0  0  0  0
    1.1107   10.8212    5.6925 C   0  0  0  0  0  0  0  0  0  0  0  0
    0.7889   11.0198    7.0192 C   0  0  0  0  0  0  0  0  0  0  0  0
   -1.8787   10.5532   10.7297 C   0  0  0  0  0  0  0  0  0  0  0  0
   -3.0594   10.1337   11.3058 C   0  0  0  0  0  0  0  0  0  0  0  0
   -3.5444    8.8803   10.9902 C   0  0  0  0  0  0  0  0  0  0  0  0
   -2.8275    8.0601   10.1348 C   0  0  0  0  0  0  0  0  0  0  0  0
    0.0979   10.3136    9.2742 C   0  0  0  0  0  0  0  0  0  0  0  0
   -1.1538    9.7336    9.8665 C   0  0  0  0  0  0  0  0  0  0  0  0
   -1.6116    8.4516    9.5878 C   0  0  0  0  0  0  0  0  0  0  0  0
    0.1786    8.7050    7.2905 C   0  0  0  0  0  0  0  0  0  0  0  0
    0.3342    9.9805    7.8279 C   0  0  0  0  0  0  0  0  0  0  0  0
    2.8349    7.9250    9.1054 C   0  0  0  0  0  0  0  0  0  0  0  0
    3.4553    7.3594    7.8343 C   0  0  0  0  0  0  0  0  0  0  0  0
    2.0912    5.3176   10.0502 C   0  0  0  0  0  0  0  0  0  0  0  0
    3.3410    5.2735   10.9210 C   0  0  0  0  0  0  0  0  0  0  0  0
    1.2694    7.6912   11.4551 C   0  0  0  0  0  0  0  0  0  0  0  0
    0.2998    6.9993   12.4030 C   0  0  0  0  0  0  0  0  0  0  0  0
   -2.1975    6.9839    5.1459 C   0  0  0  0  0  0  0  0  0  0  0  0
   -3.4289    6.9509    4.2477 C   0  0  0  0  0  0  0  0  0  0  0  0
   -3.6927    8.4354    7.1023 C   0  0  0  0  0  0  0  0  0  0  0  0
   -3.0908    9.7868    6.7441 C   0  0  0  0  0  0  0  0  0  0  0  0
   -3.6967    5.6186    7.1991 C   0  0  0  0  0  0  0  0  0  0  0  0
   -3.2119    4.2671    6.6886 C   0  0  0  0  0  0  0  0  0  0  0  0
   -3.2566    7.0927    9.9203 H   0  0  0  0  0  0  0  0  0  0  0  0
   -4.4782    8.5274   11.4020 H   0  0  0  0  0  0  0  0  0  0  0  0
   -3.5993   10.7825   11.9789 H   0  0  0  0  0  0  0  0  0  0  0  0
   -1.4988   11.5424   10.9464 H   0  0  0  0  0  0  0  0  0  0  0  0
    0.9663    9.9759    9.8526 H   0  0  0  0  0  0  0  0  0  0  0  0
    0.0646   11.4008    9.3845 H   0  0  0  0  0  0  0  0  0  0  0  0
    0.8971   12.0048    7.4528 H   0  0  0  0  0  0  0  0  0  0  0  0
    1.4580   11.6438    5.0858 H   0  0  0  0  0  0  0  0  0  0  0  0
    1.2597    9.3499    4.1390 H   0  0  0  0  0  0  0  0  0  0  0  0
    0.4917    7.5413    5.5009 H   0  0  0  0  0  0  0  0  0  0  0  0
    3.5730    7.9346    9.9142 H   0  0  0  0  0  0  0  0  0  0  0  0
    2.5363    8.9586    8.9185 H   0  0  0  0  0  0  0  0  0  0  0  0
    4.3414    7.9367    7.5750 H   0  0  0  0  0  0  0  0  0  0  0  0
    2.7607    7.4263    7.0008 H   0  0  0  0  0  0  0  0  0  0  0  0
    3.7499    6.3198    7.9553 H   0  0  0  0  0  0  0  0  0  0  0  0
    2.3138    4.8808    9.0736 H   0  0  0  0  0  0  0  0  0  0  0  0
    1.3156    4.6981   10.5055 H   0  0  0  0  0  0  0  0  0  0  0  0
    3.6813    4.2407   10.9713 H   0  0  0  0  0  0  0  0  0  0  0  0
    3.1413    5.6026   11.9380 H   0  0  0  0  0  0  0  0  0  0  0  0
    4.1530    5.8679   10.5085 H   0  0  0  0  0  0  0  0  0  0  0  0
    0.9996    8.7464   11.3879 H   0  0  0  0  0  0  0  0  0  0  0  0
    2.2880    7.6369   11.8535 H   0  0  0  0  0  0  0  0  0  0  0  0
    0.4054    7.4222   13.4011 H   0  0  0  0  0  0  0  0  0  0  0  0
    0.4892    5.9303   12.4641 H   0  0  0  0  0  0  0  0  0  0  0  0
   -0.7289    7.1505   12.0849 H   0  0  0  0  0  0  0  0  0  0  0  0
   -1.5763    6.1071    4.9437 H   0  0  0  0  0  0  0  0  0  0  0  0
   -1.6051    7.8722    4.9108 H   0  0  0  0  0  0  0  0  0  0  0  0
   -3.1000    6.8604    3.2137 H   0  0  0  0  0  0  0  0  0  0  0  0
   -4.0135    7.8644    4.3285 H   0  0  0  0  0  0  0  0  0  0  0  0
   -4.0713    6.1018    4.4655 H   0  0  0  0  0  0  0  0  0  0  0  0
   -4.0775    8.4639    8.1244 H   0  0  0  0  0  0  0  0  0  0  0  0
   -4.5329    8.2093    6.4395 H   0  0  0  0  0  0  0  0  0  0  0  0
   -3.8542   10.5599    6.8123 H   0  0  0  0  0  0  0  0  0  0  0  0
   -2.6909    9.7913    5.7319 H   0  0  0  0  0  0  0  0  0  0  0  0
   -2.2869   10.0465    7.4287 H   0  0  0  0  0  0  0  0  0  0  0  0
   -4.6189    5.9129    6.6863 H   0  0  0  0  0  0  0  0  0  0  0  0
   -3.9244    5.5436    8.2661 H   0  0  0  0  0  0  0  0  0  0  0  0
   -3.9892    3.5232    6.8516 H   0  0  0  0  0  0  0  0  0  0  0  0
   -2.3266    3.9356    7.2229 H   0  0  0  0  0  0  0  0  0  0  0  0
   -2.9795    4.2945    5.6267 H   0  0  0  0  0  0  0  0  0  0  0  0
  1 16  1  0  0  0  0
  1  4  1  0  0  0  0
  1  3  1  0  0  0  0
  2  1  1  0  0  0  0
  4 21  1  0  0  0  0
  4 23  1  0  0  0  0
  5 27  1  0  0  0  0
  5 29  1  0  0  0  0
  5  1  1  0  0  0  0
  6 17  1  0  0  0  0
  7  8  1  0  0  0  0
  7  6  2  0  0  0  0
  8  9  2  0  0  0  0
  9 37  1  0  0  0  0
  9 18  1  0  0  0  0
 10 34  1  0  0  0  0
 10 11  1  0  0  0  0
 11 33  1  0  0  0  0
 12 11  2  0  0  0  0
 12 32  1  0  0  0  0
 13 12  1  0  0  0  0
 14 36  1  0  0  0  0
 14 35  1  0  0  0  0
 14 15  1  0  0  0  0
 15 10  2  0  0  0  0
 16 15  1  0  0  0  0
 16 13  2  0  0  0  0
 17 18  2  0  0  0  0
 17  1  1  0  0  0  0
 18 14  1  0  0  0  0
 19  4  1  0  0  0  0
 19 41  1  0  0  0  0
 20 45  1  0  0  0  0
 20 19  1  0  0  0  0
 21 47  1  0  0  0  0
 21 22  1  0  0  0  0
 22 48  1  0  0  0  0
 22 49  1  0  0  0  0
 23 52  1  0  0  0  0
 23 24  1  0  0  0  0
 24 54  1  0  0  0  0
 24 53  1  0  0  0  0
 25  5  1  0  0  0  0
 26 59  1  0  0  0  0
 26 60  1  0  0  0  0
 26 25  1  0  0  0  0
 27 61  1  0  0  0  0
 28 63  1  0  0  0  0
 28 27  1  0  0  0  0
 28 65  1  0  0  0  0
 29 67  1  0  0  0  0
 30 68  1  0  0  0  0
 30 29  1  0  0  0  0
 30 69  1  0  0  0  0
 31 13  1  0  0  0  0
 38  8  1  0  0  0  0
 39  7  1  0  0  0  0
 40  6  1  0  0  0  0
 42 19  1  0  0  0  0
 43 20  1  0  0  0  0
 44 20  1  0  0  0  0
 46 21  1  0  0  0  0
 50 22  1  0  0  0  0
 51 23  1  0  0  0  0
 55 24  1  0  0  0  0
 56 25  1  0  0  0  0
 57 25  1  0  0  0  0
 58 26  1  0  0  0  0
 62 27  1  0  0  0  0
 64 28  1  0  0  0  0
 66 29  1  0  0  0  0
 70 30  1  0  0  0  0
M  END
$$$$
