CSD_code = SETFON | q = 0 | S = 0 | Stoichiometry = C24H20Cl2PtSe2 | MND = 4
 OpenBabel04212202093D

 49 50  0  0  0  0  0  0  0  0999 V2000
    0.1468    1.0179    1.0549 Pt  0  0  0  0  0  0  0  0  0  0  0  0
    1.3914   -0.8464    1.5779 Cl  0  0  0  0  0  0  0  0  0  0  0  0
    1.9653    2.1167    0.2023 Cl  0  0  0  0  0  0  0  0  0  0  0  0
   -1.3704   -0.4720    2.2103 Se  0  0  0  0  0  0  0  0  0  0  0  0
   -1.3049    2.9063    0.5808 Se  0  0  0  0  0  0  0  0  0  0  0  0
   -0.7291   -0.2369    4.0097 C   0  0  0  0  0  0  0  0  0  0  0  0
   -1.1396   -1.1304    4.9892 C   0  0  0  0  0  0  0  0  0  0  0  0
   -1.7960   -1.9500    4.7283 H   0  0  0  0  0  0  0  0  0  0  0  0
   -0.6998   -0.9621    6.2907 C   0  0  0  0  0  0  0  0  0  0  0  0
   -1.0141   -1.6554    7.0567 H   0  0  0  0  0  0  0  0  0  0  0  0
    0.1470    0.0880    6.6071 C   0  0  0  0  0  0  0  0  0  0  0  0
    0.4907    0.2139    7.6229 H   0  0  0  0  0  0  0  0  0  0  0  0
    0.5638    0.9683    5.6216 C   0  0  0  0  0  0  0  0  0  0  0  0
    1.2331    1.7801    5.8632 H   0  0  0  0  0  0  0  0  0  0  0  0
    0.1287    0.8066    4.3189 C   0  0  0  0  0  0  0  0  0  0  0  0
    0.4745    1.4768    3.5356 H   0  0  0  0  0  0  0  0  0  0  0  0
   -3.0675    0.4517    2.4060 C   0  0  0  0  0  0  0  0  0  0  0  0
   -3.6122    0.8256    3.6245 C   0  0  0  0  0  0  0  0  0  0  0  0
   -3.0893    0.6115    4.5456 H   0  0  0  0  0  0  0  0  0  0  0  0
   -4.8295    1.4856    3.6552 C   0  0  0  0  0  0  0  0  0  0  0  0
   -5.2505    1.7793    4.6057 H   0  0  0  0  0  0  0  0  0  0  0  0
   -5.5040    1.7698    2.4798 C   0  0  0  0  0  0  0  0  0  0  0  0
   -6.4511    2.2870    2.5117 H   0  0  0  0  0  0  0  0  0  0  0  0
   -4.9616    1.3897    1.2618 C   0  0  0  0  0  0  0  0  0  0  0  0
   -5.4846    1.6072    0.3427 H   0  0  0  0  0  0  0  0  0  0  0  0
   -3.7469    0.7316    1.2245 C   0  0  0  0  0  0  0  0  0  0  0  0
   -3.3136    0.4234    0.2788 H   0  0  0  0  0  0  0  0  0  0  0  0
   -0.9588    3.7164    2.2975 C   0  0  0  0  0  0  0  0  0  0  0  0
    0.3369    4.0836    2.6409 C   0  0  0  0  0  0  0  0  0  0  0  0
    1.1382    3.9731    1.9211 H   0  0  0  0  0  0  0  0  0  0  0  0
    0.5837    4.5707    3.9117 C   0  0  0  0  0  0  0  0  0  0  0  0
    1.5881    4.8566    4.1859 H   0  0  0  0  0  0  0  0  0  0  0  0
   -0.4474    4.6759    4.8331 C   0  0  0  0  0  0  0  0  0  0  0  0
   -0.2459    5.0451    5.8276 H   0  0  0  0  0  0  0  0  0  0  0  0
   -1.7356    4.3095    4.4813 C   0  0  0  0  0  0  0  0  0  0  0  0
   -2.5398    4.3951    5.1967 H   0  0  0  0  0  0  0  0  0  0  0  0
   -1.9994    3.8335    3.2081 C   0  0  0  0  0  0  0  0  0  0  0  0
   -3.0016    3.5487    2.9189 H   0  0  0  0  0  0  0  0  0  0  0  0
   -0.4030    4.1199   -0.6069 C   0  0  0  0  0  0  0  0  0  0  0  0
   -0.2516    5.4600   -0.2911 C   0  0  0  0  0  0  0  0  0  0  0  0
   -0.6021    5.8420    0.6582 H   0  0  0  0  0  0  0  0  0  0  0  0
    0.3700    6.3002   -1.1990 C   0  0  0  0  0  0  0  0  0  0  0  0
    0.5044    7.3433   -0.9532 H   0  0  0  0  0  0  0  0  0  0  0  0
    0.8176    5.8079   -2.4130 C   0  0  0  0  0  0  0  0  0  0  0  0
    1.3069    6.4674   -3.1139 H   0  0  0  0  0  0  0  0  0  0  0  0
    0.6407    4.4702   -2.7293 C   0  0  0  0  0  0  0  0  0  0  0  0
    0.9916    4.0852   -3.6748 H   0  0  0  0  0  0  0  0  0  0  0  0
    0.0245    3.6220   -1.8294 C   0  0  0  0  0  0  0  0  0  0  0  0
   -0.1006    2.5707   -2.0542 H   0  0  0  0  0  0  0  0  0  0  0  0
  1  2  1  0  0  0  0
  3  1  1  0  0  0  0
  4 17  1  0  0  0  0
  4  6  1  0  0  0  0
  5 28  1  0  0  0  0
  6 15  2  0  0  0  0
  6  7  1  0  0  0  0
  7  9  2  0  0  0  0
  8  7  1  0  0  0  0
  9 11  1  0  0  0  0
  9 10  1  0  0  0  0
 11 12  1  0  0  0  0
 13 14  1  0  0  0  0
 13 11  2  0  0  0  0
 15 13  1  0  0  0  0
 16 15  1  0  0  0  0
 17 18  1  0  0  0  0
 18 20  2  0  0  0  0
 18 19  1  0  0  0  0
 20 21  1  0  0  0  0
 22 23  1  0  0  0  0
 22 20  1  0  0  0  0
 24 22  2  0  0  0  0
 25 24  1  0  0  0  0
 26 24  1  0  0  0  0
 26 17  2  0  0  0  0
 27 26  1  0  0  0  0
 28 29  2  0  0  0  0
 28 37  1  0  0  0  0
 29 31  1  0  0  0  0
 30 29  1  0  0  0  0
 31 32  1  0  0  0  0
 31 33  2  0  0  0  0
 33 34  1  0  0  0  0
 35 33  1  0  0  0  0
 35 36  1  0  0  0  0
 37 35  2  0  0  0  0
 38 37  1  0  0  0  0
 39 40  1  0  0  0  0
 39  5  1  0  0  0  0
 40 41  1  0  0  0  0
 42 43  1  0  0  0  0
 42 40  2  0  0  0  0
 44 42  1  0  0  0  0
 45 44  1  0  0  0  0
 46 44  2  0  0  0  0
 46 48  1  0  0  0  0
 47 46  1  0  0  0  0
 48 39  2  0  0  0  0
 49 48  1  0  0  0  0
M  END
$$$$
