CSD_code = SETLOV | q = 1 | S = 0 | Stoichiometry = C14H16AuClN5S(1+) | MND = 2
 OpenBabel04212202093D

 38 39  0  0  1  0  0  0  0  0999 V2000
    0.4696    5.6449    2.5812 Au  0  0  0  0  0  0  0  0  0  0  0  0
    1.7457    5.9920    0.6388 S   0  0  0  0  0  0  0  0  0  0  0  0
   -0.3001    5.3704    4.7021 Cl  0  0  0  0  0  0  0  0  0  0  0  0
    3.3237    7.2332    5.3263 C   0  0  0  0  0  0  0  0  0  0  0  0
    2.2556    7.7322    4.6867 N   0  0  0  0  0  0  0  0  0  0  0  0
    3.2695    6.3568    1.2686 C   0  0  1  0  0  3  0  0  0  0  0  0
    3.3812    6.6844    2.5819 N   0  0  0  0  0  0  0  0  0  0  0  0
    4.5328    6.7481    3.2302 N   0  0  0  0  0  0  0  0  0  0  0  0
    4.5314    7.0300    4.5116 C   0  0  0  0  0  0  0  0  0  0  0  0
    3.2579    6.8398    6.6624 C   0  0  0  0  0  0  0  0  0  0  0  0
    4.0987    6.3619    7.1417 H   0  0  0  0  0  0  0  0  0  0  0  0
    2.0659    7.0189    7.3493 C   0  0  0  0  0  0  0  0  0  0  0  0
    1.9854    6.7093    8.3800 H   0  0  0  0  0  0  0  0  0  0  0  0
    0.9858    7.5850    6.6949 C   0  0  0  0  0  0  0  0  0  0  0  0
    0.0444    7.7410    7.1936 H   0  0  0  0  0  0  0  0  0  0  0  0
    1.1290    7.9066    5.3505 C   0  0  0  0  0  0  0  0  0  0  0  0
    0.3118    8.3229    4.7804 H   0  0  0  0  0  0  0  0  0  0  0  0
    5.8491    7.1013    5.1013 C   0  0  2  0  0  3  0  0  0  0  0  0
    6.1661    7.7912    6.2777 C   0  0  0  0  0  0  0  0  0  0  0  0
    7.4697    7.8211    6.7261 C   0  0  0  0  0  0  0  0  0  0  0  0
    8.4756    7.1661    6.0032 C   0  0  0  0  0  0  0  0  0  0  0  0
    8.1371    6.5194    4.8418 C   0  0  0  0  0  0  0  0  0  0  0  0
    6.8624    6.5031    4.4290 N   0  0  0  0  0  0  0  0  0  0  0  0
    4.3709    6.3162    0.5271 N   0  0  0  0  0  0  0  0  0  0  0  0
    4.3927    6.0518   -0.8967 C   0  0  0  0  0  0  0  0  0  0  0  0
    5.3417    5.5645   -1.1291 H   0  0  0  0  0  0  0  0  0  0  0  0
    3.5738    5.3667   -1.1216 H   0  0  0  0  0  0  0  0  0  0  0  0
    4.2378    7.3320   -1.7100 C   0  0  0  0  0  0  0  0  0  0  0  0
    3.2840    7.8039   -1.4904 H   0  0  0  0  0  0  0  0  0  0  0  0
    4.2684    7.0941   -2.7685 H   0  0  0  0  0  0  0  0  0  0  0  0
    5.0391    8.0332   -1.4896 H   0  0  0  0  0  0  0  0  0  0  0  0
    7.7189    8.3568    7.6286 H   0  0  0  0  0  0  0  0  0  0  0  0
    8.8637    6.0070    4.2296 H   0  0  0  0  0  0  0  0  0  0  0  0
    9.4974    7.1772    6.3433 H   0  0  0  0  0  0  0  0  0  0  0  0
    5.2155    6.6817    0.9473 H   0  0  0  0  0  0  0  0  0  0  0  0
    5.3887    8.3179    6.8068 H   0  0  0  0  0  0  0  0  0  0  0  0
    6.5912    6.0473    3.5601 H   0  0  0  0  0  0  0  0  0  0  0  0
    2.5214    6.9195    3.1234 H   0  0  0  0  0  0  0  0  0  0  0  0
  1  3  1  0  0  0  0
  2  1  1  0  0  0  0
  4 10  1  0  0  0  0
  5  4  2  0  0  0  0
  5 16  1  0  0  0  0
  6  2  1  1  0  0  0
  6  7  1  0  0  0  0
  7 38  1  0  0  0  0
  7  8  1  0  0  0  0
  8  9  2  0  0  0  0
  9  4  1  0  0  0  0
 10 11  1  0  0  0  0
 10 12  2  0  0  0  0
 12 13  1  0  0  0  0
 14 15  1  0  0  0  0
 14 12  1  0  0  0  0
 16 14  2  0  0  0  0
 17 16  1  0  0  0  0
 18  9  1  6  0  0  0
 18 19  1  0  0  0  0
 19 20  2  0  0  0  0
 19 36  1  0  0  0  0
 20 32  1  0  0  0  0
 21 34  1  0  0  0  0
 21 20  1  0  0  0  0
 22 21  2  0  0  0  0
 23 22  1  0  0  0  0
 23 18  1  0  0  0  0
 24 35  1  0  0  0  0
 24  6  1  0  0  0  0
 25 24  1  0  0  0  0
 26 25  1  0  0  0  0
 27 25  1  0  0  0  0
 28 29  1  0  0  0  0
 28 31  1  0  0  0  0
 28 25  1  0  0  0  0
 30 28  1  0  0  0  0
 33 22  1  0  0  0  0
 37 23  1  0  0  0  0
M  END
$$$$
