CSD_code = SETPOX | q = 0 | S = 0 | Stoichiometry = C29H34Cl2N4Ru | MND = 6
 OpenBabel04212202093D

 70 74  0  0  1  0  0  0  0  0999 V2000
    3.6700   11.4241    2.0869 Ru  0  0  0  0  0  0  0  0  0  0  0  0
    1.4294   11.1078    2.9060 Cl  0  0  0  0  0  0  0  0  0  0  0  0
    5.9114   11.7063    1.3429 Cl  0  0  0  0  0  0  0  0  0  0  0  0
    4.0688   10.9777    3.8472 N   0  0  0  0  0  0  0  0  0  0  0  0
    3.8908    9.4225    1.8755 N   0  0  0  0  0  0  0  0  0  0  0  0
    3.7318   13.2810    2.8897 N   0  0  0  0  0  0  0  0  0  0  0  0
    3.1900   11.9131    0.2804 N   0  0  0  0  0  2  0  0  0  0  0  0
    4.0518   11.9507    4.7765 C   0  0  0  0  0  0  0  0  0  0  0  0
    4.1710   11.6285    6.1294 C   0  0  0  0  0  0  0  0  0  0  0  0
    4.1613   12.4025    6.8791 H   0  0  0  0  0  0  0  0  0  0  0  0
    4.2855   10.2935    6.4889 C   0  0  0  0  0  0  0  0  0  0  0  0
    4.3794   10.0242    7.5298 H   0  0  0  0  0  0  0  0  0  0  0  0
    4.2561    9.3013    5.5195 C   0  0  0  0  0  0  0  0  0  0  0  0
    4.3123    8.2607    5.7939 H   0  0  0  0  0  0  0  0  0  0  0  0
    4.1364    9.6759    4.1805 C   0  0  0  0  0  0  0  0  0  0  0  0
    4.0793    8.8188    3.0118 C   0  0  1  0  0  3  0  0  0  0  0  0
    4.2120    7.3352    3.1667 C   0  0  0  0  0  0  0  0  0  0  0  0
    4.1074    6.8360    2.2067 H   0  0  0  0  0  0  0  0  0  0  0  0
    3.4353    6.9729    3.8404 H   0  0  0  0  0  0  0  0  0  0  0  0
    5.1779    7.0811    3.6013 H   0  0  0  0  0  0  0  0  0  0  0  0
    3.9070   13.2636    4.1780 C   0  0  0  0  0  0  0  0  0  0  0  0
    3.9401   14.4873    5.0408 C   0  0  0  0  0  0  0  0  0  0  0  0
    3.7789   15.3828    4.4458 H   0  0  0  0  0  0  0  0  0  0  0  0
    4.8962   14.5650    5.5568 H   0  0  0  0  0  0  0  0  0  0  0  0
    3.1565   14.4178    5.7954 H   0  0  0  0  0  0  0  0  0  0  0  0
    4.0523    8.7637    0.6447 C   0  0  0  0  0  0  0  0  0  0  0  0
    2.9635    8.6233   -0.2301 C   0  0  0  0  0  0  0  0  0  0  0  0
    3.1714    8.0593   -1.4797 C   0  0  0  0  0  0  0  0  0  0  0  0
    2.3301    7.9483   -2.1488 H   0  0  0  0  0  0  0  0  0  0  0  0
    4.4271    7.6379   -1.8744 C   0  0  0  0  0  0  0  0  0  0  0  0
    4.5747    7.2065   -2.8534 H   0  0  0  0  0  0  0  0  0  0  0  0
    5.4906    7.7657   -1.0029 C   0  0  0  0  0  0  0  0  0  0  0  0
    6.4741    7.4326   -1.3010 H   0  0  0  0  0  0  0  0  0  0  0  0
    5.3289    8.3150    0.2618 C   0  0  0  0  0  0  0  0  0  0  0  0
    6.5275    8.4133    1.1570 C   0  0  0  0  0  0  0  0  0  0  0  0
    6.4309    9.2243    1.8737 H   0  0  0  0  0  0  0  0  0  0  0  0
    7.4157    8.6011    0.5584 H   0  0  0  0  0  0  0  0  0  0  0  0
    6.6784    7.4780    1.6981 H   0  0  0  0  0  0  0  0  0  0  0  0
    1.5701    8.9922    0.1860 C   0  0  0  0  0  0  0  0  0  0  0  0
    1.5719    9.9342    0.7391 H   0  0  0  0  0  0  0  0  0  0  0  0
    0.9515    9.1186   -0.7050 H   0  0  0  0  0  0  0  0  0  0  0  0
    0.9531    7.9108    1.0753 C   0  0  0  0  0  0  0  0  0  0  0  0
   -0.0781    8.1662    1.3042 H   0  0  0  0  0  0  0  0  0  0  0  0
    1.4958    7.8364    2.0139 H   0  0  0  0  0  0  0  0  0  0  0  0
    0.9756    6.9423    0.5777 H   0  0  0  0  0  0  0  0  0  0  0  0
    3.8070   14.4643    2.1354 C   0  0  0  0  0  0  0  0  0  0  0  0
    2.6821   14.9262    1.4339 C   0  0  0  0  0  0  0  0  0  0  0  0
    2.8126   16.0268    0.6001 C   0  0  0  0  0  0  0  0  0  0  0  0
    1.9435   16.3814    0.0642 H   0  0  0  0  0  0  0  0  0  0  0  0
    4.0259   16.6720    0.4521 C   0  0  0  0  0  0  0  0  0  0  0  0
    4.1144   17.5229   -0.2072 H   0  0  0  0  0  0  0  0  0  0  0  0
    5.1222   16.2264    1.1639 C   0  0  0  0  0  0  0  0  0  0  0  0
    6.0712   16.7325    1.0627 H   0  0  0  0  0  0  0  0  0  0  0  0
    5.0375   15.1345    2.0172 C   0  0  0  0  0  0  0  0  0  0  0  0
    6.2651   14.7160    2.7687 C   0  0  0  0  0  0  0  0  0  0  0  0
    7.1491   14.9232    2.1705 H   0  0  0  0  0  0  0  0  0  0  0  0
    6.2562   13.6532    2.9946 H   0  0  0  0  0  0  0  0  0  0  0  0
    6.3510   15.2756    3.7013 H   0  0  0  0  0  0  0  0  0  0  0  0
    1.3276   14.3120    1.6308 C   0  0  0  0  0  0  0  0  0  0  0  0
    1.4029   13.2243    1.6898 H   0  0  0  0  0  0  0  0  0  0  0  0
    0.6903   14.5664    0.7812 H   0  0  0  0  0  0  0  0  0  0  0  0
    0.6738   14.8213    2.9171 C   0  0  0  0  0  0  0  0  0  0  0  0
   -0.3301   14.4147    3.0059 H   0  0  0  0  0  0  0  0  0  0  0  0
    0.6161   15.9089    2.9167 H   0  0  0  0  0  0  0  0  0  0  0  0
    1.2437   14.5007    3.7851 H   0  0  0  0  0  0  0  0  0  0  0  0
    3.0982   12.2997   -0.8000 C   0  0  0  0  0  2  0  0  0  0  0  0
    2.9752   12.7840   -2.1423 C   0  0  0  0  0  0  0  0  0  0  0  0
    3.2596   13.8359   -2.1760 H   0  0  0  0  0  0  0  0  0  0  0  0
    1.9441   12.6754   -2.4777 H   0  0  0  0  0  0  0  0  0  0  0  0
    3.6307   12.2103   -2.7972 H   0  0  0  0  0  0  0  0  0  0  0  0
  1  6  1  0  0  0  0
  1  2  1  0  0  0  0
  1  4  1  0  0  0  0
  3  1  1  0  0  0  0
  4 15  1  0  0  0  0
  4  8  1  0  0  0  0
  5  1  1  0  0  0  0
  5 16  1  0  0  0  0
  6 21  1  0  0  0  0
  7  1  1  0  0  0  0
  8  9  1  0  0  0  0
  9 11  2  0  0  0  0
  9 10  1  0  0  0  0
 11 12  1  0  0  0  0
 13 14  1  0  0  0  0
 13 11  1  0  0  0  0
 15 13  2  0  0  0  0
 16 17  1  1  0  0  0
 16 15  1  0  0  0  0
 17 20  1  0  0  0  0
 17 19  1  0  0  0  0
 18 17  1  0  0  0  0
 21  8  2  0  0  0  0
 21 22  1  0  0  0  0
 22 24  1  0  0  0  0
 22 25  1  0  0  0  0
 23 22  1  0  0  0  0
 26  5  1  0  0  0  0
 27 39  1  0  0  0  0
 27 26  2  0  0  0  0
 28 27  1  0  0  0  0
 29 28  1  0  0  0  0
 30 28  2  0  0  0  0
 30 32  1  0  0  0  0
 31 30  1  0  0  0  0
 32 34  2  0  0  0  0
 33 32  1  0  0  0  0
 34 26  1  0  0  0  0
 34 35  1  0  0  0  0
 35 38  1  0  0  0  0
 35 36  1  0  0  0  0
 37 35  1  0  0  0  0
 39 40  1  0  0  0  0
 39 42  1  0  0  0  0
 41 39  1  0  0  0  0
 42 43  1  0  0  0  0
 42 44  1  0  0  0  0
 45 42  1  0  0  0  0
 46  6  1  0  0  0  0
 47 59  1  0  0  0  0
 47 46  2  0  0  0  0
 48 47  1  0  0  0  0
 49 48  1  0  0  0  0
 50 48  2  0  0  0  0
 50 52  1  0  0  0  0
 51 50  1  0  0  0  0
 52 54  2  0  0  0  0
 53 52  1  0  0  0  0
 54 46  1  0  0  0  0
 54 55  1  0  0  0  0
 55 57  1  0  0  0  0
 55 58  1  0  0  0  0
 56 55  1  0  0  0  0
 59 60  1  0  0  0  0
 59 62  1  0  0  0  0
 61 59  1  0  0  0  0
 62 63  1  0  0  0  0
 62 65  1  0  0  0  0
 64 62  1  0  0  0  0
 66  7  1  0  0  0  0
 67 66  1  0  0  0  0
 68 67  1  0  0  0  0
 69 67  1  0  0  0  0
 70 67  1  0  0  0  0
M  END
$$$$
