CSD_code = SEVMAI | q = 0 | S = 0 | Stoichiometry = C20H22Cl2NO3PPd | MND = 4
 OpenBabel04212202093D

 50 54  0  0  1  0  0  0  0  0999 V2000
   -1.4823    4.4962    6.9822 Pd  0  0  0  0  0  0  0  0  0  0  0  0
   -1.2164    5.7417    5.1280 Cl  0  0  0  0  0  0  0  0  0  0  0  0
   -3.4272    3.7536    6.1928 Cl  0  0  0  0  0  0  0  0  0  0  0  0
   -1.9919    3.2596    8.7671 P   0  0  1  0  0  4  0  0  0  0  0  0
    1.9529    4.8507    9.4033 O   0  0  0  0  0  0  0  0  0  0  0  0
   -1.0134    3.5628   10.0414 O   0  0  0  0  0  0  0  0  0  0  0  0
   -3.4441    3.2529    9.4645 O   0  0  0  0  0  0  0  0  0  0  0  0
    0.4008    4.9676    7.8171 N   0  0  2  0  0  0  0  0  0  0  0  0
    1.8155    6.2971    6.3292 C   0  0  0  0  0  0  0  0  0  0  0  0
    1.8122    7.1218    7.0391 H   0  0  0  0  0  0  0  0  0  0  0  0
    0.9833    6.4260    5.6377 H   0  0  0  0  0  0  0  0  0  0  0  0
    2.7512    6.3035    5.7769 H   0  0  0  0  0  0  0  0  0  0  0  0
    1.6346    3.7945    6.0798 C   0  0  0  0  0  0  0  0  0  0  0  0
    1.6232    2.8450    6.6168 H   0  0  0  0  0  0  0  0  0  0  0  0
    2.5090    3.8278    5.4356 H   0  0  0  0  0  0  0  0  0  0  0  0
    0.7357    3.8759    5.4549 H   0  0  0  0  0  0  0  0  0  0  0  0
    1.6554    4.9661    7.0598 C   0  0  0  0  0  0  0  0  0  0  0  0
    2.7078    4.8046    8.1903 C   0  0  0  0  0  0  0  0  0  0  0  0
    3.2341    3.8465    8.1502 H   0  0  0  0  0  0  0  0  0  0  0  0
    3.4361    5.6177    8.2061 H   0  0  0  0  0  0  0  0  0  0  0  0
    0.6653    4.9125    9.0618 C   0  0  1  0  0  3  0  0  0  0  0  0
   -0.3713    4.8392   10.1600 C   0  0  0  0  0  0  0  0  0  0  0  0
   -3.6663    2.3854   10.5181 C   0  0  0  0  0  0  0  0  0  0  0  0
   -4.5085    2.8398   11.5228 C   0  0  0  0  0  0  0  0  0  0  0  0
   -4.9426    3.8226   11.4225 H   0  0  0  0  0  0  0  0  0  0  0  0
   -4.7774    2.0448   12.6208 C   0  0  0  0  0  0  0  0  0  0  0  0
   -5.4326    2.4062   13.3982 H   0  0  0  0  0  0  0  0  0  0  0  0
   -4.1873    0.7953   12.7242 C   0  0  0  0  0  0  0  0  0  0  0  0
   -4.3720    0.1788   13.5906 H   0  0  0  0  0  0  0  0  0  0  0  0
   -3.3653    0.3347   11.7155 C   0  0  0  0  0  0  0  0  0  0  0  0
   -2.9038   -0.6358   11.8117 H   0  0  0  0  0  0  0  0  0  0  0  0
   -3.0986    1.1057   10.5825 C   0  0  0  0  0  0  0  0  0  0  0  0
   -2.3012    0.5954    9.4664 C   0  0  0  0  0  0  0  0  0  0  0  0
   -2.1460   -0.7678    9.2092 C   0  0  0  0  0  0  0  0  0  0  0  0
   -2.6144   -1.4950    9.8544 H   0  0  0  0  0  0  0  0  0  0  0  0
   -1.4300   -1.2017    8.1092 C   0  0  0  0  0  0  0  0  0  0  0  0
   -1.3233   -2.2615    7.9305 H   0  0  0  0  0  0  0  0  0  0  0  0
   -0.8757   -0.2958    7.2152 C   0  0  0  0  0  0  0  0  0  0  0  0
   -0.3450   -0.6477    6.3438 H   0  0  0  0  0  0  0  0  0  0  0  0
   -1.0372    1.0580    7.4399 C   0  0  0  0  0  0  0  0  0  0  0  0
   -0.6700    1.8038    6.7313 H   0  0  0  0  0  0  0  0  0  0  0  0
   -1.7160    1.4931    8.5683 C   0  0  0  0  0  0  0  0  0  0  0  0
   -1.3692    5.9919   10.0168 C   0  0  0  0  0  0  0  0  0  0  0  0
   -2.1861    5.8447   10.7203 H   0  0  0  0  0  0  0  0  0  0  0  0
   -1.7815    6.0350    8.9948 H   0  0  0  0  0  0  0  0  0  0  0  0
   -0.8752    6.9366   10.2319 H   0  0  0  0  0  0  0  0  0  0  0  0
    0.2888    4.8514   11.5357 C   0  0  0  0  0  0  0  0  0  0  0  0
   -0.4802    4.7885   12.3007 H   0  0  0  0  0  0  0  0  0  0  0  0
    0.8638    5.7625   11.6701 H   0  0  0  0  0  0  0  0  0  0  0  0
    0.9516    3.9964   11.6341 H   0  0  0  0  0  0  0  0  0  0  0  0
  1  8  1  0  0  0  0
  1  4  1  0  0  0  0
  2  1  1  0  0  0  0
  3  1  1  0  0  0  0
  4 42  1  6  0  0  0
  4  7  1  0  0  0  0
  4  6  1  0  0  0  0
  6 22  1  0  0  0  0
  7 23  1  0  0  0  0
  8 17  1  6  0  0  0
  8 21  1  0  0  0  0
  9 10  1  0  0  0  0
  9 17  1  0  0  0  0
 11  9  1  0  0  0  0
 12  9  1  0  0  0  0
 13 14  1  0  0  0  0
 13 17  1  0  0  0  0
 15 13  1  0  0  0  0
 16 13  1  0  0  0  0
 17 18  1  0  0  0  0
 18 20  1  0  0  0  0
 18  5  1  0  0  0  0
 19 18  1  0  0  0  0
 21  5  1  6  0  0  0
 21 22  1  0  0  0  0
 22 47  1  0  0  0  0
 23 32  2  0  0  0  0
 23 24  1  0  0  0  0
 24 26  2  0  0  0  0
 25 24  1  0  0  0  0
 26 28  1  0  0  0  0
 26 27  1  0  0  0  0
 28 29  1  0  0  0  0
 30 31  1  0  0  0  0
 30 28  2  0  0  0  0
 32 30  1  0  0  0  0
 33 32  1  0  0  0  0
 34 33  1  0  0  0  0
 34 35  1  0  0  0  0
 36 34  2  0  0  0  0
 37 36  1  0  0  0  0
 38 40  2  0  0  0  0
 38 36  1  0  0  0  0
 39 38  1  0  0  0  0
 40 42  1  0  0  0  0
 41 40  1  0  0  0  0
 42 33  2  0  0  0  0
 43 22  1  0  0  0  0
 43 46  1  0  0  0  0
 43 44  1  0  0  0  0
 45 43  1  0  0  0  0
 47 50  1  0  0  0  0
 47 49  1  0  0  0  0
 47 48  1  0  0  0  0
M  END
$$$$
