CSD_code = SEWCAY | q = 0 | S = 0 | Stoichiometry = C21H21BrMnO4P | MND = 6
 OpenBabel04212202093D

 49 50  0  0  0  0  0  0  0  0999 V2000
    0.4927    0.0561    4.8150 Br  0  0  0  0  0  0  0  0  0  0  0  0
    1.5178    0.2024    2.5445 Mn  0  0  0  0  0  0  0  0  0  0  0  0
    2.3099    2.2610    3.3096 P   0  0  0  0  0  4  0  0  0  0  0  0
    3.7203   -1.1771    3.9179 O   0  0  0  0  0  1  0  0  0  0  0  0
    0.4248   -2.4490    1.9257 O   0  0  0  0  0  1  0  0  0  0  0  0
   -0.9983    1.2878    1.4810 O   0  0  0  0  0  1  0  0  0  0  0  0
    3.0420    0.3896    0.0556 O   0  0  0  0  0  1  0  0  0  0  0  0
    2.9013   -0.6102    3.3643 C   0  0  0  0  0  2  0  0  0  0  0  0
    0.8534   -1.4149    2.1563 C   0  0  0  0  0  2  0  0  0  0  0  0
   -0.0034    0.9175    1.9030 C   0  0  0  0  0  2  0  0  0  0  0  0
    2.4242    0.3367    1.0206 C   0  0  0  0  0  2  0  0  0  0  0  0
    1.3238    3.3065    4.4539 C   0  0  0  0  0  0  0  0  0  0  0  0
   -0.0094    3.7181    3.8365 C   0  0  0  0  0  0  0  0  0  0  0  0
   -0.7519    4.7030    4.7352 C   0  0  0  0  0  0  0  0  0  0  0  0
   -2.1066    5.0939    4.1494 C   0  0  0  0  0  0  0  0  0  0  0  0
   -2.8531    6.0641    5.0558 C   0  0  0  0  0  0  0  0  0  0  0  0
    3.8782    2.0175    4.1929 C   0  0  0  0  0  0  0  0  0  0  0  0
    5.0257    1.8128    3.4264 C   0  0  0  0  0  0  0  0  0  0  0  0
    6.2281    1.5283    4.0426 C   0  0  0  0  0  0  0  0  0  0  0  0
    6.2903    1.4262    5.4243 C   0  0  0  0  0  0  0  0  0  0  0  0
    5.1479    1.6038    6.1858 C   0  0  0  0  0  0  0  0  0  0  0  0
    3.9389    1.8944    5.5766 C   0  0  0  0  0  0  0  0  0  0  0  0
    2.7473    3.5152    2.0623 C   0  0  0  0  0  0  0  0  0  0  0  0
    3.6599    4.5193    2.3753 C   0  0  0  0  0  0  0  0  0  0  0  0
    3.9443    5.5072    1.4519 C   0  0  0  0  0  0  0  0  0  0  0  0
    3.3155    5.5081    0.2164 C   0  0  0  0  0  0  0  0  0  0  0  0
    2.3972    4.5198   -0.0946 C   0  0  0  0  0  0  0  0  0  0  0  0
    2.1132    3.5260    0.8257 C   0  0  0  0  0  0  0  0  0  0  0  0
    1.9443    4.1854    4.6708 H   0  0  0  0  0  0  0  0  0  0  0  0
    1.1408    2.7534    5.3788 H   0  0  0  0  0  0  0  0  0  0  0  0
   -0.6326    2.8299    3.7042 H   0  0  0  0  0  0  0  0  0  0  0  0
    0.1553    4.1720    2.8533 H   0  0  0  0  0  0  0  0  0  0  0  0
   -0.1437    5.6010    4.8723 H   0  0  0  0  0  0  0  0  0  0  0  0
   -0.9027    4.2465    5.7158 H   0  0  0  0  0  0  0  0  0  0  0  0
   -2.7083    4.1939    4.0083 H   0  0  0  0  0  0  0  0  0  0  0  0
   -1.9582    5.5517    3.1684 H   0  0  0  0  0  0  0  0  0  0  0  0
   -3.8144    6.3291    4.6225 H   0  0  0  0  0  0  0  0  0  0  0  0
   -2.2772    6.9762    5.1975 H   0  0  0  0  0  0  0  0  0  0  0  0
   -3.0282    5.6146    6.0305 H   0  0  0  0  0  0  0  0  0  0  0  0
    4.9634    1.8776    2.3460 H   0  0  0  0  0  0  0  0  0  0  0  0
    7.1151    1.3749    3.4461 H   0  0  0  0  0  0  0  0  0  0  0  0
    7.2292    1.1956    5.9048 H   0  0  0  0  0  0  0  0  0  0  0  0
    5.1923    1.5066    7.2600 H   0  0  0  0  0  0  0  0  0  0  0  0
    3.0479    2.0037    6.1774 H   0  0  0  0  0  0  0  0  0  0  0  0
    4.1529    4.5173    3.3384 H   0  0  0  0  0  0  0  0  0  0  0  0
    4.6583    6.2797    1.6962 H   0  0  0  0  0  0  0  0  0  0  0  0
    3.5419    6.2802   -0.5034 H   0  0  0  0  0  0  0  0  0  0  0  0
    1.9021    4.5203   -1.0541 H   0  0  0  0  0  0  0  0  0  0  0  0
    1.3927    2.7536    0.5819 H   0  0  0  0  0  0  0  0  0  0  0  0
  2  3  1  0  0  0  0
  2  8  1  0  0  0  0
  2  1  1  0  0  0  0
  3 17  1  0  0  0  0
  3 12  1  0  0  0  0
  5  9  1  0  0  0  0
  6 10  1  0  0  0  0
  7 11  1  0  0  0  0
  8  4  1  0  0  0  0
  9  2  1  0  0  0  0
 10  2  1  0  0  0  0
 11  2  1  0  0  0  0
 12 29  1  0  0  0  0
 12 30  1  0  0  0  0
 13 12  1  0  0  0  0
 13 14  1  0  0  0  0
 14 33  1  0  0  0  0
 14 34  1  0  0  0  0
 15 14  1  0  0  0  0
 15 16  1  0  0  0  0
 16 38  1  0  0  0  0
 16 39  1  0  0  0  0
 17 22  1  0  0  0  0
 18 19  1  0  0  0  0
 18 17  2  0  0  0  0
 19 20  2  0  0  0  0
 20 42  1  0  0  0  0
 20 21  1  0  0  0  0
 21 43  1  0  0  0  0
 22 44  1  0  0  0  0
 22 21  2  0  0  0  0
 23 24  1  0  0  0  0
 23  3  1  0  0  0  0
 24 45  1  0  0  0  0
 25 46  1  0  0  0  0
 25 24  2  0  0  0  0
 26 25  1  0  0  0  0
 27 26  2  0  0  0  0
 27 28  1  0  0  0  0
 28 23  2  0  0  0  0
 31 13  1  0  0  0  0
 32 13  1  0  0  0  0
 35 15  1  0  0  0  0
 36 15  1  0  0  0  0
 37 16  1  0  0  0  0
 40 18  1  0  0  0  0
 41 19  1  0  0  0  0
 47 26  1  0  0  0  0
 48 27  1  0  0  0  0
 49 28  1  0  0  0  0
M  END
$$$$
