CSD_code = SEWCOO | q = 1 | S = 0 | Stoichiometry = C13H15BrN7Pd(1+) | MND = 4
 OpenBabel04212202093D

 37 41  0  0  1  0  0  0  0  0999 V2000
    2.5589    4.1973    3.1305 Pd  0  0  2  0  0  0  0  0  0  0  0  0
    2.6077    2.4309    4.6800 Br  0  0  0  0  0  0  0  0  0  0  0  0
    1.6788    5.7978    5.6909 N   0  0  0  0  0  0  0  0  0  0  0  0
    3.0901    6.7405    4.4106 N   0  0  0  0  0  0  0  0  0  0  0  0
    1.9267    7.0017    6.2296 N   0  0  0  0  0  0  0  0  0  0  0  0
    2.5241    5.7937    1.7345 N   0  0  0  0  0  0  0  0  0  0  0  0
    3.4299    1.8783    1.1864 N   0  0  0  0  0  0  0  0  0  0  0  0
    1.9750    3.2466    0.4587 N   0  0  0  0  0  0  0  0  0  0  0  0
    3.1453    1.4904   -0.0663 N   0  0  0  0  0  0  0  0  0  0  0  0
    2.3718    5.5964    4.5745 C   0  0  0  0  0  0  0  0  0  0  0  0
    2.7824    7.5699    5.4469 C   0  0  0  0  0  0  0  0  0  0  0  0
    3.1921    8.5468    5.5974 H   0  0  0  0  0  0  0  0  0  0  0  0
    0.7644    4.8997    6.3402 C   0  0  0  0  0  0  0  0  0  0  0  0
    0.2919    4.2551    5.5976 H   0  0  0  0  0  0  0  0  0  0  0  0
    0.0169    5.4898    6.8660 H   0  0  0  0  0  0  0  0  0  0  0  0
    1.2979    4.2756    7.0595 H   0  0  0  0  0  0  0  0  0  0  0  0
    3.9747    6.9678    3.2903 C   0  0  0  0  0  0  0  0  0  0  0  0
    4.7441    6.1753    3.2824 H   0  0  0  0  0  0  0  0  0  0  0  0
    4.4639    7.9356    3.4100 H   0  0  0  0  0  0  0  0  0  0  0  0
    3.2069    6.9143    1.9852 C   0  0  1  0  0  3  0  0  0  0  0  0
    3.2119    7.9743    1.0907 C   0  0  0  0  0  0  0  0  0  0  0  0
    3.7646    8.8721    1.3150 H   0  0  0  0  0  0  0  0  0  0  0  0
    2.5024    7.8564   -0.0946 C   0  0  0  0  0  0  0  0  0  0  0  0
    2.4947    8.6627   -0.8104 H   0  0  0  0  0  0  0  0  0  0  0  0
    1.8021    6.6862   -0.3451 C   0  0  0  0  0  0  0  0  0  0  0  0
    1.2406    6.5647   -1.2571 H   0  0  0  0  0  0  0  0  0  0  0  0
    1.8288    5.6719    0.6003 C   0  0  0  0  0  0  0  0  0  0  0  0
    1.0724    4.3743    0.4017 C   0  0  0  0  0  0  0  0  0  0  0  0
    0.3270    4.2706    1.2103 H   0  0  0  0  0  0  0  0  0  0  0  0
    0.5559    4.3723   -0.5593 H   0  0  0  0  0  0  0  0  0  0  0  0
    2.7342    2.9517    1.5489 C   0  0  2  0  0  3  0  0  0  0  0  0
    2.2630    2.3259   -0.5034 C   0  0  0  0  0  0  0  0  0  0  0  0
    1.8201    2.2926   -1.4768 H   0  0  0  0  0  0  0  0  0  0  0  0
    4.3822    1.1345    1.9639 C   0  0  0  0  0  0  0  0  0  0  0  0
    4.8836    1.8001    2.6679 H   0  0  0  0  0  0  0  0  0  0  0  0
    5.1020    0.6830    1.2847 H   0  0  0  0  0  0  0  0  0  0  0  0
    3.8760    0.3465    2.5245 H   0  0  0  0  0  0  0  0  0  0  0  0
  1 10  2  0  0  0  0
  1  2  1  1  0  0  0
  3  5  1  0  0  0  0
  3 13  1  0  0  0  0
  4 10  1  0  0  0  0
  4 11  1  0  0  0  0
  6 20  1  0  0  0  0
  6  1  1  0  0  0  0
  7 31  1  0  0  0  0
  7 34  1  0  0  0  0
  9  7  1  0  0  0  0
 10  3  1  0  0  0  0
 11 12  1  0  0  0  0
 11  5  2  0  0  0  0
 13 15  1  0  0  0  0
 13 16  1  0  0  0  0
 14 13  1  0  0  0  0
 17 19  1  0  0  0  0
 17  4  1  0  0  0  0
 18 17  1  0  0  0  0
 20 21  1  6  0  0  0
 20 17  1  0  0  0  0
 21 22  1  0  0  0  0
 23 21  2  0  0  0  0
 24 23  1  0  0  0  0
 25 23  1  0  0  0  0
 25 27  2  0  0  0  0
 26 25  1  0  0  0  0
 27  6  1  0  0  0  0
 28  8  1  0  0  0  0
 28 27  1  0  0  0  0
 28 29  1  0  0  0  0
 30 28  1  0  0  0  0
 31  8  1  6  0  0  0
 31  1  1  0  0  0  0
 32  9  2  0  0  0  0
 32  8  1  0  0  0  0
 33 32  1  0  0  0  0
 34 37  1  0  0  0  0
 34 35  1  0  0  0  0
 36 34  1  0  0  0  0
M  END
$$$$
