CSD_code = SEWLUC | q = 0 | S = 0 | Stoichiometry = C25H27Cl2N2PPd | MND = 4
 OpenBabel04212202093D

 58 62  0  0  0  0  0  0  0  0999 V2000
    0.8383    4.3652   13.3165 Pd  0  0  0  0  0  0  0  0  0  0  0  0
   -0.7445    4.4476   14.9566 Cl  0  0  0  0  0  0  0  0  0  0  0  0
   -0.6360    5.1118   11.7364 Cl  0  0  0  0  0  0  0  0  0  0  0  0
    3.4526    3.9209   14.6474 N   0  0  0  0  0  0  0  0  0  0  0  0
    2.0528    2.3030   15.0536 N   0  0  0  0  0  0  0  0  0  0  0  0
    2.3955    4.9316   11.7961 P   0  0  0  0  0  4  0  0  0  0  0  0
    2.1672    3.5256   14.5039 C   0  0  0  0  0  0  0  0  0  0  0  0
    4.1774    2.9418   15.2920 C   0  0  0  0  0  0  0  0  0  0  0  0
    3.2692    1.9008   15.5581 C   0  0  0  0  0  0  0  0  0  0  0  0
    3.6748    0.7468   16.2116 C   0  0  0  0  0  0  0  0  0  0  0  0
    2.9859   -0.0565   16.4182 H   0  0  0  0  0  0  0  0  0  0  0  0
    5.0018    0.6649   16.5892 C   0  0  0  0  0  0  0  0  0  0  0  0
    5.3521   -0.2181   17.1008 H   0  0  0  0  0  0  0  0  0  0  0  0
    5.9006    1.6956   16.3238 C   0  0  0  0  0  0  0  0  0  0  0  0
    6.9286    1.5899   16.6342 H   0  0  0  0  0  0  0  0  0  0  0  0
    5.5071    2.8496   15.6721 C   0  0  0  0  0  0  0  0  0  0  0  0
    6.2125    3.6407   15.4712 H   0  0  0  0  0  0  0  0  0  0  0  0
    0.8425    1.5131   15.0890 C   0  0  0  0  0  0  0  0  0  0  0  0
   -0.0065    2.2083   15.1119 H   0  0  0  0  0  0  0  0  0  0  0  0
    0.8475    0.9287   16.0121 H   0  0  0  0  0  0  0  0  0  0  0  0
    0.7165    0.5852   13.8761 C   0  0  0  0  0  0  0  0  0  0  0  0
    1.5957   -0.0627   13.8095 H   0  0  0  0  0  0  0  0  0  0  0  0
   -0.1571   -0.0487   14.0388 H   0  0  0  0  0  0  0  0  0  0  0  0
    0.5390    1.3507   12.5631 C   0  0  0  0  0  0  0  0  0  0  0  0
    1.4823    1.8584   12.2997 H   0  0  0  0  0  0  0  0  0  0  0  0
   -0.2631    2.1051   12.6860 H   0  0  0  0  0  0  0  0  0  0  0  0
    0.1621    0.4181   11.4173 C   0  0  0  0  0  0  0  0  0  0  0  0
    0.9275   -0.3429   11.2732 H   0  0  0  0  0  0  0  0  0  0  0  0
    0.0572    0.9788   10.4923 H   0  0  0  0  0  0  0  0  0  0  0  0
   -0.7822   -0.0796   11.6258 H   0  0  0  0  0  0  0  0  0  0  0  0
    3.9862    5.1174   14.0472 C   0  0  0  0  0  0  0  0  0  0  0  0
    4.9588    5.3282   14.4984 H   0  0  0  0  0  0  0  0  0  0  0  0
    3.3089    5.9556   14.2647 H   0  0  0  0  0  0  0  0  0  0  0  0
    4.1135    4.9355   12.5293 C   0  0  0  0  0  0  0  0  0  0  0  0
    4.6128    3.9866   12.3137 H   0  0  0  0  0  0  0  0  0  0  0  0
    4.7011    5.7545   12.1073 H   0  0  0  0  0  0  0  0  0  0  0  0
    2.6333    4.2574   10.1298 C   0  0  0  0  0  0  0  0  0  0  0  0
    1.5297    3.6622    9.5243 C   0  0  0  0  0  0  0  0  0  0  0  0
    0.5876    3.6473   10.0578 H   0  0  0  0  0  0  0  0  0  0  0  0
    1.6407    3.1257    8.2548 C   0  0  0  0  0  0  0  0  0  0  0  0
    0.7815    2.6700    7.7860 H   0  0  0  0  0  0  0  0  0  0  0  0
    2.8523    3.1747    7.5848 C   0  0  0  0  0  0  0  0  0  0  0  0
    2.9407    2.7569    6.5928 H   0  0  0  0  0  0  0  0  0  0  0  0
    3.9540    3.7605    8.1869 C   0  0  0  0  0  0  0  0  0  0  0  0
    4.8988    3.7991    7.6642 H   0  0  0  0  0  0  0  0  0  0  0  0
    3.8514    4.3000    9.4567 C   0  0  0  0  0  0  0  0  0  0  0  0
    4.7178    4.7539    9.9159 H   0  0  0  0  0  0  0  0  0  0  0  0
    2.1743    6.7281   11.5836 C   0  0  0  0  0  0  0  0  0  0  0  0
    1.5361    7.4252   12.6095 C   0  0  0  0  0  0  0  0  0  0  0  0
    1.1300    6.8844   13.4753 H   0  0  0  0  0  0  0  0  0  0  0  0
    1.3674    8.7938   12.5125 C   0  0  0  0  0  0  0  0  0  0  0  0
    0.8649    9.3318   13.3026 H   0  0  0  0  0  0  0  0  0  0  0  0
    1.8255    9.4716   11.3934 C   0  0  0  0  0  0  0  0  0  0  0  0
    1.6816   10.5389   11.3136 H   0  0  0  0  0  0  0  0  0  0  0  0
    2.4516    8.7801   10.3700 C   0  0  0  0  0  0  0  0  0  0  0  0
    2.7953    9.3070    9.4919 H   0  0  0  0  0  0  0  0  0  0  0  0
    2.6302    7.4108   10.4624 C   0  0  0  0  0  0  0  0  0  0  0  0
    3.1052    6.8690    9.6563 H   0  0  0  0  0  0  0  0  0  0  0  0
  1  7  2  0  0  0  0
  1  2  1  0  0  0  0
  3  1  1  0  0  0  0
  4  8  1  0  0  0  0
  5 18  1  0  0  0  0
  5  9  1  0  0  0  0
  6 34  1  0  0  0  0
  6  1  1  0  0  0  0
  7  4  1  0  0  0  0
  7  5  1  0  0  0  0
  8  9  2  0  0  0  0
  8 16  1  0  0  0  0
  9 10  1  0  0  0  0
 10 11  1  0  0  0  0
 10 12  2  0  0  0  0
 12 13  1  0  0  0  0
 14 12  1  0  0  0  0
 14 15  1  0  0  0  0
 16 14  2  0  0  0  0
 17 16  1  0  0  0  0
 18 19  1  0  0  0  0
 18 20  1  0  0  0  0
 21 23  1  0  0  0  0
 21 18  1  0  0  0  0
 22 21  1  0  0  0  0
 24 26  1  0  0  0  0
 24 21  1  0  0  0  0
 25 24  1  0  0  0  0
 27 30  1  0  0  0  0
 27 24  1  0  0  0  0
 28 27  1  0  0  0  0
 29 27  1  0  0  0  0
 31 33  1  0  0  0  0
 31 32  1  0  0  0  0
 31  4  1  0  0  0  0
 34 31  1  0  0  0  0
 35 34  1  0  0  0  0
 36 34  1  0  0  0  0
 37  6  1  0  0  0  0
 38 39  1  0  0  0  0
 38 37  1  0  0  0  0
 40 38  2  0  0  0  0
 41 40  1  0  0  0  0
 42 44  2  0  0  0  0
 42 40  1  0  0  0  0
 43 42  1  0  0  0  0
 44 46  1  0  0  0  0
 45 44  1  0  0  0  0
 46 47  1  0  0  0  0
 46 37  2  0  0  0  0
 48  6  1  0  0  0  0
 48 49  1  0  0  0  0
 49 50  1  0  0  0  0
 51 49  2  0  0  0  0
 51 52  1  0  0  0  0
 53 51  1  0  0  0  0
 54 53  1  0  0  0  0
 55 57  1  0  0  0  0
 55 53  2  0  0  0  0
 56 55  1  0  0  0  0
 57 48  2  0  0  0  0
 58 57  1  0  0  0  0
M  END
$$$$
