CSD_code = SEWMEN | q = 0 | S = 0 | Stoichiometry = C23H23Cl2N2PPd | MND = 4
 OpenBabel04212202093D

 52 56  0  0  0  0  0  0  0  0999 V2000
    3.7990    7.7819   16.0403 Pd  0  0  0  0  0  0  0  0  0  0  0  0
    1.6783    8.5331   15.7003 Cl  0  0  0  0  0  0  0  0  0  0  0  0
    3.0855    6.0198   17.3044 Cl  0  0  0  0  0  0  0  0  0  0  0  0
    5.8255    7.3581   16.9163 P   0  0  0  0  0  4  0  0  0  0  0  0
    5.5725    9.9384   15.0294 N   0  0  0  0  0  0  0  0  0  0  0  0
    4.2858    9.1267   13.4696 N   0  0  0  0  0  0  0  0  0  0  0  0
    4.5364    9.1053   14.7911 C   0  0  0  0  0  0  0  0  0  0  0  0
    5.1568    9.9895   12.8433 C   0  0  0  0  0  0  0  0  0  0  0  0
    5.3118   10.3732   11.5192 C   0  0  0  0  0  0  0  0  0  0  0  0
    4.6764    9.9862   10.7386 H   0  0  0  0  0  0  0  0  0  0  0  0
    6.3157   11.2784   11.2318 C   0  0  0  0  0  0  0  0  0  0  0  0
    6.4613   11.5985   10.2118 H   0  0  0  0  0  0  0  0  0  0  0  0
    7.1454   11.7892   12.2272 C   0  0  0  0  0  0  0  0  0  0  0  0
    7.9176   12.4933   11.9590 H   0  0  0  0  0  0  0  0  0  0  0  0
    7.0010   11.4148   13.5500 C   0  0  0  0  0  0  0  0  0  0  0  0
    7.6486   11.8163   14.3138 H   0  0  0  0  0  0  0  0  0  0  0  0
    5.9951   10.5093   13.8483 C   0  0  0  0  0  0  0  0  0  0  0  0
    6.2253   10.0331   16.3109 C   0  0  0  0  0  0  0  0  0  0  0  0
    5.4604   10.1710   17.0884 H   0  0  0  0  0  0  0  0  0  0  0  0
    6.8799   10.9079   16.3045 H   0  0  0  0  0  0  0  0  0  0  0  0
    7.0249    8.7536   16.5924 C   0  0  0  0  0  0  0  0  0  0  0  0
    7.6671    8.9049   17.4634 H   0  0  0  0  0  0  0  0  0  0  0  0
    7.6466    8.5110   15.7258 H   0  0  0  0  0  0  0  0  0  0  0  0
    6.8290    5.8622   16.7240 C   0  0  0  0  0  0  0  0  0  0  0  0
    8.2071    5.8356   16.9221 C   0  0  0  0  0  0  0  0  0  0  0  0
    8.7379    6.7328   17.2068 H   0  0  0  0  0  0  0  0  0  0  0  0
    8.9012    4.6508   16.7548 C   0  0  0  0  0  0  0  0  0  0  0  0
    9.9700    4.6297   16.9124 H   0  0  0  0  0  0  0  0  0  0  0  0
    8.2316    3.4940   16.3886 C   0  0  0  0  0  0  0  0  0  0  0  0
    8.7809    2.5728   16.2624 H   0  0  0  0  0  0  0  0  0  0  0  0
    6.8616    3.5198   16.1835 C   0  0  0  0  0  0  0  0  0  0  0  0
    6.3396    2.6194   15.8966 H   0  0  0  0  0  0  0  0  0  0  0  0
    6.1607    4.7008   16.3463 C   0  0  0  0  0  0  0  0  0  0  0  0
    5.0878    4.7379   16.2005 H   0  0  0  0  0  0  0  0  0  0  0  0
    5.5910    7.5816   18.7101 C   0  0  0  0  0  0  0  0  0  0  0  0
    4.5188    8.3741   19.1208 C   0  0  0  0  0  0  0  0  0  0  0  0
    3.8214    8.7850   18.3780 H   0  0  0  0  0  0  0  0  0  0  0  0
    4.3024    8.5989   20.4674 C   0  0  0  0  0  0  0  0  0  0  0  0
    3.4663    9.2041   20.7848 H   0  0  0  0  0  0  0  0  0  0  0  0
    5.1465    8.0313   21.4093 C   0  0  0  0  0  0  0  0  0  0  0  0
    4.9689    8.1974   22.4615 H   0  0  0  0  0  0  0  0  0  0  0  0
    6.2059    7.2371   21.0041 C   0  0  0  0  0  0  0  0  0  0  0  0
    6.8540    6.7831   21.7395 H   0  0  0  0  0  0  0  0  0  0  0  0
    6.4328    7.0118   19.6574 C   0  0  0  0  0  0  0  0  0  0  0  0
    7.2499    6.3774   19.3432 H   0  0  0  0  0  0  0  0  0  0  0  0
    3.2771    8.3083   12.8264 C   0  0  0  0  0  0  0  0  0  0  0  0
    3.2282    8.5975   11.7756 H   0  0  0  0  0  0  0  0  0  0  0  0
    2.3135    8.5098   13.3099 H   0  0  0  0  0  0  0  0  0  0  0  0
    3.6042    6.8195   12.9616 C   0  0  0  0  0  0  0  0  0  0  0  0
    4.6105    6.6061   12.6011 H   0  0  0  0  0  0  0  0  0  0  0  0
    2.8914    6.2396   12.3814 H   0  0  0  0  0  0  0  0  0  0  0  0
    3.5167    6.5034   14.0214 H   0  0  0  0  0  0  0  0  0  0  0  0
  1  4  1  0  0  0  0
  1  3  1  0  0  0  0
  2  1  1  0  0  0  0
  4 35  1  0  0  0  0
  5 18  1  0  0  0  0
  6  7  1  0  0  0  0
  7  5  1  0  0  0  0
  7  1  2  0  0  0  0
  8  6  1  0  0  0  0
  8 17  1  0  0  0  0
  9  8  2  0  0  0  0
 10  9  1  0  0  0  0
 11  9  1  0  0  0  0
 11 13  2  0  0  0  0
 12 11  1  0  0  0  0
 13 15  1  0  0  0  0
 14 13  1  0  0  0  0
 15 17  2  0  0  0  0
 15 16  1  0  0  0  0
 17  5  1  0  0  0  0
 18 21  1  0  0  0  0
 18 19  1  0  0  0  0
 20 18  1  0  0  0  0
 21  4  1  0  0  0  0
 21 22  1  0  0  0  0
 23 21  1  0  0  0  0
 24  4  1  0  0  0  0
 24 25  1  0  0  0  0
 25 26  1  0  0  0  0
 27 28  1  0  0  0  0
 27 25  2  0  0  0  0
 29 27  1  0  0  0  0
 30 29  1  0  0  0  0
 31 33  1  0  0  0  0
 31 29  2  0  0  0  0
 32 31  1  0  0  0  0
 33 24  2  0  0  0  0
 34 33  1  0  0  0  0
 35 36  2  0  0  0  0
 35 44  1  0  0  0  0
 36 38  1  0  0  0  0
 37 36  1  0  0  0  0
 38 39  1  0  0  0  0
 38 40  2  0  0  0  0
 40 41  1  0  0  0  0
 42 40  1  0  0  0  0
 42 43  1  0  0  0  0
 44 42  2  0  0  0  0
 45 44  1  0  0  0  0
 46 49  1  0  0  0  0
 46 48  1  0  0  0  0
 46  6  1  0  0  0  0
 47 46  1  0  0  0  0
 49 52  1  0  0  0  0
 50 49  1  0  0  0  0
 51 49  1  0  0  0  0
M  END
$$$$
