CSD_code = SEWZAV | q = 0 | S = 0 | Stoichiometry = C10H16Cl2Pd | MND = 6
 OpenBabel04212202093D

 29 28  0  0  1  0  0  0  0  0999 V2000
   -0.9474    1.9514    8.3280 Pd  0  0  0  0  0  0  0  0  0  0  0  0
    0.0916    3.6007    7.2448 Cl  0  0  0  0  0 15  0  0  0  0  0  0
    0.8324    1.8519    9.6628 Cl  0  0  0  0  0 15  0  0  0  0  0  0
   -2.8495    0.1983    6.7876 C   0  0  2  0  0  0  0  0  0  0  0  0
   -1.7999   -0.6966    7.4903 C   0  0  1  0  0  0  0  0  0  0  0  0
   -0.5511   -0.8497    6.6054 C   0  0  0  0  0  0  0  0  0  0  0  0
   -0.9137   -1.4436    5.2484 C   0  0  0  0  0  0  0  0  0  0  0  0
   -1.9460   -0.5801    4.5325 C   0  0  0  0  0  0  0  0  0  0  0  0
   -3.1833   -0.3812    5.4043 C   0  0  0  0  0  0  0  0  0  0  0  0
   -2.3595    1.6244    6.6717 C   0  0  1  0  0  0  0  0  0  0  0  0
   -2.8467    2.6632    7.4133 C   0  0  0  0  0  3  0  0  0  0  0  0
   -1.3676   -0.1406    8.8260 C   0  0  2  0  0  0  0  0  0  0  0  0
   -2.1145    0.6252    9.6753 C   0  0  0  0  0  3  0  0  0  0  0  0
   -3.7676    0.1893    7.3875 H   0  0  0  0  0  0  0  0  0  0  0  0
   -2.2390   -1.6911    7.6475 H   0  0  0  0  0  0  0  0  0  0  0  0
   -0.0685    0.1372    6.4789 H   0  0  0  0  0  0  0  0  0  0  0  0
    0.1653   -1.5047    7.1065 H   0  0  0  0  0  0  0  0  0  0  0  0
   -1.3208   -2.4470    5.3980 H   0  0  0  0  0  0  0  0  0  0  0  0
   -0.0171   -1.5353    4.6340 H   0  0  0  0  0  0  0  0  0  0  0  0
   -2.2422   -1.0575    3.5968 H   0  0  0  0  0  0  0  0  0  0  0  0
   -1.4995    0.3820    4.2784 H   0  0  0  0  0  0  0  0  0  0  0  0
   -3.8903    0.2809    4.9005 H   0  0  0  0  0  0  0  0  0  0  0  0
   -3.6751   -1.3466    5.5462 H   0  0  0  0  0  0  0  0  0  0  0  0
   -1.7714    1.8629    5.7864 H   0  0  0  0  0  0  0  0  0  0  0  0
   -3.6693    2.5249    8.1098 H   0  0  0  0  0  0  0  0  0  0  0  0
   -2.6615    3.6862    7.1007 H   0  0  0  0  0  0  0  0  0  0  0  0
   -0.4333   -0.5600    9.2021 H   0  0  0  0  0  0  0  0  0  0  0  0
   -3.1720    0.7950    9.5098 H   0  0  0  0  0  0  0  0  0  0  0  0
   -1.7665    0.7803   10.6919 H   0  0  0  0  0  0  0  0  0  0  0  0
  1 12  1  0  0  0  0
  4 14  1  1  0  0  0
  4  5  1  0  0  0  0
  5 15  1  1  0  0  0
  5 12  1  0  0  0  0
  6 17  1  0  0  0  0
  6  5  1  0  0  0  0
  7 18  1  0  0  0  0
  7  6  1  0  0  0  0
  8  7  1  0  0  0  0
  8  9  1  0  0  0  0
  9 23  1  0  0  0  0
  9  4  1  0  0  0  0
 10 24  1  6  0  0  0
 10  4  1  0  0  0  0
 10 11  1  0  0  0  0
 10  1  1  0  0  0  0
 11 25  1  0  0  0  0
 12 27  1  1  0  0  0
 12 13  1  0  0  0  0
 13 29  1  0  0  0  0
 16  6  1  0  0  0  0
 19  7  1  0  0  0  0
 20  8  1  0  0  0  0
 21  8  1  0  0  0  0
 22  9  1  0  0  0  0
 26 11  1  0  0  0  0
 28 13  1  0  0  0  0
M  END
$$$$
