CSD_code = SEWZAX | q = 0 | S = 0 | Stoichiometry = C10H23AuCl3PS | MND = 4
 OpenBabel04212202093D

 39 38  0  0  0  0  0  0  0  0999 V2000
    3.9696    7.9163    8.0904 Au  0  0  0  0  0  0  0  0  0  0  0  0
    5.9691    8.5670    8.9490 Cl  0  0  0  0  0  0  0  0  0  0  0  0
    4.3438    5.8261    8.8814 Cl  0  0  0  0  0  0  0  0  0  0  0  0
    1.9597    7.2229    7.2647 Cl  0  0  0  0  0  0  0  0  0  0  0  0
    3.6142   10.1319    7.3187 S   0  0  0  0  0  0  0  0  0  0  0  0
    1.8721   10.8060    8.1078 P   0  0  0  0  0  4  0  0  0  0  0  0
    1.6138   10.3906    9.9470 C   0  0  0  0  0  0  0  0  0  0  0  0
    2.0435   12.6546    7.9237 C   0  0  0  0  0  0  0  0  0  0  0  0
    1.1503   13.0916    8.3837 H   0  0  0  0  0  0  0  0  0  0  0  0
    0.4030   10.1900    7.1297 C   0  0  0  0  0  0  0  0  0  0  0  0
    0.2292    9.1855    7.5305 H   0  0  0  0  0  0  0  0  0  0  0  0
    0.8761   11.5379   10.6410 C   0  0  0  0  0  0  0  0  0  0  0  0
   -0.0491   11.7927   10.1294 H   0  0  0  0  0  0  0  0  0  0  0  0
    1.4898   12.4307   10.7197 H   0  0  0  0  0  0  0  0  0  0  0  0
    0.6193   11.2225   11.6511 H   0  0  0  0  0  0  0  0  0  0  0  0
    2.9780   10.1778   10.6020 C   0  0  0  0  0  0  0  0  0  0  0  0
    2.8654   10.1722   11.6846 H   0  0  0  0  0  0  0  0  0  0  0  0
    3.6941   10.9521   10.3358 H   0  0  0  0  0  0  0  0  0  0  0  0
    3.4059    9.2183   10.3115 H   0  0  0  0  0  0  0  0  0  0  0  0
    0.7859    9.1130   10.0736 C   0  0  0  0  0  0  0  0  0  0  0  0
    1.1875    8.3087    9.4596 H   0  0  0  0  0  0  0  0  0  0  0  0
   -0.2540    9.2778    9.7998 H   0  0  0  0  0  0  0  0  0  0  0  0
    0.8101    8.7793   11.1097 H   0  0  0  0  0  0  0  0  0  0  0  0
    3.2967   13.1639    8.6307 C   0  0  0  0  0  0  0  0  0  0  0  0
    4.1801   12.6730    8.2283 H   0  0  0  0  0  0  0  0  0  0  0  0
    3.2659   13.0022    9.7045 H   0  0  0  0  0  0  0  0  0  0  0  0
    3.3947   14.2344    8.4591 H   0  0  0  0  0  0  0  0  0  0  0  0
    2.1035   13.0402    6.4480 C   0  0  0  0  0  0  0  0  0  0  0  0
    2.3554   14.0958    6.3629 H   0  0  0  0  0  0  0  0  0  0  0  0
    1.1521   12.8867    5.9470 H   0  0  0  0  0  0  0  0  0  0  0  0
    2.8747   12.4658    5.9392 H   0  0  0  0  0  0  0  0  0  0  0  0
   -0.8386   11.0497    7.3422 C   0  0  0  0  0  0  0  0  0  0  0  0
   -0.6940   12.0643    6.9784 H   0  0  0  0  0  0  0  0  0  0  0  0
   -1.1278   11.0928    8.3894 H   0  0  0  0  0  0  0  0  0  0  0  0
   -1.6663   10.6109    6.7883 H   0  0  0  0  0  0  0  0  0  0  0  0
    0.7298   10.0158    5.6505 C   0  0  0  0  0  0  0  0  0  0  0  0
   -0.0900    9.4814    5.1756 H   0  0  0  0  0  0  0  0  0  0  0  0
    1.6266    9.4142    5.5288 H   0  0  0  0  0  0  0  0  0  0  0  0
    0.8665   10.9608    5.1345 H   0  0  0  0  0  0  0  0  0  0  0  0
  1  3  1  0  0  0  0
  1  2  1  0  0  0  0
  4  1  1  0  0  0  0
  5  1  1  0  0  0  0
  5  6  1  0  0  0  0
  6  7  1  0  0  0  0
  7 20  1  0  0  0  0
  7 16  1  0  0  0  0
  7 12  1  0  0  0  0
  8  6  1  0  0  0  0
  8  9  1  0  0  0  0
  8 24  1  0  0  0  0
 10 32  1  0  0  0  0
 10 11  1  0  0  0  0
 10  6  1  0  0  0  0
 12 14  1  0  0  0  0
 12 15  1  0  0  0  0
 13 12  1  0  0  0  0
 16 17  1  0  0  0  0
 18 16  1  0  0  0  0
 19 16  1  0  0  0  0
 20 23  1  0  0  0  0
 21 20  1  0  0  0  0
 22 20  1  0  0  0  0
 24 26  1  0  0  0  0
 25 24  1  0  0  0  0
 27 24  1  0  0  0  0
 28  8  1  0  0  0  0
 29 28  1  0  0  0  0
 30 28  1  0  0  0  0
 31 28  1  0  0  0  0
 32 34  1  0  0  0  0
 33 32  1  0  0  0  0
 35 32  1  0  0  0  0
 36 10  1  0  0  0  0
 37 36  1  0  0  0  0
 38 36  1  0  0  0  0
 39 36  1  0  0  0  0
M  END
$$$$
