CSD_code = SEYYON | q = 0 | S = 0 | Stoichiometry = C24H32I2N5Rh | MND = 6
 OpenBabel04212202093D

 64 68  0  0  1  0  0  0  0  0999 V2000
    3.8786   -0.7260    9.1815 Rh  0  0  0  0  0  0  0  0  0  0  0  0
    2.5495   -0.5514    6.8737 I   0  0  0  0  0  0  0  0  0  0  0  0
    4.8734   -0.9568   11.6550 I   0  0  0  0  0  0  0  0  0  0  0  0
   -0.4882   -5.8708    9.6179 C   0  0  0  0  0  0  0  0  0  0  0  0
   -0.9383   -4.9131    9.8643 H   0  0  0  0  0  0  0  0  0  0  0  0
   -1.1774   -6.6668    9.8906 H   0  0  0  0  0  0  0  0  0  0  0  0
   -0.3221   -5.9069    8.5431 H   0  0  0  0  0  0  0  0  0  0  0  0
    0.5813   -5.9792   11.8808 C   0  0  0  0  0  0  0  0  0  0  0  0
    1.5148   -6.0874   12.4291 H   0  0  0  0  0  0  0  0  0  0  0  0
   -0.0923   -6.7798   12.1780 H   0  0  0  0  0  0  0  0  0  0  0  0
    0.1342   -5.0257   12.1467 H   0  0  0  0  0  0  0  0  0  0  0  0
    0.8391   -6.0349   10.3700 C   0  0  0  0  0  0  0  0  0  0  0  0
    1.4589   -7.3858   10.0150 C   0  0  0  0  0  0  0  0  0  0  0  0
    1.6163   -7.4756    8.9425 H   0  0  0  0  0  0  0  0  0  0  0  0
    0.7863   -8.1833   10.3239 H   0  0  0  0  0  0  0  0  0  0  0  0
    2.4079   -7.5265   10.5277 H   0  0  0  0  0  0  0  0  0  0  0  0
    1.7269   -4.8629    9.9974 C   0  0  0  0  0  0  0  0  0  0  0  0
    2.9374   -4.9749    9.3306 C   0  0  0  0  0  0  0  0  0  0  0  0
    3.3281   -5.9356    9.0391 H   0  0  0  0  0  0  0  0  0  0  0  0
    3.6730   -3.8306    9.0290 C   0  0  0  0  0  0  0  0  0  0  0  0
    4.6195   -3.9307    8.5132 H   0  0  0  0  0  0  0  0  0  0  0  0
    3.1786   -2.5964    9.3933 C   0  0  0  0  0  0  0  0  0  0  0  0
    1.9466   -2.5983   10.0585 C   0  0  0  0  0  0  0  0  0  0  0  0
    1.2477   -3.6710   10.3539 N   0  0  0  0  0  0  0  0  0  0  0  0
    1.4460   -1.3462   10.4301 N   0  0  0  0  0  0  0  0  0  0  0  0
    2.2097   -0.3163   10.0779 C   0  0  1  0  0  3  0  0  0  0  0  0
    0.2284   -1.2354   11.1997 C   0  0  0  0  0  0  0  0  0  0  0  0
    0.1168   -2.1593   11.7706 H   0  0  0  0  0  0  0  0  0  0  0  0
   -0.6297   -1.1390   10.5243 H   0  0  0  0  0  0  0  0  0  0  0  0
    0.3673   -0.0123   12.0904 C   0  0  0  0  0  0  0  0  0  0  0  0
    1.1979   -0.1627   12.7840 H   0  0  0  0  0  0  0  0  0  0  0  0
   -0.5420    0.1575   12.6655 H   0  0  0  0  0  0  0  0  0  0  0  0
    0.6525    1.1958   11.2067 C   0  0  0  0  0  0  0  0  0  0  0  0
   -0.2176    1.4095   10.5732 H   0  0  0  0  0  0  0  0  0  0  0  0
    0.8610    2.0669   11.8337 H   0  0  0  0  0  0  0  0  0  0  0  0
    1.8200    0.9372   10.3733 N   0  0  2  0  0  0  0  0  0  0  0  0
    2.5305    2.0109    9.8334 C   0  0  2  0  0  3  0  0  0  0  0  0
    1.9370    3.2733    9.7998 C   0  0  0  0  0  0  0  0  0  0  0  0
    0.9309    3.4320   10.1459 H   0  0  0  0  0  0  0  0  0  0  0  0
    2.6574    4.3180    9.2650 C   0  0  0  0  0  0  0  0  0  0  0  0
    2.2237    5.3047    9.2042 H   0  0  0  0  0  0  0  0  0  0  0  0
    3.9411    4.0842    8.8099 C   0  0  0  0  0  0  0  0  0  0  0  0
    4.5109    4.9005    8.4056 H   0  0  0  0  0  0  0  0  0  0  0  0
    4.4739    2.8005    8.8638 C   0  0  0  0  0  0  0  0  0  0  0  0
    3.7572    1.7769    9.3476 N   0  0  0  0  0  0  0  0  0  0  0  0
    5.8850    2.5423    8.3557 C   0  0  0  0  0  0  0  0  0  0  0  0
    5.7798    1.8027    7.0168 C   0  0  0  0  0  0  0  0  0  0  0  0
    5.2401    0.8679    7.1343 H   0  0  0  0  0  0  0  0  0  0  0  0
    6.7725    1.5830    6.6293 H   0  0  0  0  0  0  0  0  0  0  0  0
    5.2471    2.4086    6.2864 H   0  0  0  0  0  0  0  0  0  0  0  0
    6.6542    1.7054    9.3800 C   0  0  0  0  0  0  0  0  0  0  0  0
    6.7511    2.2459   10.3193 H   0  0  0  0  0  0  0  0  0  0  0  0
    7.6504    1.4745    9.0084 H   0  0  0  0  0  0  0  0  0  0  0  0
    6.1397    0.7711    9.5795 H   0  0  0  0  0  0  0  0  0  0  0  0
    6.6766    3.8354    8.1273 C   0  0  0  0  0  0  0  0  0  0  0  0
    6.2722    4.4178    7.3027 H   0  0  0  0  0  0  0  0  0  0  0  0
    7.7020    3.5759    7.8717 H   0  0  0  0  0  0  0  0  0  0  0  0
    6.7010    4.4481    9.0260 H   0  0  0  0  0  0  0  0  0  0  0  0
    5.5347   -1.2820    8.3327 N   0  0  0  0  0  2  0  0  0  0  0  0
    6.4826   -1.7399    7.8698 C   0  0  0  0  0  2  0  0  0  0  0  0
    7.6609   -2.3005    7.2867 C   0  0  0  0  0  0  0  0  0  0  0  0
    8.3604   -1.5037    7.0335 H   0  0  0  0  0  0  0  0  0  0  0  0
    7.3962   -2.8476    6.3814 H   0  0  0  0  0  0  0  0  0  0  0  0
    8.1321   -2.9800    7.9974 H   0  0  0  0  0  0  0  0  0  0  0  0
  1 45  1  0  0  0  0
  1 22  1  0  0  0  0
  1 26  1  0  0  0  0
  1  3  1  0  0  0  0
  2  1  1  0  0  0  0
  4  5  1  0  0  0  0
  4  6  1  0  0  0  0
  4 12  1  0  0  0  0
  7  4  1  0  0  0  0
  8 11  1  0  0  0  0
  8 10  1  0  0  0  0
  8  9  1  0  0  0  0
 12  8  1  0  0  0  0
 13 15  1  0  0  0  0
 13 12  1  0  0  0  0
 13 16  1  0  0  0  0
 14 13  1  0  0  0  0
 17 24  1  0  0  0  0
 17 12  1  0  0  0  0
 18 17  2  0  0  0  0
 19 18  1  0  0  0  0
 20 18  1  0  0  0  0
 20 22  2  0  0  0  0
 21 20  1  0  0  0  0
 22 23  1  0  0  0  0
 23 24  2  0  0  0  0
 23 25  1  0  0  0  0
 25 27  1  0  0  0  0
 26 36  1  0  0  0  0
 26 25  1  1  0  0  0
 27 28  1  0  0  0  0
 27 30  1  0  0  0  0
 29 27  1  0  0  0  0
 30 32  1  0  0  0  0
 30 31  1  0  0  0  0
 33 35  1  0  0  0  0
 33 30  1  0  0  0  0
 34 33  1  0  0  0  0
 36 33  1  6  0  0  0
 37 38  1  6  0  0  0
 37 36  1  0  0  0  0
 38 39  1  0  0  0  0
 40 38  2  0  0  0  0
 41 40  1  0  0  0  0
 42 44  2  0  0  0  0
 42 40  1  0  0  0  0
 43 42  1  0  0  0  0
 44 45  1  0  0  0  0
 45 37  1  0  0  0  0
 46 44  1  0  0  0  0
 46 51  1  0  0  0  0
 47 48  1  0  0  0  0
 47 46  1  0  0  0  0
 49 47  1  0  0  0  0
 50 47  1  0  0  0  0
 51 54  1  0  0  0  0
 51 52  1  0  0  0  0
 53 51  1  0  0  0  0
 55 46  1  0  0  0  0
 55 58  1  0  0  0  0
 56 55  1  0  0  0  0
 57 55  1  0  0  0  0
 59  1  1  0  0  0  0
 60 59  1  0  0  0  0
 61 60  1  0  0  0  0
 61 64  1  0  0  0  0
 62 61  1  0  0  0  0
 63 61  1  0  0  0  0
M  END
$$$$
