CSD_code = SEZLAK | q = -1 | S = 0 | Stoichiometry = C16H11Br3ClN2O3PtS(1-) | MND = 4
 OpenBabel04212202093D

 38 40  0  0  0  0  0  0  0  0999 V2000
    0.5076    4.3336    0.7140 Pt  0  0  0  0  0  0  0  0  0  0  0  0
   -0.9452    3.1178    2.2953 Br  0  0  0  0  0  0  0  0  0  0  0  0
    0.1129    6.4256    1.7649 Br  0  0  0  0  0  0  0  0  0  0  0  0
    2.0360    5.3120   -0.9581 Br  0  0  0  0  0  0  0  0  0  0  0  0
    5.6773   -1.1947    1.7235 Cl  0  0  0  0  0  0  0  0  0  0  0  0
    1.7469    0.2929   -0.8729 S   0  0  0  0  0  0  0  0  0  0  0  0
   -2.2507    0.5391   -4.2505 O   0  0  0  0  0  0  0  0  0  0  0  0
    8.6213    0.8253    5.4101 O   0  0  0  0  0  0  0  0  0  0  0  0
    7.8551    2.7732    5.9330 O   0  0  0  0  0  0  0  0  0  0  0  0
    0.8066    2.5977   -0.1802 N   0  0  0  0  0  0  0  0  0  0  0  0
    7.8172    1.7395    5.2806 N   0  0  0  0  0  0  0  0  0  0  0  0
   -0.0040    2.1625   -1.1832 C   0  0  0  0  0  0  0  0  0  0  0  0
   -1.1063    2.8383   -1.7085 C   0  0  0  0  0  0  0  0  0  0  0  0
   -1.8189    2.2554   -2.7252 C   0  0  0  0  0  0  0  0  0  0  0  0
   -1.4594    0.9988   -3.2428 C   0  0  0  0  0  0  0  0  0  0  0  0
   -0.3664    0.3137   -2.7304 C   0  0  0  0  0  0  0  0  0  0  0  0
    0.3486    0.9067   -1.7033 C   0  0  0  0  0  0  0  0  0  0  0  0
    1.7725    1.7550    0.1149 C   0  0  0  0  0  0  0  0  0  0  0  0
    2.7411    1.9861    1.1122 C   0  0  0  0  0  0  0  0  0  0  0  0
    3.7333    1.1103    1.4171 C   0  0  0  0  0  3  0  0  0  0  0  0
    4.7501    1.2871    2.4026 C   0  0  0  0  0  0  0  0  0  0  0  0
    5.7167    0.2794    2.6293 C   0  0  0  0  0  0  0  0  0  0  0  0
    6.7141    0.4210    3.5629 C   0  0  0  0  0  0  0  0  0  0  0  0
    6.7855    1.5920    4.3188 C   0  0  0  0  0  0  0  0  0  0  0  0
    5.8471    2.6093    4.1262 C   0  0  0  0  0  0  0  0  0  0  0  0
    4.8582    2.4521    3.1899 C   0  0  0  0  0  0  0  0  0  0  0  0
   -1.9492   -0.7088   -4.8233 C   0  0  0  0  0  0  0  0  0  0  0  0
   -1.3827    3.8070   -1.3091 H   0  0  0  0  0  0  0  0  0  0  0  0
   -2.6760    2.7480   -3.1547 H   0  0  0  0  0  0  0  0  0  0  0  0
   -0.0611   -0.6506   -3.1011 H   0  0  0  0  0  0  0  0  0  0  0  0
    2.6400    2.9339    1.6344 H   0  0  0  0  0  0  0  0  0  0  0  0
    3.7634    0.1823    0.8595 H   0  0  0  0  0  0  0  0  0  0  0  0
    7.4458   -0.3555    3.7247 H   0  0  0  0  0  0  0  0  0  0  0  0
    5.9199    3.5064    4.7211 H   0  0  0  0  0  0  0  0  0  0  0  0
    4.1431    3.2453    3.0492 H   0  0  0  0  0  0  0  0  0  0  0  0
   -2.6993   -0.8671   -5.5967 H   0  0  0  0  0  0  0  0  0  0  0  0
   -0.9535   -0.7121   -5.2791 H   0  0  0  0  0  0  0  0  0  0  0  0
   -2.0138   -1.5158   -4.0860 H   0  0  0  0  0  0  0  0  0  0  0  0
  1  3  1  0  0  0  0
  1  2  1  0  0  0  0
  4  1  1  0  0  0  0
  5 22  1  0  0  0  0
  6 18  1  0  0  0  0
  7 15  1  0  0  0  0
 10 18  1  0  0  0  0
 10  1  1  0  0  0  0
 11  8  2  0  0  0  0
 11  9  2  0  0  0  0
 12 10  1  0  0  0  0
 13 28  1  0  0  0  0
 13 12  2  0  0  0  0
 14 13  1  0  0  0  0
 15 16  1  0  0  0  0
 15 14  2  0  0  0  0
 16 17  2  0  0  0  0
 17 12  1  0  0  0  0
 17  6  1  0  0  0  0
 18 19  2  0  0  0  0
 19 20  1  0  0  0  0
 19 31  1  0  0  0  0
 20 21  1  0  0  0  0
 21 22  2  0  0  0  0
 21 26  1  0  0  0  0
 22 23  1  0  0  0  0
 23 33  1  0  0  0  0
 23 24  2  0  0  0  0
 24 11  1  0  0  0  0
 25 24  1  0  0  0  0
 25 34  1  0  0  0  0
 26 25  2  0  0  0  0
 27  7  1  0  0  0  0
 27 38  1  0  0  0  0
 29 14  1  0  0  0  0
 30 16  1  0  0  0  0
 32 20  1  0  0  0  0
 35 26  1  0  0  0  0
 36 27  1  0  0  0  0
 37 27  1  0  0  0  0
M  END
$$$$
