CSD_code = SEZYEE | q = 0 | S = 0 | Stoichiometry = C30H22CdCl2N6O4 | MND = 6
 OpenBabel04212202093D

 65 72  0  0  1  0  0  0  0  0999 V2000
    3.6066    8.8669    3.0134 Cd  0  0  0  0  0  0  0  0  0  0  0  0
    4.4274    8.1898    0.8768 Cl  0  0  0  0  0  0  0  0  0  0  0  0
    4.3679   11.0557    3.7860 Cl  0  0  0  0  0  0  0  0  0  0  0  0
    5.3796    7.5214    4.0375 N   0  0  0  0  0  0  0  0  0  0  0  0
    3.2593    8.6087    5.3321 N   0  0  2  0  0  0  0  0  0  0  0  0
    2.5458    9.4061    6.1128 N   0  0  0  0  0  0  0  0  0  0  0  0
    1.6225   10.0037    2.1963 N   0  0  0  0  0  0  0  0  0  0  0  0
    1.9661    7.3165    2.5241 N   0  0  0  0  0  0  0  0  0  0  0  0
    2.1465    6.0361    2.2518 N   0  0  0  0  0  0  0  0  0  0  0  0
    6.3598    6.9364    3.3707 C   0  0  0  0  0  3  0  0  0  0  0  0
    6.2880    6.9945    2.2915 H   0  0  0  0  0  0  0  0  0  0  0  0
    7.4193    6.2984    3.9998 C   0  0  0  0  0  0  0  0  0  0  0  0
    8.2060    5.8465    3.4171 H   0  0  0  0  0  0  0  0  0  0  0  0
    7.4445    6.2665    5.3854 C   0  0  0  0  0  0  0  0  0  0  0  0
    8.2521    5.7782    5.9113 H   0  0  0  0  0  0  0  0  0  0  0  0
    6.4228    6.8797    6.0874 C   0  0  0  0  0  0  0  0  0  0  0  0
    6.4080    6.8785    7.1656 H   0  0  0  0  0  0  0  0  0  0  0  0
    5.4034    7.5096    5.3745 C   0  0  0  0  0  0  0  0  0  0  0  0
    4.3366    8.2512    6.0258 C   0  0  1  0  0  3  0  0  0  0  0  0
    4.2784    8.8132    7.3160 C   0  0  0  0  0  0  0  0  0  0  0  0
    4.9909    8.7189    8.1083 H   0  0  0  0  0  0  0  0  0  0  0  0
    3.1228    9.5560    7.3240 C   0  0  0  0  0  0  0  0  0  0  0  0
    2.6849   10.1603    8.0929 H   0  0  0  0  0  0  0  0  0  0  0  0
    1.3962   10.0465    5.6123 C   0  0  0  0  0  0  0  0  0  0  0  0
    0.4457    9.2954    4.9304 C   0  0  0  0  0  0  0  0  0  0  0  0
    0.5916    8.2330    4.8049 H   0  0  0  0  0  0  0  0  0  0  0  0
   -0.6890    9.9132    4.4366 C   0  0  0  0  0  0  0  0  0  0  0  0
   -1.4331    9.3258    3.9202 H   0  0  0  0  0  0  0  0  0  0  0  0
    1.2209   11.4184    5.7979 C   0  0  0  0  0  0  0  0  0  0  0  0
    0.0711   12.0180    5.2990 C   0  0  0  0  0  0  0  0  0  0  0  0
   -0.0713   13.0759    5.4579 H   0  0  0  0  0  0  0  0  0  0  0  0
    4.3274    4.4137    4.7786 C   0  0  0  0  0  0  0  0  0  0  0  0
    4.4038    4.3101    5.8494 H   0  0  0  0  0  0  0  0  0  0  0  0
    5.2555    3.8150    3.9498 C   0  0  0  0  0  0  0  0  0  0  0  0
    6.0682    3.2470    4.3757 H   0  0  0  0  0  0  0  0  0  0  0  0
    5.1410    3.9436    2.5741 C   0  0  0  0  0  0  0  0  0  0  0  0
    5.8679    3.4823    1.9235 H   0  0  0  0  0  0  0  0  0  0  0  0
    4.1025    4.6763    2.0301 C   0  0  0  0  0  0  0  0  0  0  0  0
    4.0271    4.8177    0.9631 H   0  0  0  0  0  0  0  0  0  0  0  0
    3.1643    5.2823    2.8576 C   0  0  0  0  0  0  0  0  0  0  0  0
    3.2688    5.1512    4.2490 C   0  0  0  0  0  0  0  0  0  0  0  0
    2.2404    5.7099    5.1561 C   0  0  0  0  0  0  0  0  0  0  0  0
    1.3467    5.6297    1.2422 C   0  0  0  0  0  3  0  0  0  0  0  0
    1.3515    4.6178    0.8897 H   0  0  0  0  0  0  0  0  0  0  0  0
    0.6005    6.7132    0.8550 C   0  0  0  0  0  0  0  0  0  0  0  0
   -0.1303    6.7508    0.0743 H   0  0  0  0  0  0  0  0  0  0  0  0
    1.0457    7.7668    1.6793 C   0  0  0  0  0  0  0  0  0  0  0  0
    0.7337    9.1864    1.6219 C   0  0  2  0  0  3  0  0  0  0  0  0
    1.4253   11.3098    2.1373 C   0  0  0  0  0  0  0  0  0  0  0  0
    2.1818   11.9224    2.6117 H   0  0  0  0  0  0  0  0  0  0  0  0
    0.3290   11.8790    1.5061 C   0  0  0  0  0  0  0  0  0  0  0  0
    0.2135   12.9505    1.4779 H   0  0  0  0  0  0  0  0  0  0  0  0
   -0.6002   11.0402    0.9114 C   0  0  0  0  0  0  0  0  0  0  0  0
   -1.4665   11.4445    0.4084 H   0  0  0  0  0  0  0  0  0  0  0  0
   -0.3973    9.6732    0.9671 C   0  0  0  0  0  0  0  0  0  0  0  0
   -1.0994    8.9890    0.5175 H   0  0  0  0  0  0  0  0  0  0  0  0
   -0.8732   11.2747    4.6135 C   0  0  0  0  0  0  0  0  0  0  0  0
   -1.7594   11.7558    4.2282 H   0  0  0  0  0  0  0  0  0  0  0  0
    2.1730   12.2620    6.6183 C   0  0  0  0  0  0  0  0  0  0  0  0
    3.4148   12.3792    6.2151 O   0  0  0  0  0  0  0  0  0  0  0  0
    3.6814   11.9260    5.3504 H   0  0  0  0  0  0  0  0  0  0  0  0
    1.7642   12.7966    7.6204 O   0  0  0  0  0  0  0  0  0  0  0  0
    2.6328    5.7290    6.4379 O   0  0  0  0  0  0  0  0  0  0  0  0
    1.9177    6.0735    6.9962 H   0  0  0  0  0  0  0  0  0  0  0  0
    1.1370    6.0697    4.8267 O   0  0  0  0  0  0  0  0  0  0  0  0
  1  3  1  0  0  0  0
  1  4  1  0  0  0  0
  1  5  1  0  0  0  0
  2  1  1  0  0  0  0
  4 18  1  0  0  0  0
  5 19  1  0  0  0  0
  5  6  1  1  0  0  0
  6 22  1  0  0  0  0
  7  1  1  0  0  0  0
  8  1  1  0  0  0  0
  9  8  1  0  0  0  0
  9 40  1  0  0  0  0
 10 12  1  0  0  0  0
 10  4  1  0  0  0  0
 11 10  1  0  0  0  0
 12 14  2  0  0  0  0
 13 12  1  0  0  0  0
 14 15  1  0  0  0  0
 14 16  1  0  0  0  0
 16 17  1  0  0  0  0
 18 16  2  0  0  0  0
 19 18  1  6  0  0  0
 19 20  1  0  0  0  0
 20 22  2  0  0  0  0
 20 21  1  0  0  0  0
 22 23  1  0  0  0  0
 24 29  1  0  0  0  0
 24  6  1  0  0  0  0
 25 24  2  0  0  0  0
 26 25  1  0  0  0  0
 27 57  2  0  0  0  0
 27 25  1  0  0  0  0
 28 27  1  0  0  0  0
 29 59  1  0  0  0  0
 30 31  1  0  0  0  0
 30 29  2  0  0  0  0
 32 33  1  0  0  0  0
 34 35  1  0  0  0  0
 34 32  2  0  0  0  0
 36 34  1  0  0  0  0
 37 36  1  0  0  0  0
 38 36  2  0  0  0  0
 38 40  1  0  0  0  0
 39 38  1  0  0  0  0
 40 41  2  0  0  0  0
 41 32  1  0  0  0  0
 41 42  1  0  0  0  0
 42 63  1  0  0  0  0
 43  9  1  0  0  0  0
 44 43  1  0  0  0  0
 45 43  1  0  0  0  0
 45 47  2  0  0  0  0
 46 45  1  0  0  0  0
 47  8  1  0  0  0  0
 48 55  1  6  0  0  0
 48 47  1  0  0  0  0
 48  7  1  0  0  0  0
 49  7  1  0  0  0  0
 49 50  1  0  0  0  0
 51 49  2  0  0  0  0
 52 51  1  0  0  0  0
 53 55  2  0  0  0  0
 53 51  1  0  0  0  0
 54 53  1  0  0  0  0
 56 55  1  0  0  0  0
 57 30  1  0  0  0  0
 58 57  1  0  0  0  0
 59 62  2  0  0  0  0
 60 59  1  0  0  0  0
 61 60  1  0  0  0  0
 63 64  1  0  0  0  0
 65 42  2  0  0  0  0
M  END
$$$$
