CSD_code = SIBCAH | q = 0 | S = 0 | Stoichiometry = C17H14Br2O3S2W | MND = 7
 OpenBabel04212202093D

 39 41  0  0  0  0  0  0  0  0999 V2000
    0.9600    1.6434    3.3049 W   0  0  0  0  0  0  0  0  0  0  0  0
   -1.0836    1.4518    1.8474 Br  0  0  0  0  0  0  0  0  0  0  0  0
   -0.5958    2.6745    5.1097 Br  0  0  0  0  0  0  0  0  0  0  0  0
    0.9011   -1.9191    2.7845 C   0  0  0  0  0  0  0  0  0  0  0  0
    0.8717   -1.3190    1.3981 C   0  0  0  0  0  0  0  0  0  0  0  0
    0.1937   -0.7491    4.0154 S   0  0  1  0  0  3  0  0  0  0  0  0
    0.9558   -1.1725    5.5796 C   0  0  0  0  0  0  0  0  0  0  0  0
    0.4325   -0.4867    6.6707 C   0  0  0  0  0  0  0  0  0  0  0  0
    0.9599   -0.7005    7.9288 C   0  0  0  0  0  0  0  0  0  0  0  0
    1.9945   -1.6053    8.1054 C   0  0  0  0  0  0  0  0  0  0  0  0
    2.4906   -2.3020    7.0189 C   0  0  0  0  0  0  0  0  0  0  0  0
    1.9736   -2.0948    5.7496 C   0  0  0  0  0  0  0  0  0  0  0  0
    1.8413    0.2386    1.2599 S   0  0  0  0  0  0  0  0  0  0  0  0
    3.4881   -0.4330    1.5093 C   0  0  0  0  0  0  0  0  0  0  0  0
    4.2564   -0.6640    0.3787 C   0  0  0  0  0  0  0  0  0  0  0  0
    5.5327   -1.1804    0.5163 C   0  0  0  0  0  0  0  0  0  0  0  0
    6.0349   -1.4641    1.7759 C   0  0  0  0  0  0  0  0  0  0  0  0
    5.2633   -1.2283    2.9014 C   0  0  0  0  0  0  0  0  0  0  0  0
    3.9867   -0.7081    2.7729 C   0  0  0  0  0  0  0  0  0  0  0  0
    2.8947    2.0503    3.4059 C   0  0  0  0  0  0  0  0  0  0  0  0
    4.0191    2.3860    3.2836 O   0  0  0  0  0  0  0  0  0  0  0  0
    1.2872    3.5167    2.6915 C   0  0  0  0  0  2  0  0  0  0  0  0
    1.5679    4.5757    2.3650 O   0  0  0  0  0  1  0  0  0  0  0  0
    2.2482    1.4963    4.8137 C   0  0  0  0  0  0  0  0  0  0  0  0
    2.8882    1.2366    5.7641 O   0  0  0  0  0  0  0  0  0  0  0  0
    1.9236   -2.1654    3.0685 H   0  0  0  0  0  0  0  0  0  0  0  0
    0.2842   -2.8185    2.8171 H   0  0  0  0  0  0  0  0  0  0  0  0
   -0.1420   -1.0497    1.0951 H   0  0  0  0  0  0  0  0  0  0  0  0
    1.2982   -2.0117    0.6717 H   0  0  0  0  0  0  0  0  0  0  0  0
   -0.3716    0.2205    6.5293 H   0  0  0  0  0  0  0  0  0  0  0  0
    0.5604   -0.1541    8.7682 H   0  0  0  0  0  0  0  0  0  0  0  0
    2.4116   -1.7690    9.0868 H   0  0  0  0  0  0  0  0  0  0  0  0
    3.2902   -3.0160    7.1481 H   0  0  0  0  0  0  0  0  0  0  0  0
    2.3802   -2.6630    4.9269 H   0  0  0  0  0  0  0  0  0  0  0  0
    3.8544   -0.4304   -0.5951 H   0  0  0  0  0  0  0  0  0  0  0  0
    6.1355   -1.3550   -0.3614 H   0  0  0  0  0  0  0  0  0  0  0  0
    7.0325   -1.8613    1.8824 H   0  0  0  0  0  0  0  0  0  0  0  0
    5.6535   -1.4358    3.8859 H   0  0  0  0  0  0  0  0  0  0  0  0
    3.4049   -0.5039    3.6627 H   0  0  0  0  0  0  0  0  0  0  0  0
  1 20  1  0  0  0  0
  1  6  1  0  0  0  0
  1 24  1  0  0  0  0
  1  3  1  0  0  0  0
  2  1  1  0  0  0  0
  4 27  1  0  0  0  0
  4 26  1  0  0  0  0
  5  4  1  0  0  0  0
  6  4  1  6  0  0  0
  6  7  1  0  0  0  0
  7 12  2  0  0  0  0
  7  8  1  0  0  0  0
  8  9  2  0  0  0  0
  9 10  1  0  0  0  0
  9 31  1  0  0  0  0
 10 32  1  0  0  0  0
 11 33  1  0  0  0  0
 11 10  2  0  0  0  0
 12 11  1  0  0  0  0
 13  5  1  0  0  0  0
 13 14  1  0  0  0  0
 14 19  1  0  0  0  0
 15 16  1  0  0  0  0
 15 14  2  0  0  0  0
 16 17  2  0  0  0  0
 17 37  1  0  0  0  0
 17 18  1  0  0  0  0
 18 38  1  0  0  0  0
 19 18  2  0  0  0  0
 19 39  1  0  0  0  0
 20 24  1  0  0  0  0
 21 20  2  0  0  0  0
 22  1  1  0  0  0  0
 23 22  1  0  0  0  0
 24 25  2  0  0  0  0
 28  5  1  0  0  0  0
 29  5  1  0  0  0  0
 30  8  1  0  0  0  0
 34 12  1  0  0  0  0
 35 15  1  0  0  0  0
 36 16  1  0  0  0  0
M  END
$$$$
