CSD_code = SIBSIF | q = 0 | S = 0 | Stoichiometry = C18H18Cl2N2Pd | MND = 4
 OpenBabel04212202093D

 41 44  0  0  1  0  0  0  0  0999 V2000
   -0.0000    0.0000   -0.0000 Pd  0  0  0  0  0  0  0  0  0  0  0  0
    0.7052   -2.1558    0.2500 Cl  0  0  0  0  0  0  0  0  0  0  0  0
    0.6843    0.3910    1.7636 N   0  0  0  0  0  0  0  0  0  0  0  0
    0.1002    0.2036    2.8958 C   0  0  2  0  0  3  0  0  0  0  0  0
    0.9977    0.5305    4.0595 C   0  0  0  0  0  0  0  0  0  0  0  0
    2.2466    0.9514    3.3442 C   0  0  0  0  0  0  0  0  0  0  0  0
    3.4852    1.3830    3.7657 C   0  0  0  0  0  0  0  0  0  0  0  0
    4.4349    1.6950    2.7993 C   0  0  0  0  0  0  0  0  0  0  0  0
    4.1597    1.5825    1.4425 C   0  0  0  0  0  0  0  0  0  0  0  0
    2.9184    1.1512    1.0025 C   0  0  0  0  0  0  0  0  0  0  0  0
    1.9826    0.8417    1.9724 C   0  0  0  0  0  0  0  0  0  0  0  0
   -1.2927   -0.3023    2.9605 C   0  0  0  0  0  0  0  0  0  0  0  0
    1.1509   -0.3418    4.6987 H   0  0  0  0  0  0  0  0  0  0  0  0
    0.5774    1.3263    4.6785 H   0  0  0  0  0  0  0  0  0  0  0  0
    3.7182    1.4774    4.8158 H   0  0  0  0  0  0  0  0  0  0  0  0
    5.4111    2.0340    3.1123 H   0  0  0  0  0  0  0  0  0  0  0  0
    4.9252    1.8363    0.7248 H   0  0  0  0  0  0  0  0  0  0  0  0
    2.6623    1.0576   -0.0534 H   0  0  0  0  0  0  0  0  0  0  0  0
   -1.7384   -0.1413    3.9389 H   0  0  0  0  0  0  0  0  0  0  0  0
   -1.8898    0.2044    2.1878 H   0  0  0  0  0  0  0  0  0  0  0  0
   -1.2920   -1.3753    2.7390 H   0  0  0  0  0  0  0  0  0  0  0  0
   -0.7051    2.1559   -0.2501 Cl  0  0  0  0  0  0  0  0  0  0  0  0
   -0.6843   -0.3910   -1.7636 N   0  0  0  0  0  0  0  0  0  0  0  0
   -0.1002   -0.2036   -2.8958 C   0  0  1  0  0  3  0  0  0  0  0  0
   -1.9826   -0.8417   -1.9724 C   0  0  0  0  0  0  0  0  0  0  0  0
   -0.9977   -0.5305   -4.0596 C   0  0  0  0  0  0  0  0  0  0  0  0
    1.2927    0.3022   -2.9605 C   0  0  0  0  0  0  0  0  0  0  0  0
   -2.2466   -0.9513   -3.3442 C   0  0  0  0  0  0  0  0  0  0  0  0
   -2.9183   -1.1513   -1.0025 C   0  0  0  0  0  0  0  0  0  0  0  0
   -1.1509    0.3419   -4.6987 H   0  0  0  0  0  0  0  0  0  0  0  0
   -0.5775   -1.3262   -4.6785 H   0  0  0  0  0  0  0  0  0  0  0  0
    1.7384    0.1413   -3.9389 H   0  0  0  0  0  0  0  0  0  0  0  0
    1.8897   -0.2045   -2.1878 H   0  0  0  0  0  0  0  0  0  0  0  0
    1.2921    1.3752   -2.7390 H   0  0  0  0  0  0  0  0  0  0  0  0
   -3.4853   -1.3829   -3.7657 C   0  0  0  0  0  0  0  0  0  0  0  0
   -4.1597   -1.5826   -1.4425 C   0  0  0  0  0  0  0  0  0  0  0  0
   -2.6622   -1.0577    0.0534 H   0  0  0  0  0  0  0  0  0  0  0  0
   -4.4349   -1.6949   -2.7993 C   0  0  0  0  0  0  0  0  0  0  0  0
   -3.7183   -1.4772   -4.8158 H   0  0  0  0  0  0  0  0  0  0  0  0
   -4.9251   -1.8364   -0.7248 H   0  0  0  0  0  0  0  0  0  0  0  0
   -5.4111   -2.0339   -3.1122 H   0  0  0  0  0  0  0  0  0  0  0  0
  1  2  1  0  0  0  0
  1  3  1  0  0  0  0
  3 11  1  0  0  0  0
  3  4  1  0  0  0  0
  4 12  1  1  0  0  0
  4  5  1  0  0  0  0
  5 14  1  0  0  0  0
  5 13  1  0  0  0  0
  6  7  1  0  0  0  0
  6  5  1  0  0  0  0
  7 15  1  0  0  0  0
  8 16  1  0  0  0  0
  8  7  2  0  0  0  0
  9  8  1  0  0  0  0
 10  9  2  0  0  0  0
 10 11  1  0  0  0  0
 11  6  2  0  0  0  0
 12 19  1  0  0  0  0
 17  9  1  0  0  0  0
 18 10  1  0  0  0  0
 20 12  1  0  0  0  0
 21 12  1  0  0  0  0
 22  1  1  0  0  0  0
 23  1  1  0  0  0  0
 24 27  1  6  0  0  0
 24 23  1  0  0  0  0
 25 23  1  0  0  0  0
 25 29  1  0  0  0  0
 26 28  1  0  0  0  0
 26 24  1  0  0  0  0
 27 34  1  0  0  0  0
 27 33  1  0  0  0  0
 28 25  2  0  0  0  0
 29 37  1  0  0  0  0
 30 26  1  0  0  0  0
 31 26  1  0  0  0  0
 32 27  1  0  0  0  0
 35 28  1  0  0  0  0
 35 38  2  0  0  0  0
 36 29  2  0  0  0  0
 36 40  1  0  0  0  0
 38 36  1  0  0  0  0
 39 35  1  0  0  0  0
 41 38  1  0  0  0  0
M  END
$$$$
