CSD_code = SIBXOS | q = 0 | S = 0 | Stoichiometry = C32H26Br4N2Ni | MND = 4
 OpenBabel04212202093D

 65 71  0  0  1  0  0  0  0  0999 V2000
    7.9219   20.3275    4.6591 Ni  0  0  0  0  0  0  0  0  0  0  0  0
    8.2956   22.4572    5.0856 Br  0  0  0  0  0  0  0  0  0  0  0  0
   10.0525   19.8231    4.9141 Br  0  0  0  0  0  0  0  0  0  0  0  0
    2.9710   24.6716    8.0422 Br  0  0  0  0  0  0  0  0  0  0  0  0
   11.2573   14.8567    0.9420 Br  0  0  0  0  0  0  0  0  0  0  0  0
    5.9545   20.4703    4.8745 N   0  0  0  0  0  0  0  0  0  0  0  0
    7.4590   18.6155    3.7763 N   0  0  0  0  0  0  0  0  0  0  0  0
    3.1367   17.2801    6.0634 C   0  0  0  0  0  0  0  0  0  0  0  0
    2.5404   17.9946    6.6116 H   0  0  0  0  0  0  0  0  0  0  0  0
    3.1897   15.9514    6.4604 C   0  0  0  0  0  0  0  0  0  0  0  0
    2.6298   15.6315    7.3255 H   0  0  0  0  0  0  0  0  0  0  0  0
    3.9529   15.0365    5.7556 C   0  0  0  0  0  0  0  0  0  0  0  0
    3.9846   14.0052    6.0714 H   0  0  0  0  0  0  0  0  0  0  0  0
    4.6836   15.4347    4.6450 C   0  0  0  0  0  0  0  0  0  0  0  0
    5.2793   14.7214    4.0943 H   0  0  0  0  0  0  0  0  0  0  0  0
    4.6337   16.7569    4.2498 C   0  0  0  0  0  0  0  0  0  0  0  0
    3.8574   17.6774    4.9552 C   0  0  0  0  0  0  0  0  0  0  0  0
    3.9056   19.0808    4.3971 C   0  0  2  0  0  0  0  0  0  0  0  0
    3.2831   19.7921    4.9404 H   0  0  0  0  0  0  0  0  0  0  0  0
    3.5690   18.9729    2.9261 C   0  0  0  0  0  0  0  0  0  0  0  0
    4.3672   18.0666    2.2267 C   0  0  0  0  0  0  0  0  0  0  0  0
    5.3888   17.3556    3.0832 C   0  0  1  0  0  0  0  0  0  0  0  0
    5.9971   16.6347    2.5364 H   0  0  0  0  0  0  0  0  0  0  0  0
    2.5879   19.6916    2.2721 C   0  0  0  0  0  0  0  0  0  0  0  0
    1.9649   20.3868    2.8156 H   0  0  0  0  0  0  0  0  0  0  0  0
    2.4110   19.5023    0.9087 C   0  0  0  0  0  0  0  0  0  0  0  0
    1.6463   20.0586    0.3892 H   0  0  0  0  0  0  0  0  0  0  0  0
    3.2090   18.6102    0.2133 C   0  0  0  0  0  0  0  0  0  0  0  0
    3.0657   18.4747   -0.8476 H   0  0  0  0  0  0  0  0  0  0  0  0
    4.1933   17.8848    0.8695 C   0  0  0  0  0  0  0  0  0  0  0  0
    4.8149   17.1867    0.3283 H   0  0  0  0  0  0  0  0  0  0  0  0
    5.3657   19.4403    4.3917 C   0  0  0  0  0  0  0  0  0  0  0  0
    6.1890   18.4560    3.7231 C   0  0  0  0  0  0  0  0  0  0  0  0
    5.2464   21.4511    5.5900 C   0  0  0  0  0  0  0  0  0  0  0  0
    4.5937   22.4834    4.9110 C   0  0  0  0  0  0  0  0  0  0  0  0
    3.9225   23.4383    5.6577 C   0  0  0  0  0  0  0  0  0  0  0  0
    3.4106   24.2466    5.1593 H   0  0  0  0  0  0  0  0  0  0  0  0
    3.9240   23.3628    7.0387 C   0  0  0  0  0  0  0  0  0  0  0  0
    4.6094   22.3654    7.7086 C   0  0  0  0  0  0  0  0  0  0  0  0
    4.6258   22.3442    8.7870 H   0  0  0  0  0  0  0  0  0  0  0  0
    5.2883   21.3982    6.9871 C   0  0  0  0  0  0  0  0  0  0  0  0
    4.6776   22.5764    3.4199 C   0  0  0  0  0  0  0  0  0  0  0  0
    5.7258   22.6243    3.1203 H   0  0  0  0  0  0  0  0  0  0  0  0
    4.1766   23.4715    3.0635 H   0  0  0  0  0  0  0  0  0  0  0  0
    4.2290   21.7088    2.9347 H   0  0  0  0  0  0  0  0  0  0  0  0
    6.0808   20.3220    7.6612 C   0  0  0  0  0  0  0  0  0  0  0  0
    7.0849   20.2661    7.2163 H   0  0  0  0  0  0  0  0  0  0  0  0
    5.6067   19.3462    7.5368 H   0  0  0  0  0  0  0  0  0  0  0  0
    6.1884   20.5250    8.7226 H   0  0  0  0  0  0  0  0  0  0  0  0
    8.3340   17.7259    3.1286 C   0  0  0  0  0  0  0  0  0  0  0  0
    8.8299   18.0882    1.8722 C   0  0  0  0  0  0  0  0  0  0  0  0
    9.7043   17.2271    1.2309 C   0  0  0  0  0  0  0  0  0  0  0  0
   10.0991   17.4841    0.2604 H   0  0  0  0  0  0  0  0  0  0  0  0
   10.0767   16.0461    1.8472 C   0  0  0  0  0  0  0  0  0  0  0  0
    9.6203   15.7130    3.1096 C   0  0  0  0  0  0  0  0  0  0  0  0
    9.9540   14.8037    3.5847 H   0  0  0  0  0  0  0  0  0  0  0  0
    8.7449   16.5566    3.7742 C   0  0  0  0  0  0  0  0  0  0  0  0
    8.4291   19.3989    1.2708 C   0  0  0  0  0  0  0  0  0  0  0  0
    9.0411   19.6326    0.4048 H   0  0  0  0  0  0  0  0  0  0  0  0
    8.5566   20.2012    2.0112 H   0  0  0  0  0  0  0  0  0  0  0  0
    7.3801   19.3897    0.9671 H   0  0  0  0  0  0  0  0  0  0  0  0
    8.2886   16.2668    5.1695 C   0  0  0  0  0  0  0  0  0  0  0  0
    8.7646   15.3675    5.5489 H   0  0  0  0  0  0  0  0  0  0  0  0
    7.2067   16.1376    5.2217 H   0  0  0  0  0  0  0  0  0  0  0  0
    8.5593   17.1016    5.8181 H   0  0  0  0  0  0  0  0  0  0  0  0
  1  6  1  0  0  0  0
  1  3  1  0  0  0  0
  1  2  1  0  0  0  0
  5 54  1  0  0  0  0
  6 34  1  0  0  0  0
  7  1  1  0  0  0  0
  8 10  1  0  0  0  0
  8  9  1  0  0  0  0
 10 11  1  0  0  0  0
 12 13  1  0  0  0  0
 12 10  2  0  0  0  0
 14 12  1  0  0  0  0
 15 14  1  0  0  0  0
 16 14  2  0  0  0  0
 16 17  1  0  0  0  0
 17  8  2  0  0  0  0
 18 19  1  1  0  0  0
 18 17  1  0  0  0  0
 20 18  1  0  0  0  0
 21 20  2  0  0  0  0
 21 22  1  0  0  0  0
 22 23  1  6  0  0  0
 22 33  1  0  0  0  0
 22 16  1  0  0  0  0
 24 25  1  0  0  0  0
 24 20  1  0  0  0  0
 26 24  2  0  0  0  0
 27 26  1  0  0  0  0
 28 30  2  0  0  0  0
 28 26  1  0  0  0  0
 29 28  1  0  0  0  0
 30 21  1  0  0  0  0
 31 30  1  0  0  0  0
 32 18  1  0  0  0  0
 32  6  1  0  0  0  0
 33  7  1  0  0  0  0
 33 32  2  0  0  0  0
 34 41  1  0  0  0  0
 35 34  2  0  0  0  0
 35 36  1  0  0  0  0
 36 38  2  0  0  0  0
 37 36  1  0  0  0  0
 38 39  1  0  0  0  0
 38  4  1  0  0  0  0
 39 40  1  0  0  0  0
 41 46  1  0  0  0  0
 41 39  2  0  0  0  0
 42 35  1  0  0  0  0
 43 42  1  0  0  0  0
 44 42  1  0  0  0  0
 45 42  1  0  0  0  0
 46 49  1  0  0  0  0
 47 46  1  0  0  0  0
 48 46  1  0  0  0  0
 50 57  1  0  0  0  0
 50  7  1  0  0  0  0
 51 50  2  0  0  0  0
 52 54  2  0  0  0  0
 52 51  1  0  0  0  0
 53 52  1  0  0  0  0
 54 55  1  0  0  0  0
 55 56  1  0  0  0  0
 55 57  2  0  0  0  0
 57 62  1  0  0  0  0
 58 51  1  0  0  0  0
 58 60  1  0  0  0  0
 59 58  1  0  0  0  0
 61 58  1  0  0  0  0
 62 64  1  0  0  0  0
 62 63  1  0  0  0  0
 62 65  1  0  0  0  0
M  END
$$$$
