CSD_code = SICFAM | q = 0 | S = 0 | Stoichiometry = C11H18ClMnN2O3 | MND = 6
 OpenBabel04212202093D

 36 37  0  0  1  0  0  0  0  0999 V2000
    7.7458    3.9734   11.6135 Mn  0  0  0  0  0  0  0  0  0  0  0  0
    6.4561    5.5069   10.6045 Cl  0  0  0  0  0  0  0  0  0  0  0  0
    9.1135    4.2884    9.8438 N   0  0  2  0  0  4  0  0  0  0  0  0
    6.8683    2.6346   10.1666 N   0  0  0  0  0  4  0  0  0  0  0  0
    8.7457    2.7191   12.3641 C   0  0  0  0  0  2  0  0  0  0  0  0
    9.3541    1.9118   12.9247 O   0  0  0  0  0  1  0  0  0  0  0  0
    9.7413    5.5900    9.6382 C   0  0  0  0  0  0  0  0  0  0  0  0
    8.6789    6.1773   13.2932 O   0  0  0  0  0  1  0  0  0  0  0  0
    5.6699    3.6749   13.6490 O   0  0  0  0  0  1  0  0  0  0  0  0
    8.3875    3.7715    8.6815 C   0  0  0  0  0  0  0  0  0  0  0  0
    7.7126    2.4222    8.9798 C   0  0  0  0  0  0  0  0  0  0  0  0
    8.3744    5.2859   12.6325 C   0  0  0  0  0  2  0  0  0  0  0  0
   11.3117    4.1589   11.0981 C   0  0  0  0  0  0  0  0  0  0  0  0
   10.5779    4.3830    9.7942 C   0  0  0  0  0  0  0  0  0  0  0  0
    8.7413    1.3320    9.2769 C   0  0  0  0  0  0  0  0  0  0  0  0
    6.4837    3.7459   12.8428 C   0  0  0  0  0  2  0  0  0  0  0  0
    6.8445    2.0102    7.7848 C   0  0  0  0  0  0  0  0  0  0  0  0
   11.3568    3.8489    8.6089 C   0  0  0  0  0  0  0  0  0  0  0  0
    7.6013    4.4996    8.4476 H   0  0  0  0  0  0  0  0  0  0  0  0
    9.6511    6.3038   10.4458 H   0  0  0  0  0  0  0  0  0  0  0  0
    9.3579    1.6113   10.1286 H   0  0  0  0  0  0  0  0  0  0  0  0
    9.0312    3.6666    7.8044 H   0  0  0  0  0  0  0  0  0  0  0  0
    9.6327    6.0282    8.6521 H   0  0  0  0  0  0  0  0  0  0  0  0
    6.0799    3.2328    9.8877 H   0  0  0  0  0  0  0  0  0  0  0  0
    6.3239    1.0781    7.9979 H   0  0  0  0  0  0  0  0  0  0  0  0
    7.4551    1.8605    6.8979 H   0  0  0  0  0  0  0  0  0  0  0  0
    8.2421    0.3932    9.5091 H   0  0  0  0  0  0  0  0  0  0  0  0
    6.4764    1.7404   10.4680 H   0  0  0  0  0  0  0  0  0  0  0  0
    9.3806    1.1701    8.4124 H   0  0  0  0  0  0  0  0  0  0  0  0
   12.2457    4.7174   11.0933 H   0  0  0  0  0  0  0  0  0  0  0  0
    6.1043    2.7771    7.5625 H   0  0  0  0  0  0  0  0  0  0  0  0
   11.3190    2.7614    8.5782 H   0  0  0  0  0  0  0  0  0  0  0  0
   11.5420    3.1037   11.2303 H   0  0  0  0  0  0  0  0  0  0  0  0
   10.7135    4.4929   11.9447 H   0  0  0  0  0  0  0  0  0  0  0  0
   12.3975    4.1443    8.7222 H   0  0  0  0  0  0  0  0  0  0  0  0
   11.0083    4.2476    7.6596 H   0  0  0  0  0  0  0  0  0  0  0  0
  1  5  1  0  0  0  0
  1 12  1  0  0  0  0
  1 16  1  0  0  0  0
  2  1  1  0  0  0  0
  3 10  1  6  0  0  0
  3  1  1  0  0  0  0
  4 28  1  0  0  0  0
  4  1  1  0  0  0  0
  5  6  1  0  0  0  0
  7 14  1  0  0  0  0
  7  3  1  0  0  0  0
  7 20  1  0  0  0  0
 10 11  1  0  0  0  0
 11 15  1  0  0  0  0
 11  4  1  0  0  0  0
 12  8  1  0  0  0  0
 13 33  1  0  0  0  0
 13 34  1  0  0  0  0
 14  3  1  0  0  0  0
 14 13  1  0  0  0  0
 15 27  1  0  0  0  0
 15 21  1  0  0  0  0
 16  9  1  0  0  0  0
 17 25  1  0  0  0  0
 17 11  1  0  0  0  0
 18 35  1  0  0  0  0
 18 14  1  0  0  0  0
 19 10  1  0  0  0  0
 22 10  1  0  0  0  0
 23  7  1  0  0  0  0
 24  4  1  0  0  0  0
 26 17  1  0  0  0  0
 29 15  1  0  0  0  0
 30 13  1  0  0  0  0
 31 17  1  0  0  0  0
 32 18  1  0  0  0  0
 36 18  1  0  0  0  0
M  END
$$$$
