CSD_code = SICKIY | q = 0 | S = 0 | Stoichiometry = C20H31AsClNPd | MND = 4
 OpenBabel04212202093D

 55 56  0  0  1  0  0  0  0  0999 V2000
    6.6431    6.5768    7.7984 Pd  0  0  0  0  0  0  0  0  0  0  0  0
    8.7088    5.6637    7.2498 As  0  0  1  0  0  0  0  0  0  0  0  0
    6.5182    4.9236    9.4412 Cl  0  0  0  0  0  0  0  0  0  0  0  0
    4.7693    7.4395    8.2793 N   0  0  0  0  0  4  0  0  0  0  0  0
    6.6034    8.0077    6.4095 C   0  0  0  0  0  0  0  0  0  0  0  0
    7.2268    8.0380    5.1501 C   0  0  0  0  0  0  0  0  0  0  0  0
    7.0164    9.0767    4.2851 C   0  0  0  0  0  0  0  0  0  0  0  0
    6.1851   10.1572    4.6411 C   0  0  0  0  0  0  0  0  0  0  0  0
    5.9901   11.2492    3.7705 C   0  0  0  0  0  0  0  0  0  0  0  0
    5.1919   12.2984    4.1261 C   0  0  0  0  0  0  0  0  0  0  0  0
    4.5551   12.2983    5.3758 C   0  0  0  0  0  0  0  0  0  0  0  0
    4.7195   11.2536    6.2411 C   0  0  0  0  0  0  0  0  0  0  0  0
    5.5322   10.1470    5.9055 C   0  0  0  0  0  0  0  0  0  0  0  0
    5.7442    9.0353    6.7568 C   0  0  0  0  0  0  0  0  0  0  0  0
    5.0840    8.8790    8.1110 C   0  0  2  0  0  0  0  0  0  0  0  0
    6.0844    9.3474    9.1782 C   0  0  0  0  0  0  0  0  0  0  0  0
    3.7593    7.0151    7.3091 C   0  0  0  0  0  0  0  0  0  0  0  0
    4.2660    7.1532    9.6215 C   0  0  0  0  0  0  0  0  0  0  0  0
    9.6189    4.4691    8.4919 C   0  0  0  0  0  0  0  0  0  0  0  0
   10.2573    6.7644    6.6607 C   0  0  0  0  0  0  0  0  0  0  0  0
   11.2443    6.0374    5.7574 C   0  0  0  0  0  0  0  0  0  0  0  0
    8.3081    4.4306    5.7654 C   0  0  0  0  0  0  0  0  0  0  0  0
    6.8481    3.9967    5.9160 C   0  0  0  0  0  0  0  0  0  0  0  0
    6.4143    3.0350    4.8178 C   0  0  0  0  0  0  0  0  0  0  0  0
    7.8798    7.2188    4.8545 H   0  0  0  0  0  0  0  0  0  0  0  0
    7.4928    9.0900    3.3137 H   0  0  0  0  0  0  0  0  0  0  0  0
    6.4921   11.2397    2.8130 H   0  0  0  0  0  0  0  0  0  0  0  0
    5.0484   13.1327    3.4551 H   0  0  0  0  0  0  0  0  0  0  0  0
    3.9321   13.1368    5.6528 H   0  0  0  0  0  0  0  0  0  0  0  0
    4.2280   11.2846    7.2020 H   0  0  0  0  0  0  0  0  0  0  0  0
    4.1510    9.4579    8.1957 H   0  0  0  0  0  0  0  0  0  0  0  0
    6.9102    8.6143    9.2488 H   0  0  0  0  0  0  0  0  0  0  0  0
    6.5026   10.3063    8.8775 H   0  0  0  0  0  0  0  0  0  0  0  0
    5.6195    9.4670   10.1544 H   0  0  0  0  0  0  0  0  0  0  0  0
    2.7883    7.4823    7.5268 H   0  0  0  0  0  0  0  0  0  0  0  0
    4.0587    7.2943    6.2974 H   0  0  0  0  0  0  0  0  0  0  0  0
    3.6455    5.9293    7.3601 H   0  0  0  0  0  0  0  0  0  0  0  0
    5.0504    7.2920   10.3652 H   0  0  0  0  0  0  0  0  0  0  0  0
    3.4091    7.7980    9.8610 H   0  0  0  0  0  0  0  0  0  0  0  0
    3.9505    6.1109    9.6715 H   0  0  0  0  0  0  0  0  0  0  0  0
   10.5181    4.0508    8.0347 H   0  0  0  0  0  0  0  0  0  0  0  0
    9.8903    5.0174    9.3960 H   0  0  0  0  0  0  0  0  0  0  0  0
    8.9392    3.6670    8.7776 H   0  0  0  0  0  0  0  0  0  0  0  0
    9.8788    7.6616    6.1641 H   0  0  0  0  0  0  0  0  0  0  0  0
   10.7591    7.0904    7.5800 H   0  0  0  0  0  0  0  0  0  0  0  0
   11.6058    5.1239    6.2291 H   0  0  0  0  0  0  0  0  0  0  0  0
   10.7787    5.7708    4.8099 H   0  0  0  0  0  0  0  0  0  0  0  0
   12.1046    6.6709    5.5456 H   0  0  0  0  0  0  0  0  0  0  0  0
    8.4491    4.9235    4.7984 H   0  0  0  0  0  0  0  0  0  0  0  0
    8.9760    3.5622    5.8107 H   0  0  0  0  0  0  0  0  0  0  0  0
    6.7150    3.5208    6.8964 H   0  0  0  0  0  0  0  0  0  0  0  0
    6.2060    4.9022    5.8902 H   0  0  0  0  0  0  0  0  0  0  0  0
    6.5201    3.4980    3.8381 H   0  0  0  0  0  0  0  0  0  0  0  0
    7.0240    2.1334    4.8380 H   0  0  0  0  0  0  0  0  0  0  0  0
    5.3743    2.7464    4.9500 H   0  0  0  0  0  0  0  0  0  0  0  0
  1  4  1  0  0  0  0
  1  3  1  0  0  0  0
  2 22  1  6  0  0  0
  2 19  1  0  0  0  0
  4 18  1  0  0  0  0
  5 14  1  0  0  0  0
  5  1  1  0  0  0  0
  6  5  2  0  0  0  0
  7  8  2  0  0  0  0
  7  6  1  0  0  0  0
  8 13  1  0  0  0  0
  9 10  2  0  0  0  0
  9  8  1  0  0  0  0
 10 11  1  0  0  0  0
 11 29  1  0  0  0  0
 11 12  2  0  0  0  0
 12 30  1  0  0  0  0
 13 12  1  0  0  0  0
 13 14  2  0  0  0  0
 14 15  1  0  0  0  0
 15 31  1  1  0  0  0
 15  4  1  0  0  0  0
 15 16  1  0  0  0  0
 16 32  1  0  0  0  0
 16 34  1  0  0  0  0
 17 37  1  0  0  0  0
 17 35  1  0  0  0  0
 17  4  1  0  0  0  0
 18 40  1  0  0  0  0
 18 39  1  0  0  0  0
 18 38  1  0  0  0  0
 19 43  1  0  0  0  0
 19 42  1  0  0  0  0
 20  2  1  0  0  0  0
 20 45  1  0  0  0  0
 21 46  1  0  0  0  0
 21 20  1  0  0  0  0
 22 50  1  0  0  0  0
 22 23  1  0  0  0  0
 23 51  1  0  0  0  0
 24 54  1  0  0  0  0
 24 55  1  0  0  0  0
 24 23  1  0  0  0  0
 25  6  1  0  0  0  0
 26  7  1  0  0  0  0
 27  9  1  0  0  0  0
 28 10  1  0  0  0  0
 33 16  1  0  0  0  0
 36 17  1  0  0  0  0
 41 19  1  0  0  0  0
 44 20  1  0  0  0  0
 47 21  1  0  0  0  0
 48 21  1  0  0  0  0
 49 22  1  0  0  0  0
 52 23  1  0  0  0  0
 53 24  1  0  0  0  0
M  END
$$$$
