CSD_code = SICNEZ | q = 0 | S = 0 | Stoichiometry = C12H14Cl2N2O2Pt | MND = 4
 OpenBabel04212202093D

 33 34  0  0  0  0  0  0  0  0999 V2000
    2.4124    1.1866    7.1406 C   0  0  0  0  0  3  0  0  0  0  0  0
    2.4300    1.0464    6.0650 H   0  0  0  0  0  0  0  0  0  0  0  0
    2.8597    0.1996    7.9972 C   0  0  0  0  0  0  0  0  0  0  0  0
    3.2393   -0.7280    7.6001 H   0  0  0  0  0  0  0  0  0  0  0  0
    2.8055    0.4290    9.3643 C   0  0  0  0  0  0  0  0  0  0  0  0
    3.1448   -0.3197   10.0633 H   0  0  0  0  0  0  0  0  0  0  0  0
    2.3067    1.6380    9.8152 C   0  0  0  0  0  0  0  0  0  0  0  0
    2.2362    1.8739   10.8638 H   0  0  0  0  0  0  0  0  0  0  0  0
    1.8768    2.5811    8.8934 C   0  0  0  0  0  0  0  0  0  0  0  0
    1.3310    3.9139    9.3184 C   0  0  0  0  0  0  0  0  0  0  0  0
    2.0213    4.6906    8.9486 H   0  0  0  0  0  0  0  0  0  0  0  0
    0.3517    4.0531    8.8242 H   0  0  0  0  0  0  0  0  0  0  0  0
    1.9325    2.3505    7.5778 N   0  0  0  0  0  0  0  0  0  0  0  0
    1.2058    3.9715   10.7192 O   0  0  0  0  0  0  0  0  0  0  0  0
    3.3772    4.7820    6.4608 Cl  0  0  0  0  0  0  0  0  0  0  0  0
    1.3375    3.6900    6.2683 Pt  0  0  0  0  0  0  0  0  0  0  0  0
    0.8805    4.8435   10.9632 H   0  0  0  0  0  0  0  0  0  0  0  0
    0.2626    6.1934    5.3961 C   0  0  0  0  0  3  0  0  0  0  0  0
    0.2451    6.3337    6.4717 H   0  0  0  0  0  0  0  0  0  0  0  0
   -0.1849    7.1803    4.5395 C   0  0  0  0  0  0  0  0  0  0  0  0
   -0.5646    8.1079    4.9365 H   0  0  0  0  0  0  0  0  0  0  0  0
   -0.1310    6.9508    3.1724 C   0  0  0  0  0  0  0  0  0  0  0  0
   -0.4704    7.6994    2.4734 H   0  0  0  0  0  0  0  0  0  0  0  0
    0.3678    5.7418    2.7216 C   0  0  0  0  0  0  0  0  0  0  0  0
    0.4382    5.5058    1.6729 H   0  0  0  0  0  0  0  0  0  0  0  0
    0.7979    4.7988    3.6433 C   0  0  0  0  0  0  0  0  0  0  0  0
    1.3437    3.4660    3.2183 C   0  0  0  0  0  0  0  0  0  0  0  0
    0.6534    2.6893    3.5882 H   0  0  0  0  0  0  0  0  0  0  0  0
    2.3230    3.3268    3.7125 H   0  0  0  0  0  0  0  0  0  0  0  0
    0.7424    5.0295    4.9589 N   0  0  0  0  0  0  0  0  0  0  0  0
    1.4688    3.4083    1.8176 O   0  0  0  0  0  0  0  0  0  0  0  0
   -0.7026    2.5980    6.0757 Cl  0  0  0  0  0  0  0  0  0  0  0  0
    1.7941    2.5364    1.5735 H   0  0  0  0  0  0  0  0  0  0  0  0
  1 13  1  0  0  0  0
  1  3  1  0  0  0  0
  2  1  1  0  0  0  0
  3  5  2  0  0  0  0
  4  3  1  0  0  0  0
  5  7  1  0  0  0  0
  5  6  1  0  0  0  0
  7  8  1  0  0  0  0
  9 10  1  0  0  0  0
  9  7  2  0  0  0  0
 10 14  1  0  0  0  0
 11 10  1  0  0  0  0
 12 10  1  0  0  0  0
 13  9  1  0  0  0  0
 14 17  1  0  0  0  0
 16 15  1  0  0  0  0
 16 13  1  0  0  0  0
 18 19  1  0  0  0  0
 20 21  1  0  0  0  0
 20 18  1  0  0  0  0
 22 20  2  0  0  0  0
 23 22  1  0  0  0  0
 24 22  1  0  0  0  0
 24 26  2  0  0  0  0
 25 24  1  0  0  0  0
 26 30  1  0  0  0  0
 27 28  1  0  0  0  0
 27 26  1  0  0  0  0
 27 29  1  0  0  0  0
 30 18  1  0  0  0  0
 30 16  1  0  0  0  0
 31 27  1  0  0  0  0
 32 16  1  0  0  0  0
 33 31  1  0  0  0  0
M  END
$$$$
