CSD_code = SICWEG | q = 1 | S = 0 | Stoichiometry = C20H20Cl2CoN4(1+) | MND = 6
 OpenBabel04212202093D

 47 50  0  0  0  0  0  0  0  0999 V2000
    1.4734    0.3911    0.3786 Co  0  0  0  0  0  0  0  0  0  0  0  0
    2.9724    0.2690   -1.2575 Cl  0  0  0  0  0  0  0  0  0  0  0  0
   -0.0269    0.5138    2.0133 Cl  0  0  0  0  0  0  0  0  0  0  0  0
    2.6434    1.6092    1.3623 N   0  0  0  0  0  0  0  0  0  0  0  0
    3.9617    1.4016    1.4253 C   0  0  0  0  0  3  0  0  0  0  0  0
    4.8226    2.2334    2.1186 C   0  0  0  0  0  0  0  0  0  0  0  0
    4.3103    3.3339    2.7859 C   0  0  0  0  0  0  0  0  0  0  0  0
    2.9439    3.5518    2.7211 C   0  0  0  0  0  0  0  0  0  0  0  0
    2.1522    2.6740    2.0026 C   0  0  0  0  0  0  0  0  0  0  0  0
    0.6321    1.9151   -0.5088 N   0  0  0  0  0  0  0  0  0  0  0  0
    1.3662    2.8793   -1.0714 C   0  0  0  0  0  3  0  0  0  0  0  0
    0.8103    3.9686   -1.7179 C   0  0  0  0  0  0  0  0  0  0  0  0
   -0.5683    4.0816   -1.7914 C   0  0  0  0  0  0  0  0  0  0  0  0
   -1.3316    3.0851   -1.2057 C   0  0  0  0  0  0  0  0  0  0  0  0
   -0.6974    2.0267   -0.5802 C   0  0  0  0  0  0  0  0  0  0  0  0
    0.3022   -0.8276   -0.6024 N   0  0  0  0  0  0  0  0  0  0  0  0
    0.1360   -0.7141   -1.9233 C   0  0  0  0  0  3  0  0  0  0  0  0
   -0.6885   -1.5515   -2.6531 C   0  0  0  0  0  0  0  0  0  0  0  0
   -1.3831   -2.5560   -1.9996 C   0  0  0  0  0  0  0  0  0  0  0  0
   -1.2123   -2.6759   -0.6303 C   0  0  0  0  0  0  0  0  0  0  0  0
   -0.3658   -1.7998    0.0251 C   0  0  0  0  0  0  0  0  0  0  0  0
    2.3177   -1.1324    1.2642 N   0  0  0  0  0  0  0  0  0  0  0  0
    2.7427   -2.1896    0.5665 C   0  0  0  0  0  3  0  0  0  0  0  0
    3.3563   -3.2817    1.1534 C   0  0  0  0  0  0  0  0  0  0  0  0
    3.5430   -3.2972    2.5258 C   0  0  0  0  0  0  0  0  0  0  0  0
    3.0992   -2.2043    3.2519 C   0  0  0  0  0  0  0  0  0  0  0  0
    2.4976   -1.1503    2.5880 C   0  0  0  0  0  0  0  0  0  0  0  0
    4.3572    0.5540    0.8851 H   0  0  0  0  0  0  0  0  0  0  0  0
    5.8779    2.0138    2.1278 H   0  0  0  0  0  0  0  0  0  0  0  0
    4.9547    3.9999    3.3379 H   0  0  0  0  0  0  0  0  0  0  0  0
    2.4859    4.3897    3.2211 H   0  0  0  0  0  0  0  0  0  0  0  0
    1.0836    2.8263    1.9657 H   0  0  0  0  0  0  0  0  0  0  0  0
    2.4403    2.7740   -1.0295 H   0  0  0  0  0  0  0  0  0  0  0  0
    1.4575    4.7108   -2.1562 H   0  0  0  0  0  0  0  0  0  0  0  0
   -1.0324    4.9188   -2.2886 H   0  0  0  0  0  0  0  0  0  0  0  0
   -2.4088    3.1193   -1.2264 H   0  0  0  0  0  0  0  0  0  0  0  0
   -1.2865    1.2578   -0.1024 H   0  0  0  0  0  0  0  0  0  0  0  0
    0.6969    0.0576   -2.4297 H   0  0  0  0  0  0  0  0  0  0  0  0
   -0.7767   -1.4107   -3.7181 H   0  0  0  0  0  0  0  0  0  0  0  0
   -2.0358   -3.2237   -2.5397 H   0  0  0  0  0  0  0  0  0  0  0  0
   -1.7273   -3.4361   -0.0658 H   0  0  0  0  0  0  0  0  0  0  0  0
   -0.2446   -1.8744    1.0957 H   0  0  0  0  0  0  0  0  0  0  0  0
    2.6137   -2.1615   -0.5055 H   0  0  0  0  0  0  0  0  0  0  0  0
    3.6817   -4.1019    0.5344 H   0  0  0  0  0  0  0  0  0  0  0  0
    4.0183   -4.1338    3.0135 H   0  0  0  0  0  0  0  0  0  0  0  0
    3.2121   -2.1599    4.3230 H   0  0  0  0  0  0  0  0  0  0  0  0
    2.1295   -0.3048    3.1504 H   0  0  0  0  0  0  0  0  0  0  0  0
  1 22  1  0  0  0  0
  1  4  1  0  0  0  0
  1  3  1  0  0  0  0
  2  1  1  0  0  0  0
  4  5  1  0  0  0  0
  4  9  1  0  0  0  0
  5  6  1  0  0  0  0
  6 29  1  0  0  0  0
  6  7  2  0  0  0  0
  7 30  1  0  0  0  0
  8  7  1  0  0  0  0
  8 31  1  0  0  0  0
  9  8  2  0  0  0  0
 10  1  1  0  0  0  0
 11 33  1  0  0  0  0
 11 10  1  0  0  0  0
 12 11  1  0  0  0  0
 13 12  2  0  0  0  0
 13 14  1  0  0  0  0
 14 15  2  0  0  0  0
 15 10  1  0  0  0  0
 15 37  1  0  0  0  0
 16 21  1  0  0  0  0
 16  1  1  0  0  0  0
 17 16  1  0  0  0  0
 18 19  2  0  0  0  0
 18 17  1  0  0  0  0
 19 20  1  0  0  0  0
 20 41  1  0  0  0  0
 20 21  2  0  0  0  0
 21 42  1  0  0  0  0
 22 27  1  0  0  0  0
 23 24  1  0  0  0  0
 23 22  1  0  0  0  0
 24 25  2  0  0  0  0
 25 45  1  0  0  0  0
 25 26  1  0  0  0  0
 26 46  1  0  0  0  0
 27 47  1  0  0  0  0
 27 26  2  0  0  0  0
 28  5  1  0  0  0  0
 32  9  1  0  0  0  0
 34 12  1  0  0  0  0
 35 13  1  0  0  0  0
 36 14  1  0  0  0  0
 38 17  1  0  0  0  0
 39 18  1  0  0  0  0
 40 19  1  0  0  0  0
 43 23  1  0  0  0  0
 44 24  1  0  0  0  0
M  END
$$$$
