CSD_code = SIFKEZ | q = 0 | S = 0 | Stoichiometry = C31H28Cl2FeN2O2 | MND = 3
 OpenBabel04212202093D

 66 70  0  0  1  0  0  0  0  0999 V2000
    0.1952    6.7487    5.2108 Fe  0  0  0  0  0  0  0  0  0  0  0  0
    0.1470    8.7323    5.2555 Cl  0  0  0  0  0  0  0  0  0  0  0  0
   -0.2737    5.3988    6.8090 Cl  0  0  0  0  0  0  0  0  0  0  0  0
    2.8717    4.3981    4.5695 O   0  0  0  0  0  0  0  0  0  0  0  0
   -1.7339    4.5647    3.3041 O   0  0  0  0  0  0  0  0  0  0  0  0
    0.0457    3.1053    3.0639 N   0  0  0  0  0  0  0  0  0  0  0  0
    1.3852    3.0851    3.3765 N   0  0  0  0  0  0  0  0  0  0  0  0
    0.5125    5.0339    4.2010 C   0  0  0  0  0  0  0  0  0  0  0  0
   -0.4570    4.2827    3.5415 C   0  0  1  0  0  3  0  0  0  0  0  0
   -0.5406    2.2344    2.1328 C   0  0  0  0  0  0  0  0  0  0  0  0
    0.1932    1.7611    1.0490 C   0  0  0  0  0  0  0  0  0  0  0  0
    1.2205    2.0638    0.9134 H   0  0  0  0  0  0  0  0  0  0  0  0
   -0.4039    0.9034    0.1441 C   0  0  0  0  0  0  0  0  0  0  0  0
    0.1676    0.5348   -0.6940 H   0  0  0  0  0  0  0  0  0  0  0  0
   -1.7270    0.5266    0.3040 C   0  0  0  0  0  0  0  0  0  0  0  0
   -2.1883   -0.1406   -0.4076 H   0  0  0  0  0  0  0  0  0  0  0  0
   -2.4570    1.0102    1.3774 C   0  0  0  0  0  0  0  0  0  0  0  0
   -3.4886    0.7200    1.5053 H   0  0  0  0  0  0  0  0  0  0  0  0
   -1.8692    1.8573    2.2981 C   0  0  0  0  0  0  0  0  0  0  0  0
   -2.4274    2.2302    3.1408 H   0  0  0  0  0  0  0  0  0  0  0  0
    2.1561    1.9101    3.3826 C   0  0  0  0  0  0  0  0  0  0  0  0
    3.5174    1.9946    3.1110 C   0  0  0  0  0  0  0  0  0  0  0  0
    3.9615    2.9523    2.8932 H   0  0  0  0  0  0  0  0  0  0  0  0
    4.2903    0.8485    3.1367 C   0  0  0  0  0  0  0  0  0  0  0  0
    5.3478    0.9159    2.9314 H   0  0  0  0  0  0  0  0  0  0  0  0
    3.7132   -0.3792    3.4157 C   0  0  0  0  0  0  0  0  0  0  0  0
    4.3196   -1.2717    3.4281 H   0  0  0  0  0  0  0  0  0  0  0  0
    2.3569   -0.4583    3.6857 C   0  0  0  0  0  0  0  0  0  0  0  0
    1.9040   -1.4108    3.9144 H   0  0  0  0  0  0  0  0  0  0  0  0
    1.5744    0.6810    3.6784 C   0  0  0  0  0  0  0  0  0  0  0  0
    0.5225    0.6193    3.9108 H   0  0  0  0  0  0  0  0  0  0  0  0
    1.6386    4.2267    4.0923 C   0  0  0  0  0  0  0  0  0  0  0  0
    2.9838    5.3961    5.5568 C   0  0  0  0  0  0  0  0  0  0  0  0
    2.9700    4.9924    6.8906 C   0  0  0  0  0  0  0  0  0  0  0  0
    3.0997    5.9681    7.8685 C   0  0  0  0  0  0  0  0  0  0  0  0
    3.0773    5.6741    8.9067 H   0  0  0  0  0  0  0  0  0  0  0  0
    3.2252    7.3019    7.5258 C   0  0  0  0  0  0  0  0  0  0  0  0
    3.3072    8.0511    8.2987 H   0  0  0  0  0  0  0  0  0  0  0  0
    3.2420    7.6818    6.1965 C   0  0  0  0  0  0  0  0  0  0  0  0
    3.3463    8.7219    5.9278 H   0  0  0  0  0  0  0  0  0  0  0  0
    3.1222    6.7336    5.1833 C   0  0  0  0  0  0  0  0  0  0  0  0
    3.1792    7.1550    3.7416 C   0  0  0  0  0  0  0  0  0  0  0  0
    2.2487    7.6575    3.4672 H   0  0  0  0  0  0  0  0  0  0  0  0
    3.3256    6.2998    3.0870 H   0  0  0  0  0  0  0  0  0  0  0  0
    3.9957    7.8583    3.5923 H   0  0  0  0  0  0  0  0  0  0  0  0
    2.7523    3.5561    7.2476 C   0  0  0  0  0  0  0  0  0  0  0  0
    3.2161    2.8933    6.5193 H   0  0  0  0  0  0  0  0  0  0  0  0
    1.6778    3.3675    7.2595 H   0  0  0  0  0  0  0  0  0  0  0  0
    3.1489    3.3417    8.2360 H   0  0  0  0  0  0  0  0  0  0  0  0
   -2.1523    5.8618    3.6520 C   0  0  0  0  0  0  0  0  0  0  0  0
   -1.7773    6.9456    2.8512 C   0  0  0  0  0  0  0  0  0  0  0  0
   -2.3039    8.1948    3.1562 C   0  0  0  0  0  0  0  0  0  0  0  0
   -2.0264    9.0445    2.5513 H   0  0  0  0  0  0  0  0  0  0  0  0
   -3.1658    8.3571    4.2254 C   0  0  0  0  0  0  0  0  0  0  0  0
   -3.5549    9.3370    4.4561 H   0  0  0  0  0  0  0  0  0  0  0  0
   -3.5315    7.2694    4.9972 C   0  0  0  0  0  0  0  0  0  0  0  0
   -4.2060    7.3990    5.8301 H   0  0  0  0  0  0  0  0  0  0  0  0
   -3.0423    5.9994    4.7195 C   0  0  0  0  0  0  0  0  0  0  0  0
   -3.4231    4.8123    5.5438 C   0  0  0  0  0  0  0  0  0  0  0  0
   -4.2881    5.0346    6.1619 H   0  0  0  0  0  0  0  0  0  0  0  0
   -2.5849    4.5546    6.1944 H   0  0  0  0  0  0  0  0  0  0  0  0
   -3.6433    3.9559    4.9098 H   0  0  0  0  0  0  0  0  0  0  0  0
   -0.8556    6.7568    1.6810 C   0  0  0  0  0  0  0  0  0  0  0  0
   -1.1030    5.8450    1.1385 H   0  0  0  0  0  0  0  0  0  0  0  0
    0.1770    6.6803    2.0261 H   0  0  0  0  0  0  0  0  0  0  0  0
   -0.9293    7.6030    1.0036 H   0  0  0  0  0  0  0  0  0  0  0  0
  1  2  1  0  0  0  0
  1  3  1  0  0  0  0
  4 33  1  0  0  0  0
  5 50  1  0  0  0  0
  6  7  1  0  0  0  0
  6  9  1  0  0  0  0
  7 21  1  0  0  0  0
  7 32  1  0  0  0  0
  8  1  1  0  0  0  0
  9  5  1  6  0  0  0
  9  8  1  0  0  0  0
 10 19  1  0  0  0  0
 10  6  1  0  0  0  0
 11 10  2  0  0  0  0
 12 11  1  0  0  0  0
 13 15  2  0  0  0  0
 13 11  1  0  0  0  0
 14 13  1  0  0  0  0
 15 17  1  0  0  0  0
 16 15  1  0  0  0  0
 17 18  1  0  0  0  0
 17 19  2  0  0  0  0
 19 20  1  0  0  0  0
 21 30  1  0  0  0  0
 22 24  1  0  0  0  0
 22 21  2  0  0  0  0
 23 22  1  0  0  0  0
 24 26  2  0  0  0  0
 25 24  1  0  0  0  0
 26 27  1  0  0  0  0
 26 28  1  0  0  0  0
 28 29  1  0  0  0  0
 30 28  2  0  0  0  0
 30 31  1  0  0  0  0
 32  8  2  0  0  0  0
 32  4  1  0  0  0  0
 33 34  1  0  0  0  0
 34 46  1  0  0  0  0
 34 35  2  0  0  0  0
 35 36  1  0  0  0  0
 37 35  1  0  0  0  0
 37 38  1  0  0  0  0
 39 37  2  0  0  0  0
 40 39  1  0  0  0  0
 41 33  2  0  0  0  0
 41 39  1  0  0  0  0
 42 41  1  0  0  0  0
 43 42  1  0  0  0  0
 44 42  1  0  0  0  0
 45 42  1  0  0  0  0
 46 48  1  0  0  0  0
 46 49  1  0  0  0  0
 47 46  1  0  0  0  0
 50 58  1  0  0  0  0
 51 52  1  0  0  0  0
 51 50  2  0  0  0  0
 52 54  2  0  0  0  0
 53 52  1  0  0  0  0
 54 55  1  0  0  0  0
 54 56  1  0  0  0  0
 56 57  1  0  0  0  0
 58 56  2  0  0  0  0
 58 59  1  0  0  0  0
 59 60  1  0  0  0  0
 59 61  1  0  0  0  0
 62 59  1  0  0  0  0
 63 65  1  0  0  0  0
 63 51  1  0  0  0  0
 64 63  1  0  0  0  0
 66 63  1  0  0  0  0
M  END
$$$$
