CSD_code = SIFNOL | q = 0 | S = 0 | Stoichiometry = C19H23Cl2NOPtS | MND = 4
 OpenBabel04212202093D

 48 50  0  0  0  0  0  0  0  0999 V2000
    0.7484   23.3900    5.5830 Pt  0  0  1  0  0  0  0  0  0  0  0  0
   -0.2024   25.4054    5.8971 S   0  0  0  0  0  0  0  0  0  0  0  0
   -0.6172   22.7343    7.4089 Cl  0  0  0  0  0  0  0  0  0  0  0  0
    1.5286   21.5886    5.3440 N   0  0  0  0  0  0  0  0  0  0  0  0
    0.1196   26.5409    5.0480 O   0  0  0  0  0  1  0  0  0  0  0  0
    0.9202   20.5072    5.6375 C   0  0  0  0  0  3  0  0  0  0  0  0
   -0.0553   20.5937    6.1127 H   0  0  0  0  0  0  0  0  0  0  0  0
    1.4110   19.1464    5.3726 C   0  0  0  0  0  0  0  0  0  0  0  0
    0.7706   18.4044    4.3707 C   0  0  0  0  0  0  0  0  0  0  0  0
    1.2049   17.1184    4.1078 C   0  0  0  0  0  0  0  0  0  0  0  0
    0.7218   16.5456    3.3293 H   0  0  0  0  0  0  0  0  0  0  0  0
    2.2482   16.5441    4.8268 C   0  0  0  0  0  0  0  0  0  0  0  0
    2.8535   17.2876    5.8261 C   0  0  0  0  0  0  0  0  0  0  0  0
    3.6566   16.8529    6.4037 H   0  0  0  0  0  0  0  0  0  0  0  0
    2.4520   18.5865    6.1125 C   0  0  0  0  0  0  0  0  0  0  0  0
   -0.3472   19.0253    3.5904 C   0  0  0  0  0  0  0  0  0  0  0  0
   -1.1856   19.2536    4.2480 H   0  0  0  0  0  0  0  0  0  0  0  0
   -0.6932   18.3521    2.8106 H   0  0  0  0  0  0  0  0  0  0  0  0
   -0.0267   19.9594    3.1295 H   0  0  0  0  0  0  0  0  0  0  0  0
    2.6943   15.1492    4.5153 C   0  0  0  0  0  0  0  0  0  0  0  0
    3.4707   14.8241    5.2026 H   0  0  0  0  0  0  0  0  0  0  0  0
    3.0851   15.0973    3.4997 H   0  0  0  0  0  0  0  0  0  0  0  0
    1.8551   14.4588    4.5830 H   0  0  0  0  0  0  0  0  0  0  0  0
    3.1212   19.3419    7.2216 C   0  0  0  0  0  0  0  0  0  0  0  0
    2.5455   20.2162    7.5151 H   0  0  0  0  0  0  0  0  0  0  0  0
    4.1164   19.6640    6.9133 H   0  0  0  0  0  0  0  0  0  0  0  0
    3.2408   18.6987    8.0913 H   0  0  0  0  0  0  0  0  0  0  0  0
    2.8177   21.5510    4.6678 C   0  0  0  0  0  0  0  0  0  0  0  0
    2.9328   20.6186    4.1020 H   0  0  0  0  0  0  0  0  0  0  0  0
    3.6073   21.5875    5.4290 H   0  0  0  0  0  0  0  0  0  0  0  0
    2.9101   22.7728    3.7901 C   0  0  0  0  0  0  0  0  0  0  0  0
    3.8355   22.8810    2.7654 C   0  0  0  0  0  0  0  0  0  0  0  0
    4.5203   22.0699    2.5631 H   0  0  0  0  0  0  0  0  0  0  0  0
    3.8839   24.0311    1.9973 C   0  0  0  0  0  0  0  0  0  0  0  0
    4.5981   24.1307    1.1955 H   0  0  0  0  0  0  0  0  0  0  0  0
    2.9974   25.0578    2.2751 C   0  0  0  0  0  0  0  0  0  0  0  0
    2.0655   24.9575    3.2971 C   0  0  0  0  0  0  0  0  0  0  0  0
    1.3987   25.7839    3.4921 H   0  0  0  0  0  0  0  0  0  0  0  0
    2.0085   23.8083    4.0722 C   0  0  0  0  0  0  0  0  0  0  0  0
    0.0434   25.9650    7.6101 C   0  0  0  0  0  0  0  0  0  0  0  0
    1.1097   26.1037    7.7604 H   0  0  0  0  0  0  0  0  0  0  0  0
   -0.3387   25.2029    8.2793 H   0  0  0  0  0  0  0  0  0  0  0  0
   -0.4762   26.9079    7.7368 H   0  0  0  0  0  0  0  0  0  0  0  0
   -2.0172   25.2788    5.8977 C   0  0  0  0  0  0  0  0  0  0  0  0
   -2.3251   24.9863    4.8987 H   0  0  0  0  0  0  0  0  0  0  0  0
   -2.4236   26.2535    6.1418 H   0  0  0  0  0  0  0  0  0  0  0  0
   -2.3101   24.5269    6.6211 H   0  0  0  0  0  0  0  0  0  0  0  0
    3.0565   26.4995    1.3200 Cl  0  0  0  0  0  0  0  0  0  0  0  0
  1  2  1  0  0  0  0
  1  3  1  1  0  0  0
  2 44  1  0  0  0  0
  2 40  1  0  0  0  0
  4  1  1  0  0  0  0
  4  6  1  0  0  0  0
  5  2  1  0  0  0  0
  6  7  1  0  0  0  0
  8  6  1  0  0  0  0
  8 15  1  0  0  0  0
  9  8  2  0  0  0  0
 10  9  1  0  0  0  0
 10 12  2  0  0  0  0
 11 10  1  0  0  0  0
 12 13  1  0  0  0  0
 13 15  2  0  0  0  0
 13 14  1  0  0  0  0
 15 24  1  0  0  0  0
 16 17  1  0  0  0  0
 16  9  1  0  0  0  0
 18 16  1  0  0  0  0
 19 16  1  0  0  0  0
 20 23  1  0  0  0  0
 20 12  1  0  0  0  0
 20 21  1  0  0  0  0
 22 20  1  0  0  0  0
 24 25  1  0  0  0  0
 24 27  1  0  0  0  0
 26 24  1  0  0  0  0
 28  4  1  0  0  0  0
 28 30  1  0  0  0  0
 29 28  1  0  0  0  0
 31 39  1  0  0  0  0
 31 28  1  0  0  0  0
 32 31  2  0  0  0  0
 33 32  1  0  0  0  0
 34 36  2  0  0  0  0
 34 32  1  0  0  0  0
 35 34  1  0  0  0  0
 36 37  1  0  0  0  0
 37 38  1  0  0  0  0
 37 39  2  0  0  0  0
 39  1  1  0  0  0  0
 40 43  1  0  0  0  0
 40 41  1  0  0  0  0
 40 42  1  0  0  0  0
 44 46  1  0  0  0  0
 44 47  1  0  0  0  0
 45 44  1  0  0  0  0
 48 36  1  0  0  0  0
M  END
$$$$
