CSD_code = SIFNIF | q = 0 | S = 0 | Stoichiometry = C16H16Cl3NOPtS | MND = 4
 OpenBabel04212202093D

 39 41  0  0  0  0  0  0  0  0999 V2000
    0.0447    0.7920    0.0356 Pt  0  0  2  0  0  0  0  0  0  0  0  0
    0.4766    2.9739   -0.3062 S   0  0  0  0  0  0  0  0  0  0  0  0
   -0.1383    1.4901    2.2885 Cl  0  0  0  0  0  0  0  0  0  0  0  0
   -0.3660    1.1634   -5.7105 Cl  0  0  0  0  0  0  0  0  0  0  0  0
    5.2147    0.7060    3.6065 Cl  0  0  0  0  0  0  0  0  0  0  0  0
    0.7371    3.4614   -1.6524 O   0  0  0  0  0  1  0  0  0  0  0  0
   -0.2286   -1.1704    0.3657 N   0  0  0  0  0  0  0  0  0  0  0  0
   -0.7727    4.0847    0.4045 C   0  0  0  0  0  0  0  0  0  0  0  0
   -1.6932    3.9402   -0.1518 H   0  0  0  0  0  0  0  0  0  0  0  0
   -0.4230    5.1042    0.2902 H   0  0  0  0  0  0  0  0  0  0  0  0
   -0.9108    3.8182    1.4458 H   0  0  0  0  0  0  0  0  0  0  0  0
    1.9130    3.4647    0.6958 C   0  0  0  0  0  0  0  0  0  0  0  0
    2.7619    2.8750    0.3629 H   0  0  0  0  0  0  0  0  0  0  0  0
    1.6938    3.2563    1.7366 H   0  0  0  0  0  0  0  0  0  0  0  0
    2.1011    4.5186    0.5249 H   0  0  0  0  0  0  0  0  0  0  0  0
   -0.1721    0.1551   -1.8630 C   0  0  0  0  0  0  0  0  0  0  0  0
   -0.1234    0.8733   -3.0459 C   0  0  0  0  0  0  0  0  0  0  0  0
    0.1717    1.9127   -3.0420 H   0  0  0  0  0  0  0  0  0  0  0  0
   -0.4417    0.2546   -4.2482 C   0  0  0  0  0  0  0  0  0  0  0  0
   -0.8230   -1.0826   -4.3101 C   0  0  0  0  0  0  0  0  0  0  0  0
   -1.0688   -1.5282   -5.2610 H   0  0  0  0  0  0  0  0  0  0  0  0
   -0.8766   -1.8176   -3.1462 C   0  0  0  0  0  0  0  0  0  0  0  0
   -1.1709   -2.8567   -3.1712 H   0  0  0  0  0  0  0  0  0  0  0  0
   -0.5541   -1.2098   -1.9309 C   0  0  0  0  0  0  0  0  0  0  0  0
   -0.4947   -1.8884   -0.6708 C   0  0  0  0  0  0  0  0  0  0  0  0
   -0.6040   -2.9691   -0.5942 H   0  0  0  0  0  0  0  0  0  0  0  0
    0.0901   -1.7527    1.6424 C   0  0  0  0  0  0  0  0  0  0  0  0
    0.1341   -2.8487    1.5712 H   0  0  0  0  0  0  0  0  0  0  0  0
   -0.6872   -1.4780    2.3649 H   0  0  0  0  0  0  0  0  0  0  0  0
    1.4100   -1.1954    2.1334 C   0  0  0  0  0  0  0  0  0  0  0  0
    1.6483   -1.0582    3.4943 C   0  0  0  0  0  0  0  0  0  0  0  0
    0.9003   -1.3777    4.2039 H   0  0  0  0  0  0  0  0  0  0  0  0
    2.8193   -0.4861    3.9543 C   0  0  0  0  0  0  0  0  0  0  0  0
    2.9917   -0.3675    5.0123 H   0  0  0  0  0  0  0  0  0  0  0  0
    3.7616   -0.0394    3.0419 C   0  0  0  0  0  0  0  0  0  0  0  0
    3.5531   -0.1855    1.6808 C   0  0  0  0  0  0  0  0  0  0  0  0
    4.2995    0.1532    0.9795 H   0  0  0  0  0  0  0  0  0  0  0  0
    2.3794   -0.7660    1.2286 C   0  0  0  0  0  0  0  0  0  0  0  0
    2.2452   -0.9090    0.1604 H   0  0  0  0  0  0  0  0  0  0  0  0
  1  7  1  0  0  0  0
  1  3  1  1  0  0  0
  2  1  1  0  0  0  0
  2  8  1  0  0  0  0
  2 12  1  0  0  0  0
  4 19  1  0  0  0  0
  6  2  1  0  0  0  0
  7 27  1  0  0  0  0
  8 11  1  0  0  0  0
  9  8  1  0  0  0  0
 10  8  1  0  0  0  0
 12 14  1  0  0  0  0
 13 12  1  0  0  0  0
 15 12  1  0  0  0  0
 16  1  2  0  0  0  0
 17 18  1  0  0  0  0
 17 16  1  0  0  0  0
 19 17  2  0  0  0  0
 20 19  1  0  0  0  0
 20 22  2  0  0  0  0
 21 20  1  0  0  0  0
 22 24  1  0  0  0  0
 23 22  1  0  0  0  0
 24 16  1  0  0  0  0
 24 25  2  0  0  0  0
 25 26  1  0  0  0  0
 25  7  1  0  0  0  0
 27 30  1  0  0  0  0
 27 29  1  0  0  0  0
 28 27  1  0  0  0  0
 30 31  1  0  0  0  0
 31 33  2  0  0  0  0
 31 32  1  0  0  0  0
 33 34  1  0  0  0  0
 35  5  1  0  0  0  0
 35 33  1  0  0  0  0
 36 35  2  0  0  0  0
 37 36  1  0  0  0  0
 38 36  1  0  0  0  0
 38 30  2  0  0  0  0
 39 38  1  0  0  0  0
M  END
$$$$
