CSD_code = SIFYOX | q = 0 | S = 0 | Stoichiometry = C18H28ClNiP | MND = 7
 OpenBabel04212202093D

 49 49  0  0  1  0  0  0  0  0999 V2000
    0.4993   14.3745    5.5149 Ni  0  0  0  0  0  0  0  0  0  0  0  0
    2.2808   13.5429    4.8461 Cl  0  0  0  0  0 15  0  0  0  0  0  0
   -0.2123   12.4600    6.2532 P   0  0  0  0  0  0  0  0  0  0  0  0
    0.9391   16.2890    4.8814 C   0  0  2  0  0  0  0  0  0  0  0  0
    1.9063   16.7193    4.6636 H   0  0  0  0  0  0  0  0  0  0  0  0
    0.2787   16.3447    6.1227 C   0  0  0  0  0  3  0  0  0  0  0  0
    0.6802   16.7555    7.0378 H   0  0  0  0  0  0  0  0  0  0  0  0
   -0.9874   15.7431    5.9678 C   0  0  1  0  0  0  0  0  0  0  0  0
   -1.7648   15.7316    6.7181 H   0  0  0  0  0  0  0  0  0  0  0  0
   -1.2457   15.5909    4.5453 C   0  0  0  0  0  0  0  0  0  0  0  0
   -2.3846   15.2539    3.8233 C   0  0  0  0  0  0  0  0  0  0  0  0
   -3.3117   15.0205    4.3297 H   0  0  0  0  0  0  0  0  0  0  0  0
   -2.3094   15.2390    2.4414 C   0  0  0  0  0  0  0  0  0  0  0  0
   -3.1879   14.9911    1.8636 H   0  0  0  0  0  0  0  0  0  0  0  0
   -1.1228   15.5421    1.7795 C   0  0  0  0  0  0  0  0  0  0  0  0
   -1.1011   15.5199    0.6998 H   0  0  0  0  0  0  0  0  0  0  0  0
    0.0241   15.8810    2.4762 C   0  0  0  0  0  0  0  0  0  0  0  0
    0.9410   16.1178    1.9562 H   0  0  0  0  0  0  0  0  0  0  0  0
   -0.0325   15.9181    3.8650 C   0  0  0  0  0  0  0  0  0  0  0  0
    0.7588   10.5230    4.4077 C   0  0  0  0  0  0  0  0  0  0  0  0
    0.5191    9.9251    3.5299 H   0  0  0  0  0  0  0  0  0  0  0  0
    1.1961    9.8633    5.1526 H   0  0  0  0  0  0  0  0  0  0  0  0
    1.4940   11.2723    4.1242 H   0  0  0  0  0  0  0  0  0  0  0  0
   -0.5135   11.1875    4.9228 C   0  0  0  0  0  0  0  0  0  0  0  0
   -1.1705   10.4151    5.3351 H   0  0  0  0  0  0  0  0  0  0  0  0
   -1.2243   11.9208    3.7864 C   0  0  0  0  0  0  0  0  0  0  0  0
   -0.5828   12.7265    3.4196 H   0  0  0  0  0  0  0  0  0  0  0  0
   -2.1644   12.3570    4.1210 H   0  0  0  0  0  0  0  0  0  0  0  0
   -1.4337   11.2463    2.9584 H   0  0  0  0  0  0  0  0  0  0  0  0
    1.6499   12.7441    8.3056 C   0  0  0  0  0  0  0  0  0  0  0  0
    0.9972   12.9396    9.1518 H   0  0  0  0  0  0  0  0  0  0  0  0
    1.8034   13.6788    7.7525 H   0  0  0  0  0  0  0  0  0  0  0  0
    2.6147   12.4162    8.6866 H   0  0  0  0  0  0  0  0  0  0  0  0
    1.0694   11.6880    7.3654 C   0  0  0  0  0  0  0  0  0  0  0  0
    1.8600   11.4373    6.6477 H   0  0  0  0  0  0  0  0  0  0  0  0
    0.6493   10.4263    8.1081 C   0  0  0  0  0  0  0  0  0  0  0  0
    1.5262    9.9684    8.5637 H   0  0  0  0  0  0  0  0  0  0  0  0
    0.2024    9.7001    7.4329 H   0  0  0  0  0  0  0  0  0  0  0  0
   -0.0567   10.6508    8.9037 H   0  0  0  0  0  0  0  0  0  0  0  0
   -1.7105   13.2567    8.4655 C   0  0  0  0  0  0  0  0  0  0  0  0
   -2.6697   13.6336    8.8181 H   0  0  0  0  0  0  0  0  0  0  0  0
   -1.0235   14.0972    8.3686 H   0  0  0  0  0  0  0  0  0  0  0  0
   -1.3220   12.5764    9.2190 H   0  0  0  0  0  0  0  0  0  0  0  0
   -1.8770   12.5432    7.1251 C   0  0  0  0  0  0  0  0  0  0  0  0
   -2.4616   13.1989    6.4659 H   0  0  0  0  0  0  0  0  0  0  0  0
   -2.6595   11.2448    7.2965 C   0  0  0  0  0  0  0  0  0  0  0  0
   -2.0789   10.4841    7.8086 H   0  0  0  0  0  0  0  0  0  0  0  0
   -2.9935   10.8491    6.3410 H   0  0  0  0  0  0  0  0  0  0  0  0
   -3.5472   11.4485    7.8949 H   0  0  0  0  0  0  0  0  0  0  0  0
  1  8  1  0  0  0  0
  3 44  1  0  0  0  0
  3 34  1  0  0  0  0
  4  5  1  6  0  0  0
  4  1  1  0  0  0  0
  4  6  1  0  0  0  0
  6  7  1  0  0  0  0
  8  6  1  0  0  0  0
  8  9  1  1  0  0  0
 10  8  1  0  0  0  0
 11 12  1  0  0  0  0
 11 10  2  0  0  0  0
 13 11  1  0  0  0  0
 14 13  1  0  0  0  0
 15 13  2  0  0  0  0
 15 17  1  0  0  0  0
 16 15  1  0  0  0  0
 17 19  2  0  0  0  0
 18 17  1  0  0  0  0
 19 10  1  0  0  0  0
 19  4  1  0  0  0  0
 20 24  1  0  0  0  0
 20 22  1  0  0  0  0
 21 20  1  0  0  0  0
 23 20  1  0  0  0  0
 24 25  1  0  0  0  0
 24  3  1  0  0  0  0
 26 28  1  0  0  0  0
 26 24  1  0  0  0  0
 27 26  1  0  0  0  0
 29 26  1  0  0  0  0
 30 33  1  0  0  0  0
 30 31  1  0  0  0  0
 32 30  1  0  0  0  0
 34 36  1  0  0  0  0
 34 30  1  0  0  0  0
 35 34  1  0  0  0  0
 36 37  1  0  0  0  0
 36 39  1  0  0  0  0
 38 36  1  0  0  0  0
 40 41  1  0  0  0  0
 40 43  1  0  0  0  0
 42 40  1  0  0  0  0
 44 46  1  0  0  0  0
 44 40  1  0  0  0  0
 45 44  1  0  0  0  0
 46 47  1  0  0  0  0
 46 49  1  0  0  0  0
 48 46  1  0  0  0  0
M  END
$$$$
