CSD_code = SIFYIR | q = 0 | S = 0 | Stoichiometry = C18H34ClNiP | MND = 7
 OpenBabel04212202093D

 55 55  0  0  1  0  0  0  0  0999 V2000
   -6.1844   -2.2251    3.1713 Ni  0  0  0  0  0  0  0  0  0  0  0  0
   -8.0700   -3.0261    3.5517 Cl  0  0  0  0  0  0  0  0  0  0  0  0
   -5.4115   -4.1276    2.4754 P   0  0  0  0  0  0  0  0  0  0  0  0
   -4.6628   -0.8706    2.9724 C   0  0  2  0  0  0  0  0  0  0  0  0
   -3.6964   -0.9509    2.4937 H   0  0  0  0  0  0  0  0  0  0  0  0
   -4.8471   -0.9563    4.4091 C   0  0  0  0  0  0  0  0  0  0  0  0
   -6.1598   -0.5954    4.6661 C   0  0  0  0  0  0  0  0  0  0  0  0
   -6.7811   -0.2059    3.3899 C   0  0  1  0  0  0  0  0  0  0  0  0
   -5.8040   -0.2617    2.3815 C   0  0  1  0  0  3  0  0  0  0  0  0
   -3.7492   -1.2256    5.3917 C   0  0  0  0  0  0  0  0  0  0  0  0
   -3.3408   -0.2786    5.7520 H   0  0  0  0  0  0  0  0  0  0  0  0
   -2.9407   -1.7838    4.9233 H   0  0  0  0  0  0  0  0  0  0  0  0
   -4.1049   -1.7875    6.2534 H   0  0  0  0  0  0  0  0  0  0  0  0
   -6.8311   -0.4299    5.9907 C   0  0  0  0  0  0  0  0  0  0  0  0
   -6.2379   -0.8769    6.7853 H   0  0  0  0  0  0  0  0  0  0  0  0
   -7.8160   -0.8951    5.9865 H   0  0  0  0  0  0  0  0  0  0  0  0
   -6.9611    0.6321    6.2091 H   0  0  0  0  0  0  0  0  0  0  0  0
   -8.1262    0.4375    3.2988 C   0  0  0  0  0  0  0  0  0  0  0  0
   -8.1016    1.4053    3.8041 H   0  0  0  0  0  0  0  0  0  0  0  0
   -8.8857   -0.1760    3.7819 H   0  0  0  0  0  0  0  0  0  0  0  0
   -8.4137    0.5924    2.2613 H   0  0  0  0  0  0  0  0  0  0  0  0
   -5.8935    0.2908    0.9896 C   0  0  0  0  0  0  0  0  0  0  0  0
   -6.8209    0.0060    0.4938 H   0  0  0  0  0  0  0  0  0  0  0  0
   -5.0578   -0.0583    0.3855 H   0  0  0  0  0  0  0  0  0  0  0  0
   -5.8536    1.3816    1.0260 H   0  0  0  0  0  0  0  0  0  0  0  0
   -3.6064   -3.3074    0.5175 C   0  0  0  0  0  0  0  0  0  0  0  0
   -2.5983   -2.9506    0.3095 H   0  0  0  0  0  0  0  0  0  0  0  0
   -4.2760   -2.4490    0.5592 H   0  0  0  0  0  0  0  0  0  0  0  0
   -3.9114   -3.9468   -0.3069 H   0  0  0  0  0  0  0  0  0  0  0  0
   -3.6421   -4.0716    1.8391 C   0  0  0  0  0  0  0  0  0  0  0  0
   -3.1339   -3.4566    2.5939 H   0  0  0  0  0  0  0  0  0  0  0  0
   -2.8769   -5.3866    1.7259 C   0  0  0  0  0  0  0  0  0  0  0  0
   -3.3990   -6.1095    1.1074 H   0  0  0  0  0  0  0  0  0  0  0  0
   -2.6906   -5.8280    2.7015 H   0  0  0  0  0  0  0  0  0  0  0  0
   -1.9088   -5.1888    1.2660 H   0  0  0  0  0  0  0  0  0  0  0  0
   -6.6730   -6.0827    4.1133 C   0  0  0  0  0  0  0  0  0  0  0  0
   -6.5728   -6.7096    4.9980 H   0  0  0  0  0  0  0  0  0  0  0  0
   -7.0294   -6.7081    3.2990 H   0  0  0  0  0  0  0  0  0  0  0  0
   -7.4146   -5.3138    4.3172 H   0  0  0  0  0  0  0  0  0  0  0  0
   -5.3231   -5.4526    3.7876 C   0  0  0  0  0  0  0  0  0  0  0  0
   -4.6439   -6.2368    3.4389 H   0  0  0  0  0  0  0  0  0  0  0  0
   -4.7436   -4.7748    5.0279 C   0  0  0  0  0  0  0  0  0  0  0  0
   -5.3949   -3.9431    5.3116 H   0  0  0  0  0  0  0  0  0  0  0  0
   -3.7458   -4.3843    4.8344 H   0  0  0  0  0  0  0  0  0  0  0  0
   -4.6860   -5.4704    5.8631 H   0  0  0  0  0  0  0  0  0  0  0  0
   -6.0550   -6.0872    0.4548 C   0  0  0  0  0  0  0  0  0  0  0  0
   -6.8723   -6.5090   -0.1289 H   0  0  0  0  0  0  0  0  0  0  0  0
   -5.7197   -6.8438    1.1606 H   0  0  0  0  0  0  0  0  0  0  0  0
   -5.2433   -5.8586   -0.2315 H   0  0  0  0  0  0  0  0  0  0  0  0
   -6.5438   -4.8364    1.1733 C   0  0  0  0  0  0  0  0  0  0  0  0
   -7.4304   -5.0879    1.7681 H   0  0  0  0  0  0  0  0  0  0  0  0
   -6.9690   -3.7402    0.1969 C   0  0  0  0  0  0  0  0  0  0  0  0
   -6.2015   -3.5333   -0.5436 H   0  0  0  0  0  0  0  0  0  0  0  0
   -7.1795   -2.8202    0.7547 H   0  0  0  0  0  0  0  0  0  0  0  0
   -7.8776   -4.0346   -0.3244 H   0  0  0  0  0  0  0  0  0  0  0  0
  1  8  1  0  0  0  0
  1  2  1  0  0  0  0
  3 40  1  0  0  0  0
  4  5  1  6  0  0  0
  4  1  1  0  0  0  0
  4  6  1  0  0  0  0
  6  7  2  0  0  0  0
  6 10  1  0  0  0  0
  7 14  1  0  0  0  0
  8 18  1  6  0  0  0
  8  7  1  0  0  0  0
  9 22  1  1  0  0  0
  9  4  1  0  0  0  0
  9  8  1  0  0  0  0
 10 11  1  0  0  0  0
 10 13  1  0  0  0  0
 12 10  1  0  0  0  0
 14 17  1  0  0  0  0
 14 15  1  0  0  0  0
 16 14  1  0  0  0  0
 18 20  1  0  0  0  0
 18 19  1  0  0  0  0
 21 18  1  0  0  0  0
 22 25  1  0  0  0  0
 23 22  1  0  0  0  0
 24 22  1  0  0  0  0
 26 28  1  0  0  0  0
 26 30  1  0  0  0  0
 27 26  1  0  0  0  0
 29 26  1  0  0  0  0
 30  3  1  0  0  0  0
 30 31  1  0  0  0  0
 32 30  1  0  0  0  0
 32 34  1  0  0  0  0
 33 32  1  0  0  0  0
 35 32  1  0  0  0  0
 36 39  1  0  0  0  0
 36 37  1  0  0  0  0
 38 36  1  0  0  0  0
 40 36  1  0  0  0  0
 40 42  1  0  0  0  0
 41 40  1  0  0  0  0
 42 43  1  0  0  0  0
 42 45  1  0  0  0  0
 44 42  1  0  0  0  0
 46 48  1  0  0  0  0
 46 50  1  0  0  0  0
 47 46  1  0  0  0  0
 49 46  1  0  0  0  0
 50 51  1  0  0  0  0
 50  3  1  0  0  0  0
 52 54  1  0  0  0  0
 52 50  1  0  0  0  0
 53 52  1  0  0  0  0
 55 52  1  0  0  0  0
M  END
$$$$
