CSD_code = SIGHAS | q = 0 | S = 0 | Stoichiometry = C13H13ClN2O3PtS | MND = 5
 OpenBabel04212202093D

 34 35  0  0  1  0  0  0  0  0999 V2000
    7.9569    4.6654    8.3257 Pt  0  0  0  0  0  0  0  0  0  0  0  0
    7.1990    5.2231   10.4027 Cl  0  0  0  0  0 15  0  0  0  0  0  0
    5.4551    3.8980    8.3281 O   0  0  0  0  0  1  0  0  0  0  0  0
    4.4506    3.1725    6.2213 O   0  0  0  0  0  1  0  0  0  0  0  0
    6.1871    4.8920    6.2309 O   0  0  0  0  0  1  0  0  0  0  0  0
    5.5710    3.7618    6.8954 S   0  0  0  0  0  0  0  0  0  0  0  0
    6.9141    2.3262    6.6909 C   0  0  2  0  0  0  0  0  0  0  0  0
    6.3862    1.5736    6.1130 H   0  0  0  0  0  0  0  0  0  0  0  0
    7.8149    6.7246    7.7042 C   0  0  0  0  0  0  0  0  0  0  0  0
    6.9384    7.1383    8.1915 H   0  0  0  0  0  0  0  0  0  0  0  0
    7.8169    6.7956    6.6228 H   0  0  0  0  0  0  0  0  0  0  0  0
    8.9910    6.5603    8.4191 C   0  0  0  0  0  3  0  0  0  0  0  0
    9.0307    6.8645    9.4626 H   0  0  0  0  0  0  0  0  0  0  0  0
    9.9532    6.5356    7.9153 H   0  0  0  0  0  0  0  0  0  0  0  0
    7.8552    2.6930    8.8864 N   0  0  0  0  0  0  0  0  0  0  0  0
    8.0982    2.3091   10.1406 C   0  0  0  0  0  3  0  0  0  0  0  0
    8.6588    2.9996   10.7562 H   0  0  0  0  0  0  0  0  0  0  0  0
    7.6500    1.1051   10.6453 C   0  0  0  0  0  0  0  0  0  0  0  0
    7.8627    0.8363   11.6666 H   0  0  0  0  0  0  0  0  0  0  0  0
    6.9028    0.2745    9.8194 C   0  0  0  0  0  0  0  0  0  0  0  0
    6.5066   -0.6592   10.1884 H   0  0  0  0  0  0  0  0  0  0  0  0
    6.6787    0.6617    8.5147 C   0  0  0  0  0  0  0  0  0  0  0  0
    6.1078    0.0428    7.8409 H   0  0  0  0  0  0  0  0  0  0  0  0
    7.1805    1.8843    8.0595 C   0  0  0  0  0  0  0  0  0  0  0  0
    8.6843    3.9638    6.4772 N   0  0  0  0  0  0  0  0  0  0  0  0
    9.6083    4.5852    5.7474 C   0  0  0  0  0  3  0  0  0  0  0  0
   10.1862    5.3490    6.2457 H   0  0  0  0  0  0  0  0  0  0  0  0
    9.8507    4.2905    4.4224 C   0  0  0  0  0  0  0  0  0  0  0  0
   10.6093    4.8280    3.8776 H   0  0  0  0  0  0  0  0  0  0  0  0
    9.0831    3.3047    3.8136 C   0  0  0  0  0  0  0  0  0  0  0  0
    9.2224    3.0593    2.7720 H   0  0  0  0  0  0  0  0  0  0  0  0
    8.1423    2.6437    4.5715 C   0  0  0  0  0  0  0  0  0  0  0  0
    7.5274    1.8699    4.1403 H   0  0  0  0  0  0  0  0  0  0  0  0
    7.9636    2.9820    5.9182 C   0  0  0  0  0  0  0  0  0  0  0  0
  1 15  1  0  0  0  0
  4  6  1  0  0  0  0
  5  6  1  0  0  0  0
  6  3  1  0  0  0  0
  7  8  1  6  0  0  0
  7  6  1  0  0  0  0
  7 24  1  0  0  0  0
  9 10  1  0  0  0  0
  9  1  1  0  0  0  0
  9 12  1  0  0  0  0
 11  9  1  0  0  0  0
 12 13  1  0  0  0  0
 14 12  1  0  0  0  0
 15 16  1  0  0  0  0
 16 18  1  0  0  0  0
 16 17  1  0  0  0  0
 18 19  1  0  0  0  0
 20 21  1  0  0  0  0
 20 18  2  0  0  0  0
 22 20  1  0  0  0  0
 23 22  1  0  0  0  0
 24 22  2  0  0  0  0
 24 15  1  0  0  0  0
 25  1  1  0  0  0  0
 26 27  1  0  0  0  0
 26 25  1  0  0  0  0
 28 26  1  0  0  0  0
 29 28  1  0  0  0  0
 30 28  2  0  0  0  0
 30 32  1  0  0  0  0
 31 30  1  0  0  0  0
 32 34  2  0  0  0  0
 33 32  1  0  0  0  0
 34 25  1  0  0  0  0
 34  7  1  0  0  0  0
M  END
$$$$
