CSD_code = SIGLOM | q = 0 | S = 0 | Stoichiometry = C29H30Cl2N2Pd | MND = 4
 OpenBabel04212202093D

 64 68  0  0  0  0  0  0  0  0999 V2000
   11.1067    8.1977   10.8647 Pd  0  0  0  0  0  0  0  0  0  0  0  0
    9.2085    7.2605   11.6109 Cl  0  0  0  0  0  0  0  0  0  0  0  0
    9.9181   10.0459   10.3739 Cl  0  0  0  0  0  0  0  0  0  0  0  0
   12.3534    7.0015   11.8237 N   0  0  0  0  0  0  0  0  0  0  0  0
   12.9013    8.6853    9.9465 N   0  0  0  0  0  0  0  0  0  0  0  0
   11.8497    6.2338   12.8858 C   0  0  0  0  0  0  0  0  0  0  0  0
   11.3129    4.9719   12.6005 C   0  0  0  0  0  0  0  0  0  0  0  0
   10.7928    4.2246   13.6450 C   0  0  0  0  0  0  0  0  0  0  0  0
   10.3938    3.2415   13.4546 H   0  0  0  0  0  0  0  0  0  0  0  0
   10.7622    4.7337   14.9288 C   0  0  0  0  0  0  0  0  0  0  0  0
   10.3421    4.1467   15.7317 H   0  0  0  0  0  0  0  0  0  0  0  0
   11.2474    6.0023   15.1876 C   0  0  0  0  0  0  0  0  0  0  0  0
   11.1820    6.3945   16.1894 H   0  0  0  0  0  0  0  0  0  0  0  0
   11.8130    6.7737   14.1841 C   0  0  0  0  0  0  0  0  0  0  0  0
   13.6155    7.2675   11.6876 C   0  0  0  0  0  0  0  0  0  0  0  0
   14.6911    6.6533   12.5356 C   0  0  0  0  0  0  0  0  0  0  0  0
   14.2514    6.0121   13.2960 H   0  0  0  0  0  0  0  0  0  0  0  0
   15.2891    7.4218   13.0236 H   0  0  0  0  0  0  0  0  0  0  0  0
   15.3550    6.0539   11.9123 H   0  0  0  0  0  0  0  0  0  0  0  0
   13.9608    8.1559   10.5972 C   0  0  0  0  0  0  0  0  0  0  0  0
   15.2704    8.4247   10.1900 C   0  0  0  0  0  0  0  0  0  0  0  0
   16.1041    8.0182   10.7380 H   0  0  0  0  0  0  0  0  0  0  0  0
   15.4740    9.2126    9.0737 C   0  0  0  0  0  0  0  0  0  0  0  0
   16.4748    9.4540    8.7493 H   0  0  0  0  0  0  0  0  0  0  0  0
   14.3756    9.6453    8.3472 C   0  0  0  0  0  0  0  0  0  0  0  0
   14.4985   10.1960    7.4286 H   0  0  0  0  0  0  0  0  0  0  0  0
   13.0903    9.3456    8.7977 C   0  0  0  0  0  0  0  0  0  0  0  0
   11.9108    9.7241    8.0063 C   0  0  0  0  0  0  0  0  0  0  0  0
   11.7910   11.0138    7.5404 C   0  0  0  0  0  0  0  0  0  0  0  0
   12.5751   11.7296    7.7416 H   0  0  0  0  0  0  0  0  0  0  0  0
   10.6301   11.4356    6.8847 C   0  0  0  0  0  0  0  0  0  0  0  0
   10.5565   12.4590    6.5488 H   0  0  0  0  0  0  0  0  0  0  0  0
    9.5815   10.5740    6.7238 C   0  0  0  0  0  0  0  0  0  0  0  0
    8.6591   10.9099    6.2731 H   0  0  0  0  0  0  0  0  0  0  0  0
    9.6694    9.2371    7.1624 C   0  0  0  0  0  0  0  0  0  0  0  0
   10.8691    8.7790    7.7688 C   0  0  0  0  0  0  0  0  0  0  0  0
   10.9634    7.4067    8.1261 C   0  0  0  0  0  0  0  0  0  0  0  0
   11.9288    6.9815    8.4015 H   0  0  0  0  0  0  0  0  0  0  0  0
    9.8777    6.5760    7.9938 C   0  0  0  0  0  0  0  0  0  0  0  0
    9.9558    5.5340    8.2685 H   0  0  0  0  0  0  0  0  0  0  0  0
    8.6658    7.0612    7.4798 C   0  0  0  0  0  0  0  0  0  0  0  0
    7.8158    6.3992    7.4141 H   0  0  0  0  0  0  0  0  0  0  0  0
    8.5780    8.3508    7.0393 C   0  0  0  0  0  0  0  0  0  0  0  0
    7.6629    8.7217    6.6012 H   0  0  0  0  0  0  0  0  0  0  0  0
   11.3336    4.4535   11.1815 C   0  0  0  0  0  0  0  0  0  0  0  0
   11.4414    5.3210   10.5114 H   0  0  0  0  0  0  0  0  0  0  0  0
   10.0268    3.7558   10.8095 C   0  0  0  0  0  0  0  0  0  0  0  0
    9.8863    2.8382   11.3744 H   0  0  0  0  0  0  0  0  0  0  0  0
   10.0334    3.4978    9.7521 H   0  0  0  0  0  0  0  0  0  0  0  0
    9.1933    4.4260   11.0043 H   0  0  0  0  0  0  0  0  0  0  0  0
   12.5327    3.5230   10.9781 C   0  0  0  0  0  0  0  0  0  0  0  0
   13.4664    4.0385   11.1964 H   0  0  0  0  0  0  0  0  0  0  0  0
   12.5670    3.1679    9.9502 H   0  0  0  0  0  0  0  0  0  0  0  0
   12.4560    2.6612   11.6380 H   0  0  0  0  0  0  0  0  0  0  0  0
   12.2860    8.1876   14.4548 C   0  0  0  0  0  0  0  0  0  0  0  0
   13.1001    8.4375   13.7645 H   0  0  0  0  0  0  0  0  0  0  0  0
   11.1352    9.1691   14.1912 C   0  0  0  0  0  0  0  0  0  0  0  0
   10.8468    9.1653   13.1261 H   0  0  0  0  0  0  0  0  0  0  0  0
   11.4372   10.1802   14.4577 H   0  0  0  0  0  0  0  0  0  0  0  0
   10.2621    8.8947   14.7788 H   0  0  0  0  0  0  0  0  0  0  0  0
   12.8261    8.3728   15.8740 C   0  0  0  0  0  0  0  0  0  0  0  0
   12.0217    8.3661   16.6043 H   0  0  0  0  0  0  0  0  0  0  0  0
   13.3333    9.3325   15.9488 H   0  0  0  0  0  0  0  0  0  0  0  0
   13.5362    7.5875   16.1263 H   0  0  0  0  0  0  0  0  0  0  0  0
  1  2  1  0  0  0  0
  1  4  1  0  0  0  0
  3  1  1  0  0  0  0
  4  6  1  0  0  0  0
  5 20  1  0  0  0  0
  5  1  1  0  0  0  0
  6 14  1  0  0  0  0
  7  6  2  0  0  0  0
  7  8  1  0  0  0  0
  8 10  2  0  0  0  0
  9  8  1  0  0  0  0
 10 12  1  0  0  0  0
 10 11  1  0  0  0  0
 12 13  1  0  0  0  0
 14 55  1  0  0  0  0
 14 12  2  0  0  0  0
 15  4  1  0  0  0  0
 15 16  1  0  0  0  0
 16 18  1  0  0  0  0
 16 17  1  0  0  0  0
 19 16  1  0  0  0  0
 20 15  2  0  0  0  0
 21 20  1  0  0  0  0
 21 22  1  0  0  0  0
 23 21  2  0  0  0  0
 24 23  1  0  0  0  0
 25 27  2  0  0  0  0
 25 23  1  0  0  0  0
 26 25  1  0  0  0  0
 27  5  1  0  0  0  0
 28 27  1  0  0  0  0
 29 30  1  0  0  0  0
 29 28  2  0  0  0  0
 31 29  1  0  0  0  0
 32 31  1  0  0  0  0
 33 31  2  0  0  0  0
 33 35  1  0  0  0  0
 34 33  1  0  0  0  0
 35 36  1  0  0  0  0
 36 28  1  0  0  0  0
 36 37  2  0  0  0  0
 37 38  1  0  0  0  0
 39 37  1  0  0  0  0
 39 40  1  0  0  0  0
 41 39  2  0  0  0  0
 42 41  1  0  0  0  0
 43 35  2  0  0  0  0
 43 41  1  0  0  0  0
 44 43  1  0  0  0  0
 45  7  1  0  0  0  0
 46 45  1  0  0  0  0
 47 50  1  0  0  0  0
 47 45  1  0  0  0  0
 47 48  1  0  0  0  0
 49 47  1  0  0  0  0
 51 45  1  0  0  0  0
 51 52  1  0  0  0  0
 51 54  1  0  0  0  0
 53 51  1  0  0  0  0
 55 61  1  0  0  0  0
 56 55  1  0  0  0  0
 57 55  1  0  0  0  0
 57 59  1  0  0  0  0
 57 60  1  0  0  0  0
 58 57  1  0  0  0  0
 61 63  1  0  0  0  0
 61 64  1  0  0  0  0
 61 62  1  0  0  0  0
M  END
$$$$
