CSD_code = SIGLEC | q = 0 | S = 0 | Stoichiometry = C29H29ClN2Pd | MND = 4
 OpenBabel04212202093D

 62 67  0  0  0  0  0  0  0  0999 V2000
    7.9176   10.1631    1.8844 Pd  0  0  2  0  0  0  0  0  0  0  0  0
    7.2645   11.4070    3.5850 Cl  0  0  0  0  0  0  0  0  0  0  0  0
    9.4580   11.4195    1.0029 N   0  0  0  0  0  0  0  0  0  0  0  0
    8.4397    9.1326    0.3645 N   0  0  0  0  0  0  0  0  0  0  0  0
    9.8815   12.5970    1.6217 C   0  0  0  0  0  0  0  0  0  0  0  0
   11.0440   12.5945    2.4083 C   0  0  0  0  0  0  0  0  0  0  0  0
   11.3868   13.7681    3.0597 C   0  0  0  0  0  0  0  0  0  0  0  0
   12.2699   13.8041    3.6765 H   0  0  0  0  0  0  0  0  0  0  0  0
   10.6060   14.9038    2.9357 C   0  0  0  0  0  0  0  0  0  0  0  0
   10.9010   15.8128    3.4384 H   0  0  0  0  0  0  0  0  0  0  0  0
    9.4342   14.8716    2.2038 C   0  0  0  0  0  0  0  0  0  0  0  0
    8.8180   15.7545    2.1519 H   0  0  0  0  0  0  0  0  0  0  0  0
    9.0378   13.7137    1.5535 C   0  0  0  0  0  0  0  0  0  0  0  0
    9.9151   10.9207   -0.0879 C   0  0  0  0  0  0  0  0  0  0  0  0
   10.9862   11.5635   -0.9173 C   0  0  0  0  0  0  0  0  0  0  0  0
   10.6096   11.7800   -1.9164 H   0  0  0  0  0  0  0  0  0  0  0  0
   11.3124   12.4918   -0.4524 H   0  0  0  0  0  0  0  0  0  0  0  0
   11.8410   10.8956   -1.0187 H   0  0  0  0  0  0  0  0  0  0  0  0
    9.3074    9.6587   -0.5163 C   0  0  0  0  0  0  0  0  0  0  0  0
    9.5483    9.0316   -1.7374 C   0  0  0  0  0  0  0  0  0  0  0  0
   10.2619    9.4358   -2.4361 H   0  0  0  0  0  0  0  0  0  0  0  0
    8.8090    7.9024   -2.0503 C   0  0  0  0  0  0  0  0  0  0  0  0
    8.9270    7.4306   -3.0140 H   0  0  0  0  0  0  0  0  0  0  0  0
    7.9070    7.3842   -1.1342 C   0  0  0  0  0  0  0  0  0  0  0  0
    7.2877    6.5482   -1.4101 H   0  0  0  0  0  0  0  0  0  0  0  0
    7.7717    7.9843    0.1210 C   0  0  0  0  0  0  0  0  0  0  0  0
    6.8822    7.6099    1.2154 C   0  0  0  0  0  0  0  0  0  0  0  0
    6.6641    8.6319    2.1558 C   0  0  0  0  0  0  0  0  0  0  0  0
    5.6618    8.4718    3.1278 C   0  0  0  0  0  0  0  0  0  0  0  0
    5.4799    9.2699    3.8358 H   0  0  0  0  0  0  0  0  0  0  0  0
    4.8984    7.3358    3.1615 C   0  0  0  0  0  0  0  0  0  0  0  0
    4.0883    7.2417    3.8713 H   0  0  0  0  0  0  0  0  0  0  0  0
    5.1826    6.2422    2.3168 C   0  0  0  0  0  0  0  0  0  0  0  0
    6.2307    6.3465    1.3612 C   0  0  0  0  0  0  0  0  0  0  0  0
    6.6089    5.1736    0.6761 C   0  0  0  0  0  3  0  0  0  0  0  0
    7.4926    5.1780    0.0580 H   0  0  0  0  0  0  0  0  0  0  0  0
    5.9189    4.0019    0.8375 C   0  0  0  0  0  0  0  0  0  0  0  0
    6.2336    3.1144    0.3073 H   0  0  0  0  0  0  0  0  0  0  0  0
    4.8162    3.9349    1.6981 C   0  0  0  0  0  0  0  0  0  0  0  0
    4.2691    3.0090    1.7967 H   0  0  0  0  0  0  0  0  0  0  0  0
    4.4725    5.0304    2.4391 C   0  0  0  0  0  0  0  0  0  0  0  0
    3.6612    4.9802    3.1514 H   0  0  0  0  0  0  0  0  0  0  0  0
   11.8019   11.2967    2.5986 C   0  0  0  0  0  0  0  0  0  0  0  0
   11.8663   10.7801    1.6331 H   0  0  0  0  0  0  0  0  0  0  0  0
   11.0217   10.3979    3.5700 C   0  0  0  0  0  0  0  0  0  0  0  0
   10.8888   10.9064    4.5224 H   0  0  0  0  0  0  0  0  0  0  0  0
   11.5631    9.4691    3.7402 H   0  0  0  0  0  0  0  0  0  0  0  0
   10.0170   10.1436    3.1794 H   0  0  0  0  0  0  0  0  0  0  0  0
   13.2293   11.4934    3.1062 C   0  0  0  0  0  0  0  0  0  0  0  0
   13.7679   12.2052    2.4840 H   0  0  0  0  0  0  0  0  0  0  0  0
   13.7608   10.5442    3.0796 H   0  0  0  0  0  0  0  0  0  0  0  0
   13.2326   11.8485    4.1334 H   0  0  0  0  0  0  0  0  0  0  0  0
    7.7381   13.6192    0.7841 C   0  0  0  0  0  0  0  0  0  0  0  0
    7.4213   12.5536    0.7718 H   0  0  0  0  0  0  0  0  0  0  0  0
    6.6106   14.4037    1.4514 C   0  0  0  0  0  0  0  0  0  0  0  0
    6.5269   14.1084    2.4942 H   0  0  0  0  0  0  0  0  0  0  0  0
    5.6680   14.1828    0.9549 H   0  0  0  0  0  0  0  0  0  0  0  0
    6.7786   15.4764    1.3937 H   0  0  0  0  0  0  0  0  0  0  0  0
    7.9412   14.0807   -0.6615 C   0  0  0  0  0  0  0  0  0  0  0  0
    8.2581   15.1220   -0.6801 H   0  0  0  0  0  0  0  0  0  0  0  0
    7.0120   13.9924   -1.2204 H   0  0  0  0  0  0  0  0  0  0  0  0
    8.7013   13.4828   -1.1608 H   0  0  0  0  0  0  0  0  0  0  0  0
  1 28  2  0  0  0  0
  1  2  1  6  0  0  0
  3  5  1  0  0  0  0
  3  1  1  0  0  0  0
  4  1  1  0  0  0  0
  5  6  1  0  0  0  0
  6 43  1  0  0  0  0
  6  7  2  0  0  0  0
  7  8  1  0  0  0  0
  9  7  1  0  0  0  0
  9 10  1  0  0  0  0
 11  9  2  0  0  0  0
 12 11  1  0  0  0  0
 13  5  2  0  0  0  0
 13 11  1  0  0  0  0
 14  3  1  0  0  0  0
 15 17  1  0  0  0  0
 15 14  1  0  0  0  0
 16 15  1  0  0  0  0
 18 15  1  0  0  0  0
 19 14  2  0  0  0  0
 19  4  1  0  0  0  0
 20 19  1  0  0  0  0
 21 20  1  0  0  0  0
 22 20  2  0  0  0  0
 22 24  1  0  0  0  0
 23 22  1  0  0  0  0
 24 26  2  0  0  0  0
 25 24  1  0  0  0  0
 26  4  1  0  0  0  0
 26 27  1  0  0  0  0
 27 34  2  0  0  0  0
 27 28  1  0  0  0  0
 28 29  1  0  0  0  0
 29 31  2  0  0  0  0
 29 30  1  0  0  0  0
 31 32  1  0  0  0  0
 33 41  2  0  0  0  0
 33 31  1  0  0  0  0
 34 33  1  0  0  0  0
 35 37  1  0  0  0  0
 35 34  1  0  0  0  0
 36 35  1  0  0  0  0
 37 39  2  0  0  0  0
 38 37  1  0  0  0  0
 39 40  1  0  0  0  0
 39 41  1  0  0  0  0
 41 42  1  0  0  0  0
 43 49  1  0  0  0  0
 43 45  1  0  0  0  0
 44 43  1  0  0  0  0
 45 47  1  0  0  0  0
 45 46  1  0  0  0  0
 48 45  1  0  0  0  0
 49 52  1  0  0  0  0
 50 49  1  0  0  0  0
 51 49  1  0  0  0  0
 53 55  1  0  0  0  0
 53 13  1  0  0  0  0
 54 53  1  0  0  0  0
 55 56  1  0  0  0  0
 57 55  1  0  0  0  0
 58 55  1  0  0  0  0
 59 53  1  0  0  0  0
 60 59  1  0  0  0  0
 61 59  1  0  0  0  0
 62 59  1  0  0  0  0
M  END
$$$$
