CSD_code = SIGPEF | q = 0 | S = 0 | Stoichiometry = C19H24AuBr2N3O2 | MND = 4
 OpenBabel04212202093D

 51 53  0  0  0  0  0  0  0  0999 V2000
    5.3974    3.3406    0.2680 Au  0  0  0  0  0  0  0  0  0  0  0  0
    5.1688    3.3375   -2.1675 Br  0  0  0  0  0  0  0  0  0  0  0  0
    5.5184    3.3375    2.7139 Br  0  0  0  0  0  0  0  0  0  0  0  0
    3.4164    3.3471    0.3870 C   0  0  0  0  0  0  0  0  0  0  0  0
    1.3186    2.6764    0.3545 C   0  0  0  0  0  0  0  0  0  0  0  0
    0.4873    2.0073    0.3315 H   0  0  0  0  0  0  0  0  0  0  0  0
    2.9466    0.8205    0.2997 C   0  0  0  0  0  0  0  0  0  0  0  0
    4.3299    0.4816    0.8444 C   0  0  0  0  0  0  0  0  0  0  0  0
    5.1398    0.8750    0.2323 H   0  0  0  0  0  0  0  0  0  0  0  0
    4.4512   -0.5989    0.8417 H   0  0  0  0  0  0  0  0  0  0  0  0
    4.4453    0.8256    1.8692 H   0  0  0  0  0  0  0  0  0  0  0  0
    2.8409    0.4203   -1.1745 C   0  0  0  0  0  0  0  0  0  0  0  0
    3.5719    0.9535   -1.7771 H   0  0  0  0  0  0  0  0  0  0  0  0
    1.8504    0.6416   -1.5670 H   0  0  0  0  0  0  0  0  0  0  0  0
    3.0250   -0.6451   -1.2770 H   0  0  0  0  0  0  0  0  0  0  0  0
    1.9211    0.0475    1.1413 C   0  0  0  0  0  0  0  0  0  0  0  0
    2.2683   -0.9728    1.2751 H   0  0  0  0  0  0  0  0  0  0  0  0
    0.9474   -0.0040    0.6619 H   0  0  0  0  0  0  0  0  0  0  0  0
    1.8152    0.4994    2.1252 H   0  0  0  0  0  0  0  0  0  0  0  0
    8.1280    2.1942    0.0632 C   0  0  0  0  0  0  0  0  0  0  0  0
    9.5400    2.6485   -0.0379 C   0  0  0  0  0  0  0  0  0  0  0  0
   10.7192    1.9402   -0.1137 C   0  0  0  0  0  0  0  0  0  0  0  0
   10.7191    0.8613   -0.1064 H   0  0  0  0  0  0  0  0  0  0  0  0
   11.9012    2.6697   -0.1982 C   0  0  0  0  0  0  0  0  0  0  0  0
   12.8436    2.1455   -0.2575 H   0  0  0  0  0  0  0  0  0  0  0  0
    2.6211    2.2609    0.3841 N   0  0  0  0  0  0  0  0  0  0  0  0
    7.3653    3.3334    0.1233 N   0  0  0  0  0  0  0  0  0  0  0  0
    7.6677    1.0753    0.0859 O   0  0  0  0  0  0  0  0  0  0  0  0
    1.3209    4.0251    0.3559 C   0  0  0  0  0  0  0  0  0  0  0  0
    0.4918    4.6969    0.3343 H   0  0  0  0  0  0  0  0  0  0  0  0
    2.9581    5.8747    0.3048 C   0  0  0  0  0  0  0  0  0  0  0  0
    4.3350    6.2051    0.8707 C   0  0  0  0  0  0  0  0  0  0  0  0
    5.1515    5.8111    0.2680 H   0  0  0  0  0  0  0  0  0  0  0  0
    4.4613    7.2850    0.8752 H   0  0  0  0  0  0  0  0  0  0  0  0
    4.4342    5.8548    1.8951 H   0  0  0  0  0  0  0  0  0  0  0  0
    2.8762    6.2745   -1.1710 C   0  0  0  0  0  0  0  0  0  0  0  0
    3.6143    5.7389   -1.7626 H   0  0  0  0  0  0  0  0  0  0  0  0
    1.8910    6.0562   -1.5781 H   0  0  0  0  0  0  0  0  0  0  0  0
    3.0655    7.3392   -1.2709 H   0  0  0  0  0  0  0  0  0  0  0  0
    1.9242    6.6548    1.1292 C   0  0  0  0  0  0  0  0  0  0  0  0
    2.2752    7.6735    1.2661 H   0  0  0  0  0  0  0  0  0  0  0  0
    0.9584    6.7109    0.6346 H   0  0  0  0  0  0  0  0  0  0  0  0
    1.8008    6.2059    2.1124 H   0  0  0  0  0  0  0  0  0  0  0  0
    2.6247    4.4360    0.3864 N   0  0  0  0  0  0  0  0  0  0  0  0
    8.1127    4.4813    0.0497 C   0  0  0  0  0  0  0  0  0  0  0  0
    9.5305    4.0469   -0.0466 C   0  0  0  0  0  0  0  0  0  0  0  0
   10.6999    4.7703   -0.1316 C   0  0  0  0  0  0  0  0  0  0  0  0
   10.6852    5.8491   -0.1381 H   0  0  0  0  0  0  0  0  0  0  0  0
   11.8917    4.0559   -0.2071 C   0  0  0  0  0  0  0  0  0  0  0  0
   12.8269    4.5922   -0.2733 H   0  0  0  0  0  0  0  0  0  0  0  0
    7.6337    5.5930    0.0605 O   0  0  0  0  0  0  0  0  0  0  0  0
  1  4  2  0  0  0  0
  1  3  1  0  0  0  0
  2  1  1  0  0  0  0
  5 29  2  0  0  0  0
  5 26  1  0  0  0  0
  6  5  1  0  0  0  0
  7 26  1  0  0  0  0
  7  8  1  0  0  0  0
  7 16  1  0  0  0  0
  8 11  1  0  0  0  0
  9  8  1  0  0  0  0
 10  8  1  0  0  0  0
 12  7  1  0  0  0  0
 13 12  1  0  0  0  0
 14 12  1  0  0  0  0
 15 12  1  0  0  0  0
 16 17  1  0  0  0  0
 16 19  1  0  0  0  0
 18 16  1  0  0  0  0
 20 28  2  0  0  0  0
 20 27  1  0  0  0  0
 21 20  1  0  0  0  0
 22 23  1  0  0  0  0
 22 21  2  0  0  0  0
 24 22  1  0  0  0  0
 25 24  1  0  0  0  0
 26  4  1  0  0  0  0
 27  1  1  0  0  0  0
 29 44  1  0  0  0  0
 30 29  1  0  0  0  0
 31 44  1  0  0  0  0
 31 32  1  0  0  0  0
 31 40  1  0  0  0  0
 32 34  1  0  0  0  0
 32 35  1  0  0  0  0
 33 32  1  0  0  0  0
 36 31  1  0  0  0  0
 37 36  1  0  0  0  0
 38 36  1  0  0  0  0
 39 36  1  0  0  0  0
 40 41  1  0  0  0  0
 40 43  1  0  0  0  0
 42 40  1  0  0  0  0
 44  4  1  0  0  0  0
 45 51  2  0  0  0  0
 45 27  1  0  0  0  0
 46 21  1  0  0  0  0
 46 45  1  0  0  0  0
 47 46  2  0  0  0  0
 48 47  1  0  0  0  0
 49 24  2  0  0  0  0
 49 47  1  0  0  0  0
 50 49  1  0  0  0  0
M  END
$$$$
