CSD_code = SIGYAL | q = 0 | S = 0 | Stoichiometry = C29H25ClF4N2O3RuS | MND = 9
 OpenBabel04212202093D

 66 70  0  0  1  0  0  0  0  0999 V2000
    0.8734    3.6515    8.8097 Ru  0  0  0  0  0  0  0  0  0  0  0  0
    2.3236    4.3970   10.4680 Cl  0  0  0  0  0 15  0  0  0  0  0  0
    3.3868    4.7159    7.5688 S   0  0  0  0  0  0  0  0  0  0  0  0
    1.8869    4.3413    2.6655 F   0  0  0  0  0  0  0  0  0  0  0  0
    3.6188    6.1957    1.8237 F   0  0  0  0  0  0  0  0  0  0  0  0
    5.4442    7.2916    3.5375 F   0  0  0  0  0  0  0  0  0  0  0  0
    5.4715    6.5265    6.1226 F   0  0  0  0  0  0  0  0  0  0  0  0
    1.9147    3.5262    5.4111 O   0  0  0  0  0  0  0  0  0  0  0  0
    3.5657    3.3047    7.7473 O   0  0  0  0  0  0  0  0  0  0  0  0
    4.2360    5.6189    8.2792 O   0  0  0  0  0  0  0  0  0  0  0  0
   -0.1569    5.4361    9.3966 N   0  0  0  0  0  4  0  0  0  0  0  0
    1.8157    5.0829    7.6458 N   0  0  2  0  0  0  0  0  0  0  0  0
    0.1100    2.1346    7.1385 C   0  0  0  0  0  0  0  0  0  0  0  0
   -0.9142    2.4292    8.0504 C   0  0  0  0  0  0  0  0  0  0  0  0
   -0.7233    2.2150    9.4444 C   0  0  1  0  0  0  0  0  0  0  0  0
    0.5023    1.7283    9.9374 C   0  0  2  0  0  3  0  0  0  0  0  0
    1.5251    1.4062    8.9973 C   0  0  0  0  0  0  0  0  0  0  0  0
    1.3309    1.5998    7.6357 C   0  0  0  0  0  0  0  0  0  0  0  0
    0.7179    1.4755   11.3978 C   0  0  0  0  0  0  0  0  0  0  0  0
   -0.0978    2.2698    5.6545 C   0  0  0  0  0  0  0  0  0  0  0  0
    0.5206    3.5608    5.1143 C   0  0  0  0  0  0  0  0  0  0  0  0
    2.7252    4.4787    4.9073 C   0  0  0  0  0  0  0  0  0  0  0  0
    2.7445    4.8689    3.5645 C   0  0  0  0  0  0  0  0  0  0  0  0
    3.6466    5.8228    3.1076 C   0  0  0  0  0  0  0  0  0  0  0  0
    4.5722    6.3774    3.9781 C   0  0  0  0  0  0  0  0  0  0  0  0
    4.5689    5.9777    5.3145 C   0  0  0  0  0  0  0  0  0  0  0  0
    3.6512    5.0571    5.7790 C   0  0  0  0  0  0  0  0  0  0  0  0
    0.1150    6.5710    8.4938 C   0  0  2  0  0  0  0  0  0  0  0  0
    1.5913    6.4558    8.0590 C   0  0  2  0  0  0  0  0  0  0  0  0
   -0.1321    7.9103    9.1415 C   0  0  0  0  0  0  0  0  0  0  0  0
   -0.8842    8.8774    8.4888 C   0  0  0  0  0  0  0  0  0  0  0  0
   -1.0785   10.1214    9.0635 C   0  0  0  0  0  0  0  0  0  0  0  0
   -0.5231   10.4088   10.2980 C   0  0  0  0  0  0  0  0  0  0  0  0
    0.2334    9.4506   10.9521 C   0  0  0  0  0  0  0  0  0  0  0  0
    0.4320    8.2082   10.3776 C   0  0  0  0  0  0  0  0  0  0  0  0
    1.9503    7.3946    6.9335 C   0  0  0  0  0  0  0  0  0  0  0  0
    1.2887    7.3365    5.7128 C   0  0  0  0  0  0  0  0  0  0  0  0
    1.6719    8.1519    4.6633 C   0  0  0  0  0  0  0  0  0  0  0  0
    2.7246    9.0375    4.8217 C   0  0  0  0  0  0  0  0  0  0  0  0
    3.3873    9.1034    6.0354 C   0  0  0  0  0  0  0  0  0  0  0  0
    3.0027    8.2872    7.0852 C   0  0  0  0  0  0  0  0  0  0  0  0
   -1.1601    5.3753    9.5817 H   0  0  0  0  0  0  0  0  0  0  0  0
    0.3257    5.6140   10.2927 H   0  0  0  0  0  0  0  0  0  0  0  0
   -1.8910    2.7330    7.6870 H   0  0  0  0  0  0  0  0  0  0  0  0
   -1.5576    2.3598   10.1258 H   0  0  0  0  0  0  0  0  0  0  0  0
    2.4541    0.9764    9.3516 H   0  0  0  0  0  0  0  0  0  0  0  0
    2.1083    1.3226    6.9371 H   0  0  0  0  0  0  0  0  0  0  0  0
   -0.2132    1.5549   11.9540 H   0  0  0  0  0  0  0  0  0  0  0  0
    1.1485    0.4886   11.5574 H   0  0  0  0  0  0  0  0  0  0  0  0
    1.4176    2.2188   11.7866 H   0  0  0  0  0  0  0  0  0  0  0  0
    0.3703    1.4248    5.1455 H   0  0  0  0  0  0  0  0  0  0  0  0
   -1.1637    2.2783    5.4174 H   0  0  0  0  0  0  0  0  0  0  0  0
    0.0800    4.4243    5.6302 H   0  0  0  0  0  0  0  0  0  0  0  0
    0.3299    3.6335    4.0403 H   0  0  0  0  0  0  0  0  0  0  0  0
   -0.5233    6.4542    7.6100 H   0  0  0  0  0  0  0  0  0  0  0  0
    2.2320    6.6907    8.9242 H   0  0  0  0  0  0  0  0  0  0  0  0
   -1.3125    8.6583    7.5214 H   0  0  0  0  0  0  0  0  0  0  0  0
   -1.6632   10.8664    8.5452 H   0  0  0  0  0  0  0  0  0  0  0  0
   -0.6742   11.3788   10.7471 H   0  0  0  0  0  0  0  0  0  0  0  0
    0.6762    9.6730   11.9111 H   0  0  0  0  0  0  0  0  0  0  0  0
    1.0429    7.4770   10.8886 H   0  0  0  0  0  0  0  0  0  0  0  0
    0.4723    6.6420    5.5776 H   0  0  0  0  0  0  0  0  0  0  0  0
    1.1493    8.0954    3.7191 H   0  0  0  0  0  0  0  0  0  0  0  0
    3.0296    9.6682    4.0002 H   0  0  0  0  0  0  0  0  0  0  0  0
    4.2140    9.7853    6.1627 H   0  0  0  0  0  0  0  0  0  0  0  0
    3.5368    8.3204    8.0216 H   0  0  0  0  0  0  0  0  0  0  0  0
  1 11  1  0  0  0  0
  1 15  1  0  0  0  0
  3 12  1  0  0  0  0
  3  9  2  0  0  0  0
  3 10  2  0  0  0  0
  4 23  1  0  0  0  0
  5 24  1  0  0  0  0
  6 25  1  0  0  0  0
 11 42  1  0  0  0  0
 11 43  1  0  0  0  0
 12 29  1  0  0  0  0
 12  1  1  1  0  0  0
 13 18  1  0  0  0  0
 13 14  2  0  0  0  0
 14 15  1  0  0  0  0
 15 16  1  0  0  0  0
 15 45  1  1  0  0  0
 16 19  1  6  0  0  0
 17 46  1  0  0  0  0
 17 16  1  0  0  0  0
 18 17  2  0  0  0  0
 19 49  1  0  0  0  0
 19 50  1  0  0  0  0
 19 48  1  0  0  0  0
 20 13  1  0  0  0  0
 21  8  1  0  0  0  0
 21 53  1  0  0  0  0
 21 20  1  0  0  0  0
 22  8  1  0  0  0  0
 22 27  1  0  0  0  0
 23 22  2  0  0  0  0
 24 23  1  0  0  0  0
 24 25  2  0  0  0  0
 25 26  1  0  0  0  0
 26 27  2  0  0  0  0
 26  7  1  0  0  0  0
 27  3  1  0  0  0  0
 28 55  1  6  0  0  0
 28 30  1  0  0  0  0
 28 11  1  0  0  0  0
 29 28  1  0  0  0  0
 29 56  1  1  0  0  0
 30 35  1  0  0  0  0
 31 32  1  0  0  0  0
 31 30  2  0  0  0  0
 32 33  2  0  0  0  0
 33 59  1  0  0  0  0
 33 34  1  0  0  0  0
 34 60  1  0  0  0  0
 35 61  1  0  0  0  0
 35 34  2  0  0  0  0
 36 41  1  0  0  0  0
 36 29  1  0  0  0  0
 37 36  2  0  0  0  0
 38 39  2  0  0  0  0
 38 37  1  0  0  0  0
 39 40  1  0  0  0  0
 40 65  1  0  0  0  0
 40 41  2  0  0  0  0
 41 66  1  0  0  0  0
 44 14  1  0  0  0  0
 47 18  1  0  0  0  0
 51 20  1  0  0  0  0
 52 20  1  0  0  0  0
 54 21  1  0  0  0  0
 57 31  1  0  0  0  0
 58 32  1  0  0  0  0
 62 37  1  0  0  0  0
 63 38  1  0  0  0  0
 64 39  1  0  0  0  0
M  END
$$$$
