CSD_code = SIHLUS | q = 0 | S = 0 | Stoichiometry = C23H34ClN2OPRu | MND = 6
 OpenBabel04212202093D

 63 66  0  0  1  0  0  0  0  0999 V2000
   -0.2137    0.6140   12.2973 Ru  0  0  0  0  0  0  0  0  0  0  0  0
   -1.0433   -0.0951   13.3551 H   0  0  0  0  0  0  0  0  0  0  0  0
    0.9142    1.7164   10.4508 Cl  0  0  0  0  0  0  0  0  0  0  0  0
    0.3358    2.2950   13.7801 P   0  0  0  0  0  4  0  0  0  0  0  0
    1.1647   -0.4603   12.8483 C   0  0  0  0  0  2  0  0  0  0  0  0
    2.0189   -1.1243   13.2534 O   0  0  0  0  0  1  0  0  0  0  0  0
   -1.7586    1.9646   11.7078 N   0  0  0  0  0  0  0  0  0  0  0  0
   -0.7546   -0.5990   10.6925 N   0  0  0  0  0  0  0  0  0  0  0  0
   -0.2965    3.6658   12.7270 C   0  0  0  0  0  0  0  0  0  0  0  0
   -0.4293    4.6127   13.2560 H   0  0  0  0  0  0  0  0  0  0  0  0
    0.4771    3.7836   11.9562 H   0  0  0  0  0  0  0  0  0  0  0  0
   -1.5537    3.2547   12.0286 C   0  0  1  0  0  3  0  0  0  0  0  0
   -2.4584    4.2587   11.7043 C   0  0  0  0  0  0  0  0  0  0  0  0
   -2.2418    5.2799   11.9776 H   0  0  0  0  0  0  0  0  0  0  0  0
   -3.6210    3.9336   11.0396 C   0  0  0  0  0  0  0  0  0  0  0  0
   -4.3524    4.6860   10.7879 H   0  0  0  0  0  0  0  0  0  0  0  0
   -3.8174    2.6104   10.6915 C   0  0  0  0  0  0  0  0  0  0  0  0
   -4.7178    2.3451   10.1687 H   0  0  0  0  0  0  0  0  0  0  0  0
   -2.8678    1.6476   11.0172 C   0  0  0  0  0  0  0  0  0  0  0  0
   -3.0912    0.1998   10.5847 C   0  0  0  0  0  0  0  0  0  0  0  0
   -4.2891    0.0654    9.6306 C   0  0  0  0  0  0  0  0  0  0  0  0
   -4.2290    0.7382    8.7787 H   0  0  0  0  0  0  0  0  0  0  0  0
   -5.2132    0.2642   10.1688 H   0  0  0  0  0  0  0  0  0  0  0  0
   -4.3416   -0.9584    9.2661 H   0  0  0  0  0  0  0  0  0  0  0  0
   -3.4509   -0.6677   11.8069 C   0  0  0  0  0  0  0  0  0  0  0  0
   -3.6881   -1.6772   11.4788 H   0  0  0  0  0  0  0  0  0  0  0  0
   -4.3197   -0.2484   12.3101 H   0  0  0  0  0  0  0  0  0  0  0  0
   -2.6281   -0.7194   12.5146 H   0  0  0  0  0  0  0  0  0  0  0  0
   -1.8230   -0.3408    9.9229 C   0  0  2  0  0  3  0  0  0  0  0  0
   -1.7947   -0.6030    8.5556 C   0  0  0  0  0  0  0  0  0  0  0  0
   -2.6163   -0.3156    7.9233 H   0  0  0  0  0  0  0  0  0  0  0  0
   -0.7004   -1.2210    7.9786 C   0  0  0  0  0  0  0  0  0  0  0  0
   -0.6706   -1.4050    6.9158 H   0  0  0  0  0  0  0  0  0  0  0  0
    0.3384   -1.6068    8.8078 C   0  0  0  0  0  0  0  0  0  0  0  0
    1.2019   -2.1296    8.4297 H   0  0  0  0  0  0  0  0  0  0  0  0
    0.2703   -1.2616   10.1412 C   0  0  0  0  0  0  0  0  0  0  0  0
    1.0917   -1.5203   10.7981 H   0  0  0  0  0  0  0  0  0  0  0  0
   -0.7022    2.4456   15.3697 C   0  0  0  0  0  0  0  0  0  0  0  0
   -2.1691    2.4351   14.9289 C   0  0  0  0  0  0  0  0  0  0  0  0
   -2.8130    2.3304   15.8015 H   0  0  0  0  0  0  0  0  0  0  0  0
   -2.3569    1.5903   14.2673 H   0  0  0  0  0  0  0  0  0  0  0  0
   -2.4439    3.3577   14.4208 H   0  0  0  0  0  0  0  0  0  0  0  0
   -0.4643    3.7018   16.2042 C   0  0  0  0  0  0  0  0  0  0  0  0
   -1.1944    3.7284   17.0133 H   0  0  0  0  0  0  0  0  0  0  0  0
   -0.5950    4.6061   15.6128 H   0  0  0  0  0  0  0  0  0  0  0  0
    0.5232    3.7091   16.6559 H   0  0  0  0  0  0  0  0  0  0  0  0
   -0.4525    1.1933   16.2128 C   0  0  0  0  0  0  0  0  0  0  0  0
    0.5049    1.2305   16.7217 H   0  0  0  0  0  0  0  0  0  0  0  0
   -0.4731    0.3105   15.5738 H   0  0  0  0  0  0  0  0  0  0  0  0
   -1.2302    1.0916   16.9685 H   0  0  0  0  0  0  0  0  0  0  0  0
    2.1176    2.8498   14.1240 C   0  0  0  0  0  0  0  0  0  0  0  0
    2.2799    4.3577   14.3225 C   0  0  0  0  0  0  0  0  0  0  0  0
    3.3201    4.5638   14.5740 H   0  0  0  0  0  0  0  0  0  0  0  0
    1.6620    4.7453   15.1251 H   0  0  0  0  0  0  0  0  0  0  0  0
    2.0499    4.8997   13.4085 H   0  0  0  0  0  0  0  0  0  0  0  0
    2.6540    2.0807   15.3322 C   0  0  0  0  0  0  0  0  0  0  0  0
    2.4016    1.0243   15.2431 H   0  0  0  0  0  0  0  0  0  0  0  0
    2.2586    2.4659   16.2684 H   0  0  0  0  0  0  0  0  0  0  0  0
    3.7394    2.1681   15.3696 H   0  0  0  0  0  0  0  0  0  0  0  0
    2.9470    2.4379   12.9064 C   0  0  0  0  0  0  0  0  0  0  0  0
    2.5856    2.8986   11.9903 H   0  0  0  0  0  0  0  0  0  0  0  0
    2.9183    1.3588   12.7677 H   0  0  0  0  0  0  0  0  0  0  0  0
    3.9848    2.7372   13.0500 H   0  0  0  0  0  0  0  0  0  0  0  0
  1  5  1  0  0  0  0
  1  2  1  0  0  0  0
  1  4  1  0  0  0  0
  3  1  1  0  0  0  0
  4 51  1  0  0  0  0
  4 38  1  0  0  0  0
  5  6  1  0  0  0  0
  7 12  1  0  0  0  0
  7  1  1  0  0  0  0
  8  1  1  0  0  0  0
  9 10  1  0  0  0  0
  9  4  1  0  0  0  0
 11  9  1  0  0  0  0
 12 13  1  6  0  0  0
 12  9  1  0  0  0  0
 13 14  1  0  0  0  0
 15 13  2  0  0  0  0
 16 15  1  0  0  0  0
 17 19  2  0  0  0  0
 17 15  1  0  0  0  0
 18 17  1  0  0  0  0
 19  7  1  0  0  0  0
 20 19  1  0  0  0  0
 20 25  1  0  0  0  0
 21 23  1  0  0  0  0
 21 20  1  0  0  0  0
 22 21  1  0  0  0  0
 24 21  1  0  0  0  0
 25 27  1  0  0  0  0
 25 28  1  0  0  0  0
 26 25  1  0  0  0  0
 29 30  1  1  0  0  0
 29 20  1  0  0  0  0
 29  8  1  0  0  0  0
 31 30  1  0  0  0  0
 32 30  2  0  0  0  0
 32 34  1  0  0  0  0
 33 32  1  0  0  0  0
 34 36  2  0  0  0  0
 35 34  1  0  0  0  0
 36  8  1  0  0  0  0
 36 37  1  0  0  0  0
 38 43  1  0  0  0  0
 38 47  1  0  0  0  0
 39 38  1  0  0  0  0
 39 40  1  0  0  0  0
 41 39  1  0  0  0  0
 42 39  1  0  0  0  0
 43 46  1  0  0  0  0
 43 44  1  0  0  0  0
 45 43  1  0  0  0  0
 47 48  1  0  0  0  0
 47 50  1  0  0  0  0
 49 47  1  0  0  0  0
 51 52  1  0  0  0  0
 51 56  1  0  0  0  0
 52 53  1  0  0  0  0
 52 54  1  0  0  0  0
 55 52  1  0  0  0  0
 56 59  1  0  0  0  0
 56 58  1  0  0  0  0
 57 56  1  0  0  0  0
 60 63  1  0  0  0  0
 60 51  1  0  0  0  0
 61 60  1  0  0  0  0
 62 60  1  0  0  0  0
M  END
$$$$
