CSD_code = SIHYOY | q = 0 | S = 0 | Stoichiometry = C34H20Cl2N2Pd | MND = 4
 OpenBabel04212202093D

 59 65  0  0  0  0  0  0  0  0999 V2000
    7.2730    5.0664   19.2466 Pd  0  0  0  0  0  0  0  0  0  0  0  0
    6.2564    3.2302   18.3217 Cl  0  0  0  0  0  0  0  0  0  0  0  0
    8.2538    6.8614   20.2823 Cl  0  0  0  0  0  0  0  0  0  0  0  0
    8.9267    4.0867   19.4883 N   0  0  0  0  0  0  0  0  0  0  0  0
    5.5950    6.0188   19.0618 N   0  0  0  0  0  0  0  0  0  0  0  0
    9.3398    3.6468   20.6714 C   0  0  0  0  0  3  0  0  0  0  0  0
    8.6709    3.8199   21.5127 H   0  0  0  0  0  0  0  0  0  0  0  0
   10.5583    3.0105   20.8325 C   0  0  0  0  0  0  0  0  0  0  0  0
   10.8613    2.6643   21.8075 H   0  0  0  0  0  0  0  0  0  0  0  0
   11.3774    2.8338   19.7243 C   0  0  0  0  0  0  0  0  0  0  0  0
   12.3358    2.3472   19.8231 H   0  0  0  0  0  0  0  0  0  0  0  0
   10.9464    3.2875   18.4913 C   0  0  0  0  0  0  0  0  0  0  0  0
   11.5446    3.1697   17.6014 H   0  0  0  0  0  0  0  0  0  0  0  0
    9.7018    3.9090   18.4067 C   0  0  0  0  0  0  0  0  0  0  0  0
    9.1449    4.3721   17.1890 C   0  0  0  0  0  0  0  0  0  0  0  0
    8.6329    4.7101   16.1439 C   0  0  0  0  0  0  0  0  0  0  0  0
    8.0250    5.0834   14.9250 C   0  0  0  0  0  0  0  0  0  0  0  0
    7.0739    4.2122   14.3504 C   0  0  0  0  0  0  0  0  0  0  0  0
    6.8321    3.2991   14.8724 H   0  0  0  0  0  0  0  0  0  0  0  0
    6.4779    4.5402   13.1695 C   0  0  0  0  0  0  0  0  0  0  0  0
    5.7531    3.8771   12.7200 H   0  0  0  0  0  0  0  0  0  0  0  0
    6.7822    5.7546   12.5154 C   0  0  0  0  0  0  0  0  0  0  0  0
    7.7226    6.6461   13.0990 C   0  0  0  0  0  0  0  0  0  0  0  0
    8.3583    6.2808   14.3115 C   0  0  0  0  0  0  0  0  0  0  0  0
    6.1626    6.1140   11.3011 C   0  0  0  0  0  0  0  0  0  0  0  0
    5.4553    5.4262   10.8599 H   0  0  0  0  0  0  0  0  0  0  0  0
    6.4439    7.3065   10.6956 C   0  0  0  0  0  0  0  0  0  0  0  0
    5.9652    7.5732    9.7648 H   0  0  0  0  0  0  0  0  0  0  0  0
    7.3511    8.1995   11.2860 C   0  0  0  0  0  0  0  0  0  0  0  0
    7.5529    9.1455   10.8055 H   0  0  0  0  0  0  0  0  0  0  0  0
    7.9738    7.8804   12.4598 C   0  0  0  0  0  0  0  0  0  0  0  0
    8.6666    8.5734   12.9135 H   0  0  0  0  0  0  0  0  0  0  0  0
    4.5318    5.7622   19.8150 C   0  0  0  0  0  3  0  0  0  0  0  0
    4.6649    5.0258   20.6056 H   0  0  0  0  0  0  0  0  0  0  0  0
    3.3154    6.3880   19.6039 C   0  0  0  0  0  0  0  0  0  0  0  0
    2.4732    6.1572   20.2360 H   0  0  0  0  0  0  0  0  0  0  0  0
    3.2013    7.3053   18.5668 C   0  0  0  0  0  0  0  0  0  0  0  0
    2.2620    7.8012   18.3746 H   0  0  0  0  0  0  0  0  0  0  0  0
    4.3091    7.5773   17.7852 C   0  0  0  0  0  0  0  0  0  0  0  0
    4.2710    8.2847   16.9718 H   0  0  0  0  0  0  0  0  0  0  0  0
    5.5030    6.9159   18.0671 C   0  0  0  0  0  0  0  0  0  0  0  0
    6.7106    7.1504   17.3643 C   0  0  0  0  0  0  0  0  0  0  0  0
    7.7705    7.3858   16.8259 C   0  0  0  0  0  0  0  0  0  0  0  0
    9.0145    7.6795   16.2254 C   0  0  0  0  0  0  0  0  0  0  0  0
    9.9220    8.5024   16.9277 C   0  0  0  0  0  0  0  0  0  0  0  0
    9.6380    8.8636   17.9042 H   0  0  0  0  0  0  0  0  0  0  0  0
   11.1284    8.8102   16.3737 C   0  0  0  0  0  0  0  0  0  0  0  0
   11.8269    9.4432   16.9014 H   0  0  0  0  0  0  0  0  0  0  0  0
   11.4982    8.2998   15.1096 C   0  0  0  0  0  0  0  0  0  0  0  0
   10.5987    7.4529   14.4073 C   0  0  0  0  0  0  0  0  0  0  0  0
    9.3345    7.1649   14.9789 C   0  0  0  0  0  0  0  0  0  0  0  0
   12.7494    8.5967   14.5316 C   0  0  0  0  0  0  0  0  0  0  0  0
   13.4234    9.2490   15.0684 H   0  0  0  0  0  0  0  0  0  0  0  0
   13.1071    8.0689   13.3227 C   0  0  0  0  0  0  0  0  0  0  0  0
   14.0674    8.3025   12.8870 H   0  0  0  0  0  0  0  0  0  0  0  0
   12.2310    7.2093   12.6426 C   0  0  0  0  0  0  0  0  0  0  0  0
   12.5322    6.7860   11.6956 H   0  0  0  0  0  0  0  0  0  0  0  0
   11.0081    6.9056   13.1712 C   0  0  0  0  0  0  0  0  0  0  0  0
   10.3398    6.2388   12.6469 H   0  0  0  0  0  0  0  0  0  0  0  0
  1  4  1  0  0  0  0
  1  3  1  0  0  0  0
  2  1  1  0  0  0  0
  4  6  1  0  0  0  0
  5  1  1  0  0  0  0
  5 33  1  0  0  0  0
  6  8  1  0  0  0  0
  6  7  1  0  0  0  0
  8  9  1  0  0  0  0
 10 11  1  0  0  0  0
 10  8  2  0  0  0  0
 12 10  1  0  0  0  0
 13 12  1  0  0  0  0
 14 12  2  0  0  0  0
 14  4  1  0  0  0  0
 15 14  1  0  0  0  0
 16 15  3  0  0  0  0
 17 16  1  0  0  0  0
 18 19  1  0  0  0  0
 18 17  1  0  0  0  0
 20 18  2  0  0  0  0
 21 20  1  0  0  0  0
 22 23  1  0  0  0  0
 22 20  1  0  0  0  0
 23 24  1  0  0  0  0
 24 17  2  0  0  0  0
 24 51  1  0  0  0  0
 25 22  2  0  0  0  0
 26 25  1  0  0  0  0
 27 29  2  0  0  0  0
 27 25  1  0  0  0  0
 28 27  1  0  0  0  0
 29 31  1  0  0  0  0
 30 29  1  0  0  0  0
 31 32  1  0  0  0  0
 31 23  2  0  0  0  0
 33 34  1  0  0  0  0
 35 33  1  0  0  0  0
 35 36  1  0  0  0  0
 37 35  2  0  0  0  0
 38 37  1  0  0  0  0
 39 41  2  0  0  0  0
 39 37  1  0  0  0  0
 40 39  1  0  0  0  0
 41  5  1  0  0  0  0
 42 41  1  0  0  0  0
 43 42  3  0  0  0  0
 44 43  1  0  0  0  0
 44 45  1  0  0  0  0
 45 46  1  0  0  0  0
 47 48  1  0  0  0  0
 47 45  2  0  0  0  0
 49 47  1  0  0  0  0
 50 51  1  0  0  0  0
 50 49  2  0  0  0  0
 51 44  2  0  0  0  0
 52 53  1  0  0  0  0
 52 49  1  0  0  0  0
 54 52  2  0  0  0  0
 55 54  1  0  0  0  0
 56 58  2  0  0  0  0
 56 54  1  0  0  0  0
 57 56  1  0  0  0  0
 58 50  1  0  0  0  0
 59 58  1  0  0  0  0
M  END
$$$$
