CSD_code = SIKYUG | q = 0 | S = 0 | Stoichiometry = C12H11AuCl3N5O2 | MND = 4
 OpenBabel04212202093D

 34 36  0  0  0  0  0  0  0  0999 V2000
    1.1587    1.3598    0.5372 Au  0  0  0  0  0  0  0  0  0  0  0  0
    1.3543    0.3014    2.5202 Cl  0  0  0  0  0  0  0  0  0  0  0  0
   -0.5432    2.6740    1.2529 Cl  0  0  0  0  0  0  0  0  0  0  0  0
    3.7467    2.3401    1.4296 Cl  0  0  0  0  0  0  0  0  0  0  0  0
   -0.2471    1.3384   -5.7162 O   0  0  0  0  0  0  0  0  0  0  0  0
    2.6139   -1.5717   -3.7676 O   0  0  0  0  0  0  0  0  0  0  0  0
    0.2785    1.6945   -3.5385 N   0  0  0  0  0  0  0  0  0  0  0  0
    1.1563   -0.1383   -4.7302 N   0  0  0  0  0  0  0  0  0  0  0  0
    0.8223    2.0721   -1.3131 N   0  0  0  0  0  0  0  0  0  0  0  0
    2.5847   -0.1870   -1.4651 N   0  0  0  0  0  2  0  0  0  0  0  0
    2.6135    0.2118   -0.2750 N   0  0  0  0  0  0  0  0  0  0  0  0
   -0.5564    2.8858   -3.5585 C   0  0  0  0  0  0  0  0  0  0  0  0
    0.3618    0.9742   -4.7408 C   0  0  0  0  0  0  0  0  0  0  0  0
    1.2590   -0.9126   -5.9590 C   0  0  0  0  0  0  0  0  0  0  0  0
    1.9193   -0.5911   -3.6569 C   0  0  0  0  0  0  0  0  0  0  0  0
    1.7815    0.1916   -2.4264 C   0  0  0  0  0  0  0  0  0  0  0  0
    0.9117    1.3397   -2.3895 C   0  0  0  0  0  0  0  0  0  0  0  0
    3.6766   -0.2070    0.5321 C   0  0  0  0  0  0  0  0  0  0  0  0
    4.2771    0.6956    1.4109 C   0  0  0  0  0  0  0  0  0  0  0  0
    5.3085    0.2895    2.2370 C   0  0  0  0  0  0  0  0  0  0  0  0
    5.7531   -1.0211    2.1815 C   0  0  0  0  0  0  0  0  0  0  0  0
    5.1836   -1.9161    1.2896 C   0  0  0  0  0  0  0  0  0  0  0  0
    4.1521   -1.5140    0.4642 C   0  0  0  0  0  0  0  0  0  0  0  0
    0.2258    2.8872   -1.3457 H   0  0  0  0  0  0  0  0  0  0  0  0
    5.7561    0.9988    2.9144 H   0  0  0  0  0  0  0  0  0  0  0  0
    6.5500   -1.3390    2.8354 H   0  0  0  0  0  0  0  0  0  0  0  0
    5.5385   -2.9335    1.2403 H   0  0  0  0  0  0  0  0  0  0  0  0
    3.6897   -2.1925   -0.2355 H   0  0  0  0  0  0  0  0  0  0  0  0
   -0.9973    2.9527   -4.5518 H   0  0  0  0  0  0  0  0  0  0  0  0
   -1.3533    2.8072   -2.8176 H   0  0  0  0  0  0  0  0  0  0  0  0
    0.0432    3.7782   -3.3737 H   0  0  0  0  0  0  0  0  0  0  0  0
    0.5114   -0.5500   -6.6588 H   0  0  0  0  0  0  0  0  0  0  0  0
    2.2567   -0.7998   -6.3826 H   0  0  0  0  0  0  0  0  0  0  0  0
    1.0952   -1.9637   -5.7276 H   0  0  0  0  0  0  0  0  0  0  0  0
  1  3  1  0  0  0  0
  1  2  1  0  0  0  0
  5 13  2  0  0  0  0
  6 15  2  0  0  0  0
  7 17  1  0  0  0  0
  8 15  1  0  0  0  0
  9  1  1  0  0  0  0
 10 11  1  0  0  0  0
 11 18  1  0  0  0  0
 11  1  1  0  0  0  0
 12  7  1  0  0  0  0
 12 31  1  0  0  0  0
 12 30  1  0  0  0  0
 13  8  1  0  0  0  0
 13  7  1  0  0  0  0
 14 34  1  0  0  0  0
 14  8  1  0  0  0  0
 15 16  1  0  0  0  0
 16 17  2  0  0  0  0
 16 10  1  0  0  0  0
 17  9  1  0  0  0  0
 18 19  1  0  0  0  0
 19  4  1  0  0  0  0
 19 20  2  0  0  0  0
 20 25  1  0  0  0  0
 21 20  1  0  0  0  0
 21 26  1  0  0  0  0
 22 21  2  0  0  0  0
 23 18  2  0  0  0  0
 23 22  1  0  0  0  0
 24  9  1  0  0  0  0
 27 22  1  0  0  0  0
 28 23  1  0  0  0  0
 29 12  1  0  0  0  0
 32 14  1  0  0  0  0
 33 14  1  0  0  0  0
M  END
$$$$
