CSD_code = SILBIY | q = 0 | S = 0 | Stoichiometry = C22H24BrCuN4 | MND = 3
 OpenBabel04212202093D

 52 55  0  0  1  0  0  0  0  0999 V2000
   -3.2982    3.6012    4.6938 Cu  0  0  0  0  0  0  0  0  0  0  0  0
   -1.0361    3.7367    4.4349 Br  0  0  0  0  0  0  0  0  0  0  0  0
   -4.3624    3.2589    3.0300 N   0  0  0  0  0  0  0  0  0  0  0  0
   -5.0193    2.0838    2.9460 N   0  0  0  0  0  0  0  0  0  0  0  0
   -3.8898    3.5266    1.8161 C   0  0  2  0  0  3  0  0  0  0  0  0
   -4.2714    2.5063    0.9327 C   0  0  0  0  0  0  0  0  0  0  0  0
   -4.9852    1.5956    1.6810 C   0  0  0  0  0  0  0  0  0  0  0  0
   -3.0759    4.7332    1.5371 C   0  0  0  0  0  0  0  0  0  0  0  0
   -5.6506    0.3325    1.2733 C   0  0  0  0  0  0  0  0  0  0  0  0
   -5.6828    1.5761    4.0745 C   0  0  0  0  0  0  0  0  0  0  0  0
   -5.4803    0.2688    4.4990 C   0  0  0  0  0  0  0  0  0  0  0  0
   -6.1324   -0.1886    5.6305 C   0  0  0  0  0  0  0  0  0  0  0  0
   -6.9777    0.6490    6.3389 C   0  0  0  0  0  0  0  0  0  0  0  0
   -7.1783    1.9516    5.9119 C   0  0  0  0  0  0  0  0  0  0  0  0
   -6.5351    2.4185    4.7817 C   0  0  0  0  0  0  0  0  0  0  0  0
   -4.2801    3.7043    6.3983 N   0  0  0  0  0  0  0  0  0  0  0  0
   -5.1878    4.6590    6.6644 N   0  0  0  0  0  0  0  0  0  0  0  0
   -4.2651    2.8670    7.4245 C   0  0  2  0  0  3  0  0  0  0  0  0
   -5.1890    3.3033    8.3849 C   0  0  0  0  0  0  0  0  0  0  0  0
   -5.7629    4.4483    7.8740 C   0  0  0  0  0  0  0  0  0  0  0  0
   -3.3668    1.6871    7.4595 C   0  0  0  0  0  0  0  0  0  0  0  0
   -6.7643    5.3623    8.4803 C   0  0  0  0  0  0  0  0  0  0  0  0
   -5.3940    5.6962    5.7380 C   0  0  0  0  0  0  0  0  0  0  0  0
   -6.6781    6.0663    5.3556 C   0  0  0  0  0  0  0  0  0  0  0  0
   -6.8487    7.0536    4.4011 C   0  0  0  0  0  0  0  0  0  0  0  0
   -5.7488    7.6648    3.8224 C   0  0  0  0  0  0  0  0  0  0  0  0
   -4.4700    7.2967    4.2076 C   0  0  0  0  0  0  0  0  0  0  0  0
   -4.2871    6.3159    5.1653 C   0  0  0  0  0  0  0  0  0  0  0  0
   -4.0470    2.4463   -0.1122 H   0  0  0  0  0  0  0  0  0  0  0  0
   -3.0439    4.9303    0.4693 H   0  0  0  0  0  0  0  0  0  0  0  0
   -2.0570    4.5807    1.8969 H   0  0  0  0  0  0  0  0  0  0  0  0
   -3.4872    5.5940    2.0614 H   0  0  0  0  0  0  0  0  0  0  0  0
   -5.9150    0.3851    0.2200 H   0  0  0  0  0  0  0  0  0  0  0  0
   -6.5509    0.1599    1.8608 H   0  0  0  0  0  0  0  0  0  0  0  0
   -4.9828   -0.5187    1.4090 H   0  0  0  0  0  0  0  0  0  0  0  0
   -4.8024   -0.3738    3.9592 H   0  0  0  0  0  0  0  0  0  0  0  0
   -5.9719   -1.2028    5.9647 H   0  0  0  0  0  0  0  0  0  0  0  0
   -7.4776    0.2886    7.2250 H   0  0  0  0  0  0  0  0  0  0  0  0
   -7.8421    2.6021    6.4617 H   0  0  0  0  0  0  0  0  0  0  0  0
   -6.6817    3.4290    4.4298 H   0  0  0  0  0  0  0  0  0  0  0  0
   -5.3985    2.8464    9.3301 H   0  0  0  0  0  0  0  0  0  0  0  0
   -2.9695    1.5431    8.4616 H   0  0  0  0  0  0  0  0  0  0  0  0
   -2.5428    1.8324    6.7632 H   0  0  0  0  0  0  0  0  0  0  0  0
   -3.9108    0.7875    7.1700 H   0  0  0  0  0  0  0  0  0  0  0  0
   -6.6749    5.3296    9.5636 H   0  0  0  0  0  0  0  0  0  0  0  0
   -7.7805    5.0627    8.2204 H   0  0  0  0  0  0  0  0  0  0  0  0
   -6.6097    6.3847    8.1406 H   0  0  0  0  0  0  0  0  0  0  0  0
   -7.5359    5.5749    5.7889 H   0  0  0  0  0  0  0  0  0  0  0  0
   -7.8465    7.3385    4.1022 H   0  0  0  0  0  0  0  0  0  0  0  0
   -5.8895    8.4281    3.0722 H   0  0  0  0  0  0  0  0  0  0  0  0
   -3.6088    7.7752    3.7667 H   0  0  0  0  0  0  0  0  0  0  0  0
   -3.2928    6.0395    5.4815 H   0  0  0  0  0  0  0  0  0  0  0  0
  1 16  1  0  0  0  0
  2  1  1  0  0  0  0
  3  1  1  0  0  0  0
  4  3  1  0  0  0  0
  4 10  1  0  0  0  0
  5  8  1  1  0  0  0
  5  3  1  0  0  0  0
  6  7  2  0  0  0  0
  6  5  1  0  0  0  0
  7  4  1  0  0  0  0
  8 31  1  0  0  0  0
  8 32  1  0  0  0  0
  9 35  1  0  0  0  0
  9  7  1  0  0  0  0
  9 34  1  0  0  0  0
 10 11  2  0  0  0  0
 10 15  1  0  0  0  0
 11 12  1  0  0  0  0
 12 37  1  0  0  0  0
 12 13  2  0  0  0  0
 13 38  1  0  0  0  0
 14 13  1  0  0  0  0
 14 39  1  0  0  0  0
 15 14  2  0  0  0  0
 16 17  1  0  0  0  0
 16 18  1  0  0  0  0
 17 20  1  0  0  0  0
 18 21  1  1  0  0  0
 18 19  1  0  0  0  0
 19 41  1  0  0  0  0
 20 19  2  0  0  0  0
 20 22  1  0  0  0  0
 21 42  1  0  0  0  0
 22 45  1  0  0  0  0
 23 17  1  0  0  0  0
 24 23  1  0  0  0  0
 24 48  1  0  0  0  0
 25 24  2  0  0  0  0
 26 27  2  0  0  0  0
 26 25  1  0  0  0  0
 27 28  1  0  0  0  0
 28 52  1  0  0  0  0
 28 23  2  0  0  0  0
 29  6  1  0  0  0  0
 30  8  1  0  0  0  0
 33  9  1  0  0  0  0
 36 11  1  0  0  0  0
 40 15  1  0  0  0  0
 43 21  1  0  0  0  0
 44 21  1  0  0  0  0
 46 22  1  0  0  0  0
 47 22  1  0  0  0  0
 49 25  1  0  0  0  0
 50 26  1  0  0  0  0
 51 27  1  0  0  0  0
M  END
$$$$
