CSD_code = SIMBIB | q = 0 | S = 0 | Stoichiometry = C16H18Br2N4OPd | MND = 4
 OpenBabel04212202093D

 42 44  0  0  0  0  0  0  0  0999 V2000
    4.8628    6.9830    3.2244 Pd  0  0  0  0  0  0  0  0  0  0  0  0
    6.8411    5.8188    2.3973 Br  0  0  0  0  0  0  0  0  0  0  0  0
    2.8829    8.1219    4.0391 Br  0  0  0  0  0  0  0  0  0  0  0  0
    8.0232    6.7710    7.7383 O   0  0  0  0  0  0  0  0  0  0  0  0
    6.2982    9.5460    3.4025 N   0  0  0  0  0  0  0  0  0  0  0  0
    6.4402    8.4171    5.2595 N   0  0  0  0  0  0  0  0  0  0  0  0
    8.2145    6.1246    5.5835 N   0  0  0  0  0  0  0  0  0  0  0  0
    9.1014    5.6779    5.7487 H   0  0  0  0  0  0  0  0  0  0  0  0
    7.8147    6.0491    4.6552 H   0  0  0  0  0  0  0  0  0  0  0  0
    3.7016    5.5527    2.4277 N   0  0  0  0  0  0  0  0  0  0  0  0
    5.9531    8.3991    4.0080 C   0  0  0  0  0  0  0  0  0  0  0  0
    7.1398    9.5848    1.1003 C   0  0  0  0  0  0  0  0  0  0  0  0
    7.9986   10.1882    1.3848 H   0  0  0  0  0  0  0  0  0  0  0  0
    6.8662    9.8247    0.0768 H   0  0  0  0  0  0  0  0  0  0  0  0
    7.4225    8.5347    1.1491 H   0  0  0  0  0  0  0  0  0  0  0  0
    5.9613    9.8552    2.0314 C   0  0  0  0  0  0  0  0  0  0  0  0
    5.6485   10.9015    1.9746 H   0  0  0  0  0  0  0  0  0  0  0  0
    5.1035    9.2125    1.7513 H   0  0  0  0  0  0  0  0  0  0  0  0
    7.0339   10.3240    4.2722 C   0  0  0  0  0  0  0  0  0  0  0  0
    7.6180   11.5749    4.1494 C   0  0  0  0  0  0  0  0  0  0  0  0
    7.5491   12.1445    3.2363 H   0  0  0  0  0  0  0  0  0  0  0  0
    8.2933   12.0638    5.2519 C   0  0  0  0  0  0  0  0  0  0  0  0
    8.7611   13.0346    5.1939 H   0  0  0  0  0  0  0  0  0  0  0  0
    8.3889   11.3357    6.4370 C   0  0  0  0  0  0  0  0  0  0  0  0
    8.9306   11.7576    7.2691 H   0  0  0  0  0  0  0  0  0  0  0  0
    7.8080   10.0888    6.5721 C   0  0  0  0  0  0  0  0  0  0  0  0
    7.8877    9.5201    7.4843 H   0  0  0  0  0  0  0  0  0  0  0  0
    7.1262    9.5955    5.4717 C   0  0  0  0  0  0  0  0  0  0  0  0
    6.2454    7.3644    6.2241 C   0  0  0  0  0  0  0  0  0  0  0  0
    5.5733    6.6067    5.7727 H   0  0  0  0  0  0  0  0  0  0  0  0
    5.7807    7.7669    7.1292 H   0  0  0  0  0  0  0  0  0  0  0  0
    7.5898    6.7148    6.6106 C   0  0  0  0  0  0  0  0  0  0  0  0
    3.1956    5.7199    1.2100 C   0  0  0  0  0  3  0  0  0  0  0  0
    3.4658    6.6418    0.6940 H   0  0  0  0  0  0  0  0  0  0  0  0
    2.3688    4.7802    0.6210 C   0  0  0  0  0  0  0  0  0  0  0  0
    1.9773    4.9503   -0.3691 H   0  0  0  0  0  0  0  0  0  0  0  0
    2.0582    3.6289    1.3286 C   0  0  0  0  0  0  0  0  0  0  0  0
    1.4147    2.8766    0.8989 H   0  0  0  0  0  0  0  0  0  0  0  0
    2.5890    3.4624    2.5985 C   0  0  0  0  0  0  0  0  0  0  0  0
    2.3732    2.5829    3.1837 H   0  0  0  0  0  0  0  0  0  0  0  0
    3.4088    4.4516    3.1118 C   0  0  0  0  0  0  0  0  0  0  0  0
    3.8498    4.3638    4.1047 H   0  0  0  0  0  0  0  0  0  0  0  0
  1 11  2  0  0  0  0
  1  3  1  0  0  0  0
  2  1  1  0  0  0  0
  5 11  1  0  0  0  0
  5 19  1  0  0  0  0
  6 28  1  0  0  0  0
  6 29  1  0  0  0  0
  7  8  1  0  0  0  0
  7 32  1  0  0  0  0
  9  7  1  0  0  0  0
 10 41  1  0  0  0  0
 10  1  1  0  0  0  0
 11  6  1  0  0  0  0
 12 15  1  0  0  0  0
 12 13  1  0  0  0  0
 12 16  1  0  0  0  0
 14 12  1  0  0  0  0
 16  5  1  0  0  0  0
 17 16  1  0  0  0  0
 18 16  1  0  0  0  0
 19 28  1  0  0  0  0
 20 19  2  0  0  0  0
 20 22  1  0  0  0  0
 21 20  1  0  0  0  0
 22 24  2  0  0  0  0
 23 22  1  0  0  0  0
 24 26  1  0  0  0  0
 24 25  1  0  0  0  0
 26 27  1  0  0  0  0
 28 26  2  0  0  0  0
 29 32  1  0  0  0  0
 29 31  1  0  0  0  0
 30 29  1  0  0  0  0
 32  4  2  0  0  0  0
 33 10  1  0  0  0  0
 34 33  1  0  0  0  0
 35 33  1  0  0  0  0
 35 37  2  0  0  0  0
 36 35  1  0  0  0  0
 37 39  1  0  0  0  0
 38 37  1  0  0  0  0
 39 41  2  0  0  0  0
 39 40  1  0  0  0  0
 41 42  1  0  0  0  0
M  END
$$$$
