CSD_code = SIMDOJ | q = 0 | S = 0 | Stoichiometry = C21H14Br2F5NOPtS | MND = 6
 OpenBabel04212202093D

 46 50  0  0  0  0  0  0  0  0999 V2000
    1.8286    4.7024    4.0133 Pt  0  0  0  0  0  0  0  0  0  0  0  0
    0.8143    2.4404    4.0935 Br  0  0  0  0  0  0  0  0  0  0  0  0
    3.0566    6.8954    4.0343 Br  0  0  0  0  0  0  0  0  0  0  0  0
    3.7193    3.8009    3.8261 N   0  0  0  0  0  0  0  0  0  0  0  0
    4.5742    3.4691    4.7690 C   0  0  0  0  0  0  0  0  0  0  0  0
    4.2305    3.5617    5.7907 H   0  0  0  0  0  0  0  0  0  0  0  0
    5.8599    3.0157    4.4738 C   0  0  0  0  0  0  0  0  0  0  0  0
    6.5287    2.7601    5.2800 H   0  0  0  0  0  0  0  0  0  0  0  0
    6.2528    2.8988    3.1594 C   0  0  0  0  0  0  0  0  0  0  0  0
    7.2428    2.5501    2.9051 H   0  0  0  0  0  0  0  0  0  0  0  0
    5.6199    3.1160    0.7464 C   0  0  0  0  0  3  0  0  0  0  0  0
    6.6023    2.7833    0.4461 H   0  0  0  0  0  0  0  0  0  0  0  0
    4.6681    3.3984   -0.1778 C   0  0  0  0  0  0  0  0  0  0  0  0
    4.8822    3.2887   -1.2308 H   0  0  0  0  0  0  0  0  0  0  0  0
    2.3257    4.0616   -0.7222 C   0  0  0  0  0  0  0  0  0  0  0  0
    2.5162    3.9381   -1.7777 H   0  0  0  0  0  0  0  0  0  0  0  0
    1.0744    4.4096   -0.2767 C   0  0  0  0  0  0  0  0  0  0  0  0
    0.2696    4.5503   -0.9822 H   0  0  0  0  0  0  0  0  0  0  0  0
    0.8048    4.5907    1.0872 C   0  0  0  0  0  0  0  0  0  0  0  0
   -0.2014    4.8376    1.3886 H   0  0  0  0  0  0  0  0  0  0  0  0
    1.8176    4.4428    1.9963 C   0  0  0  0  0  0  0  0  0  0  0  0
    3.0818    4.0131    1.5656 C   0  0  0  0  0  0  0  0  0  0  0  0
    4.0747    3.6888    2.5337 C   0  0  0  0  0  0  0  0  0  0  0  0
    5.3478    3.2281    2.1402 C   0  0  0  0  0  0  0  0  0  0  0  0
    3.3614    3.8308    0.1940 C   0  0  0  0  0  0  0  0  0  0  0  0
    0.0431    5.7012    4.2059 C   0  0  0  0  0  0  0  0  0  0  0  0
   -0.7983    5.4616    5.2895 C   0  0  0  0  0  0  0  0  0  0  0  0
   -1.9610    6.1854    5.5349 C   0  0  0  0  0  0  0  0  0  0  0  0
   -2.3368    7.2010    4.6675 C   0  0  0  0  0  0  0  0  0  0  0  0
   -1.5243    7.4794    3.5760 C   0  0  0  0  0  0  0  0  0  0  0  0
   -0.3598    6.7453    3.3726 C   0  0  0  0  0  0  0  0  0  0  0  0
   -0.4913    4.5023    6.1808 F   0  0  0  0  0  0  0  0  0  0  0  0
   -2.7038    5.9106    6.6159 F   0  0  0  0  0  0  0  0  0  0  0  0
   -3.4515    7.9053    4.8849 F   0  0  0  0  0  0  0  0  0  0  0  0
   -1.8578    8.4576    2.7267 F   0  0  0  0  0  0  0  0  0  0  0  0
    0.3903    7.0888    2.3131 F   0  0  0  0  0  0  0  0  0  0  0  0
    2.2529    4.7829    6.2942 O   0  0  0  0  0  0  0  0  0  0  0  0
    2.0241    6.0590    7.0333 S   0  0  0  0  0  3  0  0  0  0  0  0
    3.6838    6.5183    7.6563 C   0  0  0  0  0  0  0  0  0  0  0  0
    4.1599    5.6490    8.0964 H   0  0  0  0  0  0  0  0  0  0  0  0
    3.5678    7.3090    8.3875 H   0  0  0  0  0  0  0  0  0  0  0  0
    4.2640    6.8805    6.8135 H   0  0  0  0  0  0  0  0  0  0  0  0
    1.3672    5.4938    8.6455 C   0  0  0  0  0  0  0  0  0  0  0  0
    0.3917    5.0538    8.4675 H   0  0  0  0  0  0  0  0  0  0  0  0
    1.2755    6.3515    9.3018 H   0  0  0  0  0  0  0  0  0  0  0  0
    2.0288    4.7462    9.0681 H   0  0  0  0  0  0  0  0  0  0  0  0
  1  3  1  0  0  0  0
  1  2  1  0  0  0  0
  1 26  1  0  0  0  0
  1 37  1  0  0  0  0
  4  1  1  0  0  0  0
  4  5  1  0  0  0  0
  5  6  1  0  0  0  0
  7  5  2  0  0  0  0
  7  8  1  0  0  0  0
  9  7  1  0  0  0  0
 10  9  1  0  0  0  0
 11 24  1  0  0  0  0
 12 11  1  0  0  0  0
 13 25  2  0  0  0  0
 13 11  1  0  0  0  0
 14 13  1  0  0  0  0
 15 17  2  0  0  0  0
 15 25  1  0  0  0  0
 16 15  1  0  0  0  0
 17 19  1  0  0  0  0
 18 17  1  0  0  0  0
 19 20  1  0  0  0  0
 19 21  2  0  0  0  0
 21  1  1  0  0  0  0
 22 21  1  0  0  0  0
 22 23  2  0  0  0  0
 23  4  1  0  0  0  0
 24 23  1  0  0  0  0
 24  9  2  0  0  0  0
 25 22  1  0  0  0  0
 26 27  1  0  0  0  0
 27 28  2  0  0  0  0
 27 32  1  0  0  0  0
 28 33  1  0  0  0  0
 29 34  1  0  0  0  0
 29 28  1  0  0  0  0
 30 29  2  0  0  0  0
 31 30  1  0  0  0  0
 31 26  2  0  0  0  0
 35 30  1  0  0  0  0
 36 31  1  0  0  0  0
 37 38  1  0  0  0  0
 38 39  1  0  0  0  0
 38 43  1  0  0  0  0
 39 40  1  0  0  0  0
 39 41  1  0  0  0  0
 42 39  1  0  0  0  0
 43 46  1  0  0  0  0
 43 45  1  0  0  0  0
 44 43  1  0  0  0  0
M  END
$$$$
