CSD_code = SIMLAD | q = 1 | S = 0 | Stoichiometry = C19H26ClIrN3(1+) | MND = 8
 OpenBabel04212202093D

 50 53  0  0  1  0  0  0  0  0999 V2000
    4.4474    2.6451    3.3734 Ir  0  0  0  0  0  0  0  0  0  0  0  0
    5.8668    3.1489    3.4179 H   0  0  0  0  0  0  0  0  0  0  0  0
    5.0463    1.1284    5.0205 Cl  0  0  0  0  0  0  0  0  0  0  0  0
    4.9988    4.4274    5.8047 N   0  0  0  0  0  0  0  0  0  0  0  0
    2.9943    4.7342    5.0783 N   0  0  0  0  0  0  0  0  0  0  0  0
    2.4076    1.6395    3.8279 N   0  0  0  0  0  4  0  0  0  0  0  0
    1.8737    1.3847    3.0003 H   0  0  0  0  0  0  0  0  0  0  0  0
    2.7409    0.7693    4.2453 H   0  0  0  0  0  0  0  0  0  0  0  0
    4.1315    4.0300    4.8515 C   0  0  2  0  0  3  0  0  0  0  0  0
    4.4166    5.3600    6.6131 C   0  0  0  0  0  0  0  0  0  0  0  0
    4.9286    5.8058    7.4405 H   0  0  0  0  0  0  0  0  0  0  0  0
    3.1595    5.5609    6.1588 C   0  0  0  0  0  0  0  0  0  0  0  0
    2.3743    6.1946    6.5149 H   0  0  0  0  0  0  0  0  0  0  0  0
    6.3643    4.0088    5.9952 C   0  0  0  0  0  0  0  0  0  0  0  0
    6.4348    2.9240    5.9595 H   0  0  0  0  0  0  0  0  0  0  0  0
    6.7067    4.3592    6.9656 H   0  0  0  0  0  0  0  0  0  0  0  0
    7.0022    4.4286    5.2177 H   0  0  0  0  0  0  0  0  0  0  0  0
    1.7705    4.7322    4.3613 C   0  0  0  0  0  0  0  0  0  0  0  0
    1.3150    5.9404    3.8427 C   0  0  0  0  0  0  0  0  0  0  0  0
    1.9177    6.8284    3.9595 H   0  0  0  0  0  0  0  0  0  0  0  0
    0.1083    5.9943    3.1699 C   0  0  0  0  0  0  0  0  0  0  0  0
   -0.2385    6.9311    2.7644 H   0  0  0  0  0  0  0  0  0  0  0  0
   -0.6517    4.8451    3.0244 C   0  0  0  0  0  0  0  0  0  0  0  0
   -1.5951    4.8822    2.5035 H   0  0  0  0  0  0  0  0  0  0  0  0
   -0.2048    3.6494    3.5577 C   0  0  0  0  0  0  0  0  0  0  0  0
   -0.8106    2.7604    3.4607 H   0  0  0  0  0  0  0  0  0  0  0  0
    1.0035    3.5749    4.2400 C   0  0  0  0  0  0  0  0  0  0  0  0
    1.4920    2.2679    4.7933 C   0  0  0  0  0  0  0  0  0  0  0  0
    2.0411    2.4227    5.7256 H   0  0  0  0  0  0  0  0  0  0  0  0
    0.6336    1.6183    5.0052 H   0  0  0  0  0  0  0  0  0  0  0  0
    4.6620    4.0624    1.5258 C   0  0  0  0  0  3  0  0  0  0  0  0
    4.9496    5.0318    1.9223 H   0  0  0  0  0  0  0  0  0  0  0  0
    3.3430    3.6884    1.6641 C   0  0  1  0  0  0  0  0  0  0  0  0
    2.6666    4.4007    2.1232 H   0  0  0  0  0  0  0  0  0  0  0  0
    2.6393    2.6908    0.7830 C   0  0  0  0  0  0  0  0  0  0  0  0
    2.4461    3.1794   -0.1786 H   0  0  0  0  0  0  0  0  0  0  0  0
    1.6574    2.4834    1.2148 H   0  0  0  0  0  0  0  0  0  0  0  0
    3.3952    1.3702    0.5331 C   0  0  0  0  0  0  0  0  0  0  0  0
    2.6612    0.5808    0.3592 H   0  0  0  0  0  0  0  0  0  0  0  0
    3.9905    1.4518   -0.3772 H   0  0  0  0  0  0  0  0  0  0  0  0
    4.3118    0.9390    1.6506 C   0  0  0  0  0  0  0  0  0  0  0  0
    3.9903    0.0714    2.2170 H   0  0  0  0  0  0  0  0  0  0  0  0
    5.6180    1.2979    1.7431 C   0  0  0  0  0  0  0  0  0  0  0  0
    6.2705    0.6999    2.3707 H   0  0  0  0  0  0  0  0  0  0  0  0
    6.3419    2.2392    0.8198 C   0  0  0  0  0  0  0  0  0  0  0  0
    6.5957    1.6907   -0.0927 H   0  0  0  0  0  0  0  0  0  0  0  0
    7.2825    2.5201    1.2940 H   0  0  0  0  0  0  0  0  0  0  0  0
    5.5716    3.5201    0.4472 C   0  0  0  0  0  0  0  0  0  0  0  0
    6.3038    4.2877    0.1955 H   0  0  0  0  0  0  0  0  0  0  0  0
    4.9673    3.3485   -0.4447 H   0  0  0  0  0  0  0  0  0  0  0  0
  1  2  1  0  0  0  0
  1  6  1  0  0  0  0
  1  9  1  0  0  0  0
  1  3  1  0  0  0  0
  4 14  1  0  0  0  0
  4 10  1  0  0  0  0
  5 12  1  0  0  0  0
  6  8  1  0  0  0  0
  6 28  1  0  0  0  0
  7  6  1  0  0  0  0
  9  5  1  1  0  0  0
  9  4  1  0  0  0  0
 10 11  1  0  0  0  0
 12 13  1  0  0  0  0
 12 10  2  0  0  0  0
 14 16  1  0  0  0  0
 15 14  1  0  0  0  0
 17 14  1  0  0  0  0
 18  5  1  0  0  0  0
 19 20  1  0  0  0  0
 19 18  2  0  0  0  0
 21 19  1  0  0  0  0
 22 21  1  0  0  0  0
 23 21  2  0  0  0  0
 23 25  1  0  0  0  0
 24 23  1  0  0  0  0
 25 27  2  0  0  0  0
 26 25  1  0  0  0  0
 27 18  1  0  0  0  0
 27 28  1  0  0  0  0
 28 30  1  0  0  0  0
 28 29  1  0  0  0  0
 31 33  1  0  0  0  0
 31 32  1  0  0  0  0
 33 34  1  1  0  0  0
 33  1  1  0  0  0  0
 35 37  1  0  0  0  0
 35 33  1  0  0  0  0
 36 35  1  0  0  0  0
 38 35  1  0  0  0  0
 38 41  1  0  0  0  0
 39 38  1  0  0  0  0
 40 38  1  0  0  0  0
 41 43  2  0  0  0  0
 41 42  1  0  0  0  0
 43 44  1  0  0  0  0
 45 47  1  0  0  0  0
 45 43  1  0  0  0  0
 46 45  1  0  0  0  0
 48 45  1  0  0  0  0
 48 31  1  0  0  0  0
 49 48  1  0  0  0  0
 50 48  1  0  0  0  0
M  END
$$$$
