CSD_code = SINTOA | q = 0 | S = 0 | Stoichiometry = C22H39ClO2P2Pd | MND = 4
 OpenBabel04212202093D

 67 69  0  0  0  0  0  0  0  0999 V2000
   -2.9264    6.3694    9.9655 Pd  0  0  0  0  0  0  0  0  0  0  0  0
   -1.8102    5.8574   11.9010 Cl  0  0  0  0  0  0  0  0  0  0  0  0
   -2.1271    8.4371    9.6668 P   0  0  0  0  0  4  0  0  0  0  0  0
   -4.0419    4.4466    9.7148 P   0  0  0  0  0  4  0  0  0  0  0  0
   -2.7752    8.9178    8.2478 O   0  0  0  0  0  0  0  0  0  0  0  0
   -4.9737    4.6909    8.3970 O   0  0  0  0  0  0  0  0  0  0  0  0
   -3.8764    6.8053    8.3185 C   0  0  0  0  0  0  0  0  0  0  0  0
   -3.6721    8.0209    7.6844 C   0  0  0  0  0  0  0  0  0  0  0  0
   -4.3402    8.3440    6.5129 C   0  0  0  0  0  0  0  0  0  0  0  0
   -4.1661    9.2963    6.0370 H   0  0  0  0  0  0  0  0  0  0  0  0
   -5.2272    7.4252    5.9746 C   0  0  0  0  0  0  0  0  0  0  0  0
   -5.7522    7.6661    5.0633 H   0  0  0  0  0  0  0  0  0  0  0  0
   -5.4513    6.2022    6.5868 C   0  0  0  0  0  0  0  0  0  0  0  0
   -6.1412    5.4865    6.1677 H   0  0  0  0  0  0  0  0  0  0  0  0
   -4.7696    5.9058    7.7575 C   0  0  0  0  0  0  0  0  0  0  0  0
   -2.8035    9.7439   10.8278 C   0  0  0  0  0  0  0  0  0  0  0  0
   -2.5528   11.1644   10.3383 C   0  0  0  0  0  0  0  0  0  0  0  0
   -3.1611   11.8665   10.9074 H   0  0  0  0  0  0  0  0  0  0  0  0
   -2.8131   11.2569    9.2854 H   0  0  0  0  0  0  0  0  0  0  0  0
   -1.5091   11.4422   10.4674 H   0  0  0  0  0  0  0  0  0  0  0  0
   -2.2577    9.5159   12.2341 C   0  0  0  0  0  0  0  0  0  0  0  0
   -2.8626   10.0565   12.9611 H   0  0  0  0  0  0  0  0  0  0  0  0
   -1.2320    9.8607   12.3277 H   0  0  0  0  0  0  0  0  0  0  0  0
   -2.2875    8.4544   12.4844 H   0  0  0  0  0  0  0  0  0  0  0  0
   -4.3040    9.4222   10.8244 C   0  0  0  0  0  0  0  0  0  0  0  0
   -4.8286   10.0332   11.5575 H   0  0  0  0  0  0  0  0  0  0  0  0
   -4.4577    8.3626   11.0837 H   0  0  0  0  0  0  0  0  0  0  0  0
   -4.7441    9.6098    9.8445 H   0  0  0  0  0  0  0  0  0  0  0  0
   -0.3014    8.5383    9.2606 C   0  0  0  0  0  0  0  0  0  0  0  0
    0.5250    8.5312   10.5417 C   0  0  0  0  0  0  0  0  0  0  0  0
    1.5622    8.2881   10.3143 H   0  0  0  0  0  0  0  0  0  0  0  0
    0.1419    7.7819   11.2344 H   0  0  0  0  0  0  0  0  0  0  0  0
    0.5070    9.5038   11.0277 H   0  0  0  0  0  0  0  0  0  0  0  0
    0.0521    9.7211    8.3665 C   0  0  0  0  0  0  0  0  0  0  0  0
    1.0887    9.6380    8.0420 H   0  0  0  0  0  0  0  0  0  0  0  0
   -0.0635   10.6635    8.8954 H   0  0  0  0  0  0  0  0  0  0  0  0
   -0.5842    9.7407    7.4844 H   0  0  0  0  0  0  0  0  0  0  0  0
   -0.0847    7.2146    8.5126 C   0  0  0  0  0  0  0  0  0  0  0  0
    0.9499    7.1210    8.1849 H   0  0  0  0  0  0  0  0  0  0  0  0
   -0.7304    7.1578    7.6309 H   0  0  0  0  0  0  0  0  0  0  0  0
   -0.3102    6.3717    9.1835 H   0  0  0  0  0  0  0  0  0  0  0  0
   -5.3568    4.1096   11.0054 C   0  0  0  0  0  0  0  0  0  0  0  0
   -5.7957    5.5355   11.3695 C   0  0  0  0  0  0  0  0  0  0  0  0
   -6.5880    5.5167   12.1169 H   0  0  0  0  0  0  0  0  0  0  0  0
   -6.1693    6.0630   10.4865 H   0  0  0  0  0  0  0  0  0  0  0  0
   -4.9410    6.0880   11.7886 H   0  0  0  0  0  0  0  0  0  0  0  0
   -6.5371    3.3088   10.4677 C   0  0  0  0  0  0  0  0  0  0  0  0
   -7.3286    3.2761   11.2156 H   0  0  0  0  0  0  0  0  0  0  0  0
   -6.2474    2.2875   10.2353 H   0  0  0  0  0  0  0  0  0  0  0  0
   -6.9349    3.7679    9.5654 H   0  0  0  0  0  0  0  0  0  0  0  0
   -4.7358    3.4479   12.2304 C   0  0  0  0  0  0  0  0  0  0  0  0
   -5.4147    3.5240   13.0790 H   0  0  0  0  0  0  0  0  0  0  0  0
   -3.8013    3.9429   12.4944 H   0  0  0  0  0  0  0  0  0  0  0  0
   -4.5391    2.3934   12.0515 H   0  0  0  0  0  0  0  0  0  0  0  0
   -3.0156    2.9802    9.1586 C   0  0  0  0  0  0  0  0  0  0  0  0
   -2.1643    3.5966    8.0405 C   0  0  0  0  0  0  0  0  0  0  0  0
   -1.4193    2.8842    7.6891 H   0  0  0  0  0  0  0  0  0  0  0  0
   -1.6392    4.4871    8.4211 H   0  0  0  0  0  0  0  0  0  0  0  0
   -2.7829    3.8915    7.1922 H   0  0  0  0  0  0  0  0  0  0  0  0
   -3.8593    1.8293    8.6256 C   0  0  0  0  0  0  0  0  0  0  0  0
   -3.2250    1.1147    8.1022 H   0  0  0  0  0  0  0  0  0  0  0  0
   -4.6112    2.1975    7.9299 H   0  0  0  0  0  0  0  0  0  0  0  0
   -4.3587    1.3045    9.4369 H   0  0  0  0  0  0  0  0  0  0  0  0
   -2.0917    2.5397   10.2899 C   0  0  0  0  0  0  0  0  0  0  0  0
   -1.2949    1.9095    9.8967 H   0  0  0  0  0  0  0  0  0  0  0  0
   -2.6256    1.9729   11.0472 H   0  0  0  0  0  0  0  0  0  0  0  0
   -1.6377    3.4089   10.7680 H   0  0  0  0  0  0  0  0  0  0  0  0
  1  2  1  0  0  0  0
  3  1  1  0  0  0  0
  3 16  1  0  0  0  0
  4  1  1  0  0  0  0
  4 42  1  0  0  0  0
  5  3  1  0  0  0  0
  6  4  1  0  0  0  0
  7  1  1  0  0  0  0
  8  5  1  0  0  0  0
  8  7  2  0  0  0  0
  9  8  1  0  0  0  0
 10  9  1  0  0  0  0
 11  9  2  0  0  0  0
 11 13  1  0  0  0  0
 12 11  1  0  0  0  0
 13 15  2  0  0  0  0
 14 13  1  0  0  0  0
 15  7  1  0  0  0  0
 15  6  1  0  0  0  0
 16 21  1  0  0  0  0
 17 20  1  0  0  0  0
 17 16  1  0  0  0  0
 17 18  1  0  0  0  0
 19 17  1  0  0  0  0
 21 23  1  0  0  0  0
 21 24  1  0  0  0  0
 21 22  1  0  0  0  0
 25 16  1  0  0  0  0
 25 27  1  0  0  0  0
 25 26  1  0  0  0  0
 28 25  1  0  0  0  0
 29  3  1  0  0  0  0
 29 30  1  0  0  0  0
 30 33  1  0  0  0  0
 30 32  1  0  0  0  0
 31 30  1  0  0  0  0
 34 36  1  0  0  0  0
 34 29  1  0  0  0  0
 35 34  1  0  0  0  0
 37 34  1  0  0  0  0
 38 41  1  0  0  0  0
 38 29  1  0  0  0  0
 39 38  1  0  0  0  0
 40 38  1  0  0  0  0
 42 43  1  0  0  0  0
 42 51  1  0  0  0  0
 43 46  1  0  0  0  0
 43 44  1  0  0  0  0
 45 43  1  0  0  0  0
 47 42  1  0  0  0  0
 47 48  1  0  0  0  0
 49 47  1  0  0  0  0
 50 47  1  0  0  0  0
 51 53  1  0  0  0  0
 51 52  1  0  0  0  0
 54 51  1  0  0  0  0
 55  4  1  0  0  0  0
 55 64  1  0  0  0  0
 56 58  1  0  0  0  0
 56 55  1  0  0  0  0
 57 56  1  0  0  0  0
 59 56  1  0  0  0  0
 60 55  1  0  0  0  0
 60 63  1  0  0  0  0
 61 60  1  0  0  0  0
 62 60  1  0  0  0  0
 64 67  1  0  0  0  0
 64 66  1  0  0  0  0
 65 64  1  0  0  0  0
M  END
$$$$
