CSD_code = SINWIW | q = 1 | S = 0 | Stoichiometry = C18H18IN4Zn(1+) | MND = 5
 OpenBabel04212202093D

 42 47  0  0  1  0  0  0  0  0999 V2000
    0.7999   -1.2103   10.3929 Zn  0  0  0  0  0  0  0  0  0  0  0  0
    2.2087   -2.1100    8.5411 I   0  0  0  0  0  0  0  0  0  0  0  0
   -0.4600   -0.4030   12.0541 N   0  0  1  0  0  4  0  0  0  0  0  0
   -1.1911   -1.2416    9.5969 N   0  0  0  0  0  0  0  0  0  0  0  0
    1.5647    0.7684   10.7113 N   0  0  0  0  0  0  0  0  0  0  0  0
    1.1344   -2.5801   12.0102 N   0  0  0  0  0  0  0  0  0  0  0  0
   -1.6047    0.2584   11.4424 C   0  0  0  0  0  0  0  0  0  0  0  0
   -1.2842    1.2424   11.0825 H   0  0  0  0  0  0  0  0  0  0  0  0
   -2.4196    0.4153   12.1628 H   0  0  0  0  0  0  0  0  0  0  0  0
   -2.0998   -0.5223   10.2544 C   0  0  1  0  0  3  0  0  0  0  0  0
   -3.4243   -0.4605    9.8454 C   0  0  0  0  0  0  0  0  0  0  0  0
   -4.1330    0.1332   10.4012 H   0  0  0  0  0  0  0  0  0  0  0  0
   -3.8125   -1.1646    8.7170 C   0  0  0  0  0  0  0  0  0  0  0  0
   -4.8356   -1.1311    8.3767 H   0  0  0  0  0  0  0  0  0  0  0  0
   -2.8614   -1.9112    8.0381 C   0  0  0  0  0  0  0  0  0  0  0  0
   -3.1158   -2.4746    7.1558 H   0  0  0  0  0  0  0  0  0  0  0  0
   -1.5633   -1.9210    8.5149 C   0  0  0  0  0  0  0  0  0  0  0  0
   -0.7926   -2.4882    8.0122 H   0  0  0  0  0  0  0  0  0  0  0  0
   -0.8640   -1.5375   12.8735 C   0  0  0  0  0  0  0  0  0  0  0  0
   -1.6870   -2.0534   12.3666 H   0  0  0  0  0  0  0  0  0  0  0  0
   -1.2248   -1.2204   13.8618 H   0  0  0  0  0  0  0  0  0  0  0  0
    0.2678   -2.5189   13.0207 C   0  0  1  0  0  3  0  0  0  0  0  0
    0.3768   -3.3413   14.1328 C   0  0  0  0  0  0  0  0  0  0  0  0
   -0.3427   -3.2657   14.9330 H   0  0  0  0  0  0  0  0  0  0  0  0
    1.4149   -4.2573   14.1920 C   0  0  0  0  0  0  0  0  0  0  0  0
    1.5197   -4.9094   15.0449 H   0  0  0  0  0  0  0  0  0  0  0  0
    2.3123   -4.3159   13.1366 C   0  0  0  0  0  0  0  0  0  0  0  0
    3.1343   -5.0122   13.1383 H   0  0  0  0  0  0  0  0  0  0  0  0
    2.1335   -3.4573   12.0672 C   0  0  0  0  0  0  0  0  0  0  0  0
    2.8101   -3.4740   11.2243 H   0  0  0  0  0  0  0  0  0  0  0  0
    0.3738    0.5335   12.7956 C   0  0  0  0  0  0  0  0  0  0  0  0
    1.0569   -0.0406   13.4314 H   0  0  0  0  0  0  0  0  0  0  0  0
   -0.2233    1.1862   13.4475 H   0  0  0  0  0  0  0  0  0  0  0  0
    1.2087    1.3576   11.8523 C   0  0  1  0  0  3  0  0  0  0  0  0
    1.6121    2.6463   12.1704 C   0  0  0  0  0  0  0  0  0  0  0  0
    1.3061    3.0934   13.1032 H   0  0  0  0  0  0  0  0  0  0  0  0
    2.4123    3.3397   11.2761 C   0  0  0  0  0  0  0  0  0  0  0  0
    2.7391    4.3426   11.5021 H   0  0  0  0  0  0  0  0  0  0  0  0
    2.7792    2.7200   10.0913 C   0  0  0  0  0  0  0  0  0  0  0  0
    3.3997    3.2199    9.3664 H   0  0  0  0  0  0  0  0  0  0  0  0
    2.3316    1.4335    9.8511 C   0  0  0  0  0  0  0  0  0  0  0  0
    2.5980    0.9145    8.9411 H   0  0  0  0  0  0  0  0  0  0  0  0
  1  5  1  0  0  0  0
  1  6  1  0  0  0  0
  1  3  1  0  0  0  0
  2  1  1  0  0  0  0
  3  7  1  6  0  0  0
  3 31  1  0  0  0  0
  3 19  1  0  0  0  0
  4 10  1  0  0  0  0
  4  1  1  0  0  0  0
  5 34  1  0  0  0  0
  6 29  1  0  0  0  0
  6 22  1  0  0  0  0
  7  9  1  0  0  0  0
  8  7  1  0  0  0  0
 10 11  1  6  0  0  0
 10  7  1  0  0  0  0
 11 12  1  0  0  0  0
 13 11  2  0  0  0  0
 14 13  1  0  0  0  0
 15 17  2  0  0  0  0
 15 13  1  0  0  0  0
 16 15  1  0  0  0  0
 17  4  1  0  0  0  0
 18 17  1  0  0  0  0
 19 22  1  0  0  0  0
 19 21  1  0  0  0  0
 20 19  1  0  0  0  0
 22 23  1  6  0  0  0
 23 25  2  0  0  0  0
 23 24  1  0  0  0  0
 25 26  1  0  0  0  0
 27 28  1  0  0  0  0
 27 25  1  0  0  0  0
 29 27  2  0  0  0  0
 30 29  1  0  0  0  0
 31 32  1  0  0  0  0
 31 33  1  0  0  0  0
 34 35  1  1  0  0  0
 34 31  1  0  0  0  0
 35 36  1  0  0  0  0
 37 38  1  0  0  0  0
 37 35  2  0  0  0  0
 39 37  1  0  0  0  0
 40 39  1  0  0  0  0
 41 39  2  0  0  0  0
 41  5  1  0  0  0  0
 42 41  1  0  0  0  0
M  END
$$$$
