CSD_code = SIPLOT | q = 1 | S = 0 | Stoichiometry = C11H21ClN5NiO3(1+) | MND = 6
 OpenBabel04212202093D

 42 44  0  0  1  0  0  0  0  0999 V2000
    3.7182    3.4230    6.9942 Ni  0  0  0  0  0  0  0  0  0  0  0  0
    5.8258    4.1093    7.0461 Cl  0  0  0  0  0  0  0  0  0  0  0  0
    1.4904    3.1817    6.8904 N   0  0  2  0  0  4  0  0  0  0  0  0
    3.2687    1.5554    8.0855 N   0  0  0  0  0  0  0  0  0  0  0  0
    2.9123    5.1373    5.7934 N   0  0  0  0  0  0  0  0  0  0  0  0
    3.3692    4.3224    8.5235 N   0  0  0  0  0  0  0  0  0  0  0  0
    4.1415    0.8644    8.9097 O   0  0  0  0  0  0  0  0  0  0  0  0
    4.9688    1.3722    8.9202 H   0  0  0  0  0  0  0  0  0  0  0  0
    3.6615    6.2501    5.4713 O   0  0  0  0  0  0  0  0  0  0  0  0
    4.5350    6.0974    5.8783 H   0  0  0  0  0  0  0  0  0  0  0  0
    4.3224    4.8228    9.3605 O   0  0  0  0  0  0  0  0  0  0  0  0
    5.1767    4.7772    8.8475 H   0  0  0  0  0  0  0  0  0  0  0  0
    1.1686    1.7592    6.9997 C   0  0  0  0  0  0  0  0  0  0  0  0
    1.2556    1.2957    6.0113 H   0  0  0  0  0  0  0  0  0  0  0  0
    0.1379    1.5991    7.3478 H   0  0  0  0  0  0  0  0  0  0  0  0
    2.1213    1.0308    7.9133 C   0  0  1  0  0  3  0  0  0  0  0  0
    1.6899   -0.2525    8.5252 C   0  0  0  0  0  0  0  0  0  0  0  0
    2.5239   -0.9522    8.5373 H   0  0  0  0  0  0  0  0  0  0  0  0
    0.8451   -0.6835    7.9965 H   0  0  0  0  0  0  0  0  0  0  0  0
    1.4068   -0.0832    9.5645 H   0  0  0  0  0  0  0  0  0  0  0  0
    0.9734    3.7974    5.6662 C   0  0  0  0  0  0  0  0  0  0  0  0
   -0.0976    4.0306    5.7477 H   0  0  0  0  0  0  0  0  0  0  0  0
    1.0948    3.0964    4.8341 H   0  0  0  0  0  0  0  0  0  0  0  0
    1.7396    5.0497    5.3102 C   0  0  2  0  0  3  0  0  0  0  0  0
    1.1004    6.0519    4.4172 C   0  0  0  0  0  0  0  0  0  0  0  0
    1.8655    6.5830    3.8550 H   0  0  0  0  0  0  0  0  0  0  0  0
    0.5647    6.7893    5.0154 H   0  0  0  0  0  0  0  0  0  0  0  0
    0.3939    5.5808    3.7394 H   0  0  0  0  0  0  0  0  0  0  0  0
    1.0417    3.9222    8.0805 C   0  0  0  0  0  0  0  0  0  0  0  0
    0.4051    3.2901    8.7123 H   0  0  0  0  0  0  0  0  0  0  0  0
    0.4357    4.7854    7.7805 H   0  0  0  0  0  0  0  0  0  0  0  0
    2.1618    4.4426    8.9232 C   0  0  2  0  0  3  0  0  0  0  0  0
    1.8402    5.1111   10.2132 C   0  0  0  0  0  0  0  0  0  0  0  0
    2.3044    6.0968   10.2392 H   0  0  0  0  0  0  0  0  0  0  0  0
    2.2788    4.5465   11.0361 H   0  0  0  0  0  0  0  0  0  0  0  0
    0.7699    5.2020   10.3633 H   0  0  0  0  0  0  0  0  0  0  0  0
    4.1159    2.5364    5.5287 N   0  0  0  0  0  2  0  0  0  0  0  0
    4.6006    2.0443    4.6109 C   0  0  0  0  0  2  0  0  0  0  0  0
    5.1932    1.4339    3.4739 C   0  0  0  0  0  0  0  0  0  0  0  0
    4.7851    1.8707    2.5622 H   0  0  0  0  0  0  0  0  0  0  0  0
    5.0004    0.3610    3.4807 H   0  0  0  0  0  0  0  0  0  0  0  0
    6.2707    1.6034    3.4986 H   0  0  0  0  0  0  0  0  0  0  0  0
  1  2  1  0  0  0  0
  1  4  1  0  0  0  0
  1  6  1  0  0  0  0
  3 21  1  6  0  0  0
  3  1  1  0  0  0  0
  3 13  1  0  0  0  0
  3 29  1  0  0  0  0
  4  7  1  0  0  0  0
  5  1  1  0  0  0  0
  6 32  1  0  0  0  0
  6 11  1  0  0  0  0
  7  8  1  0  0  0  0
  9  5  1  0  0  0  0
  9 10  1  0  0  0  0
 12 11  1  0  0  0  0
 13 15  1  0  0  0  0
 13 16  1  0  0  0  0
 14 13  1  0  0  0  0
 16  4  1  0  0  0  0
 16 17  1  6  0  0  0
 17 18  1  0  0  0  0
 17 20  1  0  0  0  0
 19 17  1  0  0  0  0
 21 22  1  0  0  0  0
 23 21  1  0  0  0  0
 24 25  1  6  0  0  0
 24 21  1  0  0  0  0
 24  5  1  0  0  0  0
 25 27  1  0  0  0  0
 26 25  1  0  0  0  0
 28 25  1  0  0  0  0
 29 30  1  0  0  0  0
 29 32  1  0  0  0  0
 31 29  1  0  0  0  0
 32 33  1  6  0  0  0
 33 34  1  0  0  0  0
 33 36  1  0  0  0  0
 33 35  1  0  0  0  0
 37  1  1  0  0  0  0
 38 37  1  0  0  0  0
 39 41  1  0  0  0  0
 39 42  1  0  0  0  0
 39 38  1  0  0  0  0
 40 39  1  0  0  0  0
M  END
$$$$
