CSD_code = SIQHUW | q = 0 | S = 0 | Stoichiometry = C22H30Cl2FeN2O | MND = 5
 OpenBabel04212202093D

 58 60  0  0  0  0  0  0  0  0999 V2000
    5.6382    8.0183    9.7703 Fe  0  0  0  0  0  0  0  0  0  0  0  0
    4.3285    9.3321   10.8147 Cl  0  0  0  0  0  0  0  0  0  0  0  0
    4.8273    8.1479    7.8502 Cl  0  0  0  0  0  0  0  0  0  0  0  0
    6.4837    7.5862   11.2988 N   0  0  0  0  0  0  0  0  0  0  0  0
    7.5836    8.3190   11.6441 C   0  0  0  0  0  0  0  0  0  0  0  0
    8.2695    8.0895   12.8389 C   0  0  0  0  0  0  0  0  0  0  0  0
    9.1269    8.6931   13.0882 H   0  0  0  0  0  0  0  0  0  0  0  0
    7.8245    7.0970   13.6804 C   0  0  0  0  0  0  0  0  0  0  0  0
    8.3275    6.8927   14.6119 H   0  0  0  0  0  0  0  0  0  0  0  0
    6.6903    6.3606   13.3219 C   0  0  0  0  0  0  0  0  0  0  0  0
    6.3154    5.5984   13.9848 H   0  0  0  0  0  0  0  0  0  0  0  0
    6.0411    6.6327   12.1378 C   0  0  0  0  0  0  0  0  0  0  0  0
    4.7550    5.9241   11.7432 C   0  0  0  0  0  0  0  0  0  0  0  0
    4.4746    6.2354   10.3640 O   0  0  0  0  0  0  0  0  0  0  0  0
    3.5157    6.2492   10.2462 H   0  0  0  0  0  0  0  0  0  0  0  0
    3.6162    6.4447   12.6234 C   0  0  0  0  0  0  0  0  0  0  0  0
    2.6865    5.9327   12.3788 H   0  0  0  0  0  0  0  0  0  0  0  0
    3.4959    7.5144   12.4542 H   0  0  0  0  0  0  0  0  0  0  0  0
    3.8382    6.2791   13.6734 H   0  0  0  0  0  0  0  0  0  0  0  0
    4.8960    4.4003   11.8477 C   0  0  0  0  0  0  0  0  0  0  0  0
    3.9906    3.9251   11.4764 H   0  0  0  0  0  0  0  0  0  0  0  0
    5.0513    4.0920   12.8761 H   0  0  0  0  0  0  0  0  0  0  0  0
    5.7358    4.0637   11.2450 H   0  0  0  0  0  0  0  0  0  0  0  0
    7.9161    9.2574   10.6192 C   0  0  0  0  0  0  0  0  0  0  0  0
    7.0996    9.2164    9.5958 N   0  0  0  0  0  0  0  0  0  0  0  0
    9.1210   10.1411   10.7038 C   0  0  0  0  0  0  0  0  0  0  0  0
   10.0041    9.5588   10.9622 H   0  0  0  0  0  0  0  0  0  0  0  0
    8.9709   10.8922   11.4790 H   0  0  0  0  0  0  0  0  0  0  0  0
    9.2878   10.6452    9.7549 H   0  0  0  0  0  0  0  0  0  0  0  0
    7.3743    9.9305    8.4136 C   0  0  0  0  0  0  0  0  0  0  0  0
    6.9803   11.2646    8.2671 C   0  0  0  0  0  0  0  0  0  0  0  0
    7.2893   11.9163    7.0812 C   0  0  0  0  0  0  0  0  0  0  0  0
    6.9894   12.9441    6.9472 H   0  0  0  0  0  0  0  0  0  0  0  0
    7.9743   11.2704    6.0710 C   0  0  0  0  0  0  0  0  0  0  0  0
    8.2171   11.7965    5.1596 H   0  0  0  0  0  0  0  0  0  0  0  0
    8.3313    9.9425    6.2169 C   0  0  0  0  0  0  0  0  0  0  0  0
    8.8495    9.4414    5.4139 H   0  0  0  0  0  0  0  0  0  0  0  0
    8.0234    9.2465    7.3747 C   0  0  0  0  0  0  0  0  0  0  0  0
    6.1886   11.9627    9.3444 C   0  0  0  0  0  0  0  0  0  0  0  0
    6.1188   11.3045   10.2147 H   0  0  0  0  0  0  0  0  0  0  0  0
    4.7649   12.2054    8.8389 C   0  0  0  0  0  0  0  0  0  0  0  0
    4.1578   12.6359    9.6311 H   0  0  0  0  0  0  0  0  0  0  0  0
    4.3159   11.2617    8.5405 H   0  0  0  0  0  0  0  0  0  0  0  0
    4.7622   12.8782    7.9843 H   0  0  0  0  0  0  0  0  0  0  0  0
    6.8483   13.2711    9.7824 C   0  0  0  0  0  0  0  0  0  0  0  0
    6.2998   13.6963   10.6196 H   0  0  0  0  0  0  0  0  0  0  0  0
    6.8519   13.9988    8.9746 H   0  0  0  0  0  0  0  0  0  0  0  0
    7.8772   13.1005   10.0943 H   0  0  0  0  0  0  0  0  0  0  0  0
    8.3825    7.7844    7.5170 C   0  0  0  0  0  0  0  0  0  0  0  0
    7.8761    7.3896    8.4149 H   0  0  0  0  0  0  0  0  0  0  0  0
    9.8929    7.6180    7.6984 C   0  0  0  0  0  0  0  0  0  0  0  0
   10.1462    6.5664    7.8165 H   0  0  0  0  0  0  0  0  0  0  0  0
   10.2370    8.1578    8.5781 H   0  0  0  0  0  0  0  0  0  0  0  0
   10.4228    8.0044    6.8306 H   0  0  0  0  0  0  0  0  0  0  0  0
    7.8773    6.9719    6.3248 C   0  0  0  0  0  0  0  0  0  0  0  0
    8.0553    5.9118    6.4950 H   0  0  0  0  0  0  0  0  0  0  0  0
    8.3830    7.2588    5.4068 H   0  0  0  0  0  0  0  0  0  0  0  0
    6.8092    7.1316    6.2004 H   0  0  0  0  0  0  0  0  0  0  0  0
  1  2  1  0  0  0  0
  1  4  1  0  0  0  0
  3  1  1  0  0  0  0
  4  5  1  0  0  0  0
  4 12  1  0  0  0  0
  5  6  1  0  0  0  0
  6  7  1  0  0  0  0
  6  8  2  0  0  0  0
  8  9  1  0  0  0  0
 10  8  1  0  0  0  0
 10 11  1  0  0  0  0
 12 10  2  0  0  0  0
 13 20  1  0  0  0  0
 13 12  1  0  0  0  0
 13 16  1  0  0  0  0
 14 13  1  0  0  0  0
 15 14  1  0  0  0  0
 16 19  1  0  0  0  0
 17 16  1  0  0  0  0
 18 16  1  0  0  0  0
 20 22  1  0  0  0  0
 21 20  1  0  0  0  0
 23 20  1  0  0  0  0
 24 26  1  0  0  0  0
 24  5  2  0  0  0  0
 25  1  1  0  0  0  0
 25 24  1  0  0  0  0
 26 27  1  0  0  0  0
 26 28  1  0  0  0  0
 29 26  1  0  0  0  0
 30 25  1  0  0  0  0
 31 30  1  0  0  0  0
 31 39  1  0  0  0  0
 32 31  2  0  0  0  0
 33 32  1  0  0  0  0
 34 36  2  0  0  0  0
 34 32  1  0  0  0  0
 35 34  1  0  0  0  0
 36 38  1  0  0  0  0
 37 36  1  0  0  0  0
 38 49  1  0  0  0  0
 38 30  2  0  0  0  0
 39 45  1  0  0  0  0
 39 40  1  0  0  0  0
 41 39  1  0  0  0  0
 41 42  1  0  0  0  0
 43 41  1  0  0  0  0
 44 41  1  0  0  0  0
 45 48  1  0  0  0  0
 45 46  1  0  0  0  0
 47 45  1  0  0  0  0
 49 51  1  0  0  0  0
 49 50  1  0  0  0  0
 51 52  1  0  0  0  0
 51 53  1  0  0  0  0
 54 51  1  0  0  0  0
 55 56  1  0  0  0  0
 55 49  1  0  0  0  0
 57 55  1  0  0  0  0
 58 55  1  0  0  0  0
M  END
$$$$
