CSD_code = SIQNAI | q = 0 | S = 0 | Stoichiometry = C27H39AuClN | MND = 2
 OpenBabel04212202093D

 69 73  0  0  1  0  0  0  0  0999 V2000
    5.8479    2.4480    8.5384 Au  0  0  0  0  0  0  0  0  0  0  0  0
    8.0601    2.0271    8.6461 Cl  0  0  0  0  0  0  0  0  0  0  0  0
    3.3855    3.4908    9.5341 N   0  0  0  0  0  0  0  0  0  0  0  0
    3.8840    2.8653    8.5120 C   0  0  1  0  0  3  0  0  0  0  0  0
    1.9380    3.7957    9.4796 C   0  0  0  0  0  0  0  0  0  0  0  0
    1.5039    2.9519    8.2785 C   0  0  0  0  0  0  0  0  0  0  0  0
    0.7754    3.4873    7.6782 H   0  0  0  0  0  0  0  0  0  0  0  0
    1.0404    2.0292    8.6316 H   0  0  0  0  0  0  0  0  0  0  0  0
    2.7962    2.6040    7.4957 C   0  0  2  0  0  0  0  0  0  0  0  0
    2.7585    1.1426    6.9967 C   0  0  2  0  0  0  0  0  0  0  0  0
    2.6394    0.4786    7.8620 H   0  0  0  0  0  0  0  0  0  0  0  0
    4.0258    0.7519    6.2383 C   0  0  0  0  0  0  0  0  0  0  0  0
    4.8990    0.8165    6.8898 H   0  0  0  0  0  0  0  0  0  0  0  0
    3.9345   -0.2852    5.9076 H   0  0  0  0  0  0  0  0  0  0  0  0
    4.2092    1.6665    5.0315 C   0  0  1  0  0  0  0  0  0  0  0  0
    5.1390    1.4065    4.5163 H   0  0  0  0  0  0  0  0  0  0  0  0
    3.0250    1.4880    4.0828 C   0  0  0  0  0  0  0  0  0  0  0  0
    3.1478    2.1220    3.2019 H   0  0  0  0  0  0  0  0  0  0  0  0
    2.9710    0.4513    3.7438 H   0  0  0  0  0  0  0  0  0  0  0  0
    1.7436    1.8654    4.8227 C   0  0  2  0  0  0  0  0  0  0  0  0
    0.8829    1.7405    4.1560 H   0  0  0  0  0  0  0  0  0  0  0  0
    1.8338    3.3245    5.2653 C   0  0  0  0  0  0  0  0  0  0  0  0
    0.8865    3.6418    5.7040 H   0  0  0  0  0  0  0  0  0  0  0  0
    2.0120    3.9611    4.3955 H   0  0  0  0  0  0  0  0  0  0  0  0
    2.9994    3.4951    6.2436 C   0  0  2  0  0  0  0  0  0  0  0  0
    3.0611    4.5445    6.5559 H   0  0  0  0  0  0  0  0  0  0  0  0
    4.2820    3.1185    5.4988 C   0  0  0  0  0  0  0  0  0  0  0  0
    4.3961    3.7788    4.6358 H   0  0  0  0  0  0  0  0  0  0  0  0
    5.1539    3.2550    6.1410 H   0  0  0  0  0  0  0  0  0  0  0  0
    1.5694    0.9652    6.0461 C   0  0  0  0  0  0  0  0  0  0  0  0
    1.5223   -0.0785    5.7279 H   0  0  0  0  0  0  0  0  0  0  0  0
    0.6277    1.1980    6.5460 H   0  0  0  0  0  0  0  0  0  0  0  0
    4.1748    3.8524   10.6720 C   0  0  0  0  0  0  0  0  0  0  0  0
    4.2960    2.9404   11.7309 C   0  0  0  0  0  0  0  0  0  0  0  0
    4.9702    3.3430   12.8757 C   0  0  0  0  0  0  0  0  0  0  0  0
    5.0672    2.6575   13.7022 H   0  0  0  0  0  0  0  0  0  0  0  0
    5.5327    4.5999   12.9684 C   0  0  0  0  0  0  0  0  0  0  0  0
    6.0409    4.9012   13.8718 H   0  0  0  0  0  0  0  0  0  0  0  0
    5.4899    5.4483   11.8813 C   0  0  0  0  0  0  0  0  0  0  0  0
    5.9916    6.4012   11.9348 H   0  0  0  0  0  0  0  0  0  0  0  0
    4.8303    5.0903   10.7122 C   0  0  0  0  0  0  0  0  0  0  0  0
    1.7035    5.2883    9.2466 C   0  0  0  0  0  0  0  0  0  0  0  0
    2.0921    5.8633   10.0822 H   0  0  0  0  0  0  0  0  0  0  0  0
    0.6349    5.4764    9.1710 H   0  0  0  0  0  0  0  0  0  0  0  0
    2.1736    5.6308    8.3290 H   0  0  0  0  0  0  0  0  0  0  0  0
    1.2196    3.3980   10.7653 C   0  0  0  0  0  0  0  0  0  0  0  0
    1.2611    2.3258   10.9281 H   0  0  0  0  0  0  0  0  0  0  0  0
    0.1739    3.6886   10.6929 H   0  0  0  0  0  0  0  0  0  0  0  0
    1.6587    3.9047   11.6220 H   0  0  0  0  0  0  0  0  0  0  0  0
    3.8208    1.5079   11.6378 C   0  0  0  0  0  0  0  0  0  0  0  0
    3.2449    1.3761   10.7171 H   0  0  0  0  0  0  0  0  0  0  0  0
    2.9499    1.0993   12.8301 C   0  0  0  0  0  0  0  0  0  0  0  0
    3.5480    1.0121   13.7330 H   0  0  0  0  0  0  0  0  0  0  0  0
    2.4941    0.1302   12.6386 H   0  0  0  0  0  0  0  0  0  0  0  0
    2.1603    1.8232   13.0167 H   0  0  0  0  0  0  0  0  0  0  0  0
    5.0396    0.5829   11.5508 C   0  0  0  0  0  0  0  0  0  0  0  0
    5.6689    0.8566   10.7049 H   0  0  0  0  0  0  0  0  0  0  0  0
    4.7165   -0.4478   11.4226 H   0  0  0  0  0  0  0  0  0  0  0  0
    5.6402    0.6484   12.4540 H   0  0  0  0  0  0  0  0  0  0  0  0
    4.9530    5.9980    9.5095 C   0  0  0  0  0  0  0  0  0  0  0  0
    4.3443    5.5996    8.6943 H   0  0  0  0  0  0  0  0  0  0  0  0
    6.4101    6.0010    9.0334 C   0  0  0  0  0  0  0  0  0  0  0  0
    7.0648    6.4263    9.7892 H   0  0  0  0  0  0  0  0  0  0  0  0
    6.5022    6.5908    8.1240 H   0  0  0  0  0  0  0  0  0  0  0  0
    6.7482    4.9873    8.8240 H   0  0  0  0  0  0  0  0  0  0  0  0
    4.5091    7.4337    9.8042 C   0  0  0  0  0  0  0  0  0  0  0  0
    3.5165    7.4666   10.2471 H   0  0  0  0  0  0  0  0  0  0  0  0
    4.4918    8.0097    8.8818 H   0  0  0  0  0  0  0  0  0  0  0  0
    5.1994    7.9192   10.4887 H   0  0  0  0  0  0  0  0  0  0  0  0
  1  2  1  0  0  0  0
  3 33  1  0  0  0  0
  4  1  1  6  0  0  0
  4  3  1  0  0  0  0
  5  3  1  0  0  0  0
  5 46  1  0  0  0  0
  6  8  1  0  0  0  0
  6  5  1  0  0  0  0
  7  6  1  0  0  0  0
  9  6  1  1  0  0  0
  9  4  1  0  0  0  0
 10  9  1  0  0  0  0
 10 11  1  1  0  0  0
 12 13  1  0  0  0  0
 12 10  1  0  0  0  0
 14 12  1  0  0  0  0
 15 16  1  6  0  0  0
 15 27  1  0  0  0  0
 15 12  1  0  0  0  0
 17 20  1  0  0  0  0
 17 15  1  0  0  0  0
 18 17  1  0  0  0  0
 19 17  1  0  0  0  0
 20 21  1  6  0  0  0
 20 22  1  0  0  0  0
 20 30  1  0  0  0  0
 22 23  1  0  0  0  0
 22 25  1  0  0  0  0
 24 22  1  0  0  0  0
 25 26  1  1  0  0  0
 25  9  1  0  0  0  0
 27 29  1  0  0  0  0
 27 25  1  0  0  0  0
 28 27  1  0  0  0  0
 30 32  1  0  0  0  0
 30 10  1  0  0  0  0
 31 30  1  0  0  0  0
 33 41  2  0  0  0  0
 33 34  1  0  0  0  0
 34 35  2  0  0  0  0
 35 37  1  0  0  0  0
 35 36  1  0  0  0  0
 37 38  1  0  0  0  0
 39 40  1  0  0  0  0
 39 37  2  0  0  0  0
 41 39  1  0  0  0  0
 42  5  1  0  0  0  0
 42 43  1  0  0  0  0
 44 42  1  0  0  0  0
 45 42  1  0  0  0  0
 46 47  1  0  0  0  0
 46 49  1  0  0  0  0
 48 46  1  0  0  0  0
 50 34  1  0  0  0  0
 50 52  1  0  0  0  0
 51 50  1  0  0  0  0
 52 55  1  0  0  0  0
 52 53  1  0  0  0  0
 54 52  1  0  0  0  0
 56 50  1  0  0  0  0
 56 59  1  0  0  0  0
 57 56  1  0  0  0  0
 58 56  1  0  0  0  0
 60 66  1  0  0  0  0
 60 41  1  0  0  0  0
 61 60  1  0  0  0  0
 62 60  1  0  0  0  0
 62 63  1  0  0  0  0
 64 62  1  0  0  0  0
 65 62  1  0  0  0  0
 66 67  1  0  0  0  0
 66 69  1  0  0  0  0
 68 66  1  0  0  0  0
M  END
$$$$
