CSD_code = SIQWOF | q = 0 | S = 0 | Stoichiometry = C24H27IN2Pd | MND = 4
 OpenBabel04212202093D

 55 59  0  0  0  0  0  0  0  0999 V2000
    3.8404    6.6076    9.6462 Pd  0  0  0  0  0  0  0  0  0  0  0  0
    4.7105    7.8619   11.8453 I   0  0  0  0  0  0  0  0  0  0  0  0
    2.7106    4.9660   10.6590 N   0  0  0  0  0  4  0  0  0  0  0  0
    4.3709    8.2348    8.2876 N   0  0  0  0  0  4  0  0  0  0  0  0
    3.9623    5.3497    8.1133 C   0  0  0  0  0  0  0  0  0  0  0  0
    3.2112    5.2871    6.9459 C   0  0  0  0  0  0  0  0  0  0  0  0
    3.4797    4.2939    6.0062 C   0  0  0  0  0  0  0  0  0  0  0  0
    2.8850    4.2451    5.1043 H   0  0  0  0  0  0  0  0  0  0  0  0
    4.5169    3.4016    6.2123 C   0  0  0  0  0  0  0  0  0  0  0  0
    4.7318    2.6470    5.4697 H   0  0  0  0  0  0  0  0  0  0  0  0
    5.2797    3.4688    7.3676 C   0  0  0  0  0  0  0  0  0  0  0  0
    6.0867    2.7694    7.5386 H   0  0  0  0  0  0  0  0  0  0  0  0
    4.9853    4.4296    8.3273 C   0  0  0  0  0  0  0  0  0  0  0  0
    5.7013    4.5026    9.6308 C   0  0  0  0  0  0  0  0  0  0  0  0
    5.0188    4.1545   10.8098 C   0  0  0  0  0  0  0  0  0  0  0  0
    5.6934    4.1875   12.0215 C   0  0  0  0  0  0  0  0  0  0  0  0
    5.1777    3.9072   12.9296 H   0  0  0  0  0  0  0  0  0  0  0  0
    7.0179    4.5893   12.0815 C   0  0  0  0  0  0  0  0  0  0  0  0
    7.5202    4.6375   13.0352 H   0  0  0  0  0  0  0  0  0  0  0  0
    7.6872    4.9408   10.9235 C   0  0  0  0  0  0  0  0  0  0  0  0
    8.7172    5.2618   10.9685 H   0  0  0  0  0  0  0  0  0  0  0  0
    7.0368    4.8843    9.7019 C   0  0  0  0  0  0  0  0  0  0  0  0
    7.5626    5.1380    8.7907 H   0  0  0  0  0  0  0  0  0  0  0  0
    2.1551    6.2949    6.7325 C   0  0  0  0  0  0  0  0  0  0  0  0
    2.4954    7.6526    6.7522 C   0  0  0  0  0  0  0  0  0  0  0  0
    1.5005    8.6014    6.5525 C   0  0  0  0  0  0  0  0  0  0  0  0
    1.7578    9.6514    6.5334 H   0  0  0  0  0  0  0  0  0  0  0  0
    0.1844    8.2192    6.3603 C   0  0  0  0  0  0  0  0  0  0  0  0
   -0.5781    8.9701    6.2164 H   0  0  0  0  0  0  0  0  0  0  0  0
   -0.1484    6.8754    6.3360 C   0  0  0  0  0  0  0  0  0  0  0  0
   -1.1728    6.5731    6.1748 H   0  0  0  0  0  0  0  0  0  0  0  0
    0.8347    5.9194    6.5112 C   0  0  0  0  0  0  0  0  0  0  0  0
    0.5825    4.8683    6.4837 H   0  0  0  0  0  0  0  0  0  0  0  0
    3.5638    3.7575   10.7252 C   0  0  0  0  0  0  0  0  0  0  0  0
    3.2802    3.1437   11.5908 H   0  0  0  0  0  0  0  0  0  0  0  0
    3.4081    3.1661    9.8172 H   0  0  0  0  0  0  0  0  0  0  0  0
    3.9406    8.0606    6.8867 C   0  0  0  0  0  0  0  0  0  0  0  0
    4.1043    9.0087    6.3487 H   0  0  0  0  0  0  0  0  0  0  0  0
    4.5713    7.2937    6.4249 H   0  0  0  0  0  0  0  0  0  0  0  0
    1.4767    4.7017    9.9159 C   0  0  0  0  0  0  0  0  0  0  0  0
    0.8565    3.9633   10.4440 H   0  0  0  0  0  0  0  0  0  0  0  0
    1.7017    4.3207    8.9201 H   0  0  0  0  0  0  0  0  0  0  0  0
    0.9051    5.6289    9.8134 H   0  0  0  0  0  0  0  0  0  0  0  0
    2.3398    5.3696   12.0160 C   0  0  0  0  0  0  0  0  0  0  0  0
    1.8142    6.3269   11.9912 H   0  0  0  0  0  0  0  0  0  0  0  0
    3.2290    5.4793   12.6330 H   0  0  0  0  0  0  0  0  0  0  0  0
    1.6821    4.6183   12.4754 H   0  0  0  0  0  0  0  0  0  0  0  0
    3.7277    9.4424    8.8172 C   0  0  0  0  0  0  0  0  0  0  0  0
    3.8818   10.2910    8.1372 H   0  0  0  0  0  0  0  0  0  0  0  0
    4.1467    9.7066    9.7863 H   0  0  0  0  0  0  0  0  0  0  0  0
    2.6535    9.2686    8.9340 H   0  0  0  0  0  0  0  0  0  0  0  0
    5.8258    8.3910    8.3185 C   0  0  0  0  0  0  0  0  0  0  0  0
    6.1410    9.2455    7.7048 H   0  0  0  0  0  0  0  0  0  0  0  0
    6.3017    7.4845    7.9358 H   0  0  0  0  0  0  0  0  0  0  0  0
    6.1640    8.5542    9.3432 H   0  0  0  0  0  0  0  0  0  0  0  0
  1  3  1  0  0  0  0
  1  2  1  0  0  0  0
  3 34  1  0  0  0  0
  3 44  1  0  0  0  0
  4 52  1  0  0  0  0
  4 48  1  0  0  0  0
  4  1  1  0  0  0  0
  5 13  1  0  0  0  0
  5  1  1  0  0  0  0
  6  5  2  0  0  0  0
  7  9  2  0  0  0  0
  7  6  1  0  0  0  0
  8  7  1  0  0  0  0
  9 11  1  0  0  0  0
 10  9  1  0  0  0  0
 11 12  1  0  0  0  0
 11 13  2  0  0  0  0
 13 14  1  0  0  0  0
 14 22  2  0  0  0  0
 14 15  1  0  0  0  0
 15 16  2  0  0  0  0
 16 18  1  0  0  0  0
 16 17  1  0  0  0  0
 18 19  1  0  0  0  0
 20 21  1  0  0  0  0
 20 18  2  0  0  0  0
 22 20  1  0  0  0  0
 23 22  1  0  0  0  0
 24 25  1  0  0  0  0
 24  6  1  0  0  0  0
 25 37  1  0  0  0  0
 26 25  2  0  0  0  0
 27 26  1  0  0  0  0
 28 26  1  0  0  0  0
 29 28  1  0  0  0  0
 30 28  2  0  0  0  0
 30 32  1  0  0  0  0
 31 30  1  0  0  0  0
 32 24  2  0  0  0  0
 33 32  1  0  0  0  0
 34 15  1  0  0  0  0
 34 35  1  0  0  0  0
 36 34  1  0  0  0  0
 37  4  1  0  0  0  0
 38 37  1  0  0  0  0
 39 37  1  0  0  0  0
 40 41  1  0  0  0  0
 40  3  1  0  0  0  0
 42 40  1  0  0  0  0
 43 40  1  0  0  0  0
 44 47  1  0  0  0  0
 44 46  1  0  0  0  0
 45 44  1  0  0  0  0
 48 51  1  0  0  0  0
 48 50  1  0  0  0  0
 49 48  1  0  0  0  0
 52 55  1  0  0  0  0
 53 52  1  0  0  0  0
 54 52  1  0  0  0  0
M  END
$$$$
