CSD_code = SIQXUL | q = 0 | S = 0 | Stoichiometry = C25H37Cl3N4Ru | MND = 5
 OpenBabel04212202093D

 70 72  0  0  1  0  0  0  0  0999 V2000
    0.2143    0.7106    4.0654 Ru  0  0  0  0  0  0  0  0  0  0  0  0
   -1.1076   -0.5341    2.5084 Cl  0  0  0  0  0  0  0  0  0  0  0  0
    1.8293    1.9768    5.2621 Cl  0  0  0  0  0  0  0  0  0  0  0  0
   -5.9671   -2.0302    6.9401 Cl  0  0  0  0  0  0  0  0  0  0  0  0
    1.6985   -2.0728    4.0018 N   0  0  0  0  0  0  0  0  0  0  0  0
    2.6057   -0.4907    2.8675 N   0  0  0  0  0  0  0  0  0  0  0  0
   -1.4905    3.2070    4.8835 N   0  0  0  0  0  0  0  0  0  0  0  0
   -1.1397    3.0643    2.7677 N   0  0  0  0  0  0  0  0  0  0  0  0
   -0.5250    0.0161    5.6718 C   0  0  0  0  0  3  0  0  0  0  0  0
   -1.8420   -0.4575    5.9590 C   0  0  0  0  0  0  0  0  0  0  0  0
   -2.0777   -1.2236    7.1169 C   0  0  0  0  0  0  0  0  0  0  0  0
   -3.3310   -1.7099    7.4157 C   0  0  0  0  0  0  0  0  0  0  0  0
   -4.3910   -1.4305    6.5642 C   0  0  0  0  0  0  0  0  0  0  0  0
   -4.1988   -0.6666    5.4207 C   0  0  0  0  0  0  0  0  0  0  0  0
   -2.9426   -0.1852    5.1256 C   0  0  0  0  0  0  0  0  0  0  0  0
    1.5795   -0.7676    3.6960 C   0  0  1  0  0  3  0  0  0  0  0  0
    2.7995   -2.6020    3.3808 C   0  0  0  0  0  0  0  0  0  0  0  0
    3.3723   -1.6075    2.6673 C   0  0  0  0  0  0  0  0  0  0  0  0
    2.8085    0.7935    2.2263 C   0  0  0  0  0  0  0  0  0  0  0  0
    4.1510    1.3924    2.6309 C   0  0  0  0  0  0  0  0  0  0  0  0
    2.6622    0.6423    0.7133 C   0  0  0  0  0  0  0  0  0  0  0  0
    0.7548   -2.8422    4.7866 C   0  0  0  0  0  0  0  0  0  0  0  0
    0.0286   -3.8412    3.8889 C   0  0  0  0  0  0  0  0  0  0  0  0
    1.4540   -3.5134    5.9648 C   0  0  0  0  0  0  0  0  0  0  0  0
   -0.9153    2.4300    3.9403 C   0  0  1  0  0  3  0  0  0  0  0  0
   -2.0764    4.3000    4.3036 C   0  0  0  0  0  0  0  0  0  0  0  0
   -1.8578    4.2118    2.9737 C   0  0  0  0  0  0  0  0  0  0  0  0
   -0.6546    2.6333    1.4707 C   0  0  0  0  0  0  0  0  0  0  0  0
   -1.8212    2.3440    0.5315 C   0  0  0  0  0  0  0  0  0  0  0  0
    0.3070    3.6762    0.9039 C   0  0  0  0  0  0  0  0  0  0  0  0
   -1.4461    2.9953    6.3163 C   0  0  0  0  0  0  0  0  0  0  0  0
   -0.5837    4.0714    6.9720 C   0  0  0  0  0  0  0  0  0  0  0  0
   -2.8562    2.9429    6.8969 C   0  0  0  0  0  0  0  0  0  0  0  0
    0.1718   -0.0922    6.5204 H   0  0  0  0  0  0  0  0  0  0  0  0
   -1.2516   -1.4433    7.7787 H   0  0  0  0  0  0  0  0  0  0  0  0
   -3.4946   -2.3017    8.3032 H   0  0  0  0  0  0  0  0  0  0  0  0
   -5.0334   -0.4551    4.7702 H   0  0  0  0  0  0  0  0  0  0  0  0
   -2.7874    0.4099    4.2386 H   0  0  0  0  0  0  0  0  0  0  0  0
    3.0892   -3.6264    3.4883 H   0  0  0  0  0  0  0  0  0  0  0  0
    4.2439   -1.6153    2.0466 H   0  0  0  0  0  0  0  0  0  0  0  0
    2.0061    1.4590    2.6062 H   0  0  0  0  0  0  0  0  0  0  0  0
    4.1673    1.5520    3.7071 H   0  0  0  0  0  0  0  0  0  0  0  0
    4.2913    2.3513    2.1388 H   0  0  0  0  0  0  0  0  0  0  0  0
    4.9719    0.7348    2.3534 H   0  0  0  0  0  0  0  0  0  0  0  0
    1.7059    0.1795    0.4713 H   0  0  0  0  0  0  0  0  0  0  0  0
    3.4594    0.0206    0.3107 H   0  0  0  0  0  0  0  0  0  0  0  0
    2.7126    1.6167    0.2345 H   0  0  0  0  0  0  0  0  0  0  0  0
    0.0197   -2.1180    5.1603 H   0  0  0  0  0  0  0  0  0  0  0  0
   -0.4729   -3.3072    3.0848 H   0  0  0  0  0  0  0  0  0  0  0  0
   -0.7206   -4.3758    4.4659 H   0  0  0  0  0  0  0  0  0  0  0  0
    0.7214   -4.5621    3.4597 H   0  0  0  0  0  0  0  0  0  0  0  0
    2.0032   -2.7752    6.5450 H   0  0  0  0  0  0  0  0  0  0  0  0
    2.1482   -4.2796    5.6267 H   0  0  0  0  0  0  0  0  0  0  0  0
    0.7144   -3.9818    6.6080 H   0  0  0  0  0  0  0  0  0  0  0  0
   -2.5944    5.0477    4.8666 H   0  0  0  0  0  0  0  0  0  0  0  0
   -2.1503    4.8680    2.1808 H   0  0  0  0  0  0  0  0  0  0  0  0
   -0.1124    1.6882    1.6356 H   0  0  0  0  0  0  0  0  0  0  0  0
   -2.4213    1.5340    0.9396 H   0  0  0  0  0  0  0  0  0  0  0  0
   -1.4423    2.0314   -0.4376 H   0  0  0  0  0  0  0  0  0  0  0  0
   -2.4467    3.2232    0.3948 H   0  0  0  0  0  0  0  0  0  0  0  0
    1.1037    3.8851    1.6167 H   0  0  0  0  0  0  0  0  0  0  0  0
   -0.2138    4.6063    0.6862 H   0  0  0  0  0  0  0  0  0  0  0  0
    0.7489    3.3092   -0.0187 H   0  0  0  0  0  0  0  0  0  0  0  0
   -0.9579    2.0224    6.4609 H   0  0  0  0  0  0  0  0  0  0  0  0
    0.4236    4.0250    6.5645 H   0  0  0  0  0  0  0  0  0  0  0  0
   -0.5301    3.8953    8.0424 H   0  0  0  0  0  0  0  0  0  0  0  0
   -0.9940    5.0646    6.8015 H   0  0  0  0  0  0  0  0  0  0  0  0
   -3.4526    2.2017    6.3694 H   0  0  0  0  0  0  0  0  0  0  0  0
   -3.3486    3.9101    6.8267 H   0  0  0  0  0  0  0  0  0  0  0  0
   -2.8072    2.6597    7.9444 H   0  0  0  0  0  0  0  0  0  0  0  0
  1  3  1  0  0  0  0
  1  9  1  0  0  0  0
  2  1  1  0  0  0  0
  5 22  1  0  0  0  0
  6 16  1  0  0  0  0
  7 31  1  0  0  0  0
  8 27  1  0  0  0  0
  8 25  1  0  0  0  0
  9 10  1  0  0  0  0
  9 34  1  0  0  0  0
 10 11  1  0  0  0  0
 11 12  2  0  0  0  0
 11 35  1  0  0  0  0
 12 36  1  0  0  0  0
 13  4  1  0  0  0  0
 13 12  1  0  0  0  0
 14 13  2  0  0  0  0
 15 14  1  0  0  0  0
 15 10  2  0  0  0  0
 16  5  1  0  0  0  0
 16  1  1  6  0  0  0
 17 39  1  0  0  0  0
 17  5  1  0  0  0  0
 18  6  1  0  0  0  0
 18 17  2  0  0  0  0
 19 41  1  0  0  0  0
 19 20  1  0  0  0  0
 19  6  1  0  0  0  0
 20 42  1  0  0  0  0
 21 19  1  0  0  0  0
 22 48  1  0  0  0  0
 22 24  1  0  0  0  0
 23 50  1  0  0  0  0
 23 22  1  0  0  0  0
 24 52  1  0  0  0  0
 24 54  1  0  0  0  0
 25  1  1  1  0  0  0
 25  7  1  0  0  0  0
 26 55  1  0  0  0  0
 26  7  1  0  0  0  0
 27 26  2  0  0  0  0
 28 57  1  0  0  0  0
 28  8  1  0  0  0  0
 29 58  1  0  0  0  0
 29 28  1  0  0  0  0
 30 28  1  0  0  0  0
 30 61  1  0  0  0  0
 31 64  1  0  0  0  0
 31 33  1  0  0  0  0
 31 32  1  0  0  0  0
 32 66  1  0  0  0  0
 33 70  1  0  0  0  0
 37 14  1  0  0  0  0
 38 15  1  0  0  0  0
 40 18  1  0  0  0  0
 43 20  1  0  0  0  0
 44 20  1  0  0  0  0
 45 21  1  0  0  0  0
 46 21  1  0  0  0  0
 47 21  1  0  0  0  0
 49 23  1  0  0  0  0
 51 23  1  0  0  0  0
 53 24  1  0  0  0  0
 56 27  1  0  0  0  0
 59 29  1  0  0  0  0
 60 29  1  0  0  0  0
 62 30  1  0  0  0  0
 63 30  1  0  0  0  0
 65 32  1  0  0  0  0
 67 32  1  0  0  0  0
 68 33  1  0  0  0  0
 69 33  1  0  0  0  0
M  END
$$$$
