CSD_code = SIRJUA | q = 0 | S = 0 | Stoichiometry = C10H12ClNO3PtS | MND = 4
 OpenBabel04212202093D

 29 30  0  0  0  0  0  0  0  0999 V2000
    6.1251    6.9951    3.7542 C   0  0  0  0  0  0  0  0  0  0  0  0
    7.3914    6.8240    3.1848 C   0  0  0  0  0  0  0  0  0  0  0  0
    7.6303    7.3758    2.2887 H   0  0  0  0  0  0  0  0  0  0  0  0
    8.3093    5.9703    3.7618 C   0  0  0  0  0  0  0  0  0  0  0  0
    9.2842    5.8470    3.3151 H   0  0  0  0  0  0  0  0  0  0  0  0
    7.9786    5.2722    4.9131 C   0  0  0  0  0  0  0  0  0  0  0  0
    8.6954    4.6039    5.3661 H   0  0  0  0  0  0  0  0  0  0  0  0
    6.7243    5.4308    5.4825 C   0  0  0  0  0  0  0  0  0  0  0  0
    6.4662    4.8836    6.3767 H   0  0  0  0  0  0  0  0  0  0  0  0
    5.7999    6.2847    4.9122 C   0  0  0  0  0  0  0  0  0  0  0  0
    4.8271    6.3885    5.3644 H   0  0  0  0  0  0  0  0  0  0  0  0
    5.1922    7.9168    3.0983 C   0  0  0  0  0  0  0  0  0  0  0  0
    3.9370    8.2711    3.6393 C   0  0  0  0  0  0  0  0  0  0  0  0
    3.5280    7.9214    4.5757 H   0  0  0  0  0  0  0  0  0  0  0  0
    0.7871   10.1043    0.6130 C   0  0  0  0  0  0  0  0  0  0  0  0
   -0.0140   10.7879    0.3578 H   0  0  0  0  0  0  0  0  0  0  0  0
    0.6396    9.6649    1.5926 H   0  0  0  0  0  0  0  0  0  0  0  0
    0.8781    9.3383   -0.1502 H   0  0  0  0  0  0  0  0  0  0  0  0
    1.9598   12.2422    1.9486 C   0  0  0  0  0  0  0  0  0  0  0  0
    2.8236   12.8886    2.0654 H   0  0  0  0  0  0  0  0  0  0  0  0
    1.7549   11.6947    2.8610 H   0  0  0  0  0  0  0  0  0  0  0  0
    1.1025   12.8239    1.6312 H   0  0  0  0  0  0  0  0  0  0  0  0
    5.1754   10.2641   -0.5807 Cl  0  0  0  0  0  0  0  0  0  0  0  0
    3.2332    9.1247    2.9052 N   0  0  0  0  0  0  0  0  0  0  0  0
    5.5335    8.4337    1.9862 O   0  0  0  0  0  0  0  0  0  0  0  0
    2.1024    9.5246    3.2775 O   0  0  0  0  0  1  0  0  0  0  0  0
    2.4176   11.7762   -0.6011 O   0  0  0  0  0  1  0  0  0  0  0  0
    4.0718    9.6976    1.2650 Pt  0  0  2  0  0  0  0  0  0  0  0  0
    2.3463   11.0411    0.6384 S   0  0  0  0  0  0  0  0  0  0  0  0
  1 10  1  0  0  0  0
  2  1  2  0  0  0  0
  2  4  1  0  0  0  0
  3  2  1  0  0  0  0
  4  6  2  0  0  0  0
  5  4  1  0  0  0  0
  6  7  1  0  0  0  0
  6  8  1  0  0  0  0
  8  9  1  0  0  0  0
 10 11  1  0  0  0  0
 10  8  2  0  0  0  0
 12 13  2  0  0  0  0
 12  1  1  0  0  0  0
 13 14  1  0  0  0  0
 15 29  1  0  0  0  0
 15 17  1  0  0  0  0
 16 15  1  0  0  0  0
 18 15  1  0  0  0  0
 19 20  1  0  0  0  0
 19 21  1  0  0  0  0
 22 19  1  0  0  0  0
 24 26  1  0  0  0  0
 24 13  1  0  0  0  0
 25 12  1  0  0  0  0
 27 29  1  0  0  0  0
 28 23  1  1  0  0  0
 28 25  1  0  0  0  0
 28 24  1  0  0  0  0
 29 28  1  0  0  0  0
 29 19  1  0  0  0  0
M  END
$$$$
