CSD_code = SIRRUH | q = 0 | S = 0 | Stoichiometry = C20H25Br2N3OPd | MND = 4
 OpenBabel04212202093D

 52 54  0  0  0  0  0  0  0  0999 V2000
    3.0278    0.9383    1.2326 Pd  0  0  0  0  0  0  0  0  0  0  0  0
    4.6310    2.5178    0.2963 Br  0  0  0  0  0  0  0  0  0  0  0  0
    1.3703   -0.6475    2.0923 Br  0  0  0  0  0  0  0  0  0  0  0  0
    2.4824    4.9540    1.4802 O   0  0  0  0  0  0  0  0  0  0  0  0
    3.4257    1.9973    4.0711 N   0  0  0  0  0  0  0  0  0  0  0  0
    1.7229    2.7750    3.0017 N   0  0  0  0  0  0  0  0  0  0  0  0
    3.1645   -0.1214   -0.4533 N   0  0  0  0  0  0  0  0  0  0  0  0
    2.7895    1.9693    2.8866 C   0  0  0  0  0  0  0  0  0  0  0  0
    2.7526    2.8430    4.9208 C   0  0  0  0  0  0  0  0  0  0  0  0
    3.0717    3.0367    5.9229 H   0  0  0  0  0  0  0  0  0  0  0  0
    1.6846    3.3287    4.2500 C   0  0  0  0  0  0  0  0  0  0  0  0
    0.9175    4.0118    4.5516 H   0  0  0  0  0  0  0  0  0  0  0  0
    4.5814    1.2018    4.5007 C   0  0  0  0  0  0  0  0  0  0  0  0
    5.1491    0.3701    3.3475 C   0  0  0  0  0  0  0  0  0  0  0  0
    4.3933   -0.3301    2.9557 H   0  0  0  0  0  0  0  0  0  0  0  0
    5.9825   -0.2214    3.7211 H   0  0  0  0  0  0  0  0  0  0  0  0
    5.5278    1.0200    2.5533 H   0  0  0  0  0  0  0  0  0  0  0  0
    4.1041    0.2573    5.6104 C   0  0  0  0  0  0  0  0  0  0  0  0
    3.7276    0.8095    6.4676 H   0  0  0  0  0  0  0  0  0  0  0  0
    4.9258   -0.3714    5.9419 H   0  0  0  0  0  0  0  0  0  0  0  0
    3.3064   -0.3813    5.2352 H   0  0  0  0  0  0  0  0  0  0  0  0
    5.6687    2.1564    5.0043 C   0  0  0  0  0  0  0  0  0  0  0  0
    5.9384    2.8584    4.2181 H   0  0  0  0  0  0  0  0  0  0  0  0
    6.5539    1.5913    5.2825 H   0  0  0  0  0  0  0  0  0  0  0  0
    5.3379    2.7180    5.8739 H   0  0  0  0  0  0  0  0  0  0  0  0
    0.7234    2.9627    1.9681 C   0  0  0  0  0  0  0  0  0  0  0  0
    1.1965    2.6786    1.0021 H   0  0  0  0  0  0  0  0  0  0  0  0
   -0.1221    2.2906    2.1624 H   0  0  0  0  0  0  0  0  0  0  0  0
    0.2590    4.3891    1.9062 C   0  0  0  0  0  0  0  0  0  0  0  0
    1.2113    5.3897    1.6470 C   0  0  0  0  0  0  0  0  0  0  0  0
    3.4877    5.8857    1.1561 C   0  0  0  0  0  0  0  0  0  0  0  0
    3.2502    6.4245    0.2347 H   0  0  0  0  0  0  0  0  0  0  0  0
    4.3884    5.2942    1.0024 H   0  0  0  0  0  0  0  0  0  0  0  0
    3.6449    6.5999    1.9707 H   0  0  0  0  0  0  0  0  0  0  0  0
    0.8025    6.7171    1.5865 C   0  0  0  0  0  0  0  0  0  0  0  0
    1.5155    7.5018    1.3896 H   0  0  0  0  0  0  0  0  0  0  0  0
   -0.5302    7.0417    1.7780 C   0  0  0  0  0  0  0  0  0  0  0  0
   -0.8324    8.0772    1.7276 H   0  0  0  0  0  0  0  0  0  0  0  0
   -1.4680    6.0585    2.0313 C   0  0  0  0  0  0  0  0  0  0  0  0
   -2.5049    6.3176    2.1786 H   0  0  0  0  0  0  0  0  0  0  0  0
   -1.0662    4.7341    2.0967 C   0  0  0  0  0  0  0  0  0  0  0  0
   -1.7908    3.9573    2.2940 H   0  0  0  0  0  0  0  0  0  0  0  0
    2.2078   -0.0251   -1.3719 C   0  0  0  0  0  3  0  0  0  0  0  0
    1.3789    0.6457   -1.1456 H   0  0  0  0  0  0  0  0  0  0  0  0
    2.2473   -0.7384   -2.5564 C   0  0  0  0  0  0  0  0  0  0  0  0
    1.4525   -0.6315   -3.2773 H   0  0  0  0  0  0  0  0  0  0  0  0
    3.3196   -1.5860   -2.7888 C   0  0  0  0  0  0  0  0  0  0  0  0
    3.3800   -2.1582   -3.7019 H   0  0  0  0  0  0  0  0  0  0  0  0
    4.3125   -1.6822   -1.8262 C   0  0  0  0  0  0  0  0  0  0  0  0
    5.1654   -2.3270   -1.9656 H   0  0  0  0  0  0  0  0  0  0  0  0
    4.1976   -0.9291   -0.6714 C   0  0  0  0  0  0  0  0  0  0  0  0
    4.9599   -0.9637    0.1055 H   0  0  0  0  0  0  0  0  0  0  0  0
  1  3  1  0  0  0  0
  1  8  2  0  0  0  0
  2  1  1  0  0  0  0
  4 30  1  0  0  0  0
  5 13  1  0  0  0  0
  5  9  1  0  0  0  0
  6 11  1  0  0  0  0
  7  1  1  0  0  0  0
  8  6  1  0  0  0  0
  8  5  1  0  0  0  0
  9 10  1  0  0  0  0
 11 12  1  0  0  0  0
 11  9  2  0  0  0  0
 13 22  1  0  0  0  0
 13 18  1  0  0  0  0
 14 16  1  0  0  0  0
 14 13  1  0  0  0  0
 15 14  1  0  0  0  0
 17 14  1  0  0  0  0
 18 20  1  0  0  0  0
 18 19  1  0  0  0  0
 21 18  1  0  0  0  0
 22 24  1  0  0  0  0
 22 25  1  0  0  0  0
 23 22  1  0  0  0  0
 26 28  1  0  0  0  0
 26  6  1  0  0  0  0
 27 26  1  0  0  0  0
 29 26  1  0  0  0  0
 29 41  1  0  0  0  0
 30 29  2  0  0  0  0
 31  4  1  0  0  0  0
 31 34  1  0  0  0  0
 32 31  1  0  0  0  0
 33 31  1  0  0  0  0
 35 30  1  0  0  0  0
 35 37  2  0  0  0  0
 36 35  1  0  0  0  0
 37 39  1  0  0  0  0
 38 37  1  0  0  0  0
 39 41  2  0  0  0  0
 39 40  1  0  0  0  0
 41 42  1  0  0  0  0
 43 44  1  0  0  0  0
 43  7  1  0  0  0  0
 45 43  1  0  0  0  0
 46 45  1  0  0  0  0
 47 45  2  0  0  0  0
 47 49  1  0  0  0  0
 48 47  1  0  0  0  0
 49 51  2  0  0  0  0
 50 49  1  0  0  0  0
 51  7  1  0  0  0  0
 51 52  1  0  0  0  0
M  END
$$$$
