CSD_code = SISKAJ | q = -1 | S = 0 | Stoichiometry = C6H6ClMoO9(1-) | MND = 6
 OpenBabel04212202093D

 23 23  0  0  0  0  0  0  0  0999 V2000
    2.3398    5.6630   14.0946 Mo  0  0  0  0  0  0  0  0  0  0  0  0
    0.1115    5.3611   14.2986 Cl  0  0  0  0  0  0  0  0  0  0  0  0
    1.9290    5.0906   12.1894 O   0  0  0  0  0  0  0  0  0  0  0  0
    3.9704    5.0438   13.4594 O   0  0  0  0  0  0  0  0  0  0  0  0
    2.7731    4.2932   10.2725 O   0  0  0  0  0  0  0  0  0  0  0  0
    4.4293    1.0569   12.7952 O   0  0  0  0  0  0  0  0  0  0  0  0
    5.2878    0.9879   12.3571 H   0  0  0  0  0  0  0  0  0  0  0  0
    2.8812    2.5668   13.2453 O   0  0  0  0  0  0  0  0  0  0  0  0
    2.4207    7.3201   13.9483 O   0  0  0  0  0  1  0  0  0  0  0  0
    3.5472    7.5398   11.0763 O   0  0  0  0  0  0  0  0  0  0  0  0
    4.7698    7.6097   12.9499 O   0  0  0  0  0  0  0  0  0  0  0  0
    3.9734    8.0264   13.3672 H   0  0  0  0  0  0  0  0  0  0  0  0
    2.6605    5.2522   15.6522 O   0  0  0  0  0  1  0  0  0  0  0  0
    2.8549    4.6911   11.4168 C   0  0  0  0  0  0  0  0  0  0  0  0
    4.8553    3.3107   12.0566 C   0  0  0  0  0  0  0  0  0  0  0  0
    4.9393    3.0320   11.0017 H   0  0  0  0  0  0  0  0  0  0  0  0
    5.8423    3.2924   12.5303 H   0  0  0  0  0  0  0  0  0  0  0  0
    4.2415    4.7205   12.1523 C   0  0  0  0  0  0  0  0  0  0  0  0
    3.9437    2.3207   12.7587 C   0  0  0  0  0  0  0  0  0  0  0  0
    4.4058    7.0827   11.7834 C   0  0  0  0  0  0  0  0  0  0  0  0
    5.1431    5.7922   11.4813 C   0  0  0  0  0  0  0  0  0  0  0  0
    6.1290    5.7977   11.9475 H   0  0  0  0  0  0  0  0  0  0  0  0
    5.1938    5.6072   10.4088 H   0  0  0  0  0  0  0  0  0  0  0  0
  1  2  1  0  0  0  0
  1 13  1  0  0  0  0
  3  1  1  0  0  0  0
  4  1  1  0  0  0  0
  5 14  2  0  0  0  0
  7  6  1  0  0  0  0
  9  1  1  0  0  0  0
 10 20  2  0  0  0  0
 11 12  1  0  0  0  0
 14 18  1  0  0  0  0
 14  3  1  0  0  0  0
 15 18  1  0  0  0  0
 15 17  1  0  0  0  0
 15 19  1  0  0  0  0
 16 15  1  0  0  0  0
 18  4  1  0  0  0  0
 19  6  1  0  0  0  0
 19  8  2  0  0  0  0
 20 11  1  0  0  0  0
 21 20  1  0  0  0  0
 21 22  1  0  0  0  0
 21 18  1  0  0  0  0
 23 21  1  0  0  0  0
M  END
$$$$
