CSD_code = SITHUA | q = 0 | S = 0 | Stoichiometry = C17H37ClN2O2P2W | MND = 6
 OpenBabel04212202093D

 62 63  0  0  0  0  0  0  0  0999 V2000
   -1.4750    2.3323   13.6345 C   0  0  0  0  0  2  0  0  0  0  0  0
   -2.0471    1.3694   13.9136 O   0  0  0  0  0  1  0  0  0  0  0  0
    1.5354    4.7509   10.6244 C   0  0  0  0  0  0  0  0  0  0  0  0
    2.4597    4.5392   10.0827 H   0  0  0  0  0  0  0  0  0  0  0  0
    0.8508    5.2746    9.9478 H   0  0  0  0  0  0  0  0  0  0  0  0
    1.8150    5.6380   11.8376 C   0  0  0  0  0  0  0  0  0  0  0  0
    2.5323    5.1510   12.5078 H   0  0  0  0  0  0  0  0  0  0  0  0
    2.2553    6.5935   11.5034 H   0  0  0  0  0  0  0  0  0  0  0  0
    0.7432    6.8117   13.6906 C   0  0  0  0  0  0  0  0  0  0  0  0
    1.1911    7.7566   13.3368 H   0  0  0  0  0  0  0  0  0  0  0  0
    1.4280    6.3650   14.4202 H   0  0  0  0  0  0  0  0  0  0  0  0
   -0.6108    7.0983   14.3399 C   0  0  0  0  0  0  0  0  0  0  0  0
   -1.2650    7.5824   13.6061 H   0  0  0  0  0  0  0  0  0  0  0  0
   -0.4929    7.7706   15.1924 H   0  0  0  0  0  0  0  0  0  0  0  0
    2.0090    1.9132   11.2575 C   0  0  0  0  0  0  0  0  0  0  0  0
    2.2801    1.6322   10.2330 H   0  0  0  0  0  0  0  0  0  0  0  0
    3.2512    2.4243   11.9803 C   0  0  0  0  0  0  0  0  0  0  0  0
    3.0004    2.7418   12.9892 H   0  0  0  0  0  0  0  0  0  0  0  0
    3.7240    3.2487   11.4509 H   0  0  0  0  0  0  0  0  0  0  0  0
    3.9802    1.6191   12.0599 H   0  0  0  0  0  0  0  0  0  0  0  0
    1.4422    0.7077   12.0028 C   0  0  0  0  0  0  0  0  0  0  0  0
    2.1916   -0.0779   12.0848 H   0  0  0  0  0  0  0  0  0  0  0  0
    0.5696    0.3005   11.4985 H   0  0  0  0  0  0  0  0  0  0  0  0
    1.1406    1.0095   13.0065 H   0  0  0  0  0  0  0  0  0  0  0  0
   -0.3279    2.8204    9.6539 C   0  0  0  0  0  0  0  0  0  0  0  0
   -0.8794    3.7570    9.4924 H   0  0  0  0  0  0  0  0  0  0  0  0
    0.4951    2.5085    8.4085 C   0  0  0  0  0  0  0  0  0  0  0  0
    0.9395    1.5175    8.4718 H   0  0  0  0  0  0  0  0  0  0  0  0
    1.2872    3.2397    8.2574 H   0  0  0  0  0  0  0  0  0  0  0  0
   -0.1521    2.5246    7.5329 H   0  0  0  0  0  0  0  0  0  0  0  0
   -1.3577    1.7306    9.9357 C   0  0  0  0  0  0  0  0  0  0  0  0
   -2.1099    1.7132    9.1487 H   0  0  0  0  0  0  0  0  0  0  0  0
   -1.8577    1.9270   10.8851 H   0  0  0  0  0  0  0  0  0  0  0  0
   -0.8943    0.7474    9.9814 H   0  0  0  0  0  0  0  0  0  0  0  0
   -1.0778    5.3065   16.6306 C   0  0  0  0  0  0  0  0  0  0  0  0
   -1.7116    6.0148   17.1770 H   0  0  0  0  0  0  0  0  0  0  0  0
    0.3842    5.5823   16.9675 C   0  0  0  0  0  0  0  0  0  0  0  0
    0.5516    5.3984   18.0278 H   0  0  0  0  0  0  0  0  0  0  0  0
    0.6655    6.6127   16.7611 H   0  0  0  0  0  0  0  0  0  0  0  0
    1.0355    4.9133   16.4107 H   0  0  0  0  0  0  0  0  0  0  0  0
   -1.4315    3.8734   17.0193 C   0  0  0  0  0  0  0  0  0  0  0  0
   -0.8196    3.1784   16.4431 H   0  0  0  0  0  0  0  0  0  0  0  0
   -2.4755    3.6502   16.8145 H   0  0  0  0  0  0  0  0  0  0  0  0
   -1.2443    3.7076   18.0789 H   0  0  0  0  0  0  0  0  0  0  0  0
   -3.2136    5.9746   14.6692 C   0  0  0  0  0  0  0  0  0  0  0  0
   -3.2717    6.3685   13.6450 H   0  0  0  0  0  0  0  0  0  0  0  0
   -3.6682    7.0564   15.6431 C   0  0  0  0  0  0  0  0  0  0  0  0
   -4.6447    7.4305   15.3393 H   0  0  0  0  0  0  0  0  0  0  0  0
   -2.9752    7.8957   15.6628 H   0  0  0  0  0  0  0  0  0  0  0  0
   -3.7665    6.6584   16.6510 H   0  0  0  0  0  0  0  0  0  0  0  0
   -4.1139    4.7445   14.7337 C   0  0  0  0  0  0  0  0  0  0  0  0
   -4.2049    4.3707   15.7512 H   0  0  0  0  0  0  0  0  0  0  0  0
   -3.7072    3.9519   14.1042 H   0  0  0  0  0  0  0  0  0  0  0  0
   -5.1116    4.9910   14.3739 H   0  0  0  0  0  0  0  0  0  0  0  0
    0.5821    5.8664   12.5880 N   0  0  0  0  0  4  0  0  0  0  0  0
   -0.1211    6.2457   11.9412 H   0  0  0  0  0  0  0  0  0  0  0  0
    0.6659    3.1980   11.1835 P   0  0  0  0  0  4  0  0  0  0  0  0
   -1.4217    5.4859   14.8114 P   0  0  0  0  0  4  0  0  0  0  0  0
   -0.4526    3.9592   13.1959 W   0  0  0  0  0  0  0  0  0  0  0  0
   -2.1066    4.8877   11.6600 Cl  0  0  0  0  0  0  0  0  0  0  0  0
    0.8451    3.4341   14.2736 N   0  0  0  0  0  2  0  0  0  0  0  0
    1.7499    3.1220   14.9923 O   0  0  0  0  0  1  0  0  0  0  0  0
  1  2  1  0  0  0  0
  3 57  1  0  0  0  0
  3  6  1  0  0  0  0
  4  3  1  0  0  0  0
  5  3  1  0  0  0  0
  6  7  1  0  0  0  0
  6 55  1  0  0  0  0
  8  6  1  0  0  0  0
  9 12  1  0  0  0  0
  9 11  1  0  0  0  0
 10  9  1  0  0  0  0
 12 58  1  0  0  0  0
 12 14  1  0  0  0  0
 13 12  1  0  0  0  0
 15 17  1  0  0  0  0
 15 21  1  0  0  0  0
 16 15  1  0  0  0  0
 17 20  1  0  0  0  0
 17 18  1  0  0  0  0
 19 17  1  0  0  0  0
 21 22  1  0  0  0  0
 21 24  1  0  0  0  0
 23 21  1  0  0  0  0
 25 31  1  0  0  0  0
 25 57  1  0  0  0  0
 26 25  1  0  0  0  0
 27 28  1  0  0  0  0
 27 25  1  0  0  0  0
 29 27  1  0  0  0  0
 30 27  1  0  0  0  0
 31 34  1  0  0  0  0
 31 33  1  0  0  0  0
 32 31  1  0  0  0  0
 35 37  1  0  0  0  0
 35 41  1  0  0  0  0
 35 36  1  0  0  0  0
 37 38  1  0  0  0  0
 39 37  1  0  0  0  0
 40 37  1  0  0  0  0
 41 44  1  0  0  0  0
 42 41  1  0  0  0  0
 43 41  1  0  0  0  0
 45 51  1  0  0  0  0
 45 58  1  0  0  0  0
 45 47  1  0  0  0  0
 46 45  1  0  0  0  0
 47 49  1  0  0  0  0
 47 50  1  0  0  0  0
 48 47  1  0  0  0  0
 51 52  1  0  0  0  0
 53 51  1  0  0  0  0
 54 51  1  0  0  0  0
 55 59  1  0  0  0  0
 55  9  1  0  0  0  0
 56 55  1  0  0  0  0
 57 15  1  0  0  0  0
 57 59  1  0  0  0  0
 58 35  1  0  0  0  0
 59  1  1  0  0  0  0
 59 61  1  0  0  0  0
 59 58  1  0  0  0  0
 60 59  1  0  0  0  0
 61 62  1  0  0  0  0
M  END
$$$$
