CSD_code = SITZIH | q = 0 | S = 0 | Stoichiometry = C32H29Cl2NNiP2 | MND = 4
 OpenBabel04212202093D

 67 72  0  0  0  0  0  0  0  0999 V2000
    0.2057   13.0795   18.4943 Ni  0  0  0  0  0  0  0  0  0  0  0  0
    2.1589   13.8358   18.3458 Cl  0  0  0  0  0  0  0  0  0  0  0  0
   -0.4073   14.1526   20.1857 Cl  0  0  0  0  0  0  0  0  0  0  0  0
   -1.8528   12.5340   18.4894 P   0  0  0  0  0  4  0  0  0  0  0  0
    0.8092   12.0930   16.7103 P   0  0  0  0  0  4  0  0  0  0  0  0
   -1.7501   11.3269   16.0033 N   0  0  0  0  0  0  0  0  0  0  0  0
    1.1271   13.2026   15.3121 C   0  0  0  0  0  0  0  0  0  0  0  0
   -2.7131   13.9460   17.7395 C   0  0  0  0  0  0  0  0  0  0  0  0
   -3.4423   13.1162   20.6924 C   0  0  0  0  0  0  0  0  0  0  0  0
   -3.3533   14.1418   20.3657 H   0  0  0  0  0  0  0  0  0  0  0  0
    2.2473   10.9932   16.8154 C   0  0  0  0  0  0  0  0  0  0  0  0
   -2.8203   12.1066   19.9623 C   0  0  0  0  0  0  0  0  0  0  0  0
    2.4133   13.6783   15.0754 C   0  0  0  0  0  0  0  0  0  0  0  0
    3.2243   13.3622   15.7149 H   0  0  0  0  0  0  0  0  0  0  0  0
    2.6528   10.5593   18.0720 C   0  0  0  0  0  0  0  0  0  0  0  0
    2.1472   10.9453   18.9517 H   0  0  0  0  0  0  0  0  0  0  0  0
   -3.6854   12.0750   14.7799 C   0  0  0  0  0  0  0  0  0  0  0  0
   -3.8984   12.7647   15.5821 H   0  0  0  0  0  0  0  0  0  0  0  0
   -2.5712   11.2370   14.8707 C   0  0  0  0  0  0  0  0  0  0  0  0
   -4.1014   14.0399   17.7013 C   0  0  0  0  0  0  0  0  0  0  0  0
   -4.7079   13.2821   18.1800 H   0  0  0  0  0  0  0  0  0  0  0  0
   -2.5384   15.9845   16.4759 C   0  0  0  0  0  0  0  0  0  0  0  0
   -1.9304   16.7390   15.9999 H   0  0  0  0  0  0  0  0  0  0  0  0
   -1.9369   14.9243   17.1285 C   0  0  0  0  0  0  0  0  0  0  0  0
   -0.8490   14.8563   17.1846 H   0  0  0  0  0  0  0  0  0  0  0  0
   -2.8803   10.7943   20.4204 C   0  0  0  0  0  0  0  0  0  0  0  0
   -2.3622   10.0066   19.8920 H   0  0  0  0  0  0  0  0  0  0  0  0
    3.7047    9.6703   18.1929 C   0  0  0  0  0  0  0  0  0  0  0  0
    4.0243    9.3404   19.1701 H   0  0  0  0  0  0  0  0  0  0  0  0
    2.6381   14.5654   14.0390 C   0  0  0  0  0  0  0  0  0  0  0  0
    3.6375   14.9312   13.8553 H   0  0  0  0  0  0  0  0  0  0  0  0
    3.9437    9.6345   15.8026 C   0  0  0  0  0  0  0  0  0  0  0  0
    4.4513    9.2748   14.9193 H   0  0  0  0  0  0  0  0  0  0  0  0
    2.8891   10.5200   15.6761 C   0  0  0  0  0  0  0  0  0  0  0  0
    2.5731   10.8574   14.6983 H   0  0  0  0  0  0  0  0  0  0  0  0
    0.0677   13.6469   14.5258 C   0  0  0  0  0  0  0  0  0  0  0  0
   -0.9380   13.3061   14.7260 H   0  0  0  0  0  0  0  0  0  0  0  0
    4.3517    9.2103   17.0575 C   0  0  0  0  0  0  0  0  0  0  0  0
    5.1788    8.5219   17.1494 H   0  0  0  0  0  0  0  0  0  0  0  0
    1.5857   14.9926   13.2451 C   0  0  0  0  0  0  0  0  0  0  0  0
    1.7648   15.6895   12.4396 H   0  0  0  0  0  0  0  0  0  0  0  0
   -3.9201   16.0766   16.4424 C   0  0  0  0  0  0  0  0  0  0  0  0
   -4.3939   16.9066   15.9396 H   0  0  0  0  0  0  0  0  0  0  0  0
    0.3015   14.5359   13.4927 C   0  0  0  0  0  0  0  0  0  0  0  0
   -0.5239   14.8764   12.8844 H   0  0  0  0  0  0  0  0  0  0  0  0
   -4.5014   12.0491   13.6670 C   0  0  0  0  0  0  0  0  0  0  0  0
   -5.3535   12.7112   13.6201 H   0  0  0  0  0  0  0  0  0  0  0  0
   -3.5880   10.4914   21.5700 C   0  0  0  0  0  0  0  0  0  0  0  0
   -3.6321    9.4700   21.9189 H   0  0  0  0  0  0  0  0  0  0  0  0
   -4.6990   15.1096   17.0596 C   0  0  0  0  0  0  0  0  0  0  0  0
   -5.7764   15.1875   17.0366 H   0  0  0  0  0  0  0  0  0  0  0  0
   -4.1472   12.8074   21.8400 C   0  0  0  0  0  0  0  0  0  0  0  0
   -4.6277   13.5950   22.4011 H   0  0  0  0  0  0  0  0  0  0  0  0
   -4.2256   11.1941   12.6130 C   0  0  0  0  0  0  0  0  0  0  0  0
   -4.8607   11.1784   11.7407 H   0  0  0  0  0  0  0  0  0  0  0  0
   -2.3080   10.3721   13.8081 C   0  0  0  0  0  0  0  0  0  0  0  0
   -1.4760    9.6852   13.8493 H   0  0  0  0  0  0  0  0  0  0  0  0
   -3.1259   10.3587   12.6933 C   0  0  0  0  0  0  0  0  0  0  0  0
   -2.9043    9.6772   11.8849 H   0  0  0  0  0  0  0  0  0  0  0  0
   -4.2277   11.4950   22.2774 C   0  0  0  0  0  0  0  0  0  0  0  0
   -4.7766   11.2562   23.1762 H   0  0  0  0  0  0  0  0  0  0  0  0
   -0.3874   10.8639   15.9343 C   0  0  0  0  0  0  0  0  0  0  0  0
   -0.0807   10.7540   14.8924 H   0  0  0  0  0  0  0  0  0  0  0  0
   -0.2557    9.8938   16.4441 H   0  0  0  0  0  0  0  0  0  0  0  0
   -2.3708   11.1761   17.3007 C   0  0  0  0  0  0  0  0  0  0  0  0
   -2.0867   10.2040   17.7357 H   0  0  0  0  0  0  0  0  0  0  0  0
   -3.4594   11.1946   17.1968 H   0  0  0  0  0  0  0  0  0  0  0  0
  1  3  1  0  0  0  0
  2  1  1  0  0  0  0
  4  1  1  0  0  0  0
  4 12  1  0  0  0  0
  5 11  1  0  0  0  0
  5  1  1  0  0  0  0
  6 65  1  0  0  0  0
  7  5  1  0  0  0  0
  8  4  1  0  0  0  0
  9 52  1  0  0  0  0
 10  9  1  0  0  0  0
 11 15  1  0  0  0  0
 12 26  1  0  0  0  0
 12  9  2  0  0  0  0
 13  7  1  0  0  0  0
 13 14  1  0  0  0  0
 15 28  2  0  0  0  0
 15 16  1  0  0  0  0
 17 19  1  0  0  0  0
 17 18  1  0  0  0  0
 19  6  1  0  0  0  0
 20  8  1  0  0  0  0
 20 21  1  0  0  0  0
 22 24  1  0  0  0  0
 23 22  1  0  0  0  0
 24 25  1  0  0  0  0
 24  8  2  0  0  0  0
 26 48  2  0  0  0  0
 27 26  1  0  0  0  0
 28 29  1  0  0  0  0
 30 13  2  0  0  0  0
 31 30  1  0  0  0  0
 32 38  2  0  0  0  0
 33 32  1  0  0  0  0
 34 32  1  0  0  0  0
 34 11  2  0  0  0  0
 35 34  1  0  0  0  0
 36 37  1  0  0  0  0
 36  7  2  0  0  0  0
 38 39  1  0  0  0  0
 38 28  1  0  0  0  0
 40 44  2  0  0  0  0
 40 30  1  0  0  0  0
 41 40  1  0  0  0  0
 42 22  2  0  0  0  0
 42 50  1  0  0  0  0
 43 42  1  0  0  0  0
 44 36  1  0  0  0  0
 45 44  1  0  0  0  0
 46 17  2  0  0  0  0
 47 46  1  0  0  0  0
 48 49  1  0  0  0  0
 48 60  1  0  0  0  0
 50 20  2  0  0  0  0
 51 50  1  0  0  0  0
 52 60  2  0  0  0  0
 52 53  1  0  0  0  0
 54 58  2  0  0  0  0
 54 46  1  0  0  0  0
 55 54  1  0  0  0  0
 56 57  1  0  0  0  0
 56 19  2  0  0  0  0
 58 56  1  0  0  0  0
 59 58  1  0  0  0  0
 60 61  1  0  0  0  0
 62  6  1  0  0  0  0
 62 64  1  0  0  0  0
 62  5  1  0  0  0  0
 63 62  1  0  0  0  0
 65 66  1  0  0  0  0
 65  4  1  0  0  0  0
 67 65  1  0  0  0  0
M  END
$$$$
