CSD_code = SIVDAD | q = 0 | S = 0 | Stoichiometry = C18H15Cl5OPTa | MND = 6
 OpenBabel04212202093D

 41 43  0  0  0  0  0  0  0  0999 V2000
    8.4715   12.0676   16.7565 Ta  0  0  0  0  0  0  0  0  0  0  0  0
    7.0644   12.1407   18.6051 Cl  0  0  0  0  0  0  0  0  0  0  0  0
    8.1139    9.8867   16.4343 Cl  0  0  0  0  0  0  0  0  0  0  0  0
   10.3004   11.8974   18.1265 Cl  0  0  0  0  0  0  0  0  0  0  0  0
    9.8520   12.2045   14.8895 Cl  0  0  0  0  0  0  0  0  0  0  0  0
    6.6693   12.8566   15.4551 Cl  0  0  0  0  0  0  0  0  0  0  0  0
    8.7465   14.2122   17.0003 O   0  0  0  0  0  0  0  0  0  0  0  0
    7.7280   15.3105   16.7874 P   0  0  0  0  0  4  0  0  0  0  0  0
    8.4574   16.8068   17.5135 C   0  0  0  0  0  0  0  0  0  0  0  0
    9.8316   16.8519   17.7053 C   0  0  0  0  0  0  0  0  0  0  0  0
   10.4242   15.9840   17.4547 H   0  0  0  0  0  0  0  0  0  0  0  0
   10.4177   17.9915   18.2277 C   0  0  0  0  0  0  0  0  0  0  0  0
   11.4855   18.0256   18.3830 H   0  0  0  0  0  0  0  0  0  0  0  0
    9.6331   19.0861   18.5520 C   0  0  0  0  0  0  0  0  0  0  0  0
   10.0897   19.9748   18.9616 H   0  0  0  0  0  0  0  0  0  0  0  0
    8.2612   19.0431   18.3564 C   0  0  0  0  0  0  0  0  0  0  0  0
    7.6513   19.8961   18.6138 H   0  0  0  0  0  0  0  0  0  0  0  0
    7.6715   17.9060   17.8354 C   0  0  0  0  0  0  0  0  0  0  0  0
    6.6009   17.8612   17.6923 H   0  0  0  0  0  0  0  0  0  0  0  0
    7.4938   15.7479   15.0463 C   0  0  0  0  0  0  0  0  0  0  0  0
    8.3913   15.2585   14.1062 C   0  0  0  0  0  0  0  0  0  0  0  0
    9.1640   14.5678   14.4144 H   0  0  0  0  0  0  0  0  0  0  0  0
    8.2687   15.6388   12.7821 C   0  0  0  0  0  0  0  0  0  0  0  0
    8.9558   15.2476   12.0483 H   0  0  0  0  0  0  0  0  0  0  0  0
    7.2629   16.5122   12.4008 C   0  0  0  0  0  0  0  0  0  0  0  0
    7.1632   16.8014   11.3654 H   0  0  0  0  0  0  0  0  0  0  0  0
    6.3832   17.0170   13.3451 C   0  0  0  0  0  0  0  0  0  0  0  0
    5.6041   17.7026   13.0470 H   0  0  0  0  0  0  0  0  0  0  0  0
    6.4995   16.6424   14.6715 C   0  0  0  0  0  0  0  0  0  0  0  0
    5.8200   17.0374   15.4120 H   0  0  0  0  0  0  0  0  0  0  0  0
    6.1833   15.0728   17.7095 C   0  0  0  0  0  0  0  0  0  0  0  0
    6.3176   15.1005   19.0948 C   0  0  0  0  0  0  0  0  0  0  0  0
    7.3008   15.2348   19.5268 H   0  0  0  0  0  0  0  0  0  0  0  0
    5.2056   14.9372   19.8979 C   0  0  0  0  0  0  0  0  0  0  0  0
    5.3098   14.9438   20.9722 H   0  0  0  0  0  0  0  0  0  0  0  0
    3.9594   14.7558   19.3189 C   0  0  0  0  0  0  0  0  0  0  0  0
    3.0901   14.6223   19.9451 H   0  0  0  0  0  0  0  0  0  0  0  0
    3.8261   14.7385   17.9405 C   0  0  0  0  0  0  0  0  0  0  0  0
    2.8546   14.5928   17.4930 H   0  0  0  0  0  0  0  0  0  0  0  0
    4.9362   14.8971   17.1285 C   0  0  0  0  0  0  0  0  0  0  0  0
    4.8389   14.8628   16.0544 H   0  0  0  0  0  0  0  0  0  0  0  0
  1  7  1  0  0  0  0
  1  4  1  0  0  0  0
  1  2  1  0  0  0  0
  3  1  1  0  0  0  0
  5  1  1  0  0  0  0
  6  1  1  0  0  0  0
  8  7  1  0  0  0  0
  8  9  1  0  0  0  0
  8 31  1  0  0  0  0
  9 10  2  0  0  0  0
  9 18  1  0  0  0  0
 10 12  1  0  0  0  0
 11 10  1  0  0  0  0
 12 13  1  0  0  0  0
 12 14  2  0  0  0  0
 14 15  1  0  0  0  0
 16 14  1  0  0  0  0
 16 17  1  0  0  0  0
 18 16  2  0  0  0  0
 19 18  1  0  0  0  0
 20  8  1  0  0  0  0
 21 22  1  0  0  0  0
 21 20  2  0  0  0  0
 23 21  1  0  0  0  0
 24 23  1  0  0  0  0
 25 23  2  0  0  0  0
 25 27  1  0  0  0  0
 26 25  1  0  0  0  0
 27 29  2  0  0  0  0
 28 27  1  0  0  0  0
 29 20  1  0  0  0  0
 29 30  1  0  0  0  0
 31 32  1  0  0  0  0
 32 33  1  0  0  0  0
 32 34  2  0  0  0  0
 34 35  1  0  0  0  0
 36 34  1  0  0  0  0
 36 37  1  0  0  0  0
 38 36  2  0  0  0  0
 39 38  1  0  0  0  0
 40 31  2  0  0  0  0
 40 38  1  0  0  0  0
 41 40  1  0  0  0  0
M  END
$$$$
