CSD_code = SIVLOB | q = 0 | S = 0 | Stoichiometry = C19H36ClIrN2Si | MND = 5
 OpenBabel04212202093D

 60 62  0  0  1  0  0  0  0  0999 V2000
    2.1574    1.7366    0.2945 Ir  0  0  0  0  0  0  0  0  0  0  0  0
    1.9850    0.4914    1.1518 H   0  0  0  0  0  0  0  0  0  0  0  0
    4.3952    1.5175    0.0707 Cl  0  0  0  0  0  0  0  0  0  0  0  0
    2.1790    3.1866    2.1337 Si  0  0  0  0  0  0  0  0  0  0  0  0
    0.2185    2.1545    0.1826 N   0  0  0  0  0  0  0  0  0  0  0  0
    1.7437    1.3402   -2.0738 N   0  0  0  0  0  4  0  0  0  0  0  0
    2.5931    4.9917    1.4617 C   0  0  0  0  0  0  0  0  0  0  0  0
    1.7149    5.2613    0.2375 C   0  0  0  0  0  0  0  0  0  0  0  0
    0.6575    5.2309    0.4923 H   0  0  0  0  0  0  0  0  0  0  0  0
    1.9047    4.5237   -0.5402 H   0  0  0  0  0  0  0  0  0  0  0  0
    1.9342    6.2452   -0.1790 H   0  0  0  0  0  0  0  0  0  0  0  0
    4.0542    5.0945    1.0254 C   0  0  0  0  0  0  0  0  0  0  0  0
    4.2364    6.0482    0.5288 H   0  0  0  0  0  0  0  0  0  0  0  0
    4.3149    4.2937    0.3393 H   0  0  0  0  0  0  0  0  0  0  0  0
    4.7225    5.0255    1.8770 H   0  0  0  0  0  0  0  0  0  0  0  0
    2.3088    6.0734    2.5027 C   0  0  0  0  0  0  0  0  0  0  0  0
    2.9694    5.9711    3.3588 H   0  0  0  0  0  0  0  0  0  0  0  0
    1.2796    6.0247    2.8503 H   0  0  0  0  0  0  0  0  0  0  0  0
    2.4736    7.0613    2.0709 H   0  0  0  0  0  0  0  0  0  0  0  0
    2.9575    2.7302    3.8710 C   0  0  0  0  0  0  0  0  0  0  0  0
    4.4359    3.1053    3.9182 C   0  0  0  0  0  0  0  0  0  0  0  0
    4.5687    4.1835    3.9066 H   0  0  0  0  0  0  0  0  0  0  0  0
    4.9600    2.6778    3.0689 H   0  0  0  0  0  0  0  0  0  0  0  0
    4.8929    2.7236    4.8309 H   0  0  0  0  0  0  0  0  0  0  0  0
    2.8481    1.2195    4.0764 C   0  0  0  0  0  0  0  0  0  0  0  0
    3.2585    0.9427    5.0465 H   0  0  0  0  0  0  0  0  0  0  0  0
    3.3984    0.6954    3.3015 H   0  0  0  0  0  0  0  0  0  0  0  0
    1.8135    0.8918    4.0354 H   0  0  0  0  0  0  0  0  0  0  0  0
    2.2228    3.4264    5.0177 C   0  0  0  0  0  0  0  0  0  0  0  0
    1.1811    3.1210    5.0530 H   0  0  0  0  0  0  0  0  0  0  0  0
    2.2606    4.5071    4.9198 H   0  0  0  0  0  0  0  0  0  0  0  0
    2.6847    3.1586    5.9676 H   0  0  0  0  0  0  0  0  0  0  0  0
    0.2345    3.1500    2.3908 C   0  0  0  0  0  0  0  0  0  0  0  0
    0.0296    2.2878    3.0225 H   0  0  0  0  0  0  0  0  0  0  0  0
   -0.1858    4.0234    2.8816 H   0  0  0  0  0  0  0  0  0  0  0  0
   -0.4270    2.9208    1.0872 C   0  0  2  0  0  3  0  0  0  0  0  0
   -1.6697    3.4713    0.7978 C   0  0  0  0  0  0  0  0  0  0  0  0
   -2.1548    4.0919    1.5350 H   0  0  0  0  0  0  0  0  0  0  0  0
   -2.2773    3.2216   -0.4198 C   0  0  0  0  0  0  0  0  0  0  0  0
   -3.2387    3.6482   -0.6595 H   0  0  0  0  0  0  0  0  0  0  0  0
   -1.6220    2.3978   -1.3222 C   0  0  0  0  0  0  0  0  0  0  0  0
   -2.0634    2.1605   -2.2777 H   0  0  0  0  0  0  0  0  0  0  0  0
   -0.3844    1.8776   -0.9873 C   0  0  0  0  0  0  0  0  0  0  0  0
    0.3437    0.9476   -1.9213 C   0  0  0  0  0  0  0  0  0  0  0  0
   -0.1849    0.9147   -2.8875 H   0  0  0  0  0  0  0  0  0  0  0  0
    0.3202   -0.0558   -1.4816 H   0  0  0  0  0  0  0  0  0  0  0  0
    2.5816    0.2464   -2.5671 C   0  0  0  0  0  0  0  0  0  0  0  0
    2.4650   -0.5860   -1.8672 H   0  0  0  0  0  0  0  0  0  0  0  0
    3.6208    0.5735   -2.5025 H   0  0  0  0  0  0  0  0  0  0  0  0
    2.2878   -0.2488   -3.9838 C   0  0  0  0  0  0  0  0  0  0  0  0
    1.2595   -0.5922   -4.0810 H   0  0  0  0  0  0  0  0  0  0  0  0
    2.9452   -1.0856   -4.2051 H   0  0  0  0  0  0  0  0  0  0  0  0
    2.4699    0.5254   -4.7259 H   0  0  0  0  0  0  0  0  0  0  0  0
    1.8261    2.5564   -2.8839 C   0  0  0  0  0  0  0  0  0  0  0  0
    1.1700    3.3002   -2.4152 H   0  0  0  0  0  0  0  0  0  0  0  0
    1.4276    2.3813   -3.8972 H   0  0  0  0  0  0  0  0  0  0  0  0
    3.2375    3.1228   -2.9736 C   0  0  0  0  0  0  0  0  0  0  0  0
    3.7222    3.1013   -1.9991 H   0  0  0  0  0  0  0  0  0  0  0  0
    3.1970    4.1536   -3.3194 H   0  0  0  0  0  0  0  0  0  0  0  0
    3.8513    2.5549   -3.6684 H   0  0  0  0  0  0  0  0  0  0  0  0
  1  2  1  0  0  0  0
  1  4  1  0  0  0  0
  3  1  1  0  0  0  0
  4 33  1  0  0  0  0
  4 20  1  0  0  0  0
  5  1  1  0  0  0  0
  5 36  1  0  0  0  0
  6 44  1  0  0  0  0
  6  1  1  0  0  0  0
  7  4  1  0  0  0  0
  7 16  1  0  0  0  0
  8  9  1  0  0  0  0
  8  7  1  0  0  0  0
 10  8  1  0  0  0  0
 11  8  1  0  0  0  0
 12  7  1  0  0  0  0
 12 15  1  0  0  0  0
 13 12  1  0  0  0  0
 14 12  1  0  0  0  0
 16 18  1  0  0  0  0
 16 17  1  0  0  0  0
 19 16  1  0  0  0  0
 20 21  1  0  0  0  0
 20 25  1  0  0  0  0
 20 29  1  0  0  0  0
 21 24  1  0  0  0  0
 22 21  1  0  0  0  0
 23 21  1  0  0  0  0
 25 26  1  0  0  0  0
 27 25  1  0  0  0  0
 28 25  1  0  0  0  0
 29 30  1  0  0  0  0
 29 32  1  0  0  0  0
 31 29  1  0  0  0  0
 33 35  1  0  0  0  0
 33 34  1  0  0  0  0
 36 37  1  1  0  0  0
 36 33  1  0  0  0  0
 37 38  1  0  0  0  0
 39 37  2  0  0  0  0
 40 39  1  0  0  0  0
 41 43  2  0  0  0  0
 41 39  1  0  0  0  0
 42 41  1  0  0  0  0
 43  5  1  0  0  0  0
 44 46  1  0  0  0  0
 44 43  1  0  0  0  0
 45 44  1  0  0  0  0
 47 49  1  0  0  0  0
 47  6  1  0  0  0  0
 47 48  1  0  0  0  0
 50 47  1  0  0  0  0
 51 50  1  0  0  0  0
 52 50  1  0  0  0  0
 53 50  1  0  0  0  0
 54 55  1  0  0  0  0
 54  6  1  0  0  0  0
 56 54  1  0  0  0  0
 57 54  1  0  0  0  0
 57 58  1  0  0  0  0
 59 57  1  0  0  0  0
 60 57  1  0  0  0  0
M  END
$$$$
