CSD_code = SIVSEW | q = 0 | S = 0 | Stoichiometry = C18H23BrN2NiO2 | MND = 4
 OpenBabel04212202093D

 47 51  0  0  1  0  0  0  0  0999 V2000
    2.9063    5.9726   10.5987 Br  0  0  0  0  0  0  0  0  0  0  0  0
    1.4494    5.9815    8.9618 Ni  0  0  2  0  0  0  0  0  0  0  0  0
   -1.4754    8.7363    9.1391 O   0  0  0  0  0  0  0  0  0  0  0  0
    1.9543    3.2393    6.0650 O   0  0  0  0  0  0  0  0  0  0  0  0
    0.3573    7.5185    9.5206 N   0  0  1  0  0  0  0  0  0  0  0  0
    2.1234    4.4470    7.9360 N   0  0  0  0  0  0  0  0  0  0  0  0
    0.2286    5.9884    7.5889 C   0  0  0  0  0  0  0  0  0  0  0  0
   -0.8086    6.9211    7.5867 C   0  0  0  0  0  0  0  0  0  0  0  0
   -1.7371    6.9271    6.5512 C   0  0  0  0  0  0  0  0  0  0  0  0
   -2.5458    7.6430    6.5472 H   0  0  0  0  0  0  0  0  0  0  0  0
   -1.6034    5.9994    5.5260 C   0  0  0  0  0  0  0  0  0  0  0  0
   -2.3205    6.0038    4.7184 H   0  0  0  0  0  0  0  0  0  0  0  0
   -0.5745    5.0662    5.5088 C   0  0  0  0  0  0  0  0  0  0  0  0
   -0.4872    4.3547    4.7009 H   0  0  0  0  0  0  0  0  0  0  0  0
    0.3439    5.0609    6.5532 C   0  0  0  0  0  0  0  0  0  0  0  0
   -0.6664    7.7556    8.7619 C   0  0  2  0  0  3  0  0  0  0  0  0
   -0.9567    9.2499   10.3697 C   0  0  0  0  0  0  0  0  0  0  0  0
   -1.6891    9.0527   11.1574 H   0  0  0  0  0  0  0  0  0  0  0  0
   -0.8310   10.3279   10.2606 H   0  0  0  0  0  0  0  0  0  0  0  0
    0.3777    8.4992   10.5957 C   0  0  2  0  0  0  0  0  0  0  0  0
    0.3892    7.9794   11.5603 H   0  0  0  0  0  0  0  0  0  0  0  0
    1.6376    9.3875   10.5203 C   0  0  0  0  0  0  0  0  0  0  0  0
    2.4936    8.7194   10.6527 H   0  0  0  0  0  0  0  0  0  0  0  0
    1.7770   10.0703    9.1620 C   0  0  0  0  0  0  0  0  0  0  0  0
    0.9463   10.7437    8.9565 H   0  0  0  0  0  0  0  0  0  0  0  0
    1.8272    9.3269    8.3668 H   0  0  0  0  0  0  0  0  0  0  0  0
    2.6960   10.6502    9.1375 H   0  0  0  0  0  0  0  0  0  0  0  0
    1.6479   10.3971   11.6634 C   0  0  0  0  0  0  0  0  0  0  0  0
    2.5864   10.9447   11.6572 H   0  0  0  0  0  0  0  0  0  0  0  0
    1.5575    9.8885   12.6199 H   0  0  0  0  0  0  0  0  0  0  0  0
    0.8350   11.1152   11.5737 H   0  0  0  0  0  0  0  0  0  0  0  0
    1.4896    4.2188    6.8286 C   0  0  0  0  0  0  0  0  0  0  0  0
    3.1128    2.7170    6.7220 C   0  0  0  0  0  0  0  0  0  0  0  0
    3.9823    2.9145    6.0889 H   0  0  0  0  0  0  0  0  0  0  0  0
    2.9854    1.6388    6.8277 H   0  0  0  0  0  0  0  0  0  0  0  0
    3.1832    3.4597    8.0781 C   0  0  2  0  0  0  0  0  0  0  0  0
    4.1425    3.9735    8.2067 H   0  0  0  0  0  0  0  0  0  0  0  0
    2.9547    2.5651    9.3149 C   0  0  0  0  0  0  0  0  0  0  0  0
    2.9885    3.2275   10.1846 H   0  0  0  0  0  0  0  0  0  0  0  0
    1.5860    1.8893    9.2889 C   0  0  0  0  0  0  0  0  0  0  0  0
    0.7941    2.6370    9.2507 H   0  0  0  0  0  0  0  0  0  0  0  0
    1.4506    1.3035   10.1943 H   0  0  0  0  0  0  0  0  0  0  0  0
    1.4761    1.2227    8.4350 H   0  0  0  0  0  0  0  0  0  0  0  0
    4.0838    1.5491    9.4538 C   0  0  0  0  0  0  0  0  0  0  0  0
    3.9637    0.9949   10.3805 H   0  0  0  0  0  0  0  0  0  0  0  0
    5.0466    2.0530    9.4815 H   0  0  0  0  0  0  0  0  0  0  0  0
    4.0881    0.8371    8.6306 H   0  0  0  0  0  0  0  0  0  0  0  0
  2  5  1  0  0  0  0
  2  1  1  6  0  0  0
  3 17  1  0  0  0  0
  4 33  1  0  0  0  0
  4 32  1  0  0  0  0
  5 20  1  0  0  0  0
  6 36  1  0  0  0  0
  6  2  1  0  0  0  0
  7  2  2  0  0  0  0
  8  7  1  0  0  0  0
  8 16  1  0  0  0  0
  9  8  2  0  0  0  0
 10  9  1  0  0  0  0
 11  9  1  0  0  0  0
 12 11  1  0  0  0  0
 13 11  2  0  0  0  0
 13 15  1  0  0  0  0
 14 13  1  0  0  0  0
 15 32  2  0  0  0  0
 15  7  1  0  0  0  0
 16  3  1  0  0  0  0
 16  5  1  0  0  0  0
 17 20  1  0  0  0  0
 17 18  1  0  0  0  0
 19 17  1  0  0  0  0
 20 21  1  0  0  0  0
 22 20  1  0  0  0  0
 22 23  1  0  0  0  0
 22 28  1  0  0  0  0
 24 22  1  0  0  0  0
 25 24  1  0  0  0  0
 26 24  1  0  0  0  0
 27 24  1  0  0  0  0
 28 30  1  0  0  0  0
 29 28  1  0  0  0  0
 31 28  1  0  0  0  0
 32  6  1  0  0  0  0
 33 35  1  0  0  0  0
 33 36  1  0  0  0  0
 34 33  1  0  0  0  0
 36 37  1  0  0  0  0
 36 38  1  0  0  0  0
 38 44  1  0  0  0  0
 38 39  1  0  0  0  0
 40 38  1  0  0  0  0
 40 42  1  0  0  0  0
 41 40  1  0  0  0  0
 43 40  1  0  0  0  0
 44 46  1  0  0  0  0
 44 45  1  0  0  0  0
 47 44  1  0  0  0  0
M  END
$$$$
