CSD_code = SIVSOI | q = 0 | S = 0 | Stoichiometry = C17H21ClN3Rh | MND = 6
 OpenBabel04212202093D

 43 44  0  0  1  0  0  0  0  0999 V2000
    6.9442    4.7031    2.7960 C   0  0  1  0  0  3  0  0  0  0  0  0
    5.7693    6.4755    1.5570 C   0  0  0  0  0  0  0  0  0  0  0  0
    5.6671    6.4769    0.4713 H   0  0  0  0  0  0  0  0  0  0  0  0
    6.6718    7.0339    1.8288 H   0  0  0  0  0  0  0  0  0  0  0  0
    4.8913    6.9475    2.0037 H   0  0  0  0  0  0  0  0  0  0  0  0
    5.0681    4.0952    1.7529 C   0  0  0  0  0  0  0  0  0  0  0  0
    4.1932    4.2227    1.1488 H   0  0  0  0  0  0  0  0  0  0  0  0
    5.5605    2.9939    2.3594 C   0  0  0  0  0  0  0  0  0  0  0  0
    5.2080    1.9835    2.3589 H   0  0  0  0  0  0  0  0  0  0  0  0
    7.5459    2.5277    3.7458 C   0  0  0  0  0  0  0  0  0  0  0  0
    7.0028    1.4895    4.4984 C   0  0  0  0  0  0  0  0  0  0  0  0
    5.9391    1.3106    4.5203 H   0  0  0  0  0  0  0  0  0  0  0  0
    7.8659    0.7048    5.2463 C   0  0  0  0  0  0  0  0  0  0  0  0
    7.4874   -0.1090    5.8506 H   0  0  0  0  0  0  0  0  0  0  0  0
    9.6843    1.8693    4.5623 C   0  0  0  0  0  0  0  0  0  0  0  0
   10.7596    1.9746    4.6139 H   0  0  0  0  0  0  0  0  0  0  0  0
    8.9271    2.7160    3.7694 C   0  0  0  0  0  0  0  0  0  0  0  0
    9.3899    3.4910    3.1632 H   0  0  0  0  0  0  0  0  0  0  0  0
    8.2303    5.6288    5.4458 C   0  0  0  0  0  3  0  0  0  0  0  0
    7.6774    4.7201    5.6837 H   0  0  0  0  0  0  0  0  0  0  0  0
    9.5081    5.7960    6.2411 C   0  0  0  0  0  0  0  0  0  0  0  0
    9.5848    4.9796    6.9623 H   0  0  0  0  0  0  0  0  0  0  0  0
    9.4521    6.7248    6.8115 H   0  0  0  0  0  0  0  0  0  0  0  0
   10.7671    5.7857    5.3514 C   0  0  0  0  0  0  0  0  0  0  0  0
   11.5589    6.3829    5.8171 H   0  0  0  0  0  0  0  0  0  0  0  0
   11.1377    4.7606    5.2776 H   0  0  0  0  0  0  0  0  0  0  0  0
   10.5181    6.2998    3.9518 C   0  0  0  0  0  3  0  0  0  0  0  0
   11.1882    5.8833    3.1988 H   0  0  0  0  0  0  0  0  0  0  0  0
    9.8603    7.4723    3.6503 C   0  0  0  0  0  3  0  0  0  0  0  0
   10.0188    7.9056    2.6631 H   0  0  0  0  0  0  0  0  0  0  0  0
    9.3494    8.4327    4.7012 C   0  0  0  0  0  0  0  0  0  0  0  0
    9.4296    9.4532    4.3210 H   0  0  0  0  0  0  0  0  0  0  0  0
    9.9876    8.3661    5.5834 H   0  0  0  0  0  0  0  0  0  0  0  0
    7.8820    8.1574    5.0785 C   0  0  0  0  0  0  0  0  0  0  0  0
    7.6889    8.4910    6.1046 H   0  0  0  0  0  0  0  0  0  0  0  0
    7.2315    8.7431    4.4230 H   0  0  0  0  0  0  0  0  0  0  0  0
    7.4892    6.7030    4.9450 C   0  0  1  0  0  0  0  0  0  0  0  0
    6.4095    6.5650    4.8604 H   0  0  0  0  0  0  0  0  0  0  0  0
    5.9215    5.1295    2.0363 N   0  0  0  0  0  0  0  0  0  0  0  0
    6.7226    3.3746    2.9930 N   0  0  0  0  0  0  0  0  0  0  0  0
    9.1732    0.8887    5.2875 N   0  0  0  0  0  0  0  0  0  0  0  0
    9.1772    5.5123    1.1646 Cl  0  0  0  0  0 15  0  0  0  0  0  0
    8.5159    5.7885    3.3441 Rh  0  0  0  0  0  0  0  0  0  0  0  0
  1 40  1  0  0  0  0
  1 43  1  6  0  0  0
  2  4  1  0  0  0  0
  2  5  1  0  0  0  0
  2 39  1  0  0  0  0
  3  2  1  0  0  0  0
  6 39  1  0  0  0  0
  6  8  2  0  0  0  0
  7  6  1  0  0  0  0
  8 40  1  0  0  0  0
  9  8  1  0  0  0  0
 10 17  2  0  0  0  0
 10 11  1  0  0  0  0
 11 12  1  0  0  0  0
 11 13  2  0  0  0  0
 13 41  1  0  0  0  0
 13 14  1  0  0  0  0
 15 16  1  0  0  0  0
 15 41  2  0  0  0  0
 17 15  1  0  0  0  0
 18 17  1  0  0  0  0
 19 20  1  0  0  0  0
 19 21  1  0  0  0  0
 21 23  1  0  0  0  0
 21 22  1  0  0  0  0
 24 25  1  0  0  0  0
 24 21  1  0  0  0  0
 26 24  1  0  0  0  0
 27 24  1  0  0  0  0
 28 27  1  0  0  0  0
 29 27  1  0  0  0  0
 29 31  1  0  0  0  0
 30 29  1  0  0  0  0
 31 34  1  0  0  0  0
 31 33  1  0  0  0  0
 32 31  1  0  0  0  0
 34 35  1  0  0  0  0
 36 34  1  0  0  0  0
 37 38  1  6  0  0  0
 37 34  1  0  0  0  0
 37 19  1  0  0  0  0
 39  1  1  0  0  0  0
 40 10  1  0  0  0  0
 43 37  1  0  0  0  0
M  END
$$$$
