CSD_code = SIWDUY | q = 0 | S = 0 | Stoichiometry = C10H12ClNOPd | MND = 4
 OpenBabel04212202093D

 26 27  0  0  0  0  0  0  0  0999 V2000
    6.2112    5.8144   -0.0123 Pd  0  0  0  0  0  0  0  0  0  0  0  0
    7.4885    6.6232   -1.6034 Cl  0  0  0  0  0  0  0  0  0  0  0  0
    8.0854    5.8461    1.3122 O   0  0  0  0  0  0  0  0  0  0  0  0
    8.7929    6.4734    1.1112 H   0  0  0  0  0  0  0  0  0  0  0  0
    5.0978    5.1299    1.5058 N   0  0  0  0  0  0  0  0  0  0  0  0
    4.5074    5.6408   -0.9969 C   0  0  0  0  0  0  0  0  0  0  0  0
    4.2017    5.9265   -2.3200 C   0  0  0  0  0  0  0  0  0  0  0  0
    4.9628    6.3206   -2.9811 H   0  0  0  0  0  0  0  0  0  0  0  0
    2.9176    5.7115   -2.8041 C   0  0  0  0  0  0  0  0  0  0  0  0
    2.6930    5.9400   -3.8361 H   0  0  0  0  0  0  0  0  0  0  0  0
    1.9187    5.2081   -1.9812 C   0  0  0  0  0  0  0  0  0  0  0  0
    0.9260    5.0468   -2.3752 H   0  0  0  0  0  0  0  0  0  0  0  0
    2.1949    4.9153   -0.6614 C   0  0  0  0  0  0  0  0  0  0  0  0
    1.4248    4.5240   -0.0111 H   0  0  0  0  0  0  0  0  0  0  0  0
    3.4822    5.1294   -0.1640 C   0  0  0  0  0  0  0  0  0  0  0  0
    3.8777    4.8699    1.1921 C   0  0  0  0  0  0  0  0  0  0  0  0
    3.1707    4.4772    1.9256 H   0  0  0  0  0  0  0  0  0  0  0  0
    5.5817    4.9280    2.8479 C   0  0  0  0  0  0  0  0  0  0  0  0
    4.9175    4.2366    3.3875 H   0  0  0  0  0  0  0  0  0  0  0  0
    5.5638    5.8924    3.3751 H   0  0  0  0  0  0  0  0  0  0  0  0
    7.0142    4.3699    2.8601 C   0  0  0  0  0  0  0  0  0  0  0  0
    7.1899    3.8706    3.8135 H   0  0  0  0  0  0  0  0  0  0  0  0
    7.1118    3.6327    2.0544 H   0  0  0  0  0  0  0  0  0  0  0  0
    8.0999    5.4302    2.6625 C   0  0  0  0  0  0  0  0  0  0  0  0
    7.9261    6.2844    3.3340 H   0  0  0  0  0  0  0  0  0  0  0  0
    9.0785    4.9893    2.9000 H   0  0  0  0  0  0  0  0  0  0  0  0
  1  5  1  0  0  0  0
  2  1  1  0  0  0  0
  3 24  1  0  0  0  0
  4  3  1  0  0  0  0
  5 18  1  0  0  0  0
  6 15  1  0  0  0  0
  6  1  2  0  0  0  0
  7  6  1  0  0  0  0
  8  7  1  0  0  0  0
  9  7  2  0  0  0  0
  9 11  1  0  0  0  0
 10  9  1  0  0  0  0
 11 13  2  0  0  0  0
 12 11  1  0  0  0  0
 13 15  1  0  0  0  0
 13 14  1  0  0  0  0
 15 16  2  0  0  0  0
 16  5  1  0  0  0  0
 16 17  1  0  0  0  0
 18 21  1  0  0  0  0
 18 20  1  0  0  0  0
 18 19  1  0  0  0  0
 21 22  1  0  0  0  0
 23 21  1  0  0  0  0
 24 21  1  0  0  0  0
 24 26  1  0  0  0  0
 24 25  1  0  0  0  0
M  END
$$$$
