CSD_code = SIWDAE | q = 0 | S = 0 | Stoichiometry = C29H29ClNOPPd | MND = 4
 OpenBabel04212202093D

 63 67  0  0  0  0  0  0  0  0999 V2000
    6.3932    4.8020    8.7836 Pd  0  0  2  0  0  0  0  0  0  0  0  0
    7.4918    3.4055   10.1227 P   0  0  0  0  0  4  0  0  0  0  0  0
    8.2619    6.1835    8.9171 Cl  0  0  0  0  0  0  0  0  0  0  0  0
    3.5851    7.3981    9.4315 O   0  0  0  0  0  0  0  0  0  0  0  0
    5.3368    6.0797    7.5542 N   0  0  0  0  0  0  0  0  0  0  0  0
    4.8481    3.5771    8.3622 C   0  0  0  0  0  0  0  0  0  0  0  0
    4.5891    2.2508    8.6907 C   0  0  0  0  0  0  0  0  0  0  0  0
    5.2605    1.7084    9.3477 H   0  0  0  0  0  0  0  0  0  0  0  0
    3.4773    1.5859    8.1942 C   0  0  0  0  0  0  0  0  0  0  0  0
    3.3034    0.5562    8.4744 H   0  0  0  0  0  0  0  0  0  0  0  0
    2.5890    2.2255    7.3420 C   0  0  0  0  0  0  0  0  0  0  0  0
    1.7243    1.6996    6.9641 H   0  0  0  0  0  0  0  0  0  0  0  0
    2.8248    3.5341    6.9740 C   0  0  0  0  0  0  0  0  0  0  0  0
    2.1525    4.0458    6.2990 H   0  0  0  0  0  0  0  0  0  0  0  0
    3.9457    4.2004    7.4707 C   0  0  0  0  0  0  0  0  0  0  0  0
    4.2468    5.5675    7.1316 C   0  0  0  0  0  0  0  0  0  0  0  0
    3.5389    6.1544    6.5405 H   0  0  0  0  0  0  0  0  0  0  0  0
    5.6027    7.4759    7.3420 C   0  0  0  0  0  0  0  0  0  0  0  0
    4.7995    7.9116    6.7308 H   0  0  0  0  0  0  0  0  0  0  0  0
    6.5542    7.5698    6.8068 H   0  0  0  0  0  0  0  0  0  0  0  0
    5.7161    8.2496    8.6763 C   0  0  0  0  0  0  0  0  0  0  0  0
    6.7609    8.2847    8.9881 H   0  0  0  0  0  0  0  0  0  0  0  0
    5.3540    9.2657    8.5200 H   0  0  0  0  0  0  0  0  0  0  0  0
    4.9336    7.5898    9.8102 C   0  0  0  0  0  0  0  0  0  0  0  0
    5.4099    6.6051   10.0527 H   0  0  0  0  0  0  0  0  0  0  0  0
    4.9873    8.2174   10.7138 H   0  0  0  0  0  0  0  0  0  0  0  0
    2.9147    6.4649   10.2333 C   0  0  0  0  0  0  0  0  0  0  0  0
    3.3938    5.4738   10.1687 H   0  0  0  0  0  0  0  0  0  0  0  0
    1.8968    6.3966    9.8539 H   0  0  0  0  0  0  0  0  0  0  0  0
    2.8911    6.7814   11.2842 H   0  0  0  0  0  0  0  0  0  0  0  0
    8.2483    2.0731    9.1425 C   0  0  0  0  0  0  0  0  0  0  0  0
    7.9699    2.0530    7.7781 C   0  0  0  0  0  0  0  0  0  0  0  0
    7.3157    2.8240    7.3557 H   0  0  0  0  0  0  0  0  0  0  0  0
    8.5312    1.0812    6.9692 C   0  0  0  0  0  0  0  0  0  0  0  0
    8.3158    1.0673    5.9110 H   0  0  0  0  0  0  0  0  0  0  0  0
    9.3764    0.1298    7.5173 C   0  0  0  0  0  0  0  0  0  0  0  0
    9.8134   -0.6309    6.8873 H   0  0  0  0  0  0  0  0  0  0  0  0
    9.6796    0.1641    8.8694 C   0  0  0  0  0  0  0  0  0  0  0  0
   10.3570   -0.5653    9.2895 H   0  0  0  0  0  0  0  0  0  0  0  0
    9.1266    1.1371    9.6819 C   0  0  0  0  0  0  0  0  0  0  0  0
    9.3942    1.1883   10.7288 H   0  0  0  0  0  0  0  0  0  0  0  0
    8.9077    3.9619   11.1220 C   0  0  0  0  0  0  0  0  0  0  0  0
   10.1329    4.1458   10.4852 C   0  0  0  0  0  0  0  0  0  0  0  0
   10.2219    3.9341    9.4284 H   0  0  0  0  0  0  0  0  0  0  0  0
   11.2195    4.6144   11.1970 C   0  0  0  0  0  0  0  0  0  0  0  0
   12.1658    4.7609   10.6976 H   0  0  0  0  0  0  0  0  0  0  0  0
   11.0930    4.9065   12.5461 C   0  0  0  0  0  0  0  0  0  0  0  0
   11.9430    5.2758   13.1009 H   0  0  0  0  0  0  0  0  0  0  0  0
    9.8746    4.7339   13.1800 C   0  0  0  0  0  0  0  0  0  0  0  0
    9.7721    4.9681   14.2298 H   0  0  0  0  0  0  0  0  0  0  0  0
    8.7805    4.2682   12.4717 C   0  0  0  0  0  0  0  0  0  0  0  0
    7.8279    4.1435   12.9687 H   0  0  0  0  0  0  0  0  0  0  0  0
    6.4294    2.6400   11.3945 C   0  0  0  0  0  0  0  0  0  0  0  0
    6.5457    1.3458   11.8823 C   0  0  0  0  0  0  0  0  0  0  0  0
    7.3007    0.6812   11.4895 H   0  0  0  0  0  0  0  0  0  0  0  0
    5.6718    0.8982   12.8590 C   0  0  0  0  0  0  0  0  0  0  0  0
    5.7596   -0.1116   13.2327 H   0  0  0  0  0  0  0  0  0  0  0  0
    4.6867    1.7354   13.3553 C   0  0  0  0  0  0  0  0  0  0  0  0
    4.0092    1.3789   14.1168 H   0  0  0  0  0  0  0  0  0  0  0  0
    4.5639    3.0280   12.8689 C   0  0  0  0  0  0  0  0  0  0  0  0
    3.7910    3.6793   13.2497 H   0  0  0  0  0  0  0  0  0  0  0  0
    5.4297    3.4742   11.8895 C   0  0  0  0  0  0  0  0  0  0  0  0
    5.3444    4.4806   11.4794 H   0  0  0  0  0  0  0  0  0  0  0  0
  1  3  1  6  0  0  0
  1  2  1  0  0  0  0
  2 42  1  0  0  0  0
  2 53  1  0  0  0  0
  4 24  1  0  0  0  0
  4 27  1  0  0  0  0
  5  1  1  0  0  0  0
  6  7  1  0  0  0  0
  6  1  2  0  0  0  0
  7  8  1  0  0  0  0
  9 10  1  0  0  0  0
  9  7  2  0  0  0  0
 11  9  1  0  0  0  0
 12 11  1  0  0  0  0
 13 11  2  0  0  0  0
 13 15  1  0  0  0  0
 14 13  1  0  0  0  0
 15  6  1  0  0  0  0
 16 15  2  0  0  0  0
 16  5  1  0  0  0  0
 17 16  1  0  0  0  0
 18  5  1  0  0  0  0
 18 21  1  0  0  0  0
 19 18  1  0  0  0  0
 20 18  1  0  0  0  0
 21 22  1  0  0  0  0
 21 24  1  0  0  0  0
 23 21  1  0  0  0  0
 24 25  1  0  0  0  0
 24 26  1  0  0  0  0
 27 30  1  0  0  0  0
 28 27  1  0  0  0  0
 29 27  1  0  0  0  0
 31 40  1  0  0  0  0
 31  2  1  0  0  0  0
 32 31  2  0  0  0  0
 33 32  1  0  0  0  0
 34 36  2  0  0  0  0
 34 32  1  0  0  0  0
 35 34  1  0  0  0  0
 36 38  1  0  0  0  0
 37 36  1  0  0  0  0
 38 39  1  0  0  0  0
 38 40  2  0  0  0  0
 40 41  1  0  0  0  0
 42 51  1  0  0  0  0
 43 42  2  0  0  0  0
 43 45  1  0  0  0  0
 44 43  1  0  0  0  0
 45 47  2  0  0  0  0
 46 45  1  0  0  0  0
 47 48  1  0  0  0  0
 47 49  1  0  0  0  0
 49 50  1  0  0  0  0
 51 52  1  0  0  0  0
 51 49  2  0  0  0  0
 53 54  2  0  0  0  0
 53 62  1  0  0  0  0
 54 56  1  0  0  0  0
 55 54  1  0  0  0  0
 56 57  1  0  0  0  0
 56 58  2  0  0  0  0
 58 59  1  0  0  0  0
 60 61  1  0  0  0  0
 60 58  1  0  0  0  0
 62 60  2  0  0  0  0
 63 62  1  0  0  0  0
M  END
$$$$
