CSD_code = SIWJAK | q = 0 | S = 0 | Stoichiometry = C30H25Cl2NO2PRe | MND = 6
 OpenBabel04212202093D

 62 67  0  0  1  0  0  0  0  0999 V2000
    6.4676    0.2587    2.7615 Re  0  0  0  0  0  0  0  0  0  0  0  0
    5.9778    1.4227    0.7816 Cl  0  0  0  0  0  0  0  0  0  0  0  0
    5.6025    1.9350    4.0463 Cl  0  0  0  0  0  0  0  0  0  0  0  0
    8.0703    0.6961    2.7506 O   0  0  0  0  0  1  0  0  0  0  0  0
    6.8480   -0.9607    4.9227 P   0  0  0  0  0  4  0  0  0  0  0  0
    5.3408   -1.7512    5.5417 C   0  0  0  0  0  0  0  0  0  0  0  0
    4.2056   -0.9431    5.6044 C   0  0  0  0  0  0  0  0  0  0  0  0
    4.2816    0.1012    5.3282 H   0  0  0  0  0  0  0  0  0  0  0  0
    2.9981   -1.4838    6.0039 C   0  0  0  0  0  0  0  0  0  0  0  0
    2.1176   -0.8603    6.0432 H   0  0  0  0  0  0  0  0  0  0  0  0
    2.9163   -2.8254    6.3449 C   0  0  0  0  0  0  0  0  0  0  0  0
    1.9706   -3.2491    6.6495 H   0  0  0  0  0  0  0  0  0  0  0  0
    4.0470   -3.6247    6.2978 C   0  0  0  0  0  0  0  0  0  0  0  0
    3.9849   -4.6678    6.5726 H   0  0  0  0  0  0  0  0  0  0  0  0
    5.2606   -3.0940    5.8950 C   0  0  0  0  0  0  0  0  0  0  0  0
    6.1416   -3.7199    5.8596 H   0  0  0  0  0  0  0  0  0  0  0  0
    8.1081   -2.2626    4.8169 C   0  0  0  0  0  0  0  0  0  0  0  0
    9.3219   -2.1710    5.4892 C   0  0  0  0  0  0  0  0  0  0  0  0
    9.5062   -1.3376    6.1510 H   0  0  0  0  0  0  0  0  0  0  0  0
   10.2875   -3.1461    5.3093 C   0  0  0  0  0  0  0  0  0  0  0  0
   11.2272   -3.0715    5.8360 H   0  0  0  0  0  0  0  0  0  0  0  0
   10.0554   -4.2116    4.4559 C   0  0  0  0  0  0  0  0  0  0  0  0
   10.8128   -4.9683    4.3163 H   0  0  0  0  0  0  0  0  0  0  0  0
    8.8504   -4.3044    3.7765 C   0  0  0  0  0  0  0  0  0  0  0  0
    8.6672   -5.1325    3.1071 H   0  0  0  0  0  0  0  0  0  0  0  0
    7.8839   -3.3335    3.9518 C   0  0  0  0  0  0  0  0  0  0  0  0
    6.9435   -3.4018    3.4204 H   0  0  0  0  0  0  0  0  0  0  0  0
    7.4031    0.1181    6.2677 C   0  0  0  0  0  0  0  0  0  0  0  0
    7.0173   -0.1000    7.5858 C   0  0  0  0  0  0  0  0  0  0  0  0
    6.3588   -0.9225    7.8291 H   0  0  0  0  0  0  0  0  0  0  0  0
    7.4751    0.7468    8.5796 C   0  0  0  0  0  0  0  0  0  0  0  0
    7.1732    0.5835    9.6038 H   0  0  0  0  0  0  0  0  0  0  0  0
    8.3122    1.8041    8.2627 C   0  0  0  0  0  0  0  0  0  0  0  0
    8.6605    2.4654    9.0423 H   0  0  0  0  0  0  0  0  0  0  0  0
    8.6956    2.0216    6.9482 C   0  0  0  0  0  0  0  0  0  0  0  0
    9.3402    2.8518    6.7026 H   0  0  0  0  0  0  0  0  0  0  0  0
    8.2418    1.1827    5.9477 C   0  0  0  0  0  0  0  0  0  0  0  0
    8.5127    1.3499    4.9119 H   0  0  0  0  0  0  0  0  0  0  0  0
    6.7945   -1.4656    1.4595 N   0  0  0  0  0  0  0  0  0  0  0  0
    5.7158   -2.2264    1.2864 C   0  0  2  0  0  3  0  0  0  0  0  0
    5.7125   -3.3072    0.4198 C   0  0  0  0  0  0  0  0  0  0  0  0
    4.8156   -3.8946    0.3011 H   0  0  0  0  0  0  0  0  0  0  0  0
    6.8692   -3.5914   -0.2876 C   0  0  0  0  0  0  0  0  0  0  0  0
    6.8955   -4.4205   -0.9780 H   0  0  0  0  0  0  0  0  0  0  0  0
    7.9861   -2.7886   -0.1002 C   0  0  0  0  0  0  0  0  0  0  0  0
    8.9019   -2.9738   -0.6372 H   0  0  0  0  0  0  0  0  0  0  0  0
    7.9069   -1.7300    0.7849 C   0  0  0  0  0  0  0  0  0  0  0  0
    8.7360   -1.0624    0.9720 H   0  0  0  0  0  0  0  0  0  0  0  0
    4.5141   -1.7900    2.1190 C   0  0  1  0  0  0  0  0  0  0  0  0
    4.3446   -2.5601    2.9033 H   0  0  0  0  0  0  0  0  0  0  0  0
    4.8352   -0.5988    2.7091 O   0  0  0  0  0  0  0  0  0  0  0  0
    3.2733   -1.7077    1.2486 C   0  0  0  0  0  0  0  0  0  0  0  0
    3.1474   -0.6633    0.3423 C   0  0  0  0  0  0  0  0  0  0  0  0
    3.9242    0.0857    0.2746 H   0  0  0  0  0  0  0  0  0  0  0  0
    2.0195   -0.5797   -0.4550 C   0  0  0  0  0  0  0  0  0  0  0  0
    1.9220    0.2370   -1.1540 H   0  0  0  0  0  0  0  0  0  0  0  0
    1.0230   -1.5364   -0.3578 C   0  0  0  0  0  0  0  0  0  0  0  0
    0.1443   -1.4698   -0.9824 H   0  0  0  0  0  0  0  0  0  0  0  0
    1.1494   -2.5771    0.5470 C   0  0  0  0  0  0  0  0  0  0  0  0
    0.3710   -3.3214    0.6311 H   0  0  0  0  0  0  0  0  0  0  0  0
    2.2715   -2.6620    1.3525 C   0  0  0  0  0  0  0  0  0  0  0  0
    2.3660   -3.4676    2.0687 H   0  0  0  0  0  0  0  0  0  0  0  0
  1  3  1  0  0  0  0
  1  5  1  0  0  0  0
  2  1  1  0  0  0  0
  4  1  1  0  0  0  0
  5  6  1  0  0  0  0
  5 28  1  0  0  0  0
  6  7  2  0  0  0  0
  6 15  1  0  0  0  0
  7  9  1  0  0  0  0
  8  7  1  0  0  0  0
  9 10  1  0  0  0  0
  9 11  2  0  0  0  0
 11 12  1  0  0  0  0
 13 11  1  0  0  0  0
 13 14  1  0  0  0  0
 15 13  2  0  0  0  0
 16 15  1  0  0  0  0
 17  5  1  0  0  0  0
 17 18  1  0  0  0  0
 18 19  1  0  0  0  0
 20 18  2  0  0  0  0
 20 21  1  0  0  0  0
 22 20  1  0  0  0  0
 23 22  1  0  0  0  0
 24 26  1  0  0  0  0
 24 22  2  0  0  0  0
 25 24  1  0  0  0  0
 26 17  2  0  0  0  0
 27 26  1  0  0  0  0
 28 29  1  0  0  0  0
 29 30  1  0  0  0  0
 29 31  2  0  0  0  0
 31 32  1  0  0  0  0
 33 31  1  0  0  0  0
 33 34  1  0  0  0  0
 35 33  2  0  0  0  0
 36 35  1  0  0  0  0
 37 28  2  0  0  0  0
 37 35  1  0  0  0  0
 38 37  1  0  0  0  0
 39  1  1  0  0  0  0
 40 41  1  6  0  0  0
 40 39  1  0  0  0  0
 40 49  1  0  0  0  0
 42 41  1  0  0  0  0
 43 45  1  0  0  0  0
 43 41  2  0  0  0  0
 44 43  1  0  0  0  0
 45 47  2  0  0  0  0
 46 45  1  0  0  0  0
 47 48  1  0  0  0  0
 47 39  1  0  0  0  0
 49 51  1  0  0  0  0
 49 50  1  1  0  0  0
 51  1  1  0  0  0  0
 52 61  1  0  0  0  0
 52 49  1  0  0  0  0
 53 52  2  0  0  0  0
 54 53  1  0  0  0  0
 55 57  2  0  0  0  0
 55 53  1  0  0  0  0
 56 55  1  0  0  0  0
 57 59  1  0  0  0  0
 58 57  1  0  0  0  0
 59 60  1  0  0  0  0
 59 61  2  0  0  0  0
 61 62  1  0  0  0  0
M  END
$$$$
