CSD_code = SIWXAY | q = -1 | S = 0 | Stoichiometry = C6H14Br3OPtS(1-) | MND = 4
 OpenBabel04212202093D

 26 25  0  0  0  0  0  0  0  0999 V2000
    2.7992    6.5739    5.7865 Pt  0  0  0  0  0  0  0  0  0  0  0  0
    1.0797    6.8073    4.0573 Br  0  0  0  0  0  0  0  0  0  0  0  0
    4.6210    6.4157    7.3634 Br  0  0  0  0  0  0  0  0  0  0  0  0
    1.2720    5.5637    7.3206 Br  0  0  0  0  0  0  0  0  0  0  0  0
    4.1795    7.5345    4.2785 S   0  0  0  0  0  0  0  0  0  0  0  0
    5.5749    7.7932    4.5881 O   0  0  0  0  0  1  0  0  0  0  0  0
    3.5379    9.1423    3.6494 C   0  0  0  0  0  0  0  0  0  0  0  0
    4.3278    9.5560    3.0253 H   0  0  0  0  0  0  0  0  0  0  0  0
    2.6386    8.9593    3.0661 H   0  0  0  0  0  0  0  0  0  0  0  0
    3.2498   10.0144    4.8591 C   0  0  0  0  0  0  0  0  0  0  0  0
    2.5185    9.5002    5.4959 H   0  0  0  0  0  0  0  0  0  0  0  0
    4.1706   10.1298    5.4369 H   0  0  0  0  0  0  0  0  0  0  0  0
    2.6986   11.3805    4.4713 C   0  0  0  0  0  0  0  0  0  0  0  0
    3.4120   11.9169    3.8476 H   0  0  0  0  0  0  0  0  0  0  0  0
    2.5002   11.9758    5.3595 H   0  0  0  0  0  0  0  0  0  0  0  0
    1.7697   11.2679    3.9159 H   0  0  0  0  0  0  0  0  0  0  0  0
    4.2171    6.5972    2.6938 C   0  0  0  0  0  0  0  0  0  0  0  0
    3.2448    6.6805    2.2136 H   0  0  0  0  0  0  0  0  0  0  0  0
    4.9910    7.0627    2.0863 H   0  0  0  0  0  0  0  0  0  0  0  0
    4.5488    5.1548    3.0366 C   0  0  0  0  0  0  0  0  0  0  0  0
    5.5126    5.1274    3.5520 H   0  0  0  0  0  0  0  0  0  0  0  0
    3.7878    4.7760    3.7319 H   0  0  0  0  0  0  0  0  0  0  0  0
    4.5860    4.2592    1.8051 C   0  0  0  0  0  0  0  0  0  0  0  0
    5.3421    4.6071    1.1029 H   0  0  0  0  0  0  0  0  0  0  0  0
    3.6196    4.2664    1.3046 H   0  0  0  0  0  0  0  0  0  0  0  0
    4.8214    3.2357    2.0880 H   0  0  0  0  0  0  0  0  0  0  0  0
  1  4  1  0  0  0  0
  1  3  1  0  0  0  0
  2  1  1  0  0  0  0
  5  6  1  0  0  0  0
  5  1  1  0  0  0  0
  7  5  1  0  0  0  0
  7 10  1  0  0  0  0
  8  7  1  0  0  0  0
  9  7  1  0  0  0  0
 10 12  1  0  0  0  0
 10 11  1  0  0  0  0
 13 10  1  0  0  0  0
 13 15  1  0  0  0  0
 14 13  1  0  0  0  0
 16 13  1  0  0  0  0
 17 20  1  0  0  0  0
 17  5  1  0  0  0  0
 18 17  1  0  0  0  0
 19 17  1  0  0  0  0
 20 21  1  0  0  0  0
 20 22  1  0  0  0  0
 23 26  1  0  0  0  0
 23 20  1  0  0  0  0
 24 23  1  0  0  0  0
 25 23  1  0  0  0  0
M  END
$$$$
