CSD_code = SIWYOP | q = 0 | S = 0 | Stoichiometry = C26H18Br2N2Zn | MND = 4
 OpenBabel04212202093D

 49 54  0  0  1  0  0  0  0  0999 V2000
   -3.4889   10.0383   -0.9239 Br  0  0  0  0  0  0  0  0  0  0  0  0
   -2.7405    6.8206   -3.7554 Br  0  0  0  0  0  0  0  0  0  0  0  0
   -3.4063    7.7970   -1.6974 Zn  0  0  0  0  0  0  0  0  0  0  0  0
   -5.4773    7.1117   -1.3959 N   0  0  0  0  0  0  0  0  0  0  0  0
   -6.3802    8.0393   -1.2905 C   0  0  0  0  0  0  0  0  0  0  0  0
   -6.0356    9.0551   -1.1417 H   0  0  0  0  0  0  0  0  0  0  0  0
   -7.7772    7.8067   -1.3554 C   0  0  0  0  0  0  0  0  0  0  0  0
   -8.6897    8.8692   -1.2396 C   0  0  0  0  0  0  0  0  0  0  0  0
   -8.3096    9.8684   -1.0888 H   0  0  0  0  0  0  0  0  0  0  0  0
  -10.0361    8.6281   -1.3228 C   0  0  0  0  0  0  0  0  0  0  0  0
  -10.7430    9.4391   -1.2372 H   0  0  0  0  0  0  0  0  0  0  0  0
  -10.4983    7.3237   -1.5232 C   0  0  0  0  0  0  0  0  0  0  0  0
  -11.5608    7.1425   -1.5900 H   0  0  0  0  0  0  0  0  0  0  0  0
   -9.6218    6.2724   -1.6371 C   0  0  0  0  0  0  0  0  0  0  0  0
  -10.0096    5.2785   -1.7932 H   0  0  0  0  0  0  0  0  0  0  0  0
   -8.2372    6.4847   -1.5551 C   0  0  0  0  0  0  0  0  0  0  0  0
   -7.2447    5.4475   -1.6564 C   0  0  0  0  0  0  0  0  0  0  0  0
   -7.5615    4.0929   -1.8384 C   0  0  0  0  0  3  0  0  0  0  0  0
   -8.5947    3.7937   -1.9137 H   0  0  0  0  0  0  0  0  0  0  0  0
   -6.5797    3.1375   -1.9252 C   0  0  0  0  0  0  0  0  0  0  0  0
   -6.8473    2.1020   -2.0722 H   0  0  0  0  0  0  0  0  0  0  0  0
   -5.2361    3.4981   -1.8239 C   0  0  0  0  0  0  0  0  0  0  0  0
   -4.4671    2.7445   -1.8939 H   0  0  0  0  0  0  0  0  0  0  0  0
   -4.8920    4.8129   -1.6424 C   0  0  0  0  0  0  0  0  0  0  0  0
   -3.8535    5.0925   -1.5654 H   0  0  0  0  0  0  0  0  0  0  0  0
   -5.8766    5.8082   -1.5660 C   0  0  0  0  0  0  0  0  0  0  0  0
   -2.3438    6.8558   -0.0287 N   0  0  0  0  0  0  0  0  0  0  0  0
   -3.0605    6.3261    0.9140 C   0  0  0  0  0  0  0  0  0  0  0  0
   -4.1350    6.3318    0.7796 H   0  0  0  0  0  0  0  0  0  0  0  0
   -2.5290    5.7422    2.0909 C   0  0  0  0  0  0  0  0  0  0  0  0
   -3.3721    5.1754    3.0620 C   0  0  0  0  0  0  0  0  0  0  0  0
   -4.4404    5.1980    2.9031 H   0  0  0  0  0  0  0  0  0  0  0  0
   -2.8383    4.6058    4.1875 C   0  0  0  0  0  0  0  0  0  0  0  0
   -3.4804    4.1684    4.9367 H   0  0  0  0  0  0  0  0  0  0  0  0
   -1.4515    4.5900    4.3676 C   0  0  0  0  0  0  0  0  0  0  0  0
   -1.0386    4.1393    5.2578 H   0  0  0  0  0  0  0  0  0  0  0  0
   -0.6112    5.1390    3.4308 C   0  0  0  0  0  0  0  0  0  0  0  0
    0.4533    5.1117    3.5984 H   0  0  0  0  0  0  0  0  0  0  0  0
   -1.1258    5.7310    2.2666 C   0  0  0  0  0  0  0  0  0  0  0  0
   -0.3240    6.3344    1.2363 C   0  0  0  0  0  0  0  0  0  0  0  0
    1.0761    6.4073    1.2894 C   0  0  0  0  0  0  0  0  0  0  0  0
    1.5998    5.9920    2.1356 H   0  0  0  0  0  0  0  0  0  0  0  0
    1.7955    7.0030    0.2833 C   0  0  0  0  0  0  0  0  0  0  0  0
    2.8724    7.0462    0.3451 H   0  0  0  0  0  0  0  0  0  0  0  0
    1.1428    7.5580   -0.8181 C   0  0  0  0  0  0  0  0  0  0  0  0
    1.7126    8.0305   -1.6028 H   0  0  0  0  0  0  0  0  0  0  0  0
   -0.2243    7.5018   -0.9020 C   0  0  0  0  0  0  0  0  0  0  0  0
   -0.7301    7.9359   -1.7523 H   0  0  0  0  0  0  0  0  0  0  0  0
   -0.9799    6.8900    0.1081 C   0  0  2  0  0  3  0  0  0  0  0  0
  2  3  1  0  0  0  0
  3  4  1  0  0  0  0
  3  1  1  0  0  0  0
  3 27  1  0  0  0  0
  4  5  1  0  0  0  0
  5  6  1  0  0  0  0
  7  5  2  0  0  0  0
  7  8  1  0  0  0  0
  8  9  1  0  0  0  0
 10  8  2  0  0  0  0
 10 11  1  0  0  0  0
 12 10  1  0  0  0  0
 13 12  1  0  0  0  0
 14 16  1  0  0  0  0
 14 12  2  0  0  0  0
 15 14  1  0  0  0  0
 16  7  1  0  0  0  0
 17 26  1  0  0  0  0
 17 16  2  0  0  0  0
 18 17  1  0  0  0  0
 19 18  1  0  0  0  0
 20 18  1  0  0  0  0
 20 22  2  0  0  0  0
 21 20  1  0  0  0  0
 22 24  1  0  0  0  0
 23 22  1  0  0  0  0
 24 26  2  0  0  0  0
 24 25  1  0  0  0  0
 26  4  1  0  0  0  0
 27 49  1  0  0  0  0
 27 28  1  0  0  0  0
 28 30  2  0  0  0  0
 29 28  1  0  0  0  0
 30 39  1  0  0  0  0
 30 31  1  0  0  0  0
 31 33  2  0  0  0  0
 32 31  1  0  0  0  0
 33 35  1  0  0  0  0
 33 34  1  0  0  0  0
 35 36  1  0  0  0  0
 37 38  1  0  0  0  0
 37 35  2  0  0  0  0
 39 37  1  0  0  0  0
 40 41  1  0  0  0  0
 40 39  2  0  0  0  0
 41 42  1  0  0  0  0
 43 44  1  0  0  0  0
 43 41  2  0  0  0  0
 45 43  1  0  0  0  0
 46 45  1  0  0  0  0
 47 45  2  0  0  0  0
 48 47  1  0  0  0  0
 49 47  1  1  0  0  0
 49 40  1  0  0  0  0
M  END
$$$$
