CSD_code = SIWYAA | q = -1 | S = 0 | Stoichiometry = C18H11Br2CoN5O4(1-) | MND = 6
 OpenBabel04212202093D

 41 46  0  0  1  0  0  0  0  0999 V2000
    1.6207    2.3952    1.6885 Co  0  0  0  0  0  0  0  0  0  0  0  0
    3.3130    1.7474    3.2938 Br  0  0  0  0  0  0  0  0  0  0  0  0
   -0.1154    2.7015    0.0288 Br  0  0  0  0  0  0  0  0  0  0  0  0
   -0.7301    4.3298    4.2391 O   0  0  0  0  0  0  0  0  0  0  0  0
    4.5485    4.0402   -0.4359 O   0  0  0  0  0  0  0  0  0  0  0  0
    0.7940    8.6092    4.2563 O   0  0  0  0  0  0  0  0  0  0  0  0
    2.2845    9.5695    3.0442 O   0  0  0  0  0  0  0  0  0  0  0  0
    0.9428    3.7790    2.7373 N   0  0  0  0  0  0  0  0  0  0  0  0
    2.7356    3.7053    0.9686 N   0  0  0  0  0  0  0  0  0  0  0  0
    2.5112    1.2448    0.3561 N   0  0  0  0  0  0  0  0  0  0  0  0
    0.3685    1.3035    2.7441 N   0  0  0  0  0  0  0  0  0  0  0  0
    1.6543    8.5783    3.3915 N   0  0  0  0  0  0  0  0  0  0  0  0
    1.5345    5.0035    2.4990 C   0  0  0  0  0  0  0  0  0  0  0  0
    1.2314    6.1991    3.1257 C   0  0  0  0  0  0  0  0  0  0  0  0
    0.4603    6.2498    3.8778 H   0  0  0  0  0  0  0  0  0  0  0  0
    1.9456    7.3414    2.7599 C   0  0  0  0  0  0  0  0  0  0  0  0
    2.9461    7.2970    1.7870 C   0  0  0  0  0  0  0  0  0  0  0  0
    3.4724    8.2059    1.5393 H   0  0  0  0  0  0  0  0  0  0  0  0
    3.2517    6.1109    1.1594 C   0  0  0  0  0  0  0  0  0  0  0  0
    4.0219    6.0565    0.4079 H   0  0  0  0  0  0  0  0  0  0  0  0
    2.5521    4.9540    1.5059 C   0  0  0  0  0  0  0  0  0  0  0  0
   -0.0986    3.5452    3.5422 C   0  0  0  0  0  0  0  0  0  0  0  0
   -0.4000    2.0766    3.5290 C   0  0  2  0  0  3  0  0  0  0  0  0
   -1.3876    1.5591    4.3562 C   0  0  0  0  0  0  0  0  0  0  0  0
   -1.9611    2.2580    4.9451 H   0  0  0  0  0  0  0  0  0  0  0  0
   -1.5862    0.1942    4.3984 C   0  0  0  0  0  0  0  0  0  0  0  0
   -2.3522   -0.2399    5.0238 H   0  0  0  0  0  0  0  0  0  0  0  0
   -0.7518   -0.6075    3.6326 C   0  0  0  0  0  0  0  0  0  0  0  0
   -0.8350   -1.6831    3.6526 H   0  0  0  0  0  0  0  0  0  0  0  0
    0.2060   -0.0128    2.8325 C   0  0  0  0  0  0  0  0  0  0  0  0
    0.8837   -0.6308    2.2612 H   0  0  0  0  0  0  0  0  0  0  0  0
    3.6797    3.3506    0.0852 C   0  0  0  0  0  0  0  0  0  0  0  0
    3.5105    1.9020   -0.2553 C   0  0  2  0  0  3  0  0  0  0  0  0
    4.3205    1.3117   -1.2157 C   0  0  0  0  0  0  0  0  0  0  0  0
    5.1052    1.9138   -1.6470 H   0  0  0  0  0  0  0  0  0  0  0  0
    4.0891    0.0010   -1.5813 C   0  0  0  0  0  0  0  0  0  0  0  0
    4.7079   -0.4912   -2.3170 H   0  0  0  0  0  0  0  0  0  0  0  0
    3.0192   -0.6576   -0.9933 C   0  0  0  0  0  0  0  0  0  0  0  0
    2.7665   -1.6704   -1.2658 H   0  0  0  0  0  0  0  0  0  0  0  0
    2.2619    0.0018   -0.0424 C   0  0  0  0  0  0  0  0  0  0  0  0
    1.4051   -0.4908    0.3940 H   0  0  0  0  0  0  0  0  0  0  0  0
  1  8  1  0  0  0  0
  1 11  1  0  0  0  0
  1  2  1  0  0  0  0
  3  1  1  0  0  0  0
  5 32  2  0  0  0  0
  7 12  2  0  0  0  0
  8 22  1  0  0  0  0
  9 21  1  0  0  0  0
  9  1  1  0  0  0  0
 10  1  1  0  0  0  0
 11 30  1  0  0  0  0
 11 23  1  0  0  0  0
 12  6  2  0  0  0  0
 13  8  1  0  0  0  0
 13 14  1  0  0  0  0
 14 15  1  0  0  0  0
 16 14  2  0  0  0  0
 16 12  1  0  0  0  0
 17 16  1  0  0  0  0
 18 17  1  0  0  0  0
 19 21  1  0  0  0  0
 19 17  2  0  0  0  0
 20 19  1  0  0  0  0
 21 13  2  0  0  0  0
 22  4  2  0  0  0  0
 23 22  1  1  0  0  0
 23 24  1  0  0  0  0
 24 26  2  0  0  0  0
 24 25  1  0  0  0  0
 26 27  1  0  0  0  0
 28 29  1  0  0  0  0
 28 26  1  0  0  0  0
 30 28  2  0  0  0  0
 31 30  1  0  0  0  0
 32  9  1  0  0  0  0
 33 34  1  6  0  0  0
 33 32  1  0  0  0  0
 33 10  1  0  0  0  0
 35 34  1  0  0  0  0
 36 34  2  0  0  0  0
 36 38  1  0  0  0  0
 37 36  1  0  0  0  0
 38 40  2  0  0  0  0
 39 38  1  0  0  0  0
 40 10  1  0  0  0  0
 40 41  1  0  0  0  0
M  END
$$$$
