CSD_code = SIWYIJ | q = 0 | S = 0 | Stoichiometry = C15H15Br2NOSZn | MND = 4
 OpenBabel04212202093D

 36 38  0  0  0  0  0  0  0  0999 V2000
   -0.1302    6.9790    8.7392 Zn  0  0  0  0  0  0  0  0  0  0  0  0
   -0.0745    8.1352   10.7979 Br  0  0  0  0  0  0  0  0  0  0  0  0
    0.3512    4.6742    8.5966 Br  0  0  0  0  0  0  0  0  0  0  0  0
   -2.3284    5.9548   10.0839 S   0  0  0  0  0  3  0  0  0  0  0  0
   -2.1598    6.7078    8.7989 O   0  0  0  0  0  0  0  0  0  0  0  0
    0.3758    8.3853    7.2340 N   0  0  0  0  0  0  0  0  0  0  0  0
    0.9633    9.4804    7.6120 C   0  0  0  0  0  0  0  0  0  0  0  0
    1.1137    9.6263    8.6747 H   0  0  0  0  0  0  0  0  0  0  0  0
    1.4154   10.4852    6.7211 C   0  0  0  0  0  0  0  0  0  0  0  0
    2.0446   11.6455    7.2045 C   0  0  0  0  0  0  0  0  0  0  0  0
    2.1683   11.7649    8.2704 H   0  0  0  0  0  0  0  0  0  0  0  0
    2.4887   12.6003    6.3278 C   0  0  0  0  0  0  0  0  0  0  0  0
    2.9729   13.4935    6.6913 H   0  0  0  0  0  0  0  0  0  0  0  0
    2.3153   12.4164    4.9524 C   0  0  0  0  0  0  0  0  0  0  0  0
    2.6697   13.1731    4.2683 H   0  0  0  0  0  0  0  0  0  0  0  0
    1.7015   11.2901    4.4609 C   0  0  0  0  0  0  0  0  0  0  0  0
    1.5822   11.1780    3.3953 H   0  0  0  0  0  0  0  0  0  0  0  0
    1.2325   10.2942    5.3312 C   0  0  0  0  0  0  0  0  0  0  0  0
    0.5685    9.0896    4.9090 C   0  0  0  0  0  0  0  0  0  0  0  0
    0.3085    8.7777    3.5658 C   0  0  0  0  0  3  0  0  0  0  0  0
    0.6230    9.4578    2.7905 H   0  0  0  0  0  0  0  0  0  0  0  0
   -0.3423    7.6199    3.2178 C   0  0  0  0  0  0  0  0  0  0  0  0
   -0.5287    7.3996    2.1775 H   0  0  0  0  0  0  0  0  0  0  0  0
   -0.7712    6.7273    4.2010 C   0  0  0  0  0  0  0  0  0  0  0  0
   -1.2895    5.8235    3.9209 H   0  0  0  0  0  0  0  0  0  0  0  0
   -0.5308    7.0003    5.5232 C   0  0  0  0  0  0  0  0  0  0  0  0
   -0.8721    6.3230    6.2908 H   0  0  0  0  0  0  0  0  0  0  0  0
    0.1459    8.1677    5.8998 C   0  0  0  0  0  0  0  0  0  0  0  0
   -3.6263    6.8911   10.9517 C   0  0  0  0  0  0  0  0  0  0  0  0
   -4.4312    7.1078   10.2597 H   0  0  0  0  0  0  0  0  0  0  0  0
   -3.1753    7.8125   11.3060 H   0  0  0  0  0  0  0  0  0  0  0  0
   -3.9721    6.3029   11.7928 H   0  0  0  0  0  0  0  0  0  0  0  0
   -3.3708    4.5432    9.5976 C   0  0  0  0  0  0  0  0  0  0  0  0
   -4.1986    4.8996    8.9962 H   0  0  0  0  0  0  0  0  0  0  0  0
   -3.7173    4.0441   10.4942 H   0  0  0  0  0  0  0  0  0  0  0  0
   -2.7455    3.8709    9.0189 H   0  0  0  0  0  0  0  0  0  0  0  0
  1  5  1  0  0  0  0
  1  2  1  0  0  0  0
  3  1  1  0  0  0  0
  4 29  1  0  0  0  0
  5  4  1  0  0  0  0
  6  7  1  0  0  0  0
  6  1  1  0  0  0  0
  7  8  1  0  0  0  0
  9 10  1  0  0  0  0
  9  7  2  0  0  0  0
 10 11  1  0  0  0  0
 12 13  1  0  0  0  0
 12 10  2  0  0  0  0
 14 12  1  0  0  0  0
 15 14  1  0  0  0  0
 16 14  2  0  0  0  0
 16 18  1  0  0  0  0
 17 16  1  0  0  0  0
 18  9  1  0  0  0  0
 19 18  2  0  0  0  0
 19 28  1  0  0  0  0
 20 19  1  0  0  0  0
 21 20  1  0  0  0  0
 22 20  1  0  0  0  0
 22 24  2  0  0  0  0
 23 22  1  0  0  0  0
 24 26  1  0  0  0  0
 25 24  1  0  0  0  0
 26 28  2  0  0  0  0
 26 27  1  0  0  0  0
 28  6  1  0  0  0  0
 29 31  1  0  0  0  0
 29 32  1  0  0  0  0
 30 29  1  0  0  0  0
 33  4  1  0  0  0  0
 33 35  1  0  0  0  0
 34 33  1  0  0  0  0
 36 33  1  0  0  0  0
M  END
$$$$
