CSD_code = SIXLOC | q = 0 | S = 0 | Stoichiometry = C12H19Cl2N3OPd | MND = 4
 OpenBabel04212202093D

 38 39  0  0  1  0  0  0  0  0999 V2000
    0.2544   -2.8371   -2.7851 Pd  0  0  0  0  0  0  0  0  0  0  0  0
    1.7224   -1.5228   -1.5993 Cl  0  0  0  0  0  0  0  0  0  0  0  0
   -1.1333   -4.2012   -3.9767 Cl  0  0  0  0  0  0  0  0  0  0  0  0
    1.5344   -3.0639   -4.2431 C   0  0  0  0  0  0  0  0  0  0  0  0
    2.5289   -3.9640   -4.2441 N   0  0  0  0  0  0  0  0  0  0  0  0
    3.1648   -3.9488   -5.4546 C   0  0  0  0  0  0  0  0  0  0  0  0
    4.0007   -4.5769   -5.6803 H   0  0  0  0  0  0  0  0  0  0  0  0
    2.5325   -3.0252   -6.2188 C   0  0  0  0  0  0  0  0  0  0  0  0
    2.7153   -2.7122   -7.2262 H   0  0  0  0  0  0  0  0  0  0  0  0
    1.5300   -2.4910   -5.4538 N   0  0  0  0  0  0  0  0  0  0  0  0
    0.5914   -1.4786   -5.8570 C   0  0  0  0  0  0  0  0  0  0  0  0
   -0.0142   -1.8326   -6.6931 H   0  0  0  0  0  0  0  0  0  0  0  0
    1.1143   -0.5654   -6.1465 H   0  0  0  0  0  0  0  0  0  0  0  0
   -0.0689   -1.2680   -4.9999 H   0  0  0  0  0  0  0  0  0  0  0  0
    2.8874   -4.7119   -3.0597 C   0  0  2  0  0  0  0  0  0  0  0  0
    2.1209   -4.4436   -2.2961 H   0  0  0  0  0  0  0  0  0  0  0  0
    4.2692   -4.2609   -2.5393 C   0  0  2  0  0  0  0  0  0  0  0  0
    5.0464   -4.6117   -3.2322 H   0  0  0  0  0  0  0  0  0  0  0  0
    4.4825   -4.9223   -1.1724 C   0  0  0  0  0  0  0  0  0  0  0  0
    5.4496   -4.6118   -0.7751 H   0  0  0  0  0  0  0  0  0  0  0  0
    3.7084   -4.5702   -0.4865 H   0  0  0  0  0  0  0  0  0  0  0  0
    4.4243   -6.4424   -1.3064 C   0  0  0  0  0  0  0  0  0  0  0  0
    4.5556   -6.9018   -0.3254 H   0  0  0  0  0  0  0  0  0  0  0  0
    5.2464   -6.7775   -1.9431 H   0  0  0  0  0  0  0  0  0  0  0  0
    3.0982   -6.8987   -1.9126 C   0  0  0  0  0  0  0  0  0  0  0  0
    2.2807   -6.6428   -1.2350 H   0  0  0  0  0  0  0  0  0  0  0  0
    3.1018   -7.9826   -2.0380 H   0  0  0  0  0  0  0  0  0  0  0  0
    2.8541   -6.2242   -3.2610 C   0  0  0  0  0  0  0  0  0  0  0  0
    3.6257   -6.5255   -3.9728 H   0  0  0  0  0  0  0  0  0  0  0  0
    1.8807   -6.5152   -3.6612 H   0  0  0  0  0  0  0  0  0  0  0  0
    4.4019   -2.8716   -2.5248 O   0  0  0  0  0  0  0  0  0  0  0  0
   -1.0603   -2.6528   -1.3598 N   0  0  0  0  0  2  0  0  0  0  0  0
   -1.8503   -2.4616   -0.5494 C   0  0  0  0  0  2  0  0  0  0  0  0
   -2.8303   -2.2291    0.4653 C   0  0  0  0  0  0  0  0  0  0  0  0
   -2.6514   -2.9002    1.3052 H   0  0  0  0  0  0  0  0  0  0  0  0
   -3.8254   -2.4131    0.0605 H   0  0  0  0  0  0  0  0  0  0  0  0
   -2.7618   -1.1966    0.8080 H   0  0  0  0  0  0  0  0  0  0  0  0
    3.6526   -2.4606   -2.0474 H   0  0  0  0  0  0  0  0  0  0  0  0
  1  2  1  0  0  0  0
  1 32  1  0  0  0  0
  3  1  1  0  0  0  0
  4  1  2  0  0  0  0
  5  4  1  0  0  0  0
  5 15  1  0  0  0  0
  6  5  1  0  0  0  0
  7  6  1  0  0  0  0
  8  6  2  0  0  0  0
  8 10  1  0  0  0  0
  9  8  1  0  0  0  0
 10  4  1  0  0  0  0
 11 10  1  0  0  0  0
 11 14  1  0  0  0  0
 12 11  1  0  0  0  0
 13 11  1  0  0  0  0
 15 17  1  0  0  0  0
 15 16  1  1  0  0  0
 17 18  1  6  0  0  0
 17 31  1  0  0  0  0
 17 19  1  0  0  0  0
 19 20  1  0  0  0  0
 19 21  1  0  0  0  0
 22 19  1  0  0  0  0
 22 23  1  0  0  0  0
 24 22  1  0  0  0  0
 25 22  1  0  0  0  0
 25 26  1  0  0  0  0
 27 25  1  0  0  0  0
 28 15  1  0  0  0  0
 28 25  1  0  0  0  0
 29 28  1  0  0  0  0
 30 28  1  0  0  0  0
 31 38  1  0  0  0  0
 32 33  1  0  0  0  0
 33 34  1  0  0  0  0
 34 37  1  0  0  0  0
 34 35  1  0  0  0  0
 36 34  1  0  0  0  0
M  END
$$$$
