CSD_code = SIXMES | q = 1 | S = 0 | Stoichiometry = C13H31ClFeN5(1+) | MND = 6
 OpenBabel04212202093D

 51 54  0  0  1  0  0  0  0  0999 V2000
   -2.3424   -7.8876   -1.4466 Fe  0  0  0  0  0  0  0  0  0  0  0  0
   -0.3230   -8.6955   -1.2760 Cl  0  0  0  0  0  0  0  0  0  0  0  0
   -4.0914   -7.3430   -1.4741 N   0  0  2  0  0  0  0  0  0  0  0  0
   -1.9469   -5.8948   -1.4609 N   0  0  1  0  0  4  0  0  0  0  0  0
   -2.2768   -7.6811    0.5993 N   0  0  0  0  0  4  0  0  0  0  0  0
   -3.1576   -7.4729    1.0647 H   0  0  0  0  0  0  0  0  0  0  0  0
   -1.8925   -8.5189    1.0279 H   0  0  0  0  0  0  0  0  0  0  0  0
   -1.6267   -7.5685   -3.5601 N   0  0  0  0  0  4  0  0  0  0  0  0
   -0.9328   -8.2994   -3.4043 H   0  0  0  0  0  0  0  0  0  0  0  0
   -2.0884   -7.7698   -4.4408 H   0  0  0  0  0  0  0  0  0  0  0  0
   -3.2471   -9.8564   -1.5678 N   0  0  0  0  0  4  0  0  0  0  0  0
   -4.3885   -5.9408   -1.6005 C   0  0  0  0  0  0  0  0  0  0  0  0
   -5.2036   -5.7590   -2.3070 H   0  0  0  0  0  0  0  0  0  0  0  0
   -4.7093   -5.5532   -0.6269 H   0  0  0  0  0  0  0  0  0  0  0  0
   -3.1142   -5.2584   -2.0849 C   0  0  0  0  0  0  0  0  0  0  0  0
   -3.1351   -4.1819   -1.8847 H   0  0  0  0  0  0  0  0  0  0  0  0
   -3.0535   -5.4109   -3.1570 H   0  0  0  0  0  0  0  0  0  0  0  0
   -1.7659   -5.4169   -0.0801 C   0  0  0  0  0  0  0  0  0  0  0  0
   -1.0346   -4.6045   -0.0364 H   0  0  0  0  0  0  0  0  0  0  0  0
   -2.7202   -5.0359    0.2869 H   0  0  0  0  0  0  0  0  0  0  0  0
   -1.3299   -6.5777    0.8034 C   0  0  0  0  0  0  0  0  0  0  0  0
   -1.2777   -6.2617    1.8510 H   0  0  0  0  0  0  0  0  0  0  0  0
   -0.3473   -6.9336    0.4929 H   0  0  0  0  0  0  0  0  0  0  0  0
   -0.7354   -5.6892   -2.2589 C   0  0  0  0  0  0  0  0  0  0  0  0
   -0.4877   -4.6237   -2.3407 H   0  0  0  0  0  0  0  0  0  0  0  0
    0.0735   -6.2067   -1.7443 H   0  0  0  0  0  0  0  0  0  0  0  0
   -0.8958   -6.2951   -3.6566 C   0  0  0  0  0  0  0  0  0  0  0  0
    0.0999   -6.4344   -4.0897 H   0  0  0  0  0  0  0  0  0  0  0  0
   -1.4388   -5.6122   -4.3134 H   0  0  0  0  0  0  0  0  0  0  0  0
   -5.0133   -8.1941   -1.2126 C   0  0  1  0  0  3  0  0  0  0  0  0
   -4.5564   -9.5984   -0.9590 C   0  0  0  0  0  0  0  0  0  0  0  0
   -4.4624   -9.7259    0.1230 H   0  0  0  0  0  0  0  0  0  0  0  0
   -5.3080  -10.3184   -1.3024 H   0  0  0  0  0  0  0  0  0  0  0  0
   -6.4644   -7.8680   -1.0750 C   0  0  0  0  0  0  0  0  0  0  0  0
   -6.6161   -7.0815   -0.3350 H   0  0  0  0  0  0  0  0  0  0  0  0
   -7.0339   -8.7423   -0.7759 H   0  0  0  0  0  0  0  0  0  0  0  0
   -6.8645   -7.5009   -2.0211 H   0  0  0  0  0  0  0  0  0  0  0  0
   -4.1879  -11.1865   -3.5529 C   0  0  0  0  0  0  0  0  0  0  0  0
   -5.2199  -11.1758   -3.2124 H   0  0  0  0  0  0  0  0  0  0  0  0
   -3.7345  -12.1323   -3.2735 H   0  0  0  0  0  0  0  0  0  0  0  0
   -4.2027  -11.1347   -4.6379 H   0  0  0  0  0  0  0  0  0  0  0  0
   -3.3862   -9.9928   -3.0279 C   0  0  0  0  0  0  0  0  0  0  0  0
   -2.3756  -10.0617   -3.4314 H   0  0  0  0  0  0  0  0  0  0  0  0
   -3.8481   -9.0726   -3.3896 H   0  0  0  0  0  0  0  0  0  0  0  0
   -2.1137  -10.9690    0.4006 C   0  0  0  0  0  0  0  0  0  0  0  0
   -2.8652  -10.6246    1.1069 H   0  0  0  0  0  0  0  0  0  0  0  0
   -1.2501  -10.3125    0.4134 H   0  0  0  0  0  0  0  0  0  0  0  0
   -1.7844  -11.9528    0.7239 H   0  0  0  0  0  0  0  0  0  0  0  0
   -2.6518  -11.0852   -1.0173 C   0  0  0  0  0  0  0  0  0  0  0  0
   -1.8149  -11.3506   -1.6637 H   0  0  0  0  0  0  0  0  0  0  0  0
   -3.3908  -11.8947   -1.0502 H   0  0  0  0  0  0  0  0  0  0  0  0
  1  2  1  0  0  0  0
  1  5  1  0  0  0  0
  3 12  1  1  0  0  0
  3  1  1  0  0  0  0
  3 30  1  0  0  0  0
  4 24  1  6  0  0  0
  4  1  1  0  0  0  0
  4 18  1  0  0  0  0
  5 21  1  0  0  0  0
  5  7  1  0  0  0  0
  5  6  1  0  0  0  0
  8  9  1  0  0  0  0
  8  1  1  0  0  0  0
 10  8  1  0  0  0  0
 11  1  1  0  0  0  0
 11 49  1  0  0  0  0
 11 31  1  0  0  0  0
 12 14  1  0  0  0  0
 13 12  1  0  0  0  0
 15 16  1  0  0  0  0
 15 12  1  0  0  0  0
 15  4  1  0  0  0  0
 17 15  1  0  0  0  0
 18 19  1  0  0  0  0
 18 20  1  0  0  0  0
 18 21  1  0  0  0  0
 21 22  1  0  0  0  0
 23 21  1  0  0  0  0
 24 26  1  0  0  0  0
 25 24  1  0  0  0  0
 27  8  1  0  0  0  0
 27 24  1  0  0  0  0
 28 27  1  0  0  0  0
 29 27  1  0  0  0  0
 30 34  1  1  0  0  0
 30 31  1  0  0  0  0
 31 32  1  0  0  0  0
 33 31  1  0  0  0  0
 34 36  1  0  0  0  0
 34 35  1  0  0  0  0
 37 34  1  0  0  0  0
 38 40  1  0  0  0  0
 38 39  1  0  0  0  0
 38 42  1  0  0  0  0
 41 38  1  0  0  0  0
 42 11  1  0  0  0  0
 43 42  1  0  0  0  0
 44 42  1  0  0  0  0
 45 47  1  0  0  0  0
 45 48  1  0  0  0  0
 45 46  1  0  0  0  0
 49 45  1  0  0  0  0
 50 49  1  0  0  0  0
 51 49  1  0  0  0  0
M  END
$$$$
