CSD_code = SIYNUL | q = 0 | S = 0 | Stoichiometry = C28H28ClN3Ni | MND = 4
 OpenBabel04212202093D

 61 66  0  0  1  0  0  0  0  0999 V2000
    6.0173    5.6970    3.5096 Ni  0  0  1  0  0  0  0  0  0  0  0  0
    7.7034    6.3218    4.5618 Cl  0  0  0  0  0  0  0  0  0  0  0  0
    5.1626    7.3514    3.7464 N   0  0  0  0  0  0  0  0  0  0  0  0
    6.8357    4.0285    3.0082 N   0  0  0  0  0  0  0  0  0  0  0  0
    4.4137    4.9440    2.8005 N   0  0  0  0  0  0  0  0  0  0  0  0
    5.9732    8.5189    3.8218 C   0  0  0  0  0  0  0  0  0  0  0  0
    2.8656    6.5710    3.6501 C   0  0  0  0  0  0  0  0  0  0  0  0
    3.1544    5.2593    3.1741 C   0  0  2  0  0  3  0  0  0  0  0  0
    3.8853    7.5539    3.7726 C   0  0  0  0  0  0  0  0  0  0  0  0
    3.5422    8.5825    3.9001 H   0  0  0  0  0  0  0  0  0  0  0  0
    6.7461   10.4533    4.9950 C   0  0  0  0  0  0  0  0  0  0  0  0
    6.7961   11.0491    5.8933 H   0  0  0  0  0  0  0  0  0  0  0  0
    7.4076   10.8787    3.8609 C   0  0  0  0  0  0  0  0  0  0  0  0
    7.9568   11.8085    3.8723 H   0  0  0  0  0  0  0  0  0  0  0  0
    0.8247    4.6855    3.5472 C   0  0  0  0  0  0  0  0  0  0  0  0
    0.0414    3.9413    3.5503 H   0  0  0  0  0  0  0  0  0  0  0  0
    4.7087    3.8880    1.9823 C   0  0  0  0  0  0  0  0  0  0  0  0
    7.3889   10.1034    2.7158 C   0  0  0  0  0  0  0  0  0  0  0  0
    7.9307   10.4347    1.8448 H   0  0  0  0  0  0  0  0  0  0  0  0
    6.6861    8.9100    2.6794 C   0  0  0  0  0  0  0  0  0  0  0  0
    6.4629    2.2433    1.3993 C   0  0  0  0  0  0  0  0  0  0  0  0
    1.5476    6.9160    3.9889 C   0  0  0  0  0  0  0  0  0  0  0  0
    1.3506    7.9238    4.3260 H   0  0  0  0  0  0  0  0  0  0  0  0
    4.3496    2.2432    0.2492 C   0  0  0  0  0  0  0  0  0  0  0  0
    3.6957    1.8343   -0.5075 H   0  0  0  0  0  0  0  0  0  0  0  0
    8.0466    3.5587    3.2277 C   0  0  0  0  0  0  0  0  0  0  0  0
    8.6611    4.0971    3.9375 H   0  0  0  0  0  0  0  0  0  0  0  0
    6.0314    3.3742    2.1331 C   0  0  0  0  0  0  0  0  0  0  0  0
    2.0938    4.3264    3.1740 C   0  0  0  0  0  0  0  0  0  0  0  0
    2.3051    3.2989    2.9183 H   0  0  0  0  0  0  0  0  0  0  0  0
    5.5847    1.6799    0.4542 C   0  0  0  0  0  3  0  0  0  0  0  0
    5.9082    0.8242   -0.1181 H   0  0  0  0  0  0  0  0  0  0  0  0
    7.7675    1.7741    1.6518 C   0  0  0  0  0  0  0  0  0  0  0  0
    8.1340    0.9104    1.1159 H   0  0  0  0  0  0  0  0  0  0  0  0
    0.5323    5.9966    3.9310 C   0  0  0  0  0  0  0  0  0  0  0  0
   -0.4753    6.2705    4.2023 H   0  0  0  0  0  0  0  0  0  0  0  0
    6.0173    9.2714    5.0000 C   0  0  0  0  0  0  0  0  0  0  0  0
    3.9021    3.3326    0.9966 C   0  0  0  0  0  0  0  0  0  0  0  0
    2.9332    3.7589    0.7867 H   0  0  0  0  0  0  0  0  0  0  0  0
    6.6602    8.0382    1.4435 C   0  0  0  0  0  0  0  0  0  0  0  0
    6.5375    6.9795    1.7756 H   0  0  0  0  0  0  0  0  0  0  0  0
    5.3712    8.7890    6.2786 C   0  0  0  0  0  0  0  0  0  0  0  0
    4.8657    7.8367    6.0907 H   0  0  0  0  0  0  0  0  0  0  0  0
    8.5450    2.4256    2.5717 C   0  0  0  0  0  0  0  0  0  0  0  0
    9.5450    2.0904    2.7974 H   0  0  0  0  0  0  0  0  0  0  0  0
    4.3331    9.7860    6.7966 C   0  0  0  0  0  0  0  0  0  0  0  0
    4.7980   10.7356    7.0492 H   0  0  0  0  0  0  0  0  0  0  0  0
    3.8525    9.3926    7.6898 H   0  0  0  0  0  0  0  0  0  0  0  0
    3.5653    9.9720    6.0476 H   0  0  0  0  0  0  0  0  0  0  0  0
    7.9571    8.1011    0.6405 C   0  0  0  0  0  0  0  0  0  0  0  0
    8.0613    9.0567    0.1319 H   0  0  0  0  0  0  0  0  0  0  0  0
    7.9593    7.3184   -0.1156 H   0  0  0  0  0  0  0  0  0  0  0  0
    8.8119    7.9516    1.2952 H   0  0  0  0  0  0  0  0  0  0  0  0
    6.4546    8.5259    7.3277 C   0  0  0  0  0  0  0  0  0  0  0  0
    7.1846    7.8257    6.9291 H   0  0  0  0  0  0  0  0  0  0  0  0
    6.0108    8.0978    8.2241 H   0  0  0  0  0  0  0  0  0  0  0  0
    6.9683    9.4441    7.6004 H   0  0  0  0  0  0  0  0  0  0  0  0
    5.4614    8.4060    0.5651 C   0  0  0  0  0  0  0  0  0  0  0  0
    4.5263    8.2721    1.1055 H   0  0  0  0  0  0  0  0  0  0  0  0
    5.4373    7.7783   -0.3232 H   0  0  0  0  0  0  0  0  0  0  0  0
    5.5339    9.4465    0.2534 H   0  0  0  0  0  0  0  0  0  0  0  0
  1  3  1  0  0  0  0
  1  2  1  1  0  0  0
  3  9  1  0  0  0  0
  3  6  1  0  0  0  0
  4 26  1  0  0  0  0
  4  1  1  0  0  0  0
  5  8  1  0  0  0  0
  5  1  1  0  0  0  0
  6 37  1  0  0  0  0
  7  9  2  0  0  0  0
  7 22  1  0  0  0  0
  8 29  1  1  0  0  0
  8  7  1  0  0  0  0
  9 10  1  0  0  0  0
 11 37  2  0  0  0  0
 11 12  1  0  0  0  0
 13 14  1  0  0  0  0
 13 11  1  0  0  0  0
 15 16  1  0  0  0  0
 15 35  1  0  0  0  0
 17 28  2  0  0  0  0
 17  5  1  0  0  0  0
 18 13  2  0  0  0  0
 19 18  1  0  0  0  0
 20 18  1  0  0  0  0
 20  6  2  0  0  0  0
 21 33  2  0  0  0  0
 21 28  1  0  0  0  0
 22 23  1  0  0  0  0
 24 31  1  0  0  0  0
 24 38  2  0  0  0  0
 25 24  1  0  0  0  0
 26 27  1  0  0  0  0
 28  4  1  0  0  0  0
 29 15  2  0  0  0  0
 30 29  1  0  0  0  0
 31 21  1  0  0  0  0
 32 31  1  0  0  0  0
 33 44  1  0  0  0  0
 34 33  1  0  0  0  0
 35 22  2  0  0  0  0
 35 36  1  0  0  0  0
 37 42  1  0  0  0  0
 38 17  1  0  0  0  0
 39 38  1  0  0  0  0
 40 41  1  0  0  0  0
 40 20  1  0  0  0  0
 42 46  1  0  0  0  0
 42 54  1  0  0  0  0
 43 42  1  0  0  0  0
 44 45  1  0  0  0  0
 44 26  2  0  0  0  0
 46 47  1  0  0  0  0
 46 48  1  0  0  0  0
 49 46  1  0  0  0  0
 50 53  1  0  0  0  0
 50 40  1  0  0  0  0
 51 50  1  0  0  0  0
 52 50  1  0  0  0  0
 54 57  1  0  0  0  0
 54 56  1  0  0  0  0
 55 54  1  0  0  0  0
 58 59  1  0  0  0  0
 58 40  1  0  0  0  0
 60 58  1  0  0  0  0
 61 58  1  0  0  0  0
M  END
$$$$
