CSD_code = SIYQOJ | q = 1 | S = 0 | Stoichiometry = C15H11ClN3Pt(1+) | MND = 4
 OpenBabel04212202093D

 31 35  0  0  0  0  0  0  0  0999 V2000
    1.0828   13.0963    4.9949 Pt  0  0  1  0  0  0  0  0  0  0  0  0
    1.2848   13.1521    2.7874 Cl  0  0  0  0  0  0  0  0  0  0  0  0
    0.5896   14.1870    7.5190 C   0  0  0  0  0  0  0  0  0  0  0  0
    0.9092   13.0492    6.8837 N   0  0  0  0  0  0  0  0  0  0  0  0
    0.4283   15.3171    6.5952 C   0  0  0  0  0  0  0  0  0  0  0  0
    1.4457   10.7962    6.5759 C   0  0  0  0  0  0  0  0  0  0  0  0
    0.9842   11.8191    8.8936 C   0  0  0  0  0  0  0  0  0  0  0  0
    1.1382   10.8967    9.4278 H   0  0  0  0  0  0  0  0  0  0  0  0
    1.1099   11.8791    7.5091 C   0  0  0  0  0  0  0  0  0  0  0  0
    0.6531   12.9800    9.5818 C   0  0  0  0  0  0  0  0  0  0  0  0
    0.5504   12.9522   10.6550 H   0  0  0  0  0  0  0  0  0  0  0  0
    1.4917   11.1548    5.2621 N   0  0  0  0  0  0  0  0  0  0  0  0
    0.4523   14.1760    8.9036 C   0  0  0  0  0  0  0  0  0  0  0  0
    0.1953   15.0708    9.4453 H   0  0  0  0  0  0  0  0  0  0  0  0
    0.6235   15.0238    5.2789 N   0  0  0  0  0  0  0  0  0  0  0  0
    0.1011   16.6083    6.9936 C   0  0  0  0  0  0  0  0  0  0  0  0
   -0.0505   16.8281    8.0376 H   0  0  0  0  0  0  0  0  0  0  0  0
    0.4983   15.9849    4.3687 C   0  0  0  0  0  3  0  0  0  0  0  0
    0.6645   15.6939    3.3388 H   0  0  0  0  0  0  0  0  0  0  0  0
   -0.0281   17.6067    6.0408 C   0  0  0  0  0  0  0  0  0  0  0  0
   -0.2815   18.6123    6.3369 H   0  0  0  0  0  0  0  0  0  0  0  0
    1.7047    9.4865    6.9635 C   0  0  0  0  0  0  0  0  0  0  0  0
    1.6671    9.2157    8.0059 H   0  0  0  0  0  0  0  0  0  0  0  0
    2.0512    8.9189    4.6700 C   0  0  0  0  0  0  0  0  0  0  0  0
    2.2841    8.2110    3.8917 H   0  0  0  0  0  0  0  0  0  0  0  0
    1.7856   10.2393    4.3437 C   0  0  0  0  0  0  0  0  0  0  0  0
    1.8073   10.5815    3.3165 H   0  0  0  0  0  0  0  0  0  0  0  0
    2.0109    8.5359    6.0022 C   0  0  0  0  0  0  0  0  0  0  0  0
    2.2138    7.5165    6.2902 H   0  0  0  0  0  0  0  0  0  0  0  0
    0.1738   17.2893    4.7060 C   0  0  0  0  0  0  0  0  0  0  0  0
    0.0829   18.0358    3.9344 H   0  0  0  0  0  0  0  0  0  0  0  0
  1  2  1  6  0  0  0
  1 12  1  0  0  0  0
  1 15  1  0  0  0  0
  1  4  1  0  0  0  0
  3 13  2  0  0  0  0
  4  9  1  0  0  0  0
  4  3  1  0  0  0  0
  5 16  2  0  0  0  0
  5  3  1  0  0  0  0
  6 22  1  0  0  0  0
  6  9  2  0  0  0  0
  7  8  1  0  0  0  0
  7 10  2  0  0  0  0
  9  7  1  0  0  0  0
 10 11  1  0  0  0  0
 12  6  1  0  0  0  0
 13 14  1  0  0  0  0
 13 10  1  0  0  0  0
 15  5  1  0  0  0  0
 16 17  1  0  0  0  0
 18 30  1  0  0  0  0
 18 15  1  0  0  0  0
 19 18  1  0  0  0  0
 20 21  1  0  0  0  0
 20 16  1  0  0  0  0
 22 23  1  0  0  0  0
 24 28  1  0  0  0  0
 25 24  1  0  0  0  0
 26 24  2  0  0  0  0
 26 12  1  0  0  0  0
 27 26  1  0  0  0  0
 28 29  1  0  0  0  0
 28 22  2  0  0  0  0
 30 20  2  0  0  0  0
 31 30  1  0  0  0  0
M  END
$$$$
