CSD_code = SIYQIA | q = 0 | S = 0 | Stoichiometry = C26H25ClOP2Pd | MND = 4
 OpenBabel04212202093D

 56 60  0  0  0  0  0  0  0  0999 V2000
    0.7729    1.2408    3.7986 Pd  0  0  2  0  0  0  0  0  0  0  0  0
    3.0032    1.4224    3.8148 Cl  0  0  0  0  0  0  0  0  0  0  0  0
   -1.4572    1.2250    4.0060 P   0  0  0  0  0  4  0  0  0  0  0  0
   -0.2549   -0.8703    5.4903 P   0  0  0  0  0  4  0  0  0  0  0  0
    0.9127   -0.0378    5.8333 O   0  0  0  0  0  0  0  0  0  0  0  0
    0.7807    2.5128    2.2057 C   0  0  0  0  0  0  0  0  0  0  0  0
   -1.8041    0.1363    5.4765 C   0  0  0  0  0  0  0  0  0  0  0  0
   -2.6603    0.6211    2.7858 C   0  0  0  0  0  0  0  0  0  0  0  0
   -3.9916    0.3450    3.0811 C   0  0  0  0  0  0  0  0  0  0  0  0
   -4.8284   -0.1419    2.0933 C   0  0  0  0  0  0  0  0  0  0  0  0
   -4.3434   -0.3611    0.8137 C   0  0  0  0  0  0  0  0  0  0  0  0
   -3.0158   -0.0976    0.5185 C   0  0  0  0  0  0  0  0  0  0  0  0
   -2.1758    0.3907    1.5021 C   0  0  0  0  0  0  0  0  0  0  0  0
   -2.0208    2.8598    4.5789 C   0  0  0  0  0  0  0  0  0  0  0  0
   -1.0191    3.6153    5.1927 C   0  0  0  0  0  0  0  0  0  0  0  0
   -1.3063    4.8725    5.6887 C   0  0  0  0  0  0  0  0  0  0  0  0
   -2.5873    5.3884    5.5607 C   0  0  0  0  0  0  0  0  0  0  0  0
   -3.5758    4.6504    4.9313 C   0  0  0  0  0  0  0  0  0  0  0  0
   -3.2983    3.3865    4.4380 C   0  0  0  0  0  0  0  0  0  0  0  0
   -0.4707   -2.2474    6.6533 C   0  0  0  0  0  0  0  0  0  0  0  0
   -1.4854   -2.3177    7.5949 C   0  0  0  0  0  0  0  0  0  0  0  0
   -1.5286   -3.3854    8.4753 C   0  0  0  0  0  0  0  0  0  0  0  0
   -0.5624   -4.3759    8.4154 C   0  0  0  0  0  0  0  0  0  0  0  0
    0.4556   -4.3029    7.4770 C   0  0  0  0  0  0  0  0  0  0  0  0
    0.5015   -3.2384    6.5971 C   0  0  0  0  0  0  0  0  0  0  0  0
   -0.1575   -1.6104    3.8286 C   0  0  0  0  0  0  0  0  0  0  0  0
    1.0214   -1.4441    3.0942 C   0  0  0  0  0  0  0  0  0  0  0  0
    1.0714   -1.8967    1.7834 C   0  0  0  0  0  0  0  0  0  0  0  0
   -0.0319   -2.5219    1.2206 C   0  0  0  0  0  0  0  0  0  0  0  0
   -1.1784   -2.7309    1.9699 C   0  0  0  0  0  0  0  0  0  0  0  0
   -1.2447   -2.2728    3.2745 C   0  0  0  0  0  0  0  0  0  0  0  0
    1.2205    1.9708    1.3620 H   0  0  0  0  0  0  0  0  0  0  0  0
    1.4188    3.3647    2.4528 H   0  0  0  0  0  0  0  0  0  0  0  0
   -0.2196    2.8752    1.9433 H   0  0  0  0  0  0  0  0  0  0  0  0
   -2.7172   -0.4497    5.3838 H   0  0  0  0  0  0  0  0  0  0  0  0
   -1.8139    0.7318    6.3962 H   0  0  0  0  0  0  0  0  0  0  0  0
   -4.3752    0.5038    4.0802 H   0  0  0  0  0  0  0  0  0  0  0  0
   -5.8626   -0.3546    2.3226 H   0  0  0  0  0  0  0  0  0  0  0  0
   -5.0025   -0.7436    0.0485 H   0  0  0  0  0  0  0  0  0  0  0  0
   -2.6356   -0.2772   -0.4759 H   0  0  0  0  0  0  0  0  0  0  0  0
   -1.1287    0.5852    1.2980 H   0  0  0  0  0  0  0  0  0  0  0  0
    0.0001    3.2069    5.2591 H   0  0  0  0  0  0  0  0  0  0  0  0
   -0.5325    5.4561    6.1646 H   0  0  0  0  0  0  0  0  0  0  0  0
   -2.8123    6.3737    5.9412 H   0  0  0  0  0  0  0  0  0  0  0  0
   -4.5682    5.0621    4.8190 H   0  0  0  0  0  0  0  0  0  0  0  0
   -4.0679    2.8236    3.9303 H   0  0  0  0  0  0  0  0  0  0  0  0
   -2.2354   -1.5410    7.6460 H   0  0  0  0  0  0  0  0  0  0  0  0
   -2.3166   -3.4429    9.2120 H   0  0  0  0  0  0  0  0  0  0  0  0
   -0.6002   -5.2054    9.1057 H   0  0  0  0  0  0  0  0  0  0  0  0
    1.2108   -5.0735    7.4358 H   0  0  0  0  0  0  0  0  0  0  0  0
    1.2907   -3.1546    5.8609 H   0  0  0  0  0  0  0  0  0  0  0  0
    1.9129   -1.0254    3.5683 H   0  0  0  0  0  0  0  0  0  0  0  0
    1.9751   -1.7635    1.2071 H   0  0  0  0  0  0  0  0  0  0  0  0
    0.0082   -2.8633    0.1968 H   0  0  0  0  0  0  0  0  0  0  0  0
   -2.0262   -3.2399    1.5358 H   0  0  0  0  0  0  0  0  0  0  0  0
   -2.1381   -2.4277    3.8646 H   0  0  0  0  0  0  0  0  0  0  0  0
  1  2  1  1  0  0  0
  1  3  1  0  0  0  0
  1  5  1  0  0  0  0
  3 14  1  0  0  0  0
  3  7  1  0  0  0  0
  4  5  1  0  0  0  0
  4 20  1  0  0  0  0
  6 33  1  0  0  0  0
  6  1  1  0  0  0  0
  7  4  1  0  0  0  0
  7 36  1  0  0  0  0
  8  9  1  0  0  0  0
  8  3  1  0  0  0  0
  9 37  1  0  0  0  0
 10 38  1  0  0  0  0
 10  9  2  0  0  0  0
 11 10  1  0  0  0  0
 12 11  2  0  0  0  0
 12 13  1  0  0  0  0
 13  8  2  0  0  0  0
 14 15  1  0  0  0  0
 15 42  1  0  0  0  0
 15 16  2  0  0  0  0
 16 43  1  0  0  0  0
 17 16  1  0  0  0  0
 17 44  1  0  0  0  0
 18 17  2  0  0  0  0
 19 14  2  0  0  0  0
 19 18  1  0  0  0  0
 20 21  1  0  0  0  0
 21 47  1  0  0  0  0
 21 22  2  0  0  0  0
 22 48  1  0  0  0  0
 23 22  1  0  0  0  0
 23 49  1  0  0  0  0
 24 23  2  0  0  0  0
 25 20  2  0  0  0  0
 25 24  1  0  0  0  0
 26  4  1  0  0  0  0
 27 52  1  0  0  0  0
 27 26  2  0  0  0  0
 28 27  1  0  0  0  0
 29 28  2  0  0  0  0
 29 30  1  0  0  0  0
 30 31  2  0  0  0  0
 31 26  1  0  0  0  0
 31 56  1  0  0  0  0
 32  6  1  0  0  0  0
 34  6  1  0  0  0  0
 35  7  1  0  0  0  0
 39 11  1  0  0  0  0
 40 12  1  0  0  0  0
 41 13  1  0  0  0  0
 45 18  1  0  0  0  0
 46 19  1  0  0  0  0
 50 24  1  0  0  0  0
 51 25  1  0  0  0  0
 53 28  1  0  0  0  0
 54 29  1  0  0  0  0
 55 30  1  0  0  0  0
M  END
$$$$
