CSD_code = SIYQUP | q = 1 | S = 0 | Stoichiometry = C15H11ClN3Pt(1+) | MND = 4
 OpenBabel04212202093D

 31 35  0  0  0  0  0  0  0  0999 V2000
    5.4586    3.1968   13.2217 Pt  0  0  2  0  0  0  0  0  0  0  0  0
    4.4005    5.6624   13.9998 C   0  0  0  0  0  0  0  0  0  0  0  0
    6.1661    1.1212   13.5506 Cl  0  0  0  0  0  0  0  0  0  0  0  0
    4.9441    3.6154   15.1107 N   0  0  0  0  0  0  0  0  0  0  0  0
    6.2957    2.3594   10.4510 C   0  0  0  0  0  3  0  0  0  0  0  0
    6.5577    1.4190   10.9199 H   0  0  0  0  0  0  0  0  0  0  0  0
    5.6015    4.7665    9.3736 C   0  0  0  0  0  0  0  0  0  0  0  0
    5.3187    5.7259    8.9727 H   0  0  0  0  0  0  0  0  0  0  0  0
    4.0405    5.3563   16.4805 C   0  0  0  0  0  0  0  0  0  0  0  0
    3.6538    6.3579   16.5717 H   0  0  0  0  0  0  0  0  0  0  0  0
    5.0278    2.8318   16.1816 C   0  0  0  0  0  0  0  0  0  0  0  0
    5.4253    1.8378   16.0182 H   0  0  0  0  0  0  0  0  0  0  0  0
    4.4530    4.8797   15.2414 C   0  0  0  0  0  0  0  0  0  0  0  0
    3.9951    7.5135   12.5421 C   0  0  0  0  0  0  0  0  0  0  0  0
    3.6538    8.5240   12.3833 H   0  0  0  0  0  0  0  0  0  0  0  0
    3.9549    6.9681   13.8195 C   0  0  0  0  0  0  0  0  0  0  0  0
    3.5859    7.5504   14.6468 H   0  0  0  0  0  0  0  0  0  0  0  0
    5.4445    4.5055   10.7300 C   0  0  0  0  0  0  0  0  0  0  0  0
    6.1225    3.7860    8.5439 C   0  0  0  0  0  0  0  0  0  0  0  0
    6.2492    3.9759    7.4898 H   0  0  0  0  0  0  0  0  0  0  0  0
    4.4699    6.7723   11.4670 C   0  0  0  0  0  0  0  0  0  0  0  0
    4.4973    7.2035   10.4805 H   0  0  0  0  0  0  0  0  0  0  0  0
    6.4761    2.5624    9.0921 C   0  0  0  0  0  0  0  0  0  0  0  0
    6.8853    1.7741    8.4820 H   0  0  0  0  0  0  0  0  0  0  0  0
    4.1298    4.5353   17.5938 C   0  0  0  0  0  0  0  0  0  0  0  0
    3.8129    4.8931   18.5606 H   0  0  0  0  0  0  0  0  0  0  0  0
    5.7960    3.2965   11.2510 N   0  0  0  0  0  0  0  0  0  0  0  0
    4.9054    5.4709   11.6966 C   0  0  0  0  0  0  0  0  0  0  0  0
    4.8537    4.9733   12.9416 N   0  0  0  0  0  0  0  0  0  0  0  0
    4.6317    3.2517   17.4415 C   0  0  0  0  0  0  0  0  0  0  0  0
    4.7175    2.5820   18.2812 H   0  0  0  0  0  0  0  0  0  0  0  0
  1  3  1  1  0  0  0
  1  4  1  0  0  0  0
  2 13  2  0  0  0  0
  4 13  1  0  0  0  0
  4 11  1  0  0  0  0
  5  6  1  0  0  0  0
  5 27  1  0  0  0  0
  7 18  2  0  0  0  0
  8  7  1  0  0  0  0
  9 10  1  0  0  0  0
  9 25  2  0  0  0  0
 11 30  2  0  0  0  0
 12 11  1  0  0  0  0
 13  9  1  0  0  0  0
 14 16  2  0  0  0  0
 15 14  1  0  0  0  0
 16  2  1  0  0  0  0
 16 17  1  0  0  0  0
 18 27  1  0  0  0  0
 18 28  1  0  0  0  0
 19 23  2  0  0  0  0
 19  7  1  0  0  0  0
 20 19  1  0  0  0  0
 21 28  2  0  0  0  0
 21 14  1  0  0  0  0
 22 21  1  0  0  0  0
 23  5  1  0  0  0  0
 24 23  1  0  0  0  0
 25 26  1  0  0  0  0
 27  1  1  0  0  0  0
 28 29  1  0  0  0  0
 29  1  1  0  0  0  0
 29  2  1  0  0  0  0
 30 25  1  0  0  0  0
 30 31  1  0  0  0  0
M  END
$$$$
