CSD_code = SIYRAW | q = 0 | S = 0 | Stoichiometry = C28H28Cl2N4Ni | MND = 6
 OpenBabel04212202093D

 63 70  0  0  1  0  0  0  0  0999 V2000
    6.2612    4.5018    5.8344 Ni  0  0  0  0  0  0  0  0  0  0  0  0
    5.5131    3.7381    4.0399 Cl  0  0  0  0  0  0  0  0  0  0  0  0
    5.7359    6.4616    5.3386 Cl  0  0  0  0  0  0  0  0  0  0  0  0
    4.4580    3.9935    7.1987 N   0  0  2  0  0  4  0  0  0  0  0  0
    7.0004    5.0371    7.5552 N   0  0  0  0  0  0  0  0  0  0  0  0
    8.5053    4.5959    5.2631 N   0  0  1  0  0  4  0  0  0  0  0  0
    6.8238    2.7434    6.4549 N   0  0  0  0  0  0  0  0  0  0  0  0
    4.7763    4.7131    8.4285 C   0  0  0  0  0  0  0  0  0  0  0  0
    4.2941    4.2672    9.3131 H   0  0  0  0  0  0  0  0  0  0  0  0
    4.4152    5.7402    8.3104 H   0  0  0  0  0  0  0  0  0  0  0  0
    6.2649    4.8009    8.6382 C   0  0  2  0  0  3  0  0  0  0  0  0
    6.8465    4.6648    9.8910 C   0  0  0  0  0  0  0  0  0  0  0  0
    6.2294    4.4770   10.7558 H   0  0  0  0  0  0  0  0  0  0  0  0
    8.2228    4.7682   10.0058 C   0  0  0  0  0  0  0  0  0  0  0  0
    8.7024    4.6614   10.9670 H   0  0  0  0  0  0  0  0  0  0  0  0
    8.9752    4.9968    8.8657 C   0  0  0  0  0  0  0  0  0  0  0  0
   10.0502    5.0731    8.9154 H   0  0  0  0  0  0  0  0  0  0  0  0
    8.3249    5.1222    7.6461 C   0  0  0  0  0  0  0  0  0  0  0  0
    9.0656    5.3790    6.3612 C   0  0  0  0  0  0  0  0  0  0  0  0
    8.9169    6.4361    6.1174 H   0  0  0  0  0  0  0  0  0  0  0  0
   10.1430    5.1953    6.5002 H   0  0  0  0  0  0  0  0  0  0  0  0
    8.9116    3.1955    5.3363 C   0  0  0  0  0  0  0  0  0  0  0  0
    9.9908    3.0804    5.5258 H   0  0  0  0  0  0  0  0  0  0  0  0
    8.6718    2.7335    4.3728 H   0  0  0  0  0  0  0  0  0  0  0  0
    8.1197    2.4525    6.3795 C   0  0  2  0  0  3  0  0  0  0  0  0
    8.6956    1.4998    7.2084 C   0  0  0  0  0  0  0  0  0  0  0  0
    9.7482    1.2778    7.1268 H   0  0  0  0  0  0  0  0  0  0  0  0
    7.8997    0.8503    8.1373 C   0  0  0  0  0  0  0  0  0  0  0  0
    8.3222    0.1086    8.7982 H   0  0  0  0  0  0  0  0  0  0  0  0
    6.5563    1.1777    8.2144 C   0  0  0  0  0  0  0  0  0  0  0  0
    5.9081    0.6999    8.9324 H   0  0  0  0  0  0  0  0  0  0  0  0
    6.0494    2.1408    7.3532 C   0  0  0  0  0  0  0  0  0  0  0  0
    4.6008    2.5496    7.3653 C   0  0  0  0  0  0  0  0  0  0  0  0
    4.1315    2.0729    6.4983 H   0  0  0  0  0  0  0  0  0  0  0  0
    4.1098    2.1825    8.2808 H   0  0  0  0  0  0  0  0  0  0  0  0
    3.1423    4.3632    6.6530 C   0  0  0  0  0  0  0  0  0  0  0  0
    3.0567    3.8825    5.6748 H   0  0  0  0  0  0  0  0  0  0  0  0
    3.1550    5.4438    6.4895 H   0  0  0  0  0  0  0  0  0  0  0  0
    1.9875    3.9712    7.5377 C   0  0  0  0  0  0  0  0  0  0  0  0
    1.3659    2.7368    7.3847 C   0  0  0  0  0  0  0  0  0  0  0  0
    1.6797    2.0758    6.5894 H   0  0  0  0  0  0  0  0  0  0  0  0
    0.3363    2.3526    8.2254 C   0  0  0  0  0  0  0  0  0  0  0  0
   -0.1382    1.3915    8.0900 H   0  0  0  0  0  0  0  0  0  0  0  0
   -0.0895    3.1999    9.2341 C   0  0  0  0  0  0  0  0  0  0  0  0
   -0.8933    2.9014    9.8908 H   0  0  0  0  0  0  0  0  0  0  0  0
    0.5109    4.4379    9.3869 C   0  0  0  0  0  0  0  0  0  0  0  0
    0.1733    5.1104   10.1622 H   0  0  0  0  0  0  0  0  0  0  0  0
    1.5396    4.8200    8.5438 C   0  0  0  0  0  0  0  0  0  0  0  0
    1.9880    5.7965    8.6598 H   0  0  0  0  0  0  0  0  0  0  0  0
    8.7873    5.1974    3.9501 C   0  0  0  0  0  0  0  0  0  0  0  0
    8.3287    6.1899    3.9492 H   0  0  0  0  0  0  0  0  0  0  0  0
    8.2675    4.5932    3.2022 H   0  0  0  0  0  0  0  0  0  0  0  0
   10.2565    5.2934    3.6305 C   0  0  0  0  0  0  0  0  0  0  0  0
   10.9819    6.4302    3.9697 C   0  0  0  0  0  0  0  0  0  0  0  0
   10.4752    7.2730    4.4181 H   0  0  0  0  0  0  0  0  0  0  0  0
   12.3411    6.5041    3.7214 C   0  0  0  0  0  0  0  0  0  0  0  0
   12.8886    7.3965    3.9879 H   0  0  0  0  0  0  0  0  0  0  0  0
   12.9974    5.4397    3.1272 C   0  0  0  0  0  0  0  0  0  0  0  0
   14.0582    5.4962    2.9325 H   0  0  0  0  0  0  0  0  0  0  0  0
   12.2835    4.3085    2.7707 C   0  0  0  0  0  0  0  0  0  0  0  0
   12.7863    3.4803    2.2926 H   0  0  0  0  0  0  0  0  0  0  0  0
   10.9240    4.2378    3.0192 C   0  0  0  0  0  0  0  0  0  0  0  0
   10.3730    3.3578    2.7192 H   0  0  0  0  0  0  0  0  0  0  0  0
  1  7  1  0  0  0  0
  1  4  1  0  0  0  0
  1  5  1  0  0  0  0
  2  1  1  0  0  0  0
  3  1  1  0  0  0  0
  4 36  1  6  0  0  0
  4 33  1  0  0  0  0
  4  8  1  0  0  0  0
  5 18  1  0  0  0  0
  5 11  1  0  0  0  0
  6 50  1  6  0  0  0
  6 22  1  0  0  0  0
  6  1  1  0  0  0  0
  6 19  1  0  0  0  0
  7 32  1  0  0  0  0
  8 11  1  0  0  0  0
  8  9  1  0  0  0  0
 10  8  1  0  0  0  0
 11 12  1  1  0  0  0
 12 14  2  0  0  0  0
 12 13  1  0  0  0  0
 14 15  1  0  0  0  0
 16 17  1  0  0  0  0
 16 14  1  0  0  0  0
 18 16  2  0  0  0  0
 19 21  1  0  0  0  0
 19 18  1  0  0  0  0
 20 19  1  0  0  0  0
 22 23  1  0  0  0  0
 22 25  1  0  0  0  0
 24 22  1  0  0  0  0
 25  7  1  0  0  0  0
 25 26  1  6  0  0  0
 26 28  2  0  0  0  0
 27 26  1  0  0  0  0
 28 30  1  0  0  0  0
 28 29  1  0  0  0  0
 30 31  1  0  0  0  0
 32 33  1  0  0  0  0
 32 30  2  0  0  0  0
 33 35  1  0  0  0  0
 34 33  1  0  0  0  0
 36 39  1  0  0  0  0
 37 36  1  0  0  0  0
 38 36  1  0  0  0  0
 39 48  1  0  0  0  0
 40 39  2  0  0  0  0
 40 42  1  0  0  0  0
 41 40  1  0  0  0  0
 42 44  2  0  0  0  0
 43 42  1  0  0  0  0
 44 46  1  0  0  0  0
 44 45  1  0  0  0  0
 46 47  1  0  0  0  0
 48 49  1  0  0  0  0
 48 46  2  0  0  0  0
 51 50  1  0  0  0  0
 52 50  1  0  0  0  0
 53 50  1  0  0  0  0
 53 54  1  0  0  0  0
 54 55  1  0  0  0  0
 56 54  2  0  0  0  0
 56 57  1  0  0  0  0
 58 56  1  0  0  0  0
 59 58  1  0  0  0  0
 60 62  1  0  0  0  0
 60 58  2  0  0  0  0
 61 60  1  0  0  0  0
 62 53  2  0  0  0  0
 63 62  1  0  0  0  0
M  END
$$$$
