CSD_code = SIYYEG | q = 0 | S = 0 | Stoichiometry = C34H24I2N8Pt | MND = 4
 OpenBabel04212202093D

 69 76  0  0  1  0  0  0  0  0999 V2000
   -0.8806    3.2415    3.1822 Pt  0  0  0  0  0  0  0  0  0  0  0  0
   -1.5074    4.9932    1.4131 I   0  0  0  0  0  0  0  0  0  0  0  0
   -3.0813    0.5471    0.8741 N   0  0  0  0  0  0  0  0  0  0  0  0
   -2.7586    1.7152    1.3689 C   0  0  0  0  0  0  0  0  0  0  0  0
   -3.4274    2.5524    1.3242 H   0  0  0  0  0  0  0  0  0  0  0  0
   -1.5318    1.7645    1.9157 N   0  0  0  0  0  0  0  0  0  0  0  0
   -1.0493    0.5351    1.7531 C   0  0  1  0  0  3  0  0  0  0  0  0
    0.1116    0.0600    2.1405 N   0  0  0  0  0  0  0  0  0  0  0  0
    0.3207   -1.2389    1.9768 C   0  0  0  0  0  0  0  0  0  0  0  0
    1.5762   -1.7613    2.5150 C   0  0  0  0  0  0  0  0  0  0  0  0
    1.7027   -3.0870    2.9300 C   0  0  0  0  0  0  0  0  0  0  0  0
    0.8595   -3.7593    2.8699 H   0  0  0  0  0  0  0  0  0  0  0  0
    2.8989   -3.5411    3.4511 C   0  0  0  0  0  0  0  0  0  0  0  0
    2.9856   -4.5670    3.7764 H   0  0  0  0  0  0  0  0  0  0  0  0
    3.9821   -2.6845    3.5617 C   0  0  0  0  0  0  0  0  0  0  0  0
    4.9163   -3.0475    3.9622 H   0  0  0  0  0  0  0  0  0  0  0  0
    3.8613   -1.3620    3.1649 C   0  0  0  0  0  0  0  0  0  0  0  0
    4.7003   -0.6895    3.2575 H   0  0  0  0  0  0  0  0  0  0  0  0
    2.6659   -0.9001    2.6509 C   0  0  0  0  0  0  0  0  0  0  0  0
    2.5576    0.1264    2.3370 H   0  0  0  0  0  0  0  0  0  0  0  0
   -0.6273   -2.0564    1.3302 C   0  0  0  0  0  0  0  0  0  0  0  0
   -0.4101   -3.1011    1.1935 H   0  0  0  0  0  0  0  0  0  0  0  0
   -1.8151   -1.5424    0.8514 C   0  0  0  0  0  0  0  0  0  0  0  0
   -2.8039   -2.3351    0.1269 C   0  0  0  0  0  0  0  0  0  0  0  0
   -4.1468   -1.9553    0.0724 C   0  0  0  0  0  0  0  0  0  0  0  0
   -4.4663   -1.0493    0.5586 H   0  0  0  0  0  0  0  0  0  0  0  0
   -5.0666   -2.7354   -0.6022 C   0  0  0  0  0  0  0  0  0  0  0  0
   -6.1003   -2.4268   -0.6327 H   0  0  0  0  0  0  0  0  0  0  0  0
   -4.6698   -3.8987   -1.2390 C   0  0  0  0  0  0  0  0  0  0  0  0
   -5.3903   -4.5039   -1.7680 H   0  0  0  0  0  0  0  0  0  0  0  0
   -3.3364   -4.2765   -1.2056 C   0  0  0  0  0  0  0  0  0  0  0  0
   -3.0149   -5.1729   -1.7146 H   0  0  0  0  0  0  0  0  0  0  0  0
   -2.4115   -3.5059   -0.5309 C   0  0  0  0  0  0  0  0  0  0  0  0
   -1.3734   -3.8010   -0.5446 H   0  0  0  0  0  0  0  0  0  0  0  0
   -2.0196   -0.2226    1.1121 N   0  0  0  0  0  0  0  0  0  0  0  0
   -0.2543    4.9947    4.9499 I   0  0  0  0  0  0  0  0  0  0  0  0
    1.3210    0.5468    5.4911 N   0  0  0  0  0  0  0  0  0  0  0  0
    0.9985    1.7148    4.9958 C   0  0  0  0  0  0  0  0  0  0  0  0
    1.6673    2.5521    5.0404 H   0  0  0  0  0  0  0  0  0  0  0  0
   -0.2281    1.7640    4.4486 N   0  0  0  0  0  0  0  0  0  0  0  0
   -0.7108    0.5348    4.6116 C   0  0  1  0  0  3  0  0  0  0  0  0
   -1.8717    0.0599    4.2240 N   0  0  0  0  0  0  0  0  0  0  0  0
   -2.0809   -1.2389    4.3879 C   0  0  0  0  0  0  0  0  0  0  0  0
   -3.3364   -1.7612    3.8496 C   0  0  0  0  0  0  0  0  0  0  0  0
   -3.4629   -3.0868    3.4344 C   0  0  0  0  0  0  0  0  0  0  0  0
   -2.6196   -3.7591    3.4943 H   0  0  0  0  0  0  0  0  0  0  0  0
   -4.6590   -3.5410    2.9133 C   0  0  0  0  0  0  0  0  0  0  0  0
   -4.7457   -4.5668    2.5878 H   0  0  0  0  0  0  0  0  0  0  0  0
   -5.7423   -2.6845    2.8028 C   0  0  0  0  0  0  0  0  0  0  0  0
   -6.6765   -3.0474    2.4023 H   0  0  0  0  0  0  0  0  0  0  0  0
   -5.6215   -1.3620    3.1996 C   0  0  0  0  0  0  0  0  0  0  0  0
   -6.4606   -0.6894    3.1071 H   0  0  0  0  0  0  0  0  0  0  0  0
   -4.4262   -0.9001    3.7136 C   0  0  0  0  0  0  0  0  0  0  0  0
   -4.3179    0.1265    4.0277 H   0  0  0  0  0  0  0  0  0  0  0  0
   -1.1331   -2.0565    5.0344 C   0  0  0  0  0  0  0  0  0  0  0  0
   -1.3501   -3.1013    5.1709 H   0  0  0  0  0  0  0  0  0  0  0  0
    0.0548   -1.5427    5.5134 C   0  0  0  0  0  0  0  0  0  0  0  0
    1.0437   -2.3355    6.2377 C   0  0  0  0  0  0  0  0  0  0  0  0
    2.3865   -1.9557    6.2920 C   0  0  0  0  0  0  0  0  0  0  0  0
    2.7060   -1.0498    5.8055 H   0  0  0  0  0  0  0  0  0  0  0  0
    3.3064   -2.7356    6.9667 C   0  0  0  0  0  0  0  0  0  0  0  0
    4.3401   -2.4269    6.9973 H   0  0  0  0  0  0  0  0  0  0  0  0
    2.9096   -3.8987    7.6041 C   0  0  0  0  0  0  0  0  0  0  0  0
    3.6301   -4.5034    8.1336 H   0  0  0  0  0  0  0  0  0  0  0  0
    1.5763   -4.2767    7.5705 C   0  0  0  0  0  0  0  0  0  0  0  0
    1.2548   -5.1731    8.0795 H   0  0  0  0  0  0  0  0  0  0  0  0
    0.6513   -3.5063    6.8955 C   0  0  0  0  0  0  0  0  0  0  0  0
   -0.3867   -3.8017    6.9090 H   0  0  0  0  0  0  0  0  0  0  0  0
    0.2592   -0.2228    5.2531 N   0  0  0  0  0  0  0  0  0  0  0  0
  1 40  1  0  0  0  0
  1 36  1  0  0  0  0
  2  1  1  0  0  0  0
  3 35  1  0  0  0  0
  3  4  2  0  0  0  0
  4  6  1  0  0  0  0
  5  4  1  0  0  0  0
  6  1  1  0  0  0  0
  7  6  1  0  0  0  0
  7  8  1  1  0  0  0
  9  8  2  0  0  0  0
  9 10  1  0  0  0  0
 10 19  2  0  0  0  0
 10 11  1  0  0  0  0
 11 13  2  0  0  0  0
 12 11  1  0  0  0  0
 13 15  1  0  0  0  0
 13 14  1  0  0  0  0
 15 16  1  0  0  0  0
 17 18  1  0  0  0  0
 17 15  2  0  0  0  0
 19 17  1  0  0  0  0
 20 19  1  0  0  0  0
 21  9  1  0  0  0  0
 22 21  1  0  0  0  0
 23 35  1  0  0  0  0
 23 21  2  0  0  0  0
 24 23  1  0  0  0  0
 25 24  1  0  0  0  0
 25 26  1  0  0  0  0
 27 25  2  0  0  0  0
 28 27  1  0  0  0  0
 29 31  2  0  0  0  0
 29 27  1  0  0  0  0
 30 29  1  0  0  0  0
 31 33  1  0  0  0  0
 32 31  1  0  0  0  0
 33 24  2  0  0  0  0
 34 33  1  0  0  0  0
 35  7  1  0  0  0  0
 38 39  1  0  0  0  0
 38 37  2  0  0  0  0
 40 41  1  0  0  0  0
 40 38  1  0  0  0  0
 41 42  1  6  0  0  0
 41 69  1  0  0  0  0
 42 43  2  0  0  0  0
 43 55  1  0  0  0  0
 44 43  1  0  0  0  0
 45 46  1  0  0  0  0
 45 44  2  0  0  0  0
 47 45  1  0  0  0  0
 48 47  1  0  0  0  0
 49 47  2  0  0  0  0
 49 51  1  0  0  0  0
 50 49  1  0  0  0  0
 51 53  2  0  0  0  0
 52 51  1  0  0  0  0
 53 44  1  0  0  0  0
 53 54  1  0  0  0  0
 55 56  1  0  0  0  0
 55 57  2  0  0  0  0
 57 58  1  0  0  0  0
 58 59  2  0  0  0  0
 58 67  1  0  0  0  0
 59 61  1  0  0  0  0
 60 59  1  0  0  0  0
 61 62  1  0  0  0  0
 61 63  2  0  0  0  0
 63 64  1  0  0  0  0
 65 63  1  0  0  0  0
 65 66  1  0  0  0  0
 67 68  1  0  0  0  0
 67 65  2  0  0  0  0
 69 37  1  0  0  0  0
 69 57  1  0  0  0  0
M  END
$$$$
