CSD_code = SIYZOS | q = 0 | S = 0 | Stoichiometry = C17H22Cl2NOPPd | MND = 4
 OpenBabel04212202093D

 45 47  0  0  1  0  0  0  0  0999 V2000
    4.5797    3.9768    7.3884 Pd  0  0  0  0  0  0  0  0  0  0  0  0
    2.4911    4.5083    7.9406 Cl  0  0  0  0  0  0  0  0  0  0  0  0
    5.0122    6.1551    6.9419 Cl  0  0  0  0  0  0  0  0  0  0  0  0
    4.3058    1.7474    7.7460 P   0  0  1  0  0  4  0  0  0  0  0  0
    5.4262    1.0069    5.3453 O   0  0  0  0  0  0  0  0  0  0  0  0
    6.5049    3.6442    6.8347 N   0  0  0  0  0  0  0  0  0  0  0  0
    6.8373    2.9173    5.7684 C   0  0  1  0  0  3  0  0  0  0  0  0
    8.1652    2.6695    5.4486 C   0  0  0  0  0  0  0  0  0  0  0  0
    8.4005    2.0647    4.5875 H   0  0  0  0  0  0  0  0  0  0  0  0
    9.1654    3.2050    6.2429 C   0  0  0  0  0  0  0  0  0  0  0  0
   10.2041    3.0238    6.0134 H   0  0  0  0  0  0  0  0  0  0  0  0
    8.8037    3.9900    7.3270 C   0  0  0  0  0  0  0  0  0  0  0  0
    9.5479    4.4463    7.9593 H   0  0  0  0  0  0  0  0  0  0  0  0
    7.4598    4.1852    7.5870 C   0  0  0  0  0  0  0  0  0  0  0  0
    7.1266    4.8071    8.4126 H   0  0  0  0  0  0  0  0  0  0  0  0
    5.7172    2.3342    4.9372 C   0  0  0  0  0  0  0  0  0  0  0  0
    4.8212    2.9867    5.0060 H   0  0  0  0  0  0  0  0  0  0  0  0
    6.0350    2.2719    3.8905 H   0  0  0  0  0  0  0  0  0  0  0  0
    4.2659    0.8287    6.1215 C   0  0  0  0  0  0  0  0  0  0  0  0
    4.1842   -0.2519    6.2717 H   0  0  0  0  0  0  0  0  0  0  0  0
    3.3756    1.1831    5.5737 H   0  0  0  0  0  0  0  0  0  0  0  0
    5.8452    1.2012    8.5466 C   0  0  0  0  0  0  0  0  0  0  0  0
    6.5931    0.0867    8.1886 C   0  0  0  0  0  0  0  0  0  0  0  0
    6.2553   -0.5667    7.3990 H   0  0  0  0  0  0  0  0  0  0  0  0
    7.7892   -0.1748    8.8363 C   0  0  0  0  0  0  0  0  0  0  0  0
    8.3727   -1.0380    8.5520 H   0  0  0  0  0  0  0  0  0  0  0  0
    8.2396    0.6625    9.8428 C   0  0  0  0  0  0  0  0  0  0  0  0
    9.1724    0.4505   10.3435 H   0  0  0  0  0  0  0  0  0  0  0  0
    7.4987    1.7784   10.2026 C   0  0  0  0  0  0  0  0  0  0  0  0
    7.8528    2.4347   10.9836 H   0  0  0  0  0  0  0  0  0  0  0  0
    6.3128    2.0521    9.5495 C   0  0  0  0  0  0  0  0  0  0  0  0
    5.7283    2.9405    9.7996 H   0  0  0  0  0  0  0  0  0  0  0  0
    2.9442    0.9382    8.7547 C   0  0  0  0  0  0  0  0  0  0  0  0
    2.9013    1.6947   10.0823 C   0  0  0  0  0  0  0  0  0  0  0  0
    3.8076    1.5174   10.6605 H   0  0  0  0  0  0  0  0  0  0  0  0
    2.0502    1.3633   10.6739 H   0  0  0  0  0  0  0  0  0  0  0  0
    2.7925    2.7647    9.8965 H   0  0  0  0  0  0  0  0  0  0  0  0
    3.2245   -0.5426    9.0021 C   0  0  0  0  0  0  0  0  0  0  0  0
    3.2118   -1.1168    8.0784 H   0  0  0  0  0  0  0  0  0  0  0  0
    2.4510   -0.9459    9.6537 H   0  0  0  0  0  0  0  0  0  0  0  0
    4.1870   -0.6853    9.4906 H   0  0  0  0  0  0  0  0  0  0  0  0
    1.6304    1.1332    8.0004 C   0  0  0  0  0  0  0  0  0  0  0  0
    1.5005    2.1871    7.7529 H   0  0  0  0  0  0  0  0  0  0  0  0
    0.7964    0.8257    8.6284 H   0  0  0  0  0  0  0  0  0  0  0  0
    1.6041    0.5396    7.0882 H   0  0  0  0  0  0  0  0  0  0  0  0
  1  4  1  0  0  0  0
  1  2  1  0  0  0  0
  3  1  1  0  0  0  0
  4 22  1  0  0  0  0
  4 33  1  1  0  0  0
  5 19  1  0  0  0  0
  6  1  1  0  0  0  0
  6 14  1  0  0  0  0
  7  8  1  1  0  0  0
  7  6  1  0  0  0  0
  8 10  2  0  0  0  0
  9  8  1  0  0  0  0
 10 12  1  0  0  0  0
 11 10  1  0  0  0  0
 12 14  2  0  0  0  0
 12 13  1  0  0  0  0
 14 15  1  0  0  0  0
 16 17  1  0  0  0  0
 16  5  1  0  0  0  0
 16  7  1  0  0  0  0
 18 16  1  0  0  0  0
 19 20  1  0  0  0  0
 19  4  1  0  0  0  0
 21 19  1  0  0  0  0
 22 31  1  0  0  0  0
 23 22  2  0  0  0  0
 23 25  1  0  0  0  0
 24 23  1  0  0  0  0
 25 27  2  0  0  0  0
 26 25  1  0  0  0  0
 27 29  1  0  0  0  0
 27 28  1  0  0  0  0
 29 30  1  0  0  0  0
 31 32  1  0  0  0  0
 31 29  2  0  0  0  0
 33 38  1  0  0  0  0
 33 34  1  0  0  0  0
 34 35  1  0  0  0  0
 34 36  1  0  0  0  0
 37 34  1  0  0  0  0
 38 41  1  0  0  0  0
 38 40  1  0  0  0  0
 39 38  1  0  0  0  0
 42 44  1  0  0  0  0
 42 33  1  0  0  0  0
 43 42  1  0  0  0  0
 45 42  1  0  0  0  0
M  END
$$$$
