CSD_code = SIZBOV | q = 0 | S = 0 | Stoichiometry = C17H26Cl2NOPPd | MND = 4
 OpenBabel04212202093D

 49 51  0  0  1  0  0  0  0  0999 V2000
    3.6410    5.6531   11.0655 Pd  0  0  0  0  0  0  0  0  0  0  0  0
    2.3628    6.3175   12.7655 Cl  0  0  0  0  0  0  0  0  0  0  0  0
    1.7752    5.0983    9.9207 Cl  0  0  0  0  0  0  0  0  0  0  0  0
    5.6127    5.6819   12.1696 P   0  0  1  0  0  4  0  0  0  0  0  0
    6.8822    5.5542    8.5303 O   0  0  0  0  0  0  0  0  0  0  0  0
    4.8471    5.3506    9.4037 N   0  0  2  0  0  0  0  0  0  0  0  0
    6.1066    5.2662    9.5816 C   0  0  2  0  0  3  0  0  0  0  0  0
    6.0090    5.9495    7.4670 C   0  0  0  0  0  0  0  0  0  0  0  0
    6.1906    5.2983    6.6103 H   0  0  0  0  0  0  0  0  0  0  0  0
    6.2556    6.9790    7.1969 H   0  0  0  0  0  0  0  0  0  0  0  0
    4.5794    5.8001    8.0479 C   0  0  2  0  0  0  0  0  0  0  0  0
    4.0181    5.0137    7.5298 H   0  0  0  0  0  0  0  0  0  0  0  0
    3.7175    7.0821    8.0298 C   0  0  0  0  0  0  0  0  0  0  0  0
    2.7186    6.7770    8.3669 H   0  0  0  0  0  0  0  0  0  0  0  0
    4.2318    8.1518    8.9989 C   0  0  0  0  0  0  0  0  0  0  0  0
    4.0166    7.8611   10.0461 H   0  0  0  0  0  0  0  0  0  0  0  0
    3.7170    9.0902    8.8084 H   0  0  0  0  0  0  0  0  0  0  0  0
    5.3033    8.3217    8.8905 H   0  0  0  0  0  0  0  0  0  0  0  0
    3.5985    7.6220    6.6071 C   0  0  0  0  0  0  0  0  0  0  0  0
    4.5410    8.0320    6.2497 H   0  0  0  0  0  0  0  0  0  0  0  0
    2.8545    8.4134    6.5789 H   0  0  0  0  0  0  0  0  0  0  0  0
    3.2831    6.8358    5.9255 H   0  0  0  0  0  0  0  0  0  0  0  0
    6.7333    4.9152   10.8781 C   0  0  0  0  0  0  0  0  0  0  0  0
    7.7666    5.2627   10.9009 H   0  0  0  0  0  0  0  0  0  0  0  0
    6.7139    3.8290   11.0025 H   0  0  0  0  0  0  0  0  0  0  0  0
    6.4878    7.1773   12.7092 C   0  0  0  0  0  0  0  0  0  0  0  0
    7.8674    7.2977   12.8410 C   0  0  0  0  0  0  0  0  0  0  0  0
    8.5189    6.4652   12.6162 H   0  0  0  0  0  0  0  0  0  0  0  0
    8.4133    8.4951   13.2683 C   0  0  0  0  0  0  0  0  0  0  0  0
    9.4846    8.5882   13.3716 H   0  0  0  0  0  0  0  0  0  0  0  0
    7.5929    9.5721   13.5646 C   0  0  0  0  0  0  0  0  0  0  0  0
    8.0282   10.5027   13.8970 H   0  0  0  0  0  0  0  0  0  0  0  0
    6.2181    9.4567   13.4330 C   0  0  0  0  0  0  0  0  0  0  0  0
    5.5790   10.2959   13.6622 H   0  0  0  0  0  0  0  0  0  0  0  0
    5.6658    8.2644   13.0037 C   0  0  0  0  0  0  0  0  0  0  0  0
    4.5918    8.1516   12.8951 H   0  0  0  0  0  0  0  0  0  0  0  0
    5.6572    4.4799   13.6052 C   0  0  0  0  0  0  0  0  0  0  0  0
    4.7823    3.2991   13.1711 C   0  0  0  0  0  0  0  0  0  0  0  0
    3.8031    3.6605   12.8122 H   0  0  0  0  0  0  0  0  0  0  0  0
    4.6056    2.6327   14.0135 H   0  0  0  0  0  0  0  0  0  0  0  0
    5.2544    2.7191   12.3763 H   0  0  0  0  0  0  0  0  0  0  0  0
    7.0682    4.0307   13.9745 C   0  0  0  0  0  0  0  0  0  0  0  0
    7.5642    3.5196   13.1514 H   0  0  0  0  0  0  0  0  0  0  0  0
    7.0172    3.3402   14.8149 H   0  0  0  0  0  0  0  0  0  0  0  0
    7.6747    4.8819   14.2772 H   0  0  0  0  0  0  0  0  0  0  0  0
    5.0027    5.2069   14.7802 C   0  0  0  0  0  0  0  0  0  0  0  0
    5.6217    6.0391   15.1136 H   0  0  0  0  0  0  0  0  0  0  0  0
    4.8665    4.5231   15.6158 H   0  0  0  0  0  0  0  0  0  0  0  0
    4.0258    5.5940   14.4849 H   0  0  0  0  0  0  0  0  0  0  0  0
  1  4  1  0  0  0  0
  1  2  1  0  0  0  0
  3  1  1  0  0  0  0
  4 26  1  0  0  0  0
  4 37  1  1  0  0  0
  6  7  1  0  0  0  0
  6  1  1  1  0  0  0
  7  5  1  1  0  0  0
  7 23  1  0  0  0  0
  8 11  1  0  0  0  0
  8  5  1  0  0  0  0
  9  8  1  0  0  0  0
 10  8  1  0  0  0  0
 11 12  1  6  0  0  0
 11  6  1  0  0  0  0
 13 11  1  0  0  0  0
 13 14  1  0  0  0  0
 13 15  1  0  0  0  0
 15 16  1  0  0  0  0
 17 15  1  0  0  0  0
 18 15  1  0  0  0  0
 19 13  1  0  0  0  0
 20 19  1  0  0  0  0
 21 19  1  0  0  0  0
 22 19  1  0  0  0  0
 23 24  1  0  0  0  0
 23 25  1  0  0  0  0
 23  4  1  0  0  0  0
 26 27  2  0  0  0  0
 26 35  1  0  0  0  0
 27 29  1  0  0  0  0
 28 27  1  0  0  0  0
 29 30  1  0  0  0  0
 29 31  2  0  0  0  0
 31 32  1  0  0  0  0
 33 31  1  0  0  0  0
 33 34  1  0  0  0  0
 35 33  2  0  0  0  0
 36 35  1  0  0  0  0
 37 42  1  0  0  0  0
 37 46  1  0  0  0  0
 38 37  1  0  0  0  0
 38 40  1  0  0  0  0
 39 38  1  0  0  0  0
 41 38  1  0  0  0  0
 42 45  1  0  0  0  0
 42 44  1  0  0  0  0
 43 42  1  0  0  0  0
 46 47  1  0  0  0  0
 46 48  1  0  0  0  0
 49 46  1  0  0  0  0
M  END
$$$$
