CSD_code = SIZHUH | q = 0 | S = 0 | Stoichiometry = C14H16AgClN2 | MND = 2
 OpenBabel04212202093D

 34 37  0  0  1  0  0  0  0  0999 V2000
    8.9504    7.5061    8.6976 Ag  0  0  0  0  0  0  0  0  0  0  0  0
   10.5317    6.7321    7.3041 Cl  0  0  0  0  0  0  0  0  0  0  0  0
    6.1015    7.7273    9.7834 N   0  0  0  0  0  0  0  0  0  0  0  0
    7.5371    7.7212   11.3961 N   0  0  0  0  0  0  0  0  0  0  0  0
    7.3878    7.9138   10.0844 C   0  0  1  0  0  3  0  0  0  0  0  0
    7.1271    5.0522   11.2377 C   0  0  0  0  0  0  0  0  0  0  0  0
    6.1956    5.0552   10.1952 C   0  0  0  0  0  0  0  0  0  0  0  0
    8.4174    4.6171   11.0336 C   0  0  0  0  0  0  0  0  0  0  0  0
    9.1407    4.6032   11.8362 H   0  0  0  0  0  0  0  0  0  0  0  0
    6.5408    4.6207    8.9351 C   0  0  0  0  0  0  0  0  0  0  0  0
    5.8235    4.6094    8.1271 H   0  0  0  0  0  0  0  0  0  0  0  0
    5.3208    7.2106   10.8901 C   0  0  2  0  0  0  0  0  0  0  0  0
    4.4319    7.8246   11.0668 H   0  0  0  0  0  0  0  0  0  0  0  0
    8.7694    4.1794    9.7595 C   0  0  0  0  0  0  0  0  0  0  0  0
    9.7721    3.8267    9.5744 H   0  0  0  0  0  0  0  0  0  0  0  0
    6.3458    7.2059   12.0409 C   0  0  1  0  0  0  0  0  0  0  0  0
    6.0697    7.8158   12.9069 H   0  0  0  0  0  0  0  0  0  0  0  0
    4.9495    5.7064   10.7343 C   0  0  2  0  0  0  0  0  0  0  0  0
    4.0277    5.5248   10.1877 H   0  0  0  0  0  0  0  0  0  0  0  0
    6.4530    5.6991   12.4187 C   0  0  1  0  0  0  0  0  0  0  0  0
    6.8911    5.5099   13.3952 H   0  0  0  0  0  0  0  0  0  0  0  0
    7.8452    4.1805    8.7265 C   0  0  0  0  0  0  0  0  0  0  0  0
    8.1398    3.8284    7.7501 H   0  0  0  0  0  0  0  0  0  0  0  0
    5.0014    5.2540   12.1992 C   0  0  0  0  0  0  0  0  0  0  0  0
    4.2885    5.7744   12.8379 H   0  0  0  0  0  0  0  0  0  0  0  0
    4.8748    4.1783   12.3075 H   0  0  0  0  0  0  0  0  0  0  0  0
    8.7410    7.9191   12.1462 C   0  0  0  0  0  0  0  0  0  0  0  0
    9.5336    8.2328   11.4652 H   0  0  0  0  0  0  0  0  0  0  0  0
    9.0464    6.9968   12.6432 H   0  0  0  0  0  0  0  0  0  0  0  0
    8.5896    8.6931   12.9045 H   0  0  0  0  0  0  0  0  0  0  0  0
    5.4985    7.9254    8.4996 C   0  0  0  0  0  0  0  0  0  0  0  0
    4.7095    8.6801    8.5675 H   0  0  0  0  0  0  0  0  0  0  0  0
    5.0642    6.9972    8.1243 H   0  0  0  0  0  0  0  0  0  0  0  0
    6.2631    8.2657    7.7997 H   0  0  0  0  0  0  0  0  0  0  0  0
  2  1  1  0  0  0  0
  3  5  1  0  0  0  0
  3 12  1  0  0  0  0
  4 16  1  0  0  0  0
  4 27  1  0  0  0  0
  5  1  1  6  0  0  0
  5  4  1  0  0  0  0
  6 20  1  0  0  0  0
  7 18  1  0  0  0  0
  7  6  2  0  0  0  0
  8  6  1  0  0  0  0
  8  9  1  0  0  0  0
 10  7  1  0  0  0  0
 11 10  1  0  0  0  0
 12 13  1  1  0  0  0
 12 16  1  0  0  0  0
 14  8  2  0  0  0  0
 15 14  1  0  0  0  0
 16 20  1  0  0  0  0
 16 17  1  1  0  0  0
 18 19  1  6  0  0  0
 18 12  1  0  0  0  0
 18 24  1  0  0  0  0
 20 21  1  1  0  0  0
 22 10  2  0  0  0  0
 22 14  1  0  0  0  0
 23 22  1  0  0  0  0
 24 26  1  0  0  0  0
 24 20  1  0  0  0  0
 24 25  1  0  0  0  0
 27 29  1  0  0  0  0
 27 30  1  0  0  0  0
 28 27  1  0  0  0  0
 31 32  1  0  0  0  0
 31  3  1  0  0  0  0
 33 31  1  0  0  0  0
 34 31  1  0  0  0  0
M  END
$$$$
