CSD_code = SOCDAP | q = 0 | S = 0 | Stoichiometry = C28H31ClP3Rh | MND = 4
 OpenBabel04212202093D

 64 68  0  0  0  0  0  0  0  0999 V2000
   -0.1956    2.2653    1.9258 Rh  0  0  0  0  0  0  0  0  0  0  0  0
    1.2408    0.9202    3.0348 Cl  0  0  0  0  0  0  0  0  0  0  0  0
    1.3278    3.6343    0.9568 P   0  0  0  0  0  4  0  0  0  0  0  0
   -1.8156    1.1686    3.0310 P   0  0  0  0  0  4  0  0  0  0  0  0
   -1.3669    3.5958    0.5529 P   0  0  0  0  0  4  0  0  0  0  0  0
   -1.8544   -0.6580    2.9005 C   0  0  0  0  0  0  0  0  0  0  0  0
   -1.7456    1.3791    4.8501 C   0  0  0  0  0  0  0  0  0  0  0  0
   -3.5789    1.5785    2.7030 C   0  0  0  0  0  0  0  0  0  0  0  0
    0.1266    4.3827   -0.2594 C   0  0  0  0  0  0  0  0  0  0  0  0
    2.9224    3.4835    0.0949 C   0  0  0  0  0  0  0  0  0  0  0  0
    3.8460    2.6199    0.6773 C   0  0  0  0  0  0  0  0  0  0  0  0
    5.0952    2.4570    0.1089 C   0  0  0  0  0  0  0  0  0  0  0  0
    5.4239    3.1494   -1.0460 C   0  0  0  0  0  0  0  0  0  0  0  0
    4.5020    3.9998   -1.6346 C   0  0  0  0  0  0  0  0  0  0  0  0
    3.2505    4.1685   -1.0691 C   0  0  0  0  0  0  0  0  0  0  0  0
    1.6409    5.0482    2.0667 C   0  0  0  0  0  0  0  0  0  0  0  0
    1.0292    5.0093    3.3162 C   0  0  0  0  0  0  0  0  0  0  0  0
    1.1701    6.0692    4.1929 C   0  0  0  0  0  0  0  0  0  0  0  0
    1.9276    7.1698    3.8252 C   0  0  0  0  0  0  0  0  0  0  0  0
    2.5471    7.2072    2.5857 C   0  0  0  0  0  0  0  0  0  0  0  0
    2.4079    6.1494    1.7053 C   0  0  0  0  0  0  0  0  0  0  0  0
   -2.4539    4.9941    0.9755 C   0  0  0  0  0  0  0  0  0  0  0  0
   -1.9126    6.1340    1.5640 C   0  0  0  0  0  0  0  0  0  0  0  0
   -2.7382    7.1536    1.9989 C   0  0  0  0  0  0  0  0  0  0  0  0
   -4.1130    7.0387    1.8689 C   0  0  0  0  0  0  0  0  0  0  0  0
   -4.6602    5.8936    1.3132 C   0  0  0  0  0  0  0  0  0  0  0  0
   -3.8375    4.8716    0.8771 C   0  0  0  0  0  0  0  0  0  0  0  0
   -2.1928    2.8399   -0.8852 C   0  0  0  0  0  0  0  0  0  0  0  0
   -2.8241    3.5688   -1.8871 C   0  0  0  0  0  0  0  0  0  0  0  0
   -3.3601    2.9103   -2.9786 C   0  0  0  0  0  0  0  0  0  0  0  0
   -3.2627    1.5307   -3.0791 C   0  0  0  0  0  0  0  0  0  0  0  0
   -2.6196    0.8031   -2.0907 C   0  0  0  0  0  0  0  0  0  0  0  0
   -2.0837    1.4585   -0.9972 C   0  0  0  0  0  0  0  0  0  0  0  0
   -2.0729   -0.9459    1.8731 H   0  0  0  0  0  0  0  0  0  0  0  0
   -2.6098   -1.0744    3.5667 H   0  0  0  0  0  0  0  0  0  0  0  0
   -0.8696   -1.0363    3.1696 H   0  0  0  0  0  0  0  0  0  0  0  0
   -1.8737    2.4332    5.0953 H   0  0  0  0  0  0  0  0  0  0  0  0
   -0.7634    1.0541    5.1901 H   0  0  0  0  0  0  0  0  0  0  0  0
   -2.5228    0.7914    5.3382 H   0  0  0  0  0  0  0  0  0  0  0  0
   -4.2405    0.9927    3.3396 H   0  0  0  0  0  0  0  0  0  0  0  0
   -3.8055    1.3746    1.6574 H   0  0  0  0  0  0  0  0  0  0  0  0
   -3.7373    2.6398    2.8900 H   0  0  0  0  0  0  0  0  0  0  0  0
    0.2616    3.9339   -1.2485 H   0  0  0  0  0  0  0  0  0  0  0  0
    0.1243    5.4721   -0.3387 H   0  0  0  0  0  0  0  0  0  0  0  0
    3.5627    2.0770    1.5698 H   0  0  0  0  0  0  0  0  0  0  0  0
    5.8122    1.7877    0.5610 H   0  0  0  0  0  0  0  0  0  0  0  0
    6.3989    3.0222   -1.4936 H   0  0  0  0  0  0  0  0  0  0  0  0
    4.7595    4.5334   -2.5387 H   0  0  0  0  0  0  0  0  0  0  0  0
    2.5313    4.8296   -1.5339 H   0  0  0  0  0  0  0  0  0  0  0  0
    0.4427    4.1262    3.5841 H   0  0  0  0  0  0  0  0  0  0  0  0
    0.6937    6.0389    5.1618 H   0  0  0  0  0  0  0  0  0  0  0  0
    2.0411    7.9996    4.5076 H   0  0  0  0  0  0  0  0  0  0  0  0
    3.1425    8.0645    2.3059 H   0  0  0  0  0  0  0  0  0  0  0  0
    2.8975    6.1737    0.7414 H   0  0  0  0  0  0  0  0  0  0  0  0
   -0.8413    6.2169    1.6881 H   0  0  0  0  0  0  0  0  0  0  0  0
   -2.3083    8.0383    2.4460 H   0  0  0  0  0  0  0  0  0  0  0  0
   -4.7574    7.8361    2.2086 H   0  0  0  0  0  0  0  0  0  0  0  0
   -5.7326    5.7958    1.2229 H   0  0  0  0  0  0  0  0  0  0  0  0
   -4.2647    3.9749    0.4486 H   0  0  0  0  0  0  0  0  0  0  0  0
   -2.8953    4.6451   -1.8060 H   0  0  0  0  0  0  0  0  0  0  0  0
   -3.8542    3.4736   -3.7572 H   0  0  0  0  0  0  0  0  0  0  0  0
   -3.6851    1.0235   -3.9342 H   0  0  0  0  0  0  0  0  0  0  0  0
   -2.5359   -0.2705   -2.1764 H   0  0  0  0  0  0  0  0  0  0  0  0
   -1.5618    0.9162   -0.2102 H   0  0  0  0  0  0  0  0  0  0  0  0
  1  4  1  0  0  0  0
  1  2  1  0  0  0  0
  3  1  1  0  0  0  0
  3 16  1  0  0  0  0
  4  7  1  0  0  0  0
  5 22  1  0  0  0  0
  5  1  1  0  0  0  0
  6  4  1  0  0  0  0
  6 36  1  0  0  0  0
  6 35  1  0  0  0  0
  7 37  1  0  0  0  0
  7 38  1  0  0  0  0
  7 39  1  0  0  0  0
  8 42  1  0  0  0  0
  8  4  1  0  0  0  0
  8 40  1  0  0  0  0
  9  5  1  0  0  0  0
  9  3  1  0  0  0  0
 10 11  1  0  0  0  0
 10  3  1  0  0  0  0
 11 45  1  0  0  0  0
 12 46  1  0  0  0  0
 12 11  2  0  0  0  0
 13 12  1  0  0  0  0
 14 15  1  0  0  0  0
 14 13  2  0  0  0  0
 15 10  2  0  0  0  0
 16 17  1  0  0  0  0
 17 50  1  0  0  0  0
 17 18  2  0  0  0  0
 18 51  1  0  0  0  0
 19 18  1  0  0  0  0
 19 52  1  0  0  0  0
 20 19  2  0  0  0  0
 21 16  2  0  0  0  0
 21 20  1  0  0  0  0
 22 23  1  0  0  0  0
 23 55  1  0  0  0  0
 23 24  2  0  0  0  0
 24 56  1  0  0  0  0
 25 24  1  0  0  0  0
 25 57  1  0  0  0  0
 26 25  2  0  0  0  0
 27 22  2  0  0  0  0
 27 26  1  0  0  0  0
 28  5  1  0  0  0  0
 29 60  1  0  0  0  0
 29 28  2  0  0  0  0
 30 29  1  0  0  0  0
 31 30  2  0  0  0  0
 31 32  1  0  0  0  0
 32 33  2  0  0  0  0
 33 28  1  0  0  0  0
 33 64  1  0  0  0  0
 34  6  1  0  0  0  0
 41  8  1  0  0  0  0
 43  9  1  0  0  0  0
 44  9  1  0  0  0  0
 47 13  1  0  0  0  0
 48 14  1  0  0  0  0
 49 15  1  0  0  0  0
 53 20  1  0  0  0  0
 54 21  1  0  0  0  0
 58 26  1  0  0  0  0
 59 27  1  0  0  0  0
 61 30  1  0  0  0  0
 62 31  1  0  0  0  0
 63 32  1  0  0  0  0
M  END
$$$$
