CSD_code = SOCMON | q = 0 | S = 0 | Stoichiometry = C29H31Cl3N4PRe | MND = 6
 OpenBabel04212202093D

 69 74  0  0  1  0  0  0  0  0999 V2000
    4.2569    9.8635    2.7567 Re  0  0  0  0  0  0  0  0  0  0  0  0
    2.0799   10.4069    3.2864 Cl  0  0  0  0  0  0  0  0  0  0  0  0
    5.2416   10.6825    4.7134 Cl  0  0  0  0  0  0  0  0  0  0  0  0
    3.5590    8.8648    0.7000 Cl  0  0  0  0  0  0  0  0  0  0  0  0
    6.3015    9.1010    2.3450 N   0  0  0  0  0  0  0  0  0  0  0  0
    6.5348    7.7752    2.2533 N   0  0  1  0  0  0  0  0  0  0  0  0
    4.0772    7.9684    3.8380 N   0  0  0  0  0  0  0  0  0  0  0  0
    4.6956    6.8498    3.4123 N   0  0  2  0  0  0  0  0  0  0  0  0
    7.8608    7.5137    2.2490 C   0  0  2  0  0  3  0  0  0  0  0  0
    8.4984    8.7307    2.3417 C   0  0  0  0  0  0  0  0  0  0  0  0
    9.5539    8.9064    2.3638 H   0  0  0  0  0  0  0  0  0  0  0  0
    7.4890    9.6998    2.4059 C   0  0  0  0  0  0  0  0  0  0  0  0
    8.4266    6.1453    2.1435 C   0  0  0  0  0  0  0  0  0  0  0  0
    8.1259    5.5304    2.9918 H   0  0  0  0  0  0  0  0  0  0  0  0
    9.5109    6.2077    2.1356 H   0  0  0  0  0  0  0  0  0  0  0  0
    8.1020    5.6552    1.2258 H   0  0  0  0  0  0  0  0  0  0  0  0
    7.6653   11.1640    2.5309 C   0  0  0  0  0  0  0  0  0  0  0  0
    7.0812   11.6805    1.7714 H   0  0  0  0  0  0  0  0  0  0  0  0
    8.7146   11.4245    2.4278 H   0  0  0  0  0  0  0  0  0  0  0  0
    7.3032   11.4953    3.5044 H   0  0  0  0  0  0  0  0  0  0  0  0
    4.5251    5.8318    4.2888 C   0  0  1  0  0  3  0  0  0  0  0  0
    3.7615    6.3323    5.3154 C   0  0  0  0  0  0  0  0  0  0  0  0
    3.4245    5.8094    6.1866 H   0  0  0  0  0  0  0  0  0  0  0  0
    3.5064    7.6772    4.9990 C   0  0  0  0  0  0  0  0  0  0  0  0
    2.7274    8.6248    5.8315 C   0  0  0  0  0  0  0  0  0  0  0  0
    3.1972    9.6062    5.8338 H   0  0  0  0  0  0  0  0  0  0  0  0
    2.6639    8.2493    6.8499 H   0  0  0  0  0  0  0  0  0  0  0  0
    1.7214    8.7401    5.4309 H   0  0  0  0  0  0  0  0  0  0  0  0
    5.0789    4.4693    4.0825 C   0  0  0  0  0  0  0  0  0  0  0  0
    4.7062    4.0301    3.1571 H   0  0  0  0  0  0  0  0  0  0  0  0
    4.7756    3.8346    4.9102 H   0  0  0  0  0  0  0  0  0  0  0  0
    6.1686    4.4854    4.0465 H   0  0  0  0  0  0  0  0  0  0  0  0
    5.4407    6.8419    2.1825 C   0  0  0  0  0  0  0  0  0  0  0  0
    4.7734    7.1532    1.3574 H   0  0  0  0  0  0  0  0  0  0  0  0
    5.8312    5.8406    2.0055 H   0  0  0  0  0  0  0  0  0  0  0  0
    4.2590   11.9476    1.6215 P   0  0  0  0  0  4  0  0  0  0  0  0
    5.1254   12.1428    0.0274 C   0  0  0  0  0  0  0  0  0  0  0  0
    5.8777   11.1075   -0.5114 C   0  0  0  0  0  0  0  0  0  0  0  0
    5.9545   10.1734    0.0272 H   0  0  0  0  0  0  0  0  0  0  0  0
    6.4976   11.2632   -1.7393 C   0  0  0  0  0  0  0  0  0  0  0  0
    7.0764   10.4519   -2.1560 H   0  0  0  0  0  0  0  0  0  0  0  0
    6.3700   12.4532   -2.4346 C   0  0  0  0  0  0  0  0  0  0  0  0
    6.8533   12.5752   -3.3929 H   0  0  0  0  0  0  0  0  0  0  0  0
    5.6106   13.4863   -1.9066 C   0  0  0  0  0  0  0  0  0  0  0  0
    5.5013   14.4115   -2.4537 H   0  0  0  0  0  0  0  0  0  0  0  0
    4.9850   13.3320   -0.6844 C   0  0  0  0  0  0  0  0  0  0  0  0
    4.3782   14.1295   -0.2770 H   0  0  0  0  0  0  0  0  0  0  0  0
    4.8347   13.3343    2.6449 C   0  0  0  0  0  0  0  0  0  0  0  0
    5.8772   14.1839    2.3000 C   0  0  0  0  0  0  0  0  0  0  0  0
    6.3870   14.0680    1.3537 H   0  0  0  0  0  0  0  0  0  0  0  0
    6.2690   15.1854    3.1720 C   0  0  0  0  0  0  0  0  0  0  0  0
    7.0801   15.8448    2.8981 H   0  0  0  0  0  0  0  0  0  0  0  0
    5.6318   15.3396    4.3912 C   0  0  0  0  0  0  0  0  0  0  0  0
    5.9451   16.1202    5.0690 H   0  0  0  0  0  0  0  0  0  0  0  0
    4.5987   14.4863    4.7455 C   0  0  0  0  0  0  0  0  0  0  0  0
    4.1077   14.5966    5.7010 H   0  0  0  0  0  0  0  0  0  0  0  0
    4.2042   13.4850    3.8796 C   0  0  0  0  0  0  0  0  0  0  0  0
    3.4128   12.7998    4.1553 H   0  0  0  0  0  0  0  0  0  0  0  0
    2.6129   12.5196    1.0603 C   0  0  0  0  0  0  0  0  0  0  0  0
    2.0464   11.8341   -0.0125 C   0  0  0  0  0  0  0  0  0  0  0  0
    2.5829   11.0113   -0.4646 H   0  0  0  0  0  0  0  0  0  0  0  0
    0.8028   12.1933   -0.4939 C   0  0  0  0  0  0  0  0  0  0  0  0
    0.3695   11.6485   -1.3201 H   0  0  0  0  0  0  0  0  0  0  0  0
    0.1133   13.2466    0.0842 C   0  0  0  0  0  0  0  0  0  0  0  0
   -0.8611   13.5265   -0.2890 H   0  0  0  0  0  0  0  0  0  0  0  0
    0.6766   13.9383    1.1420 C   0  0  0  0  0  0  0  0  0  0  0  0
    0.1439   14.7625    1.5947 H   0  0  0  0  0  0  0  0  0  0  0  0
    1.9206   13.5796    1.6317 C   0  0  0  0  0  0  0  0  0  0  0  0
    2.3462   14.1276    2.4591 H   0  0  0  0  0  0  0  0  0  0  0  0
  1  2  1  0  0  0  0
  1  7  1  0  0  0  0
  1  3  1  0  0  0  0
  4  1  1  0  0  0  0
  5 12  1  0  0  0  0
  5  1  1  0  0  0  0
  6 33  1  1  0  0  0
  6  5  1  0  0  0  0
  7 24  1  0  0  0  0
  8 33  1  1  0  0  0
  8  7  1  0  0  0  0
  8 21  1  0  0  0  0
  9 13  1  6  0  0  0
  9  6  1  0  0  0  0
  9 10  1  0  0  0  0
 10 11  1  0  0  0  0
 10 12  2  0  0  0  0
 12 17  1  0  0  0  0
 13 14  1  0  0  0  0
 15 13  1  0  0  0  0
 16 13  1  0  0  0  0
 17 20  1  0  0  0  0
 18 17  1  0  0  0  0
 19 17  1  0  0  0  0
 21 29  1  6  0  0  0
 21 22  1  0  0  0  0
 22 23  1  0  0  0  0
 24 22  2  0  0  0  0
 24 25  1  0  0  0  0
 25 26  1  0  0  0  0
 25 27  1  0  0  0  0
 28 25  1  0  0  0  0
 29 31  1  0  0  0  0
 30 29  1  0  0  0  0
 32 29  1  0  0  0  0
 34 33  1  0  0  0  0
 35 33  1  0  0  0  0
 36 48  1  0  0  0  0
 36  1  1  0  0  0  0
 37 36  1  0  0  0  0
 38 39  1  0  0  0  0
 38 37  1  0  0  0  0
 40 38  2  0  0  0  0
 41 40  1  0  0  0  0
 42 44  2  0  0  0  0
 42 40  1  0  0  0  0
 43 42  1  0  0  0  0
 44 46  1  0  0  0  0
 45 44  1  0  0  0  0
 46 47  1  0  0  0  0
 46 37  2  0  0  0  0
 48 57  1  0  0  0  0
 49 48  2  0  0  0  0
 49 51  1  0  0  0  0
 50 49  1  0  0  0  0
 51 53  2  0  0  0  0
 52 51  1  0  0  0  0
 53 55  1  0  0  0  0
 53 54  1  0  0  0  0
 55 56  1  0  0  0  0
 57 58  1  0  0  0  0
 57 55  2  0  0  0  0
 59 36  1  0  0  0  0
 59 68  1  0  0  0  0
 60 59  2  0  0  0  0
 61 60  1  0  0  0  0
 62 60  1  0  0  0  0
 62 64  2  0  0  0  0
 63 62  1  0  0  0  0
 64 66  1  0  0  0  0
 65 64  1  0  0  0  0
 66 67  1  0  0  0  0
 66 68  2  0  0  0  0
 68 69  1  0  0  0  0
M  END
$$$$
