CSD_code = SOCQIK | q = 1 | S = 0 | Stoichiometry = C18H23AuClN4O2S(1+) | MND = 4
 OpenBabel04212202093D

 50 52  0  0  0  0  0  0  0  0999 V2000
   20.7543    4.7508    5.4335 Au  0  0  2  0  0  0  0  0  0  0  0  0
   21.7845    6.5977    6.3274 Cl  0  0  0  0  0  0  0  0  0  0  0  0
   19.4075    6.0073    4.6573 C   0  0  0  0  0  0  0  0  0  0  0  0
   19.3981    6.1432    3.2771 C   0  0  0  0  0  0  0  0  0  0  0  0
   18.5313    7.0246    2.6520 C   0  0  0  0  0  0  0  0  0  0  0  0
   17.6625    7.7917    3.4079 C   0  0  0  0  0  0  0  0  0  0  0  0
   17.6741    7.6724    4.7830 C   0  0  0  0  0  0  0  0  0  0  0  0
   18.5425    6.7845    5.4185 C   0  0  0  0  0  0  0  0  0  0  0  0
   18.5014    6.7187    6.9217 C   0  0  0  0  0  0  0  0  0  0  0  0
   17.2532    6.0415    7.3884 N   0  0  0  0  0  4  0  0  0  0  0  0
   16.4792    6.4856    6.8785 H   0  0  0  0  0  0  0  0  0  0  0  0
   17.0421    6.2316    8.8317 C   0  0  0  0  0  0  0  0  0  0  0  0
   17.2525    4.6123    7.0359 C   0  0  0  0  0  0  0  0  0  0  0  0
   19.5442    2.9148    4.7524 S   0  0  0  0  0  0  0  0  0  0  0  0
   20.7962    1.7443    5.2143 C   0  0  0  0  0  0  0  0  0  0  0  0
   20.4845    0.4702    4.9495 N   0  0  0  0  0  0  0  0  0  0  0  0
   21.9025    2.0471    5.7825 N   0  0  0  0  0  0  0  0  0  0  0  0
   22.1723    3.3448    6.0669 N   0  0  0  0  0  0  0  0  0  0  0  0
   23.2940    3.6738    6.6324 C   0  0  0  0  0  3  0  0  0  0  0  0
   24.4102    2.8790    7.0325 C   0  0  0  0  0  0  0  0  0  0  0  0
   24.5016    1.4898    6.8272 C   0  0  0  0  0  0  0  0  0  0  0  0
   25.6183    0.7835    7.2227 C   0  0  0  0  0  0  0  0  0  0  0  0
   25.8017   -0.5459    7.0623 O   0  0  0  0  0  0  0  0  0  0  0  0
   24.7949   -1.2936    6.4252 C   0  0  0  0  0  0  0  0  0  0  0  0
   26.6876    1.4706    7.8534 C   0  0  0  0  0  0  0  0  0  0  0  0
   27.7537    0.7491    8.2268 O   0  0  0  0  0  0  0  0  0  0  0  0
   26.5933    2.8427    8.0569 C   0  0  0  0  0  0  0  0  0  0  0  0
   25.4778    3.5425    7.6533 C   0  0  0  0  0  0  0  0  0  0  0  0
   20.0718    5.5547    2.6732 H   0  0  0  0  0  0  0  0  0  0  0  0
   18.5442    7.1122    1.5772 H   0  0  0  0  0  0  0  0  0  0  0  0
   16.9900    8.4863    2.9300 H   0  0  0  0  0  0  0  0  0  0  0  0
   17.0196    8.2954    5.3788 H   0  0  0  0  0  0  0  0  0  0  0  0
   18.5138    7.7323    7.3290 H   0  0  0  0  0  0  0  0  0  0  0  0
   19.3659    6.1816    7.3140 H   0  0  0  0  0  0  0  0  0  0  0  0
   16.9702    7.2913    9.0696 H   0  0  0  0  0  0  0  0  0  0  0  0
   17.8816    5.8069    9.3798 H   0  0  0  0  0  0  0  0  0  0  0  0
   16.1261    5.7366    9.1496 H   0  0  0  0  0  0  0  0  0  0  0  0
   18.0463    4.1016    7.5778 H   0  0  0  0  0  0  0  0  0  0  0  0
   16.2979    4.1586    7.2946 H   0  0  0  0  0  0  0  0  0  0  0  0
   17.4282    4.4853    5.9686 H   0  0  0  0  0  0  0  0  0  0  0  0
   21.1700   -0.2498    5.0978 H   0  0  0  0  0  0  0  0  0  0  0  0
   19.6585    0.2653    4.4158 H   0  0  0  0  0  0  0  0  0  0  0  0
   23.3803    4.7358    6.8263 H   0  0  0  0  0  0  0  0  0  0  0  0
   23.6753    0.9946    6.3482 H   0  0  0  0  0  0  0  0  0  0  0  0
   23.8565   -1.2626    6.9889 H   0  0  0  0  0  0  0  0  0  0  0  0
   24.6216   -0.9413    5.4030 H   0  0  0  0  0  0  0  0  0  0  0  0
   25.1656   -2.3165    6.3966 H   0  0  0  0  0  0  0  0  0  0  0  0
   28.4258    1.3089    8.6385 H   0  0  0  0  0  0  0  0  0  0  0  0
   27.4131    3.3596    8.5360 H   0  0  0  0  0  0  0  0  0  0  0  0
   25.4247    4.6077    7.8159 H   0  0  0  0  0  0  0  0  0  0  0  0
  1 18  1  0  0  0  0
  1  2  1  1  0  0  0
  3  8  1  0  0  0  0
  3  1  1  0  0  0  0
  4  3  2  0  0  0  0
  5  4  1  0  0  0  0
  5  6  2  0  0  0  0
  6  7  1  0  0  0  0
  7 32  1  0  0  0  0
  7  8  2  0  0  0  0
  8  9  1  0  0  0  0
  9 34  1  0  0  0  0
  9 33  1  0  0  0  0
  9 10  1  0  0  0  0
 10 12  1  0  0  0  0
 11 10  1  0  0  0  0
 12 35  1  0  0  0  0
 12 37  1  0  0  0  0
 12 36  1  0  0  0  0
 13 39  1  0  0  0  0
 13 10  1  0  0  0  0
 13 38  1  0  0  0  0
 14 15  1  0  0  0  0
 14  1  1  0  0  0  0
 15 17  2  0  0  0  0
 16 41  1  0  0  0  0
 16 15  1  0  0  0  0
 17 18  1  0  0  0  0
 18 19  1  0  0  0  0
 19 43  1  0  0  0  0
 19 20  1  0  0  0  0
 20 28  1  0  0  0  0
 21 20  2  0  0  0  0
 21 22  1  0  0  0  0
 22 25  2  0  0  0  0
 23 22  1  0  0  0  0
 24 45  1  0  0  0  0
 24 23  1  0  0  0  0
 25 27  1  0  0  0  0
 25 26  1  0  0  0  0
 26 48  1  0  0  0  0
 27 49  1  0  0  0  0
 28 50  1  0  0  0  0
 28 27  2  0  0  0  0
 29  4  1  0  0  0  0
 30  5  1  0  0  0  0
 31  6  1  0  0  0  0
 40 13  1  0  0  0  0
 42 16  1  0  0  0  0
 44 21  1  0  0  0  0
 46 24  1  0  0  0  0
 47 24  1  0  0  0  0
M  END
$$$$
