CSD_code = SODXAK | q = 0 | S = 0 | Stoichiometry = C23H25I2N3O2Zn | MND = 4
 OpenBabel04212202093D

 56 60  0  0  1  0  0  0  0  0999 V2000
    1.6158    2.5398    5.7750 Zn  0  0  0  0  0  0  0  0  0  0  0  0
    1.8379    4.7901    4.6824 I   0  0  0  0  0  0  0  0  0  0  0  0
    3.0181    0.6955    6.7746 I   0  0  0  0  0  0  0  0  0  0  0  0
   -3.0018    2.8952    3.1946 O   0  0  0  0  0  0  0  0  0  0  0  0
   -2.6782    5.0457    7.8644 O   0  0  0  0  0  0  0  0  0  0  0  0
   -4.2492    4.5875    5.3253 N   0  0  0  0  0  0  0  0  0  0  0  0
    0.0170    1.4020    4.6611 N   0  0  2  0  0  4  0  0  0  0  0  0
   -0.0506    2.7659    7.2355 N   0  0  2  0  0  4  0  0  0  0  0  0
   -4.0428    5.6526    6.0847 C   0  0  0  0  0  0  0  0  0  0  0  0
   -3.7745    6.9090    5.5559 C   0  0  0  0  0  0  0  0  0  0  0  0
   -3.7217    7.0449    4.1783 C   0  0  0  0  0  0  0  0  0  0  0  0
   -3.9226    5.9270    3.3851 C   0  0  0  0  0  0  0  0  0  0  0  0
   -4.1850    4.7136    4.0091 C   0  0  0  0  0  0  0  0  0  0  0  0
   -4.3109    3.4320    3.2247 C   0  0  0  0  0  0  0  0  0  0  0  0
   -2.7734    1.6951    2.5951 C   0  0  0  0  0  0  0  0  0  0  0  0
   -3.7388    0.9365    1.9450 C   0  0  0  0  0  0  0  0  0  0  0  0
   -3.3964   -0.2749    1.3674 C   0  0  0  0  0  0  0  0  0  0  0  0
   -2.0964   -0.7403    1.4269 C   0  0  0  0  0  0  0  0  0  0  0  0
   -1.1327    0.0150    2.0735 C   0  0  0  0  0  0  0  0  0  0  0  0
   -1.4515    1.2275    2.6617 C   0  0  0  0  0  0  0  0  0  0  0  0
   -0.4044    2.0283    3.3930 C   0  0  0  0  0  0  0  0  0  0  0  0
   -1.0851    1.2478    5.6222 C   0  0  0  0  0  0  0  0  0  0  0  0
   -1.2696    2.5077    6.4640 C   0  0  0  0  0  0  0  0  0  0  0  0
   -0.1173    4.0143    8.0187 C   0  0  0  0  0  0  0  0  0  0  0  0
   -1.0901    3.9195    9.1657 C   0  0  0  0  0  0  0  0  0  0  0  0
   -0.7216    3.2800   10.3381 C   0  0  0  0  0  0  0  0  0  0  0  0
   -1.6116    3.1463   11.3902 C   0  0  0  0  0  0  0  0  0  0  0  0
   -2.8868    3.6652   11.2693 C   0  0  0  0  0  0  0  0  0  0  0  0
   -3.2776    4.3095   10.1073 C   0  0  0  0  0  0  0  0  0  0  0  0
   -2.3888    4.4364    9.0465 C   0  0  0  0  0  0  0  0  0  0  0  0
   -4.0188    5.3932    7.5694 C   0  0  0  0  0  0  0  0  0  0  0  0
    0.3425    0.4638    4.4252 H   0  0  0  0  0  0  0  0  0  0  0  0
    0.0458    2.0041    7.9121 H   0  0  0  0  0  0  0  0  0  0  0  0
   -3.6015    7.7512    6.2067 H   0  0  0  0  0  0  0  0  0  0  0  0
   -3.5110    8.0041    3.7297 H   0  0  0  0  0  0  0  0  0  0  0  0
   -3.8669    5.9898    2.3099 H   0  0  0  0  0  0  0  0  0  0  0  0
   -4.6739    3.6276    2.2077 H   0  0  0  0  0  0  0  0  0  0  0  0
   -4.9938    2.7467    3.7418 H   0  0  0  0  0  0  0  0  0  0  0  0
   -4.7588    1.2825    1.8852 H   0  0  0  0  0  0  0  0  0  0  0  0
   -4.1569   -0.8538    0.8656 H   0  0  0  0  0  0  0  0  0  0  0  0
   -1.8318   -1.6819    0.9720 H   0  0  0  0  0  0  0  0  0  0  0  0
   -0.1120   -0.3400    2.1149 H   0  0  0  0  0  0  0  0  0  0  0  0
   -0.7919    3.0249    3.6044 H   0  0  0  0  0  0  0  0  0  0  0  0
    0.4855    2.1287    2.7642 H   0  0  0  0  0  0  0  0  0  0  0  0
   -2.0244    1.0124    5.1103 H   0  0  0  0  0  0  0  0  0  0  0  0
   -0.8413    0.4137    6.2883 H   0  0  0  0  0  0  0  0  0  0  0  0
   -2.1426    2.3762    7.1141 H   0  0  0  0  0  0  0  0  0  0  0  0
   -1.4609    3.3677    5.8179 H   0  0  0  0  0  0  0  0  0  0  0  0
   -0.4013    4.8271    7.3483 H   0  0  0  0  0  0  0  0  0  0  0  0
    0.8849    4.2145    8.4116 H   0  0  0  0  0  0  0  0  0  0  0  0
    0.2807    2.8846   10.4288 H   0  0  0  0  0  0  0  0  0  0  0  0
   -1.3082    2.6460   12.2964 H   0  0  0  0  0  0  0  0  0  0  0  0
   -3.5888    3.5749   12.0844 H   0  0  0  0  0  0  0  0  0  0  0  0
   -4.2745    4.7158   10.0376 H   0  0  0  0  0  0  0  0  0  0  0  0
   -4.6910    4.5584    7.8000 H   0  0  0  0  0  0  0  0  0  0  0  0
   -4.3202    6.2850    8.1341 H   0  0  0  0  0  0  0  0  0  0  0  0
  1  3  1  0  0  0  0
  1  8  1  0  0  0  0
  2  1  1  0  0  0  0
  4 14  1  0  0  0  0
  5 30  1  0  0  0  0
  6  9  1  0  0  0  0
  7 32  1  6  0  0  0
  7 22  1  0  0  0  0
  7  1  1  0  0  0  0
  8 33  1  1  0  0  0
  8 24  1  0  0  0  0
  9 31  1  0  0  0  0
 10  9  2  0  0  0  0
 10 34  1  0  0  0  0
 11 10  1  0  0  0  0
 12 13  1  0  0  0  0
 12 11  2  0  0  0  0
 13  6  2  0  0  0  0
 14 38  1  0  0  0  0
 14 13  1  0  0  0  0
 15 20  1  0  0  0  0
 15  4  1  0  0  0  0
 16 15  2  0  0  0  0
 17 18  2  0  0  0  0
 17 16  1  0  0  0  0
 18 19  1  0  0  0  0
 19 42  1  0  0  0  0
 19 20  2  0  0  0  0
 20 21  1  0  0  0  0
 21 43  1  0  0  0  0
 21  7  1  0  0  0  0
 22 46  1  0  0  0  0
 22 23  1  0  0  0  0
 23 47  1  0  0  0  0
 23  8  1  0  0  0  0
 24 50  1  0  0  0  0
 24 25  1  0  0  0  0
 25 26  1  0  0  0  0
 26 51  1  0  0  0  0
 26 27  2  0  0  0  0
 27 52  1  0  0  0  0
 28 27  1  0  0  0  0
 28 53  1  0  0  0  0
 29 28  2  0  0  0  0
 30 25  2  0  0  0  0
 30 29  1  0  0  0  0
 31 55  1  0  0  0  0
 31  5  1  0  0  0  0
 31 56  1  0  0  0  0
 35 11  1  0  0  0  0
 36 12  1  0  0  0  0
 37 14  1  0  0  0  0
 39 16  1  0  0  0  0
 40 17  1  0  0  0  0
 41 18  1  0  0  0  0
 44 21  1  0  0  0  0
 45 22  1  0  0  0  0
 48 23  1  0  0  0  0
 49 24  1  0  0  0  0
 54 29  1  0  0  0  0
M  END
$$$$
