CSD_code = SODYUH | q = 0 | S = 0 | Stoichiometry = C20H18Cl2N4O2Zn | MND = 4
 OpenBabel04212202093D

 47 51  0  0  1  0  0  0  0  0999 V2000
   -3.3772    2.3934   15.8860 Zn  0  0  0  0  0  0  0  0  0  0  0  0
   -4.6636    4.0703   16.5442 Cl  0  0  0  0  0  0  0  0  0  0  0  0
   -1.3786    1.6639   16.4065 Cl  0  0  0  0  0  0  0  0  0  0  0  0
   -5.5694   -0.4192   13.7541 N   0  0  0  0  0  0  0  0  0  0  0  0
   -4.5882    0.7155   15.3944 N   0  0  0  0  0  0  0  0  0  0  0  0
   -3.7615    2.6836   13.8200 N   0  0  0  0  0  0  0  0  0  0  0  0
   -3.6026   -0.2497   11.9737 N   0  0  0  0  0  0  0  0  0  0  0  0
   -2.4484    4.4421   13.9314 O   0  0  0  0  0  0  0  0  0  0  0  0
   -1.3888    0.2922   11.7238 O   0  0  0  0  0  0  0  0  0  0  0  0
   -5.7308   -3.1033   16.2997 C   0  0  0  0  0  0  0  0  0  0  0  0
   -6.0478   -4.1163   16.4968 H   0  0  0  0  0  0  0  0  0  0  0  0
   -5.9427   -2.5648   15.0473 C   0  0  0  0  0  0  0  0  0  0  0  0
   -6.4215   -3.1410   14.2699 H   0  0  0  0  0  0  0  0  0  0  0  0
   -5.5161   -1.2597   14.8421 C   0  0  0  0  0  0  0  0  0  0  0  0
   -4.9000   -0.5204   15.8765 C   0  0  0  0  0  0  0  0  0  0  0  0
   -4.6945   -1.0781   17.1345 C   0  0  0  0  0  0  0  0  0  0  0  0
   -4.2157   -0.5040   17.9113 H   0  0  0  0  0  0  0  0  0  0  0  0
   -5.1166   -2.3750   17.3241 C   0  0  0  0  0  0  0  0  0  0  0  0
   -4.9732   -2.8474   18.2837 H   0  0  0  0  0  0  0  0  0  0  0  0
   -4.9883    0.7481   14.1390 C   0  0  1  0  0  3  0  0  0  0  0  0
   -4.7737    1.9539   13.3526 C   0  0  1  0  0  3  0  0  0  0  0  0
   -5.5346    2.3923   12.2769 C   0  0  0  0  0  0  0  0  0  0  0  0
   -6.3839    1.8360   11.9214 H   0  0  0  0  0  0  0  0  0  0  0  0
   -5.1956    3.6040   11.6895 C   0  0  0  0  0  0  0  0  0  0  0  0
   -5.7680    3.9699   10.8503 H   0  0  0  0  0  0  0  0  0  0  0  0
   -4.1463    4.3550   12.1805 C   0  0  0  0  0  0  0  0  0  0  0  0
   -3.8898    5.3018   11.7358 H   0  0  0  0  0  0  0  0  0  0  0  0
   -3.4510    3.8573   13.2893 C   0  0  0  0  0  0  0  0  0  0  0  0
   -2.0739    5.7627   13.5948 C   0  0  0  0  0  0  0  0  0  0  0  0
   -1.6808    5.8156   12.5752 H   0  0  0  0  0  0  0  0  0  0  0  0
   -1.2909    6.0299   14.3012 H   0  0  0  0  0  0  0  0  0  0  0  0
   -2.9163    6.4499   13.7092 H   0  0  0  0  0  0  0  0  0  0  0  0
   -5.9005   -0.8141   12.4109 C   0  0  0  0  0  0  0  0  0  0  0  0
   -6.8564   -0.3786   12.0984 H   0  0  0  0  0  0  0  0  0  0  0  0
   -6.0133   -1.9029   12.4060 H   0  0  0  0  0  0  0  0  0  0  0  0
   -4.8044   -0.4286   11.4385 C   0  0  0  0  0  0  0  0  0  0  0  0
   -5.0556   -0.2750   10.0885 C   0  0  0  0  0  0  0  0  0  0  0  0
   -6.0426   -0.4375    9.6854 H   0  0  0  0  0  0  0  0  0  0  0  0
   -3.9953    0.0984    9.2650 C   0  0  0  0  0  0  0  0  0  0  0  0
   -4.1547    0.2315    8.2054 H   0  0  0  0  0  0  0  0  0  0  0  0
   -2.7504    0.3021    9.8114 C   0  0  0  0  0  0  0  0  0  0  0  0
   -1.8990    0.5981    9.2223 H   0  0  0  0  0  0  0  0  0  0  0  0
   -2.5941    0.1076   11.1946 C   0  0  0  0  0  0  0  0  0  0  0  0
   -1.2518    0.0815   13.1230 C   0  0  0  0  0  0  0  0  0  0  0  0
   -1.8145    0.8249   13.6896 H   0  0  0  0  0  0  0  0  0  0  0  0
   -0.1919    0.1831   13.3401 H   0  0  0  0  0  0  0  0  0  0  0  0
   -1.6032   -0.9138   13.3991 H   0  0  0  0  0  0  0  0  0  0  0  0
  1  3  1  0  0  0  0
  1  2  1  0  0  0  0
  4 14  1  0  0  0  0
  5 15  1  0  0  0  0
  5  1  1  0  0  0  0
  6  1  1  0  0  0  0
  9 44  1  0  0  0  0
 10 11  1  0  0  0  0
 10 18  1  0  0  0  0
 12 10  2  0  0  0  0
 13 12  1  0  0  0  0
 14 12  1  0  0  0  0
 14 15  2  0  0  0  0
 15 16  1  0  0  0  0
 16 18  2  0  0  0  0
 16 17  1  0  0  0  0
 18 19  1  0  0  0  0
 20  4  1  6  0  0  0
 20  5  1  0  0  0  0
 21 22  1  1  0  0  0
 21  6  1  0  0  0  0
 21 20  1  0  0  0  0
 23 22  1  0  0  0  0
 24 26  1  0  0  0  0
 24 22  2  0  0  0  0
 25 24  1  0  0  0  0
 26 28  2  0  0  0  0
 27 26  1  0  0  0  0
 28  6  1  0  0  0  0
 28  8  1  0  0  0  0
 29 32  1  0  0  0  0
 29  8  1  0  0  0  0
 29 31  1  0  0  0  0
 30 29  1  0  0  0  0
 33  4  1  0  0  0  0
 34 33  1  0  0  0  0
 35 33  1  0  0  0  0
 36  7  1  0  0  0  0
 36 33  1  0  0  0  0
 37 36  2  0  0  0  0
 38 37  1  0  0  0  0
 39 41  2  0  0  0  0
 39 37  1  0  0  0  0
 40 39  1  0  0  0  0
 41 43  1  0  0  0  0
 42 41  1  0  0  0  0
 43  9  1  0  0  0  0
 43  7  2  0  0  0  0
 44 46  1  0  0  0  0
 44 47  1  0  0  0  0
 44 45  1  0  0  0  0
M  END
$$$$
