CSD_code = SODZES | q = 0 | S = 0 | Stoichiometry = C20H18Cl2HgN4O2 | MND = 3
 OpenBabel04212202093D

 47 50  0  0  1  0  0  0  0  0999 V2000
   -1.2939    3.1753    1.8235 Hg  0  0  0  0  0  0  0  0  0  0  0  0
   -1.9325    1.0154    1.3893 Cl  0  0  0  0  0  0  0  0  0  0  0  0
   -1.5450    5.3405    1.1849 Cl  0  0  0  0  0  0  0  0  0  0  0  0
    1.7897    2.3004   -0.5903 O   0  0  0  0  0  0  0  0  0  0  0  0
   -1.3993   -1.8951    5.4076 O   0  0  0  0  0  0  0  0  0  0  0  0
   -0.2946    2.9934    3.8499 N   0  0  0  0  0  0  0  0  0  0  0  0
    1.1465    2.0225    5.2290 N   0  0  0  0  0  0  0  0  0  0  0  0
    1.2051    2.1507    1.6448 N   0  0  0  0  0  0  0  0  0  0  0  0
    0.3789   -0.4772    5.6656 N   0  0  0  0  0  0  0  0  0  0  0  0
    0.6937    2.1203    3.9541 C   0  0  2  0  0  3  0  0  0  0  0  0
   -0.5313    3.4773    5.1089 C   0  0  0  0  0  0  0  0  0  0  0  0
   -1.4617    4.4067    5.5625 C   0  0  0  0  0  0  0  0  0  0  0  0
   -2.1430    4.8805    4.8719 H   0  0  0  0  0  0  0  0  0  0  0  0
   -1.4627    4.6887    6.9110 C   0  0  0  0  0  0  0  0  0  0  0  0
   -2.1681    5.4044    7.3045 H   0  0  0  0  0  0  0  0  0  0  0  0
   -0.5713    4.0667    7.7912 C   0  0  0  0  0  0  0  0  0  0  0  0
   -0.6159    4.3142    8.8409 H   0  0  0  0  0  0  0  0  0  0  0  0
    0.3589    3.1454    7.3557 C   0  0  0  0  0  0  0  0  0  0  0  0
    1.0360    2.6656    8.0453 H   0  0  0  0  0  0  0  0  0  0  0  0
    0.3713    2.8594    5.9973 C   0  0  0  0  0  0  0  0  0  0  0  0
    1.2166    1.4231    2.7792 C   0  0  0  0  0  0  0  0  0  0  0  0
    1.6513    0.1094    2.8167 C   0  0  0  0  0  0  0  0  0  0  0  0
    1.5529   -0.4725    3.7165 H   0  0  0  0  0  0  0  0  0  0  0  0
    2.1274   -0.4687    1.6418 C   0  0  0  0  0  0  0  0  0  0  0  0
    2.4518   -1.4982    1.6384 H   0  0  0  0  0  0  0  0  0  0  0  0
    2.1806    0.2841    0.4967 C   0  0  0  0  0  0  0  0  0  0  0  0
    2.5528   -0.0996   -0.4383 H   0  0  0  0  0  0  0  0  0  0  0  0
    1.6955    1.6051    0.5397 C   0  0  0  0  0  0  0  0  0  0  0  0
    1.2881    3.6228   -0.6361 C   0  0  0  0  0  0  0  0  0  0  0  0
    0.1902    3.6227   -0.6209 H   0  0  0  0  0  0  0  0  0  0  0  0
    1.6346    4.0373   -1.5806 H   0  0  0  0  0  0  0  0  0  0  0  0
    1.6588    4.2194    0.2000 H   0  0  0  0  0  0  0  0  0  0  0  0
    2.1382    1.1379    5.7795 C   0  0  0  0  0  0  0  0  0  0  0  0
    2.6766    1.6623    6.5738 H   0  0  0  0  0  0  0  0  0  0  0  0
    2.8519    0.8669    4.9956 H   0  0  0  0  0  0  0  0  0  0  0  0
    1.4646   -0.1018    6.3342 C   0  0  0  0  0  0  0  0  0  0  0  0
    1.9302   -0.7778    7.4437 C   0  0  0  0  0  0  0  0  0  0  0  0
    2.8150   -0.4485    7.9643 H   0  0  0  0  0  0  0  0  0  0  0  0
    1.2210   -1.9016    7.8674 C   0  0  0  0  0  0  0  0  0  0  0  0
    1.5559   -2.4564    8.7305 H   0  0  0  0  0  0  0  0  0  0  0  0
    0.0908   -2.2917    7.1880 C   0  0  0  0  0  0  0  0  0  0  0  0
   -0.4965   -3.1455    7.4806 H   0  0  0  0  0  0  0  0  0  0  0  0
   -0.3031   -1.5346    6.0723 C   0  0  0  0  0  0  0  0  0  0  0  0
   -1.7756   -1.0866    4.3021 C   0  0  0  0  0  0  0  0  0  0  0  0
   -1.8736   -0.0406    4.5980 H   0  0  0  0  0  0  0  0  0  0  0  0
   -2.7325   -1.4711    3.9600 H   0  0  0  0  0  0  0  0  0  0  0  0
   -1.0415   -1.1505    3.4975 H   0  0  0  0  0  0  0  0  0  0  0  0
  1  6  1  0  0  0  0
  2  1  1  0  0  0  0
  3  1  1  0  0  0  0
  4 28  1  0  0  0  0
  5 43  1  0  0  0  0
  6 10  1  0  0  0  0
  6 11  1  0  0  0  0
  7 33  1  0  0  0  0
  7 20  1  0  0  0  0
  8 21  1  0  0  0  0
  9 43  2  0  0  0  0
  9 36  1  0  0  0  0
 10 21  1  6  0  0  0
 10  7  1  0  0  0  0
 11 12  2  0  0  0  0
 11 20  1  0  0  0  0
 12 14  1  0  0  0  0
 13 12  1  0  0  0  0
 14 15  1  0  0  0  0
 14 16  2  0  0  0  0
 16 17  1  0  0  0  0
 18 16  1  0  0  0  0
 18 19  1  0  0  0  0
 20 18  2  0  0  0  0
 21 22  2  0  0  0  0
 22 23  1  0  0  0  0
 24 22  1  0  0  0  0
 25 24  1  0  0  0  0
 26 28  1  0  0  0  0
 26 24  2  0  0  0  0
 27 26  1  0  0  0  0
 28  8  2  0  0  0  0
 29 30  1  0  0  0  0
 29  4  1  0  0  0  0
 29 32  1  0  0  0  0
 31 29  1  0  0  0  0
 33 36  1  0  0  0  0
 33 34  1  0  0  0  0
 35 33  1  0  0  0  0
 36 37  2  0  0  0  0
 37 39  1  0  0  0  0
 37 38  1  0  0  0  0
 39 40  1  0  0  0  0
 41 42  1  0  0  0  0
 41 39  2  0  0  0  0
 43 41  1  0  0  0  0
 44 45  1  0  0  0  0
 44  5  1  0  0  0  0
 46 44  1  0  0  0  0
 47 44  1  0  0  0  0
M  END
$$$$
