CSD_code = SODZOC | q = 0 | S = 0 | Stoichiometry = C13H11Cl2N3OZn | MND = 4
 OpenBabel04212202093D

 31 34  0  0  1  0  0  0  0  0999 V2000
    1.6827    7.3895    1.6701 Zn  0  0  0  0  0  0  0  0  0  0  0  0
    3.5045    6.2602    2.0417 Cl  0  0  0  0  0  0  0  0  0  0  0  0
   -0.4407    7.2807    2.3120 Cl  0  0  0  0  0  0  0  0  0  0  0  0
    1.5266    8.0534   -0.3683 N   0  0  0  0  0  0  0  0  0  0  0  0
    1.7969    9.4999    1.8537 N   0  0  0  0  0  0  0  0  0  0  0  0
    1.0506    9.7744   -1.6792 N   0  0  0  0  0  0  0  0  0  0  0  0
    0.8609   10.7197   -1.9674 H   0  0  0  0  0  0  0  0  0  0  0  0
    1.3539    7.5789   -1.6345 C   0  0  0  0  0  0  0  0  0  0  0  0
    2.1803    9.2208    3.9999 O   0  0  0  0  0  0  0  0  0  0  0  0
    1.0486    8.6658   -2.4874 C   0  0  0  0  0  0  0  0  0  0  0  0
    1.0949   11.5277    0.8403 C   0  0  0  0  0  0  0  0  0  0  0  0
    0.7857   12.0786   -0.0329 H   0  0  0  0  0  0  0  0  0  0  0  0
    1.4314    6.2822   -2.1356 C   0  0  0  0  0  0  0  0  0  0  0  0
    1.6638    5.4598   -1.4786 H   0  0  0  0  0  0  0  0  0  0  0  0
    0.8178    8.4861   -3.8433 C   0  0  0  0  0  0  0  0  0  0  0  0
    0.5846    9.3170   -4.4910 H   0  0  0  0  0  0  0  0  0  0  0  0
    1.8331   10.0728    3.0471 C   0  0  2  0  0  3  0  0  0  0  0  0
    1.1995    6.1139   -3.4825 C   0  0  0  0  0  0  0  0  0  0  0  0
    1.2475    5.1244   -3.9103 H   0  0  0  0  0  0  0  0  0  0  0  0
    1.5230   11.4319    3.2042 C   0  0  0  0  0  0  0  0  0  0  0  0
    1.5556   11.9053    4.1710 H   0  0  0  0  0  0  0  0  0  0  0  0
    1.1604   12.1488    2.0812 C   0  0  0  0  0  0  0  0  0  0  0  0
    0.9137   13.1961    2.1702 H   0  0  0  0  0  0  0  0  0  0  0  0
    2.1962    9.6379    5.3504 C   0  0  0  0  0  0  0  0  0  0  0  0
    2.4770    8.7556    5.9218 H   0  0  0  0  0  0  0  0  0  0  0  0
    1.2069    9.9786    5.6681 H   0  0  0  0  0  0  0  0  0  0  0  0
    2.9350   10.4280    5.5126 H   0  0  0  0  0  0  0  0  0  0  0  0
    0.8990    7.1942   -4.3205 C   0  0  0  0  0  0  0  0  0  0  0  0
    0.7251    7.0092   -5.3696 H   0  0  0  0  0  0  0  0  0  0  0  0
    1.3401    9.3542   -0.4183 C   0  0  1  0  0  3  0  0  0  0  0  0
    1.4177   10.1775    0.7715 C   0  0  0  0  0  0  0  0  0  0  0  0
  1  5  1  0  0  0  0
  1  2  1  0  0  0  0
  1  3  1  0  0  0  0
  4  1  1  0  0  0  0
  5 17  1  0  0  0  0
  6 30  1  0  0  0  0
  7  6  1  0  0  0  0
  8  4  1  0  0  0  0
  9 24  1  0  0  0  0
 10  6  1  0  0  0  0
 10  8  2  0  0  0  0
 11 22  1  0  0  0  0
 12 11  1  0  0  0  0
 13  8  1  0  0  0  0
 13 14  1  0  0  0  0
 15 10  1  0  0  0  0
 16 15  1  0  0  0  0
 17 20  1  0  0  0  0
 17  9  1  1  0  0  0
 18 13  2  0  0  0  0
 19 18  1  0  0  0  0
 20 21  1  0  0  0  0
 22 23  1  0  0  0  0
 22 20  2  0  0  0  0
 24 27  1  0  0  0  0
 24 26  1  0  0  0  0
 24 25  1  0  0  0  0
 28 15  2  0  0  0  0
 28 18  1  0  0  0  0
 29 28  1  0  0  0  0
 30  4  1  0  0  0  0
 30 31  1  1  0  0  0
 31 11  2  0  0  0  0
 31  5  1  0  0  0  0
M  END
$$$$
