CSD_code = SOFBUK | q = 0 | S = 0 | Stoichiometry = C24H33Cl3OP3V | MND = 6
 OpenBabel04212202093D

 65 67  0  0  0  0  0  0  0  0999 V2000
    1.9215    3.4427    2.2345 V   0  0  0  0  0  0  0  0  0  0  0  0
    3.7369    3.4427    0.7491 Cl  0  0  0  0  0  0  0  0  0  0  0  0
    0.3625    3.4418    4.0667 Cl  0  0  0  0  0  0  0  0  0  0  0  0
    0.4605    3.4427    0.8157 Cl  0  0  0  0  0  0  0  0  0  0  0  0
    3.1827    3.4425    3.5536 O   0  0  0  0  0  0  0  0  0  0  0  0
    3.2542    3.4426    5.0450 P   0  0  0  0  0  4  0  0  0  0  0  0
    5.0209    3.4431    5.4664 C   0  0  0  0  0  0  0  0  0  0  0  0
    5.4585    3.4433    6.7838 C   0  0  0  0  0  0  0  0  0  0  0  0
    6.8133    3.4437    7.0602 C   0  0  0  0  0  0  0  0  0  0  0  0
    7.7334    3.4438    6.0235 C   0  0  0  0  0  0  0  0  0  0  0  0
    7.2985    3.4436    4.7088 C   0  0  0  0  0  0  0  0  0  0  0  0
    5.9435    3.4432    4.4301 C   0  0  0  0  0  0  0  0  0  0  0  0
    2.5763    1.9602    5.8665 C   0  0  0  0  0  0  0  0  0  0  0  0
    1.8854    1.0909    2.1042 P   0  0  0  0  0  4  0  0  0  0  0  0
    3.1714    0.1795    3.0102 C   0  0  0  0  0  0  0  0  0  0  0  0
    2.9233   -0.8583    3.9018 C   0  0  0  0  0  0  0  0  0  0  0  0
    3.9721   -1.4399    4.5958 C   0  0  0  0  0  0  0  0  0  0  0  0
    5.2675   -0.9837    4.4165 C   0  0  0  0  0  0  0  0  0  0  0  0
    5.5202    0.0508    3.5285 C   0  0  0  0  0  0  0  0  0  0  0  0
    4.4786    0.6281    2.8270 C   0  0  0  0  0  0  0  0  0  0  0  0
    0.3098    0.2769    2.5419 C   0  0  0  0  0  0  0  0  0  0  0  0
    2.1490    0.4580    0.4080 C   0  0  0  0  0  0  0  0  0  0  0  0
    4.7406    3.4432    7.5918 H   0  0  0  0  0  0  0  0  0  0  0  0
    7.1543    3.4439    8.0852 H   0  0  0  0  0  0  0  0  0  0  0  0
    8.7908    3.4441    6.2438 H   0  0  0  0  0  0  0  0  0  0  0  0
    8.0149    3.4436    3.9006 H   0  0  0  0  0  0  0  0  0  0  0  0
    5.5864    3.4430    3.4102 H   0  0  0  0  0  0  0  0  0  0  0  0
    2.6499    2.0884    6.9430 H   0  0  0  0  0  0  0  0  0  0  0  0
    3.1582    1.0926    5.5588 H   0  0  0  0  0  0  0  0  0  0  0  0
    1.5333    1.8402    5.5800 H   0  0  0  0  0  0  0  0  0  0  0  0
    1.9156   -1.2115    4.0649 H   0  0  0  0  0  0  0  0  0  0  0  0
    3.7750   -2.2488    5.2851 H   0  0  0  0  0  0  0  0  0  0  0  0
    6.0793   -1.4339    4.9689 H   0  0  0  0  0  0  0  0  0  0  0  0
    6.5304    0.4072    3.3886 H   0  0  0  0  0  0  0  0  0  0  0  0
    4.6623    1.4374    2.1306 H   0  0  0  0  0  0  0  0  0  0  0  0
    0.0820    0.4561    3.5922 H   0  0  0  0  0  0  0  0  0  0  0  0
   -0.4685    0.7512    1.9406 H   0  0  0  0  0  0  0  0  0  0  0  0
    0.3434   -0.7919    2.3268 H   0  0  0  0  0  0  0  0  0  0  0  0
    2.1419   -0.6332    0.4094 H   0  0  0  0  0  0  0  0  0  0  0  0
    3.1040    0.8299    0.0381 H   0  0  0  0  0  0  0  0  0  0  0  0
    1.3507    0.8427   -0.2293 H   0  0  0  0  0  0  0  0  0  0  0  0
    1.8852    5.7945    2.1053 P   0  0  0  0  0  4  0  0  0  0  0  0
    2.5756    4.9248    5.8664 C   0  0  0  0  0  0  0  0  0  0  0  0
    3.1720    6.7057    3.0102 C   0  0  0  0  0  0  0  0  0  0  0  0
    0.3100    6.6083    2.5446 C   0  0  0  0  0  0  0  0  0  0  0  0
    2.1471    6.4278    0.4090 C   0  0  0  0  0  0  0  0  0  0  0  0
    2.6496    4.7969    6.9429 H   0  0  0  0  0  0  0  0  0  0  0  0
    3.1568    5.7927    5.5582 H   0  0  0  0  0  0  0  0  0  0  0  0
    1.5324    5.0440    5.5802 H   0  0  0  0  0  0  0  0  0  0  0  0
    2.9248    7.7435    3.9021 C   0  0  0  0  0  0  0  0  0  0  0  0
    4.4790    6.2571    2.8258 C   0  0  0  0  0  0  0  0  0  0  0  0
    0.0833    6.4290    3.5952 H   0  0  0  0  0  0  0  0  0  0  0  0
   -0.4690    6.1339    1.9442 H   0  0  0  0  0  0  0  0  0  0  0  0
    0.3432    7.6770    2.3296 H   0  0  0  0  0  0  0  0  0  0  0  0
    2.1405    7.5190    0.4107 H   0  0  0  0  0  0  0  0  0  0  0  0
    3.1016    6.0557    0.0379 H   0  0  0  0  0  0  0  0  0  0  0  0
    1.3480    6.0437   -0.2276 H   0  0  0  0  0  0  0  0  0  0  0  0
    3.9741    8.3250    4.5952 C   0  0  0  0  0  0  0  0  0  0  0  0
    1.9172    8.0966    4.0662 H   0  0  0  0  0  0  0  0  0  0  0  0
    5.5213    6.8344    3.5264 C   0  0  0  0  0  0  0  0  0  0  0  0
    4.6621    5.4479    2.1291 H   0  0  0  0  0  0  0  0  0  0  0  0
    5.2694    7.8689    4.4146 C   0  0  0  0  0  0  0  0  0  0  0  0
    3.7777    9.1338    5.2847 H   0  0  0  0  0  0  0  0  0  0  0  0
    6.5313    6.4781    3.3854 H   0  0  0  0  0  0  0  0  0  0  0  0
    6.0817    8.3191    4.9663 H   0  0  0  0  0  0  0  0  0  0  0  0
  1  5  1  0  0  0  0
  1  3  1  0  0  0  0
  2  1  1  0  0  0  0
  4  1  1  0  0  0  0
  5  6  1  0  0  0  0
  6  7  1  0  0  0  0
  6 43  1  0  0  0  0
  6 13  1  0  0  0  0
  7  8  1  0  0  0  0
  8  9  2  0  0  0  0
  8 23  1  0  0  0  0
  9 24  1  0  0  0  0
 10 25  1  0  0  0  0
 10  9  1  0  0  0  0
 11 10  2  0  0  0  0
 12 11  1  0  0  0  0
 12  7  2  0  0  0  0
 13 28  1  0  0  0  0
 14  1  1  0  0  0  0
 14 21  1  0  0  0  0
 14 15  1  0  0  0  0
 15 16  1  0  0  0  0
 16 31  1  0  0  0  0
 16 17  2  0  0  0  0
 17 32  1  0  0  0  0
 18 17  1  0  0  0  0
 18 33  1  0  0  0  0
 19 18  2  0  0  0  0
 20 15  2  0  0  0  0
 20 19  1  0  0  0  0
 21 36  1  0  0  0  0
 22 39  1  0  0  0  0
 22 14  1  0  0  0  0
 26 11  1  0  0  0  0
 27 12  1  0  0  0  0
 29 13  1  0  0  0  0
 30 13  1  0  0  0  0
 34 19  1  0  0  0  0
 35 20  1  0  0  0  0
 37 21  1  0  0  0  0
 38 21  1  0  0  0  0
 40 22  1  0  0  0  0
 41 22  1  0  0  0  0
 42  1  1  0  0  0  0
 42 45  1  0  0  0  0
 42 44  1  0  0  0  0
 43 47  1  0  0  0  0
 44 50  1  0  0  0  0
 45 52  1  0  0  0  0
 46 55  1  0  0  0  0
 46 42  1  0  0  0  0
 48 43  1  0  0  0  0
 49 43  1  0  0  0  0
 50 59  1  0  0  0  0
 50 58  2  0  0  0  0
 51 44  2  0  0  0  0
 51 60  1  0  0  0  0
 53 45  1  0  0  0  0
 54 45  1  0  0  0  0
 56 46  1  0  0  0  0
 57 46  1  0  0  0  0
 58 63  1  0  0  0  0
 60 62  2  0  0  0  0
 61 51  1  0  0  0  0
 62 58  1  0  0  0  0
 62 65  1  0  0  0  0
 64 60  1  0  0  0  0
M  END
$$$$
