CSD_code = SOFGAW | q = 0 | S = 0 | Stoichiometry = C20H21ClN2O2PRh | MND = 4
 OpenBabel04212202093D

 48 51  0  0  1  0  0  0  0  0999 V2000
    3.2571    8.3627    3.0916 Rh  0  0  1  0  0  0  0  0  0  0  0  0
    4.7301   10.0655    2.8392 Cl  0  0  0  0  0  0  0  0  0  0  0  0
    1.5291    6.9662    3.4155 P   0  0  0  0  0  4  0  0  0  0  0  0
    5.3186    6.5910    4.2976 O   0  0  0  0  0  1  0  0  0  0  0  0
    0.0598    7.6712    3.6560 O   0  0  0  0  0  0  0  0  0  0  0  0
    1.8799    9.5658    2.2103 N   0  0  2  0  0  0  0  0  0  0  0  0
    0.9080   10.1813    2.8907 N   0  0  0  0  0  0  0  0  0  0  0  0
    1.7368    9.8726    0.9313 C   0  0  2  0  0  3  0  0  0  0  0  0
    0.6291   10.7216    0.7892 C   0  0  0  0  0  0  0  0  0  0  0  0
    0.2595   11.1522   -0.1187 H   0  0  0  0  0  0  0  0  0  0  0  0
    0.1181   10.8955    2.0583 C   0  0  0  0  0  0  0  0  0  0  0  0
    2.6606    9.3209   -0.0926 C   0  0  0  0  0  0  0  0  0  0  0  0
    2.1480    8.5881   -0.7161 H   0  0  0  0  0  0  0  0  0  0  0  0
    3.4997    8.8344    0.4185 H   0  0  0  0  0  0  0  0  0  0  0  0
    3.0446   10.1140   -0.7304 H   0  0  0  0  0  0  0  0  0  0  0  0
   -1.0408   11.6942    2.5312 C   0  0  0  0  0  0  0  0  0  0  0  0
   -0.7306   12.4157    3.2869 H   0  0  0  0  0  0  0  0  0  0  0  0
   -1.8083   11.0533    2.9650 H   0  0  0  0  0  0  0  0  0  0  0  0
   -1.4741   12.2345    1.6946 H   0  0  0  0  0  0  0  0  0  0  0  0
    0.7787    9.9376    4.2982 C   0  0  0  0  0  0  0  0  0  0  0  0
    0.3868   10.8204    4.8068 H   0  0  0  0  0  0  0  0  0  0  0  0
    1.7974    9.7171    4.6695 H   0  0  0  0  0  0  0  0  0  0  0  0
   -0.1425    8.7312    4.5648 C   0  0  0  0  0  0  0  0  0  0  0  0
   -0.0035    8.3929    5.5989 H   0  0  0  0  0  0  0  0  0  0  0  0
   -1.1910    9.0194    4.4282 H   0  0  0  0  0  0  0  0  0  0  0  0
    4.5297    7.2892    3.8401 C   0  0  0  0  0  2  0  0  0  0  0  0
    1.5733    5.7939    4.8240 C   0  0  0  0  0  0  0  0  0  0  0  0
    1.0078    4.5266    4.8037 C   0  0  0  0  0  0  0  0  0  0  0  0
    0.5374    4.1600    3.9026 H   0  0  0  0  0  0  0  0  0  0  0  0
    1.0602    3.7324    5.9363 C   0  0  0  0  0  0  0  0  0  0  0  0
    0.6272    2.7428    5.9179 H   0  0  0  0  0  0  0  0  0  0  0  0
    1.6681    4.2000    7.0899 C   0  0  0  0  0  0  0  0  0  0  0  0
    1.7069    3.5752    7.9700 H   0  0  0  0  0  0  0  0  0  0  0  0
    2.2345    5.4645    7.1138 C   0  0  0  0  0  0  0  0  0  0  0  0
    2.7156    5.8270    8.0102 H   0  0  0  0  0  0  0  0  0  0  0  0
    2.1906    6.2561    5.9813 C   0  0  0  0  0  0  0  0  0  0  0  0
    2.6545    7.2380    5.9740 H   0  0  0  0  0  0  0  0  0  0  0  0
    1.0272    5.9549    1.9976 C   0  0  0  0  0  0  0  0  0  0  0  0
   -0.2678    5.5011    1.7779 C   0  0  0  0  0  0  0  0  0  0  0  0
   -1.0475    5.7466    2.4834 H   0  0  0  0  0  0  0  0  0  0  0  0
   -0.5478    4.7495    0.6505 C   0  0  0  0  0  0  0  0  0  0  0  0
   -1.5540    4.3962    0.4764 H   0  0  0  0  0  0  0  0  0  0  0  0
    0.4569    4.4477   -0.2553 C   0  0  0  0  0  0  0  0  0  0  0  0
    0.2311    3.8600   -1.1329 H   0  0  0  0  0  0  0  0  0  0  0  0
    1.7477    4.9056   -0.0421 C   0  0  0  0  0  0  0  0  0  0  0  0
    2.5276    4.6778   -0.7536 H   0  0  0  0  0  0  0  0  0  0  0  0
    2.0301    5.6621    1.0802 C   0  0  0  0  0  0  0  0  0  0  0  0
    3.0300    6.0485    1.2615 H   0  0  0  0  0  0  0  0  0  0  0  0
  1  2  1  1  0  0  0
  1  3  1  0  0  0  0
  1 26  1  0  0  0  0
  3  5  1  0  0  0  0
  3 27  1  0  0  0  0
  5 23  1  0  0  0  0
  6  7  1  6  0  0  0
  6  1  1  0  0  0  0
  7 20  1  0  0  0  0
  8 12  1  6  0  0  0
  8  6  1  0  0  0  0
  9  8  1  0  0  0  0
  9 11  2  0  0  0  0
 10  9  1  0  0  0  0
 11 16  1  0  0  0  0
 11  7  1  0  0  0  0
 12 14  1  0  0  0  0
 13 12  1  0  0  0  0
 15 12  1  0  0  0  0
 16 18  1  0  0  0  0
 16 17  1  0  0  0  0
 19 16  1  0  0  0  0
 20 23  1  0  0  0  0
 20 22  1  0  0  0  0
 20 21  1  0  0  0  0
 23 24  1  0  0  0  0
 25 23  1  0  0  0  0
 26  4  1  0  0  0  0
 27 36  1  0  0  0  0
 28 27  2  0  0  0  0
 28 30  1  0  0  0  0
 29 28  1  0  0  0  0
 30 32  2  0  0  0  0
 31 30  1  0  0  0  0
 32 34  1  0  0  0  0
 32 33  1  0  0  0  0
 34 35  1  0  0  0  0
 36 34  2  0  0  0  0
 37 36  1  0  0  0  0
 38  3  1  0  0  0  0
 39 38  1  0  0  0  0
 39 40  1  0  0  0  0
 41 39  2  0  0  0  0
 42 41  1  0  0  0  0
 43 45  2  0  0  0  0
 43 41  1  0  0  0  0
 44 43  1  0  0  0  0
 45 47  1  0  0  0  0
 46 45  1  0  0  0  0
 47 48  1  0  0  0  0
 47 38  2  0  0  0  0
M  END
$$$$
