CSD_code = SOGFOL | q = 0 | S = 0 | Stoichiometry = C6H12I2PdS3 | MND = 4
 OpenBabel04212202093D

 24 25  0  0  0  0  0  0  0  0999 V2000
    6.9237    1.4771    7.8439 Pd  0  0  0  0  0  0  0  0  0  0  0  0
    5.5924    2.8345    9.5850 I   0  0  0  0  0  0  0  0  0  0  0  0
    8.8166    0.8754    9.4890 I   0  0  0  0  0  0  0  0  0  0  0  0
    5.3672   -0.9970    7.8360 S   0  0  0  0  0  0  0  0  0  0  0  0
    5.4095    2.1871    6.2801 S   0  0  2  0  0  3  0  0  0  0  0  0
    8.0612    0.3918    6.1486 S   0  0  2  0  0  3  0  0  0  0  0  0
    4.1732   -0.3932    6.5665 C   0  0  0  0  0  0  0  0  0  0  0  0
    4.4888   -0.7655    5.5932 H   0  0  0  0  0  0  0  0  0  0  0  0
    3.2196   -0.8597    6.8208 H   0  0  0  0  0  0  0  0  0  0  0  0
    3.9622    1.1112    6.5512 C   0  0  0  0  0  0  0  0  0  0  0  0
    3.5770    1.4474    7.5177 H   0  0  0  0  0  0  0  0  0  0  0  0
    3.2403    1.3701    5.7733 H   0  0  0  0  0  0  0  0  0  0  0  0
    6.0637    1.6639    4.6454 C   0  0  0  0  0  0  0  0  0  0  0  0
    5.2078    1.5135    3.9858 H   0  0  0  0  0  0  0  0  0  0  0  0
    6.6155    2.5452    4.3109 H   0  0  0  0  0  0  0  0  0  0  0  0
    6.9749    0.4492    4.6568 C   0  0  0  0  0  0  0  0  0  0  0  0
    7.6467    0.4778    3.7964 H   0  0  0  0  0  0  0  0  0  0  0  0
    6.4124   -0.4808    4.6248 H   0  0  0  0  0  0  0  0  0  0  0  0
    7.9359   -1.3649    6.6294 C   0  0  0  0  0  0  0  0  0  0  0  0
    8.4759   -1.9335    5.8691 H   0  0  0  0  0  0  0  0  0  0  0  0
    8.4975   -1.4040    7.5663 H   0  0  0  0  0  0  0  0  0  0  0  0
    6.5507   -1.9695    6.8226 C   0  0  0  0  0  0  0  0  0  0  0  0
    6.6763   -2.9071    7.3664 H   0  0  0  0  0  0  0  0  0  0  0  0
    6.0600   -2.1952    5.8759 H   0  0  0  0  0  0  0  0  0  0  0  0
  1  3  1  0  0  0  0
  1  2  1  0  0  0  0
  5 13  1  6  0  0  0
  5 10  1  0  0  0  0
  5  1  1  0  0  0  0
  6 16  1  6  0  0  0
  6 19  1  0  0  0  0
  6  1  1  0  0  0  0
  7  9  1  0  0  0  0
  7  4  1  0  0  0  0
  8  7  1  0  0  0  0
 10  7  1  0  0  0  0
 10 11  1  0  0  0  0
 12 10  1  0  0  0  0
 13 16  1  0  0  0  0
 14 13  1  0  0  0  0
 15 13  1  0  0  0  0
 17 16  1  0  0  0  0
 18 16  1  0  0  0  0
 19 22  1  0  0  0  0
 19 21  1  0  0  0  0
 20 19  1  0  0  0  0
 22 23  1  0  0  0  0
 22  4  1  0  0  0  0
 24 22  1  0  0  0  0
M  END
$$$$
