CSD_code = SOGNIL | q = -1 | S = 0 | Stoichiometry = C10H8Br3N2O2Ru(1-) | MND = 6
 OpenBabel04212202093D

 26 28  0  0  1  0  0  0  0  0999 V2000
    0.2268    1.5959   15.3479 Ru  0  0  0  0  0  0  0  0  0  0  0  0
    1.5927    3.4884   14.3679 Br  0  0  0  0  0  0  0  0  0  0  0  0
    1.8768    1.1615   17.1485 Br  0  0  0  0  0  0  0  0  0  0  0  0
   -1.4447   -0.0545   16.2948 Br  0  0  0  0  0  0  0  0  0  0  0  0
    1.4557   -0.3576   13.7115 O   0  0  0  0  0  1  0  0  0  0  0  0
   -0.6082    2.9698   16.5624 O   0  0  0  0  0  0  0  0  0  0  0  0
    0.9319    0.4534   14.3655 N   0  0  0  0  0  2  0  0  0  0  0  0
   -1.4035    2.3232   14.1211 N   0  0  0  0  0  0  0  0  0  0  0  0
   -1.7635    1.9763   12.9012 C   0  0  0  0  0  0  0  0  0  0  0  0
   -2.8809    2.5764   12.2888 C   0  0  0  0  0  0  0  0  0  0  0  0
   -3.6096    3.5285   12.9432 C   0  0  0  0  0  0  0  0  0  0  0  0
   -3.9000    4.8810   15.0157 C   0  0  0  0  0  0  0  0  0  0  0  0
   -3.4464    5.1821   16.2803 C   0  0  0  0  0  0  0  0  0  0  0  0
   -2.3384    4.5562   16.8334 C   0  0  0  0  0  0  0  0  0  0  0  0
   -1.6389    3.5855   16.1123 C   0  0  0  0  0  0  0  0  0  0  0  0
   -2.1027    3.2636   14.7928 C   0  0  1  0  0  3  0  0  0  0  0  0
   -3.2363    3.9152   14.2457 C   0  0  0  0  0  0  0  0  0  0  0  0
   -0.9786    0.9403   12.1653 C   0  0  0  0  0  0  0  0  0  0  0  0
   -3.1461    2.2646   11.2899 H   0  0  0  0  0  0  0  0  0  0  0  0
   -4.4682    3.9913   12.4772 H   0  0  0  0  0  0  0  0  0  0  0  0
   -4.7643    5.3782   14.6007 H   0  0  0  0  0  0  0  0  0  0  0  0
   -3.9652    5.9289   16.8660 H   0  0  0  0  0  0  0  0  0  0  0  0
   -1.9957    4.8042   17.8262 H   0  0  0  0  0  0  0  0  0  0  0  0
   -1.3903    0.7846   11.1714 H   0  0  0  0  0  0  0  0  0  0  0  0
    0.0614    1.2569   12.0620 H   0  0  0  0  0  0  0  0  0  0  0  0
   -1.0084   -0.0096   12.7032 H   0  0  0  0  0  0  0  0  0  0  0  0
  1  4  1  0  0  0  0
  1  6  1  0  0  0  0
  1  3  1  0  0  0  0
  2  1  1  0  0  0  0
  5  7  1  0  0  0  0
  7  1  1  0  0  0  0
  8 16  1  0  0  0  0
  8  1  1  0  0  0  0
  9  8  1  0  0  0  0
 10  9  2  0  0  0  0
 10 11  1  0  0  0  0
 11 17  2  0  0  0  0
 12 13  2  0  0  0  0
 13 14  1  0  0  0  0
 13 22  1  0  0  0  0
 14 23  1  0  0  0  0
 15  6  1  0  0  0  0
 15 14  2  0  0  0  0
 16 17  1  6  0  0  0
 16 15  1  0  0  0  0
 17 12  1  0  0  0  0
 18 26  1  0  0  0  0
 18  9  1  0  0  0  0
 19 10  1  0  0  0  0
 20 11  1  0  0  0  0
 21 12  1  0  0  0  0
 24 18  1  0  0  0  0
 25 18  1  0  0  0  0
M  END
$$$$
