CSD_code = SOGNUA | q = 1 | S = 0 | Stoichiometry = C20H14ClN4Pt(1+) | MND = 4
 OpenBabel04212202093D

 40 45  0  0  0  0  0  0  0  0999 V2000
    0.1883    3.1528    6.5422 Pt  0  0  1  0  0  0  0  0  0  0  0  0
   -0.2659    3.9818    8.5513 Cl  0  0  0  0  0  0  0  0  0  0  0  0
    0.5267    4.8859    5.5959 N   0  0  0  0  0  0  0  0  0  0  0  0
    0.5757    2.4444    4.8266 N   0  0  0  0  0  0  0  0  0  0  0  0
   -0.0414    1.2121    6.9780 N   0  0  0  0  0  0  0  0  0  0  0  0
    1.4665    1.8912    0.0586 N   0  0  0  0  0  0  0  0  0  0  0  0
   -0.3674    0.6648    8.1451 C   0  0  0  0  0  3  0  0  0  0  0  0
   -0.5268    1.3511    8.9677 H   0  0  0  0  0  0  0  0  0  0  0  0
   -0.4991   -0.7042    8.3125 C   0  0  0  0  0  0  0  0  0  0  0  0
   -0.7651   -1.1038    9.2771 H   0  0  0  0  0  0  0  0  0  0  0  0
   -0.2838   -1.5359    7.2241 C   0  0  0  0  0  0  0  0  0  0  0  0
   -0.3786   -2.6060    7.3198 H   0  0  0  0  0  0  0  0  0  0  0  0
    0.0567   -0.9700    6.0057 C   0  0  0  0  0  0  0  0  0  0  0  0
    0.2288   -1.5950    5.1449 H   0  0  0  0  0  0  0  0  0  0  0  0
    0.1749    0.4107    5.8974 C   0  0  0  0  0  0  0  0  0  0  0  0
    0.5320    1.1149    4.6576 C   0  0  0  0  0  0  0  0  0  0  0  0
    0.8090    0.5712    3.4105 C   0  0  0  0  0  0  0  0  0  0  0  0
    0.7592   -0.4937    3.2619 H   0  0  0  0  0  0  0  0  0  0  0  0
    1.1351    1.4252    2.3509 C   0  0  0  0  0  0  0  0  0  0  0  0
    1.1604    2.8098    2.5754 C   0  0  0  0  0  0  0  0  0  0  0  0
    1.3995    3.4487    1.7417 H   0  0  0  0  0  0  0  0  0  0  0  0
    0.8725    3.3017    3.8364 C   0  0  0  0  0  0  0  0  0  0  0  0
    0.8404    4.7010    4.2834 C   0  0  0  0  0  0  0  0  0  0  0  0
    1.1026    5.7857    3.4550 C   0  0  0  0  0  0  0  0  0  0  0  0
    1.3475    5.6214    2.4185 H   0  0  0  0  0  0  0  0  0  0  0  0
    1.0444    7.0701    3.9727 C   0  0  0  0  0  0  0  0  0  0  0  0
    1.2448    7.9213    3.3412 H   0  0  0  0  0  0  0  0  0  0  0  0
    0.7247    7.2398    5.3114 C   0  0  0  0  0  0  0  0  0  0  0  0
    0.6692    8.2213    5.7526 H   0  0  0  0  0  0  0  0  0  0  0  0
    0.4729    6.1201    6.0878 C   0  0  0  0  0  0  0  0  0  0  0  0
    0.2192    6.2074    7.1371 H   0  0  0  0  0  0  0  0  0  0  0  0
    1.4403    0.9424    0.9980 C   0  0  0  0  0  0  0  0  0  0  0  0
    1.6970   -0.3954    0.6982 C   0  0  0  0  0  0  0  0  0  0  0  0
    1.7071   -1.1535    1.4646 H   0  0  0  0  0  0  0  0  0  0  0  0
    1.9683   -0.7418   -0.6165 C   0  0  0  0  0  0  0  0  0  0  0  0
    2.1712   -1.7698   -0.8760 H   0  0  0  0  0  0  0  0  0  0  0  0
    1.9774    0.2468   -1.5859 C   0  0  0  0  0  0  0  0  0  0  0  0
    2.1800    0.0164   -2.6189 H   0  0  0  0  0  0  0  0  0  0  0  0
    1.7237    1.5547   -1.1862 C   0  0  0  0  0  0  0  0  0  0  0  0
    1.7267    2.3695   -1.8974 H   0  0  0  0  0  0  0  0  0  0  0  0
  1  5  1  0  0  0  0
  1  2  1  1  0  0  0
  3 30  1  0  0  0  0
  3  1  1  0  0  0  0
  4  1  1  0  0  0  0
  5  7  1  0  0  0  0
  6 32  1  0  0  0  0
  7  9  1  0  0  0  0
  7  8  1  0  0  0  0
  9 10  1  0  0  0  0
 11 12  1  0  0  0  0
 11  9  2  0  0  0  0
 13 11  1  0  0  0  0
 14 13  1  0  0  0  0
 15 13  2  0  0  0  0
 15  5  1  0  0  0  0
 16  4  1  0  0  0  0
 16 15  1  0  0  0  0
 17 16  2  0  0  0  0
 18 17  1  0  0  0  0
 19 20  2  0  0  0  0
 19 17  1  0  0  0  0
 20 22  1  0  0  0  0
 21 20  1  0  0  0  0
 22 23  2  0  0  0  0
 22  4  1  0  0  0  0
 23  3  1  0  0  0  0
 24 26  2  0  0  0  0
 24 23  1  0  0  0  0
 25 24  1  0  0  0  0
 26 28  1  0  0  0  0
 27 26  1  0  0  0  0
 28 29  1  0  0  0  0
 28 30  2  0  0  0  0
 30 31  1  0  0  0  0
 32 19  1  0  0  0  0
 33 32  2  0  0  0  0
 33 34  1  0  0  0  0
 35 33  1  0  0  0  0
 36 35  1  0  0  0  0
 37 39  1  0  0  0  0
 37 35  2  0  0  0  0
 38 37  1  0  0  0  0
 39  6  2  0  0  0  0
 40 39  1  0  0  0  0
M  END
$$$$
