CSD_code = SOHJOQ | q = 0 | S = 0 | Stoichiometry = C20H26BrF3N4Pt | MND = 6
 OpenBabel04212202093D

 55 58  0  0  1  0  0  0  0  0999 V2000
    7.6669   14.1312    2.6251 Pt  0  0  0  0  0  0  0  0  0  0  0  0
   10.1469   13.8502    3.1330 Br  0  0  0  0  0  0  0  0  0  0  0  0
    2.8512   14.7421    5.4539 F   0  0  0  0  0  0  0  0  0  0  0  0
    2.9715   13.7466    3.5598 F   0  0  0  0  0  0  0  0  0  0  0  0
    4.6059   13.6341    4.9518 F   0  0  0  0  0  0  0  0  0  0  0  0
    8.2320   15.8340    1.2423 N   0  0  0  0  0  0  0  0  0  0  0  0
    8.9158   17.7574    0.4387 N   0  0  0  0  0  0  0  0  0  0  0  0
    7.6219   15.8013    4.1656 N   0  0  0  0  0  0  0  0  0  0  0  0
    7.6236   17.8121    5.0458 N   0  0  0  0  0  0  0  0  0  0  0  0
    8.6608   17.0347    1.5604 C   0  0  2  0  0  3  0  0  0  0  0  0
    9.3820   19.1129    0.3482 C   0  0  0  0  0  0  0  0  0  0  0  0
    8.6660   19.8015    0.8036 H   0  0  0  0  0  0  0  0  0  0  0  0
    9.4959   19.3753   -0.7018 H   0  0  0  0  0  0  0  0  0  0  0  0
   10.3471   19.2292    0.8435 H   0  0  0  0  0  0  0  0  0  0  0  0
    8.6276   16.9555   -0.6287 C   0  0  0  0  0  0  0  0  0  0  0  0
    8.7488   17.2856   -1.6393 H   0  0  0  0  0  0  0  0  0  0  0  0
    8.2040   15.7693   -0.1162 C   0  0  0  0  0  0  0  0  0  0  0  0
    7.8822   14.8889   -0.6339 H   0  0  0  0  0  0  0  0  0  0  0  0
    8.8825   17.6166    2.9190 C   0  0  2  0  0  0  0  0  0  0  0  0
    8.6510   18.6871    2.8493 H   0  0  0  0  0  0  0  0  0  0  0  0
   10.3613   17.4581    3.3311 C   0  0  0  0  0  0  0  0  0  0  0  0
   10.5371   17.9248    4.2973 H   0  0  0  0  0  0  0  0  0  0  0  0
   11.0184   17.9187    2.5980 H   0  0  0  0  0  0  0  0  0  0  0  0
   10.6152   16.4034    3.4053 H   0  0  0  0  0  0  0  0  0  0  0  0
    8.0147   17.0454    3.9960 C   0  0  1  0  0  3  0  0  0  0  0  0
    6.9623   15.7560    5.3539 C   0  0  0  0  0  0  0  0  0  0  0  0
    6.5439   14.8490    5.7367 H   0  0  0  0  0  0  0  0  0  0  0  0
    6.9540   16.9956    5.9105 C   0  0  0  0  0  0  0  0  0  0  0  0
    6.5365   17.3546    6.8276 H   0  0  0  0  0  0  0  0  0  0  0  0
    7.8181   19.2229    5.2298 C   0  0  0  0  0  0  0  0  0  0  0  0
    8.8781   19.4808    5.2008 H   0  0  0  0  0  0  0  0  0  0  0  0
    7.4176   19.5066    6.2010 H   0  0  0  0  0  0  0  0  0  0  0  0
    7.2899   19.7888    4.4583 H   0  0  0  0  0  0  0  0  0  0  0  0
    5.6080   14.4000    2.1052 C   0  0  0  0  0  0  0  0  0  0  0  0
    5.6227   14.4750    1.0152 H   0  0  0  0  0  0  0  0  0  0  0  0
    5.0313   13.5241    2.3937 H   0  0  0  0  0  0  0  0  0  0  0  0
    5.0808   15.6422    2.6707 C   0  0  0  0  0  0  0  0  0  0  0  0
    4.2634   15.7171    3.8162 C   0  0  0  0  0  0  0  0  0  0  0  0
    3.8966   16.9407    4.3628 C   0  0  0  0  0  0  0  0  0  0  0  0
    3.2804   16.9645    5.2485 H   0  0  0  0  0  0  0  0  0  0  0  0
    4.3026   18.1248    3.7804 C   0  0  0  0  0  0  0  0  0  0  0  0
    4.0227   19.0696    4.2205 H   0  0  0  0  0  0  0  0  0  0  0  0
    5.0276   18.0783    2.5980 C   0  0  0  0  0  0  0  0  0  0  0  0
    5.2965   18.9966    2.0929 H   0  0  0  0  0  0  0  0  0  0  0  0
    5.3890   16.8672    2.0547 C   0  0  0  0  0  0  0  0  0  0  0  0
    5.9230   16.8454    1.1167 H   0  0  0  0  0  0  0  0  0  0  0  0
    3.6924   14.4751    4.4372 C   0  0  0  0  0  0  0  0  0  0  0  0
    7.2701   12.5863    3.9241 C   0  0  0  0  0  0  0  0  0  0  0  0
    6.3170   12.0931    3.7422 H   0  0  0  0  0  0  0  0  0  0  0  0
    7.2681   13.0004    4.9333 H   0  0  0  0  0  0  0  0  0  0  0  0
    8.0605   11.8359    3.8771 H   0  0  0  0  0  0  0  0  0  0  0  0
    7.8404   12.6990    1.1531 C   0  0  0  0  0  0  0  0  0  0  0  0
    8.0634   11.7131    1.5607 H   0  0  0  0  0  0  0  0  0  0  0  0
    8.6899   12.9982    0.5332 H   0  0  0  0  0  0  0  0  0  0  0  0
    6.9513   12.6112    0.5277 H   0  0  0  0  0  0  0  0  0  0  0  0
  1  2  1  0  0  0  0
  1 48  1  0  0  0  0
  1  8  1  0  0  0  0
  4 47  1  0  0  0  0
  6 10  1  0  0  0  0
  6  1  1  0  0  0  0
  8 26  1  0  0  0  0
  9 30  1  0  0  0  0
  9 28  1  0  0  0  0
 10  7  1  6  0  0  0
 10 19  1  0  0  0  0
 11  7  1  0  0  0  0
 11 12  1  0  0  0  0
 11 14  1  0  0  0  0
 13 11  1  0  0  0  0
 15 17  2  0  0  0  0
 15  7  1  0  0  0  0
 16 15  1  0  0  0  0
 17  6  1  0  0  0  0
 18 17  1  0  0  0  0
 19 20  1  6  0  0  0
 19 21  1  0  0  0  0
 19 25  1  0  0  0  0
 21 24  1  0  0  0  0
 21 22  1  0  0  0  0
 23 21  1  0  0  0  0
 25  8  1  1  0  0  0
 25  9  1  0  0  0  0
 26 27  1  0  0  0  0
 26 28  2  0  0  0  0
 28 29  1  0  0  0  0
 30 32  1  0  0  0  0
 31 30  1  0  0  0  0
 33 30  1  0  0  0  0
 34 36  1  0  0  0  0
 34  1  1  0  0  0  0
 34 37  1  0  0  0  0
 35 34  1  0  0  0  0
 37 38  1  0  0  0  0
 38 39  2  0  0  0  0
 38 47  1  0  0  0  0
 39 40  1  0  0  0  0
 41 42  1  0  0  0  0
 41 39  1  0  0  0  0
 43 41  2  0  0  0  0
 44 43  1  0  0  0  0
 45 43  1  0  0  0  0
 45 37  2  0  0  0  0
 46 45  1  0  0  0  0
 47  5  1  0  0  0  0
 47  3  1  0  0  0  0
 48 50  1  0  0  0  0
 49 48  1  0  0  0  0
 51 48  1  0  0  0  0
 52 53  1  0  0  0  0
 52  1  1  0  0  0  0
 54 52  1  0  0  0  0
 55 52  1  0  0  0  0
M  END
$$$$
