CSD_code = SOHLUY | q = 0 | S = 0 | Stoichiometry = C20H15BrN2Pd | MND = 4
 OpenBabel04212202093D

 39 43  0  0  0  0  0  0  0  0999 V2000
    9.3829    8.9808    5.3052 Pd  0  0  2  0  0  0  0  0  0  0  0  0
    7.5414    7.4759    5.0027 Br  0  0  0  0  0  0  0  0  0  0  0  0
   11.7938   12.4009    5.3513 C   0  0  0  0  0  0  0  0  0  0  0  0
   11.7144   13.4395    5.0633 H   0  0  0  0  0  0  0  0  0  0  0  0
   12.9699   11.9206    5.9121 C   0  0  0  0  0  0  0  0  0  0  0  0
   13.7980   12.5998    6.0531 H   0  0  0  0  0  0  0  0  0  0  0  0
   13.1145   10.5943    6.2975 C   0  0  0  0  0  0  0  0  0  0  0  0
   14.0441   10.2531    6.7303 H   0  0  0  0  0  0  0  0  0  0  0  0
   12.0470    9.7112    6.1221 C   0  0  0  0  0  0  0  0  0  0  0  0
   10.8594   10.1898    5.5533 C   0  0  0  0  0  0  0  0  0  0  0  0
   10.7201   11.5282    5.1627 C   0  0  0  0  0  0  0  0  0  0  0  0
    9.4275   11.7688    4.5813 C   0  0  0  0  0  3  0  0  0  0  0  0
    9.1299   12.7480    4.2049 H   0  0  0  0  0  0  0  0  0  0  0  0
    7.3563   10.9026    3.9119 C   0  0  0  0  0  0  0  0  0  0  0  0
    6.4924   11.9118    4.3340 C   0  0  0  0  0  0  0  0  0  0  0  0
    6.7989   12.5804    5.1266 H   0  0  0  0  0  0  0  0  0  0  0  0
    5.2343   12.0170    3.7715 C   0  0  0  0  0  0  0  0  0  0  0  0
    4.5614   12.7897    4.1125 H   0  0  0  0  0  0  0  0  0  0  0  0
    4.8356   11.1338    2.7818 C   0  0  0  0  0  0  0  0  0  0  0  0
    3.8496   11.2177    2.3507 H   0  0  0  0  0  0  0  0  0  0  0  0
    5.6982   10.1376    2.3521 C   0  0  0  0  0  0  0  0  0  0  0  0
    5.3888    9.4462    1.5837 H   0  0  0  0  0  0  0  0  0  0  0  0
    6.9536   10.0159    2.9130 C   0  0  0  0  0  0  0  0  0  0  0  0
    7.6386    9.2436    2.5852 H   0  0  0  0  0  0  0  0  0  0  0  0
   11.9358    8.3194    6.4646 C   0  0  0  0  0  0  0  0  0  0  0  0
   12.7532    7.7645    6.9260 H   0  0  0  0  0  0  0  0  0  0  0  0
   10.6036    6.3946    6.5555 C   0  0  0  0  0  0  0  0  0  0  0  0
   11.5054    5.4203    6.1306 C   0  0  0  0  0  0  0  0  0  0  0  0
   12.3577    5.7070    5.5303 H   0  0  0  0  0  0  0  0  0  0  0  0
   11.2750    4.0924    6.4373 C   0  0  0  0  0  0  0  0  0  0  0  0
   11.9667    3.3384    6.0923 H   0  0  0  0  0  0  0  0  0  0  0  0
   10.1612    3.7294    7.1763 C   0  0  0  0  0  0  0  0  0  0  0  0
    9.9840    2.6901    7.4078 H   0  0  0  0  0  0  0  0  0  0  0  0
    9.2704    4.6985    7.6105 C   0  0  0  0  0  0  0  0  0  0  0  0
    8.4003    4.4180    8.1835 H   0  0  0  0  0  0  0  0  0  0  0  0
    9.4840    6.0269    7.3020 C   0  0  0  0  0  0  0  0  0  0  0  0
    8.7971    6.7946    7.6364 H   0  0  0  0  0  0  0  0  0  0  0  0
    8.6285   10.7512    4.4751 N   0  0  0  0  0  0  0  0  0  0  0  0
   10.7925    7.7458    6.2432 N   0  0  0  0  0  0  0  0  0  0  0  0
  1  2  1  1  0  0  0
  1 10  2  0  0  0  0
  1 39  1  0  0  0  0
  3  5  1  0  0  0  0
  4  3  1  0  0  0  0
  5  6  1  0  0  0  0
  5  7  2  0  0  0  0
  7  8  1  0  0  0  0
  9  7  1  0  0  0  0
  9 25  2  0  0  0  0
 10  9  1  0  0  0  0
 11  3  2  0  0  0  0
 11 10  1  0  0  0  0
 12 11  1  0  0  0  0
 13 12  1  0  0  0  0
 14 15  1  0  0  0  0
 14 38  1  0  0  0  0
 15 16  1  0  0  0  0
 17 18  1  0  0  0  0
 17 15  2  0  0  0  0
 19 17  1  0  0  0  0
 20 19  1  0  0  0  0
 21 19  2  0  0  0  0
 21 23  1  0  0  0  0
 22 21  1  0  0  0  0
 23 14  2  0  0  0  0
 24 23  1  0  0  0  0
 25 26  1  0  0  0  0
 27 36  1  0  0  0  0
 28 30  1  0  0  0  0
 28 27  2  0  0  0  0
 29 28  1  0  0  0  0
 30 32  2  0  0  0  0
 31 30  1  0  0  0  0
 32 33  1  0  0  0  0
 32 34  1  0  0  0  0
 34 35  1  0  0  0  0
 36 34  2  0  0  0  0
 36 37  1  0  0  0  0
 38 12  1  0  0  0  0
 38  1  1  0  0  0  0
 39 25  1  0  0  0  0
 39 27  1  0  0  0  0
M  END
$$$$
