CSD_code = SOHRAK | q = 0 | S = 0 | Stoichiometry = C15H20Cl3NOSTi | MND = 6
 OpenBabel04212202093D

 42 44  0  0  1  0  0  0  0  0999 V2000
   -0.1971    6.8223    3.8241 Ti  0  0  0  0  0  0  0  0  0  0  0  0
   -2.4295    6.7871    3.4907 Cl  0  0  0  0  0  0  0  0  0  0  0  0
   -0.2457    8.7512    4.8385 Cl  0  0  0  0  0  0  0  0  0  0  0  0
    1.8861    6.3209    4.5385 Cl  0  0  0  0  0  0  0  0  0  0  0  0
   -0.7067    5.7470    6.2166 S   0  0  2  0  0  3  0  0  0  0  0  0
    0.2011    7.2704    2.1827 O   0  0  0  0  0  0  0  0  0  0  0  0
   -0.2399    4.8534    3.2443 N   0  0  1  0  0  0  0  0  0  0  0  0
    0.5205    4.4163    2.2823 C   0  0  2  0  0  3  0  0  0  0  0  0
    1.2498    5.3123    1.4529 C   0  0  0  0  0  0  0  0  0  0  0  0
    1.9738    4.8849    0.7780 H   0  0  0  0  0  0  0  0  0  0  0  0
    1.0867    6.6811    1.4435 C   0  0  0  0  0  0  0  0  0  0  0  0
    1.9101    7.5686    0.6001 C   0  0  0  0  0  0  0  0  0  0  0  0
    2.1371    8.8644    1.0701 C   0  0  0  0  0  0  0  0  0  0  0  0
    1.7058    9.1605    2.0206 H   0  0  0  0  0  0  0  0  0  0  0  0
    2.9180    9.7421    0.3437 C   0  0  0  0  0  0  0  0  0  0  0  0
    3.0969   10.7387    0.7180 H   0  0  0  0  0  0  0  0  0  0  0  0
    3.4689    9.3430   -0.8637 C   0  0  0  0  0  0  0  0  0  0  0  0
    4.0766   10.0296   -1.4339 H   0  0  0  0  0  0  0  0  0  0  0  0
    3.2356    8.0635   -1.3429 C   0  0  0  0  0  0  0  0  0  0  0  0
    3.6563    7.7574   -2.2892 H   0  0  0  0  0  0  0  0  0  0  0  0
    2.4629    7.1760   -0.6174 C   0  0  0  0  0  0  0  0  0  0  0  0
    2.2671    6.1896   -1.0095 H   0  0  0  0  0  0  0  0  0  0  0  0
    0.6824    2.9480    1.9794 C   0  0  0  0  0  0  0  0  0  0  0  0
    1.0544    2.4184    2.8553 H   0  0  0  0  0  0  0  0  0  0  0  0
    1.3881    2.8052    1.1676 H   0  0  0  0  0  0  0  0  0  0  0  0
   -0.2715    2.5125    1.6839 H   0  0  0  0  0  0  0  0  0  0  0  0
   -1.0117    3.9623    4.0822 C   0  0  0  0  0  0  0  0  0  0  0  0
   -0.9427    2.9155    3.7658 H   0  0  0  0  0  0  0  0  0  0  0  0
   -2.0610    4.2817    4.0149 H   0  0  0  0  0  0  0  0  0  0  0  0
   -0.5415    4.0611    5.5363 C   0  0  0  0  0  0  0  0  0  0  0  0
    0.5275    3.8443    5.6078 H   0  0  0  0  0  0  0  0  0  0  0  0
   -1.1026    3.3761    6.1714 H   0  0  0  0  0  0  0  0  0  0  0  0
   -2.4971    5.8483    6.5858 C   0  0  0  0  0  0  0  0  0  0  0  0
   -2.6822    6.9188    6.6892 H   0  0  0  0  0  0  0  0  0  0  0  0
   -3.0530    5.4866    5.7213 H   0  0  0  0  0  0  0  0  0  0  0  0
   -2.8676    5.1106    7.8629 C   0  0  0  0  0  0  0  0  0  0  0  0
   -2.2595    5.4911    8.6847 H   0  0  0  0  0  0  0  0  0  0  0  0
   -2.6536    4.0453    7.7542 H   0  0  0  0  0  0  0  0  0  0  0  0
   -4.3467    5.2988    8.1806 C   0  0  0  0  0  0  0  0  0  0  0  0
   -4.5735    6.3520    8.3228 H   0  0  0  0  0  0  0  0  0  0  0  0
   -4.6102    4.7634    9.0890 H   0  0  0  0  0  0  0  0  0  0  0  0
   -4.9626    4.9236    7.3667 H   0  0  0  0  0  0  0  0  0  0  0  0
  1  4  1  0  0  0  0
  1  3  1  0  0  0  0
  1  5  1  0  0  0  0
  2  1  1  0  0  0  0
  5 33  1  6  0  0  0
  6  1  1  0  0  0  0
  7  1  1  0  0  0  0
  7 27  1  1  0  0  0
  8 23  1  6  0  0  0
  8  7  1  0  0  0  0
  9  8  1  0  0  0  0
 10  9  1  0  0  0  0
 11  9  2  0  0  0  0
 11  6  1  0  0  0  0
 12 13  1  0  0  0  0
 12 11  1  0  0  0  0
 13 14  1  0  0  0  0
 15 16  1  0  0  0  0
 15 13  2  0  0  0  0
 17 15  1  0  0  0  0
 18 17  1  0  0  0  0
 19 17  2  0  0  0  0
 19 21  1  0  0  0  0
 20 19  1  0  0  0  0
 21 12  2  0  0  0  0
 22 21  1  0  0  0  0
 23 24  1  0  0  0  0
 25 23  1  0  0  0  0
 26 23  1  0  0  0  0
 27 30  1  0  0  0  0
 28 27  1  0  0  0  0
 29 27  1  0  0  0  0
 30 31  1  0  0  0  0
 30 32  1  0  0  0  0
 30  5  1  0  0  0  0
 33 34  1  0  0  0  0
 33 36  1  0  0  0  0
 35 33  1  0  0  0  0
 36 39  1  0  0  0  0
 36 37  1  0  0  0  0
 38 36  1  0  0  0  0
 39 40  1  0  0  0  0
 39 41  1  0  0  0  0
 42 39  1  0  0  0  0
M  END
$$$$
