CSD_code = SOJNEL | q = 0 | S = 0 | Stoichiometry = C18H23ClN2O2Pd | MND = 4
 OpenBabel04212202093D

 47 51  0  0  1  0  0  0  0  0999 V2000
   -0.7491    3.3046    9.1156 Pd  0  0  1  0  0  0  0  0  0  0  0  0
   -2.2870    3.1454   10.8075 Cl  0  0  0  0  0  0  0  0  0  0  0  0
   -1.4672    5.9178    6.0593 O   0  0  0  0  0  0  0  0  0  0  0  0
    2.5956    0.9652    9.2868 O   0  0  0  0  0  0  0  0  0  0  0  0
   -1.7452    4.5491    7.7992 N   0  0  2  0  0  0  0  0  0  0  0  0
    0.7708    2.1154    9.8569 N   0  0  0  0  0  0  0  0  0  0  0  0
    0.5397    3.4364    7.6956 C   0  0  0  0  0  0  0  0  0  0  0  0
    0.2615    4.2356    6.5867 C   0  0  0  0  0  0  0  0  0  0  0  0
    1.1957    4.3379    5.5595 C   0  0  0  0  0  0  0  0  0  0  0  0
    2.3844    3.6249    5.6632 C   0  0  0  0  0  0  0  0  0  0  0  0
    2.6726    2.8202    6.7593 C   0  0  0  0  0  0  0  0  0  0  0  0
    1.7398    2.7318    7.7890 C   0  0  0  0  0  0  0  0  0  0  0  0
   -1.0137    4.8967    6.7879 C   0  0  2  0  0  3  0  0  0  0  0  0
   -2.6438    6.4065    6.7086 C   0  0  0  0  0  0  0  0  0  0  0  0
   -2.8447    5.4836    7.9378 C   0  0  2  0  0  0  0  0  0  0  0  0
   -2.7718    6.1753    9.3193 C   0  0  0  0  0  0  0  0  0  0  0  0
   -3.7766    7.3186    9.4182 C   0  0  0  0  0  0  0  0  0  0  0  0
   -1.3486    6.6370    9.6448 C   0  0  0  0  0  0  0  0  0  0  0  0
    1.7312    1.9413    9.0049 C   0  0  0  0  0  0  0  0  0  0  0  0
    2.1187    0.3100   10.4649 C   0  0  0  0  0  0  0  0  0  0  0  0
    0.8340    1.0783   10.8676 C   0  0  2  0  0  0  0  0  0  0  0  0
   -0.4756    0.2553   10.8550 C   0  0  0  0  0  0  0  0  0  0  0  0
   -0.3625   -0.9755   11.7487 C   0  0  0  0  0  0  0  0  0  0  0  0
   -0.8979   -0.1108    9.4295 C   0  0  0  0  0  0  0  0  0  0  0  0
    1.0019    4.9598    4.6982 H   0  0  0  0  0  0  0  0  0  0  0  0
    3.1085    3.6989    4.8653 H   0  0  0  0  0  0  0  0  0  0  0  0
    3.6027    2.2736    6.8098 H   0  0  0  0  0  0  0  0  0  0  0  0
   -2.4676    7.4498    6.9803 H   0  0  0  0  0  0  0  0  0  0  0  0
   -3.4749    6.3550    6.0019 H   0  0  0  0  0  0  0  0  0  0  0  0
   -3.7968    4.9428    7.8749 H   0  0  0  0  0  0  0  0  0  0  0  0
   -3.0460    5.4091   10.0536 H   0  0  0  0  0  0  0  0  0  0  0  0
   -3.8342    7.6648   10.4467 H   0  0  0  0  0  0  0  0  0  0  0  0
   -3.4909    8.1633    8.7945 H   0  0  0  0  0  0  0  0  0  0  0  0
   -4.7664    6.9849    9.1157 H   0  0  0  0  0  0  0  0  0  0  0  0
   -0.6847    5.7619    9.7919 H   0  0  0  0  0  0  0  0  0  0  0  0
   -0.9365    7.2655    8.8554 H   0  0  0  0  0  0  0  0  0  0  0  0
   -1.3546    7.2064   10.5708 H   0  0  0  0  0  0  0  0  0  0  0  0
    1.9313   -0.7364   10.2137 H   0  0  0  0  0  0  0  0  0  0  0  0
    2.8980    0.3619   11.2284 H   0  0  0  0  0  0  0  0  0  0  0  0
    0.9413    1.5366   11.8582 H   0  0  0  0  0  0  0  0  0  0  0  0
   -1.2481    0.9137   11.2688 H   0  0  0  0  0  0  0  0  0  0  0  0
   -1.3419   -1.4316   11.8659 H   0  0  0  0  0  0  0  0  0  0  0  0
    0.3078   -1.7217   11.3268 H   0  0  0  0  0  0  0  0  0  0  0  0
    0.0044   -0.6995   12.7345 H   0  0  0  0  0  0  0  0  0  0  0  0
   -1.7609   -0.7708    9.4648 H   0  0  0  0  0  0  0  0  0  0  0  0
   -1.1926    0.7994    8.8703 H   0  0  0  0  0  0  0  0  0  0  0  0
   -0.0984   -0.6161    8.8877 H   0  0  0  0  0  0  0  0  0  0  0  0
  1  6  1  0  0  0  0
  1  2  1  6  0  0  0
  3 14  1  0  0  0  0
  3 13  1  0  0  0  0
  4 20  1  0  0  0  0
  5 15  1  0  0  0  0
  5  1  1  0  0  0  0
  6 21  1  0  0  0  0
  7 12  1  0  0  0  0
  7  1  2  0  0  0  0
  8 13  1  0  0  0  0
  8  7  1  0  0  0  0
  9 10  1  0  0  0  0
  9  8  2  0  0  0  0
 10 11  2  0  0  0  0
 11 27  1  0  0  0  0
 11 12  1  0  0  0  0
 12 19  2  0  0  0  0
 13  5  1  0  0  0  0
 14 28  1  0  0  0  0
 14 15  1  0  0  0  0
 15 16  1  0  0  0  0
 16 17  1  0  0  0  0
 16 18  1  0  0  0  0
 16 31  1  0  0  0  0
 17 32  1  0  0  0  0
 18 35  1  0  0  0  0
 18 37  1  0  0  0  0
 19  4  1  0  0  0  0
 19  6  1  0  0  0  0
 20 21  1  0  0  0  0
 20 39  1  0  0  0  0
 21 40  1  0  0  0  0
 22 21  1  0  0  0  0
 22 41  1  0  0  0  0
 22 23  1  0  0  0  0
 23 42  1  0  0  0  0
 23 44  1  0  0  0  0
 24 45  1  0  0  0  0
 24 22  1  0  0  0  0
 25  9  1  0  0  0  0
 26 10  1  0  0  0  0
 29 14  1  0  0  0  0
 30 15  1  0  0  0  0
 33 17  1  0  0  0  0
 34 17  1  0  0  0  0
 36 18  1  0  0  0  0
 38 20  1  0  0  0  0
 43 23  1  0  0  0  0
 46 24  1  0  0  0  0
 47 24  1  0  0  0  0
M  END
$$$$
