CSD_code = SOJVES | q = 0 | S = 0 | Stoichiometry = C10H18ClCuN6O4S2 | MND = 3
 OpenBabel04212202093D

 42 41  0  0  0  0  0  0  0  0999 V2000
   -1.0172    3.5072    2.3522 Cu  0  0  0  0  0  0  0  0  0  0  0  0
   -1.0170    1.2434    2.3524 Cl  0  0  0  0  0  0  0  0  0  0  0  0
    0.3364    4.6021    0.8429 S   0  0  0  0  0  0  0  0  0  0  0  0
    3.3100    5.5772   -2.5059 O   0  0  0  0  0  0  0  0  0  0  0  0
    4.6346    4.6491   -4.0618 O   0  0  0  0  0  0  0  0  0  0  0  0
    0.8973    2.0887    0.1155 N   0  0  0  0  0  4  0  0  0  0  0  0
    1.9418    3.7938   -1.0194 N   0  0  0  0  0  0  0  0  0  0  0  0
    2.5678    2.8913   -1.7676 N   0  0  0  0  0  0  0  0  0  0  0  0
    1.0782    3.3880   -0.0456 C   0  0  0  0  0  0  0  0  0  0  0  0
    3.3955    3.1978   -2.7001 C   0  0  0  0  0  0  0  0  0  0  0  0
    3.7556    4.5888   -3.0565 C   0  0  0  0  0  0  0  0  0  0  0  0
    5.0314    5.9519   -4.4645 C   0  0  0  0  0  0  0  0  0  0  0  0
    4.0256    2.0804   -3.4633 C   0  0  0  0  0  0  0  0  0  0  0  0
    0.2680    1.7218    0.8388 H   0  0  0  0  0  0  0  0  0  0  0  0
    1.4085    1.4609   -0.4868 H   0  0  0  0  0  0  0  0  0  0  0  0
    2.0920    4.7961   -1.1536 H   0  0  0  0  0  0  0  0  0  0  0  0
    5.7018    5.8171   -5.3091 H   0  0  0  0  0  0  0  0  0  0  0  0
    4.1588    6.5414   -4.7538 H   0  0  0  0  0  0  0  0  0  0  0  0
    5.5420    6.4624   -3.6453 H   0  0  0  0  0  0  0  0  0  0  0  0
    3.6610    1.1304   -3.0854 H   0  0  0  0  0  0  0  0  0  0  0  0
    3.7881    2.1690   -4.5217 H   0  0  0  0  0  0  0  0  0  0  0  0
    5.1085    2.1227   -3.3642 H   0  0  0  0  0  0  0  0  0  0  0  0
   -2.3711    4.6022    3.8612 S   0  0  0  0  0  0  0  0  0  0  0  0
   -3.1128    3.3881    4.7498 C   0  0  0  0  0  0  0  0  0  0  0  0
   -2.9317    2.0888    4.5889 N   0  0  0  0  0  4  0  0  0  0  0  0
   -3.9765    3.7939    5.7235 N   0  0  0  0  0  0  0  0  0  0  0  0
   -2.3022    1.7218    3.8658 H   0  0  0  0  0  0  0  0  0  0  0  0
   -3.4428    1.4611    5.1914 H   0  0  0  0  0  0  0  0  0  0  0  0
   -4.6022    2.8913    6.4719 N   0  0  0  0  0  0  0  0  0  0  0  0
   -4.1268    4.7962    5.8577 H   0  0  0  0  0  0  0  0  0  0  0  0
   -5.4297    3.1977    7.4047 C   0  0  0  0  0  0  0  0  0  0  0  0
   -5.7897    4.5887    7.7612 C   0  0  0  0  0  0  0  0  0  0  0  0
   -6.0592    2.0802    8.1681 C   0  0  0  0  0  0  0  0  0  0  0  0
   -5.3443    5.5771    7.2104 O   0  0  0  0  0  0  0  0  0  0  0  0
   -6.6683    4.6491    8.7668 O   0  0  0  0  0  0  0  0  0  0  0  0
   -5.6945    1.1303    7.7899 H   0  0  0  0  0  0  0  0  0  0  0  0
   -5.8213    2.1688    9.2263 H   0  0  0  0  0  0  0  0  0  0  0  0
   -7.1422    2.1222    8.0695 H   0  0  0  0  0  0  0  0  0  0  0  0
   -7.0645    5.9520    9.1697 C   0  0  0  0  0  0  0  0  0  0  0  0
   -7.7303    5.8178   10.0180 H   0  0  0  0  0  0  0  0  0  0  0  0
   -6.1911    6.5430    9.4534 H   0  0  0  0  0  0  0  0  0  0  0  0
   -7.5801    6.4607    8.3524 H   0  0  0  0  0  0  0  0  0  0  0  0
  1  2  1  0  0  0  0
  1 23  1  0  0  0  0
  3  1  1  0  0  0  0
  5 11  1  0  0  0  0
  6 14  1  0  0  0  0
  7  9  1  0  0  0  0
  8  7  1  0  0  0  0
  9  6  2  0  0  0  0
  9  3  1  0  0  0  0
 10  8  2  0  0  0  0
 11 10  1  0  0  0  0
 11  4  2  0  0  0  0
 12  5  1  0  0  0  0
 12 19  1  0  0  0  0
 13 22  1  0  0  0  0
 13 20  1  0  0  0  0
 13 10  1  0  0  0  0
 15  6  1  0  0  0  0
 16  7  1  0  0  0  0
 17 12  1  0  0  0  0
 18 12  1  0  0  0  0
 21 13  1  0  0  0  0
 23 24  1  0  0  0  0
 24 26  1  0  0  0  0
 25 24  2  0  0  0  0
 25 28  1  0  0  0  0
 26 30  1  0  0  0  0
 26 29  1  0  0  0  0
 27 25  1  0  0  0  0
 29 31  2  0  0  0  0
 31 32  1  0  0  0  0
 31 33  1  0  0  0  0
 32 35  1  0  0  0  0
 33 37  1  0  0  0  0
 34 32  2  0  0  0  0
 35 39  1  0  0  0  0
 36 33  1  0  0  0  0
 38 33  1  0  0  0  0
 39 41  1  0  0  0  0
 39 40  1  0  0  0  0
 42 39  1  0  0  0  0
M  END
$$$$
