CSD_code = SOKCED | q = 1 | S = 0 | Stoichiometry = C14H12AuCl2N2(1+) | MND = 4
 OpenBabel04212202093D

 31 34  0  0  0  0  0  0  0  0999 V2000
   -3.1965    1.5465    3.9909 C   0  0  0  0  0  0  0  0  0  0  0  0
   -2.7730    2.5260    4.1652 H   0  0  0  0  0  0  0  0  0  0  0  0
   -4.4702    1.1946    4.4394 C   0  0  0  0  0  0  0  0  0  0  0  0
   -5.0525    1.9163    4.9891 H   0  0  0  0  0  0  0  0  0  0  0  0
   -4.9624   -0.0618    4.1750 C   0  0  0  0  0  0  0  0  0  0  0  0
   -5.9416   -0.3347    4.5342 H   0  0  0  0  0  0  0  0  0  0  0  0
   -4.1816   -0.9923    3.4571 C   0  0  0  0  0  0  0  0  0  0  0  0
   -4.6029   -2.3281    3.1425 C   0  0  0  0  0  0  0  0  0  0  0  0
   -6.0063   -2.7255    3.4766 C   0  0  0  0  0  0  0  0  0  0  0  0
   -6.0768   -3.0517    4.5146 H   0  0  0  0  0  0  0  0  0  0  0  0
   -6.3467   -3.5354    2.8403 H   0  0  0  0  0  0  0  0  0  0  0  0
   -6.6883   -1.8922    3.3350 H   0  0  0  0  0  0  0  0  0  0  0  0
   -3.7272   -3.2128    2.5538 C   0  0  0  0  0  0  0  0  0  0  0  0
   -4.0895   -4.6503    2.3510 C   0  0  0  0  0  0  0  0  0  0  0  0
   -3.2196   -5.2894    2.4734 H   0  0  0  0  0  0  0  0  0  0  0  0
   -4.4911   -4.8087    1.3494 H   0  0  0  0  0  0  0  0  0  0  0  0
   -4.8333   -4.9726    3.0720 H   0  0  0  0  0  0  0  0  0  0  0  0
   -2.4352   -2.7686    2.1129 C   0  0  0  0  0  0  0  0  0  0  0  0
   -1.5270   -3.5661    1.3850 C   0  0  0  0  0  0  0  0  0  0  0  0
   -1.7854   -4.5774    1.1151 H   0  0  0  0  0  0  0  0  0  0  0  0
   -0.3127   -3.0510    0.9967 C   0  0  0  0  0  0  0  0  0  0  0  0
    0.3914   -3.6461    0.4379 H   0  0  0  0  0  0  0  0  0  0  0  0
    0.0185   -1.7367    1.3287 C   0  0  0  0  0  0  0  0  0  0  0  0
    0.9659   -1.2931    1.0550 H   0  0  0  0  0  0  0  0  0  0  0  0
   -2.0283   -1.4425    2.3757 C   0  0  0  0  0  0  0  0  0  0  0  0
   -2.8948   -0.5594    3.0706 C   0  0  0  0  0  0  0  0  0  0  0  0
   -2.4448    0.6880    3.3356 N   0  0  0  0  0  0  0  0  0  0  0  0
   -0.8216   -0.9697    1.9900 N   0  0  0  0  0  0  0  0  0  0  0  0
   -0.5463    0.9888    2.5819 Au  0  0  0  0  0  0  0  0  0  0  0  0
    1.4975    1.1569    1.7105 Cl  0  0  0  0  0  0  0  0  0  0  0  0
   -0.4027    3.0969    3.2902 Cl  0  0  0  0  0  0  0  0  0  0  0  0
  1  2  1  0  0  0  0
  1  3  2  0  0  0  0
  3  4  1  0  0  0  0
  5  3  1  0  0  0  0
  5  6  1  0  0  0  0
  7  5  2  0  0  0  0
  8  7  1  0  0  0  0
  8  9  1  0  0  0  0
  9 10  1  0  0  0  0
 11  9  1  0  0  0  0
 12  9  1  0  0  0  0
 13  8  2  0  0  0  0
 14 15  1  0  0  0  0
 14 13  1  0  0  0  0
 14 17  1  0  0  0  0
 16 14  1  0  0  0  0
 18 25  1  0  0  0  0
 18 13  1  0  0  0  0
 19 18  2  0  0  0  0
 20 19  1  0  0  0  0
 21 23  2  0  0  0  0
 21 19  1  0  0  0  0
 22 21  1  0  0  0  0
 23 28  1  0  0  0  0
 24 23  1  0  0  0  0
 25 26  2  0  0  0  0
 26 27  1  0  0  0  0
 26  7  1  0  0  0  0
 27  1  1  0  0  0  0
 28 25  1  0  0  0  0
 28 29  1  0  0  0  0
 29 31  1  0  0  0  0
 29 27  1  0  0  0  0
 30 29  1  0  0  0  0
M  END
$$$$
