CSD_code = SOKPEO | q = 0 | S = 0 | Stoichiometry = C11H16Cl2MoN4O2 | MND = 6
 OpenBabel04212202093D

 36 38  0  0  1  0  0  0  0  0999 V2000
    7.0329    3.6335    6.2265 Mo  0  0  0  0  0  0  0  0  0  0  0  0
    5.0240    3.1062    5.1218 Cl  0  0  0  0  0  0  0  0  0  0  0  0
    8.8859    4.9349    6.7512 Cl  0  0  0  0  0  0  0  0  0  0  0  0
    6.4191    3.4525    7.7394 O   0  0  0  0  0  1  0  0  0  0  0  0
    7.8127    2.2591    5.7778 O   0  0  0  0  0  1  0  0  0  0  0  0
    6.1076    5.7767    6.1823 N   0  0  2  0  0  0  0  0  0  0  0  0
    5.6187    6.4586    5.1226 N   0  0  0  0  0  0  0  0  0  0  0  0
    6.8502    5.4142    3.3996 N   0  0  2  0  0  0  0  0  0  0  0  0
    7.5610    4.5329    4.1379 N   0  0  0  0  0  0  0  0  0  0  0  0
    6.0220    6.5929    7.2315 C   0  0  2  0  0  3  0  0  0  0  0  0
    5.4518    7.8106    6.8305 C   0  0  0  0  0  0  0  0  0  0  0  0
    5.2514    8.6567    7.4543 H   0  0  0  0  0  0  0  0  0  0  0  0
    5.2082    7.6959    5.4811 C   0  0  0  0  0  0  0  0  0  0  0  0
    6.4879    6.2512    8.5937 C   0  0  0  0  0  0  0  0  0  0  0  0
    7.5654    6.4096    8.6651 H   0  0  0  0  0  0  0  0  0  0  0  0
    6.2930    5.1985    8.8033 H   0  0  0  0  0  0  0  0  0  0  0  0
    5.9878    6.8781    9.3272 H   0  0  0  0  0  0  0  0  0  0  0  0
    4.6127    8.6695    4.5319 C   0  0  0  0  0  0  0  0  0  0  0  0
    5.3150    8.9280    3.7396 H   0  0  0  0  0  0  0  0  0  0  0  0
    4.3565    9.5780    5.0689 H   0  0  0  0  0  0  0  0  0  0  0  0
    3.7058    8.2696    4.0794 H   0  0  0  0  0  0  0  0  0  0  0  0
    5.5459    5.8527    3.8195 C   0  0  0  0  0  0  0  0  0  0  0  0
    4.8709    4.9783    3.8670 H   0  0  0  0  0  0  0  0  0  0  0  0
    5.1779    6.5932    3.1077 H   0  0  0  0  0  0  0  0  0  0  0  0
    7.5099    5.7528    2.2689 C   0  0  1  0  0  3  0  0  0  0  0  0
    8.6981    5.0591    2.2894 C   0  0  0  0  0  0  0  0  0  0  0  0
    9.4730    5.0819    1.5517 H   0  0  0  0  0  0  0  0  0  0  0  0
    8.6967    4.3131    3.4777 C   0  0  0  0  0  0  0  0  0  0  0  0
    6.9702    6.6929    1.2547 C   0  0  0  0  0  0  0  0  0  0  0  0
    6.8069    7.6824    1.6815 H   0  0  0  0  0  0  0  0  0  0  0  0
    6.0286    6.3282    0.8454 H   0  0  0  0  0  0  0  0  0  0  0  0
    7.6843    6.7868    0.4419 H   0  0  0  0  0  0  0  0  0  0  0  0
    9.7830    3.4308    3.9583 C   0  0  0  0  0  0  0  0  0  0  0  0
    9.3629    2.5653    4.4727 H   0  0  0  0  0  0  0  0  0  0  0  0
   10.4074    3.9704    4.6728 H   0  0  0  0  0  0  0  0  0  0  0  0
   10.3984    3.1080    3.1227 H   0  0  0  0  0  0  0  0  0  0  0  0
  1  3  1  0  0  0  0
  1  4  1  0  0  0  0
  2  1  1  0  0  0  0
  5  1  1  0  0  0  0
  6  7  1  6  0  0  0
  6  1  1  0  0  0  0
  6 10  1  0  0  0  0
  7 13  1  0  0  0  0
  8 22  1  6  0  0  0
  8  9  1  0  0  0  0
  9  1  1  0  0  0  0
 10 14  1  6  0  0  0
 11 10  1  0  0  0  0
 11 12  1  0  0  0  0
 13 11  2  0  0  0  0
 14 15  1  0  0  0  0
 14 16  1  0  0  0  0
 14 17  1  0  0  0  0
 18 20  1  0  0  0  0
 18 13  1  0  0  0  0
 19 18  1  0  0  0  0
 21 18  1  0  0  0  0
 22 23  1  0  0  0  0
 22  7  1  0  0  0  0
 24 22  1  0  0  0  0
 25 29  1  6  0  0  0
 25 26  1  0  0  0  0
 25  8  1  0  0  0  0
 26 28  2  0  0  0  0
 27 26  1  0  0  0  0
 28 33  1  0  0  0  0
 28  9  1  0  0  0  0
 29 30  1  0  0  0  0
 31 29  1  0  0  0  0
 32 29  1  0  0  0  0
 33 34  1  0  0  0  0
 33 35  1  0  0  0  0
 36 33  1  0  0  0  0
M  END
$$$$
