CSD_code = SOKSAN | q = 0 | S = 0 | Stoichiometry = C10H10F3N2O3V | MND = 6
 OpenBabel04212202093D

 29 29  0  0  0  0  0  0  0  0999 V2000
    5.6133    0.3201    3.0026 V   0  0  0  0  0  0  0  0  0  0  0  0
    4.1024   -0.2789    3.4370 F   0  0  0  0  0  0  0  0  0  0  0  0
    6.5276    1.6542    2.5447 F   0  0  0  0  0  0  0  0  0  0  0  0
    5.3514   -0.1059    1.3762 F   0  0  0  0  0  0  0  0  0  0  0  0
    5.5863    1.1793    4.8067 O   0  0  0  0  0  0  0  0  0  0  0  0
    3.8866    2.2605    2.5296 O   0  5  0  0  0  0  0  0  0  0  0  0
    6.6183   -0.7230    3.4695 O   0  0  0  0  0  1  0  0  0  0  0  0
    4.7862    2.1695    4.9838 N   0  0  0  0  0  0  0  0  0  0  0  0
    3.6691    1.9824    1.3031 N   0  3  0  0  0  0  0  0  0  0  0  0
    5.2072    3.4203    4.7416 C   0  0  0  0  0  3  0  0  0  0  0  0
    6.2173    3.5056    4.3636 H   0  0  0  0  0  0  0  0  0  0  0  0
    4.3738    4.4982    4.9385 C   0  0  0  0  0  0  0  0  0  0  0  0
    4.7349    5.4916    4.7246 H   0  0  0  0  0  0  0  0  0  0  0  0
    3.0819    4.2927    5.3988 C   0  0  0  0  0  0  0  0  0  0  0  0
    2.4112    5.1229    5.5512 H   0  0  0  0  0  0  0  0  0  0  0  0
    2.6707    2.9923    5.6497 C   0  0  0  0  0  0  0  0  0  0  0  0
    1.6736    2.7839    6.0041 H   0  0  0  0  0  0  0  0  0  0  0  0
    3.5429    1.9485    5.4373 C   0  0  0  0  0  0  0  0  0  0  0  0
    3.2824    0.9097    5.5920 H   0  0  0  0  0  0  0  0  0  0  0  0
    4.4360    2.5258    0.3396 C   0  0  0  0  0  0  0  0  0  0  0  0
    5.2339    3.1669    0.6866 H   0  0  0  0  0  0  0  0  0  0  0  0
    4.2365    2.2220   -0.9870 C   0  0  0  0  0  0  0  0  0  0  0  0
    4.8853    2.6592   -1.7292 H   0  0  0  0  0  0  0  0  0  0  0  0
    3.2195    1.3524   -1.3506 C   0  0  0  0  0  0  0  0  0  0  0  0
    3.0562    1.0921   -2.3835 H   0  0  0  0  0  0  0  0  0  0  0  0
    2.4305    0.8123   -0.3464 C   0  0  0  0  0  0  0  0  0  0  0  0
    1.6344    0.1222   -0.5763 H   0  0  0  0  0  0  0  0  0  0  0  0
    2.6697    1.1461    0.9664 C   0  0  0  0  0  0  0  0  0  0  0  0
    2.1135    0.7299    1.7944 H   0  0  0  0  0  0  0  0  0  0  0  0
  1  2  1  0  0  0  0
  1  7  1  0  0  0  0
  1  5  1  0  0  0  0
  3  1  1  0  0  0  0
  4  1  1  0  0  0  0
  5  8  1  0  0  0  0
  8 18  1  0  0  0  0
  9  6  1  0  0  0  0
 10 12  1  0  0  0  0
 10  8  1  0  0  0  0
 11 10  1  0  0  0  0
 12 14  2  0  0  0  0
 13 12  1  0  0  0  0
 14 15  1  0  0  0  0
 14 16  1  0  0  0  0
 16 17  1  0  0  0  0
 18 19  1  0  0  0  0
 18 16  2  0  0  0  0
 20 21  1  0  0  0  0
 20  9  2  0  0  0  0
 22 20  1  0  0  0  0
 23 22  1  0  0  0  0
 24 22  2  0  0  0  0
 24 26  1  0  0  0  0
 25 24  1  0  0  0  0
 26 28  2  0  0  0  0
 27 26  1  0  0  0  0
 28  9  1  0  0  0  0
 28 29  1  0  0  0  0
M  CHG  2   6  -1   9   1
M  END
$$$$
