CSD_code = SOMDON | q = 0 | S = 0 | Stoichiometry = C26H26Cl2SiZr | MND = 12
 OpenBabel04212202093D

 56 61  0  0  1  0  0  0  0  0999 V2000
    4.0304    7.1488    3.4379 Zr  0  0  0  0  0  0  0  0  0  0  0  0
    6.0858    4.5186    2.9763 Si  0  0  0  0  0  0  0  0  0  0  0  0
    1.7842    7.7816    3.5097 Cl  0  0  0  0  0  0  0  0  0  0  0  0
    4.8152    9.3136    3.8334 Cl  0  0  0  0  0  0  0  0  0  0  0  0
    5.1259    5.1874    4.4683 C   0  0  1  0  0  3  0  0  0  0  0  0
    5.5634    6.3447    5.1744 C   0  0  2  0  0  0  0  0  0  0  0  0
    4.4663    6.8992    5.8798 C   0  0  0  0  0  0  0  0  0  0  0  0
    3.3283    6.1003    5.5804 C   0  0  0  0  0  0  0  0  0  0  0  0
    3.7233    5.0677    4.7031 C   0  0  1  0  0  0  0  0  0  0  0  0
    2.7900    3.9922    4.2185 C   0  0  0  0  0  0  0  0  0  0  0  0
    4.4709    8.0945    6.7256 C   0  0  0  0  0  0  0  0  0  0  0  0
    5.5696    8.4232    7.5178 C   0  0  0  0  0  0  0  0  0  0  0  0
    5.5567    9.5683    8.2923 C   0  0  0  0  0  0  0  0  0  0  0  0
    4.4510   10.4013    8.2865 C   0  0  0  0  0  0  0  0  0  0  0  0
    3.3547   10.0855    7.4992 C   0  0  0  0  0  0  0  0  0  0  0  0
    3.3598    8.9426    6.7232 C   0  0  0  0  0  0  0  0  0  0  0  0
    5.2959    5.7937    1.8196 C   0  0  1  0  0  3  0  0  0  0  0  0
    3.9185    5.7105    1.4634 C   0  0  2  0  0  0  0  0  0  0  0  0
    3.4888    6.9732    0.9722 C   0  0  1  0  0  3  0  0  0  0  0  0
    4.5976    7.8585    1.0874 C   0  0  0  0  0  0  0  0  0  0  0  0
    5.6923    7.1474    1.6197 C   0  0  0  0  0  0  0  0  0  0  0  0
    7.0549    7.7258    1.8784 C   0  0  0  0  0  0  0  0  0  0  0  0
    2.1750    7.2791    0.4080 C   0  0  0  0  0  0  0  0  0  0  0  0
    1.9816    8.3924   -0.4125 C   0  0  0  0  0  0  0  0  0  0  0  0
    0.7358    8.6747   -0.9392 C   0  0  0  0  0  0  0  0  0  0  0  0
   -0.3436    7.8531   -0.6622 C   0  0  0  0  0  0  0  0  0  0  0  0
   -0.1669    6.7442    0.1492 C   0  0  0  0  0  0  0  0  0  0  0  0
    1.0756    6.4585    0.6789 C   0  0  0  0  0  0  0  0  0  0  0  0
    5.7081    2.7233    2.4480 C   0  0  0  0  0  0  0  0  0  0  0  0
    7.9668    4.6619    3.2470 C   0  0  0  0  0  0  0  0  0  0  0  0
    6.5892    6.6875    5.2500 H   0  0  0  0  0  0  0  0  0  0  0  0
    2.3515    6.1919    6.0413 H   0  0  0  0  0  0  0  0  0  0  0  0
    2.4370    3.3934    5.0604 H   0  0  0  0  0  0  0  0  0  0  0  0
    1.9111    4.4385    3.7423 H   0  0  0  0  0  0  0  0  0  0  0  0
    3.2837    3.3245    3.5174 H   0  0  0  0  0  0  0  0  0  0  0  0
    6.4309    7.7706    7.5311 H   0  0  0  0  0  0  0  0  0  0  0  0
    6.4145    9.8134    8.9018 H   0  0  0  0  0  0  0  0  0  0  0  0
    4.4453   11.2981    8.8881 H   0  0  0  0  0  0  0  0  0  0  0  0
    2.4959   10.7405    7.4827 H   0  0  0  0  0  0  0  0  0  0  0  0
    2.5124    8.7156    6.0843 H   0  0  0  0  0  0  0  0  0  0  0  0
    3.3609    4.7863    1.3746 H   0  0  0  0  0  0  0  0  0  0  0  0
    4.6269    8.8934    0.7672 H   0  0  0  0  0  0  0  0  0  0  0  0
    7.1689    8.6648    1.3387 H   0  0  0  0  0  0  0  0  0  0  0  0
    7.1993    7.9381    2.9432 H   0  0  0  0  0  0  0  0  0  0  0  0
    7.8333    7.0390    1.5490 H   0  0  0  0  0  0  0  0  0  0  0  0
    2.8153    9.0382   -0.6444 H   0  0  0  0  0  0  0  0  0  0  0  0
    0.6060    9.5428   -1.5690 H   0  0  0  0  0  0  0  0  0  0  0  0
   -1.3172    8.0773   -1.0716 H   0  0  0  0  0  0  0  0  0  0  0  0
   -1.0064    6.1035    0.3770 H   0  0  0  0  0  0  0  0  0  0  0  0
    1.1905    5.6037    1.3329 H   0  0  0  0  0  0  0  0  0  0  0  0
    5.6201    2.0707    3.3102 H   0  0  0  0  0  0  0  0  0  0  0  0
    4.7986    2.6352    1.8638 H   0  0  0  0  0  0  0  0  0  0  0  0
    6.5197    2.3449    1.8361 H   0  0  0  0  0  0  0  0  0  0  0  0
    8.2979    3.8907    3.9345 H   0  0  0  0  0  0  0  0  0  0  0  0
    8.5019    4.5163    2.3147 H   0  0  0  0  0  0  0  0  0  0  0  0
    8.2659    5.6194    3.6574 H   0  0  0  0  0  0  0  0  0  0  0  0
  1  3  1  0  0  0  0
  1  4  1  0  0  0  0
  1  9  1  0  0  0  0
  1  6  1  0  0  0  0
  2 30  1  0  0  0  0
  5  2  1  6  0  0  0
  5  9  1  0  0  0  0
  5  6  1  0  0  0  0
  6 31  1  1  0  0  0
  6  7  1  0  0  0  0
  7 11  1  0  0  0  0
  8  7  2  0  0  0  0
  8 32  1  0  0  0  0
  9 10  1  6  0  0  0
  9  8  1  0  0  0  0
 10 33  1  0  0  0  0
 11 12  1  0  0  0  0
 12 36  1  0  0  0  0
 12 13  2  0  0  0  0
 13 37  1  0  0  0  0
 14 13  1  0  0  0  0
 14 38  1  0  0  0  0
 15 14  2  0  0  0  0
 16 11  2  0  0  0  0
 16 15  1  0  0  0  0
 17 21  1  1  0  0  0
 17  2  1  0  0  0  0
 18 41  1  6  0  0  0
 18 17  1  0  0  0  0
 18  1  1  0  0  0  0
 19 23  1  6  0  0  0
 19 20  1  0  0  0  0
 19 18  1  0  0  0  0
 20 21  2  0  0  0  0
 21 22  1  0  0  0  0
 22 44  1  0  0  0  0
 23 28  1  0  0  0  0
 24 23  2  0  0  0  0
 25 26  2  0  0  0  0
 25 24  1  0  0  0  0
 26 27  1  0  0  0  0
 27 49  1  0  0  0  0
 27 28  2  0  0  0  0
 28 50  1  0  0  0  0
 29  2  1  0  0  0  0
 29 51  1  0  0  0  0
 30 56  1  0  0  0  0
 30 54  1  0  0  0  0
 34 10  1  0  0  0  0
 35 10  1  0  0  0  0
 39 15  1  0  0  0  0
 40 16  1  0  0  0  0
 42 20  1  0  0  0  0
 43 22  1  0  0  0  0
 45 22  1  0  0  0  0
 46 24  1  0  0  0  0
 47 25  1  0  0  0  0
 48 26  1  0  0  0  0
 52 29  1  0  0  0  0
 53 29  1  0  0  0  0
 55 30  1  0  0  0  0
M  END
$$$$
