CSD_code = SOMKEM | q = 0 | S = 0 | Stoichiometry = C22H25ClN3Rh | MND = 8
 OpenBabel04212202093D

 52 56  0  0  1  0  0  0  0  0999 V2000
    2.7801    2.3410    3.2332 Rh  0  0  1  0  0  0  0  0  0  0  0  0
    1.0657    3.7029    3.9392 Cl  0  0  0  0  0 15  0  0  0  0  0  0
    3.0688    3.3052    0.4466 C   0  0  0  0  0  0  0  0  0  0  0  0
    4.2735    3.9578    0.7367 N   0  0  0  0  0  0  0  0  0  0  0  0
    3.9759    3.9969    3.0474 N   0  0  0  0  0  0  0  0  0  0  0  0
    2.2163    2.6727    1.3387 C   0  0  0  0  0  0  0  0  0  0  0  0
    4.6716    4.3724    1.9419 C   0  0  2  0  0  3  0  0  0  0  0  0
    4.3201    4.5662    4.1997 C   0  0  0  0  0  0  0  0  0  0  0  0
    3.7064    4.3185    5.0598 H   0  0  0  0  0  0  0  0  0  0  0  0
    5.3918    5.4370    4.3032 C   0  0  0  0  0  0  0  0  0  0  0  0
    5.6551    5.8924    5.2418 H   0  0  0  0  0  0  0  0  0  0  0  0
    6.1135    5.6670    3.1390 C   0  0  0  0  0  0  0  0  0  0  0  0
    7.0019    6.2844    3.1240 H   0  0  0  0  0  0  0  0  0  0  0  0
    5.7575    5.1567    1.9796 N   0  0  0  0  0  0  0  0  0  0  0  0
    4.9269    4.4027   -0.4867 C   0  0  0  0  0  0  0  0  0  0  0  0
    5.8660    3.8552   -0.6098 H   0  0  0  0  0  0  0  0  0  0  0  0
    5.1677    5.4642   -0.4014 H   0  0  0  0  0  0  0  0  0  0  0  0
    3.9298    4.1018   -1.6180 C   0  0  0  0  0  0  0  0  0  0  0  0
    3.5649    5.0174   -2.0869 H   0  0  0  0  0  0  0  0  0  0  0  0
    4.3773    3.4840   -2.3976 H   0  0  0  0  0  0  0  0  0  0  0  0
    2.8114    3.3795   -0.9209 C   0  0  0  0  0  0  0  0  0  0  0  0
    1.6499    2.8454   -1.4341 C   0  0  0  0  0  0  0  0  0  0  0  0
    1.4356    2.9004   -2.4908 H   0  0  0  0  0  0  0  0  0  0  0  0
    0.7563    2.2486   -0.5547 C   0  0  0  0  0  0  0  0  0  0  0  0
   -0.1709    1.8423   -0.9317 H   0  0  0  0  0  0  0  0  0  0  0  0
    1.0371    2.1619    0.8005 C   0  0  0  0  0  0  0  0  0  0  0  0
    0.3110    1.7020    1.4579 H   0  0  0  0  0  0  0  0  0  0  0  0
    4.2794    0.7354    3.3188 C   0  0  2  0  0  0  0  0  0  0  0  0
    3.0455    0.1616    2.8927 C   0  0  2  0  0  3  0  0  0  0  0  0
    2.0889    0.4054    3.9242 C   0  0  1  0  0  0  0  0  0  0  0  0
    2.8015    0.9431    5.0776 C   0  0  0  0  0  0  0  0  0  0  0  0
    4.1334    1.1397    4.7087 C   0  0  0  0  0  0  0  0  0  0  0  0
    5.2732    1.5597    5.5854 C   0  0  0  0  0  0  0  0  0  0  0  0
    4.9199    2.0716    6.4776 H   0  0  0  0  0  0  0  0  0  0  0  0
    5.9586    2.2229    5.0586 H   0  0  0  0  0  0  0  0  0  0  0  0
    5.8369    0.6779    5.8977 H   0  0  0  0  0  0  0  0  0  0  0  0
    2.1703    1.1328    6.4198 C   0  0  0  0  0  0  0  0  0  0  0  0
    1.8328    0.1702    6.8066 H   0  0  0  0  0  0  0  0  0  0  0  0
    1.3041    1.7891    6.3435 H   0  0  0  0  0  0  0  0  0  0  0  0
    2.8708    1.5651    7.1300 H   0  0  0  0  0  0  0  0  0  0  0  0
    0.6985   -0.1466    4.0069 C   0  0  0  0  0  0  0  0  0  0  0  0
    0.3248   -0.4203    3.0234 H   0  0  0  0  0  0  0  0  0  0  0  0
    0.0217    0.5836    4.4463 H   0  0  0  0  0  0  0  0  0  0  0  0
    0.6951   -1.0384    4.6371 H   0  0  0  0  0  0  0  0  0  0  0  0
    2.8282   -0.6232    1.6367 C   0  0  0  0  0  0  0  0  0  0  0  0
    1.7916   -0.5742    1.3137 H   0  0  0  0  0  0  0  0  0  0  0  0
    3.0838   -1.6689    1.8189 H   0  0  0  0  0  0  0  0  0  0  0  0
    3.4521   -0.2544    0.8256 H   0  0  0  0  0  0  0  0  0  0  0  0
    5.5934    0.6130    2.6095 C   0  0  0  0  0  0  0  0  0  0  0  0
    6.0923   -0.3105    2.9113 H   0  0  0  0  0  0  0  0  0  0  0  0
    6.2530    1.4453    2.8513 H   0  0  0  0  0  0  0  0  0  0  0  0
    5.4535    0.5879    1.5308 H   0  0  0  0  0  0  0  0  0  0  0  0
  1  6  1  6  0  0  0
  1 28  1  0  0  0  0
  1 30  1  0  0  0  0
  3  4  1  0  0  0  0
  3  6  1  0  0  0  0
  4  7  1  0  0  0  0
  5  1  1  0  0  0  0
  5  8  1  0  0  0  0
  7 14  1  6  0  0  0
  7  5  1  0  0  0  0
  8 10  2  0  0  0  0
  8  9  1  0  0  0  0
 10 11  1  0  0  0  0
 12 10  1  0  0  0  0
 13 12  1  0  0  0  0
 14 12  2  0  0  0  0
 15 17  1  0  0  0  0
 15  4  1  0  0  0  0
 16 15  1  0  0  0  0
 18 21  1  0  0  0  0
 18 15  1  0  0  0  0
 19 18  1  0  0  0  0
 20 18  1  0  0  0  0
 21  3  2  0  0  0  0
 22 21  1  0  0  0  0
 22 24  2  0  0  0  0
 23 22  1  0  0  0  0
 24 26  1  0  0  0  0
 25 24  1  0  0  0  0
 26  6  2  0  0  0  0
 26 27  1  0  0  0  0
 28 49  1  6  0  0  0
 28 32  1  0  0  0  0
 29 45  1  1  0  0  0
 29 28  1  0  0  0  0
 29 30  1  0  0  0  0
 30 41  1  6  0  0  0
 30 31  1  0  0  0  0
 31 37  1  0  0  0  0
 32 31  2  0  0  0  0
 32 33  1  0  0  0  0
 33 36  1  0  0  0  0
 33 34  1  0  0  0  0
 35 33  1  0  0  0  0
 37 38  1  0  0  0  0
 37 40  1  0  0  0  0
 39 37  1  0  0  0  0
 41 43  1  0  0  0  0
 41 44  1  0  0  0  0
 42 41  1  0  0  0  0
 45 47  1  0  0  0  0
 46 45  1  0  0  0  0
 48 45  1  0  0  0  0
 49 51  1  0  0  0  0
 49 50  1  0  0  0  0
 52 49  1  0  0  0  0
M  END
$$$$
