CSD_code = SOMWOH | q = 0 | S = 0 | Stoichiometry = C13H23ClPd | MND = 6
 OpenBabel04212202093D

 38 37  0  0  1  0  0  0  0  0999 V2000
    0.2688    4.4624    6.2628 Pd  0  0  0  0  0  0  0  0  0  0  0  0
   -1.0042    2.9068    5.2526 Cl  0  0  0  0  0 15  0  0  0  0  0  0
    0.4502    6.4352    7.0461 C   0  0  1  0  0  0  0  0  0  0  0  0
   -0.0709    6.4532    8.0060 H   0  0  0  0  0  0  0  0  0  0  0  0
    1.7126    5.8856    7.0189 C   0  0  0  0  0  3  0  0  0  0  0  0
    2.0920    5.4974    7.9626 H   0  0  0  0  0  0  0  0  0  0  0  0
    2.7873    6.2080    6.0023 C   0  0  0  0  0  0  0  0  0  0  0  0
    3.7628    6.0812    6.4781 H   0  0  0  0  0  0  0  0  0  0  0  0
    2.7110    7.2595    5.7219 H   0  0  0  0  0  0  0  0  0  0  0  0
    2.7610    5.3088    4.7470 C   0  0  0  0  0  0  0  0  0  0  0  0
    3.3198    5.7996    3.9424 H   0  0  0  0  0  0  0  0  0  0  0  0
    3.2862    4.3762    4.9793 H   0  0  0  0  0  0  0  0  0  0  0  0
    1.3856    4.9472    4.2376 C   0  0  0  0  0  0  0  0  0  0  0  0
    1.3272    3.9727    3.7482 H   0  0  0  0  0  0  0  0  0  0  0  0
    0.3089    5.7565    4.1683 C   0  0  0  0  0  0  0  0  0  0  0  0
   -0.5893    5.3852    3.6755 H   0  0  0  0  0  0  0  0  0  0  0  0
    0.2778    7.2045    4.5793 C   0  0  0  0  0  0  0  0  0  0  0  0
   -0.4351    7.7356    3.9437 H   0  0  0  0  0  0  0  0  0  0  0  0
    1.2545    7.6607    4.4198 H   0  0  0  0  0  0  0  0  0  0  0  0
   -0.1763    7.3759    6.0424 C   0  0  0  0  0  0  0  0  0  0  0  0
   -1.2629    7.2184    6.0854 H   0  0  0  0  0  0  0  0  0  0  0  0
    0.0103    8.4075    6.3634 H   0  0  0  0  0  0  0  0  0  0  0  0
   -0.1363    3.5568    8.0837 C   0  0  0  0  0  0  0  0  0  0  0  0
    0.0946    4.2900    8.8691 H   0  0  0  0  0  0  0  0  0  0  0  0
   -1.2075    3.3250    8.1211 H   0  0  0  0  0  0  0  0  0  0  0  0
    0.7050    2.2867    8.2909 C   0  0  0  0  0  0  0  0  0  0  0  0
    1.9600    2.3038    7.3951 C   0  0  0  0  0  0  0  0  0  0  0  0
    2.5423    1.3973    7.5553 H   0  0  0  0  0  0  0  0  0  0  0  0
    2.5957    3.1602    7.6343 H   0  0  0  0  0  0  0  0  0  0  0  0
    1.6644    2.3352    6.3352 H   0  0  0  0  0  0  0  0  0  0  0  0
    1.1535    2.2169    9.7586 C   0  0  0  0  0  0  0  0  0  0  0  0
    0.2904    2.2228   10.4205 H   0  0  0  0  0  0  0  0  0  0  0  0
    1.7890    3.0634   10.0130 H   0  0  0  0  0  0  0  0  0  0  0  0
    1.7140    1.3018    9.9373 H   0  0  0  0  0  0  0  0  0  0  0  0
   -0.1147    1.0349    7.9640 C   0  0  0  0  0  0  0  0  0  0  0  0
   -0.9634    0.9489    8.6390 H   0  0  0  0  0  0  0  0  0  0  0  0
    0.4969    0.1407    8.0658 H   0  0  0  0  0  0  0  0  0  0  0  0
   -0.4884    1.0887    6.9453 H   0  0  0  0  0  0  0  0  0  0  0  0
  1  3  1  0  0  0  0
  1 23  1  0  0  0  0
  3  4  1  1  0  0  0
  5  3  1  0  0  0  0
  5  6  1  0  0  0  0
  7  8  1  0  0  0  0
  7  5  1  0  0  0  0
  9  7  1  0  0  0  0
 10 12  1  0  0  0  0
 10  7  1  0  0  0  0
 11 10  1  0  0  0  0
 13 10  1  0  0  0  0
 14 13  1  0  0  0  0
 15 13  2  0  0  0  0
 15 17  1  0  0  0  0
 16 15  1  0  0  0  0
 17 20  1  0  0  0  0
 18 17  1  0  0  0  0
 19 17  1  0  0  0  0
 20 21  1  0  0  0  0
 20 22  1  0  0  0  0
 20  3  1  0  0  0  0
 23 25  1  0  0  0  0
 23 26  1  0  0  0  0
 23 24  1  0  0  0  0
 26 31  1  0  0  0  0
 27 28  1  0  0  0  0
 27 29  1  0  0  0  0
 27 26  1  0  0  0  0
 30 27  1  0  0  0  0
 31 34  1  0  0  0  0
 31 33  1  0  0  0  0
 31 32  1  0  0  0  0
 35 37  1  0  0  0  0
 35 26  1  0  0  0  0
 35 36  1  0  0  0  0
 38 35  1  0  0  0  0
M  END
$$$$
