CSD_code = SOMWOJ | q = 0 | S = 0 | Stoichiometry = C20H24Cl2N2O4Pt | MND = 4
 OpenBabel04212202093D

 53 55  0  0  1  0  0  0  0  0999 V2000
    1.7018    0.1145   20.8042 Pt  0  0  0  0  0  0  0  0  0  0  0  0
    3.6419    0.8928   21.5841 Cl  0  0  0  0  0  0  0  0  0  0  0  0
    0.7210    0.9066   22.6448 Cl  0  0  0  0  0  0  0  0  0  0  0  0
    0.0283   -0.6213   20.0154 N   0  0  0  0  0  0  0  0  0  0  0  0
    2.4719   -0.6266   19.1244 N   0  0  0  0  0  0  0  0  0  0  0  0
    2.7671   -2.8507   14.7215 O   0  0  0  0  0  0  0  0  0  0  0  0
   -3.0237   -2.8968   16.8722 O   0  0  0  0  0  0  0  0  0  0  0  0
    3.7536   -0.5780   18.7531 C   0  0  0  0  0  0  0  0  0  0  0  0
    4.4247   -0.0902   19.4494 H   0  0  0  0  0  0  0  0  0  0  0  0
    0.1963   -1.2237   18.8131 C   0  0  0  0  0  0  0  0  0  0  0  0
    4.9115   -2.2647   15.0663 O   0  0  0  0  0  0  0  0  0  0  0  0
    1.9492   -1.7787   17.0946 C   0  0  0  0  0  0  0  0  0  0  0  0
    1.2287   -2.2497   16.4477 H   0  0  0  0  0  0  0  0  0  0  0  0
    4.1998   -1.1107   17.5629 C   0  0  0  0  0  0  0  0  0  0  0  0
    5.2390   -1.0609   17.2810 H   0  0  0  0  0  0  0  0  0  0  0  0
   -2.1441   -1.7453   18.7054 C   0  0  0  0  0  0  0  0  0  0  0  0
    3.7588   -2.2994   15.4169 C   0  0  0  0  0  0  0  0  0  0  0  0
   -0.8783   -1.7938   18.1383 C   0  0  0  0  0  0  0  0  0  0  0  0
   -0.7428   -2.2743   17.1843 H   0  0  0  0  0  0  0  0  0  0  0  0
    3.2812   -1.7256   16.7085 C   0  0  0  0  0  0  0  0  0  0  0  0
    3.1116   -2.3597   12.3787 C   0  0  0  0  0  0  0  0  0  0  0  0
    2.1289   -1.9004   12.2971 H   0  0  0  0  0  0  0  0  0  0  0  0
    3.3879   -2.7876   11.4205 H   0  0  0  0  0  0  0  0  0  0  0  0
    3.8400   -1.5947   12.6370 H   0  0  0  0  0  0  0  0  0  0  0  0
   -4.4425   -2.3141   18.5228 O   0  0  0  0  0  0  0  0  0  0  0  0
    3.0994   -3.4430   13.4498 C   0  0  2  0  0  0  0  0  0  0  0  0
    4.1022   -3.8805   13.5379 H   0  0  0  0  0  0  0  0  0  0  0  0
   -1.1903   -0.5727   20.5589 C   0  0  0  0  0  0  0  0  0  0  0  0
   -1.2553   -0.0762   21.5193 H   0  0  0  0  0  0  0  0  0  0  0  0
   -2.2969   -1.1172   19.9439 C   0  0  0  0  0  0  0  0  0  0  0  0
   -3.2727   -1.0685   20.3995 H   0  0  0  0  0  0  0  0  0  0  0  0
    1.5663   -1.2219   18.3106 C   0  0  0  0  0  0  0  0  0  0  0  0
    2.0634   -4.5381   13.1987 C   0  0  0  0  0  0  0  0  0  0  0  0
    1.0916   -4.0719   13.0255 H   0  0  0  0  0  0  0  0  0  0  0  0
    1.9875   -5.1440   14.1042 H   0  0  0  0  0  0  0  0  0  0  0  0
   -4.0742   -3.5056   16.1000 C   0  0  2  0  0  0  0  0  0  0  0  0
   -4.9843   -3.5025   16.7122 H   0  0  0  0  0  0  0  0  0  0  0  0
   -4.7988   -1.2712   15.1431 C   0  0  0  0  0  0  0  0  0  0  0  0
   -4.0586   -0.7140   15.7140 H   0  0  0  0  0  0  0  0  0  0  0  0
   -5.7170   -1.3126   15.7244 H   0  0  0  0  0  0  0  0  0  0  0  0
   -4.9963   -0.7300   14.2214 H   0  0  0  0  0  0  0  0  0  0  0  0
   -3.3392   -2.3416   18.0388 C   0  0  0  0  0  0  0  0  0  0  0  0
   -3.6517   -4.9354   15.7859 C   0  0  0  0  0  0  0  0  0  0  0  0
   -2.7406   -4.9348   15.1925 H   0  0  0  0  0  0  0  0  0  0  0  0
   -4.4373   -5.4370   15.2289 H   0  0  0  0  0  0  0  0  0  0  0  0
   -3.4690   -5.4846   16.7063 H   0  0  0  0  0  0  0  0  0  0  0  0
    2.4308   -5.4325   12.0219 C   0  0  0  0  0  0  0  0  0  0  0  0
    2.4301   -4.8744   11.0898 H   0  0  0  0  0  0  0  0  0  0  0  0
    1.7110   -6.2420   11.9329 H   0  0  0  0  0  0  0  0  0  0  0  0
    3.4180   -5.8654   12.1648 H   0  0  0  0  0  0  0  0  0  0  0  0
   -4.2980   -2.6770   14.8332 C   0  0  0  0  0  0  0  0  0  0  0  0
   -3.3584   -2.6224   14.2794 H   0  0  0  0  0  0  0  0  0  0  0  0
   -5.0288   -3.2000   14.2150 H   0  0  0  0  0  0  0  0  0  0  0  0
  1  2  1  0  0  0  0
  1  3  1  0  0  0  0
  4 28  1  0  0  0  0
  4  1  1  0  0  0  0
  5  1  1  0  0  0  0
  6 17  1  0  0  0  0
  7 42  1  0  0  0  0
  8  5  1  0  0  0  0
  8  9  1  0  0  0  0
 10  4  1  0  0  0  0
 11 17  2  0  0  0  0
 12 32  1  0  0  0  0
 13 12  1  0  0  0  0
 14  8  2  0  0  0  0
 15 14  1  0  0  0  0
 16 30  1  0  0  0  0
 17 20  1  0  0  0  0
 18 16  2  0  0  0  0
 18 10  1  0  0  0  0
 19 18  1  0  0  0  0
 20 12  2  0  0  0  0
 20 14  1  0  0  0  0
 21 24  1  0  0  0  0
 21 26  1  0  0  0  0
 22 21  1  0  0  0  0
 23 21  1  0  0  0  0
 26 27  1  1  0  0  0
 26  6  1  0  0  0  0
 28 29  1  0  0  0  0
 30 31  1  0  0  0  0
 30 28  2  0  0  0  0
 32 10  2  0  0  0  0
 32  5  1  0  0  0  0
 33 26  1  0  0  0  0
 33 35  1  0  0  0  0
 34 33  1  0  0  0  0
 36 37  1  1  0  0  0
 36  7  1  0  0  0  0
 38 39  1  0  0  0  0
 38 40  1  0  0  0  0
 41 38  1  0  0  0  0
 42 25  2  0  0  0  0
 42 16  1  0  0  0  0
 43 36  1  0  0  0  0
 43 46  1  0  0  0  0
 44 43  1  0  0  0  0
 45 43  1  0  0  0  0
 47 50  1  0  0  0  0
 47 33  1  0  0  0  0
 48 47  1  0  0  0  0
 49 47  1  0  0  0  0
 51 38  1  0  0  0  0
 51 36  1  0  0  0  0
 52 51  1  0  0  0  0
 53 51  1  0  0  0  0
M  END
$$$$
