CSD_code = SONHAF | q = 0 | S = 0 | Stoichiometry = C3H6BrN2O3Re | MND = 6
 OpenBabel04212202103D

 16 15  0  0  0  0  0  0  0  0999 V2000
    3.9711    7.3875    0.1744 Re  0  0  0  0  0  0  0  0  0  0  0  0
    6.4756    7.3878   -0.1172 Br  0  0  0  0  0  0  0  0  0  0  0  0
    4.1205    5.1628    2.3132 O   0  0  0  0  0  1  0  0  0  0  0  0
    4.0275    5.9977    1.5347 C   0  0  0  0  0  2  0  0  0  0  0  0
    4.0806    5.8146   -1.5673 N   0  0  0  0  0  4  0  0  0  0  0  0
    3.8543    4.8767   -1.2399 H   0  0  0  0  0  0  0  0  0  0  0  0
    5.0630    5.8021   -1.8549 H   0  0  0  0  0  0  0  0  0  0  0  0
    3.5086    5.9935   -2.3905 H   0  0  0  0  0  0  0  0  0  0  0  0
    2.0362    7.3875    0.0928 C   0  0  0  0  0  2  0  0  0  0  0  0
    0.8900    7.3874    0.0335 O   0  0  0  0  0  1  0  0  0  0  0  0
    4.1211    9.6123    2.3131 O   0  0  0  0  0  1  0  0  0  0  0  0
    4.0276    8.7775    1.5344 C   0  0  0  0  0  2  0  0  0  0  0  0
    4.0806    8.9606   -1.5673 N   0  0  0  0  0  4  0  0  0  0  0  0
    3.8546    9.8985   -1.2397 H   0  0  0  0  0  0  0  0  0  0  0  0
    5.0629    8.9729   -1.8551 H   0  0  0  0  0  0  0  0  0  0  0  0
    3.5084    8.7818   -2.3903 H   0  0  0  0  0  0  0  0  0  0  0  0
  1 12  1  0  0  0  0
  1  4  1  0  0  0  0
  2  1  1  0  0  0  0
  4  3  1  0  0  0  0
  5  6  1  0  0  0  0
  5  1  1  0  0  0  0
  7  5  1  0  0  0  0
  8  5  1  0  0  0  0
  9  1  1  0  0  0  0
 10  9  1  0  0  0  0
 12 11  1  0  0  0  0
 13 14  1  0  0  0  0
 13  1  1  0  0  0  0
 15 13  1  0  0  0  0
 16 13  1  0  0  0  0
M  END
$$$$
