CSD_code = SONJEK | q = 0 | S = 0 | Stoichiometry = C34H29ClO2P2Pt | MND = 4
 OpenBabel04212202103D

 69 74  0  0  0  0  0  0  0  0999 V2000
    8.0841    6.8032    2.8270 Pt  0  0  0  0  0  0  0  0  0  0  0  0
   10.2851    6.7820    2.1312 Cl  0  0  0  0  0  0  0  0  0  0  0  0
    7.2143    7.7789    0.8519 P   0  0  0  0  0  4  0  0  0  0  0  0
    5.8913    6.4950    3.4342 P   0  0  0  0  0  4  0  0  0  0  0  0
    5.3672    7.7083    0.9745 C   0  0  0  0  0  0  0  0  0  0  0  0
    4.9611    7.7848    2.4416 C   0  0  0  0  0  0  0  0  0  0  0  0
    8.5549    6.3067    4.7015 C   0  0  0  0  0  0  0  0  0  0  0  0
    8.9626    7.0195    5.5724 O   0  0  0  0  0  0  0  0  0  0  0  0
    8.1283    4.8981    4.6648 C   0  0  0  0  0  0  0  0  0  0  0  0
    6.9141    4.6253    4.6193 O   0  0  0  0  0  0  0  0  0  0  0  0
    7.5017    9.5531    1.1377 C   0  0  0  0  0  0  0  0  0  0  0  0
    8.0315    9.9507    2.3614 C   0  0  0  0  0  0  0  0  0  0  0  0
    8.2354   11.2925    2.6271 C   0  0  0  0  0  0  0  0  0  0  0  0
    7.9145   12.2419    1.6707 C   0  0  0  0  0  0  0  0  0  0  0  0
    7.3924   11.8498    0.4477 C   0  0  0  0  0  0  0  0  0  0  0  0
    7.1844   10.5098    0.1785 C   0  0  0  0  0  0  0  0  0  0  0  0
    7.5900    7.6163   -0.9143 C   0  0  0  0  0  0  0  0  0  0  0  0
    6.6716    7.2613   -1.8954 C   0  0  0  0  0  0  0  0  0  0  0  0
    7.0863    7.1385   -3.2104 C   0  0  0  0  0  0  0  0  0  0  0  0
    8.4110    7.3561   -3.5502 C   0  0  0  0  0  0  0  0  0  0  0  0
    9.3338    7.6892   -2.5700 C   0  0  0  0  0  0  0  0  0  0  0  0
    8.9280    7.8129   -1.2562 C   0  0  0  0  0  0  0  0  0  0  0  0
    5.2499    5.0292    2.5821 C   0  0  0  0  0  0  0  0  0  0  0  0
    6.1483    4.3011    1.8087 C   0  0  0  0  0  0  0  0  0  0  0  0
    5.7134    3.2111    1.0782 C   0  0  0  0  0  0  0  0  0  0  0  0
    4.3772    2.8455    1.1151 C   0  0  0  0  0  0  0  0  0  0  0  0
    3.4770    3.5764    1.8740 C   0  0  0  0  0  0  0  0  0  0  0  0
    3.9074    4.6708    2.6033 C   0  0  0  0  0  0  0  0  0  0  0  0
    5.0943    6.7312    5.0431 C   0  0  0  0  0  0  0  0  0  0  0  0
    4.4187    5.7156    5.7073 C   0  0  0  0  0  0  0  0  0  0  0  0
    3.8609    5.9624    6.9486 C   0  0  0  0  0  0  0  0  0  0  0  0
    3.9907    7.2095    7.5381 C   0  0  0  0  0  0  0  0  0  0  0  0
    4.6934    8.2132    6.8912 C   0  0  0  0  0  0  0  0  0  0  0  0
    5.2469    7.9756    5.6471 C   0  0  0  0  0  0  0  0  0  0  0  0
    9.1735    3.8739    4.5234 C   0  0  0  0  0  0  0  0  0  0  0  0
    8.7937    2.5403    4.3578 C   0  0  0  0  0  0  0  0  0  0  0  0
    9.7540    1.5562    4.2415 C   0  0  0  0  0  0  0  0  0  0  0  0
   11.0988    1.8929    4.2835 C   0  0  0  0  0  0  0  0  0  0  0  0
   11.4823    3.2158    4.4447 C   0  0  0  0  0  0  0  0  0  0  0  0
   10.5286    4.2072    4.5689 C   0  0  0  0  0  0  0  0  0  0  0  0
    5.0360    6.7549    0.5503 H   0  0  0  0  0  0  0  0  0  0  0  0
    4.9261    8.5277    0.3973 H   0  0  0  0  0  0  0  0  0  0  0  0
    5.2105    8.7717    2.8438 H   0  0  0  0  0  0  0  0  0  0  0  0
    3.8819    7.6368    2.5554 H   0  0  0  0  0  0  0  0  0  0  0  0
    8.3049    9.1928    3.1005 H   0  0  0  0  0  0  0  0  0  0  0  0
    8.6511   11.5968    3.5760 H   0  0  0  0  0  0  0  0  0  0  0  0
    8.0778   13.2899    1.8743 H   0  0  0  0  0  0  0  0  0  0  0  0
    7.1505   12.5919   -0.2992 H   0  0  0  0  0  0  0  0  0  0  0  0
    6.7875   10.1996   -0.7790 H   0  0  0  0  0  0  0  0  0  0  0  0
    5.6362    7.0858   -1.6422 H   0  0  0  0  0  0  0  0  0  0  0  0
    6.3699    6.8703   -3.9736 H   0  0  0  0  0  0  0  0  0  0  0  0
    8.7261    7.2578   -4.5786 H   0  0  0  0  0  0  0  0  0  0  0  0
   10.3696    7.8457   -2.8318 H   0  0  0  0  0  0  0  0  0  0  0  0
    9.6391    8.0506   -0.4756 H   0  0  0  0  0  0  0  0  0  0  0  0
    7.1984    4.5930    1.7929 H   0  0  0  0  0  0  0  0  0  0  0  0
    6.4147    2.6464    0.4819 H   0  0  0  0  0  0  0  0  0  0  0  0
    4.0354    1.9908    0.5500 H   0  0  0  0  0  0  0  0  0  0  0  0
    2.4345    3.2931    1.8957 H   0  0  0  0  0  0  0  0  0  0  0  0
    3.2020    5.2469    3.1864 H   0  0  0  0  0  0  0  0  0  0  0  0
    4.3600    4.7347    5.2613 H   0  0  0  0  0  0  0  0  0  0  0  0
    3.3311    5.1745    7.4641 H   0  0  0  0  0  0  0  0  0  0  0  0
    3.5586    7.3944    8.5106 H   0  0  0  0  0  0  0  0  0  0  0  0
    4.8170    9.1777    7.3614 H   0  0  0  0  0  0  0  0  0  0  0  0
    5.8192    8.7467    5.1473 H   0  0  0  0  0  0  0  0  0  0  0  0
    7.7398    2.3066    4.3194 H   0  0  0  0  0  0  0  0  0  0  0  0
    9.4584    0.5251    4.1131 H   0  0  0  0  0  0  0  0  0  0  0  0
   11.8501    1.1226    4.1880 H   0  0  0  0  0  0  0  0  0  0  0  0
   12.5302    3.4743    4.4714 H   0  0  0  0  0  0  0  0  0  0  0  0
   10.8303    5.2369    4.6885 H   0  0  0  0  0  0  0  0  0  0  0  0
  1  4  1  0  0  0  0
  1  7  1  0  0  0  0
  2  1  1  0  0  0  0
  3  5  1  0  0  0  0
  3 11  1  0  0  0  0
  3  1  1  0  0  0  0
  4 29  1  0  0  0  0
  5  6  1  0  0  0  0
  6 44  1  0  0  0  0
  6 43  1  0  0  0  0
  6  4  1  0  0  0  0
  7  8  2  0  0  0  0
  9  7  1  0  0  0  0
 10  9  2  0  0  0  0
 11 12  1  0  0  0  0
 12 13  2  0  0  0  0
 12 45  1  0  0  0  0
 13 46  1  0  0  0  0
 14 47  1  0  0  0  0
 14 13  1  0  0  0  0
 15 14  2  0  0  0  0
 16 15  1  0  0  0  0
 16 11  2  0  0  0  0
 17  3  1  0  0  0  0
 18 50  1  0  0  0  0
 18 17  2  0  0  0  0
 19 18  1  0  0  0  0
 20 19  2  0  0  0  0
 20 21  1  0  0  0  0
 21 22  2  0  0  0  0
 22 17  1  0  0  0  0
 22 54  1  0  0  0  0
 23 28  1  0  0  0  0
 23  4  1  0  0  0  0
 24 23  2  0  0  0  0
 25 26  2  0  0  0  0
 25 24  1  0  0  0  0
 26 27  1  0  0  0  0
 27 58  1  0  0  0  0
 27 28  2  0  0  0  0
 28 59  1  0  0  0  0
 29 34  2  0  0  0  0
 29 30  1  0  0  0  0
 30 31  2  0  0  0  0
 31 61  1  0  0  0  0
 31 32  1  0  0  0  0
 32 62  1  0  0  0  0
 33 63  1  0  0  0  0
 33 32  2  0  0  0  0
 34 33  1  0  0  0  0
 35 40  1  0  0  0  0
 35  9  1  0  0  0  0
 36 35  2  0  0  0  0
 37 38  2  0  0  0  0
 37 36  1  0  0  0  0
 38 39  1  0  0  0  0
 39 68  1  0  0  0  0
 39 40  2  0  0  0  0
 40 69  1  0  0  0  0
 41  5  1  0  0  0  0
 42  5  1  0  0  0  0
 48 15  1  0  0  0  0
 49 16  1  0  0  0  0
 51 19  1  0  0  0  0
 52 20  1  0  0  0  0
 53 21  1  0  0  0  0
 55 24  1  0  0  0  0
 56 25  1  0  0  0  0
 57 26  1  0  0  0  0
 60 30  1  0  0  0  0
 64 34  1  0  0  0  0
 65 36  1  0  0  0  0
 66 37  1  0  0  0  0
 67 38  1  0  0  0  0
M  END
$$$$
