CSD_code = SONLOY | q = 0 | S = 0 | Stoichiometry = C16H15Cl2N3PdS | MND = 4
 OpenBabel04212202103D

 38 41  0  0  0  0  0  0  0  0999 V2000
    8.5828    5.6392    4.9301 C   0  0  0  0  0  0  0  0  0  0  0  0
    9.6255    5.7846    4.6851 H   0  0  0  0  0  0  0  0  0  0  0  0
    8.2223    5.2212    6.2001 C   0  0  0  0  0  0  0  0  0  0  0  0
    8.9861    5.0389    6.9411 H   0  0  0  0  0  0  0  0  0  0  0  0
    6.8877    5.0342    6.5160 C   0  0  0  0  0  0  0  0  0  0  0  0
    6.6086    4.7050    7.5054 H   0  0  0  0  0  0  0  0  0  0  0  0
    5.9109    5.2709    5.5623 C   0  0  0  0  0  0  0  0  0  0  0  0
    4.8694    5.1268    5.8052 H   0  0  0  0  0  0  0  0  0  0  0  0
    6.2672    5.6966    4.2955 C   0  0  0  0  0  0  0  0  0  0  0  0
    5.5084    5.8863    3.5493 H   0  0  0  0  0  0  0  0  0  0  0  0
    7.6069    5.8831    3.9757 C   0  0  0  0  0  0  0  0  0  0  0  0
    7.9770    6.3319    2.5801 C   0  0  0  0  0  0  0  0  0  0  0  0
    7.5280    7.3058    2.3665 H   0  0  0  0  0  0  0  0  0  0  0  0
    9.0612    6.3912    2.4621 H   0  0  0  0  0  0  0  0  0  0  0  0
    7.9423    4.2261    1.2027 C   0  0  0  0  0  0  0  0  0  0  0  0
    8.8926    3.8512    1.5176 H   0  0  0  0  0  0  0  0  0  0  0  0
    6.9852    3.7083    0.3578 C   0  0  0  0  0  0  0  0  0  0  0  0
    6.9023    2.4380   -0.4049 C   0  0  0  0  0  0  0  0  0  0  0  0
    7.4417    1.6415    0.1082 H   0  0  0  0  0  0  0  0  0  0  0  0
    7.2939    2.5438   -1.4184 H   0  0  0  0  0  0  0  0  0  0  0  0
    4.8810    1.9992   -2.3358 C   0  0  0  0  0  0  0  0  0  0  0  0
    5.1772    3.1622   -3.0434 C   0  0  0  0  0  0  0  0  0  0  0  0
    5.6229    4.0362   -2.5544 H   0  0  0  0  0  0  0  0  0  0  0  0
    4.9024    3.2107   -4.3993 C   0  0  0  0  0  0  0  0  0  0  0  0
    5.1202    4.1126   -4.9507 H   0  0  0  0  0  0  0  0  0  0  0  0
    4.3291    2.1227   -5.0394 C   0  0  0  0  0  0  0  0  0  0  0  0
    4.1024    2.1782   -6.0930 H   0  0  0  0  0  0  0  0  0  0  0  0
    4.0357    0.9741   -4.3263 C   0  0  0  0  0  0  0  0  0  0  0  0
    3.5821    0.1282   -4.8197 H   0  0  0  0  0  0  0  0  0  0  0  0
    4.3157    0.9062   -2.9716 C   0  0  0  0  0  0  0  0  0  0  0  0
    4.0765    0.0222   -2.4012 H   0  0  0  0  0  0  0  0  0  0  0  0
    2.1931    3.4741   -1.1291 Cl  0  0  0  0  0  0  0  0  0  0  0  0
    3.5419    6.2638   -0.5214 Cl  0  0  0  0  0  0  0  0  0  0  0  0
    7.4420    5.4126    1.6104 N   0  0  0  0  0  0  0  0  0  0  0  0
    6.2544    5.6176    1.0799 N   0  0  0  0  0  2  0  0  0  0  0  0
    5.9717    4.6147    0.3292 N   0  0  0  0  0  0  0  0  0  0  0  0
    4.1816    4.1408   -0.4165 Pd  0  0  0  0  0  0  0  0  0  0  0  0
    5.1341    1.8847   -0.5625 S   0  0  2  0  0  3  0  0  0  0  0  0
  1  3  1  0  0  0  0
  2  1  1  0  0  0  0
  3  5  2  0  0  0  0
  3  4  1  0  0  0  0
  5  6  1  0  0  0  0
  7  8  1  0  0  0  0
  7  5  1  0  0  0  0
  9  7  2  0  0  0  0
 10  9  1  0  0  0  0
 11  9  1  0  0  0  0
 11  1  2  0  0  0  0
 12 11  1  0  0  0  0
 13 12  1  0  0  0  0
 14 12  1  0  0  0  0
 15 16  1  0  0  0  0
 15 34  1  0  0  0  0
 17 15  2  0  0  0  0
 18 19  1  0  0  0  0
 18 17  1  0  0  0  0
 20 18  1  0  0  0  0
 22 23  1  0  0  0  0
 22 21  2  0  0  0  0
 24 22  1  0  0  0  0
 25 24  1  0  0  0  0
 26 24  2  0  0  0  0
 26 28  1  0  0  0  0
 27 26  1  0  0  0  0
 28 30  2  0  0  0  0
 29 28  1  0  0  0  0
 30 31  1  0  0  0  0
 30 21  1  0  0  0  0
 32 37  1  0  0  0  0
 33 37  1  0  0  0  0
 34 12  1  0  0  0  0
 35 34  1  0  0  0  0
 36 17  1  0  0  0  0
 36 35  1  0  0  0  0
 37 36  1  0  0  0  0
 38 21  1  6  0  0  0
 38 37  1  0  0  0  0
 38 18  1  0  0  0  0
M  END
$$$$
