CSD_code = SONNUG | q = 0 | S = 0 | Stoichiometry = C19H31B10ClNRhS | MND = 8
 OpenBabel04212202103D

 64 71  0  0  1  0  0  0  0  0999 V2000
    2.4333   25.3690    5.0277 Rh  0  0  0  0  0  0  0  0  0  0  0  0
    3.6649   23.4708    5.6095 S   0  0  0  0  0  0  0  0  0  0  0  0
    1.4806   24.4081    3.1502 Cl  0  0  0  0  0 15  0  0  0  0  0  0
    3.1079   21.5679    7.4010 N   0  0  0  0  0  0  0  0  0  0  0  0
    2.4326   21.2472    8.0898 H   0  0  0  0  0  0  0  0  0  0  0  0
    1.3752   23.1690    7.0214 C   0  0  1  0  0  0  0  0  0  0  0  0
    0.9440   24.4860    6.1966 C   0  0  1  0  0  0  0  0  0  0  0  0
    1.2479   24.6394    7.8954 B   0  0  1  0  0  0  0  0  0  0  0  0
    2.2656   25.1345    8.2189 H   0  0  0  0  0  0  0  0  0  0  0  0
    0.7004   23.1088    8.6112 B   0  0  1  0  0  0  0  0  0  0  0  0
    1.3675   22.6405    9.4653 H   0  0  0  0  0  0  0  0  0  0  0  0
    0.0667   22.0855    7.3254 B   0  0  1  0  0  0  0  0  0  0  0  0
    0.3132   20.9321    7.3219 H   0  0  0  0  0  0  0  0  0  0  0  0
    0.2163   22.9536    5.7801 B   0  0  2  0  0  0  0  0  0  0  0  0
    0.5838   22.3986    4.8191 H   0  0  0  0  0  0  0  0  0  0  0  0
   -0.7415   24.4086    5.8665 B   0  0  1  0  0  0  0  0  0  0  0  0
   -1.1410   24.9030    4.8823 H   0  0  0  0  0  0  0  0  0  0  0  0
   -0.1344   25.4239    7.1626 B   0  0  2  0  0  0  0  0  0  0  0  0
   -0.1466   26.5875    7.0280 H   0  0  0  0  0  0  0  0  0  0  0  0
   -0.3008   24.5637    8.7208 B   0  0  0  0  0  0  0  0  0  0  0  0
   -0.4606   25.1394    9.7340 H   0  0  0  0  0  0  0  0  0  0  0  0
   -1.0478   22.9802    8.3637 B   0  0  2  0  0  0  0  0  0  0  0  0
   -1.7383   22.4289    9.1399 H   0  0  0  0  0  0  0  0  0  0  0  0
   -1.3361   22.8794    6.5973 B   0  0  2  0  0  0  0  0  0  0  0  0
   -2.2246   22.2677    6.1317 H   0  0  0  0  0  0  0  0  0  0  0  0
   -1.5635   24.4217    7.4576 B   0  0  2  0  0  0  0  0  0  0  0  0
   -2.6250   24.9099    7.5892 H   0  0  0  0  0  0  0  0  0  0  0  0
    2.7164   22.6674    6.7291 C   0  0  0  0  0  0  0  0  0  0  0  0
    4.2677   20.7944    7.3692 C   0  0  0  0  0  0  0  0  0  0  0  0
    4.4141   19.8593    8.3972 C   0  0  0  0  0  0  0  0  0  0  0  0
    3.6488   19.7798    9.1569 H   0  0  0  0  0  0  0  0  0  0  0  0
    5.5243   19.0420    8.4492 C   0  0  0  0  0  0  0  0  0  0  0  0
    5.6243   18.3274    9.2520 H   0  0  0  0  0  0  0  0  0  0  0  0
    6.5046   19.1370    7.4739 C   0  0  0  0  0  0  0  0  0  0  0  0
    7.3734   18.4986    7.5137 H   0  0  0  0  0  0  0  0  0  0  0  0
    6.3557   20.0513    6.4461 C   0  0  0  0  0  0  0  0  0  0  0  0
    7.1076   20.1240    5.6751 H   0  0  0  0  0  0  0  0  0  0  0  0
    5.2484   20.8788    6.3855 C   0  0  0  0  0  0  0  0  0  0  0  0
    5.1467   21.5716    5.5691 H   0  0  0  0  0  0  0  0  0  0  0  0
    2.0698   27.5134    4.5952 C   0  0  1  0  0  0  0  0  0  0  0  0
    2.6070   27.5191    5.9186 C   0  0  1  0  0  3  0  0  0  0  0  0
    3.8739   26.8811    5.8631 C   0  0  2  0  0  0  0  0  0  0  0  0
    4.2053   26.6417    4.4706 C   0  0  0  0  0  0  0  0  0  0  0  0
    3.1163   27.0687    3.6935 C   0  0  0  0  0  0  0  0  0  0  0  0
    0.8063   28.1754    4.1428 C   0  0  0  0  0  0  0  0  0  0  0  0
    0.4200   27.6812    3.2545 H   0  0  0  0  0  0  0  0  0  0  0  0
    1.0013   29.2219    3.8982 H   0  0  0  0  0  0  0  0  0  0  0  0
    0.0429   28.1355    4.9163 H   0  0  0  0  0  0  0  0  0  0  0  0
    2.0631   28.2324    7.1145 C   0  0  0  0  0  0  0  0  0  0  0  0
    2.7357   29.0553    7.3640 H   0  0  0  0  0  0  0  0  0  0  0  0
    1.9885   27.5832    7.9847 H   0  0  0  0  0  0  0  0  0  0  0  0
    1.0810   28.6468    6.9080 H   0  0  0  0  0  0  0  0  0  0  0  0
    4.8409   26.7793    7.0002 C   0  0  0  0  0  0  0  0  0  0  0  0
    5.4967   27.6524    6.9980 H   0  0  0  0  0  0  0  0  0  0  0  0
    5.4644   25.8910    6.9140 H   0  0  0  0  0  0  0  0  0  0  0  0
    4.3196   26.7490    7.9544 H   0  0  0  0  0  0  0  0  0  0  0  0
    5.5527   26.2102    3.9770 C   0  0  0  0  0  0  0  0  0  0  0  0
    6.2072   27.0798    3.8853 H   0  0  0  0  0  0  0  0  0  0  0  0
    5.4771   25.7297    3.0043 H   0  0  0  0  0  0  0  0  0  0  0  0
    6.0167   25.5091    4.6685 H   0  0  0  0  0  0  0  0  0  0  0  0
    3.0450   27.1804    2.2058 C   0  0  0  0  0  0  0  0  0  0  0  0
    4.0034   26.9397    1.7534 H   0  0  0  0  0  0  0  0  0  0  0  0
    2.7691   28.1984    1.9306 H   0  0  0  0  0  0  0  0  0  0  0  0
    2.2940   26.5019    1.8006 H   0  0  0  0  0  0  0  0  0  0  0  0
  1 42  1  0  0  0  0
  2 28  2  0  0  0  0
  4  5  1  0  0  0  0
  6 28  1  6  0  0  0
  6  8  1  0  0  0  0
  7  6  1  0  0  0  0
  7 18  1  0  0  0  0
  7  8  1  0  0  0  0
  8  9  1  0  0  0  0
 10 20  1  0  0  0  0
 10 11  1  0  0  0  0
 12 22  1  0  0  0  0
 12 10  1  0  0  0  0
 13 12  1  0  0  0  0
 14 16  1  0  0  0  0
 14 24  1  0  0  0  0
 14  6  1  0  0  0  0
 15 14  1  0  0  0  0
 16  7  1  0  0  0  0
 16 18  1  0  0  0  0
 17 16  1  0  0  0  0
 18  8  1  0  0  0  0
 19 18  1  0  0  0  0
 20 21  1  0  0  0  0
 22 10  1  0  0  0  0
 22 23  1  0  0  0  0
 24 12  1  0  0  0  0
 24 26  1  0  0  0  0
 25 24  1  0  0  0  0
 26 27  1  0  0  0  0
 26 22  1  0  0  0  0
 26 20  1  0  0  0  0
 28  4  1  0  0  0  0
 29  4  1  0  0  0  0
 29 30  1  0  0  0  0
 30 32  2  0  0  0  0
 30 31  1  0  0  0  0
 32 33  1  0  0  0  0
 34 35  1  0  0  0  0
 34 32  1  0  0  0  0
 36 34  2  0  0  0  0
 37 36  1  0  0  0  0
 38 36  1  0  0  0  0
 38 29  2  0  0  0  0
 39 38  1  0  0  0  0
 40  1  1  0  0  0  0
 40 41  1  0  0  0  0
 41 49  1  0  0  0  0
 42 41  1  0  0  0  0
 42 53  1  0  0  0  0
 43 42  1  0  0  0  0
 44 43  2  0  0  0  0
 44 40  1  0  0  0  0
 45 40  1  0  0  0  0
 45 48  1  0  0  0  0
 46 45  1  0  0  0  0
 47 45  1  0  0  0  0
 49 50  1  0  0  0  0
 49 51  1  0  0  0  0
 52 49  1  0  0  0  0
 53 56  1  0  0  0  0
 54 53  1  0  0  0  0
 55 53  1  0  0  0  0
 57 43  1  0  0  0  0
 57 60  1  0  0  0  0
 58 57  1  0  0  0  0
 59 57  1  0  0  0  0
 61 44  1  0  0  0  0
 62 61  1  0  0  0  0
 63 61  1  0  0  0  0
 64 61  1  0  0  0  0
M  END
$$$$
