CSD_code = SONYOK | q = 0 | S = 0 | Stoichiometry = C16H8Cl5N2O3V | MND = 6
 OpenBabel04212202103D

 35 39  0  0  1  0  0  0  0  0999 V2000
    6.2734    2.0550    4.6145 V   0  0  0  0  0  0  0  0  0  0  0  0
    7.7006    0.4869    4.9275 Cl  0  0  0  0  0  0  0  0  0  0  0  0
    8.3793    3.0207    0.5180 Cl  0  0  0  0  0  0  0  0  0  0  0  0
    7.5688    1.0288   -1.7834 Cl  0  0  0  0  0  0  0  0  0  0  0  0
    5.4467   -1.1523   -1.2465 Cl  0  0  0  0  0  0  0  0  0  0  0  0
    4.0925   -1.4048    1.5564 Cl  0  0  0  0  0  0  0  0  0  0  0  0
    6.8057    3.2093    5.4415 O   0  0  0  0  0  1  0  0  0  0  0  0
    6.8902    2.4251    3.0611 O   0  0  0  0  0  0  0  0  0  0  0  0
    5.1515    0.6692    3.4844 O   0  0  0  0  0  0  0  0  0  0  0  0
    5.1513    1.2630    6.1529 N   0  0  0  0  0  0  0  0  0  0  0  0
    4.4596    2.9060    4.3264 N   0  0  0  0  0  0  0  0  0  0  0  0
    6.6433    1.6619    2.0536 C   0  0  0  0  0  0  0  0  0  0  0  0
    7.2148    1.7884    0.7772 C   0  0  0  0  0  0  0  0  0  0  0  0
    6.8513    0.9065   -0.2279 C   0  0  0  0  0  0  0  0  0  0  0  0
    5.8888   -0.0857    0.0193 C   0  0  0  0  0  0  0  0  0  0  0  0
    5.2879   -0.2041    1.2610 C   0  0  0  0  0  0  0  0  0  0  0  0
    5.6551    0.6531    2.3190 C   0  0  0  0  0  0  0  0  0  0  0  0
    5.6222    0.5254    7.1465 C   0  0  0  0  0  3  0  0  0  0  0  0
    6.6999    0.4142    7.1880 H   0  0  0  0  0  0  0  0  0  0  0  0
    4.7975   -0.0881    8.0806 C   0  0  0  0  0  0  0  0  0  0  0  0
    5.2279   -0.6797    8.8725 H   0  0  0  0  0  0  0  0  0  0  0  0
    3.4260    0.0648    7.9633 C   0  0  0  0  0  0  0  0  0  0  0  0
    2.7511   -0.4138    8.6568 H   0  0  0  0  0  0  0  0  0  0  0  0
    2.9336    0.8553    6.9391 C   0  0  0  0  0  0  0  0  0  0  0  0
    1.8715    1.0054    6.8329 H   0  0  0  0  0  0  0  0  0  0  0  0
    3.8294    1.4528    6.0534 C   0  0  0  0  0  0  0  0  0  0  0  0
    3.4283    2.3722    4.9835 C   0  0  1  0  0  3  0  0  0  0  0  0
    2.1151    2.7106    4.6624 C   0  0  0  0  0  0  0  0  0  0  0  0
    1.2849    2.2603    5.1818 H   0  0  0  0  0  0  0  0  0  0  0  0
    1.8887    3.6305    3.6518 C   0  0  0  0  0  0  0  0  0  0  0  0
    0.8804    3.8996    3.3762 H   0  0  0  0  0  0  0  0  0  0  0  0
    2.9755    4.2014    3.0078 C   0  0  0  0  0  0  0  0  0  0  0  0
    2.8413    4.9343    2.2286 H   0  0  0  0  0  0  0  0  0  0  0  0
    4.2525    3.8037    3.3796 C   0  0  0  0  0  0  0  0  0  0  0  0
    5.1375    4.2178    2.9094 H   0  0  0  0  0  0  0  0  0  0  0  0
  1  2  1  0  0  0  0
  1  7  1  0  0  0  0
  1 10  1  0  0  0  0
  3 13  1  0  0  0  0
  4 14  1  0  0  0  0
  5 15  1  0  0  0  0
  8  1  1  0  0  0  0
  9  1  1  0  0  0  0
 10 18  1  0  0  0  0
 11  1  1  0  0  0  0
 11 27  1  0  0  0  0
 12 17  1  0  0  0  0
 12  8  1  0  0  0  0
 13 12  2  0  0  0  0
 14 15  2  0  0  0  0
 14 13  1  0  0  0  0
 15 16  1  0  0  0  0
 16  6  1  0  0  0  0
 16 17  2  0  0  0  0
 17  9  1  0  0  0  0
 18 19  1  0  0  0  0
 18 20  1  0  0  0  0
 20 21  1  0  0  0  0
 22 20  2  0  0  0  0
 22 23  1  0  0  0  0
 24 22  1  0  0  0  0
 25 24  1  0  0  0  0
 26 10  1  0  0  0  0
 26 24  2  0  0  0  0
 27 28  1  1  0  0  0
 27 26  1  0  0  0  0
 28 29  1  0  0  0  0
 30 28  2  0  0  0  0
 31 30  1  0  0  0  0
 32 34  2  0  0  0  0
 32 30  1  0  0  0  0
 33 32  1  0  0  0  0
 34 11  1  0  0  0  0
 35 34  1  0  0  0  0
M  END
$$$$
