CSD_code = SOPJEN | q = 0 | S = 0 | Stoichiometry = C3H7Cl2N3O3Ru | MND = 6
 OpenBabel04212202103D

 19 20  0  0  1  0  0  0  0  0999 V2000
    5.9155    2.2696    3.0615 Ru  0  0  0  0  0  0  0  0  0  0  0  0
    5.4384    0.3920    1.8450 Cl  0  0  0  0  0  0  0  0  0  0  0  0
    7.9192    2.5550    1.9924 Cl  0  0  0  0  0  0  0  0  0  0  0  0
    6.8785    1.0245    5.3994 O   0  0  0  0  0  1  0  0  0  0  0  0
    5.0445    3.3852    1.6171 O   0  0  0  0  0  0  0  0  0  0  0  0
    3.7369    5.1722    1.3388 O   0  0  0  0  0  0  0  0  0  0  0  0
    6.5211    1.4797    4.4011 N   0  0  0  0  0  2  0  0  0  0  0  0
    6.0177    4.3125    3.8475 N   0  0  0  0  0  4  0  0  0  0  0  0
    6.6893    4.8305    3.2720 H   0  0  0  0  0  0  0  0  0  0  0  0
    6.2551    4.4685    4.8276 H   0  0  0  0  0  0  0  0  0  0  0  0
    3.8121    2.4176    3.7908 N   0  0  0  0  0  4  0  0  0  0  0  0
    3.4713    1.7321    4.4626 H   0  0  0  0  0  0  0  0  0  0  0  0
    3.2827    2.2818    2.9245 H   0  0  0  0  0  0  0  0  0  0  0  0
    4.4385    4.4378    1.9878 C   0  0  0  0  0  0  0  0  0  0  0  0
    4.6415    4.7160    3.5394 C   0  0  1  0  0  0  0  0  0  0  0  0
    4.4397    5.7692    3.7673 H   0  0  0  0  0  0  0  0  0  0  0  0
    3.6642    3.7953    4.2889 C   0  0  0  0  0  0  0  0  0  0  0  0
    2.6446    4.1696    4.1441 H   0  0  0  0  0  0  0  0  0  0  0  0
    3.8947    3.8016    5.3605 H   0  0  0  0  0  0  0  0  0  0  0  0
  1 11  1  0  0  0  0
  1  8  1  0  0  0  0
  1  7  1  0  0  0  0
  2  1  1  0  0  0  0
  3  1  1  0  0  0  0
  5 14  1  0  0  0  0
  5  1  1  0  0  0  0
  6 14  2  0  0  0  0
  7  4  1  0  0  0  0
  8 10  1  0  0  0  0
  9  8  1  0  0  0  0
 11 17  1  0  0  0  0
 11 12  1  0  0  0  0
 13 11  1  0  0  0  0
 14 15  1  0  0  0  0
 15 16  1  1  0  0  0
 15  8  1  0  0  0  0
 15 17  1  0  0  0  0
 17 19  1  0  0  0  0
 18 17  1  0  0  0  0
M  END
$$$$
