CSD_code = SOPJOW | q = 0 | S = 0 | Stoichiometry = C19H15Cl3N2PtS | MND = 6
 OpenBabel04212202103D

 41 45  0  0  0  0  0  0  0  0999 V2000
    3.0161    1.5218    1.6803 Pt  0  0  0  0  0  0  0  0  0  0  0  0
    1.8632    0.7165   -0.5439 S   0  0  2  0  0  3  0  0  0  0  0  0
    0.9612    1.2051    2.7815 Cl  0  0  0  0  0  0  0  0  0  0  0  0
    5.1649    1.7111    0.6691 Cl  0  0  0  0  0  0  0  0  0  0  0  0
    2.5902    3.7577    1.3561 Cl  0  0  0  0  0  0  0  0  0  0  0  0
    4.0083   -0.7907    2.9330 N   0  0  0  0  0  2  0  0  0  0  0  0
    3.4140   -0.4152    1.8872 N   0  0  0  0  0  0  0  0  0  0  0  0
    4.2731    0.2053    3.8198 C   0  0  0  0  0  0  0  0  0  0  0  0
    3.9063    1.5307    3.4908 C   0  0  0  0  0  0  0  0  0  0  0  0
    4.1573    2.5628    4.3605 C   0  0  0  0  0  0  0  0  0  0  0  0
    4.7891    2.2843    5.5696 C   0  0  0  0  0  0  0  0  0  0  0  0
    5.1580    0.9861    5.9043 C   0  0  0  0  0  0  0  0  0  0  0  0
    4.9060   -0.0584    5.0418 C   0  0  0  0  0  0  0  0  0  0  0  0
    3.1188   -1.3398    0.9013 C   0  0  0  0  0  0  0  0  0  0  0  0
    2.4324   -0.9570   -0.2622 C   0  0  0  0  0  0  0  0  0  0  0  0
    2.1186   -1.9122   -1.2179 C   0  0  0  0  0  0  0  0  0  0  0  0
    2.5187   -3.2272   -1.0578 C   0  0  0  0  0  0  0  0  0  0  0  0
    3.2205   -3.6066    0.0783 C   0  0  0  0  0  0  0  0  0  0  0  0
    3.5089   -2.6777    1.0536 C   0  0  0  0  0  0  0  0  0  0  0  0
    3.0196    1.2834   -1.8822 C   0  0  0  0  0  0  0  0  0  0  0  0
    3.0317    0.3583   -3.0446 C   0  0  0  0  0  0  0  0  0  0  0  0
    2.0264    0.4075   -4.0050 C   0  0  0  0  0  0  0  0  0  0  0  0
    2.0327   -0.4768   -5.0680 C   0  0  0  0  0  0  0  0  0  0  0  0
    3.0405   -1.4214   -5.1801 C   0  0  0  0  0  0  0  0  0  0  0  0
    4.0447   -1.4760   -4.2284 C   0  0  0  0  0  0  0  0  0  0  0  0
    4.0395   -0.5933   -3.1629 C   0  0  0  0  0  0  0  0  0  0  0  0
    5.6446    0.7971    6.8490 H   0  0  0  0  0  0  0  0  0  0  0  0
    1.5466   -1.6205   -2.0840 H   0  0  0  0  0  0  0  0  0  0  0  0
    4.0059    1.3891   -1.4297 H   0  0  0  0  0  0  0  0  0  0  0  0
    2.6168    2.2640   -2.1353 H   0  0  0  0  0  0  0  0  0  0  0  0
    4.8340   -2.2077   -4.3150 H   0  0  0  0  0  0  0  0  0  0  0  0
    4.9938    3.0936    6.2540 H   0  0  0  0  0  0  0  0  0  0  0  0
    3.8744    3.5749    4.1112 H   0  0  0  0  0  0  0  0  0  0  0  0
    4.8252   -0.6320   -2.4221 H   0  0  0  0  0  0  0  0  0  0  0  0
    4.0368   -2.9492    1.9542 H   0  0  0  0  0  0  0  0  0  0  0  0
    1.2389    1.1415   -3.9134 H   0  0  0  0  0  0  0  0  0  0  0  0
    5.1773   -1.0743    5.2802 H   0  0  0  0  0  0  0  0  0  0  0  0
    2.2720   -3.9552   -1.8147 H   0  0  0  0  0  0  0  0  0  0  0  0
    3.0440   -2.1111   -6.0108 H   0  0  0  0  0  0  0  0  0  0  0  0
    3.5311   -4.6319    0.2070 H   0  0  0  0  0  0  0  0  0  0  0  0
    1.2509   -0.4293   -5.8114 H   0  0  0  0  0  0  0  0  0  0  0  0
  1  7  1  0  0  0  0
  1  3  1  0  0  0  0
  1  9  1  0  0  0  0
  2 20  1  6  0  0  0
  2 15  1  0  0  0  0
  2  1  1  0  0  0  0
  4  1  1  0  0  0  0
  5  1  1  0  0  0  0
  6  8  1  0  0  0  0
  7  6  1  0  0  0  0
  8 13  1  0  0  0  0
  9  8  2  0  0  0  0
  9 10  1  0  0  0  0
 10 11  2  0  0  0  0
 11 12  1  0  0  0  0
 11 32  1  0  0  0  0
 12 27  1  0  0  0  0
 13 37  1  0  0  0  0
 13 12  2  0  0  0  0
 14 19  1  0  0  0  0
 14  7  1  0  0  0  0
 15 14  2  0  0  0  0
 16 17  2  0  0  0  0
 16 15  1  0  0  0  0
 17 18  1  0  0  0  0
 18 40  1  0  0  0  0
 18 19  2  0  0  0  0
 19 35  1  0  0  0  0
 20 29  1  0  0  0  0
 21 20  1  0  0  0  0
 22 36  1  0  0  0  0
 22 21  2  0  0  0  0
 23 22  1  0  0  0  0
 24 23  2  0  0  0  0
 24 25  1  0  0  0  0
 25 26  2  0  0  0  0
 26 21  1  0  0  0  0
 26 34  1  0  0  0  0
 28 16  1  0  0  0  0
 30 20  1  0  0  0  0
 31 25  1  0  0  0  0
 33 10  1  0  0  0  0
 38 17  1  0  0  0  0
 39 24  1  0  0  0  0
 41 23  1  0  0  0  0
M  END
$$$$
