CSD_code = SOQFOU | q = 0 | S = 0 | Stoichiometry = C19H22Cl2O2PdS2 | MND = 4
 OpenBabel04212202103D

 48 51  0  0  0  0  0  0  0  0999 V2000
   -8.4139    9.5786    7.7610 Pd  0  0  0  0  0  0  0  0  0  0  0  0
   -9.5740    7.7226    7.2860 Cl  0  0  0  0  0  0  0  0  0  0  0  0
   -9.7606    9.9535    9.5080 Cl  0  0  0  0  0  0  0  0  0  0  0  0
   -7.0088    9.0966    5.9419 S   0  0  2  0  0  3  0  0  0  0  0  0
   -7.0956   11.4717    8.2366 S   0  0  2  0  0  3  0  0  0  0  0  0
   -3.8755    7.8899    8.2500 O   0  0  0  0  0  0  0  0  0  0  0  0
   -4.2714   10.1494   10.4455 O   0  0  0  0  0  0  0  0  0  0  0  0
   -3.2030    8.0073   10.5587 C   0  0  0  0  0  0  0  0  0  0  0  0
   -2.5479    7.4588   11.2353 H   0  0  0  0  0  0  0  0  0  0  0  0
   -4.2275    7.6682   10.7160 H   0  0  0  0  0  0  0  0  0  0  0  0
   -2.7867    7.6777    9.1256 C   0  0  0  0  0  0  0  0  0  0  0  0
   -1.9326    8.3043    8.8321 H   0  0  0  0  0  0  0  0  0  0  0  0
   -2.4826    6.6240    9.0712 H   0  0  0  0  0  0  0  0  0  0  0  0
   -3.7714    7.4008    6.9757 C   0  0  0  0  0  0  0  0  0  0  0  0
   -2.5692    7.0266    6.3843 C   0  0  0  0  0  0  0  0  0  0  0  0
   -1.6412    7.1074    6.9274 H   0  0  0  0  0  0  0  0  0  0  0  0
   -2.5450    6.5536    5.0835 C   0  0  0  0  0  0  0  0  0  0  0  0
   -1.6008    6.2715    4.6431 H   0  0  0  0  0  0  0  0  0  0  0  0
   -3.7149    6.4421    4.3547 C   0  0  0  0  0  0  0  0  0  0  0  0
   -3.6944    6.0713    3.3422 H   0  0  0  0  0  0  0  0  0  0  0  0
   -4.9136    6.8065    4.9390 C   0  0  0  0  0  0  0  0  0  0  0  0
   -5.8381    6.7248    4.3871 H   0  0  0  0  0  0  0  0  0  0  0  0
   -4.9615    7.2797    6.2424 C   0  0  0  0  0  0  0  0  0  0  0  0
   -6.2709    7.6671    6.8407 C   0  0  0  0  0  0  0  0  0  0  0  0
   -6.1797    7.9106    7.9062 H   0  0  0  0  0  0  0  0  0  0  0  0
   -7.0250    6.8857    6.7132 H   0  0  0  0  0  0  0  0  0  0  0  0
   -5.6836   10.3470    6.1374 C   0  0  0  0  0  0  0  0  0  0  0  0
   -4.7633    9.9009    5.7557 H   0  0  0  0  0  0  0  0  0  0  0  0
   -5.9804   11.1731    5.4895 H   0  0  0  0  0  0  0  0  0  0  0  0
   -5.5098   10.8117    7.5674 C   0  0  0  0  0  0  0  0  0  0  0  0
   -4.7785   11.6213    7.6178 H   0  0  0  0  0  0  0  0  0  0  0  0
   -5.1813    9.9952    8.2131 H   0  0  0  0  0  0  0  0  0  0  0  0
   -6.8260   11.1305   10.0198 C   0  0  0  0  0  0  0  0  0  0  0  0
   -7.7941   11.3495   10.4752 H   0  0  0  0  0  0  0  0  0  0  0  0
   -6.6080   10.0642   10.1279 H   0  0  0  0  0  0  0  0  0  0  0  0
   -5.7400   11.9869   10.5752 C   0  0  0  0  0  0  0  0  0  0  0  0
   -5.9879   13.3172   10.8773 C   0  0  0  0  0  0  0  0  0  0  0  0
   -6.9763   13.7128   10.6975 H   0  0  0  0  0  0  0  0  0  0  0  0
   -4.9981   14.1253   11.4070 C   0  0  0  0  0  0  0  0  0  0  0  0
   -5.2071   15.1571   11.6415 H   0  0  0  0  0  0  0  0  0  0  0  0
   -3.7435   13.5946   11.6420 C   0  0  0  0  0  0  0  0  0  0  0  0
   -2.9628   14.2100   12.0630 H   0  0  0  0  0  0  0  0  0  0  0  0
   -3.4718   12.2702   11.3422 C   0  0  0  0  0  0  0  0  0  0  0  0
   -2.4836   11.8834   11.5342 H   0  0  0  0  0  0  0  0  0  0  0  0
   -4.4590   11.4583   10.7962 C   0  0  0  0  0  0  0  0  0  0  0  0
   -3.1134    9.4913   10.9108 C   0  0  0  0  0  0  0  0  0  0  0  0
   -3.0437    9.6045   12.0011 H   0  0  0  0  0  0  0  0  0  0  0  0
   -2.2135    9.9284   10.4554 H   0  0  0  0  0  0  0  0  0  0  0  0
  1  5  1  0  0  0  0
  1  3  1  0  0  0  0
  2  1  1  0  0  0  0
  4 27  1  1  0  0  0
  4 24  1  0  0  0  0
  4  1  1  0  0  0  0
  5 30  1  6  0  0  0
  5 33  1  0  0  0  0
  6 11  1  0  0  0  0
  7 45  1  0  0  0  0
  7 46  1  0  0  0  0
  8 10  1  0  0  0  0
  8 46  1  0  0  0  0
  8  9  1  0  0  0  0
 11  8  1  0  0  0  0
 12 11  1  0  0  0  0
 13 11  1  0  0  0  0
 14  6  1  0  0  0  0
 15 16  1  0  0  0  0
 15 14  1  0  0  0  0
 17 15  2  0  0  0  0
 18 17  1  0  0  0  0
 19 21  2  0  0  0  0
 19 17  1  0  0  0  0
 20 19  1  0  0  0  0
 21 23  1  0  0  0  0
 22 21  1  0  0  0  0
 23 24  1  0  0  0  0
 23 14  2  0  0  0  0
 24 25  1  0  0  0  0
 26 24  1  0  0  0  0
 27 30  1  0  0  0  0
 28 27  1  0  0  0  0
 29 27  1  0  0  0  0
 30 31  1  0  0  0  0
 30 32  1  0  0  0  0
 33 35  1  0  0  0  0
 33 34  1  0  0  0  0
 33 36  1  0  0  0  0
 36 45  2  0  0  0  0
 36 37  1  0  0  0  0
 37 39  2  0  0  0  0
 38 37  1  0  0  0  0
 39 40  1  0  0  0  0
 39 41  1  0  0  0  0
 41 42  1  0  0  0  0
 43 44  1  0  0  0  0
 43 41  2  0  0  0  0
 45 43  1  0  0  0  0
 46 47  1  0  0  0  0
 48 46  1  0  0  0  0
M  END
$$$$
