CSD_code = SOQHOW | q = 0 | S = 0 | Stoichiometry = C18H18Br2N4Pt | MND = 6
 OpenBabel04212202103D

 43 46  0  0  0  0  0  0  0  0999 V2000
    3.2083   12.5303   -0.5714 C   0  0  0  0  0  0  0  0  0  0  0  0
    3.9118   12.9193    0.1641 H   0  0  0  0  0  0  0  0  0  0  0  0
    2.3567   12.0778   -0.0569 H   0  0  0  0  0  0  0  0  0  0  0  0
    2.8462   13.3507   -1.1911 H   0  0  0  0  0  0  0  0  0  0  0  0
    3.2706    9.4246    0.9038 C   0  0  0  0  0  3  0  0  0  0  0  0
    3.8952   10.1992    1.3302 H   0  0  0  0  0  0  0  0  0  0  0  0
    1.9198    7.6307    1.2301 C   0  0  0  0  0  0  0  0  0  0  0  0
    1.2616    6.7323    2.0916 C   0  0  0  0  0  0  0  0  0  0  0  0
    1.3961    6.8514    3.1546 H   0  0  0  0  0  0  0  0  0  0  0  0
    0.4752    5.7462    1.5618 C   0  0  0  0  0  0  0  0  0  0  0  0
   -0.0357    5.0548    2.2153 H   0  0  0  0  0  0  0  0  0  0  0  0
    0.3131    5.6130    0.1705 C   0  0  0  0  0  0  0  0  0  0  0  0
   -0.3187    4.8256   -0.2118 H   0  0  0  0  0  0  0  0  0  0  0  0
    0.9414    6.4680   -0.6914 C   0  0  0  0  0  0  0  0  0  0  0  0
    0.8199    6.3809   -1.7611 H   0  0  0  0  0  0  0  0  0  0  0  0
    1.7567    7.4950   -0.1764 C   0  0  0  0  0  0  0  0  0  0  0  0
    2.4315    8.4405   -0.9694 C   0  0  0  0  0  0  0  0  0  0  0  0
    2.3362    8.4039   -2.0489 H   0  0  0  0  0  0  0  0  0  0  0  0
    3.1688    9.3926   -0.4453 N   0  0  0  0  0  0  0  0  0  0  0  0
    2.6977    8.6116    1.7323 N   0  0  0  0  0  0  0  0  0  0  0  0
    6.1408   11.0226   -0.3311 Br  0  0  0  0  0  0  0  0  0  0  0  0
    4.0814   11.0626   -1.7294 Pt  0  0  0  0  0  0  0  0  0  0  0  0
    4.9549   12.5295   -2.8886 C   0  0  0  0  0  0  0  0  0  0  0  0
    4.2532   12.9139   -3.6282 H   0  0  0  0  0  0  0  0  0  0  0  0
    5.8105   12.0788   -3.3980 H   0  0  0  0  0  0  0  0  0  0  0  0
    5.3115   13.3531   -2.2698 H   0  0  0  0  0  0  0  0  0  0  0  0
    4.8940    9.4257   -4.3636 C   0  0  0  0  0  3  0  0  0  0  0  0
    4.2699   10.2007   -4.7901 H   0  0  0  0  0  0  0  0  0  0  0  0
    6.2443    7.6314   -4.6897 C   0  0  0  0  0  0  0  0  0  0  0  0
    6.9031    6.7333   -5.5511 C   0  0  0  0  0  0  0  0  0  0  0  0
    6.7695    6.8530   -6.6141 H   0  0  0  0  0  0  0  0  0  0  0  0
    7.6887    5.7467   -5.0211 C   0  0  0  0  0  0  0  0  0  0  0  0
    8.2000    5.0555   -5.6745 H   0  0  0  0  0  0  0  0  0  0  0  0
    7.8495    5.6127   -3.6298 C   0  0  0  0  0  0  0  0  0  0  0  0
    8.4807    4.8248   -3.2473 H   0  0  0  0  0  0  0  0  0  0  0  0
    7.2206    6.4673   -2.7680 C   0  0  0  0  0  0  0  0  0  0  0  0
    7.3411    6.3795   -1.6982 H   0  0  0  0  0  0  0  0  0  0  0  0
    6.4062    7.4950   -3.2831 C   0  0  0  0  0  0  0  0  0  0  0  0
    5.7314    8.4406   -2.4901 C   0  0  0  0  0  0  0  0  0  0  0  0
    5.8260    8.4035   -1.4106 H   0  0  0  0  0  0  0  0  0  0  0  0
    4.9950    9.3933   -3.0144 N   0  0  0  0  0  0  0  0  0  0  0  0
    5.4672    8.6129   -5.1920 N   0  0  0  0  0  0  0  0  0  0  0  0
    2.0236   11.0225   -3.1323 Br  0  0  0  0  0  0  0  0  0  0  0  0
  1  3  1  0  0  0  0
  1  2  1  0  0  0  0
  4  1  1  0  0  0  0
  5  6  1  0  0  0  0
  5 20  1  0  0  0  0
  7 20  2  0  0  0  0
  7  8  1  0  0  0  0
  8  9  1  0  0  0  0
 10  8  2  0  0  0  0
 10 11  1  0  0  0  0
 12 10  1  0  0  0  0
 13 12  1  0  0  0  0
 14 16  1  0  0  0  0
 14 12  2  0  0  0  0
 15 14  1  0  0  0  0
 16  7  1  0  0  0  0
 17 19  1  0  0  0  0
 17 16  2  0  0  0  0
 18 17  1  0  0  0  0
 19  5  1  0  0  0  0
 22  1  1  0  0  0  0
 22 19  1  0  0  0  0
 22 21  1  0  0  0  0
 23 26  1  0  0  0  0
 23 22  1  0  0  0  0
 24 23  1  0  0  0  0
 25 23  1  0  0  0  0
 27 41  1  0  0  0  0
 28 27  1  0  0  0  0
 29 38  1  0  0  0  0
 30 32  2  0  0  0  0
 30 29  1  0  0  0  0
 31 30  1  0  0  0  0
 32 34  1  0  0  0  0
 33 32  1  0  0  0  0
 34 35  1  0  0  0  0
 34 36  2  0  0  0  0
 36 37  1  0  0  0  0
 38 36  1  0  0  0  0
 38 39  2  0  0  0  0
 39 40  1  0  0  0  0
 41 39  1  0  0  0  0
 41 22  1  0  0  0  0
 42 29  2  0  0  0  0
 42 27  1  0  0  0  0
 43 22  1  0  0  0  0
M  END
$$$$
