CSD_code = SOQHIQ | q = 0 | S = 0 | Stoichiometry = C16H18Br2N4Pt | MND = 6
 OpenBabel04212202103D

 41 44  0  0  1  0  0  0  0  0999 V2000
    5.6593    0.3656   12.3824 C   0  0  0  0  0  0  0  0  0  0  0  0
    6.2298   -0.4565   12.8132 H   0  0  0  0  0  0  0  0  0  0  0  0
    6.2551    0.8339   11.5954 H   0  0  0  0  0  0  0  0  0  0  0  0
    4.7397   -0.0276   11.9513 H   0  0  0  0  0  0  0  0  0  0  0  0
    5.5763    5.0586   16.7610 C   0  0  1  0  0  3  0  0  0  0  0  0
    6.2658    5.8857   17.6463 C   0  0  0  0  0  0  0  0  0  0  0  0
    7.3208    5.7528   17.8262 H   0  0  0  0  0  0  0  0  0  0  0  0
    5.5378    6.8681   18.2723 C   0  0  0  0  0  0  0  0  0  0  0  0
    6.0302    7.5316   18.9671 H   0  0  0  0  0  0  0  0  0  0  0  0
    4.1635    7.0385   18.0368 C   0  0  0  0  0  0  0  0  0  0  0  0
    3.6437    7.8275   18.5589 H   0  0  0  0  0  0  0  0  0  0  0  0
    3.4763    6.2306   17.1667 C   0  0  0  0  0  0  0  0  0  0  0  0
    2.4208    6.3598   16.9856 H   0  0  0  0  0  0  0  0  0  0  0  0
    4.1902    5.2200   16.5135 C   0  0  0  0  0  0  0  0  0  0  0  0
    3.8784    4.2082   15.5778 C   0  0  0  0  0  0  0  0  0  0  0  0
    2.9286    3.9810   15.1339 H   0  0  0  0  0  0  0  0  0  0  0  0
    4.9567    3.5131   15.2923 N   0  0  0  0  0  0  0  0  0  0  0  0
    5.9802    4.0182   15.9982 N   0  0  0  0  0  0  0  0  0  0  0  0
    6.9016    3.6034   15.9122 H   0  0  0  0  0  0  0  0  0  0  0  0
    2.8401    1.8189   13.2246 Br  0  0  0  0  0  0  0  0  0  0  0  0
    5.2735    1.8205   13.7931 Pt  0  0  0  0  0  0  0  0  0  0  0  0
    4.8877    0.3660   15.2047 C   0  0  0  0  0  0  0  0  0  0  0  0
    4.3126   -0.4539   14.7747 H   0  0  0  0  0  0  0  0  0  0  0  0
    4.2961    0.8366   15.9943 H   0  0  0  0  0  0  0  0  0  0  0  0
    5.8083   -0.0306   15.6320 H   0  0  0  0  0  0  0  0  0  0  0  0
    4.9693    5.0592   10.8262 C   0  0  0  0  0  0  0  0  0  0  0  0
    4.2791    5.8872    9.9423 C   0  0  0  0  0  0  0  0  0  0  0  0
    3.2237    5.7552    9.7639 H   0  0  0  0  0  0  0  0  0  0  0  0
    5.0070    6.8692    9.3155 C   0  0  0  0  0  0  0  0  0  0  0  0
    4.5140    7.5333    8.6216 H   0  0  0  0  0  0  0  0  0  0  0  0
    6.3818    7.0383    9.5490 C   0  0  0  0  0  0  0  0  0  0  0  0
    6.9014    7.8270    9.0263 H   0  0  0  0  0  0  0  0  0  0  0  0
    7.0696    6.2295   10.4177 C   0  0  0  0  0  3  0  0  0  0  0  0
    8.1255    6.3579   10.5973 H   0  0  0  0  0  0  0  0  0  0  0  0
    6.3559    5.2194   11.0717 C   0  0  0  0  0  0  0  0  0  0  0  0
    6.6682    4.2069   12.0066 C   0  0  0  0  0  0  0  0  0  0  0  0
    7.6184    3.9788   12.4490 H   0  0  0  0  0  0  0  0  0  0  0  0
    5.5898    3.5127   12.2935 N   0  0  0  0  0  0  0  0  0  0  0  0
    4.5656    4.0189   11.5893 N   0  0  0  0  0  0  0  0  0  0  0  0
    3.6441    3.6046   11.6762 H   0  0  0  0  0  0  0  0  0  0  0  0
    7.7064    1.8196   14.3626 Br  0  0  0  0  0  0  0  0  0  0  0  0
  1  2  1  0  0  0  0
  1 21  1  0  0  0  0
  3  1  1  0  0  0  0
  4  1  1  0  0  0  0
  5 14  1  6  0  0  0
  5  6  1  0  0  0  0
  6  7  1  0  0  0  0
  6  8  2  0  0  0  0
  8  9  1  0  0  0  0
 10  8  1  0  0  0  0
 10 11  1  0  0  0  0
 12 10  2  0  0  0  0
 13 12  1  0  0  0  0
 14 12  1  0  0  0  0
 15 14  2  0  0  0  0
 16 15  1  0  0  0  0
 17 15  1  0  0  0  0
 17 18  1  0  0  0  0
 18  5  1  0  0  0  0
 19 18  1  0  0  0  0
 20 21  1  0  0  0  0
 21 41  1  0  0  0  0
 21 22  1  0  0  0  0
 21 17  1  0  0  0  0
 22 25  1  0  0  0  0
 22 24  1  0  0  0  0
 23 22  1  0  0  0  0
 26 35  1  0  0  0  0
 26 39  1  0  0  0  0
 27 26  2  0  0  0  0
 28 27  1  0  0  0  0
 29 31  2  0  0  0  0
 29 27  1  0  0  0  0
 30 29  1  0  0  0  0
 31 33  1  0  0  0  0
 32 31  1  0  0  0  0
 33 34  1  0  0  0  0
 33 35  1  0  0  0  0
 35 36  2  0  0  0  0
 36 38  1  0  0  0  0
 36 37  1  0  0  0  0
 38 21  1  0  0  0  0
 39 40  1  0  0  0  0
 39 38  1  0  0  0  0
M  END
$$$$
