CSD_code = SOQVUQ | q = 0 | S = 0 | Stoichiometry = C12H14ClCuN4O2 | MND = 3
 OpenBabel04212202103D

 34 36  0  0  1  0  0  0  0  0999 V2000
    2.4827    8.2883    0.9432 Cu  0  0  0  0  0  0  0  0  0  0  0  0
    2.6955    6.3384    1.7070 Cl  0  0  0  0  0  0  0  0  0  0  0  0
    1.1614    9.3582    2.9810 O   0  0  0  0  0  0  0  0  0  0  0  0
    0.8132   11.4360    3.7878 O   0  0  0  0  0  0  0  0  0  0  0  0
    3.2314    8.7757   -1.0913 N   0  0  0  0  0  0  0  0  0  0  0  0
    2.3363   10.2101    0.8410 N   0  0  0  0  0  0  0  0  0  0  0  0
    4.0909   10.7000   -2.1665 N   0  0  0  0  0  0  0  0  0  0  0  0
    2.7636   10.8473   -0.2535 N   0  0  0  0  0  0  0  0  0  0  0  0
    3.6821    6.5131   -1.7817 C   0  0  0  0  0  0  0  0  0  0  0  0
    3.6036    6.2662   -0.7211 H   0  0  0  0  0  0  0  0  0  0  0  0
    4.4907    5.9548   -2.2443 H   0  0  0  0  0  0  0  0  0  0  0  0
    2.7407    6.2164   -2.2440 H   0  0  0  0  0  0  0  0  0  0  0  0
    3.8724    7.9740   -1.9468 C   0  0  1  0  0  3  0  0  0  0  0  0
    4.6555    8.5349   -2.9514 C   0  0  0  0  0  0  0  0  0  0  0  0
    5.1807    7.9098   -3.6548 H   0  0  0  0  0  0  0  0  0  0  0  0
    4.7219    9.9226   -3.0463 C   0  0  0  0  0  0  0  0  0  0  0  0
    5.4900   10.6084   -4.1240 C   0  0  0  0  0  0  0  0  0  0  0  0
    5.5144   11.6775   -3.9370 H   0  0  0  0  0  0  0  0  0  0  0  0
    5.0163   10.4264   -5.0879 H   0  0  0  0  0  0  0  0  0  0  0  0
    6.5050   10.2199   -4.1715 H   0  0  0  0  0  0  0  0  0  0  0  0
    3.3959   10.0900   -1.2289 C   0  0  0  0  0  0  0  0  0  0  0  0
    2.8349   13.1406   -1.2562 C   0  0  0  0  0  0  0  0  0  0  0  0
    2.4120   14.1153   -1.0313 H   0  0  0  0  0  0  0  0  0  0  0  0
    2.4658   12.7953   -2.2200 H   0  0  0  0  0  0  0  0  0  0  0  0
    3.9173   13.2250   -1.3350 H   0  0  0  0  0  0  0  0  0  0  0  0
    2.4731   12.1827   -0.1887 C   0  0  1  0  0  3  0  0  0  0  0  0
    1.8155   12.3763    1.0035 C   0  0  0  0  0  0  0  0  0  0  0  0
    1.4300   13.2937    1.3966 H   0  0  0  0  0  0  0  0  0  0  0  0
    1.7487   11.1103    1.6187 C   0  0  0  0  0  0  0  0  0  0  0  0
    1.1858   10.6927    2.9153 C   0  0  0  0  0  0  0  0  0  0  0  0
    0.7282    8.7627    4.1975 C   0  0  0  0  0  0  0  0  0  0  0  0
    1.0288    7.7190    4.1375 H   0  0  0  0  0  0  0  0  0  0  0  0
   -0.3568    8.8450    4.2892 H   0  0  0  0  0  0  0  0  0  0  0  0
    1.1978    9.2569    5.0499 H   0  0  0  0  0  0  0  0  0  0  0  0
  1  2  1  0  0  0  0
  3 31  1  0  0  0  0
  5  1  1  0  0  0  0
  6  1  1  0  0  0  0
  6 29  1  0  0  0  0
  7 21  2  0  0  0  0
  8 26  1  0  0  0  0
  8  6  1  0  0  0  0
  9 10  1  0  0  0  0
 11  9  1  0  0  0  0
 12  9  1  0  0  0  0
 13  9  1  6  0  0  0
 13  5  1  0  0  0  0
 14 13  1  0  0  0  0
 15 14  1  0  0  0  0
 16 14  2  0  0  0  0
 16  7  1  0  0  0  0
 17 18  1  0  0  0  0
 17 16  1  0  0  0  0
 19 17  1  0  0  0  0
 20 17  1  0  0  0  0
 21  5  1  0  0  0  0
 21  8  1  0  0  0  0
 22 23  1  0  0  0  0
 24 22  1  0  0  0  0
 25 22  1  0  0  0  0
 26 22  1  6  0  0  0
 26 27  1  0  0  0  0
 27 28  1  0  0  0  0
 27 29  2  0  0  0  0
 29 30  1  0  0  0  0
 30  3  1  0  0  0  0
 30  4  2  0  0  0  0
 31 33  1  0  0  0  0
 31 34  1  0  0  0  0
 32 31  1  0  0  0  0
M  END
$$$$
