CSD_code = SORVUR | q = 0 | S = 0 | Stoichiometry = C12H28Cl2N2O4Pt | MND = 6
 OpenBabel04212202103D

 49 48  0  0  0  0  0  0  0  0999 V2000
    5.9422    2.7663    2.2135 Pt  0  0  0  0  0  0  0  0  0  0  0  0
    7.9317    3.2599    1.5203 N   0  0  0  0  0  4  0  0  0  0  0  0
    7.8131    3.8861    0.7205 H   0  0  0  0  0  0  0  0  0  0  0  0
    8.4698    2.4366    1.2621 H   0  0  0  0  0  0  0  0  0  0  0  0
    8.3821    3.7676    2.2859 H   0  0  0  0  0  0  0  0  0  0  0  0
    5.4948    4.8585    2.5382 N   0  0  0  0  0  4  0  0  0  0  0  0
    5.6228    5.3186    1.6331 H   0  0  0  0  0  0  0  0  0  0  0  0
    6.1975    5.2026    3.1972 H   0  0  0  0  0  0  0  0  0  0  0  0
    4.5548    5.0098    2.8953 H   0  0  0  0  0  0  0  0  0  0  0  0
    6.4608    0.5809    1.8600 Cl  0  0  0  0  0  0  0  0  0  0  0  0
    3.8400    2.3022    2.9457 Cl  0  0  0  0  0  0  0  0  0  0  0  0
    5.1835    2.8166    0.2834 O   0  0  0  0  0  0  0  0  0  0  0  0
    6.5954    2.5272    4.1681 O   0  0  0  0  0  0  0  0  0  0  0  0
    7.3772    3.3902    4.6792 C   0  0  0  0  0  0  0  0  0  0  0  0
    7.7878    4.3877    4.0825 O   0  0  0  0  0  0  0  0  0  0  0  0
    7.7629    3.0912    6.1194 C   0  0  0  0  0  0  0  0  0  0  0  0
    8.0356    2.0364    6.1797 H   0  0  0  0  0  0  0  0  0  0  0  0
    6.8616    3.2314    6.7191 H   0  0  0  0  0  0  0  0  0  0  0  0
    4.8422    3.6920   -1.8622 C   0  0  0  0  0  0  0  0  0  0  0  0
    4.8809    2.6492   -2.1758 H   0  0  0  0  0  0  0  0  0  0  0  0
    3.7900    3.9598   -1.7345 H   0  0  0  0  0  0  0  0  0  0  0  0
    9.3326    3.6560    8.0369 C   0  0  0  0  0  0  0  0  0  0  0  0
    9.5768    2.5934    8.1037 H   0  0  0  0  0  0  0  0  0  0  0  0
   10.2436    4.2177    8.2567 H   0  0  0  0  0  0  0  0  0  0  0  0
    5.4836    3.7834   -0.4857 C   0  0  0  0  0  0  0  0  0  0  0  0
    4.7206    3.4235   -4.9827 C   0  0  0  0  0  0  0  0  0  0  0  0
    4.2101    2.6438   -4.4157 H   0  0  0  0  0  0  0  0  0  0  0  0
    5.7496    3.0967   -5.1494 H   0  0  0  0  0  0  0  0  0  0  0  0
    8.8951    3.9864    6.6106 C   0  0  0  0  0  0  0  0  0  0  0  0
    8.5777    5.0291    6.5534 H   0  0  0  0  0  0  0  0  0  0  0  0
    9.7481    3.8698    5.9389 H   0  0  0  0  0  0  0  0  0  0  0  0
    5.5072    4.6224   -2.8712 C   0  0  0  0  0  0  0  0  0  0  0  0
    6.5206    4.2699   -3.0742 H   0  0  0  0  0  0  0  0  0  0  0  0
    5.5898    5.6142   -2.4218 H   0  0  0  0  0  0  0  0  0  0  0  0
    8.8069    3.7564   10.5014 C   0  0  0  0  0  0  0  0  0  0  0  0
    8.0486    4.0040   11.2404 H   0  0  0  0  0  0  0  0  0  0  0  0
    9.6862    4.3676   10.6937 H   0  0  0  0  0  0  0  0  0  0  0  0
    9.0825    2.7120   10.6297 H   0  0  0  0  0  0  0  0  0  0  0  0
    8.2826    4.0003    9.0913 C   0  0  0  0  0  0  0  0  0  0  0  0
    7.3880    3.3948    8.9370 H   0  0  0  0  0  0  0  0  0  0  0  0
    7.9988    5.0501    8.9869 H   0  0  0  0  0  0  0  0  0  0  0  0
    4.7299    4.7245   -4.1825 C   0  0  0  0  0  0  0  0  0  0  0  0
    3.7014    5.0269   -3.9724 H   0  0  0  0  0  0  0  0  0  0  0  0
    5.1846    5.5077   -4.7937 H   0  0  0  0  0  0  0  0  0  0  0  0
    4.0225    3.5983   -6.3260 C   0  0  0  0  0  0  0  0  0  0  0  0
    4.0244    2.6641   -6.8826 H   0  0  0  0  0  0  0  0  0  0  0  0
    4.5258    4.3551   -6.9241 H   0  0  0  0  0  0  0  0  0  0  0  0
    2.9900    3.9088   -6.1813 H   0  0  0  0  0  0  0  0  0  0  0  0
    6.2127    4.7225   -0.1603 O   0  0  0  0  0  0  0  0  0  0  0  0
  1  6  1  0  0  0  0
  1 11  1  0  0  0  0
  1 13  1  0  0  0  0
  2  1  1  0  0  0  0
  2  5  1  0  0  0  0
  3  2  1  0  0  0  0
  4  2  1  0  0  0  0
  6  9  1  0  0  0  0
  6  8  1  0  0  0  0
  7  6  1  0  0  0  0
 10  1  1  0  0  0  0
 12  1  1  0  0  0  0
 13 14  1  0  0  0  0
 14 16  1  0  0  0  0
 15 14  2  0  0  0  0
 16 17  1  0  0  0  0
 16 29  1  0  0  0  0
 16 18  1  0  0  0  0
 19 21  1  0  0  0  0
 19 25  1  0  0  0  0
 20 19  1  0  0  0  0
 22 23  1  0  0  0  0
 22 24  1  0  0  0  0
 22 39  1  0  0  0  0
 25 49  2  0  0  0  0
 25 12  1  0  0  0  0
 26 27  1  0  0  0  0
 26 42  1  0  0  0  0
 28 26  1  0  0  0  0
 29 22  1  0  0  0  0
 30 29  1  0  0  0  0
 31 29  1  0  0  0  0
 32 34  1  0  0  0  0
 32 19  1  0  0  0  0
 33 32  1  0  0  0  0
 35 38  1  0  0  0  0
 35 37  1  0  0  0  0
 35 36  1  0  0  0  0
 39 35  1  0  0  0  0
 40 39  1  0  0  0  0
 41 39  1  0  0  0  0
 42 43  1  0  0  0  0
 42 32  1  0  0  0  0
 44 42  1  0  0  0  0
 45 48  1  0  0  0  0
 45 26  1  0  0  0  0
 46 45  1  0  0  0  0
 47 45  1  0  0  0  0
M  END
$$$$
