CSD_code = SORZEG | q = 0 | S = 0 | Stoichiometry = C20H43Cl2NP2Ru | MND = 5
 OpenBabel04212202103D

 69 70  0  0  1  0  0  0  0  0999 V2000
    1.9300    5.2226    2.9251 Ru  0  0  0  0  0  0  0  0  0  0  0  0
    4.0533    5.8255    3.7334 Cl  0  0  0  0  0  0  0  0  0  0  0  0
    2.8027    3.4866    1.6189 Cl  0  0  0  0  0  0  0  0  0  0  0  0
    1.8135    6.8598    1.2833 P   0  0  0  0  0  4  0  0  0  0  0  0
    1.4011    3.7528    4.6157 P   0  0  0  0  0  4  0  0  0  0  0  0
    0.1120    4.7955    2.2874 N   0  0  1  0  0  0  0  0  0  0  0  0
   -0.5868    5.6146    1.5950 C   0  0  0  0  0  3  0  0  0  0  0  0
   -0.0576    6.9706    1.2892 C   0  0  0  0  0  0  0  0  0  0  0  0
   -0.3869    3.4725    2.5776 C   0  0  0  0  0  0  0  0  0  0  0  0
   -0.3125    3.2371    4.0880 C   0  0  0  0  0  0  0  0  0  0  0  0
    2.3037    8.6338    1.7237 C   0  0  0  0  0  0  0  0  0  0  0  0
    3.7984    8.7948    1.4484 C   0  0  0  0  0  0  0  0  0  0  0  0
    2.0961    8.7482    3.2385 C   0  0  0  0  0  0  0  0  0  0  0  0
    1.4999    9.7369    1.0357 C   0  0  0  0  0  0  0  0  0  0  0  0
    2.1991    6.4752   -0.5256 C   0  0  0  0  0  0  0  0  0  0  0  0
    1.3281    5.2713   -0.9017 C   0  0  0  0  0  0  0  0  0  0  0  0
    1.9314    7.6053   -1.5170 C   0  0  0  0  0  0  0  0  0  0  0  0
    3.6683    6.0494   -0.5885 C   0  0  0  0  0  0  0  0  0  0  0  0
    1.0439    4.8942    6.0821 C   0  0  0  0  0  0  0  0  0  0  0  0
    0.5335    6.1620    5.3761 C   0  0  0  0  0  0  0  0  0  0  0  0
    2.3632    5.2375    6.7742 C   0  0  0  0  0  0  0  0  0  0  0  0
    0.0168    4.4296    7.1127 C   0  0  0  0  0  0  0  0  0  0  0  0
    2.2501    2.1541    5.1275 C   0  0  0  0  0  0  0  0  0  0  0  0
    2.0098    1.1273    4.0156 C   0  0  0  0  0  0  0  0  0  0  0  0
    1.7584    1.5926    6.4587 C   0  0  0  0  0  0  0  0  0  0  0  0
    3.7464    2.4682    5.1713 C   0  0  0  0  0  0  0  0  0  0  0  0
   -1.5710    5.3332    1.2203 H   0  0  0  0  0  0  0  0  0  0  0  0
   -0.3247    7.6510    2.1078 H   0  0  0  0  0  0  0  0  0  0  0  0
   -0.4778    7.3712    0.3648 H   0  0  0  0  0  0  0  0  0  0  0  0
    0.2767    2.7657    2.0631 H   0  0  0  0  0  0  0  0  0  0  0  0
   -1.4126    3.3429    2.2047 H   0  0  0  0  0  0  0  0  0  0  0  0
   -0.5260    2.1975    4.3326 H   0  0  0  0  0  0  0  0  0  0  0  0
   -1.0564    3.8676    4.5802 H   0  0  0  0  0  0  0  0  0  0  0  0
    4.3421    7.9418    1.8552 H   0  0  0  0  0  0  0  0  0  0  0  0
    4.1715    9.6960    1.9336 H   0  0  0  0  0  0  0  0  0  0  0  0
    4.0044    8.8784    0.3844 H   0  0  0  0  0  0  0  0  0  0  0  0
    2.7179    8.0149    3.7560 H   0  0  0  0  0  0  0  0  0  0  0  0
    1.0498    8.6114    3.5176 H   0  0  0  0  0  0  0  0  0  0  0  0
    2.3998    9.7373    3.5793 H   0  0  0  0  0  0  0  0  0  0  0  0
    1.6471    9.7464   -0.0383 H   0  0  0  0  0  0  0  0  0  0  0  0
    1.8311   10.7005    1.4229 H   0  0  0  0  0  0  0  0  0  0  0  0
    0.4349    9.6483    1.2391 H   0  0  0  0  0  0  0  0  0  0  0  0
    0.2729    5.5333   -0.9556 H   0  0  0  0  0  0  0  0  0  0  0  0
    1.4628    4.4635   -0.1832 H   0  0  0  0  0  0  0  0  0  0  0  0
    1.6307    4.8983   -1.8791 H   0  0  0  0  0  0  0  0  0  0  0  0
    0.9174    7.9912   -1.4264 H   0  0  0  0  0  0  0  0  0  0  0  0
    2.0497    7.2176   -2.5286 H   0  0  0  0  0  0  0  0  0  0  0  0
    2.6379    8.4221   -1.3960 H   0  0  0  0  0  0  0  0  0  0  0  0
    3.8790    5.3156    0.1888 H   0  0  0  0  0  0  0  0  0  0  0  0
    4.3409    6.8918   -0.4563 H   0  0  0  0  0  0  0  0  0  0  0  0
    3.8824    5.5907   -1.5525 H   0  0  0  0  0  0  0  0  0  0  0  0
   -0.4617    6.0182    4.9493 H   0  0  0  0  0  0  0  0  0  0  0  0
    1.2404    6.4425    4.5672 H   0  0  0  0  0  0  0  0  0  0  0  0
    0.4847    6.9982    6.0739 H   0  0  0  0  0  0  0  0  0  0  0  0
    2.7256    4.4036    7.3704 H   0  0  0  0  0  0  0  0  0  0  0  0
    2.2246    6.0880    7.4417 H   0  0  0  0  0  0  0  0  0  0  0  0
    3.1227    5.5023    6.0361 H   0  0  0  0  0  0  0  0  0  0  0  0
    0.3980    3.6114    7.7150 H   0  0  0  0  0  0  0  0  0  0  0  0
   -0.9169    4.1103    6.6549 H   0  0  0  0  0  0  0  0  0  0  0  0
   -0.2087    5.2589    7.7835 H   0  0  0  0  0  0  0  0  0  0  0  0
    0.9888    0.7509    4.0148 H   0  0  0  0  0  0  0  0  0  0  0  0
    2.6746    0.2779    4.1641 H   0  0  0  0  0  0  0  0  0  0  0  0
    2.2355    1.5614    3.0427 H   0  0  0  0  0  0  0  0  0  0  0  0
    0.6728    1.5051    6.4738 H   0  0  0  0  0  0  0  0  0  0  0  0
    2.0768    2.2114    7.2936 H   0  0  0  0  0  0  0  0  0  0  0  0
    2.1790    0.5981    6.6040 H   0  0  0  0  0  0  0  0  0  0  0  0
    4.0588    2.9024    4.2212 H   0  0  0  0  0  0  0  0  0  0  0  0
    4.3187    1.5568    5.3361 H   0  0  0  0  0  0  0  0  0  0  0  0
    3.9908    3.1741    5.9602 H   0  0  0  0  0  0  0  0  0  0  0  0
  1  2  1  0  0  0  0
  1  5  1  0  0  0  0
  3  1  1  0  0  0  0
  4  8  1  0  0  0  0
  4 11  1  0  0  0  0
  4  1  1  0  0  0  0
  5 23  1  0  0  0  0
  5 19  1  0  0  0  0
  6  7  1  6  0  0  0
  6  9  1  0  0  0  0
  6  1  1  0  0  0  0
  8  7  1  0  0  0  0
  8 28  1  0  0  0  0
  9 10  1  0  0  0  0
 10 32  1  0  0  0  0
 10 33  1  0  0  0  0
 10  5  1  0  0  0  0
 11 13  1  0  0  0  0
 12 11  1  0  0  0  0
 12 34  1  0  0  0  0
 12 35  1  0  0  0  0
 13 38  1  0  0  0  0
 13 39  1  0  0  0  0
 13 37  1  0  0  0  0
 14 42  1  0  0  0  0
 14 41  1  0  0  0  0
 14 11  1  0  0  0  0
 15  4  1  0  0  0  0
 16 15  1  0  0  0  0
 16 44  1  0  0  0  0
 17 46  1  0  0  0  0
 17 48  1  0  0  0  0
 17 15  1  0  0  0  0
 18 15  1  0  0  0  0
 18 50  1  0  0  0  0
 18 49  1  0  0  0  0
 19 21  1  0  0  0  0
 19 22  1  0  0  0  0
 20 54  1  0  0  0  0
 20 19  1  0  0  0  0
 21 55  1  0  0  0  0
 21 56  1  0  0  0  0
 22 58  1  0  0  0  0
 22 60  1  0  0  0  0
 23 26  1  0  0  0  0
 23 25  1  0  0  0  0
 24 62  1  0  0  0  0
 24 23  1  0  0  0  0
 25 64  1  0  0  0  0
 25 66  1  0  0  0  0
 25 65  1  0  0  0  0
 26 68  1  0  0  0  0
 26 69  1  0  0  0  0
 27  7  1  0  0  0  0
 29  8  1  0  0  0  0
 30  9  1  0  0  0  0
 31  9  1  0  0  0  0
 36 12  1  0  0  0  0
 40 14  1  0  0  0  0
 43 16  1  0  0  0  0
 45 16  1  0  0  0  0
 47 17  1  0  0  0  0
 51 18  1  0  0  0  0
 52 20  1  0  0  0  0
 53 20  1  0  0  0  0
 57 21  1  0  0  0  0
 59 22  1  0  0  0  0
 61 24  1  0  0  0  0
 63 24  1  0  0  0  0
 67 26  1  0  0  0  0
M  END
$$$$
