CSD_code = SOSGUD | q = 0 | S = 0 | Stoichiometry = C11H16Cl2N4Zn | MND = 4
 OpenBabel04212202103D

 34 36  0  0  1  0  0  0  0  0999 V2000
    0.0636    1.4946    8.2199 Zn  0  0  0  0  0  0  0  0  0  0  0  0
    1.7164    2.8351    7.6204 Cl  0  0  0  0  0  0  0  0  0  0  0  0
   -0.4083   -0.4775    7.3038 Cl  0  0  0  0  0  0  0  0  0  0  0  0
   -1.9280    2.1125    8.5591 N   0  0  1  0  0  0  0  0  0  0  0  0
   -4.0249    1.3068    7.6414 N   0  0  0  0  0  0  0  0  0  0  0  0
   -2.5865    2.4106    6.3630 N   0  0  0  0  0  0  0  0  0  0  0  0
    0.1785    1.6506   10.3082 N   0  0  0  0  0  0  0  0  0  0  0  0
   -2.8058    1.9395    7.6184 C   0  0  0  0  0  3  0  0  0  0  0  0
   -4.9551    1.1565    8.7343 C   0  0  0  0  0  0  0  0  0  0  0  0
   -4.4985    0.6803    9.5952 H   0  0  0  0  0  0  0  0  0  0  0  0
   -5.7608    0.5092    8.3882 H   0  0  0  0  0  0  0  0  0  0  0  0
   -5.3917    2.1163    9.0364 H   0  0  0  0  0  0  0  0  0  0  0  0
   -4.6437    1.3779    6.3263 C   0  0  0  0  0  0  0  0  0  0  0  0
   -5.4397    2.1361    6.3175 H   0  0  0  0  0  0  0  0  0  0  0  0
   -5.0757    0.4096    6.0650 H   0  0  0  0  0  0  0  0  0  0  0  0
   -3.4838    1.7736    5.4230 C   0  0  0  0  0  0  0  0  0  0  0  0
   -3.0057    0.8946    4.9709 H   0  0  0  0  0  0  0  0  0  0  0  0
   -3.7704    2.4710    4.6329 H   0  0  0  0  0  0  0  0  0  0  0  0
   -1.3387    2.9234    5.8690 C   0  0  0  0  0  0  0  0  0  0  0  0
   -0.8805    3.5672    6.6169 H   0  0  0  0  0  0  0  0  0  0  0  0
   -1.5474    3.5156    4.9776 H   0  0  0  0  0  0  0  0  0  0  0  0
   -0.6396    2.1232    5.5997 H   0  0  0  0  0  0  0  0  0  0  0  0
   -2.2029    1.7337    9.9277 C   0  0  0  0  0  0  0  0  0  0  0  0
   -2.4136    0.6550    9.9901 H   0  0  0  0  0  0  0  0  0  0  0  0
   -3.0539    2.2945   10.3306 H   0  0  0  0  0  0  0  0  0  0  0  0
   -1.0080    1.9698   10.8086 C   0  0  1  0  0  3  0  0  0  0  0  0
   -1.1394    2.4499   12.1071 C   0  0  0  0  0  0  0  0  0  0  0  0
   -2.1141    2.7041   12.4947 H   0  0  0  0  0  0  0  0  0  0  0  0
   -0.0049    2.6025   12.8851 C   0  0  0  0  0  0  0  0  0  0  0  0
   -0.0806    2.9775   13.8945 H   0  0  0  0  0  0  0  0  0  0  0  0
    1.2288    2.2729   12.3432 C   0  0  0  0  0  0  0  0  0  0  0  0
    2.1372    2.3828   12.9130 H   0  0  0  0  0  0  0  0  0  0  0  0
    1.2717    1.8039   11.0424 C   0  0  0  0  0  0  0  0  0  0  0  0
    2.2047    1.5473   10.5619 H   0  0  0  0  0  0  0  0  0  0  0  0
  1  4  1  0  0  0  0
  1  7  1  0  0  0  0
  2  1  1  0  0  0  0
  3  1  1  0  0  0  0
  4  8  1  6  0  0  0
  4 23  1  0  0  0  0
  5  9  1  0  0  0  0
  6  8  1  0  0  0  0
  7 26  1  0  0  0  0
  7 33  1  0  0  0  0
  8  5  1  0  0  0  0
  9 12  1  0  0  0  0
  9 10  1  0  0  0  0
 11  9  1  0  0  0  0
 13  5  1  0  0  0  0
 14 13  1  0  0  0  0
 15 13  1  0  0  0  0
 16 13  1  0  0  0  0
 16  6  1  0  0  0  0
 17 16  1  0  0  0  0
 18 16  1  0  0  0  0
 19  6  1  0  0  0  0
 19 20  1  0  0  0  0
 21 19  1  0  0  0  0
 22 19  1  0  0  0  0
 23 24  1  0  0  0  0
 23 25  1  0  0  0  0
 23 26  1  0  0  0  0
 26 27  1  1  0  0  0
 27 28  1  0  0  0  0
 27 29  2  0  0  0  0
 29 30  1  0  0  0  0
 31 29  1  0  0  0  0
 31 32  1  0  0  0  0
 33 31  2  0  0  0  0
 34 33  1  0  0  0  0
M  END
$$$$
