CSD_code = SOSGIR | q = 0 | S = 0 | Stoichiometry = C14H16Cl2N4Zn | MND = 4
 OpenBabel04212202103D

 37 40  0  0  1  0  0  0  0  0999 V2000
    2.3814    7.2225    1.8542 Zn  0  0  0  0  0  0  0  0  0  0  0  0
    2.3368    9.3841    1.5449 Cl  0  0  0  0  0  0  0  0  0  0  0  0
    4.2581    6.0050    1.6449 Cl  0  0  0  0  0  0  0  0  0  0  0  0
    1.8662    6.4573    3.7395 N   0  0  0  0  0  0  0  0  0  0  0  0
    3.3992    4.9339    4.7988 N   0  0  0  0  0  0  0  0  0  0  0  0
    3.7131    7.1191    4.9680 N   0  0  0  0  0  0  0  0  0  0  0  0
    0.5848    6.2919    1.3376 N   0  0  0  0  0  0  0  0  0  0  0  0
    2.9242    6.1641    4.4637 C   0  0  0  0  0  3  0  0  0  0  0  0
    3.1220    3.7460    4.0217 C   0  0  0  0  0  0  0  0  0  0  0  0
    2.0493    3.5859    3.9435 H   0  0  0  0  0  0  0  0  0  0  0  0
    3.5688    2.8964    4.5350 H   0  0  0  0  0  0  0  0  0  0  0  0
    3.5501    3.8364    3.0180 H   0  0  0  0  0  0  0  0  0  0  0  0
    4.7676    5.0696    5.2849 C   0  0  0  0  0  0  0  0  0  0  0  0
    5.4634    4.7055    4.5217 H   0  0  0  0  0  0  0  0  0  0  0  0
    4.8960    4.4823    6.1976 H   0  0  0  0  0  0  0  0  0  0  0  0
    4.9345    6.5749    5.5180 C   0  0  0  0  0  0  0  0  0  0  0  0
    5.0118    6.8290    6.5813 H   0  0  0  0  0  0  0  0  0  0  0  0
    5.8046    6.9831    4.9951 H   0  0  0  0  0  0  0  0  0  0  0  0
    3.5401    8.5353    4.8141 C   0  0  0  0  0  0  0  0  0  0  0  0
    2.5112    8.7461    4.5307 H   0  0  0  0  0  0  0  0  0  0  0  0
    4.2047    8.9292    4.0397 H   0  0  0  0  0  0  0  0  0  0  0  0
    3.7647    9.0294    5.7613 H   0  0  0  0  0  0  0  0  0  0  0  0
    0.7429    5.6864    3.6433 C   0  0  0  0  0  0  0  0  0  0  0  0
    0.1858    5.0170    4.7243 C   0  0  0  0  0  0  0  0  0  0  0  0
    0.7039    5.0384    5.6720 H   0  0  0  0  0  0  0  0  0  0  0  0
   -1.0295    4.3424    4.6116 C   0  0  0  0  0  0  0  0  0  0  0  0
   -1.4268    3.8368    5.4793 H   0  0  0  0  0  0  0  0  0  0  0  0
   -1.7210    4.3192    3.4281 C   0  0  0  0  0  0  0  0  0  0  0  0
   -2.6633    3.8005    3.3421 H   0  0  0  0  0  0  0  0  0  0  0  0
   -1.2006    4.9816    2.3014 C   0  0  0  0  0  0  0  0  0  0  0  0
   -1.8517    5.0009    1.0506 C   0  0  0  0  0  0  0  0  0  0  0  0
   -2.8016    4.4966    0.9456 H   0  0  0  0  0  0  0  0  0  0  0  0
   -1.2752    5.6555   -0.0043 C   0  0  0  0  0  0  0  0  0  0  0  0
   -1.7479    5.6904   -0.9729 H   0  0  0  0  0  0  0  0  0  0  0  0
   -0.0418    6.2921    0.1859 C   0  0  0  0  0  0  0  0  0  0  0  0
    0.4405    6.8174   -0.6268 H   0  0  0  0  0  0  0  0  0  0  0  0
    0.0409    5.6668    2.4010 C   0  0  2  0  0  3  0  0  0  0  0  0
  1  4  1  0  0  0  0
  2  1  1  0  0  0  0
  3  1  1  0  0  0  0
  4  8  1  0  0  0  0
  5 13  1  0  0  0  0
  6 16  1  0  0  0  0
  7  1  1  0  0  0  0
  7 37  1  0  0  0  0
  8  5  1  0  0  0  0
  8  6  1  0  0  0  0
  9 11  1  0  0  0  0
  9  5  1  0  0  0  0
 10  9  1  0  0  0  0
 12  9  1  0  0  0  0
 13 16  1  0  0  0  0
 13 15  1  0  0  0  0
 14 13  1  0  0  0  0
 16 17  1  0  0  0  0
 18 16  1  0  0  0  0
 19  6  1  0  0  0  0
 19 22  1  0  0  0  0
 20 19  1  0  0  0  0
 21 19  1  0  0  0  0
 23  4  1  0  0  0  0
 23 24  2  0  0  0  0
 24 25  1  0  0  0  0
 26 24  1  0  0  0  0
 26 27  1  0  0  0  0
 28 26  2  0  0  0  0
 29 28  1  0  0  0  0
 30 28  1  0  0  0  0
 31 30  2  0  0  0  0
 32 31  1  0  0  0  0
 33 35  2  0  0  0  0
 33 31  1  0  0  0  0
 34 33  1  0  0  0  0
 35  7  1  0  0  0  0
 36 35  1  0  0  0  0
 37 30  1  6  0  0  0
 37 23  1  0  0  0  0
M  END
$$$$
