CSD_code = SOSHUE | q = 0 | S = 0 | Stoichiometry = C11H18Cl2N4Zn | MND = 4
 OpenBabel04212202103D

 36 37  0  0  1  0  0  0  0  0999 V2000
    2.3893    2.8919    1.0647 Zn  0  0  0  0  0  0  0  0  0  0  0  0
    3.1243    3.4635    3.1076 Cl  0  0  0  0  0  0  0  0  0  0  0  0
    3.5787    2.6288   -0.7471 Cl  0  0  0  0  0  0  0  0  0  0  0  0
    0.5474    3.8291    1.0986 N   0  0  0  0  0  0  0  0  0  0  0  0
    1.1909    5.9319    1.7325 N   0  0  0  0  0  0  0  0  0  0  0  0
   -0.4457    4.8329    2.9814 N   0  0  0  0  0  0  0  0  0  0  0  0
    1.1899    1.1826    1.4815 N   0  0  0  0  0  0  0  0  0  0  0  0
    0.4582    4.8164    1.9512 C   0  0  0  0  0  3  0  0  0  0  0  0
    1.8671    6.1032    0.4664 C   0  0  0  0  0  0  0  0  0  0  0  0
    2.8340    5.5876    0.4422 H   0  0  0  0  0  0  0  0  0  0  0  0
    2.0340    7.1695    0.3110 H   0  0  0  0  0  0  0  0  0  0  0  0
    1.2450    5.7104   -0.3343 H   0  0  0  0  0  0  0  0  0  0  0  0
    1.8271    6.6281    2.8335 C   0  0  0  0  0  0  0  0  0  0  0  0
    1.5473    6.1812    3.7816 H   0  0  0  0  0  0  0  0  0  0  0  0
    1.5606    7.6876    2.8245 H   0  0  0  0  0  0  0  0  0  0  0  0
    2.9105    6.5304    2.7411 H   0  0  0  0  0  0  0  0  0  0  0  0
   -1.0656    6.0538    3.4393 C   0  0  0  0  0  0  0  0  0  0  0  0
   -0.6400    6.4196    4.3790 H   0  0  0  0  0  0  0  0  0  0  0  0
   -2.1288    5.8571    3.6048 H   0  0  0  0  0  0  0  0  0  0  0  0
   -0.9674    6.8221    2.6774 H   0  0  0  0  0  0  0  0  0  0  0  0
   -0.5147    3.7282    3.9126 C   0  0  0  0  0  0  0  0  0  0  0  0
   -1.5205    3.2985    3.9491 H   0  0  0  0  0  0  0  0  0  0  0  0
   -0.2519    4.0778    4.9155 H   0  0  0  0  0  0  0  0  0  0  0  0
    0.2031    2.9622    3.6318 H   0  0  0  0  0  0  0  0  0  0  0  0
   -0.5039    2.8455    0.9980 C   0  0  0  0  0  0  0  0  0  0  0  0
   -0.7308    2.7460   -0.0742 H   0  0  0  0  0  0  0  0  0  0  0  0
   -1.4184    3.1691    1.5068 H   0  0  0  0  0  0  0  0  0  0  0  0
   -0.1056    1.4733    1.4725 C   0  0  1  0  0  3  0  0  0  0  0  0
   -1.0618    0.5324    1.8434 C   0  0  0  0  0  0  0  0  0  0  0  0
   -2.1087    0.7935    1.8238 H   0  0  0  0  0  0  0  0  0  0  0  0
   -0.6488   -0.7286    2.2331 C   0  0  0  0  0  0  0  0  0  0  0  0
   -1.3714   -1.4748    2.5283 H   0  0  0  0  0  0  0  0  0  0  0  0
    0.7086   -1.0166    2.2386 C   0  0  0  0  0  0  0  0  0  0  0  0
    1.0733   -1.9864    2.5361 H   0  0  0  0  0  0  0  0  0  0  0  0
    1.5925   -0.0257    1.8530 C   0  0  0  0  0  0  0  0  0  0  0  0
    2.6604   -0.1921    1.8390 H   0  0  0  0  0  0  0  0  0  0  0  0
  1  4  1  0  0  0  0
  1  7  1  0  0  0  0
  1  2  1  0  0  0  0
  3  1  1  0  0  0  0
  4  8  1  0  0  0  0
  5  8  1  0  0  0  0
  5 13  1  0  0  0  0
  6 17  1  0  0  0  0
  6 21  1  0  0  0  0
  7 35  1  0  0  0  0
  8  6  1  0  0  0  0
  9  5  1  0  0  0  0
 10  9  1  0  0  0  0
 11  9  1  0  0  0  0
 12  9  1  0  0  0  0
 13 14  1  0  0  0  0
 15 13  1  0  0  0  0
 16 13  1  0  0  0  0
 17 19  1  0  0  0  0
 17 18  1  0  0  0  0
 20 17  1  0  0  0  0
 21 22  1  0  0  0  0
 21 23  1  0  0  0  0
 24 21  1  0  0  0  0
 25  4  1  0  0  0  0
 25 28  1  0  0  0  0
 25 27  1  0  0  0  0
 26 25  1  0  0  0  0
 28  7  1  0  0  0  0
 28 29  1  6  0  0  0
 29 31  2  0  0  0  0
 30 29  1  0  0  0  0
 31 33  1  0  0  0  0
 31 32  1  0  0  0  0
 33 34  1  0  0  0  0
 35 33  2  0  0  0  0
 36 35  1  0  0  0  0
M  END
$$$$
