CSD_code = SOSQOG | q = 1 | S = 0 | Stoichiometry = C14H18Cl2N4ORe(1+) | MND = 7
 OpenBabel04212202103D

 40 43  0  0  1  0  0  0  0  0999 V2000
    6.2790    4.2910   11.8321 Re  0  0  0  0  0  0  0  0  0  0  0  0
    8.0865    5.2252   12.9146 Cl  0  0  0  0  0  0  0  0  0  0  0  0
    4.3393    3.0492   11.7534 Cl  0  0  0  0  0  0  0  0  0  0  0  0
    6.4877    4.7791   10.2451 O   0  0  0  0  0  1  0  0  0  0  0  0
    6.7167    2.5421   13.5392 N   0  0  0  0  0  0  0  0  0  0  0  0
    5.3249    4.8290   14.0594 N   0  0  2  0  0  4  0  0  0  0  0  0
    7.5096    2.5282   11.0151 N   0  0  0  0  0  0  0  0  0  0  0  0
    5.1523    6.2961   11.8646 N   0  0  0  0  0  0  0  0  0  0  0  0
    6.5187    2.9346   14.9333 C   0  0  0  0  0  0  0  0  0  0  0  0
    5.2147    3.7171   15.0021 C   0  0  0  0  0  0  0  0  0  0  0  0
    8.0174    1.9329   13.2941 C   0  0  0  0  0  0  0  0  0  0  0  0
    8.1730    1.6997   11.8200 C   0  0  2  0  0  3  0  0  0  0  0  0
    8.9749    0.6843   11.3153 C   0  0  0  0  0  0  0  0  0  0  0  0
    9.0803    0.5225    9.9447 C   0  0  0  0  0  0  0  0  0  0  0  0
    8.3702    1.3813    9.1188 C   0  0  0  0  0  0  0  0  0  0  0  0
    7.6011    2.3723    9.6986 C   0  0  0  0  0  0  0  0  0  0  0  0
    4.0791    5.5666   13.8948 C   0  0  0  0  0  0  0  0  0  0  0  0
    4.2605    6.5874   12.8101 C   0  0  2  0  0  3  0  0  0  0  0  0
    3.5310    7.7688   12.7805 C   0  0  0  0  0  0  0  0  0  0  0  0
    3.7419    8.6695   11.7508 C   0  0  0  0  0  0  0  0  0  0  0  0
    4.6859    8.3610   10.7827 C   0  0  0  0  0  0  0  0  0  0  0  0
    5.3641    7.1606   10.8778 C   0  0  0  0  0  0  0  0  0  0  0  0
    5.9816    1.8753   13.2851 H   0  0  0  0  0  0  0  0  0  0  0  0
    6.0498    5.4683   14.3994 H   0  0  0  0  0  0  0  0  0  0  0  0
    7.3550    3.5751   15.2291 H   0  0  0  0  0  0  0  0  0  0  0  0
    6.4875    2.0645   15.5995 H   0  0  0  0  0  0  0  0  0  0  0  0
    4.3811    3.0831   14.6851 H   0  0  0  0  0  0  0  0  0  0  0  0
    5.0231    4.0681   16.0230 H   0  0  0  0  0  0  0  0  0  0  0  0
    8.1504    0.9958   13.8493 H   0  0  0  0  0  0  0  0  0  0  0  0
    8.7911    2.6398   13.6189 H   0  0  0  0  0  0  0  0  0  0  0  0
    9.5057    0.0370   11.9950 H   0  0  0  0  0  0  0  0  0  0  0  0
    9.6990   -0.2582    9.5308 H   0  0  0  0  0  0  0  0  0  0  0  0
    8.4121    1.2917    8.0461 H   0  0  0  0  0  0  0  0  0  0  0  0
    7.0419    3.0802    9.0979 H   0  0  0  0  0  0  0  0  0  0  0  0
    3.7528    6.0467   14.8260 H   0  0  0  0  0  0  0  0  0  0  0  0
    3.3028    4.8579   13.5808 H   0  0  0  0  0  0  0  0  0  0  0  0
    2.8101    7.9694   13.5569 H   0  0  0  0  0  0  0  0  0  0  0  0
    3.1851    9.5923   11.7070 H   0  0  0  0  0  0  0  0  0  0  0  0
    4.8930    9.0325    9.9660 H   0  0  0  0  0  0  0  0  0  0  0  0
    6.0980    6.8638   10.1377 H   0  0  0  0  0  0  0  0  0  0  0  0
  1  8  1  0  0  0  0
  1  2  1  0  0  0  0
  1  6  1  0  0  0  0
  3  1  1  0  0  0  0
  4  1  1  0  0  0  0
  5  9  1  0  0  0  0
  6 24  1  1  0  0  0
  6 10  1  0  0  0  0
  7 12  1  0  0  0  0
  7  1  1  0  0  0  0
  8 18  1  0  0  0  0
  9 10  1  0  0  0  0
  9 25  1  0  0  0  0
  9 26  1  0  0  0  0
 10 28  1  0  0  0  0
 11  5  1  0  0  0  0
 11 30  1  0  0  0  0
 11 29  1  0  0  0  0
 12 13  1  6  0  0  0
 12 11  1  0  0  0  0
 13 31  1  0  0  0  0
 14 13  2  0  0  0  0
 15 16  2  0  0  0  0
 15 14  1  0  0  0  0
 16  7  1  0  0  0  0
 17  6  1  0  0  0  0
 17 35  1  0  0  0  0
 18 19  1  6  0  0  0
 18 17  1  0  0  0  0
 19 37  1  0  0  0  0
 20 19  2  0  0  0  0
 21 22  2  0  0  0  0
 21 20  1  0  0  0  0
 22  8  1  0  0  0  0
 23  5  1  0  0  0  0
 27 10  1  0  0  0  0
 32 14  1  0  0  0  0
 33 15  1  0  0  0  0
 34 16  1  0  0  0  0
 36 17  1  0  0  0  0
 38 20  1  0  0  0  0
 39 21  1  0  0  0  0
 40 22  1  0  0  0  0
M  END
$$$$
