CSD_code = SOSXOO | q = 0 | S = 0 | Stoichiometry = C21H31ClN3ORh | MND = 6
 OpenBabel04212202103D

 58 60  0  0  1  0  0  0  0  0999 V2000
    3.7270    3.6965    3.3144 C   0  0  0  0  0  0  0  0  0  0  0  0
    4.0246    3.7798    5.5162 C   0  0  0  0  0  0  0  0  0  0  0  0
    4.2766    2.8933    6.1029 H   0  0  0  0  0  0  0  0  0  0  0  0
    3.5294    4.5079    6.1618 H   0  0  0  0  0  0  0  0  0  0  0  0
    5.2509    4.3599    4.7559 C   0  0  2  0  0  0  0  0  0  0  0  0
    6.1424    3.7478    4.9329 H   0  0  0  0  0  0  0  0  0  0  0  0
    5.6179    5.8263    5.0783 C   0  0  0  0  0  0  0  0  0  0  0  0
    6.8256    6.1992    4.2144 C   0  0  0  0  0  0  0  0  0  0  0  0
    7.6867    5.5897    4.4778 H   0  0  0  0  0  0  0  0  0  0  0  0
    7.0857    7.2448    4.3593 H   0  0  0  0  0  0  0  0  0  0  0  0
    6.5956    6.0320    3.1662 H   0  0  0  0  0  0  0  0  0  0  0  0
    4.4579    6.7678    4.7494 C   0  0  0  0  0  0  0  0  0  0  0  0
    4.7449    7.7954    4.9589 H   0  0  0  0  0  0  0  0  0  0  0  0
    3.5734    6.5385    5.3397 H   0  0  0  0  0  0  0  0  0  0  0  0
    4.1984    6.6893    3.6964 H   0  0  0  0  0  0  0  0  0  0  0  0
    5.9944    5.9473    6.5560 C   0  0  0  0  0  0  0  0  0  0  0  0
    6.8028    5.2624    6.8023 H   0  0  0  0  0  0  0  0  0  0  0  0
    5.1496    5.7254    7.2035 H   0  0  0  0  0  0  0  0  0  0  0  0
    6.3281    6.9600    6.7691 H   0  0  0  0  0  0  0  0  0  0  0  0
    2.9666    3.4198    2.0555 C   0  0  0  0  0  0  0  0  0  0  0  0
    3.6747    3.3171    1.2294 H   0  0  0  0  0  0  0  0  0  0  0  0
    2.3709    2.5007    2.1648 H   0  0  0  0  0  0  0  0  0  0  0  0
    0.7028    4.3778    1.8326 C   0  0  1  0  0  3  0  0  0  0  0  0
    1.2533    6.4408    1.1925 C   0  0  0  0  0  0  0  0  0  0  0  0
    1.0991    7.4520    0.8788 H   0  0  0  0  0  0  0  0  0  0  0  0
    2.4026    5.7583    1.3955 C   0  0  0  0  0  0  0  0  0  0  0  0
    3.4271    6.0518    1.2942 H   0  0  0  0  0  0  0  0  0  0  0  0
   -1.1889    5.8455    1.2561 C   0  0  0  0  0  0  0  0  0  0  0  0
   -1.7137    4.9557    1.6465 H   0  0  0  0  0  0  0  0  0  0  0  0
   -1.6310    7.0858    2.0257 C   0  0  0  0  0  0  0  0  0  0  0  0
   -1.3544    7.0022    3.0744 H   0  0  0  0  0  0  0  0  0  0  0  0
   -2.7099    7.1935    1.9593 H   0  0  0  0  0  0  0  0  0  0  0  0
   -1.1732    7.9827    1.6145 H   0  0  0  0  0  0  0  0  0  0  0  0
   -1.4714    5.9551   -0.2398 C   0  0  0  0  0  0  0  0  0  0  0  0
   -0.9356    6.7954   -0.6761 H   0  0  0  0  0  0  0  0  0  0  0  0
   -2.5355    6.0917   -0.4095 H   0  0  0  0  0  0  0  0  0  0  0  0
   -1.1535    5.0381   -0.7316 H   0  0  0  0  0  0  0  0  0  0  0  0
   -1.2558    2.9887    3.9608 C   0  0  2  0  0  0  0  0  0  0  0  0
   -1.4484    3.9882    4.3284 H   0  0  0  0  0  0  0  0  0  0  0  0
   -0.0707    2.2671    4.1256 C   0  0  0  0  0  3  0  0  0  0  0  0
    0.8240    2.6104    4.6262 H   0  0  0  0  0  0  0  0  0  0  0  0
   -0.4632    0.7901    4.0504 C   0  0  2  0  0  0  0  0  0  0  0  0
    0.2571    0.0715    4.4340 H   0  0  0  0  0  0  0  0  0  0  0  0
   -0.8423    0.6659    2.5740 C   0  0  0  0  0  0  0  0  0  0  0  0
   -0.4384   -0.0860    1.9080 H   0  0  0  0  0  0  0  0  0  0  0  0
   -2.0103    1.3768    2.4115 C   0  0  0  0  0  0  0  0  0  0  0  0
   -2.7132    1.2988    1.5918 H   0  0  0  0  0  0  0  0  0  0  0  0
   -2.3633    1.9464    3.7868 C   0  0  1  0  0  0  0  0  0  0  0  0
   -3.3861    2.2878    3.9283 H   0  0  0  0  0  0  0  0  0  0  0  0
   -1.8542    0.8222    4.7007 C   0  0  0  0  0  0  0  0  0  0  0  0
   -1.8285    1.1045    5.7540 H   0  0  0  0  0  0  0  0  0  0  0  0
   -2.4057   -0.1111    4.5802 H   0  0  0  0  0  0  0  0  0  0  0  0
   -0.1488    2.4676   -0.1495 Cl  0  0  0  0  0 15  0  0  0  0  0  0
    4.8777    4.2090    3.3643 N   0  0  0  0  0  0  0  0  0  0  0  0
    2.0450    4.4923    1.7808 N   0  0  0  0  0  0  0  0  0  0  0  0
    0.2215    5.5806    1.4654 N   0  0  0  0  0  0  0  0  0  0  0  0
    3.1176    3.4018    4.4861 O   0  0  0  0  0  0  0  0  0  0  0  0
   -0.3495    2.6994    2.0868 Rh  0  0  0  0  0  0  0  0  0  0  0  0
  1 54  2  0  0  0  0
  1 57  1  0  0  0  0
  2  3  1  0  0  0  0
  2  4  1  0  0  0  0
  5  6  1  1  0  0  0
  5  7  1  0  0  0  0
  5  2  1  0  0  0  0
  7 16  1  0  0  0  0
  8 10  1  0  0  0  0
  8  9  1  0  0  0  0
  8  7  1  0  0  0  0
 11  8  1  0  0  0  0
 12 13  1  0  0  0  0
 12  7  1  0  0  0  0
 12 14  1  0  0  0  0
 15 12  1  0  0  0  0
 16 19  1  0  0  0  0
 16 17  1  0  0  0  0
 16 18  1  0  0  0  0
 20 22  1  0  0  0  0
 20  1  1  0  0  0  0
 21 20  1  0  0  0  0
 23 58  1  6  0  0  0
 24 26  2  0  0  0  0
 24 56  1  0  0  0  0
 25 24  1  0  0  0  0
 26 55  1  0  0  0  0
 27 26  1  0  0  0  0
 28 56  1  0  0  0  0
 28 29  1  0  0  0  0
 28 30  1  0  0  0  0
 30 31  1  0  0  0  0
 32 30  1  0  0  0  0
 33 30  1  0  0  0  0
 34 28  1  0  0  0  0
 35 34  1  0  0  0  0
 36 34  1  0  0  0  0
 37 34  1  0  0  0  0
 38 40  1  0  0  0  0
 38 39  1  1  0  0  0
 40 41  1  0  0  0  0
 42 40  1  0  0  0  0
 42 43  1  1  0  0  0
 42 50  1  0  0  0  0
 44 42  1  0  0  0  0
 45 44  1  0  0  0  0
 46 44  2  0  0  0  0
 46 48  1  0  0  0  0
 47 46  1  0  0  0  0
 48 49  1  1  0  0  0
 48 38  1  0  0  0  0
 48 50  1  0  0  0  0
 50 51  1  0  0  0  0
 52 50  1  0  0  0  0
 54  5  1  0  0  0  0
 55 23  1  0  0  0  0
 55 20  1  0  0  0  0
 56 23  1  0  0  0  0
 57  2  1  0  0  0  0
 58 38  1  0  0  0  0
M  END
$$$$
