CSD_code = SOVLOE | q = 0 | S = 0 | Stoichiometry = C19H33Cl2N2Ta | MND = 7
 OpenBabel04212202103D

 57 57  0  0  0  0  0  0  0  0999 V2000
    2.4894    2.3753    3.4968 Ta  0  0  0  0  0  0  0  0  0  0  0  0
    0.9461    1.3376    4.8484 Cl  0  0  0  0  0  0  0  0  0  0  0  0
    4.0530    3.3944    2.1480 Cl  0  0  0  0  0  0  0  0  0  0  0  0
    1.0834    2.0690    1.2831 N   0  0  0  0  0  0  0  0  0  0  0  0
    4.3080    1.1650    5.0102 N   0  0  0  0  0  0  0  0  0  0  0  0
    2.9805    0.4433    2.6118 C   0  0  0  0  0  0  0  0  0  0  0  0
    3.6436   -0.5415    3.3453 C   0  0  0  0  0  0  0  0  0  0  0  0
    3.9627   -1.7696    2.7831 C   0  0  0  0  0  0  0  0  0  0  0  0
    3.6089   -2.0384    1.4717 C   0  0  0  0  0  0  0  0  0  0  0  0
    2.9482   -1.0801    0.7218 C   0  0  0  0  0  0  0  0  0  0  0  0
    2.6464    0.1498    1.2891 C   0  0  0  0  0  0  0  0  0  0  0  0
    1.9978    1.2463    0.4775 C   0  0  0  0  0  0  0  0  0  0  0  0
   -0.1266    1.3142    1.5829 C   0  0  0  0  0  0  0  0  0  0  0  0
    0.7599    3.3054    0.5873 C   0  0  0  0  0  0  0  0  0  0  0  0
    3.9539   -0.2444    4.7941 C   0  0  0  0  0  0  0  0  0  0  0  0
    4.2554    1.5033    6.4236 C   0  0  0  0  0  0  0  0  0  0  0  0
    5.6310    1.4364    4.4646 C   0  0  0  0  0  0  0  0  0  0  0  0
    2.5140    4.2321    4.8662 C   0  0  0  0  0  0  0  0  0  0  0  0
    1.4997    4.4577    3.9023 C   0  0  0  0  0  3  0  0  0  0  0  0
    0.0472    4.4806    4.3092 C   0  0  0  0  0  0  0  0  0  0  0  0
   -0.5094    5.8849    4.6411 C   0  0  0  0  0  0  0  0  0  0  0  0
   -1.9367    5.7148    5.1711 C   0  0  0  0  0  0  0  0  0  0  0  0
   -0.5502    6.7612    3.3868 C   0  0  0  0  0  0  0  0  0  0  0  0
    0.3452    6.5622    5.7121 C   0  0  0  0  0  0  0  0  0  0  0  0
    4.4809   -2.5198    3.3656 H   0  0  0  0  0  0  0  0  0  0  0  0
    3.8498   -2.9958    1.0329 H   0  0  0  0  0  0  0  0  0  0  0  0
    2.6758   -1.2916   -0.3038 H   0  0  0  0  0  0  0  0  0  0  0  0
    2.7948    1.9043    0.1132 H   0  0  0  0  0  0  0  0  0  0  0  0
    1.4694    0.8302   -0.3935 H   0  0  0  0  0  0  0  0  0  0  0  0
    0.1462    0.3803    2.0722 H   0  0  0  0  0  0  0  0  0  0  0  0
   -0.7610    1.8854    2.2593 H   0  0  0  0  0  0  0  0  0  0  0  0
   -0.6916    1.0864    0.6694 H   0  0  0  0  0  0  0  0  0  0  0  0
    1.6719    3.8832    0.4413 H   0  0  0  0  0  0  0  0  0  0  0  0
    0.2985    3.1136   -0.3905 H   0  0  0  0  0  0  0  0  0  0  0  0
    0.0686    3.8922    1.1900 H   0  0  0  0  0  0  0  0  0  0  0  0
    3.0485   -0.4479    5.3770 H   0  0  0  0  0  0  0  0  0  0  0  0
    4.7559   -0.9011    5.1642 H   0  0  0  0  0  0  0  0  0  0  0  0
    3.2390    1.3608    6.7889 H   0  0  0  0  0  0  0  0  0  0  0  0
    4.9388    0.8820    7.0179 H   0  0  0  0  0  0  0  0  0  0  0  0
    4.5311    2.5490    6.5542 H   0  0  0  0  0  0  0  0  0  0  0  0
    5.6493    1.1535    3.4132 H   0  0  0  0  0  0  0  0  0  0  0  0
    5.8485    2.5010    4.5410 H   0  0  0  0  0  0  0  0  0  0  0  0
    6.4072    0.8732    4.9995 H   0  0  0  0  0  0  0  0  0  0  0  0
    2.1993    4.0625    5.8910 H   0  0  0  0  0  0  0  0  0  0  0  0
    3.4301    4.8107    4.7884 H   0  0  0  0  0  0  0  0  0  0  0  0
    1.7427    5.1501    3.0984 H   0  0  0  0  0  0  0  0  0  0  0  0
   -0.0805    3.8421    5.1872 H   0  0  0  0  0  0  0  0  0  0  0  0
   -0.5759    4.0635    3.5106 H   0  0  0  0  0  0  0  0  0  0  0  0
   -1.9413    5.1041    6.0712 H   0  0  0  0  0  0  0  0  0  0  0  0
   -2.3723    6.6823    5.4122 H   0  0  0  0  0  0  0  0  0  0  0  0
   -2.5686    5.2315    4.4285 H   0  0  0  0  0  0  0  0  0  0  0  0
    0.4497    6.9442    3.0023 H   0  0  0  0  0  0  0  0  0  0  0  0
   -1.1402    6.2869    2.6046 H   0  0  0  0  0  0  0  0  0  0  0  0
   -1.0028    7.7237    3.6162 H   0  0  0  0  0  0  0  0  0  0  0  0
    0.3830    5.9515    6.6114 H   0  0  0  0  0  0  0  0  0  0  0  0
    1.3606    6.7140    5.3564 H   0  0  0  0  0  0  0  0  0  0  0  0
   -0.0757    7.5310    5.9740 H   0  0  0  0  0  0  0  0  0  0  0  0
  1  2  1  0  0  0  0
  1 18  1  0  0  0  0
  3  1  1  0  0  0  0
  4 13  1  0  0  0  0
  5 16  1  0  0  0  0
  6  7  1  0  0  0  0
  6  1  1  0  0  0  0
  7 15  1  0  0  0  0
  8  7  2  0  0  0  0
  8 25  1  0  0  0  0
  9  8  1  0  0  0  0
 10 11  1  0  0  0  0
 10  9  2  0  0  0  0
 11  6  2  0  0  0  0
 12  4  1  0  0  0  0
 12 11  1  0  0  0  0
 13 30  1  0  0  0  0
 13 31  1  0  0  0  0
 14 35  1  0  0  0  0
 14  4  1  0  0  0  0
 15  5  1  0  0  0  0
 15 37  1  0  0  0  0
 15 36  1  0  0  0  0
 16 40  1  0  0  0  0
 16 38  1  0  0  0  0
 16 39  1  0  0  0  0
 17 42  1  0  0  0  0
 17 43  1  0  0  0  0
 17  5  1  0  0  0  0
 18 44  1  0  0  0  0
 19 20  1  0  0  0  0
 19 18  1  0  0  0  0
 20 21  1  0  0  0  0
 20 47  1  0  0  0  0
 21 22  1  0  0  0  0
 21 24  1  0  0  0  0
 22 50  1  0  0  0  0
 22 49  1  0  0  0  0
 23 54  1  0  0  0  0
 23 21  1  0  0  0  0
 24 57  1  0  0  0  0
 24 55  1  0  0  0  0
 26  9  1  0  0  0  0
 27 10  1  0  0  0  0
 28 12  1  0  0  0  0
 29 12  1  0  0  0  0
 32 13  1  0  0  0  0
 33 14  1  0  0  0  0
 34 14  1  0  0  0  0
 41 17  1  0  0  0  0
 45 18  1  0  0  0  0
 46 19  1  0  0  0  0
 48 20  1  0  0  0  0
 51 22  1  0  0  0  0
 52 23  1  0  0  0  0
 53 23  1  0  0  0  0
 56 24  1  0  0  0  0
M  END
$$$$
