CSD_code = SOVROM | q = 0 | S = 0 | Stoichiometry = C5H6AuCl3N2O | MND = 4
 OpenBabel04212202103D

 18 18  0  0  1  0  0  0  0  0999 V2000
   21.6422    5.1453    7.5515 Au  0  0  0  0  0  0  0  0  0  0  0  0
   21.5378    4.9886    9.7544 Cl  0  0  0  0  0  0  0  0  0  0  0  0
   19.4077    4.6709    7.3564 Cl  0  0  0  0  0  0  0  0  0  0  0  0
   23.8630    5.6701    7.6461 Cl  0  0  0  0  0  0  0  0  0  0  0  0
   20.5809    2.2466    4.0468 O   0  0  0  0  0  0  0  0  0  0  0  0
   21.7382    5.2981    5.5218 N   0  0  0  0  0  0  0  0  0  0  0  0
   21.4978    4.9145    3.3773 N   0  0  0  0  0  0  0  0  0  0  0  0
   21.3577    4.3918    4.6164 C   0  0  1  0  0  3  0  0  0  0  0  0
   21.9776    6.1697    3.5116 C   0  0  0  0  0  0  0  0  0  0  0  0
   22.1806    6.8054    2.6737 H   0  0  0  0  0  0  0  0  0  0  0  0
   22.1252    6.4025    4.8552 C   0  0  0  0  0  0  0  0  0  0  0  0
   22.4920    7.2690    5.3660 H   0  0  0  0  0  0  0  0  0  0  0  0
   20.9095    3.0299    4.8983 C   0  0  0  0  0  0  0  0  0  0  0  0
   20.9154    2.7834    5.9707 H   0  0  0  0  0  0  0  0  0  0  0  0
   21.1865    4.2535    2.1416 C   0  0  0  0  0  0  0  0  0  0  0  0
   21.7458    3.3207    2.0619 H   0  0  0  0  0  0  0  0  0  0  0  0
   21.4396    4.9086    1.3106 H   0  0  0  0  0  0  0  0  0  0  0  0
   20.1248    4.0053    2.1062 H   0  0  0  0  0  0  0  0  0  0  0  0
  1  4  1  0  0  0  0
  1  2  1  0  0  0  0
  3  1  1  0  0  0  0
  5 13  2  0  0  0  0
  6  1  1  0  0  0  0
  7  9  1  0  0  0  0
  7  8  1  0  0  0  0
  8 13  1  6  0  0  0
  8  6  1  0  0  0  0
  9 11  2  0  0  0  0
 10  9  1  0  0  0  0
 11 12  1  0  0  0  0
 11  6  1  0  0  0  0
 13 14  1  0  0  0  0
 15  7  1  0  0  0  0
 16 15  1  0  0  0  0
 17 15  1  0  0  0  0
 18 15  1  0  0  0  0
M  END
$$$$
