CSD_code = SOVVEH | q = 0 | S = 0 | Stoichiometry = C23H30I2O2Ti | MND = 4
 OpenBabel04212202103D

 58 60  0  0  0  0  0  0  0  0999 V2000
    0.6479    3.1045    0.6194 I   0  0  0  0  0  0  0  0  0  0  0  0
   -0.6287    5.2819    3.9337 I   0  0  0  0  0  0  0  0  0  0  0  0
    1.5737    4.5598    2.6423 Ti  0  0  0  0  0  0  0  0  0  0  0  0
    2.4530    5.8466    2.0281 O   0  0  0  0  0  0  0  0  0  0  0  0
    2.5909    3.6151    3.5704 O   0  0  0  0  0  0  0  0  0  0  0  0
    6.1769    7.5898    1.7437 C   0  0  0  0  0  0  0  0  0  0  0  0
    3.8205    3.3022    3.9830 C   0  0  0  0  0  0  0  0  0  0  0  0
    3.6513    6.4308    1.9546 C   0  0  0  0  0  0  0  0  0  0  0  0
    4.8929    3.4994    3.0958 C   0  0  0  0  0  0  0  0  0  0  0  0
    6.1692    3.1386    3.4969 C   0  0  0  0  0  0  0  0  0  0  0  0
    6.9936    3.2787    2.8129 H   0  0  0  0  0  0  0  0  0  0  0  0
    4.0340    2.7795    5.2755 C   0  0  0  0  0  0  0  0  0  0  0  0
    6.4018    2.5951    4.7486 C   0  0  0  0  0  0  0  0  0  0  0  0
    2.8648    2.6730    6.2496 C   0  0  0  0  0  0  0  0  0  0  0  0
    2.3482    4.0948    6.5324 C   0  0  0  0  0  0  0  0  0  0  0  0
    3.1019    4.6635    7.0751 H   0  0  0  0  0  0  0  0  0  0  0  0
    1.4432    4.0535    7.1352 H   0  0  0  0  0  0  0  0  0  0  0  0
    2.1213    4.6355    5.6075 H   0  0  0  0  0  0  0  0  0  0  0  0
    6.0322    6.2149    1.6853 C   0  0  0  0  0  0  0  0  0  0  0  0
    6.9031    5.5898    1.5520 H   0  0  0  0  0  0  0  0  0  0  0  0
    4.6708    4.1082    1.7276 C   0  0  0  0  0  0  0  0  0  0  0  0
    5.4350    3.7262    1.0470 H   0  0  0  0  0  0  0  0  0  0  0  0
    3.6846    3.8139    1.3319 H   0  0  0  0  0  0  0  0  0  0  0  0
    2.5434    8.6866    2.3348 C   0  0  0  0  0  0  0  0  0  0  0  0
    1.7446    1.7979    5.6616 C   0  0  0  0  0  0  0  0  0  0  0  0
    1.2993    2.2359    4.7635 H   0  0  0  0  0  0  0  0  0  0  0  0
    0.9523    1.6734    6.3969 H   0  0  0  0  0  0  0  0  0  0  0  0
    2.1353    0.8146    5.4047 H   0  0  0  0  0  0  0  0  0  0  0  0
    3.7745    7.8339    2.0431 C   0  0  0  0  0  0  0  0  0  0  0  0
    4.7857    5.6173    1.7870 C   0  0  0  0  0  0  0  0  0  0  0  0
    7.7774    2.1792    5.1721 C   0  0  0  0  0  0  0  0  0  0  0  0
    8.5171    2.4645    4.4290 H   0  0  0  0  0  0  0  0  0  0  0  0
    7.8194    1.0985    5.3039 H   0  0  0  0  0  0  0  0  0  0  0  0
    8.0405    2.6398    6.1229 H   0  0  0  0  0  0  0  0  0  0  0  0
    7.5232    8.2370    1.6278 C   0  0  0  0  0  0  0  0  0  0  0  0
    7.7893    8.7244    2.5653 H   0  0  0  0  0  0  0  0  0  0  0  0
    7.5147    8.9976    0.8490 H   0  0  0  0  0  0  0  0  0  0  0  0
    8.2890    7.5034    1.3911 H   0  0  0  0  0  0  0  0  0  0  0  0
    1.4386    8.4365    1.2940 C   0  0  0  0  0  0  0  0  0  0  0  0
    1.8264    8.6032    0.2904 H   0  0  0  0  0  0  0  0  0  0  0  0
    0.6130    9.1249    1.4635 H   0  0  0  0  0  0  0  0  0  0  0  0
    1.0381    7.4201    1.3440 H   0  0  0  0  0  0  0  0  0  0  0  0
    5.3298    2.4343    5.6197 C   0  0  0  0  0  0  0  0  0  0  0  0
    5.5343    2.0220    6.5939 H   0  0  0  0  0  0  0  0  0  0  0  0
    2.0490    8.3250    3.7466 C   0  0  0  0  0  0  0  0  0  0  0  0
    1.9324    7.2425    3.8669 H   0  0  0  0  0  0  0  0  0  0  0  0
    1.0897    8.7990    3.9449 H   0  0  0  0  0  0  0  0  0  0  0  0
    2.7662    8.6665    4.4913 H   0  0  0  0  0  0  0  0  0  0  0  0
    5.0439    8.3746    1.9284 C   0  0  0  0  0  0  0  0  0  0  0  0
    5.1787    9.4421    1.9823 H   0  0  0  0  0  0  0  0  0  0  0  0
    3.2744    2.0499    7.5882 C   0  0  0  0  0  0  0  0  0  0  0  0
    3.6417    1.0356    7.4513 H   0  0  0  0  0  0  0  0  0  0  0  0
    2.4066    2.0092    8.2428 H   0  0  0  0  0  0  0  0  0  0  0  0
    4.0378    2.6441    8.0845 H   0  0  0  0  0  0  0  0  0  0  0  0
    2.8521   10.1875    2.3146 C   0  0  0  0  0  0  0  0  0  0  0  0
    3.5866   10.4527    3.0710 H   0  0  0  0  0  0  0  0  0  0  0  0
    1.9409   10.7415    2.5291 H   0  0  0  0  0  0  0  0  0  0  0  0
    3.2149   10.4981    1.3377 H   0  0  0  0  0  0  0  0  0  0  0  0
  1  3  1  0  0  0  0
  3  5  1  0  0  0  0
  3  2  1  0  0  0  0
  4  3  1  0  0  0  0
  5  7  1  0  0  0  0
  6 49  1  0  0  0  0
  7 12  1  0  0  0  0
  8  4  1  0  0  0  0
  8 29  1  0  0  0  0
  9 10  1  0  0  0  0
  9  7  2  0  0  0  0
 10 13  2  0  0  0  0
 11 10  1  0  0  0  0
 12 43  2  0  0  0  0
 12 14  1  0  0  0  0
 13 31  1  0  0  0  0
 13 43  1  0  0  0  0
 14 15  1  0  0  0  0
 14 51  1  0  0  0  0
 15 16  1  0  0  0  0
 15 17  1  0  0  0  0
 18 15  1  0  0  0  0
 19  6  2  0  0  0  0
 19 30  1  0  0  0  0
 20 19  1  0  0  0  0
 21 30  1  0  0  0  0
 21  9  1  0  0  0  0
 22 21  1  0  0  0  0
 23 21  1  0  0  0  0
 24 45  1  0  0  0  0
 25 14  1  0  0  0  0
 25 27  1  0  0  0  0
 26 25  1  0  0  0  0
 28 25  1  0  0  0  0
 29 24  1  0  0  0  0
 30  8  2  0  0  0  0
 31 33  1  0  0  0  0
 31 34  1  0  0  0  0
 32 31  1  0  0  0  0
 35  6  1  0  0  0  0
 35 36  1  0  0  0  0
 37 35  1  0  0  0  0
 38 35  1  0  0  0  0
 39 42  1  0  0  0  0
 39 41  1  0  0  0  0
 39 24  1  0  0  0  0
 40 39  1  0  0  0  0
 43 44  1  0  0  0  0
 45 46  1  0  0  0  0
 45 47  1  0  0  0  0
 45 48  1  0  0  0  0
 49 50  1  0  0  0  0
 49 29  2  0  0  0  0
 51 54  1  0  0  0  0
 51 53  1  0  0  0  0
 52 51  1  0  0  0  0
 55 24  1  0  0  0  0
 55 57  1  0  0  0  0
 55 56  1  0  0  0  0
 58 55  1  0  0  0  0
M  END
$$$$
