CSD_code = SOWBEM | q = 0 | S = 0 | Stoichiometry = C25H26Cl3NPtS | MND = 4
 OpenBabel04212202103D

 57 60  0  0  0  0  0  0  0  0999 V2000
    2.6079    0.6202    3.5912 Pt  0  0  2  0  0  0  0  0  0  0  0  0
    1.6722    2.5055    4.5866 S   0  0  0  0  0  3  0  0  0  0  0  0
    3.3102   -0.9364    2.6059 N   0  0  0  0  0  0  0  0  0  0  0  0
    0.9466   -0.8206    4.6056 Cl  0  0  0  0  0  0  0  0  0  0  0  0
    1.0126   -2.0573   -0.4184 Cl  0  0  0  0  0  0  0  0  0  0  0  0
    7.9545    0.8334    6.8573 Cl  0  0  0  0  0  0  0  0  0  0  0  0
    4.0880    1.6621    2.7276 C   0  0  0  0  0  0  0  0  0  0  0  0
    5.1306    2.1973    3.4708 C   0  0  0  0  0  0  0  0  0  0  0  0
    5.0954    2.1455    4.5520 H   0  0  0  0  0  0  0  0  0  0  0  0
    6.2288    2.8016    2.8721 C   0  0  0  0  0  0  0  0  0  0  0  0
    6.2694    2.8797    1.4853 C   0  0  0  0  0  0  0  0  0  0  0  0
    7.1179    3.3394    0.9984 H   0  0  0  0  0  0  0  0  0  0  0  0
    5.2299    2.3818    0.7256 C   0  0  0  0  0  0  0  0  0  0  0  0
    5.2692    2.4464   -0.3533 H   0  0  0  0  0  0  0  0  0  0  0  0
    4.1422    1.7598    1.3350 C   0  0  0  0  0  0  0  0  0  0  0  0
    7.3384    3.3729    3.7013 C   0  0  0  0  0  0  0  0  0  0  0  0
    7.3431    2.9372    4.6971 H   0  0  0  0  0  0  0  0  0  0  0  0
    7.2116    4.4513    3.8027 H   0  0  0  0  0  0  0  0  0  0  0  0
    8.3038    3.1942    3.2314 H   0  0  0  0  0  0  0  0  0  0  0  0
    3.0300    1.2849    0.4867 C   0  0  0  0  0  0  0  0  0  0  0  0
    2.4456    2.1880   -0.3984 C   0  0  0  0  0  0  0  0  0  0  0  0
    2.7966    3.2089   -0.3981 H   0  0  0  0  0  0  0  0  0  0  0  0
    1.4305    1.8050   -1.2536 C   0  0  0  0  0  0  0  0  0  0  0  0
    0.9824    2.5249   -1.9213 H   0  0  0  0  0  0  0  0  0  0  0  0
    0.9869    0.4932   -1.2633 C   0  0  0  0  0  0  0  0  0  0  0  0
    0.1999    0.1765   -1.9288 H   0  0  0  0  0  0  0  0  0  0  0  0
    1.5729   -0.4185   -0.4054 C   0  0  0  0  0  0  0  0  0  0  0  0
    2.5784   -0.0472    0.4927 C   0  0  0  0  0  0  0  0  0  0  0  0
    3.1657   -1.0768    1.3490 C   0  0  0  0  0  0  0  0  0  0  0  0
    3.4440   -2.0153    0.8643 H   0  0  0  0  0  0  0  0  0  0  0  0
    3.9229   -1.9722    3.4048 C   0  0  0  0  0  0  0  0  0  0  0  0
    4.3750   -2.7450    2.7697 H   0  0  0  0  0  0  0  0  0  0  0  0
    3.1374   -2.4225    4.0236 H   0  0  0  0  0  0  0  0  0  0  0  0
    4.9500   -1.3106    4.2896 C   0  0  0  0  0  0  0  0  0  0  0  0
    4.6226   -0.9427    5.5901 C   0  0  0  0  0  0  0  0  0  0  0  0
    3.6461   -1.1830    5.9864 H   0  0  0  0  0  0  0  0  0  0  0  0
    5.5502   -0.2943    6.3878 C   0  0  0  0  0  0  0  0  0  0  0  0
    5.3094   -0.0208    7.4035 H   0  0  0  0  0  0  0  0  0  0  0  0
    6.8002    0.0045    5.8703 C   0  0  0  0  0  0  0  0  0  0  0  0
    7.1386   -0.3476    4.5739 C   0  0  0  0  0  0  0  0  0  0  0  0
    8.1133   -0.1035    4.1830 H   0  0  0  0  0  0  0  0  0  0  0  0
    6.2106   -1.0069    3.7898 C   0  0  0  0  0  0  0  0  0  0  0  0
    6.4682   -1.2793    2.7770 H   0  0  0  0  0  0  0  0  0  0  0  0
    1.4225    2.0233    6.3373 C   0  0  0  0  0  0  0  0  0  0  0  0
    0.7132    2.7330    6.7650 H   0  0  0  0  0  0  0  0  0  0  0  0
    1.0026    1.0163    6.3382 H   0  0  0  0  0  0  0  0  0  0  0  0
    2.7594    2.0628    7.0498 C   0  0  0  0  0  0  0  0  0  0  0  0
    2.6485    1.7118    8.0733 H   0  0  0  0  0  0  0  0  0  0  0  0
    3.1607    3.0739    7.0654 H   0  0  0  0  0  0  0  0  0  0  0  0
    3.4638    1.4163    6.5283 H   0  0  0  0  0  0  0  0  0  0  0  0
   -0.0434    2.3215    3.9690 C   0  0  0  0  0  0  0  0  0  0  0  0
   -0.4654    1.4397    4.4511 H   0  0  0  0  0  0  0  0  0  0  0  0
   -0.5898    3.2162    4.2717 H   0  0  0  0  0  0  0  0  0  0  0  0
   -0.0293    2.1509    2.4621 C   0  0  0  0  0  0  0  0  0  0  0  0
   -1.0460    2.0568    2.0866 H   0  0  0  0  0  0  0  0  0  0  0  0
    0.5210    1.2408    2.2049 H   0  0  0  0  0  0  0  0  0  0  0  0
    0.4507    2.9975    1.9753 H   0  0  0  0  0  0  0  0  0  0  0  0
  1  2  1  0  0  0  0
  1  4  1  1  0  0  0
  2 44  1  0  0  0  0
  3 31  1  0  0  0  0
  3  1  1  0  0  0  0
  5 27  1  0  0  0  0
  7  8  1  0  0  0  0
  7  1  2  0  0  0  0
  8  9  1  0  0  0  0
 10  8  2  0  0  0  0
 10 16  1  0  0  0  0
 11 10  1  0  0  0  0
 12 11  1  0  0  0  0
 13 15  1  0  0  0  0
 13 11  2  0  0  0  0
 14 13  1  0  0  0  0
 15  7  1  0  0  0  0
 16 18  1  0  0  0  0
 16 17  1  0  0  0  0
 19 16  1  0  0  0  0
 20 28  1  0  0  0  0
 20 15  2  0  0  0  0
 21 22  1  0  0  0  0
 21 20  1  0  0  0  0
 23 21  2  0  0  0  0
 24 23  1  0  0  0  0
 25 23  1  0  0  0  0
 25 27  2  0  0  0  0
 26 25  1  0  0  0  0
 27 28  1  0  0  0  0
 28 29  2  0  0  0  0
 29  3  1  0  0  0  0
 30 29  1  0  0  0  0
 31 33  1  0  0  0  0
 31 34  1  0  0  0  0
 32 31  1  0  0  0  0
 34 35  1  0  0  0  0
 35 36  1  0  0  0  0
 35 37  2  0  0  0  0
 37 38  1  0  0  0  0
 39 37  1  0  0  0  0
 39  6  1  0  0  0  0
 40 39  2  0  0  0  0
 41 40  1  0  0  0  0
 42 34  2  0  0  0  0
 42 40  1  0  0  0  0
 43 42  1  0  0  0  0
 44 46  1  0  0  0  0
 44 45  1  0  0  0  0
 44 47  1  0  0  0  0
 47 49  1  0  0  0  0
 47 48  1  0  0  0  0
 50 47  1  0  0  0  0
 51 53  1  0  0  0  0
 51 52  1  0  0  0  0
 51  2  1  0  0  0  0
 54 51  1  0  0  0  0
 55 54  1  0  0  0  0
 56 54  1  0  0  0  0
 57 54  1  0  0  0  0
M  END
$$$$
