CSD_code = SOWBAI | q = 0 | S = 0 | Stoichiometry = C18H20Cl2N2Pt | MND = 4
 OpenBabel04212202103D

 43 46  0  0  0  0  0  0  0  0999 V2000
    1.3102    1.2239    3.2551 Pt  0  0  2  0  0  0  0  0  0  0  0  0
   -0.5782    0.5786    2.2634 Cl  0  0  0  0  0  0  0  0  0  0  0  0
    5.7550    3.9163    2.0249 Cl  0  0  0  0  0  0  0  0  0  0  0  0
    3.0578    1.6603    3.9592 N   0  0  0  0  0  0  0  0  0  0  0  0
    2.4403   -0.6861    2.6336 N   0  0  0  0  0  4  0  0  0  0  0  0
    0.4856    2.7201    4.2838 C   0  0  0  0  0  0  0  0  0  0  0  0
   -0.5425    2.4049    5.1650 C   0  0  0  0  0  0  0  0  0  0  0  0
   -0.9647    1.4057    5.1578 H   0  0  0  0  0  0  0  0  0  0  0  0
   -1.0722    3.3394    6.0487 C   0  0  0  0  0  0  0  0  0  0  0  0
   -0.5450    4.6227    6.0481 C   0  0  0  0  0  0  0  0  0  0  0  0
   -0.9296    5.3650    6.7331 H   0  0  0  0  0  0  0  0  0  0  0  0
    0.4602    4.9630    5.1643 C   0  0  0  0  0  0  0  0  0  0  0  0
    0.8614    5.9674    5.1703 H   0  0  0  0  0  0  0  0  0  0  0  0
    0.9894    4.0246    4.2794 C   0  0  0  0  0  0  0  0  0  0  0  0
    1.9929    4.4985    3.3046 C   0  0  0  0  0  0  0  0  0  0  0  0
    1.6610    5.6372    2.5712 C   0  0  0  0  0  0  0  0  0  0  0  0
    0.6715    6.0516    2.6891 H   0  0  0  0  0  0  0  0  0  0  0  0
    2.5550    6.2308    1.7034 C   0  0  0  0  0  0  0  0  0  0  0  0
    2.2712    7.1084    1.1433 H   0  0  0  0  0  0  0  0  0  0  0  0
    3.8260    5.7011    1.5548 C   0  0  0  0  0  0  0  0  0  0  0  0
    4.5424    6.1519    0.8862 H   0  0  0  0  0  0  0  0  0  0  0  0
    4.1664    4.5728    2.2725 C   0  0  0  0  0  0  0  0  0  0  0  0
    3.2716    3.9334    3.1438 C   0  0  0  0  0  0  0  0  0  0  0  0
    3.7449    2.7314    3.8102 C   0  0  0  0  0  0  0  0  0  0  0  0
    4.7995    2.7283    4.0928 H   0  0  0  0  0  0  0  0  0  0  0  0
    3.7138    0.4552    4.4118 C   0  0  0  0  0  0  0  0  0  0  0  0
    3.1282    0.0151    5.2252 H   0  0  0  0  0  0  0  0  0  0  0  0
    4.7307    0.6568    4.7751 H   0  0  0  0  0  0  0  0  0  0  0  0
    3.7740   -0.5073    3.2108 C   0  0  0  0  0  0  0  0  0  0  0  0
    4.4270   -0.0587    2.4559 H   0  0  0  0  0  0  0  0  0  0  0  0
    4.2132   -1.4669    3.5197 H   0  0  0  0  0  0  0  0  0  0  0  0
    2.4956   -0.9688    1.2057 C   0  0  0  0  0  0  0  0  0  0  0  0
    3.0104   -0.1606    0.6860 H   0  0  0  0  0  0  0  0  0  0  0  0
    1.4777   -1.0287    0.8221 H   0  0  0  0  0  0  0  0  0  0  0  0
    3.0129   -1.9154    0.9974 H   0  0  0  0  0  0  0  0  0  0  0  0
    1.7090   -1.7484    3.3191 C   0  0  0  0  0  0  0  0  0  0  0  0
    1.6399   -1.5333    4.3860 H   0  0  0  0  0  0  0  0  0  0  0  0
    2.2017   -2.7216    3.1844 H   0  0  0  0  0  0  0  0  0  0  0  0
    0.6981   -1.8002    2.9162 H   0  0  0  0  0  0  0  0  0  0  0  0
   -2.1936    2.9561    6.9657 C   0  0  0  0  0  0  0  0  0  0  0  0
   -2.3852    3.7375    7.6971 H   0  0  0  0  0  0  0  0  0  0  0  0
   -1.9609    2.0313    7.4907 H   0  0  0  0  0  0  0  0  0  0  0  0
   -3.1037    2.7904    6.3901 H   0  0  0  0  0  0  0  0  0  0  0  0
  1  2  1  6  0  0  0
  1  4  1  0  0  0  0
  1  6  2  0  0  0  0
  3 22  1  0  0  0  0
  4 26  1  0  0  0  0
  5 29  1  0  0  0  0
  5  1  1  0  0  0  0
  5 36  1  0  0  0  0
  6  7  1  0  0  0  0
  7  9  2  0  0  0  0
  8  7  1  0  0  0  0
  9 40  1  0  0  0  0
 10  9  1  0  0  0  0
 10 11  1  0  0  0  0
 12 13  1  0  0  0  0
 12 10  2  0  0  0  0
 14  6  1  0  0  0  0
 14 12  1  0  0  0  0
 15 14  2  0  0  0  0
 16 17  1  0  0  0  0
 16 15  1  0  0  0  0
 18 16  2  0  0  0  0
 19 18  1  0  0  0  0
 20 18  1  0  0  0  0
 20 22  2  0  0  0  0
 21 20  1  0  0  0  0
 22 23  1  0  0  0  0
 23 15  1  0  0  0  0
 23 24  2  0  0  0  0
 24  4  1  0  0  0  0
 24 25  1  0  0  0  0
 26 28  1  0  0  0  0
 26 27  1  0  0  0  0
 29 31  1  0  0  0  0
 29 26  1  0  0  0  0
 30 29  1  0  0  0  0
 32  5  1  0  0  0  0
 33 32  1  0  0  0  0
 34 32  1  0  0  0  0
 35 32  1  0  0  0  0
 36 37  1  0  0  0  0
 38 36  1  0  0  0  0
 39 36  1  0  0  0  0
 40 42  1  0  0  0  0
 40 41  1  0  0  0  0
 43 40  1  0  0  0  0
M  END
$$$$
