CSD_code = SOWFEQ | q = -1 | S = 0 | Stoichiometry = C25H26I2N4P2Rh(1-) | MND = 6
 OpenBabel04212202103D

 60 66  0  0  0  0  0  0  0  0999 V2000
    4.8804    7.2446    0.7271 Rh  0  0  0  0  0  0  0  0  0  0  0  0
    4.6655    5.4350    1.6494 C   0  0  0  0  0  0  0  0  0  0  0  0
    4.2600    7.9795    2.7247 P   0  0  0  0  0  4  0  0  0  0  0  0
    5.4038    5.9600   -1.0107 P   0  0  0  0  0  4  0  0  0  0  0  0
    5.9337    4.3795   -0.2260 C   0  0  0  0  0  0  0  0  0  0  0  0
    5.7797    3.5135   -0.8777 H   0  0  0  0  0  0  0  0  0  0  0  0
    7.0097    4.4726   -0.0273 H   0  0  0  0  0  0  0  0  0  0  0  0
    5.1823    4.2700    1.0713 C   0  0  0  0  0  0  0  0  0  0  0  0
    5.0230    3.0380    1.6893 C   0  0  0  0  0  0  0  0  0  0  0  0
    5.4275    2.1501    1.2191 H   0  0  0  0  0  0  0  0  0  0  0  0
    4.3574    2.9407    2.8974 C   0  0  0  0  0  0  0  0  0  0  0  0
    4.2367    1.9794    3.3772 H   0  0  0  0  0  0  0  0  0  0  0  0
    3.8464    4.0824    3.4859 C   0  0  0  0  0  0  0  0  0  0  0  0
    3.3214    4.0178    4.4307 H   0  0  0  0  0  0  0  0  0  0  0  0
    3.9930    5.3186    2.8722 C   0  0  0  0  0  0  0  0  0  0  0  0
    3.4060    6.5507    3.5033 C   0  0  0  0  0  0  0  0  0  0  0  0
    3.4983    6.5507    4.5945 H   0  0  0  0  0  0  0  0  0  0  0  0
    2.3417    6.6348    3.2484 H   0  0  0  0  0  0  0  0  0  0  0  0
    5.4852    8.2836    3.8906 N   0  0  0  0  0  0  0  0  0  0  0  0
    6.1200    9.4932    4.0060 C   0  0  0  0  0  0  0  0  0  0  0  0
    5.7382   10.3639    3.5050 H   0  0  0  0  0  0  0  0  0  0  0  0
    7.2027    9.3445    4.8196 C   0  0  0  0  0  0  0  0  0  0  0  0
    7.8867   10.1157    5.1181 H   0  0  0  0  0  0  0  0  0  0  0  0
    7.2571    7.9823    5.1948 C   0  0  0  0  0  0  0  0  0  0  0  0
    7.9890    7.5249    5.8336 H   0  0  0  0  0  0  0  0  0  0  0  0
    6.2044    7.3569    4.5951 C   0  0  0  0  0  0  0  0  0  0  0  0
    5.9117    6.3236    4.6169 H   0  0  0  0  0  0  0  0  0  0  0  0
    3.2526    9.2854    3.1402 N   0  0  0  0  0  0  0  0  0  0  0  0
    2.8789    9.5596    4.4367 C   0  0  0  0  0  0  0  0  0  0  0  0
    3.2389    8.9666    5.2567 H   0  0  0  0  0  0  0  0  0  0  0  0
    2.0614   10.6465    4.4324 C   0  0  0  0  0  0  0  0  0  0  0  0
    1.6079   11.1027    5.2922 H   0  0  0  0  0  0  0  0  0  0  0  0
    1.9194   11.0589    3.0861 C   0  0  0  0  0  0  0  0  0  0  0  0
    1.3386   11.8876    2.7321 H   0  0  0  0  0  0  0  0  0  0  0  0
    2.6576   10.2098    2.3217 C   0  0  0  0  0  0  0  0  0  0  0  0
    2.8012   10.1964    1.2601 H   0  0  0  0  0  0  0  0  0  0  0  0
    4.2192    5.3946   -2.0967 N   0  0  0  0  0  0  0  0  0  0  0  0
    3.2842    4.4220   -1.8504 C   0  0  0  0  0  0  0  0  0  0  0  0
    3.3399    3.8059   -0.9725 H   0  0  0  0  0  0  0  0  0  0  0  0
    2.3681    4.4345   -2.8569 C   0  0  0  0  0  0  0  0  0  0  0  0
    1.5245    3.7795   -2.9559 H   0  0  0  0  0  0  0  0  0  0  0  0
    2.7293    5.4781   -3.7415 C   0  0  0  0  0  0  0  0  0  0  0  0
    2.2111    5.7606   -4.6371 H   0  0  0  0  0  0  0  0  0  0  0  0
    3.8503    6.0625   -3.2392 C   0  0  0  0  0  0  0  0  0  0  0  0
    4.4295    6.8918   -3.6014 H   0  0  0  0  0  0  0  0  0  0  0  0
    6.6526    6.1871   -2.1596 N   0  0  0  0  0  0  0  0  0  0  0  0
    7.4901    7.2619   -2.3011 C   0  0  0  0  0  0  0  0  0  0  0  0
    7.3716    8.1435   -1.7033 H   0  0  0  0  0  0  0  0  0  0  0  0
    8.3884    6.9921   -3.2881 C   0  0  0  0  0  0  0  0  0  0  0  0
    9.1687    7.6433   -3.6318 H   0  0  0  0  0  0  0  0  0  0  0  0
    8.0953    5.6982   -3.7791 C   0  0  0  0  0  0  0  0  0  0  0  0
    8.6130    5.1807   -4.5649 H   0  0  0  0  0  0  0  0  0  0  0  0
    7.0326    5.2297   -3.0695 C   0  0  0  0  0  0  0  0  0  0  0  0
    6.5033    4.2990   -3.1498 H   0  0  0  0  0  0  0  0  0  0  0  0
    5.2940    9.6927   -0.3798 I   0  0  0  0  0  0  0  0  0  0  0  0
    2.1794    7.2133    0.2015 I   0  0  0  0  0  0  0  0  0  0  0  0
    6.9145    7.1711    1.3075 C   0  0  0  0  0  0  0  0  0  0  0  0
    7.1064    6.4104    2.0724 H   0  0  0  0  0  0  0  0  0  0  0  0
    7.2206    8.1351    1.7257 H   0  0  0  0  0  0  0  0  0  0  0  0
    7.5873    6.9606    0.4680 H   0  0  0  0  0  0  0  0  0  0  0  0
  1 57  1  0  0  0  0
  1  2  1  0  0  0  0
  1  3  1  0  0  0  0
  2 15  1  0  0  0  0
  3 28  1  0  0  0  0
  3 16  1  0  0  0  0
  3 19  1  0  0  0  0
  4  5  1  0  0  0  0
  4  1  1  0  0  0  0
  5  7  1  0  0  0  0
  5  8  1  0  0  0  0
  6  5  1  0  0  0  0
  8  2  2  0  0  0  0
  8  9  1  0  0  0  0
  9 11  2  0  0  0  0
 10  9  1  0  0  0  0
 11 12  1  0  0  0  0
 11 13  1  0  0  0  0
 13 14  1  0  0  0  0
 15 13  2  0  0  0  0
 15 16  1  0  0  0  0
 16 17  1  0  0  0  0
 18 16  1  0  0  0  0
 19 20  1  0  0  0  0
 19 26  1  0  0  0  0
 20 22  2  0  0  0  0
 21 20  1  0  0  0  0
 22 23  1  0  0  0  0
 22 24  1  0  0  0  0
 24 25  1  0  0  0  0
 26 27  1  0  0  0  0
 26 24  2  0  0  0  0
 28 29  1  0  0  0  0
 29 30  1  0  0  0  0
 31 29  2  0  0  0  0
 31 32  1  0  0  0  0
 33 31  1  0  0  0  0
 34 33  1  0  0  0  0
 35 33  2  0  0  0  0
 35 28  1  0  0  0  0
 36 35  1  0  0  0  0
 37 38  1  0  0  0  0
 37  4  1  0  0  0  0
 38 39  1  0  0  0  0
 40 38  2  0  0  0  0
 41 40  1  0  0  0  0
 42 44  2  0  0  0  0
 42 40  1  0  0  0  0
 43 42  1  0  0  0  0
 44 37  1  0  0  0  0
 45 44  1  0  0  0  0
 46  4  1  0  0  0  0
 47 46  1  0  0  0  0
 47 48  1  0  0  0  0
 49 47  2  0  0  0  0
 50 49  1  0  0  0  0
 51 49  1  0  0  0  0
 51 53  2  0  0  0  0
 52 51  1  0  0  0  0
 53 46  1  0  0  0  0
 54 53  1  0  0  0  0
 55  1  1  0  0  0  0
 56  1  1  0  0  0  0
 57 59  1  0  0  0  0
 57 58  1  0  0  0  0
 60 57  1  0  0  0  0
M  END
$$$$
