CSD_code = SOWHAO | q = 0 | S = 0 | Stoichiometry = C34H24Cl2N8Zn | MND = 4
 OpenBabel04212202103D

 69 76  0  0  0  0  0  0  0  0999 V2000
    6.5198    4.6527    3.9791 Zn  0  0  0  0  0  0  0  0  0  0  0  0
    7.2349    2.7512    4.8946 Cl  0  0  0  0  0  0  0  0  0  0  0  0
    7.7911    5.8534    2.6646 Cl  0  0  0  0  0  0  0  0  0  0  0  0
    3.8960    3.4449    3.0578 N   0  0  0  0  0  0  0  0  0  0  0  0
    3.4476    5.7937    8.2884 N   0  0  0  0  0  2  0  0  0  0  0  0
    4.0445    5.9531    7.1205 N   0  0  0  0  0  0  0  0  0  0  0  0
    4.3059    2.5774    1.1006 N   0  0  0  0  0  0  0  0  0  0  0  0
    5.3499    5.5514    5.4075 N   0  0  0  0  0  0  0  0  0  0  0  0
    4.2453    1.9048   -0.0353 N   0  0  0  0  0  2  0  0  0  0  0  0
    5.0963    3.8727    2.6829 N   0  0  0  0  0  0  0  0  0  0  0  0
    4.7323    6.7072    5.1959 N   0  0  0  0  0  0  0  0  0  0  0  0
    3.1159    8.1591    6.3171 C   0  0  0  0  0  0  0  0  0  0  0  0
    6.4835    3.4647    0.6419 C   0  0  0  0  0  0  0  0  0  0  0  0
    7.3186    4.0805    0.9417 H   0  0  0  0  0  0  0  0  0  0  0  0
    5.2712    1.9913   -0.8416 C   0  0  0  0  0  0  0  0  0  0  0  0
    3.7368    4.7162    8.9707 C   0  0  0  0  0  0  0  0  0  0  0  0
    3.0659    4.5786   10.2676 C   0  0  0  0  0  0  0  0  0  0  0  0
    5.3709    3.3582    1.4965 C   0  0  0  0  0  0  0  0  0  0  0  0
    3.9421    6.9756    6.2105 C   0  0  0  0  0  0  0  0  0  0  0  0
    6.4254    2.7737   -0.5296 C   0  0  0  0  0  0  0  0  0  0  0  0
    7.2542    2.7905   -1.2175 H   0  0  0  0  0  0  0  0  0  0  0  0
    5.1740    1.2250   -2.0882 C   0  0  0  0  0  0  0  0  0  0  0  0
    4.9456    5.0656    6.5699 C   0  0  0  0  0  0  0  0  0  0  0  0
    4.4141    0.0558   -2.1181 C   0  0  0  0  0  0  0  0  0  0  0  0
    3.9217   -0.2697   -1.2151 H   0  0  0  0  0  0  0  0  0  0  0  0
    4.3096   -0.6799   -3.2822 C   0  0  0  0  0  0  0  0  0  0  0  0
    3.7241   -1.5869   -3.2939 H   0  0  0  0  0  0  0  0  0  0  0  0
    1.7997    5.1334   10.4514 C   0  0  0  0  0  0  0  0  0  0  0  0
    1.3261    5.6397    9.6246 H   0  0  0  0  0  0  0  0  0  0  0  0
    2.1017    2.0226    2.1915 C   0  0  0  0  0  0  0  0  0  0  0  0
    5.8158    1.6473   -3.2506 C   0  0  0  0  0  0  0  0  0  0  0  0
    6.3815    2.5667   -3.2566 H   0  0  0  0  0  0  0  0  0  0  0  0
    4.6402    3.7227    8.4837 C   0  0  0  0  0  0  0  0  0  0  0  0
    4.8114    2.8336    9.0676 H   0  0  0  0  0  0  0  0  0  0  0  0
    1.6079    9.5954    7.5138 C   0  0  0  0  0  0  0  0  0  0  0  0
    1.0409    9.8192    8.4055 H   0  0  0  0  0  0  0  0  0  0  0  0
    5.2495    3.8879    7.2767 C   0  0  0  0  0  0  0  0  0  0  0  0
    5.9326    3.1755    6.8350 H   0  0  0  0  0  0  0  0  0  0  0  0
    3.0684    9.0305    5.2263 C   0  0  0  0  0  0  0  0  0  0  0  0
    3.6483    8.7909    4.3494 H   0  0  0  0  0  0  0  0  0  0  0  0
    2.2923   10.1702    5.2865 C   0  0  0  0  0  0  0  0  0  0  0  0
    2.2575   10.8414    4.4416 H   0  0  0  0  0  0  0  0  0  0  0  0
    2.3815    8.4503    7.4661 C   0  0  0  0  0  0  0  0  0  0  0  0
    2.4238    7.7865    8.3148 H   0  0  0  0  0  0  0  0  0  0  0  0
    3.3967    2.6653    2.1233 C   0  0  0  0  0  0  0  0  0  0  0  0
    1.3740    2.1213    3.3790 C   0  0  0  0  0  0  0  0  0  0  0  0
    1.8050    2.6674    4.2030 H   0  0  0  0  0  0  0  0  0  0  0  0
    4.9556   -0.2565   -4.4326 C   0  0  0  0  0  0  0  0  0  0  0  0
    4.8753   -0.8325   -5.3422 H   0  0  0  0  0  0  0  0  0  0  0  0
    1.1589    5.0211   11.6696 C   0  0  0  0  0  0  0  0  0  0  0  0
    0.1760    5.4482   11.8012 H   0  0  0  0  0  0  0  0  0  0  0  0
    3.6811    3.9206   11.3307 C   0  0  0  0  0  0  0  0  0  0  0  0
    4.6747    3.5142   11.2163 H   0  0  0  0  0  0  0  0  0  0  0  0
    5.7031    0.9092   -4.4142 C   0  0  0  0  0  0  0  0  0  0  0  0
    6.2010    1.2458   -5.3109 H   0  0  0  0  0  0  0  0  0  0  0  0
    1.5655    1.3222    1.1117 C   0  0  0  0  0  0  0  0  0  0  0  0
    2.1193    1.2498    0.1895 H   0  0  0  0  0  0  0  0  0  0  0  0
    1.5588   10.4548    6.4287 C   0  0  0  0  0  0  0  0  0  0  0  0
    0.9516   11.3468    6.4733 H   0  0  0  0  0  0  0  0  0  0  0  0
    1.7754    4.3621   12.7215 C   0  0  0  0  0  0  0  0  0  0  0  0
    1.2749    4.2756   13.6741 H   0  0  0  0  0  0  0  0  0  0  0  0
    0.3217    0.7293    1.2269 C   0  0  0  0  0  0  0  0  0  0  0  0
   -0.0909    0.1885    0.3880 H   0  0  0  0  0  0  0  0  0  0  0  0
    3.0374    3.8177   12.5499 C   0  0  0  0  0  0  0  0  0  0  0  0
    3.5242    3.3125   13.3706 H   0  0  0  0  0  0  0  0  0  0  0  0
   -0.3956    0.8269    2.4072 C   0  0  0  0  0  0  0  0  0  0  0  0
   -1.3659    0.3603    2.4902 H   0  0  0  0  0  0  0  0  0  0  0  0
    0.1335    1.5255    3.4820 C   0  0  0  0  0  0  0  0  0  0  0  0
   -0.4248    1.6018    4.4031 H   0  0  0  0  0  0  0  0  0  0  0  0
  1  2  1  0  0  0  0
  1  8  1  0  0  0  0
  3  1  1  0  0  0  0
  5 16  1  0  0  0  0
  6  5  1  0  0  0  0
  7 18  1  0  0  0  0
  7 45  1  0  0  0  0
  8 23  1  0  0  0  0
  9  7  1  0  0  0  0
 10  4  1  0  0  0  0
 10  1  1  0  0  0  0
 11  8  1  0  0  0  0
 11 19  2  0  0  0  0
 12 43  1  0  0  0  0
 13 14  1  0  0  0  0
 13 18  2  0  0  0  0
 15 20  2  0  0  0  0
 15  9  1  0  0  0  0
 16 17  1  0  0  0  0
 17 28  2  0  0  0  0
 17 52  1  0  0  0  0
 18 10  1  0  0  0  0
 19 12  1  0  0  0  0
 19  6  1  0  0  0  0
 20 13  1  0  0  0  0
 21 20  1  0  0  0  0
 22 15  1  0  0  0  0
 23  6  1  0  0  0  0
 23 37  2  0  0  0  0
 24 22  1  0  0  0  0
 24 25  1  0  0  0  0
 26 24  2  0  0  0  0
 27 26  1  0  0  0  0
 28 50  1  0  0  0  0
 29 28  1  0  0  0  0
 30 46  1  0  0  0  0
 31 22  2  0  0  0  0
 32 31  1  0  0  0  0
 33 16  2  0  0  0  0
 33 34  1  0  0  0  0
 35 36  1  0  0  0  0
 37 33  1  0  0  0  0
 38 37  1  0  0  0  0
 39 41  1  0  0  0  0
 39 12  2  0  0  0  0
 40 39  1  0  0  0  0
 41 58  2  0  0  0  0
 42 41  1  0  0  0  0
 43 35  2  0  0  0  0
 43 44  1  0  0  0  0
 45 30  1  0  0  0  0
 45  4  2  0  0  0  0
 46 68  2  0  0  0  0
 46 47  1  0  0  0  0
 48 54  2  0  0  0  0
 48 26  1  0  0  0  0
 49 48  1  0  0  0  0
 50 51  1  0  0  0  0
 50 60  2  0  0  0  0
 52 64  2  0  0  0  0
 53 52  1  0  0  0  0
 54 31  1  0  0  0  0
 55 54  1  0  0  0  0
 56 62  1  0  0  0  0
 56 30  2  0  0  0  0
 57 56  1  0  0  0  0
 58 59  1  0  0  0  0
 58 35  1  0  0  0  0
 60 61  1  0  0  0  0
 62 66  2  0  0  0  0
 63 62  1  0  0  0  0
 64 60  1  0  0  0  0
 64 65  1  0  0  0  0
 66 67  1  0  0  0  0
 66 68  1  0  0  0  0
 68 69  1  0  0  0  0
M  END
$$$$
