CSD_code = SOWKAQ | q = 0 | S = 0 | Stoichiometry = C21H41ClCoO2P3 | MND = 6
 OpenBabel04212202103D

 69 70  0  0  0  0  0  0  0  0999 V2000
    1.4975    3.5509   10.2361 Co  0  0  0  0  0  0  0  0  0  0  0  0
    0.5080    5.5069    9.4180 Cl  0  0  0  0  0  0  0  0  0  0  0  0
    0.4644    3.7050   12.2390 P   0  0  0  0  0  4  0  0  0  0  0  0
    3.2076    4.8622   10.7192 P   0  0  0  0  0  4  0  0  0  0  0  0
   -0.1946    2.6859    9.1170 P   0  0  0  0  0  4  0  0  0  0  0  0
    2.2243    1.6132   12.0048 O   0  0  0  0  0  0  0  0  0  0  0  0
    2.3998    3.1560    8.5684 O   0  0  0  0  0  0  0  0  0  0  0  0
    2.3916    2.0228   10.8737 C   0  0  0  0  0  0  0  0  0  0  0  0
    3.2961    1.4965    9.8855 C   0  0  0  0  0  0  0  0  0  0  0  0
    4.1454    0.4147   10.1270 C   0  0  0  0  0  0  0  0  0  0  0  0
    4.1389   -0.0517   11.1014 H   0  0  0  0  0  0  0  0  0  0  0  0
    4.9662   -0.0201    9.1157 C   0  0  0  0  0  0  0  0  0  0  0  0
    4.8977    0.6292    7.8765 C   0  0  0  0  0  0  0  0  0  0  0  0
    5.5408    0.2438    7.1005 H   0  0  0  0  0  0  0  0  0  0  0  0
    4.0746    1.7007    7.5879 C   0  0  0  0  0  0  0  0  0  0  0  0
    3.2344    2.1649    8.6408 C   0  0  0  0  0  0  0  0  0  0  0  0
    5.9126   -1.1701    9.2998 C   0  0  0  0  0  0  0  0  0  0  0  0
    6.9378   -0.8581    9.1018 H   0  0  0  0  0  0  0  0  0  0  0  0
    5.6717   -1.9783    8.6093 H   0  0  0  0  0  0  0  0  0  0  0  0
    5.8572   -1.5552   10.3148 H   0  0  0  0  0  0  0  0  0  0  0  0
    4.0276    2.2355    6.1585 C   0  0  0  0  0  0  0  0  0  0  0  0
    3.6390    3.7148    6.0810 C   0  0  0  0  0  0  0  0  0  0  0  0
    4.4551    4.3354    6.4450 H   0  0  0  0  0  0  0  0  0  0  0  0
    2.7557    3.9272    6.6722 H   0  0  0  0  0  0  0  0  0  0  0  0
    3.4408    3.9888    5.0462 H   0  0  0  0  0  0  0  0  0  0  0  0
    5.3844    2.0960    5.4490 C   0  0  0  0  0  0  0  0  0  0  0  0
    5.6099    1.0636    5.1947 H   0  0  0  0  0  0  0  0  0  0  0  0
    6.1868    2.4883    6.0705 H   0  0  0  0  0  0  0  0  0  0  0  0
    5.3626    2.6631    4.5206 H   0  0  0  0  0  0  0  0  0  0  0  0
    2.9944    1.3887    5.3985 C   0  0  0  0  0  0  0  0  0  0  0  0
    3.2780    0.3379    5.4174 H   0  0  0  0  0  0  0  0  0  0  0  0
    2.9256    1.7127    4.3618 H   0  0  0  0  0  0  0  0  0  0  0  0
    2.0118    1.4799    5.8546 H   0  0  0  0  0  0  0  0  0  0  0  0
    1.4510    3.9071   13.7746 C   0  0  0  0  0  0  0  0  0  0  0  0
    2.1248    3.0603   13.8710 H   0  0  0  0  0  0  0  0  0  0  0  0
    0.7699    3.9285   14.6254 H   0  0  0  0  0  0  0  0  0  0  0  0
    2.0254    4.8295   13.7532 H   0  0  0  0  0  0  0  0  0  0  0  0
   -0.7147    5.0932   12.4461 C   0  0  0  0  0  0  0  0  0  0  0  0
   -1.5063    5.0134   11.7059 H   0  0  0  0  0  0  0  0  0  0  0  0
   -0.1913    6.0292   12.2632 H   0  0  0  0  0  0  0  0  0  0  0  0
   -1.1388    5.0900   13.4502 H   0  0  0  0  0  0  0  0  0  0  0  0
   -0.5614    2.2865   12.7960 C   0  0  0  0  0  0  0  0  0  0  0  0
    0.1024    1.4544   13.0146 H   0  0  0  0  0  0  0  0  0  0  0  0
   -1.2673    1.9806   12.0290 H   0  0  0  0  0  0  0  0  0  0  0  0
   -1.1046    2.5725   13.6965 H   0  0  0  0  0  0  0  0  0  0  0  0
    4.5917    4.2487   11.7621 C   0  0  0  0  0  0  0  0  0  0  0  0
    5.0317    3.3762   11.2815 H   0  0  0  0  0  0  0  0  0  0  0  0
    4.2255    3.9527   12.7420 H   0  0  0  0  0  0  0  0  0  0  0  0
    5.3498    5.0234   11.8724 H   0  0  0  0  0  0  0  0  0  0  0  0
    4.1328    5.4052    9.2444 C   0  0  0  0  0  0  0  0  0  0  0  0
    4.6391    4.5525    8.7973 H   0  0  0  0  0  0  0  0  0  0  0  0
    4.8611    6.1648    9.5303 H   0  0  0  0  0  0  0  0  0  0  0  0
    3.4229    5.8161    8.5289 H   0  0  0  0  0  0  0  0  0  0  0  0
    2.8721    6.5013   11.4690 C   0  0  0  0  0  0  0  0  0  0  0  0
    2.3890    6.4068   12.4378 H   0  0  0  0  0  0  0  0  0  0  0  0
    2.2061    7.0396   10.7967 H   0  0  0  0  0  0  0  0  0  0  0  0
    3.8102    7.0445   11.5812 H   0  0  0  0  0  0  0  0  0  0  0  0
   -0.2047    3.0539    7.3298 C   0  0  0  0  0  0  0  0  0  0  0  0
   -0.2095    4.1344    7.2020 H   0  0  0  0  0  0  0  0  0  0  0  0
   -1.0974    2.6175    6.8808 H   0  0  0  0  0  0  0  0  0  0  0  0
    0.6856    2.6474    6.8607 H   0  0  0  0  0  0  0  0  0  0  0  0
   -0.3075    0.8500    9.0848 C   0  0  0  0  0  0  0  0  0  0  0  0
   -0.4249    0.4661   10.0963 H   0  0  0  0  0  0  0  0  0  0  0  0
    0.6219    0.4556    8.6755 H   0  0  0  0  0  0  0  0  0  0  0  0
   -1.1443    0.5241    8.4678 H   0  0  0  0  0  0  0  0  0  0  0  0
   -1.9279    3.1743    9.4765 C   0  0  0  0  0  0  0  0  0  0  0  0
   -2.2196    2.9540   10.4991 H   0  0  0  0  0  0  0  0  0  0  0  0
   -2.5929    2.6479    8.7921 H   0  0  0  0  0  0  0  0  0  0  0  0
   -2.0024    4.2470    9.3057 H   0  0  0  0  0  0  0  0  0  0  0  0
  1  4  1  0  0  0  0
  1  8  1  0  0  0  0
  1  3  1  0  0  0  0
  2  1  1  0  0  0  0
  3 38  1  0  0  0  0
  3 42  1  0  0  0  0
  3 34  1  0  0  0  0
  4 54  1  0  0  0  0
  4 46  1  0  0  0  0
  5 66  1  0  0  0  0
  5  1  1  0  0  0  0
  7 16  1  0  0  0  0
  7  1  1  0  0  0  0
  8  6  2  0  0  0  0
  9 10  1  0  0  0  0
  9  8  1  0  0  0  0
 10 11  1  0  0  0  0
 12 17  1  0  0  0  0
 12 10  2  0  0  0  0
 13 12  1  0  0  0  0
 14 13  1  0  0  0  0
 15 13  2  0  0  0  0
 15 16  1  0  0  0  0
 16  9  2  0  0  0  0
 17 20  1  0  0  0  0
 18 17  1  0  0  0  0
 19 17  1  0  0  0  0
 21 15  1  0  0  0  0
 22 21  1  0  0  0  0
 22 23  1  0  0  0  0
 22 24  1  0  0  0  0
 25 22  1  0  0  0  0
 26 28  1  0  0  0  0
 26 21  1  0  0  0  0
 27 26  1  0  0  0  0
 29 26  1  0  0  0  0
 30 31  1  0  0  0  0
 30 33  1  0  0  0  0
 30 21  1  0  0  0  0
 32 30  1  0  0  0  0
 34 35  1  0  0  0  0
 34 36  1  0  0  0  0
 37 34  1  0  0  0  0
 38 41  1  0  0  0  0
 39 38  1  0  0  0  0
 40 38  1  0  0  0  0
 42 43  1  0  0  0  0
 42 45  1  0  0  0  0
 44 42  1  0  0  0  0
 46 49  1  0  0  0  0
 46 48  1  0  0  0  0
 47 46  1  0  0  0  0
 50 52  1  0  0  0  0
 50  4  1  0  0  0  0
 51 50  1  0  0  0  0
 53 50  1  0  0  0  0
 54 57  1  0  0  0  0
 54 55  1  0  0  0  0
 56 54  1  0  0  0  0
 58  5  1  0  0  0  0
 59 58  1  0  0  0  0
 60 58  1  0  0  0  0
 61 58  1  0  0  0  0
 62  5  1  0  0  0  0
 62 63  1  0  0  0  0
 64 62  1  0  0  0  0
 65 62  1  0  0  0  0
 66 67  1  0  0  0  0
 68 66  1  0  0  0  0
 69 66  1  0  0  0  0
M  END
$$$$
