CSD_code = SOWKAR | q = 0 | S = 0 | Stoichiometry = C26H36Cl2N2O2Zr | MND = 6
 OpenBabel04212202103D

 69 72  0  0  1  0  0  0  0  0999 V2000
    9.2642    4.3676    1.9093 C   0  0  1  0  0  0  0  0  0  0  0  0
    9.2687    4.6671    2.9801 H   0  0  0  0  0  0  0  0  0  0  0  0
   10.7230    4.0523    1.5103 C   0  0  1  0  0  0  0  0  0  0  0  0
   10.7205    3.7438    0.4418 H   0  0  0  0  0  0  0  0  0  0  0  0
   11.5903    5.3053    1.6875 C   0  0  0  0  0  0  0  0  0  0  0  0
   12.6223    5.0822    1.4101 H   0  0  0  0  0  0  0  0  0  0  0  0
   11.5815    5.5783    2.7459 H   0  0  0  0  0  0  0  0  0  0  0  0
   11.0481    6.4530    0.8413 C   0  0  0  0  0  0  0  0  0  0  0  0
   11.6647    7.3422    0.9882 H   0  0  0  0  0  0  0  0  0  0  0  0
   11.1012    6.1788   -0.2149 H   0  0  0  0  0  0  0  0  0  0  0  0
    9.5990    6.7593    1.2104 C   0  0  0  0  0  0  0  0  0  0  0  0
    9.2165    7.5633    0.5781 H   0  0  0  0  0  0  0  0  0  0  0  0
    9.5549    7.0988    2.2479 H   0  0  0  0  0  0  0  0  0  0  0  0
    8.7267    5.5184    1.0488 C   0  0  0  0  0  0  0  0  0  0  0  0
    8.7244    5.1903    0.0061 H   0  0  0  0  0  0  0  0  0  0  0  0
    7.6951    5.7380    1.3310 H   0  0  0  0  0  0  0  0  0  0  0  0
    7.1970    3.0506    2.0273 C   0  0  0  0  0  0  0  0  0  0  0  0
    6.5263    3.8593    2.9656 C   0  0  0  0  0  0  0  0  0  0  0  0
    7.0644    4.6315    3.4964 H   0  0  0  0  0  0  0  0  0  0  0  0
    5.1859    3.6585    3.2317 C   0  0  0  0  0  0  0  0  0  0  0  0
    4.6948    4.2819    3.9658 H   0  0  0  0  0  0  0  0  0  0  0  0
    4.4613    2.6790    2.5704 C   0  0  0  0  0  0  0  0  0  0  0  0
    3.4111    2.5424    2.7789 H   0  0  0  0  0  0  0  0  0  0  0  0
    5.0980    1.8906    1.6202 C   0  0  0  0  0  0  0  0  0  0  0  0
    4.5312    1.1511    1.0694 H   0  0  0  0  0  0  0  0  0  0  0  0
    6.4390    2.0644    1.3541 C   0  0  0  0  0  0  0  0  0  0  0  0
    6.9422    1.4900    0.5794 H   0  0  0  0  0  0  0  0  0  0  0  0
   12.3807    2.4059    2.2663 C   0  0  0  0  0  0  0  0  0  0  0  0
   12.8901    1.7513    3.4122 C   0  0  0  0  0  0  0  0  0  0  0  0
   12.2922    1.7953    4.3197 H   0  0  0  0  0  0  0  0  0  0  0  0
   14.1268    1.1437    3.3958 C   0  0  0  0  0  0  0  0  0  0  0  0
   14.5083    0.6758    4.2941 H   0  0  0  0  0  0  0  0  0  0  0  0
   14.9001    1.1533    2.2415 C   0  0  0  0  0  0  0  0  0  0  0  0
   15.8691    0.6779    2.2291 H   0  0  0  0  0  0  0  0  0  0  0  0
   14.4216    1.7994    1.1122 C   0  0  0  0  0  0  0  0  0  0  0  0
   15.0216    1.8177    0.2131 H   0  0  0  0  0  0  0  0  0  0  0  0
   13.1912    2.4276    1.1143 C   0  0  0  0  0  0  0  0  0  0  0  0
   12.8439    2.9219    0.2183 H   0  0  0  0  0  0  0  0  0  0  0  0
   11.7331   -1.0194    2.1375 C   0  0  0  0  0  0  0  0  0  0  0  0
   12.3869   -0.2976    1.6389 H   0  0  0  0  0  0  0  0  0  0  0  0
   11.1561   -1.5538    1.3716 H   0  0  0  0  0  0  0  0  0  0  0  0
   12.4902   -1.9890    3.0385 C   0  0  0  0  0  0  0  0  0  0  0  0
   13.3564   -1.4944    3.4771 H   0  0  0  0  0  0  0  0  0  0  0  0
   12.8203   -2.8731    2.4990 H   0  0  0  0  0  0  0  0  0  0  0  0
   11.4500   -2.2911    4.1125 C   0  0  0  0  0  0  0  0  0  0  0  0
   10.7222   -3.0158    3.7434 H   0  0  0  0  0  0  0  0  0  0  0  0
   11.8829   -2.6647    5.0369 H   0  0  0  0  0  0  0  0  0  0  0  0
   10.8051   -0.9215    4.2909 C   0  0  0  0  0  0  0  0  0  0  0  0
    9.7733   -0.9650    4.6515 H   0  0  0  0  0  0  0  0  0  0  0  0
   11.3910   -0.3024    4.9825 H   0  0  0  0  0  0  0  0  0  0  0  0
    7.8031   -1.1543    1.9107 C   0  0  0  0  0  0  0  0  0  0  0  0
    8.7719   -1.6080    1.6822 H   0  0  0  0  0  0  0  0  0  0  0  0
    7.3450   -0.8188    0.9712 H   0  0  0  0  0  0  0  0  0  0  0  0
    6.8601   -2.0777    2.6737 C   0  0  0  0  0  0  0  0  0  0  0  0
    7.4139   -2.6941    3.3840 H   0  0  0  0  0  0  0  0  0  0  0  0
    6.2944   -2.7261    2.0096 H   0  0  0  0  0  0  0  0  0  0  0  0
    5.9908   -1.0661    3.4138 C   0  0  0  0  0  0  0  0  0  0  0  0
    5.2433   -0.6445    2.7424 H   0  0  0  0  0  0  0  0  0  0  0  0
    5.4919   -1.4837    4.2846 H   0  0  0  0  0  0  0  0  0  0  0  0
    7.0127   -0.0011    3.7962 C   0  0  0  0  0  0  0  0  0  0  0  0
    6.5832    1.0029    3.8616 H   0  0  0  0  0  0  0  0  0  0  0  0
    7.4949   -0.2371    4.7539 H   0  0  0  0  0  0  0  0  0  0  0  0
    9.2639    1.9067    4.7490 Cl  0  0  0  0  0  0  0  0  0  0  0  0
    9.9208    0.6563    0.2580 Cl  0  0  0  0  0  0  0  0  0  0  0  0
    8.5219    3.1357    1.6898 N   0  0  0  0  0  0  0  0  0  0  0  0
   11.1395    2.9713    2.3908 N   0  0  0  0  0  0  0  0  0  0  0  0
    8.0205   -0.0129    2.7607 O   0  0  0  0  0  0  0  0  0  0  0  0
   10.8096   -0.3057    2.9900 O   0  0  0  0  0  0  0  0  0  0  0  0
    9.6382    1.6106    2.4192 Zr  0  0  0  0  0  0  0  0  0  0  0  0
  1  2  1  1  0  0  0
  3  4  1  6  0  0  0
  3  5  1  0  0  0  0
  3  1  1  0  0  0  0
  3 66  1  0  0  0  0
  5  7  1  0  0  0  0
  6  5  1  0  0  0  0
  8  9  1  0  0  0  0
  8 11  1  0  0  0  0
  8  5  1  0  0  0  0
 10  8  1  0  0  0  0
 11 13  1  0  0  0  0
 12 11  1  0  0  0  0
 14 11  1  0  0  0  0
 14 16  1  0  0  0  0
 14  1  1  0  0  0  0
 15 14  1  0  0  0  0
 17 18  1  0  0  0  0
 18 20  2  0  0  0  0
 18 19  1  0  0  0  0
 20 21  1  0  0  0  0
 22 23  1  0  0  0  0
 22 20  1  0  0  0  0
 24 22  2  0  0  0  0
 25 24  1  0  0  0  0
 26 24  1  0  0  0  0
 26 17  2  0  0  0  0
 27 26  1  0  0  0  0
 28 66  1  0  0  0  0
 28 29  1  0  0  0  0
 29 30  1  0  0  0  0
 31 29  2  0  0  0  0
 31 32  1  0  0  0  0
 33 31  1  0  0  0  0
 34 33  1  0  0  0  0
 35 37  1  0  0  0  0
 35 33  2  0  0  0  0
 36 35  1  0  0  0  0
 37 28  2  0  0  0  0
 38 37  1  0  0  0  0
 39 68  1  0  0  0  0
 39 42  1  0  0  0  0
 40 39  1  0  0  0  0
 41 39  1  0  0  0  0
 42 43  1  0  0  0  0
 42 45  1  0  0  0  0
 44 42  1  0  0  0  0
 45 48  1  0  0  0  0
 45 47  1  0  0  0  0
 46 45  1  0  0  0  0
 48 49  1  0  0  0  0
 48 50  1  0  0  0  0
 51 54  1  0  0  0  0
 51 67  1  0  0  0  0
 52 51  1  0  0  0  0
 53 51  1  0  0  0  0
 54 55  1  0  0  0  0
 54 57  1  0  0  0  0
 56 54  1  0  0  0  0
 57 60  1  0  0  0  0
 57 59  1  0  0  0  0
 58 57  1  0  0  0  0
 60 61  1  0  0  0  0
 60 62  1  0  0  0  0
 64 69  1  0  0  0  0
 65  1  1  0  0  0  0
 65 17  1  0  0  0  0
 65 69  1  0  0  0  0
 66 69  1  0  0  0  0
 67 60  1  0  0  0  0
 68 48  1  0  0  0  0
 69 63  1  0  0  0  0
M  END
$$$$
