CSD_code = SOWKIY | q = 0 | S = 0 | Stoichiometry = C21H41BrCoO2P3 | MND = 6
 OpenBabel04212202103D

 69 70  0  0  0  0  0  0  0  0999 V2000
   -0.6661    1.1888   13.1590 Co  0  0  0  0  0  0  0  0  0  0  0  0
   -1.1140    3.2192   11.8368 Br  0  0  0  0  0  0  0  0  0  0  0  0
   -2.8222    0.7555   12.9462 P   0  0  0  0  0  4  0  0  0  0  0  0
   -0.8109    2.2155   15.1755 P   0  0  0  0  0  4  0  0  0  0  0  0
    1.4644    1.6565   12.7996 P   0  0  0  0  0  4  0  0  0  0  0  0
   -0.3318   -0.4932   15.2711 O   0  0  0  0  0  0  0  0  0  0  0  0
   -0.4646    0.1290   11.5538 O   0  0  0  0  0  0  0  0  0  0  0  0
   -0.3435   -0.4376   14.0587 C   0  0  0  0  0  0  0  0  0  0  0  0
   -0.2183   -1.1240   11.7690 C   0  0  0  0  0  0  0  0  0  0  0  0
    0.1283   -2.8252   13.5254 C   0  0  0  0  0  0  0  0  0  0  0  0
    0.1754   -3.0600   14.5791 H   0  0  0  0  0  0  0  0  0  0  0  0
    0.3338   -3.7828   12.5587 C   0  0  0  0  0  0  0  0  0  0  0  0
    0.2622   -3.3964   11.2175 C   0  0  0  0  0  0  0  0  0  0  0  0
    0.4424   -4.1664   10.4820 H   0  0  0  0  0  0  0  0  0  0  0  0
   -0.0145   -2.1154   10.7721 C   0  0  0  0  0  0  0  0  0  0  0  0
   -0.1402   -1.5159   13.1281 C   0  0  0  0  0  0  0  0  0  0  0  0
    0.6325   -5.2049   12.9358 C   0  0  0  0  0  0  0  0  0  0  0  0
    0.7761   -5.8205   12.0511 H   0  0  0  0  0  0  0  0  0  0  0  0
   -0.1861   -5.6250   13.5197 H   0  0  0  0  0  0  0  0  0  0  0  0
    1.5350   -5.2576   13.5443 H   0  0  0  0  0  0  0  0  0  0  0  0
   -0.0120   -1.8651    9.2653 C   0  0  0  0  0  0  0  0  0  0  0  0
   -0.8355   -2.9479    8.5466 C   0  0  0  0  0  0  0  0  0  0  0  0
   -0.3471   -3.9181    8.5690 H   0  0  0  0  0  0  0  0  0  0  0  0
   -0.9703   -2.6703    7.5033 H   0  0  0  0  0  0  0  0  0  0  0  0
   -1.8177   -3.0467    9.0047 H   0  0  0  0  0  0  0  0  0  0  0  0
    1.4428   -1.9359    8.7741 C   0  0  0  0  0  0  0  0  0  0  0  0
    1.9059   -2.8784    9.0583 H   0  0  0  0  0  0  0  0  0  0  0  0
    2.0314   -1.1262    9.2003 H   0  0  0  0  0  0  0  0  0  0  0  0
    1.4769   -1.8471    7.6901 H   0  0  0  0  0  0  0  0  0  0  0  0
   -0.6010   -0.5138    8.8559 C   0  0  0  0  0  0  0  0  0  0  0  0
   -0.1472    0.3073    9.3975 H   0  0  0  0  0  0  0  0  0  0  0  0
   -1.6714   -0.4932    9.0401 H   0  0  0  0  0  0  0  0  0  0  0  0
   -0.4385   -0.3550    7.7909 H   0  0  0  0  0  0  0  0  0  0  0  0
   -3.5466   -0.6467   13.8896 C   0  0  0  0  0  0  0  0  0  0  0  0
   -3.4222   -0.4955   14.9592 H   0  0  0  0  0  0  0  0  0  0  0  0
   -3.0250   -1.5615   13.6095 H   0  0  0  0  0  0  0  0  0  0  0  0
   -4.6059   -0.7486   13.6543 H   0  0  0  0  0  0  0  0  0  0  0  0
   -3.3320    0.2892   11.2576 C   0  0  0  0  0  0  0  0  0  0  0  0
   -2.9587    1.0381   10.5604 H   0  0  0  0  0  0  0  0  0  0  0  0
   -4.4206    0.2467   11.2106 H   0  0  0  0  0  0  0  0  0  0  0  0
   -2.9114   -0.6818   11.0031 H   0  0  0  0  0  0  0  0  0  0  0  0
   -4.0504    2.0879   13.2450 C   0  0  0  0  0  0  0  0  0  0  0  0
   -3.9122    2.5598   14.2144 H   0  0  0  0  0  0  0  0  0  0  0  0
   -5.0545    1.6686   13.1857 H   0  0  0  0  0  0  0  0  0  0  0  0
   -3.9193    2.8442   12.4720 H   0  0  0  0  0  0  0  0  0  0  0  0
    0.6269    2.1431   16.3161 C   0  0  0  0  0  0  0  0  0  0  0  0
    1.5272    2.5362   15.8514 H   0  0  0  0  0  0  0  0  0  0  0  0
    0.7921    1.1061   16.5970 H   0  0  0  0  0  0  0  0  0  0  0  0
    0.3977    2.7297   17.2059 H   0  0  0  0  0  0  0  0  0  0  0  0
   -2.0898    1.6814   16.3801 C   0  0  0  0  0  0  0  0  0  0  0  0
   -1.9042    0.6441   16.6468 H   0  0  0  0  0  0  0  0  0  0  0  0
   -3.0906    1.7757   15.9663 H   0  0  0  0  0  0  0  0  0  0  0  0
   -2.0113    2.3051   17.2708 H   0  0  0  0  0  0  0  0  0  0  0  0
   -1.1284    4.0227   15.1574 C   0  0  0  0  0  0  0  0  0  0  0  0
   -0.3459    4.5287   14.5957 H   0  0  0  0  0  0  0  0  0  0  0  0
   -1.1673    4.4127   16.1743 H   0  0  0  0  0  0  0  0  0  0  0  0
   -2.0699    4.2206   14.6483 H   0  0  0  0  0  0  0  0  0  0  0  0
    2.1171    3.3390   13.1440 C   0  0  0  0  0  0  0  0  0  0  0  0
    1.6223    4.0341   12.4664 H   0  0  0  0  0  0  0  0  0  0  0  0
    3.1910    3.3481   12.9588 H   0  0  0  0  0  0  0  0  0  0  0  0
    1.9264    3.6543   14.1662 H   0  0  0  0  0  0  0  0  0  0  0  0
    2.0009    1.5239   11.0596 C   0  0  0  0  0  0  0  0  0  0  0  0
    1.9444    0.4874   10.7351 H   0  0  0  0  0  0  0  0  0  0  0  0
    3.0270    1.8833   10.9748 H   0  0  0  0  0  0  0  0  0  0  0  0
    1.3448    2.1326   10.4391 H   0  0  0  0  0  0  0  0  0  0  0  0
    2.7253    0.5831   13.5994 C   0  0  0  0  0  0  0  0  0  0  0  0
    2.5757   -0.4407   13.2568 H   0  0  0  0  0  0  0  0  0  0  0  0
    2.6117    0.6017   14.6811 H   0  0  0  0  0  0  0  0  0  0  0  0
    3.7289    0.9115   13.3296 H   0  0  0  0  0  0  0  0  0  0  0  0
  1  8  1  0  0  0  0
  1  4  1  0  0  0  0
  2  1  1  0  0  0  0
  3  1  1  0  0  0  0
  3 42  1  0  0  0  0
  3 34  1  0  0  0  0
  4 46  1  0  0  0  0
  4 50  1  0  0  0  0
  5 58  1  0  0  0  0
  5  1  1  0  0  0  0
  5 66  1  0  0  0  0
  7  9  1  0  0  0  0
  7  1  1  0  0  0  0
  8  6  2  0  0  0  0
  9 16  1  0  0  0  0
 10 11  1  0  0  0  0
 12 17  1  0  0  0  0
 12 10  1  0  0  0  0
 13 12  2  0  0  0  0
 14 13  1  0  0  0  0
 15 13  1  0  0  0  0
 15  9  2  0  0  0  0
 16 10  2  0  0  0  0
 16  8  1  0  0  0  0
 17 19  1  0  0  0  0
 17 20  1  0  0  0  0
 18 17  1  0  0  0  0
 21 15  1  0  0  0  0
 22 23  1  0  0  0  0
 22 25  1  0  0  0  0
 22 21  1  0  0  0  0
 24 22  1  0  0  0  0
 26 27  1  0  0  0  0
 26 28  1  0  0  0  0
 26 21  1  0  0  0  0
 29 26  1  0  0  0  0
 30 32  1  0  0  0  0
 30 21  1  0  0  0  0
 30 31  1  0  0  0  0
 33 30  1  0  0  0  0
 34 35  1  0  0  0  0
 36 34  1  0  0  0  0
 37 34  1  0  0  0  0
 38  3  1  0  0  0  0
 39 38  1  0  0  0  0
 40 38  1  0  0  0  0
 41 38  1  0  0  0  0
 42 43  1  0  0  0  0
 44 42  1  0  0  0  0
 45 42  1  0  0  0  0
 46 48  1  0  0  0  0
 46 49  1  0  0  0  0
 47 46  1  0  0  0  0
 50 51  1  0  0  0  0
 50 53  1  0  0  0  0
 52 50  1  0  0  0  0
 54  4  1  0  0  0  0
 54 56  1  0  0  0  0
 55 54  1  0  0  0  0
 57 54  1  0  0  0  0
 58 61  1  0  0  0  0
 59 58  1  0  0  0  0
 60 58  1  0  0  0  0
 62  5  1  0  0  0  0
 63 62  1  0  0  0  0
 64 62  1  0  0  0  0
 65 62  1  0  0  0  0
 66 68  1  0  0  0  0
 67 66  1  0  0  0  0
 69 66  1  0  0  0  0
M  END
$$$$
