CSD_code = SOWNOH | q = 0 | S = 0 | Stoichiometry = C22H39CoIO2P3 | MND = 6
 OpenBabel04212202103D

 68 70  0  0  1  0  0  0  0  0999 V2000
    0.3192    1.5623    5.7837 I   0  0  0  0  0  0  0  0  0  0  0  0
   -0.4737    3.4336    4.1067 Co  0  0  0  0  0  0  0  0  0  0  0  0
   -0.6188    4.7944    5.8422 P   0  0  0  0  0  4  0  0  0  0  0  0
   -0.7211    1.8538    2.5799 P   0  0  0  0  0  4  0  0  0  0  0  0
    1.5921    4.0907    3.4506 P   0  0  0  0  0  4  0  0  0  0  0  0
   -0.4552    5.4708    2.2869 O   0  0  0  0  0  0  0  0  0  0  0  0
   -2.3320    3.0577    4.5043 O   0  0  0  0  0  0  0  0  0  0  0  0
   -1.2050    4.7665    2.9355 C   0  0  0  0  0  0  0  0  0  0  0  0
   -2.6136    4.7570    2.9948 C   0  0  0  0  0  0  0  0  0  0  0  0
   -3.4513    5.7080    2.1839 C   0  0  0  0  0  0  0  0  0  0  0  0
   -3.5062    5.3694    1.1430 H   0  0  0  0  0  0  0  0  0  0  0  0
   -2.9809    6.6955    2.1709 H   0  0  0  0  0  0  0  0  0  0  0  0
   -4.8638    5.7939    2.7743 C   0  0  2  0  0  0  0  0  0  0  0  0
   -4.7967    6.2744    3.7581 H   0  0  0  0  0  0  0  0  0  0  0  0
   -5.4061    4.3741    2.9802 C   0  0  0  0  0  0  0  0  0  0  0  0
   -5.3256    3.8127    2.0474 H   0  0  0  0  0  0  0  0  0  0  0  0
   -6.4617    4.4143    3.2575 H   0  0  0  0  0  0  0  0  0  0  0  0
   -4.6131    3.6631    4.0721 C   0  0  0  0  0  0  0  0  0  0  0  0
   -4.8572    4.0894    5.0509 H   0  0  0  0  0  0  0  0  0  0  0  0
   -4.8645    2.6007    4.1204 H   0  0  0  0  0  0  0  0  0  0  0  0
   -3.1294    3.8147    3.8537 C   0  0  0  0  0  0  0  0  0  0  0  0
   -5.7586    6.6302    1.8983 C   0  0  0  0  0  0  0  0  0  0  0  0
   -6.1346    6.2009    0.6308 C   0  0  0  0  0  0  0  0  0  0  0  0
   -5.7927    5.2453    0.2609 H   0  0  0  0  0  0  0  0  0  0  0  0
   -6.9469    6.9835   -0.1693 C   0  0  0  0  0  0  0  0  0  0  0  0
   -7.2306    6.6331   -1.1512 H   0  0  0  0  0  0  0  0  0  0  0  0
   -7.3958    8.2123    0.2834 C   0  0  0  0  0  0  0  0  0  0  0  0
   -8.0298    8.8234   -0.3419 H   0  0  0  0  0  0  0  0  0  0  0  0
   -7.0263    8.6519    1.5421 C   0  0  0  0  0  0  0  0  0  0  0  0
   -7.3708    9.6097    1.9046 H   0  0  0  0  0  0  0  0  0  0  0  0
   -6.2149    7.8654    2.3406 C   0  0  0  0  0  0  0  0  0  0  0  0
   -5.9318    8.2167    3.3234 H   0  0  0  0  0  0  0  0  0  0  0  0
   -0.9989    6.5694    5.5487 C   0  0  0  0  0  0  0  0  0  0  0  0
   -0.2317    7.0283    4.9293 H   0  0  0  0  0  0  0  0  0  0  0  0
   -1.0691    7.0974    6.5000 H   0  0  0  0  0  0  0  0  0  0  0  0
   -1.9507    6.6412    5.0236 H   0  0  0  0  0  0  0  0  0  0  0  0
    0.7660    4.9061    7.0438 C   0  0  0  0  0  0  0  0  0  0  0  0
    1.7308    4.9710    6.5462 H   0  0  0  0  0  0  0  0  0  0  0  0
    0.7575    4.0038    7.6536 H   0  0  0  0  0  0  0  0  0  0  0  0
    0.6241    5.7808    7.6787 H   0  0  0  0  0  0  0  0  0  0  0  0
   -1.9604    4.3933    7.0168 C   0  0  0  0  0  0  0  0  0  0  0  0
   -1.9031    3.3381    7.2795 H   0  0  0  0  0  0  0  0  0  0  0  0
   -2.9294    4.5923    6.5633 H   0  0  0  0  0  0  0  0  0  0  0  0
   -1.8398    5.0047    7.9120 H   0  0  0  0  0  0  0  0  0  0  0  0
    0.6156    0.6256    2.3010 C   0  0  0  0  0  0  0  0  0  0  0  0
    0.4093    0.0697    1.3863 H   0  0  0  0  0  0  0  0  0  0  0  0
    0.6319   -0.0564    3.1499 H   0  0  0  0  0  0  0  0  0  0  0  0
    1.5916    1.0992    2.2252 H   0  0  0  0  0  0  0  0  0  0  0  0
   -1.1417    2.3378    0.8568 C   0  0  0  0  0  0  0  0  0  0  0  0
   -0.3627    2.9676    0.4337 H   0  0  0  0  0  0  0  0  0  0  0  0
   -2.0713    2.9054    0.8703 H   0  0  0  0  0  0  0  0  0  0  0  0
   -1.2704    1.4471    0.2412 H   0  0  0  0  0  0  0  0  0  0  0  0
   -2.0932    0.6914    2.9058 C   0  0  0  0  0  0  0  0  0  0  0  0
   -2.0177    0.3262    3.9289 H   0  0  0  0  0  0  0  0  0  0  0  0
   -2.0217   -0.1444    2.2086 H   0  0  0  0  0  0  0  0  0  0  0  0
   -3.0494    1.1959    2.7789 H   0  0  0  0  0  0  0  0  0  0  0  0
    2.0458    3.9847    1.6752 C   0  0  0  0  0  0  0  0  0  0  0  0
    1.3914    4.6415    1.1081 H   0  0  0  0  0  0  0  0  0  0  0  0
    1.9533    2.9674    1.3021 H   0  0  0  0  0  0  0  0  0  0  0  0
    3.0789    4.3145    1.5616 H   0  0  0  0  0  0  0  0  0  0  0  0
    3.0334    3.2174    4.1813 C   0  0  0  0  0  0  0  0  0  0  0  0
    2.9742    2.1533    3.9608 H   0  0  0  0  0  0  0  0  0  0  0  0
    3.0248    3.3268    5.2641 H   0  0  0  0  0  0  0  0  0  0  0  0
    3.9610    3.6245    3.7788 H   0  0  0  0  0  0  0  0  0  0  0  0
    2.1174    5.8267    3.7332 C   0  0  0  0  0  0  0  0  0  0  0  0
    2.0607    6.0931    4.7860 H   0  0  0  0  0  0  0  0  0  0  0  0
    1.4718    6.4840    3.1566 H   0  0  0  0  0  0  0  0  0  0  0  0
    3.1469    5.9369    3.3915 H   0  0  0  0  0  0  0  0  0  0  0  0
  2  7  1  0  0  0  0
  2  1  1  0  0  0  0
  2  3  1  0  0  0  0
  3 41  1  0  0  0  0
  3 37  1  0  0  0  0
  4 53  1  0  0  0  0
  4  2  1  0  0  0  0
  5 65  1  0  0  0  0
  5  2  1  0  0  0  0
  5 61  1  0  0  0  0
  6  8  2  0  0  0  0
  8  9  1  0  0  0  0
  8  2  1  0  0  0  0
  9 21  2  0  0  0  0
 10 13  1  0  0  0  0
 10  9  1  0  0  0  0
 11 10  1  0  0  0  0
 12 10  1  0  0  0  0
 13 15  1  0  0  0  0
 13 14  1  1  0  0  0
 15 17  1  0  0  0  0
 15 18  1  0  0  0  0
 16 15  1  0  0  0  0
 18 20  1  0  0  0  0
 18 19  1  0  0  0  0
 21 18  1  0  0  0  0
 21  7  1  0  0  0  0
 22 31  1  0  0  0  0
 22 13  1  0  0  0  0
 23 22  2  0  0  0  0
 24 23  1  0  0  0  0
 25 27  2  0  0  0  0
 25 23  1  0  0  0  0
 26 25  1  0  0  0  0
 27 29  1  0  0  0  0
 28 27  1  0  0  0  0
 29 30  1  0  0  0  0
 29 31  2  0  0  0  0
 31 32  1  0  0  0  0
 33  3  1  0  0  0  0
 33 35  1  0  0  0  0
 34 33  1  0  0  0  0
 36 33  1  0  0  0  0
 37 39  1  0  0  0  0
 37 40  1  0  0  0  0
 38 37  1  0  0  0  0
 41 42  1  0  0  0  0
 41 44  1  0  0  0  0
 43 41  1  0  0  0  0
 45  4  1  0  0  0  0
 45 47  1  0  0  0  0
 46 45  1  0  0  0  0
 48 45  1  0  0  0  0
 49 51  1  0  0  0  0
 49  4  1  0  0  0  0
 50 49  1  0  0  0  0
 52 49  1  0  0  0  0
 53 54  1  0  0  0  0
 55 53  1  0  0  0  0
 56 53  1  0  0  0  0
 57  5  1  0  0  0  0
 58 57  1  0  0  0  0
 59 57  1  0  0  0  0
 60 57  1  0  0  0  0
 61 63  1  0  0  0  0
 62 61  1  0  0  0  0
 64 61  1  0  0  0  0
 65 66  1  0  0  0  0
 67 65  1  0  0  0  0
 68 65  1  0  0  0  0
M  END
$$$$
