CSD_code = SOWNAU | q = 0 | S = 0 | Stoichiometry = C14H14Cl2F12N2O2Ti | MND = 6
 OpenBabel04212202103D

 47 49  0  0  1  0  0  0  0  0999 V2000
    1.0014    7.5329    5.2880 Ti  0  0  0  0  0  0  0  0  0  0  0  0
    1.2064    9.5956    6.2368 Cl  0  0  0  0  0  0  0  0  0  0  0  0
    0.6376    5.9066    3.7335 Cl  0  0  0  0  0  0  0  0  0  0  0  0
   -0.0903    6.8529    6.4377 O   0  0  0  0  0  0  0  0  0  0  0  0
   -1.3538    7.1068    6.8295 C   0  0  0  0  0  0  0  0  0  0  0  0
   -2.2680    6.0242    6.2052 C   0  0  0  0  0  0  0  0  0  0  0  0
   -2.2837    6.1742    4.8690 F   0  0  0  0  0  0  0  0  0  0  0  0
   -1.8547    4.7930    6.4601 F   0  0  0  0  0  0  0  0  0  0  0  0
   -3.5448    6.1219    6.6067 F   0  0  0  0  0  0  0  0  0  0  0  0
   -1.3651    7.0218    8.3764 C   0  0  0  0  0  0  0  0  0  0  0  0
   -0.3951    7.8104    8.8457 F   0  0  0  0  0  0  0  0  0  0  0  0
   -1.1422    5.7933    8.8291 F   0  0  0  0  0  0  0  0  0  0  0  0
   -2.5158    7.4434    8.9242 F   0  0  0  0  0  0  0  0  0  0  0  0
   -1.8678    8.5101    6.4099 C   0  0  0  0  0  0  0  0  0  0  0  0
   -1.2128    9.2440    6.9069 H   0  0  0  0  0  0  0  0  0  0  0  0
   -2.8957    8.6383    6.7533 H   0  0  0  0  0  0  0  0  0  0  0  0
   -1.7353    8.7608    4.9333 C   0  0  1  0  0  3  0  0  0  0  0  0
   -2.9258    9.3268    4.2214 C   0  0  0  0  0  0  0  0  0  0  0  0
   -2.7489   10.3755    3.9806 H   0  0  0  0  0  0  0  0  0  0  0  0
   -3.8182    9.2641    4.8353 H   0  0  0  0  0  0  0  0  0  0  0  0
   -3.0990    8.7853    3.2930 H   0  0  0  0  0  0  0  0  0  0  0  0
   -0.6080    8.5408    4.3833 N   0  0  2  0  0  0  0  0  0  0  0  0
   -0.3205    8.9248    3.0220 C   0  0  0  0  0  0  0  0  0  0  0  0
   -0.9840    9.7161    2.6545 H   0  0  0  0  0  0  0  0  0  0  0  0
   -0.4070    8.0321    2.3863 H   0  0  0  0  0  0  0  0  0  0  0  0
    2.5390    6.9863    5.8483 O   0  0  0  0  0  0  0  0  0  0  0  0
    3.7626    6.8387    5.3049 C   0  0  0  0  0  0  0  0  0  0  0  0
    4.2989    5.4661    5.7829 C   0  0  0  0  0  0  0  0  0  0  0  0
    3.3798    4.5382    5.5054 F   0  0  0  0  0  0  0  0  0  0  0  0
    4.5306    5.4276    7.0900 F   0  0  0  0  0  0  0  0  0  0  0  0
    5.4328    5.0946    5.1681 F   0  0  0  0  0  0  0  0  0  0  0  0
    4.6518    7.9959    5.8224 C   0  0  0  0  0  0  0  0  0  0  0  0
    4.6555    8.0917    7.1424 F   0  0  0  0  0  0  0  0  0  0  0  0
    5.9262    7.9006    5.4126 F   0  0  0  0  0  0  0  0  0  0  0  0
    4.1888    9.1611    5.3362 F   0  0  0  0  0  0  0  0  0  0  0  0
    3.7623    6.8538    3.7526 C   0  0  0  0  0  0  0  0  0  0  0  0
    4.7842    6.7389    3.3876 H   0  0  0  0  0  0  0  0  0  0  0  0
    3.1512    5.9943    3.4323 H   0  0  0  0  0  0  0  0  0  0  0  0
    3.0983    8.0771    3.1841 C   0  0  1  0  0  3  0  0  0  0  0  0
    3.8224    8.8137    2.0990 C   0  0  0  0  0  0  0  0  0  0  0  0
    3.8084    9.8835    2.3005 H   0  0  0  0  0  0  0  0  0  0  0  0
    3.3330    8.6377    1.1409 H   0  0  0  0  0  0  0  0  0  0  0  0
    4.8535    8.4855    2.0205 H   0  0  0  0  0  0  0  0  0  0  0  0
    1.9372    8.3840    3.6078 N   0  0  2  0  0  0  0  0  0  0  0  0
    1.1374    9.4197    2.9991 C   0  0  0  0  0  0  0  0  0  0  0  0
    1.4368    9.6363    1.9671 H   0  0  0  0  0  0  0  0  0  0  0  0
    1.2191   10.3264    3.6155 H   0  0  0  0  0  0  0  0  0  0  0  0
  1 26  1  0  0  0  0
  1  2  1  0  0  0  0
  1  4  1  0  0  0  0
  3  1  1  0  0  0  0
  4  5  1  0  0  0  0
  5 10  1  0  0  0  0
  6  8  1  0  0  0  0
  6  9  1  0  0  0  0
  6  5  1  0  0  0  0
  7  6  1  0  0  0  0
 10 12  1  0  0  0  0
 10 11  1  0  0  0  0
 10 13  1  0  0  0  0
 14 16  1  0  0  0  0
 14  5  1  0  0  0  0
 14 15  1  0  0  0  0
 17 18  1  1  0  0  0
 17 14  1  0  0  0  0
 18 20  1  0  0  0  0
 19 18  1  0  0  0  0
 21 18  1  0  0  0  0
 22 23  1  6  0  0  0
 22 17  1  0  0  0  0
 22  1  1  0  0  0  0
 24 23  1  0  0  0  0
 25 23  1  0  0  0  0
 27 28  1  0  0  0  0
 27 32  1  0  0  0  0
 27 26  1  0  0  0  0
 28 30  1  0  0  0  0
 29 28  1  0  0  0  0
 31 28  1  0  0  0  0
 32 33  1  0  0  0  0
 34 32  1  0  0  0  0
 35 32  1  0  0  0  0
 36 27  1  0  0  0  0
 37 36  1  0  0  0  0
 38 36  1  0  0  0  0
 39 40  1  6  0  0  0
 39 44  1  0  0  0  0
 39 36  1  0  0  0  0
 40 41  1  0  0  0  0
 42 40  1  0  0  0  0
 43 40  1  0  0  0  0
 44 45  1  1  0  0  0
 44  1  1  0  0  0  0
 45 23  1  0  0  0  0
 45 47  1  0  0  0  0
 46 45  1  0  0  0  0
M  END
$$$$
