CSD_code = SOWNUQ | q = 0 | S = 0 | Stoichiometry = C28H18ClMnN2O2 | MND = 5
 OpenBabel04212202103D

 52 60  0  0  1  0  0  0  0  0999 V2000
    4.7535    3.8968    9.5400 Mn  0  0  0  0  0  0  0  0  0  0  0  0
    5.6439    1.9754    9.5578 Cl  0  0  0  0  0  0  0  0  0  0  0  0
    6.2261    4.5757    8.7501 O   0  0  0  0  0  0  0  0  0  0  0  0
    4.7585    5.0459   10.8910 O   0  0  0  0  0  0  0  0  0  0  0  0
    3.8140    3.8551    7.9864 N   0  0  0  0  0  0  0  0  0  0  0  0
    3.1517    3.1661   10.3617 N   0  0  0  0  0  0  0  0  0  0  0  0
    6.4042    5.0608    7.5857 C   0  0  0  0  0  0  0  0  0  0  0  0
    7.6853    5.6188    7.2776 C   0  0  0  0  0  0  0  0  0  0  0  0
    8.4238    5.5888    8.0650 H   0  0  0  0  0  0  0  0  0  0  0  0
    7.9540    6.1622    6.0690 C   0  0  0  0  0  0  0  0  0  0  0  0
    8.9263    6.5833    5.8571 H   0  0  0  0  0  0  0  0  0  0  0  0
    6.9650    6.1923    5.0474 C   0  0  0  0  0  0  0  0  0  0  0  0
    7.2309    6.7528    3.7971 C   0  0  0  0  0  0  0  0  0  0  0  0
    8.2100    7.1699    3.6107 H   0  0  0  0  0  0  0  0  0  0  0  0
    6.2662    6.7789    2.8052 C   0  0  0  0  0  0  0  0  0  0  0  0
    6.4931    7.2168    1.8443 H   0  0  0  0  0  0  0  0  0  0  0  0
    5.0165    6.2459    3.0444 C   0  0  0  0  0  3  0  0  0  0  0  0
    4.2582    6.2631    2.2751 H   0  0  0  0  0  0  0  0  0  0  0  0
    4.7099    5.6720    4.2834 C   0  0  0  0  0  0  0  0  0  0  0  0
    5.6855    5.6347    5.3116 C   0  0  0  0  0  0  0  0  0  0  0  0
    3.4347    5.1225    4.5559 C   0  0  0  0  0  0  0  0  0  0  0  0
    2.6789    5.1645    3.7847 H   0  0  0  0  0  0  0  0  0  0  0  0
    3.1480    4.5485    5.7531 C   0  0  0  0  0  0  0  0  0  0  0  0
    2.1571    4.1523    5.9006 H   0  0  0  0  0  0  0  0  0  0  0  0
    4.1017    4.4698    6.8100 C   0  0  0  0  0  0  0  0  0  0  0  0
    5.3850    5.0577    6.5732 C   0  0  0  0  0  0  0  0  0  0  0  0
    2.5456    3.1256    8.0489 C   0  0  0  0  0  0  0  0  0  0  0  0
    2.4648    2.4328    7.2042 H   0  0  0  0  0  0  0  0  0  0  0  0
    1.7096    3.8381    8.0195 H   0  0  0  0  0  0  0  0  0  0  0  0
    2.4904    2.3429    9.3655 C   0  0  0  0  0  0  0  0  0  0  0  0
    1.4456    2.1398    9.6149 H   0  0  0  0  0  0  0  0  0  0  0  0
    3.0414    1.3998    9.2666 H   0  0  0  0  0  0  0  0  0  0  0  0
    2.6954    3.2199   11.5961 C   0  0  0  0  0  0  0  0  0  0  0  0
    1.7103    2.3198   12.1279 C   0  0  0  0  0  0  0  0  0  0  0  0
    1.3838    1.4900   11.5218 H   0  0  0  0  0  0  0  0  0  0  0  0
    1.2455    2.4325   13.3917 C   0  0  0  0  0  0  0  0  0  0  0  0
    0.5365    1.7117   13.7741 H   0  0  0  0  0  0  0  0  0  0  0  0
    1.6657    3.4829   14.2619 C   0  0  0  0  0  0  0  0  0  0  0  0
    1.1556    3.6263   15.5465 C   0  0  0  0  0  0  0  0  0  0  0  0
    0.4155    2.9242   15.9022 H   0  0  0  0  0  0  0  0  0  0  0  0
    1.5838    4.6612   16.3707 C   0  0  0  0  0  0  0  0  0  0  0  0
    1.1740    4.7563   17.3653 H   0  0  0  0  0  0  0  0  0  0  0  0
    2.5207    5.5617   15.9216 C   0  0  0  0  0  0  0  0  0  0  0  0
    2.8484    6.3719   16.5566 H   0  0  0  0  0  0  0  0  0  0  0  0
    3.0688    5.4503   14.6317 C   0  0  0  0  0  0  0  0  0  0  0  0
    2.6439    4.3934   13.7863 C   0  0  2  0  0  3  0  0  0  0  0  0
    3.1863    4.2508   12.4881 C   0  0  0  0  0  0  0  0  0  0  0  0
    4.5479    6.2381   12.8928 C   0  0  0  0  0  0  0  0  0  0  0  0
    5.2879    6.9280   12.5148 H   0  0  0  0  0  0  0  0  0  0  0  0
    4.1668    5.1664   12.0465 C   0  0  0  0  0  0  0  0  0  0  0  0
    4.0253    6.3689   14.1443 C   0  0  0  0  0  0  0  0  0  0  0  0
    4.3424    7.1789   14.7851 H   0  0  0  0  0  0  0  0  0  0  0  0
  1  2  1  0  0  0  0
  1  6  1  0  0  0  0
  1  4  1  0  0  0  0
  3  1  1  0  0  0  0
  4 50  1  0  0  0  0
  5 27  1  0  0  0  0
  5  1  1  0  0  0  0
  6 33  1  0  0  0  0
  7  3  1  0  0  0  0
  8  7  1  0  0  0  0
  8  9  1  0  0  0  0
 10  8  2  0  0  0  0
 11 10  1  0  0  0  0
 12 20  2  0  0  0  0
 12 10  1  0  0  0  0
 13 12  1  0  0  0  0
 14 13  1  0  0  0  0
 15 17  1  0  0  0  0
 15 13  2  0  0  0  0
 16 15  1  0  0  0  0
 17 19  1  0  0  0  0
 18 17  1  0  0  0  0
 19 21  2  0  0  0  0
 19 20  1  0  0  0  0
 20 26  1  0  0  0  0
 21 23  1  0  0  0  0
 22 21  1  0  0  0  0
 23 24  1  0  0  0  0
 23 25  2  0  0  0  0
 25  5  1  0  0  0  0
 26 25  1  0  0  0  0
 26  7  2  0  0  0  0
 27 30  1  0  0  0  0
 28 27  1  0  0  0  0
 29 27  1  0  0  0  0
 30 31  1  0  0  0  0
 30  6  1  0  0  0  0
 32 30  1  0  0  0  0
 33 34  2  0  0  0  0
 33 47  1  0  0  0  0
 34 36  1  0  0  0  0
 35 34  1  0  0  0  0
 36 37  1  0  0  0  0
 36 38  2  0  0  0  0
 38 39  1  0  0  0  0
 39 40  1  0  0  0  0
 39 41  2  0  0  0  0
 41 42  1  0  0  0  0
 43 41  1  0  0  0  0
 43 44  1  0  0  0  0
 45 43  2  0  0  0  0
 46 47  1  6  0  0  0
 46 38  1  0  0  0  0
 46 45  1  0  0  0  0
 48 51  2  0  0  0  0
 49 48  1  0  0  0  0
 50 47  2  0  0  0  0
 50 48  1  0  0  0  0
 51 45  1  0  0  0  0
 51 52  1  0  0  0  0
M  END
$$$$
