CSD_code = SOWQUT | q = 0 | S = 0 | Stoichiometry = C16H21Br2FeN3 | MND = 4
 OpenBabel04212202103D

 43 45  0  0  1  0  0  0  0  0999 V2000
    1.4350    6.1812    5.4235 Br  0  0  0  0  0  0  0  0  0  0  0  0
    3.2980    4.8498    1.7471 Br  0  0  0  0  0  0  0  0  0  0  0  0
    1.9290    5.7893    3.2608 Fe  0  0  0  0  0  0  0  0  0  0  0  0
    0.2464    5.6825    2.4143 N   0  0  0  0  0  0  0  0  0  0  0  0
    1.8524    7.6084    2.6196 N   0  0  2  0  0  0  0  0  0  0  0  0
    2.5697    8.7284    2.7075 N   0  0  0  0  0  0  0  0  0  0  0  0
    0.0148    3.3844    3.1059 C   0  0  0  0  0  0  0  0  0  0  0  0
   -0.6817    2.5536    3.0505 H   0  0  0  0  0  0  0  0  0  0  0  0
    0.1885    3.6262    4.1571 H   0  0  0  0  0  0  0  0  0  0  0  0
    0.9647    3.0749    2.6641 H   0  0  0  0  0  0  0  0  0  0  0  0
   -0.5199    4.5818    2.3858 C   0  0  1  0  0  3  0  0  0  0  0  0
   -1.7355    4.5685    1.7253 C   0  0  0  0  0  0  0  0  0  0  0  0
   -2.3264    3.6664    1.7204 H   0  0  0  0  0  0  0  0  0  0  0  0
   -2.1847    5.7130    1.0749 C   0  0  0  0  0  0  0  0  0  0  0  0
   -3.1302    5.7104    0.5561 H   0  0  0  0  0  0  0  0  0  0  0  0
   -1.4005    6.8488    1.1078 C   0  0  0  0  0  0  0  0  0  0  0  0
   -1.7045    7.7617    0.6226 H   0  0  0  0  0  0  0  0  0  0  0  0
   -0.1881    6.8051    1.7859 C   0  0  0  0  0  0  0  0  0  0  0  0
    0.7377    7.8953    1.9309 C   0  0  1  0  0  3  0  0  0  0  0  0
    0.7648    9.2489    1.5657 C   0  0  0  0  0  0  0  0  0  0  0  0
    0.0118    9.7670    1.0121 H   0  0  0  0  0  0  0  0  0  0  0  0
    1.9453    9.7581    2.0710 C   0  0  0  0  0  0  0  0  0  0  0  0
    2.4273   11.1849    2.0086 C   0  0  0  0  0  0  0  0  0  0  0  0
    1.4815   11.9897    1.1075 C   0  0  0  0  0  0  0  0  0  0  0  0
    1.8347   13.0153    1.0328 H   0  0  0  0  0  0  0  0  0  0  0  0
    0.4754   12.0085    1.5177 H   0  0  0  0  0  0  0  0  0  0  0  0
    1.4490   11.5671    0.1065 H   0  0  0  0  0  0  0  0  0  0  0  0
    2.3859   11.8070    3.4126 C   0  0  0  0  0  0  0  0  0  0  0  0
    2.6228   12.8664    3.3498 H   0  0  0  0  0  0  0  0  0  0  0  0
    3.0989   11.3451    4.0894 H   0  0  0  0  0  0  0  0  0  0  0  0
    1.3923   11.7010    3.8423 H   0  0  0  0  0  0  0  0  0  0  0  0
    3.8382   11.2828    1.4155 C   0  0  0  0  0  0  0  0  0  0  0  0
    4.5867   10.8157    2.0465 H   0  0  0  0  0  0  0  0  0  0  0  0
    4.1067   12.3296    1.2926 H   0  0  0  0  0  0  0  0  0  0  0  0
    3.8714   10.8050    0.4391 H   0  0  0  0  0  0  0  0  0  0  0  0
    3.8453    8.6366    3.3665 C   0  0  0  0  0  0  0  0  0  0  0  0
    3.7471    7.8550    4.1357 H   0  0  0  0  0  0  0  0  0  0  0  0
    4.0731    9.5709    3.8828 H   0  0  0  0  0  0  0  0  0  0  0  0
    4.9753    8.2560    2.4467 C   0  0  0  0  0  0  0  0  0  0  0  0
    5.9376    8.2207    2.9386 H   0  0  0  0  0  0  0  0  0  0  0  0
    4.8529    7.9534    1.1695 C   0  0  0  0  0  0  0  0  0  0  0  0
    3.9039    7.9629    0.6601 H   0  0  0  0  0  0  0  0  0  0  0  0
    5.7013    7.6607    0.5780 H   0  0  0  0  0  0  0  0  0  0  0  0
  2  3  1  0  0  0  0
  3  1  1  0  0  0  0
  4  3  1  0  0  0  0
  5  6  1  1  0  0  0
  5  3  1  0  0  0  0
  6 36  1  0  0  0  0
  7  9  1  0  0  0  0
  8  7  1  0  0  0  0
 10  7  1  0  0  0  0
 11  4  1  0  0  0  0
 11  7  1  1  0  0  0
 12 11  1  0  0  0  0
 13 12  1  0  0  0  0
 14 16  1  0  0  0  0
 14 12  2  0  0  0  0
 15 14  1  0  0  0  0
 16 18  2  0  0  0  0
 17 16  1  0  0  0  0
 18 19  1  0  0  0  0
 18  4  1  0  0  0  0
 19 20  1  1  0  0  0
 19  5  1  0  0  0  0
 20 22  2  0  0  0  0
 21 20  1  0  0  0  0
 22  6  1  0  0  0  0
 23 22  1  0  0  0  0
 23 28  1  0  0  0  0
 24 26  1  0  0  0  0
 24 23  1  0  0  0  0
 25 24  1  0  0  0  0
 27 24  1  0  0  0  0
 28 31  1  0  0  0  0
 28 30  1  0  0  0  0
 29 28  1  0  0  0  0
 32 23  1  0  0  0  0
 32 33  1  0  0  0  0
 34 32  1  0  0  0  0
 35 32  1  0  0  0  0
 36 38  1  0  0  0  0
 36 37  1  0  0  0  0
 39 40  1  0  0  0  0
 39 36  1  0  0  0  0
 41 39  2  0  0  0  0
 42 41  1  0  0  0  0
 43 41  1  0  0  0  0
M  END
$$$$
