CSD_code = SOWQIF | q = 0 | S = 0 | Stoichiometry = C30H31ClN4O2Pd | MND = 4
 OpenBabel04212202103D

 69 73  0  0  1  0  0  0  0  0999 V2000
    9.8690   10.3662    1.2769 Pd  0  0  1  0  0  0  0  0  0  0  0  0
    7.5824   13.1735   -0.9609 N   0  0  0  0  0  0  0  0  0  0  0  0
    6.8345   12.6680   -1.4053 H   0  0  0  0  0  0  0  0  0  0  0  0
    9.2780   11.9020    2.6783 N   0  0  0  0  0  4  0  0  0  0  0  0
    9.4437   11.4094    3.5618 H   0  0  0  0  0  0  0  0  0  0  0  0
    8.3089   12.2416    2.6800 H   0  0  0  0  0  0  0  0  0  0  0  0
    7.7171   10.4296   -0.6785 N   0  0  0  0  0  2  0  0  0  0  0  0
   10.7899    7.9052   -0.2272 N   0  0  0  0  0  2  0  0  0  0  0  0
   11.1703    9.6029    3.1039 Cl  0  0  0  0  0  0  0  0  0  0  0  0
   10.1564   15.3804    3.1315 O   0  0  0  0  0  0  0  0  0  0  0  0
    8.1935   14.2973    3.2299 O   0  0  0  0  0  0  0  0  0  0  0  0
    8.5697   12.5509   -0.2302 C   0  0  0  0  0  0  0  0  0  0  0  0
    9.4544   13.5098    0.2348 C   0  0  0  0  0  0  0  0  0  0  0  0
    8.9763   14.7684   -0.2226 C   0  0  0  0  0  0  0  0  0  0  0  0
    9.4277   16.0830   -0.0791 C   0  0  0  0  0  0  0  0  0  0  0  0
   10.3309   16.2969    0.4736 H   0  0  0  0  0  0  0  0  0  0  0  0
    8.7002   17.0953   -0.6590 C   0  0  0  0  0  0  0  0  0  0  0  0
    9.0296   18.1191   -0.5569 H   0  0  0  0  0  0  0  0  0  0  0  0
    7.5353   16.8302   -1.3884 C   0  0  0  0  0  0  0  0  0  0  0  0
    6.9942   17.6548   -1.8283 H   0  0  0  0  0  0  0  0  0  0  0  0
    7.0712   15.5449   -1.5575 C   0  0  0  0  0  0  0  0  0  0  0  0
    6.1754   15.3402   -2.1244 H   0  0  0  0  0  0  0  0  0  0  0  0
    7.7965   14.5136   -0.9707 C   0  0  0  0  0  0  0  0  0  0  0  0
   10.1573   13.0694    2.5880 C   0  0  1  0  0  0  0  0  0  0  0  0
   11.0374   12.9355    3.2271 H   0  0  0  0  0  0  0  0  0  0  0  0
   10.6325   13.2829    1.1260 C   0  0  0  0  0  0  0  0  0  0  0  0
   11.2999   14.1450    1.0946 H   0  0  0  0  0  0  0  0  0  0  0  0
   11.1973   12.3780    0.8171 H   0  0  0  0  0  0  0  0  0  0  0  0
    8.5966   11.1140   -0.0668 C   0  0  0  0  0  0  0  0  0  0  0  0
    9.3818   14.3100    3.0256 C   0  0  0  0  0  0  0  0  0  0  0  0
    9.5024   16.5994    3.4693 C   0  0  0  0  0  0  0  0  0  0  0  0
    8.8104   16.8830    2.6736 H   0  0  0  0  0  0  0  0  0  0  0  0
   10.2862   17.3437    3.5804 H   0  0  0  0  0  0  0  0  0  0  0  0
    8.9457   16.4839    4.4008 H   0  0  0  0  0  0  0  0  0  0  0  0
   10.4512    8.9473    0.1759 C   0  0  0  0  0  2  0  0  0  0  0  0
    7.6714    9.0452   -0.6502 C   0  0  0  0  0  0  0  0  0  0  0  0
    7.8426    8.3845   -1.8787 C   0  0  0  0  0  0  0  0  0  0  0  0
    7.8189    7.0029   -1.9173 C   0  0  0  0  0  0  0  0  0  0  0  0
    7.9747    6.4932   -2.8577 H   0  0  0  0  0  0  0  0  0  0  0  0
    7.5918    6.2678   -0.7655 C   0  0  0  0  0  0  0  0  0  0  0  0
    7.5753    5.1890   -0.8060 H   0  0  0  0  0  0  0  0  0  0  0  0
    7.3772    6.9214    0.4322 C   0  0  0  0  0  0  0  0  0  0  0  0
    7.1703    6.3475    1.3250 H   0  0  0  0  0  0  0  0  0  0  0  0
    7.4284    8.3077    0.5200 C   0  0  0  0  0  0  0  0  0  0  0  0
    8.0849    9.2008   -3.1130 C   0  0  0  0  0  0  0  0  0  0  0  0
    8.1621    8.5650   -3.9917 H   0  0  0  0  0  0  0  0  0  0  0  0
    9.0010    9.7834   -3.0100 H   0  0  0  0  0  0  0  0  0  0  0  0
    7.2682    9.9066   -3.2571 H   0  0  0  0  0  0  0  0  0  0  0  0
    7.1862    8.9710    1.8526 C   0  0  0  0  0  0  0  0  0  0  0  0
    8.1219    9.0115    2.4438 H   0  0  0  0  0  0  0  0  0  0  0  0
    6.4644    8.3934    2.4285 H   0  0  0  0  0  0  0  0  0  0  0  0
    6.7941    9.9818    1.7188 H   0  0  0  0  0  0  0  0  0  0  0  0
   11.0884    6.6070   -0.4810 C   0  0  0  0  0  0  0  0  0  0  0  0
   11.4608    6.2213   -1.7720 C   0  0  0  0  0  0  0  0  0  0  0  0
   11.7417    4.8828   -1.9923 C   0  0  0  0  0  0  0  0  0  0  0  0
   12.0312    4.5585   -2.9809 H   0  0  0  0  0  0  0  0  0  0  0  0
   11.6549    3.9635   -0.9604 C   0  0  0  0  0  0  0  0  0  0  0  0
   11.8777    2.9240   -1.1493 H   0  0  0  0  0  0  0  0  0  0  0  0
   11.2857    4.3671    0.3114 C   0  0  0  0  0  0  0  0  0  0  0  0
   11.2224    3.6423    1.1093 H   0  0  0  0  0  0  0  0  0  0  0  0
   10.9960    5.6953    0.5807 C   0  0  0  0  0  0  0  0  0  0  0  0
   11.5400    7.2438   -2.8609 C   0  0  0  0  0  0  0  0  0  0  0  0
   10.5670    7.7111   -3.0055 H   0  0  0  0  0  0  0  0  0  0  0  0
   11.8569    6.7887   -3.7953 H   0  0  0  0  0  0  0  0  0  0  0  0
   12.2464    8.0299   -2.5949 H   0  0  0  0  0  0  0  0  0  0  0  0
   10.5888    6.1689    1.9350 C   0  0  0  0  0  0  0  0  0  0  0  0
   10.5395    5.3429    2.6387 H   0  0  0  0  0  0  0  0  0  0  0  0
    9.6140    6.6566    1.8843 H   0  0  0  0  0  0  0  0  0  0  0  0
   11.2917    6.9119    2.3136 H   0  0  0  0  0  0  0  0  0  0  0  0
  1  4  1  0  0  0  0
  1  9  1  1  0  0  0
  2 12  1  0  0  0  0
  3  2  1  0  0  0  0
  4  6  1  0  0  0  0
  4  5  1  0  0  0  0
  7 36  1  0  0  0  0
  7 29  1  0  0  0  0
  8 35  1  0  0  0  0
 10 31  1  0  0  0  0
 12 29  1  0  0  0  0
 12 13  2  0  0  0  0
 13 26  1  0  0  0  0
 14 15  1  0  0  0  0
 14 13  1  0  0  0  0
 15 16  1  0  0  0  0
 17 18  1  0  0  0  0
 17 15  2  0  0  0  0
 19 17  1  0  0  0  0
 20 19  1  0  0  0  0
 21 19  2  0  0  0  0
 21 23  1  0  0  0  0
 22 21  1  0  0  0  0
 23  2  1  0  0  0  0
 23 14  2  0  0  0  0
 24  4  1  0  0  0  0
 24 30  1  0  0  0  0
 24 25  1  1  0  0  0
 26 24  1  0  0  0  0
 27 26  1  0  0  0  0
 28 26  1  0  0  0  0
 29  1  2  0  0  0  0
 30 10  1  0  0  0  0
 30 11  2  0  0  0  0
 31 33  1  0  0  0  0
 31 34  1  0  0  0  0
 32 31  1  0  0  0  0
 35  1  1  0  0  0  0
 36 44  1  0  0  0  0
 37 36  2  0  0  0  0
 38 37  1  0  0  0  0
 38 40  2  0  0  0  0
 39 38  1  0  0  0  0
 40 42  1  0  0  0  0
 41 40  1  0  0  0  0
 42 44  2  0  0  0  0
 42 43  1  0  0  0  0
 44 49  1  0  0  0  0
 45 47  1  0  0  0  0
 45 37  1  0  0  0  0
 46 45  1  0  0  0  0
 48 45  1  0  0  0  0
 49 51  1  0  0  0  0
 49 50  1  0  0  0  0
 52 49  1  0  0  0  0
 53  8  1  0  0  0  0
 53 61  1  0  0  0  0
 54 53  2  0  0  0  0
 55 54  1  0  0  0  0
 55 57  2  0  0  0  0
 56 55  1  0  0  0  0
 57 59  1  0  0  0  0
 58 57  1  0  0  0  0
 59 61  2  0  0  0  0
 59 60  1  0  0  0  0
 61 66  1  0  0  0  0
 62 65  1  0  0  0  0
 62 54  1  0  0  0  0
 63 62  1  0  0  0  0
 64 62  1  0  0  0  0
 66 69  1  0  0  0  0
 66 67  1  0  0  0  0
 68 66  1  0  0  0  0
M  END
$$$$
