CSD_code = SOWRII | q = 0 | S = 0 | Stoichiometry = C24H38BBrFeN4 | MND = 4
 OpenBabel04212202103D

 69 74  0  0  1  0  0  0  0  0999 V2000
   10.7659    3.8114    3.0533 C   0  0  0  0  0  0  0  0  0  0  0  0
    9.9083    3.1510    2.8960 H   0  0  0  0  0  0  0  0  0  0  0  0
   10.4134    4.6859    3.6009 H   0  0  0  0  0  0  0  0  0  0  0  0
   11.5109    3.3021    3.6594 H   0  0  0  0  0  0  0  0  0  0  0  0
   11.3386    4.2463    1.7417 C   0  0  2  0  0  3  0  0  0  0  0  0
   12.6300    4.7387    1.6343 C   0  0  0  0  0  0  0  0  0  0  0  0
   13.2546    4.7868    2.5121 H   0  0  0  0  0  0  0  0  0  0  0  0
   13.1014    5.1721    0.4012 C   0  0  0  0  0  0  0  0  0  0  0  0
   14.1047    5.5560    0.3036 H   0  0  0  0  0  0  0  0  0  0  0  0
   12.2582    5.1157   -0.6926 C   0  0  0  0  0  0  0  0  0  0  0  0
   12.5713    5.4569   -1.6657 H   0  0  0  0  0  0  0  0  0  0  0  0
   10.9742    4.6137   -0.5203 C   0  0  0  0  0  0  0  0  0  0  0  0
    9.9587    4.5176   -1.5323 C   0  0  2  0  0  3  0  0  0  0  0  0
    9.8634    4.7969   -2.9020 C   0  0  0  0  0  0  0  0  0  0  0  0
   10.6412    5.1805   -3.5263 H   0  0  0  0  0  0  0  0  0  0  0  0
    8.5671    4.4777   -3.2612 C   0  0  0  0  0  0  0  0  0  0  0  0
    7.9456    4.5935   -4.6301 C   0  0  0  0  0  0  0  0  0  0  0  0
    8.9389    5.2907   -5.5695 C   0  0  0  0  0  0  0  0  0  0  0  0
    8.4952    5.3949   -6.5567 H   0  0  0  0  0  0  0  0  0  0  0  0
    9.8526    4.7112   -5.6714 H   0  0  0  0  0  0  0  0  0  0  0  0
    9.1871    6.2826   -5.2006 H   0  0  0  0  0  0  0  0  0  0  0  0
    6.6685    5.4449   -4.5873 C   0  0  0  0  0  0  0  0  0  0  0  0
    6.3539    5.6779   -5.6020 H   0  0  0  0  0  0  0  0  0  0  0  0
    6.8584    6.3809   -4.0665 H   0  0  0  0  0  0  0  0  0  0  0  0
    5.8470    4.9367   -4.0940 H   0  0  0  0  0  0  0  0  0  0  0  0
    7.6571    3.1979   -5.2031 C   0  0  0  0  0  0  0  0  0  0  0  0
    7.2443    3.2921   -6.2047 H   0  0  0  0  0  0  0  0  0  0  0  0
    6.9487    2.6388   -4.5989 H   0  0  0  0  0  0  0  0  0  0  0  0
    8.5775    2.6211   -5.2638 H   0  0  0  0  0  0  0  0  0  0  0  0
    6.5800    3.6229   -1.9105 C   0  0  0  0  0  0  0  0  0  0  0  0
    6.1720    3.2208   -2.8370 H   0  0  0  0  0  0  0  0  0  0  0  0
    5.9998    4.5068   -1.6172 H   0  0  0  0  0  0  0  0  0  0  0  0
    6.4799    2.5602   -0.8153 C   0  0  0  0  0  0  0  0  0  0  0  0
    5.4214    2.3387   -0.6736 H   0  0  0  0  0  0  0  0  0  0  0  0
    6.8181    3.0041    0.1347 H   0  0  0  0  0  0  0  0  0  0  0  0
    7.2644    1.2754   -1.1193 C   0  0  0  0  0  0  0  0  0  0  0  0
    7.9109    1.4550   -1.9847 H   0  0  0  0  0  0  0  0  0  0  0  0
    6.5571    0.5121   -1.4390 H   0  0  0  0  0  0  0  0  0  0  0  0
    8.6960   -0.8202   -0.0846 C   0  0  2  0  0  0  0  0  0  0  0  0
    9.1805   -0.9741   -1.0601 H   0  0  0  0  0  0  0  0  0  0  0  0
    7.4727   -1.7480   -0.0675 C   0  0  0  0  0  0  0  0  0  0  0  0
    7.7985   -2.7931   -0.1198 H   0  0  0  0  0  0  0  0  0  0  0  0
    6.8969   -1.5519   -0.9745 H   0  0  0  0  0  0  0  0  0  0  0  0
    6.5434   -1.5973    1.1418 C   0  0  0  0  0  0  0  0  0  0  0  0
    5.5821   -2.0603    0.8947 H   0  0  0  0  0  0  0  0  0  0  0  0
    6.9419   -2.1637    1.9818 H   0  0  0  0  0  0  0  0  0  0  0  0
    6.2825   -0.1545    1.5821 C   0  0  0  0  0  0  0  0  0  0  0  0
    5.8128   -0.1785    2.5720 H   0  0  0  0  0  0  0  0  0  0  0  0
    5.5640    0.2968    0.8948 H   0  0  0  0  0  0  0  0  0  0  0  0
    7.5269    0.7416    1.6031 C   0  0  1  0  0  0  0  0  0  0  0  0
    7.1746    1.7457    1.9181 H   0  0  0  0  0  0  0  0  0  0  0  0
    8.5422    0.3208    2.6804 C   0  0  0  0  0  0  0  0  0  0  0  0
    9.2808    1.1254    2.7798 H   0  0  0  0  0  0  0  0  0  0  0  0
    8.0406    0.2427    3.6516 H   0  0  0  0  0  0  0  0  0  0  0  0
    9.2892   -0.9922    2.4241 C   0  0  0  0  0  0  0  0  0  0  0  0
   10.1750   -1.0173    3.0700 H   0  0  0  0  0  0  0  0  0  0  0  0
    8.6661   -1.8272    2.7366 H   0  0  0  0  0  0  0  0  0  0  0  0
    9.7341   -1.2156    0.9758 C   0  0  0  0  0  0  0  0  0  0  0  0
    9.9977   -2.2729    0.8612 H   0  0  0  0  0  0  0  0  0  0  0  0
   10.6544   -0.6497    0.7901 H   0  0  0  0  0  0  0  0  0  0  0  0
    8.2150    0.7356    0.1162 B   0  0  2  0  0  0  0  0  0  0  0  0
   10.5320    4.1671    0.6802 N   0  0  0  0  0  0  0  0  0  0  0  0
    8.7794    4.0565   -1.0986 N   0  0  1  0  0  0  0  0  0  0  0  0
    7.9498    4.0257   -2.1345 N   0  0  0  0  0  0  0  0  0  0  0  0
    9.4489    1.7154    0.1350 N   0  0  0  0  0  4  0  0  0  0  0  0
    9.9084    1.6969   -0.7708 H   0  0  0  0  0  0  0  0  0  0  0  0
   10.1337    1.3701    0.8010 H   0  0  0  0  0  0  0  0  0  0  0  0
    8.7767    3.4763    0.7142 Fe  0  0  1  0  0  0  0  0  0  0  0  0
    7.7855    5.2909    1.6658 Br  0  0  0  0  0  0  0  0  0  0  0  0
  1  3  1  0  0  0  0
  1  4  1  0  0  0  0
  2  1  1  0  0  0  0
  5  1  1  1  0  0  0
  6  5  1  0  0  0  0
  6  7  1  0  0  0  0
  8  6  2  0  0  0  0
  9  8  1  0  0  0  0
 10 12  2  0  0  0  0
 10  8  1  0  0  0  0
 11 10  1  0  0  0  0
 12 62  1  0  0  0  0
 13 14  1  1  0  0  0
 13 63  1  0  0  0  0
 13 12  1  0  0  0  0
 15 14  1  0  0  0  0
 16 14  2  0  0  0  0
 16 64  1  0  0  0  0
 17 22  1  0  0  0  0
 17 16  1  0  0  0  0
 18 21  1  0  0  0  0
 18 17  1  0  0  0  0
 19 18  1  0  0  0  0
 20 18  1  0  0  0  0
 22 25  1  0  0  0  0
 22 24  1  0  0  0  0
 23 22  1  0  0  0  0
 26 17  1  0  0  0  0
 26 28  1  0  0  0  0
 27 26  1  0  0  0  0
 29 26  1  0  0  0  0
 30 32  1  0  0  0  0
 30 33  1  0  0  0  0
 31 30  1  0  0  0  0
 33 34  1  0  0  0  0
 33 35  1  0  0  0  0
 36 33  1  0  0  0  0
 37 36  1  0  0  0  0
 38 36  1  0  0  0  0
 39 40  1  6  0  0  0
 39 41  1  0  0  0  0
 39 61  1  0  0  0  0
 39 58  1  0  0  0  0
 41 44  1  0  0  0  0
 42 41  1  0  0  0  0
 43 41  1  0  0  0  0
 44 47  1  0  0  0  0
 44 46  1  0  0  0  0
 45 44  1  0  0  0  0
 47 50  1  0  0  0  0
 47 48  1  0  0  0  0
 49 47  1  0  0  0  0
 50 51  1  1  0  0  0
 50 52  1  0  0  0  0
 52 53  1  0  0  0  0
 52 54  1  0  0  0  0
 55 52  1  0  0  0  0
 55 57  1  0  0  0  0
 55 56  1  0  0  0  0
 58 55  1  0  0  0  0
 59 58  1  0  0  0  0
 60 58  1  0  0  0  0
 61 36  1  6  0  0  0
 61 65  1  0  0  0  0
 61 50  1  0  0  0  0
 62 68  1  0  0  0  0
 62  5  1  0  0  0  0
 63 64  1  6  0  0  0
 63 68  1  0  0  0  0
 64 30  1  0  0  0  0
 65 68  1  0  0  0  0
 65 67  1  0  0  0  0
 66 65  1  0  0  0  0
 68 69  1  1  0  0  0
M  END
$$$$
