CSD_code = SOWTEE | q = 0 | S = 0 | Stoichiometry = C31H34ClIrN2 | MND = 6
 OpenBabel04212202103D

 69 72  0  0  1  0  0  0  0  0999 V2000
   11.1095    8.3963   13.0588 C   0  0  0  0  0  3  0  0  0  0  0  0
   10.7201    6.8176   14.6138 C   0  0  0  0  0  0  0  0  0  0  0  0
   10.2011    8.0355   15.0854 C   0  0  0  0  0  0  0  0  0  0  0  0
   10.6726    5.6688   15.3873 C   0  0  0  0  0  0  0  0  0  0  0  0
   11.0938    4.7401   15.0363 H   0  0  0  0  0  0  0  0  0  0  0  0
   10.0819    5.7694   16.6340 C   0  0  0  0  0  0  0  0  0  0  0  0
   10.0265    4.8946   17.2637 H   0  0  0  0  0  0  0  0  0  0  0  0
    9.5699    6.9765   17.1026 C   0  0  0  0  0  0  0  0  0  0  0  0
    9.1284    7.0141   18.0867 H   0  0  0  0  0  0  0  0  0  0  0  0
    9.6265    8.1311   16.3428 C   0  0  0  0  0  0  0  0  0  0  0  0
    9.2546    9.0710   16.7187 H   0  0  0  0  0  0  0  0  0  0  0  0
   11.7774    6.1184   12.4799 C   0  0  0  0  0  0  0  0  0  0  0  0
   11.0507    4.9655   12.2136 C   0  0  0  0  0  0  0  0  0  0  0  0
   10.1033    4.8003   12.7062 H   0  0  0  0  0  0  0  0  0  0  0  0
   11.5271    4.0426   11.2935 C   0  0  0  0  0  0  0  0  0  0  0  0
   12.7263    4.2992   10.6418 C   0  0  0  0  0  0  0  0  0  0  0  0
   13.0935    3.5881    9.9149 H   0  0  0  0  0  0  0  0  0  0  0  0
   13.4626    5.4467   10.9043 C   0  0  0  0  0  0  0  0  0  0  0  0
   12.9842    6.3548   11.8382 C   0  0  0  0  0  0  0  0  0  0  0  0
   13.5541    7.2372   12.0812 H   0  0  0  0  0  0  0  0  0  0  0  0
   10.7640    2.7835   11.0114 C   0  0  0  0  0  0  0  0  0  0  0  0
   10.8231    2.5236    9.9568 H   0  0  0  0  0  0  0  0  0  0  0  0
    9.7187    2.8893   11.2912 H   0  0  0  0  0  0  0  0  0  0  0  0
   11.1867    1.9566   11.5830 H   0  0  0  0  0  0  0  0  0  0  0  0
   14.7647    5.6981   10.2087 C   0  0  0  0  0  0  0  0  0  0  0  0
   14.7062    5.4164    9.1590 H   0  0  0  0  0  0  0  0  0  0  0  0
   15.5547    5.1051   10.6697 H   0  0  0  0  0  0  0  0  0  0  0  0
   15.0413    6.7461   10.2838 H   0  0  0  0  0  0  0  0  0  0  0  0
    9.9892   10.3033   14.0990 C   0  0  0  0  0  0  0  0  0  0  0  0
   10.8476   11.3282   13.7295 C   0  0  0  0  0  0  0  0  0  0  0  0
   11.8818   11.1082   13.5195 H   0  0  0  0  0  0  0  0  0  0  0  0
   10.3778   12.6311   13.6467 C   0  0  0  0  0  0  0  0  0  0  0  0
    9.0504   12.8898   13.9611 C   0  0  0  0  0  0  0  0  0  0  0  0
    8.6780   13.9029   13.8996 H   0  0  0  0  0  0  0  0  0  0  0  0
    8.1871   11.8745   14.3524 C   0  0  0  0  0  0  0  0  0  0  0  0
    8.6630   10.5728   14.4123 C   0  0  0  0  0  0  0  0  0  0  0  0
    7.9973    9.7644   14.6782 H   0  0  0  0  0  0  0  0  0  0  0  0
   11.2976   13.7388   13.2359 C   0  0  0  0  0  0  0  0  0  0  0  0
   10.8107   14.4013   12.5226 H   0  0  0  0  0  0  0  0  0  0  0  0
   12.2020   13.3359   12.7890 H   0  0  0  0  0  0  0  0  0  0  0  0
   11.5806   14.3335   14.1045 H   0  0  0  0  0  0  0  0  0  0  0  0
    6.7639   12.1861   14.7052 C   0  0  0  0  0  0  0  0  0  0  0  0
    6.7169   12.6491   15.6912 H   0  0  0  0  0  0  0  0  0  0  0  0
    6.1589   11.2831   14.7234 H   0  0  0  0  0  0  0  0  0  0  0  0
    6.3338   12.8840   13.9898 H   0  0  0  0  0  0  0  0  0  0  0  0
   10.2342    8.3875   10.1483 C   0  0  0  0  0  3  0  0  0  0  0  0
    9.8614    7.4590   10.5764 H   0  0  0  0  0  0  0  0  0  0  0  0
    9.7454    9.5821   10.7102 C   0  0  2  0  0  0  0  0  0  0  0  0
    9.0056    9.4878   11.5049 H   0  0  0  0  0  0  0  0  0  0  0  0
    9.6191   10.8958    9.9733 C   0  0  0  0  0  0  0  0  0  0  0  0
    8.7512   10.8610    9.3052 H   0  0  0  0  0  0  0  0  0  0  0  0
    9.4214   11.6686   10.7198 H   0  0  0  0  0  0  0  0  0  0  0  0
   10.8817   11.2771    9.1793 C   0  0  0  0  0  0  0  0  0  0  0  0
   10.9481   12.3658    9.1278 H   0  0  0  0  0  0  0  0  0  0  0  0
   10.8110   10.9107    8.1540 H   0  0  0  0  0  0  0  0  0  0  0  0
   12.1434   10.7359    9.8119 C   0  0  0  0  0  3  0  0  0  0  0  0
   12.7880   11.4871   10.2610 H   0  0  0  0  0  0  0  0  0  0  0  0
   12.7134    9.5269    9.4747 C   0  0  0  0  0  3  0  0  0  0  0  0
   13.7807    9.4058    9.6471 H   0  0  0  0  0  0  0  0  0  0  0  0
   12.1445    8.5379    8.4859 C   0  0  0  0  0  0  0  0  0  0  0  0
   12.6915    7.5999    8.5999 H   0  0  0  0  0  0  0  0  0  0  0  0
   12.3226    8.8975    7.4663 H   0  0  0  0  0  0  0  0  0  0  0  0
   10.6447    8.2608    8.6952 C   0  0  0  0  0  0  0  0  0  0  0  0
   10.4275    7.2472    8.3524 H   0  0  0  0  0  0  0  0  0  0  0  0
   10.0420    8.9407    8.0910 H   0  0  0  0  0  0  0  0  0  0  0  0
   11.2569    7.0804   13.3717 N   0  0  0  0  0  0  0  0  0  0  0  0
   10.4499    8.9696   14.1022 N   0  0  0  0  0  0  0  0  0  0  0  0
   13.7802    9.7598   12.4688 Cl  0  0  0  0  0 15  0  0  0  0  0  0
   11.7284    9.2769   11.3779 Ir  0  0  0  0  0  0  0  0  0  0  0  0
  1 66  1  0  0  0  0
  1 67  1  0  0  0  0
  2  3  2  0  0  0  0
  2  4  1  0  0  0  0
  3 10  1  0  0  0  0
  4  6  2  0  0  0  0
  5  4  1  0  0  0  0
  6  8  1  0  0  0  0
  6  7  1  0  0  0  0
  8  9  1  0  0  0  0
 10 11  1  0  0  0  0
 10  8  2  0  0  0  0
 12 66  1  0  0  0  0
 13 12  1  0  0  0  0
 13 14  1  0  0  0  0
 15 13  2  0  0  0  0
 16 18  2  0  0  0  0
 16 15  1  0  0  0  0
 17 16  1  0  0  0  0
 18 19  1  0  0  0  0
 19 20  1  0  0  0  0
 19 12  2  0  0  0  0
 21 23  1  0  0  0  0
 21 15  1  0  0  0  0
 21 24  1  0  0  0  0
 22 21  1  0  0  0  0
 25 28  1  0  0  0  0
 25 27  1  0  0  0  0
 25 18  1  0  0  0  0
 26 25  1  0  0  0  0
 29 67  1  0  0  0  0
 29 36  1  0  0  0  0
 30 29  2  0  0  0  0
 31 30  1  0  0  0  0
 32 30  1  0  0  0  0
 32 33  2  0  0  0  0
 33 35  1  0  0  0  0
 34 33  1  0  0  0  0
 35 36  2  0  0  0  0
 35 42  1  0  0  0  0
 36 37  1  0  0  0  0
 38 32  1  0  0  0  0
 38 41  1  0  0  0  0
 39 38  1  0  0  0  0
 40 38  1  0  0  0  0
 42 44  1  0  0  0  0
 42 43  1  0  0  0  0
 45 42  1  0  0  0  0
 46 47  1  0  0  0  0
 46 48  1  0  0  0  0
 48 69  1  0  0  0  0
 48 49  1  1  0  0  0
 50 48  1  0  0  0  0
 50 52  1  0  0  0  0
 51 50  1  0  0  0  0
 53 56  1  0  0  0  0
 53 50  1  0  0  0  0
 54 53  1  0  0  0  0
 55 53  1  0  0  0  0
 56 57  1  0  0  0  0
 58 59  1  0  0  0  0
 58 56  1  0  0  0  0
 60 61  1  0  0  0  0
 60 63  1  0  0  0  0
 60 58  1  0  0  0  0
 62 60  1  0  0  0  0
 63 46  1  0  0  0  0
 64 63  1  0  0  0  0
 65 63  1  0  0  0  0
 66  2  1  0  0  0  0
 67  3  1  0  0  0  0
 69  1  1  0  0  0  0
M  END
$$$$
