CSD_code = SOWTEG | q = 0 | S = 0 | Stoichiometry = C17H25Br2FeN3 | MND = 4
 OpenBabel04212202103D

 48 50  0  0  1  0  0  0  0  0999 V2000
    0.7390    5.8592    1.8812 C   0  0  0  0  0  0  0  0  0  0  0  0
    1.0537    5.2320    1.0439 H   0  0  0  0  0  0  0  0  0  0  0  0
    1.2114    6.8318    1.7848 H   0  0  0  0  0  0  0  0  0  0  0  0
   -0.3436    5.9906    1.8228 H   0  0  0  0  0  0  0  0  0  0  0  0
    1.1078    5.2107    3.1784 C   0  0  1  0  0  3  0  0  0  0  0  0
    1.8875    5.8471    4.1278 C   0  0  0  0  0  0  0  0  0  0  0  0
    2.2484    6.8449    3.9353 H   0  0  0  0  0  0  0  0  0  0  0  0
    2.1976    5.1994    5.3189 C   0  0  0  0  0  0  0  0  0  0  0  0
    2.8023    5.6896    6.0653 H   0  0  0  0  0  0  0  0  0  0  0  0
    1.7196    3.9206    5.5250 C   0  0  0  0  0  0  0  0  0  0  0  0
    1.9339    3.3752    6.4292 H   0  0  0  0  0  0  0  0  0  0  0  0
    0.9429    3.3290    4.5359 C   0  0  0  0  0  0  0  0  0  0  0  0
    0.3939    2.0009    4.5810 C   0  0  2  0  0  3  0  0  0  0  0  0
    0.4805    0.9151    5.4621 C   0  0  0  0  0  0  0  0  0  0  0  0
    0.9973    0.9033    6.3972 H   0  0  0  0  0  0  0  0  0  0  0  0
   -0.2237   -0.1154    4.8691 C   0  0  0  0  0  0  0  0  0  0  0  0
   -0.3650   -1.5276    5.3790 C   0  0  0  0  0  0  0  0  0  0  0  0
   -1.8297   -1.9817    5.4252 C   0  0  0  0  0  0  0  0  0  0  0  0
   -2.2364   -2.1595    4.4354 H   0  0  0  0  0  0  0  0  0  0  0  0
   -2.4407   -1.2367    5.9302 H   0  0  0  0  0  0  0  0  0  0  0  0
   -1.9020   -2.9130    5.9827 H   0  0  0  0  0  0  0  0  0  0  0  0
    0.4660   -2.4741    4.4994 C   0  0  0  0  0  0  0  0  0  0  0  0
    0.1119   -2.4973    3.4727 H   0  0  0  0  0  0  0  0  0  0  0  0
    0.4148   -3.4844    4.8983 H   0  0  0  0  0  0  0  0  0  0  0  0
    1.5070   -2.1594    4.4894 H   0  0  0  0  0  0  0  0  0  0  0  0
    0.1910   -1.5963    6.8076 C   0  0  0  0  0  0  0  0  0  0  0  0
    1.2482   -1.3465    6.8269 H   0  0  0  0  0  0  0  0  0  0  0  0
    0.0778   -2.6060    7.1949 H   0  0  0  0  0  0  0  0  0  0  0  0
   -0.3465   -0.9162    7.4635 H   0  0  0  0  0  0  0  0  0  0  0  0
   -1.5164   -0.2221    2.6586 C   0  0  0  0  0  0  0  0  0  0  0  0
   -1.3791   -1.3022    2.6483 H   0  0  0  0  0  0  0  0  0  0  0  0
   -1.1540    0.1763    1.7021 H   0  0  0  0  0  0  0  0  0  0  0  0
   -2.9960    0.1391    2.8169 C   0  0  0  0  0  0  0  0  0  0  0  0
   -3.0929    1.2234    2.8802 H   0  0  0  0  0  0  0  0  0  0  0  0
   -3.3876   -0.2813    3.7442 H   0  0  0  0  0  0  0  0  0  0  0  0
   -3.8191   -0.3665    1.6354 C   0  0  0  0  0  0  0  0  0  0  0  0
   -3.4157    0.0511    0.7103 H   0  0  0  0  0  0  0  0  0  0  0  0
   -3.7402   -1.4550    1.5698 H   0  0  0  0  0  0  0  0  0  0  0  0
   -5.2819    0.0349    1.7726 C   0  0  0  0  0  0  0  0  0  0  0  0
   -5.3721    1.1171    1.8262 H   0  0  0  0  0  0  0  0  0  0  0  0
   -5.7129   -0.3899    2.6766 H   0  0  0  0  0  0  0  0  0  0  0  0
   -5.8562   -0.3177    0.9195 H   0  0  0  0  0  0  0  0  0  0  0  0
    0.6394    3.9695    3.3786 N   0  0  0  0  0  0  0  0  0  0  0  0
   -0.3342    1.6397    3.5138 N   0  0  2  0  0  0  0  0  0  0  0  0
   -0.6992    0.3688    3.6888 N   0  0  0  0  0  0  0  0  0  0  0  0
   -0.4510    3.0279    2.1598 Fe  0  0  0  0  0  0  0  0  0  0  0  0
    0.9997    2.1570    0.6755 Br  0  0  0  0  0  0  0  0  0  0  0  0
   -2.4620    3.9403    2.6019 Br  0  0  0  0  0  0  0  0  0  0  0  0
  2  1  1  0  0  0  0
  3  1  1  0  0  0  0
  4  1  1  0  0  0  0
  5  1  1  1  0  0  0
  5 43  1  0  0  0  0
  5  6  1  0  0  0  0
  6  8  2  0  0  0  0
  7  6  1  0  0  0  0
  8 10  1  0  0  0  0
  8  9  1  0  0  0  0
 10 11  1  0  0  0  0
 12 10  2  0  0  0  0
 13 12  1  6  0  0  0
 13 14  1  0  0  0  0
 14 15  1  0  0  0  0
 16 17  1  0  0  0  0
 16 14  2  0  0  0  0
 17 18  1  0  0  0  0
 17 26  1  0  0  0  0
 18 20  1  0  0  0  0
 18 21  1  0  0  0  0
 19 18  1  0  0  0  0
 22 24  1  0  0  0  0
 22 17  1  0  0  0  0
 23 22  1  0  0  0  0
 25 22  1  0  0  0  0
 26 27  1  0  0  0  0
 26 28  1  0  0  0  0
 26 29  1  0  0  0  0
 30 33  1  0  0  0  0
 30 45  1  0  0  0  0
 31 30  1  0  0  0  0
 32 30  1  0  0  0  0
 33 34  1  0  0  0  0
 33 35  1  0  0  0  0
 36 39  1  0  0  0  0
 36 33  1  0  0  0  0
 37 36  1  0  0  0  0
 38 36  1  0  0  0  0
 39 40  1  0  0  0  0
 39 41  1  0  0  0  0
 42 39  1  0  0  0  0
 43 12  1  0  0  0  0
 44 45  1  6  0  0  0
 44 13  1  0  0  0  0
 45 16  1  0  0  0  0
 46 48  1  0  0  0  0
 46 43  1  0  0  0  0
 46 44  1  0  0  0  0
 47 46  1  0  0  0  0
M  END
$$$$
