CSD_code = SOWXIM | q = 0 | S = 0 | Stoichiometry = C11H14Cl2N2OPt | MND = 4
 OpenBabel04212202103D

 31 33  0  0  1  0  0  0  0  0999 V2000
   -0.2057   14.5104   10.9990 Pt  0  0  0  0  0  0  0  0  0  0  0  0
   -0.0951   15.5820    9.0499 Cl  0  0  0  0  0  0  0  0  0  0  0  0
   -0.6972   12.6299    9.9107 Cl  0  0  0  0  0  0  0  0  0  0  0  0
   -0.2199   13.6494   12.8208 N   0  0  0  0  0  0  0  0  0  0  0  0
   -0.4447   12.3707   13.1178 C   0  0  0  0  0  0  0  0  0  0  0  0
   -0.6668   11.7265   12.2763 H   0  0  0  0  0  0  0  0  0  0  0  0
   -0.3982   11.8946   14.4150 C   0  0  0  0  0  0  0  0  0  0  0  0
   -0.5864   10.8509   14.6069 H   0  0  0  0  0  0  0  0  0  0  0  0
   -0.1087   12.7707   15.4581 C   0  0  0  0  0  0  0  0  0  0  0  0
   -0.0685   12.4201   16.4773 H   0  0  0  0  0  0  0  0  0  0  0  0
    0.1271   14.0991   15.1612 C   0  0  0  0  0  0  0  0  0  0  0  0
    0.3570   14.8277   15.9218 H   0  0  0  0  0  0  0  0  0  0  0  0
    0.0654   14.5066   13.8312 C   0  0  0  0  0  0  0  0  0  0  0  0
    0.2792   15.8587   13.3815 C   0  0  0  0  0  0  0  0  0  0  0  0
    0.5263   16.8850   14.2017 O   0  0  0  0  0  0  0  0  0  0  0  0
    0.6475   18.0470   13.3723 C   0  0  0  0  0  0  0  0  0  0  0  0
    1.6523   18.4559   13.5016 H   0  0  0  0  0  0  0  0  0  0  0  0
   -0.0853   18.7810   13.7126 H   0  0  0  0  0  0  0  0  0  0  0  0
    0.3836   17.5527   11.9271 C   0  0  1  0  0  0  0  0  0  0  0  0
    1.2505   17.7218   11.2798 H   0  0  0  0  0  0  0  0  0  0  0  0
    0.2174   16.1265   12.1202 N   0  0  0  0  0  0  0  0  0  0  0  0
   -0.8516   18.1636   11.2324 C   0  0  0  0  0  0  0  0  0  0  0  0
   -0.8830   17.7135   10.2352 H   0  0  0  0  0  0  0  0  0  0  0  0
   -0.6880   19.6725   11.0817 C   0  0  0  0  0  0  0  0  0  0  0  0
   -0.6950   20.1768   12.0460 H   0  0  0  0  0  0  0  0  0  0  0  0
   -1.5060   20.0697   10.4870 H   0  0  0  0  0  0  0  0  0  0  0  0
    0.2451   19.9072   10.5756 H   0  0  0  0  0  0  0  0  0  0  0  0
   -2.1475   17.8019   11.9533 C   0  0  0  0  0  0  0  0  0  0  0  0
   -2.2986   16.7215   11.9349 H   0  0  0  0  0  0  0  0  0  0  0  0
   -2.9887   18.2653   11.4454 H   0  0  0  0  0  0  0  0  0  0  0  0
   -2.1468   18.1398   12.9887 H   0  0  0  0  0  0  0  0  0  0  0  0
  1 21  1  0  0  0  0
  1  4  1  0  0  0  0
  2  1  1  0  0  0  0
  3  1  1  0  0  0  0
  4  5  1  0  0  0  0
  4 13  1  0  0  0  0
  5  7  2  0  0  0  0
  6  5  1  0  0  0  0
  7  8  1  0  0  0  0
  7  9  1  0  0  0  0
  9 10  1  0  0  0  0
 11  9  2  0  0  0  0
 11 12  1  0  0  0  0
 13 11  1  0  0  0  0
 14 13  2  0  0  0  0
 14 15  1  0  0  0  0
 16 17  1  0  0  0  0
 16 18  1  0  0  0  0
 16 15  1  0  0  0  0
 19 20  1  6  0  0  0
 19 21  1  0  0  0  0
 19 16  1  0  0  0  0
 21 14  1  0  0  0  0
 22 19  1  0  0  0  0
 22 28  1  0  0  0  0
 23 22  1  0  0  0  0
 24 22  1  0  0  0  0
 24 25  1  0  0  0  0
 26 24  1  0  0  0  0
 27 24  1  0  0  0  0
 28 31  1  0  0  0  0
 29 28  1  0  0  0  0
 30 28  1  0  0  0  0
M  END
$$$$
