CSD_code = SOXVAD | q = 0 | S = 0 | Stoichiometry = C8H10Br2N4S2Zn | MND = 4
 OpenBabel04212202103D

 27 29  0  0  1  0  0  0  0  0999 V2000
    3.7981    2.2015    1.7447 Br  0  0  0  0  0  0  0  0  0  0  0  0
    1.7874    5.7004   -0.0350 Br  0  0  0  0  0  0  0  0  0  0  0  0
    2.7151    3.5277    0.1590 Zn  0  0  0  0  0  0  0  0  0  0  0  0
    2.0808    3.9045   -3.3079 S   0  0  0  0  0  0  0  0  0  0  0  0
    1.7506    1.8923   -3.1246 S   0  0  0  0  0  0  0  0  0  0  0  0
    4.0827    3.6197   -1.4738 N   0  0  0  0  0  0  0  0  0  0  0  0
    4.7263    4.5871   -3.3454 N   0  0  0  0  0  0  0  0  0  0  0  0
    1.0952    2.2879   -0.4861 N   0  0  0  0  0  0  0  0  0  0  0  0
   -0.3446    1.0531   -1.6047 N   0  0  0  0  0  0  0  0  0  0  0  0
    3.6992    4.0490   -2.6593 C   0  0  1  0  0  3  0  0  0  0  0  0
    5.4117    3.8847   -1.3871 C   0  0  0  0  0  0  0  0  0  0  0  0
    5.8210    4.4939   -2.5371 C   0  0  0  0  0  0  0  0  0  0  0  0
    4.6635    5.2060   -4.6383 C   0  0  0  0  0  0  0  0  0  0  0  0
    0.8028    1.7603   -1.6568 C   0  0  2  0  0  3  0  0  0  0  0  0
    0.0987    1.9133    0.3576 C   0  0  0  0  0  0  0  0  0  0  0  0
   -0.7953    1.1394   -0.3205 C   0  0  0  0  0  0  0  0  0  0  0  0
   -0.9516    0.3115   -2.6729 C   0  0  0  0  0  0  0  0  0  0  0  0
    5.9710    3.6128   -0.5142 H   0  0  0  0  0  0  0  0  0  0  0  0
    6.7800    4.8642   -2.8336 H   0  0  0  0  0  0  0  0  0  0  0  0
    5.6161    5.0747   -5.1490 H   0  0  0  0  0  0  0  0  0  0  0  0
    3.8659    4.7467   -5.2221 H   0  0  0  0  0  0  0  0  0  0  0  0
    4.4533    6.2731   -4.5395 H   0  0  0  0  0  0  0  0  0  0  0  0
    0.0949    2.2221    1.3839 H   0  0  0  0  0  0  0  0  0  0  0  0
   -1.6942    0.6570    0.0016 H   0  0  0  0  0  0  0  0  0  0  0  0
   -2.0353    0.3617   -2.5779 H   0  0  0  0  0  0  0  0  0  0  0  0
   -0.6471    0.7378   -3.6283 H   0  0  0  0  0  0  0  0  0  0  0  0
   -0.6380   -0.7340   -2.6396 H   0  0  0  0  0  0  0  0  0  0  0  0
  2  3  1  0  0  0  0
  3  1  1  0  0  0  0
  4  5  1  0  0  0  0
  6 11  1  0  0  0  0
  6  3  1  0  0  0  0
  7 10  1  0  0  0  0
  7 12  1  0  0  0  0
  8  3  1  0  0  0  0
  8 15  1  0  0  0  0
  9 16  1  0  0  0  0
 10  4  1  6  0  0  0
 10  6  1  0  0  0  0
 11 18  1  0  0  0  0
 12 11  2  0  0  0  0
 13 22  1  0  0  0  0
 13  7  1  0  0  0  0
 14  5  1  1  0  0  0
 14  9  1  0  0  0  0
 14  8  1  0  0  0  0
 15 23  1  0  0  0  0
 16 24  1  0  0  0  0
 16 15  2  0  0  0  0
 17 27  1  0  0  0  0
 17 25  1  0  0  0  0
 17  9  1  0  0  0  0
 19 12  1  0  0  0  0
 20 13  1  0  0  0  0
 21 13  1  0  0  0  0
 26 17  1  0  0  0  0
M  END
$$$$
