CSD_code = SOYYUA | q = 0 | S = 0 | Stoichiometry = C15H12I2N2OPt | MND = 4
 OpenBabel04212202103D

 33 36  0  0  0  0  0  0  0  0999 V2000
    6.3786    1.8797    2.1605 Pt  0  0  0  0  0  0  0  0  0  0  0  0
    8.6766    1.8617    0.8424 I   0  0  0  0  0  0  0  0  0  0  0  0
    3.9602    1.8068    3.2408 I   0  0  0  0  0  0  0  0  0  0  0  0
    6.9381   -0.8673    3.2036 O   0  0  0  0  0  1  0  0  0  0  0  0
    5.9263    3.6817    1.3118 N   0  0  0  0  0  0  0  0  0  0  0  0
    7.1691    3.6580    3.7599 N   0  0  0  0  0  0  0  0  0  0  0  0
    6.7332    0.1863    2.8214 C   0  0  0  0  0  2  0  0  0  0  0  0
    5.3256    3.6866    0.1277 C   0  0  0  0  0  0  0  0  0  0  0  0
    4.9835    4.8883   -0.5102 C   0  0  0  0  0  0  0  0  0  0  0  0
    5.2696    6.0864    0.0866 C   0  0  0  0  0  0  0  0  0  0  0  0
    5.9064    6.0954    1.3380 C   0  0  0  0  0  0  0  0  0  0  0  0
    6.2214    4.8506    1.9245 C   0  0  0  0  0  0  0  0  0  0  0  0
    6.2333    7.3049    2.0116 C   0  0  0  0  0  0  0  0  0  0  0  0
    6.8481    7.2912    3.2179 C   0  0  0  0  0  0  0  0  0  0  0  0
    7.1829    6.0609    3.8442 C   0  0  0  0  0  0  0  0  0  0  0  0
    6.8730    4.8404    3.2057 C   0  0  0  0  0  0  0  0  0  0  0  0
    7.7656    3.5959    4.9312 C   0  0  0  0  0  0  0  0  0  0  0  0
    8.1119    4.7609    5.6366 C   0  0  0  0  0  0  0  0  0  0  0  0
    7.8214    5.9859    5.0945 C   0  0  0  0  0  0  0  0  0  0  0  0
    5.0169    2.3813   -0.5261 C   0  0  0  0  0  0  0  0  0  0  0  0
    8.0493    2.2327    5.4632 C   0  0  0  0  0  0  0  0  0  0  0  0
    4.4955    4.8489   -1.4710 H   0  0  0  0  0  0  0  0  0  0  0  0
    5.0145    7.0219   -0.3883 H   0  0  0  0  0  0  0  0  0  0  0  0
    5.9751    8.2355    1.5290 H   0  0  0  0  0  0  0  0  0  0  0  0
    7.0960    8.2103    3.7277 H   0  0  0  0  0  0  0  0  0  0  0  0
    8.6014    4.6788    6.5944 H   0  0  0  0  0  0  0  0  0  0  0  0
    8.0754    6.8990    5.6133 H   0  0  0  0  0  0  0  0  0  0  0  0
    4.5103    2.5369   -1.4751 H   0  0  0  0  0  0  0  0  0  0  0  0
    4.3713    1.7713    0.1117 H   0  0  0  0  0  0  0  0  0  0  0  0
    5.9354    1.8195   -0.7162 H   0  0  0  0  0  0  0  0  0  0  0  0
    8.5565    2.2748    6.4225 H   0  0  0  0  0  0  0  0  0  0  0  0
    8.6697    1.6849    4.7529 H   0  0  0  0  0  0  0  0  0  0  0  0
    7.1139    1.6834    5.5767 H   0  0  0  0  0  0  0  0  0  0  0  0
  1  7  1  0  0  0  0
  1  3  1  0  0  0  0
  1  6  1  0  0  0  0
  2  1  1  0  0  0  0
  5 12  1  0  0  0  0
  5  1  1  0  0  0  0
  6 17  1  0  0  0  0
  7  4  1  0  0  0  0
  8  5  1  0  0  0  0
  9 10  1  0  0  0  0
  9  8  2  0  0  0  0
 10 11  2  0  0  0  0
 11 12  1  0  0  0  0
 11 13  1  0  0  0  0
 12 16  2  0  0  0  0
 13 14  2  0  0  0  0
 14 25  1  0  0  0  0
 14 15  1  0  0  0  0
 15 19  2  0  0  0  0
 16  6  1  0  0  0  0
 16 15  1  0  0  0  0
 17 21  1  0  0  0  0
 17 18  2  0  0  0  0
 18 26  1  0  0  0  0
 19 27  1  0  0  0  0
 19 18  1  0  0  0  0
 20 29  1  0  0  0  0
 20  8  1  0  0  0  0
 21 33  1  0  0  0  0
 21 31  1  0  0  0  0
 22  9  1  0  0  0  0
 23 10  1  0  0  0  0
 24 13  1  0  0  0  0
 28 20  1  0  0  0  0
 30 20  1  0  0  0  0
 32 21  1  0  0  0  0
M  END
$$$$
