CSD_code = SOZDEQ | q = 0 | S = 0 | Stoichiometry = C6H5AuCl3P | MND = 2
 OpenBabel04212202103D

 16 16  0  0  0  0  0  0  0  0999 V2000
    4.3071    4.0223    3.3504 Au  0  0  0  0  0  0  0  0  0  0  0  0
    4.2779    2.0593    2.2320 P   0  0  0  0  0  4  0  0  0  0  0  0
    4.3307    5.8976    4.5842 Cl  0  0  0  0  0  0  0  0  0  0  0  0
    2.7745    1.8068    0.9688 Cl  0  0  0  0  0  0  0  0  0  0  0  0
    5.8609    1.6849    1.1057 Cl  0  0  0  0  0  0  0  0  0  0  0  0
    4.1679    0.5748    3.2762 C   0  0  0  0  0  0  0  0  0  0  0  0
    4.1879   -0.7005    2.7199 C   0  0  0  0  0  0  0  0  0  0  0  0
    4.2738   -0.8213    1.6490 H   0  0  0  0  0  0  0  0  0  0  0  0
    4.0979   -1.8026    3.5484 C   0  0  0  0  0  0  0  0  0  0  0  0
    4.1138   -2.7953    3.1246 H   0  0  0  0  0  0  0  0  0  0  0  0
    3.9875   -1.6341    4.9211 C   0  0  0  0  0  0  0  0  0  0  0  0
    3.9174   -2.4988    5.5633 H   0  0  0  0  0  0  0  0  0  0  0  0
    3.9669   -0.3629    5.4714 C   0  0  0  0  0  0  0  0  0  0  0  0
    3.8807   -0.2339    6.5393 H   0  0  0  0  0  0  0  0  0  0  0  0
    4.0577    0.7469    4.6493 C   0  0  0  0  0  0  0  0  0  0  0  0
    4.0447    1.7476    5.0619 H   0  0  0  0  0  0  0  0  0  0  0  0
  1  3  1  0  0  0  0
  2  6  1  0  0  0  0
  2  1  1  0  0  0  0
  4  2  1  0  0  0  0
  5  2  1  0  0  0  0
  6 15  1  0  0  0  0
  7  6  2  0  0  0  0
  7  9  1  0  0  0  0
  8  7  1  0  0  0  0
  9 11  2  0  0  0  0
 10  9  1  0  0  0  0
 11 13  1  0  0  0  0
 11 12  1  0  0  0  0
 13 14  1  0  0  0  0
 15 16  1  0  0  0  0
 15 13  2  0  0  0  0
M  END
$$$$
