CSD_code = SOZVAE | q = 0 | S = 0 | Stoichiometry = C22H23Cl2IrS | MND = 8
 OpenBabel04212202103D

 49 49  0  0  1  0  0  0  0  0999 V2000
    4.0747    1.0459    0.0300 Ir  0  0  0  0  0  0  0  0  0  0  0  0
    2.5450    0.3722   -1.5836 Cl  0  0  0  0  0 15  0  0  0  0  0  0
    5.8195    0.2049   -1.2601 Cl  0  0  0  0  0 15  0  0  0  0  0  0
    3.9013   -1.3710    0.7132 S   0  0  0  0  0  0  0  0  0  0  0  0
    2.6008   -1.4134    1.8933 C   0  0  0  0  0  0  0  0  0  0  0  0
    1.2523   -1.3026    1.6023 C   0  0  0  0  0  0  0  0  0  0  0  0
    0.3494   -1.3766    2.6474 C   0  0  0  0  0  0  0  0  0  0  0  0
    0.7895   -1.5679    3.9535 C   0  0  0  0  0  0  0  0  0  0  0  0
    2.1364   -1.6820    4.2392 C   0  0  0  0  0  0  0  0  0  0  0  0
    3.0649   -1.6057    3.2052 C   0  0  0  0  0  0  0  0  0  0  0  0
    4.5063   -1.6728    3.2643 C   0  0  0  0  0  0  0  0  0  0  0  0
    5.3356   -1.8359    4.3703 C   0  0  0  0  0  0  0  0  0  0  0  0
    6.7059   -1.8383    4.1974 C   0  0  0  0  0  0  0  0  0  0  0  0
    7.2676   -1.6778    2.9342 C   0  0  0  0  0  0  0  0  0  0  0  0
    6.4648   -1.5255    1.8183 C   0  0  0  0  0  0  0  0  0  0  0  0
    5.0922   -1.5227    1.9968 C   0  0  0  0  0  0  0  0  0  0  0  0
    4.5835    2.1395    1.9498 C   0  0  0  0  0  0  0  0  0  0  0  0
    5.1957    1.6606    3.2243 C   0  0  0  0  0  0  0  0  0  0  0  0
    5.2789    2.7408    0.8805 C   0  0  0  0  0  0  0  0  0  0  0  0
    6.7508    2.9505    0.7587 C   0  0  0  0  0  0  0  0  0  0  0  0
    4.2977    3.1779   -0.0914 C   0  0  1  0  0  0  0  0  0  0  0  0
    4.5929    4.0064   -1.2985 C   0  0  0  0  0  0  0  0  0  0  0  0
    2.9858    2.9619    0.4810 C   0  0  0  0  0  0  0  0  0  0  0  0
    1.7000    3.4282   -0.1141 C   0  0  0  0  0  0  0  0  0  0  0  0
    3.1584    2.2656    1.6967 C   0  0  0  0  0  0  0  0  0  0  0  0
    2.0677    1.9281    2.6594 C   0  0  0  0  0  0  0  0  0  0  0  0
    0.9320   -1.1456    0.5841 H   0  0  0  0  0  0  0  0  0  0  0  0
   -0.7074   -1.2869    2.4475 H   0  0  0  0  0  0  0  0  0  0  0  0
    0.0680   -1.6273    4.7545 H   0  0  0  0  0  0  0  0  0  0  0  0
    2.4711   -1.8306    5.2549 H   0  0  0  0  0  0  0  0  0  0  0  0
    4.9066   -1.9585    5.3534 H   0  0  0  0  0  0  0  0  0  0  0  0
    7.3511   -1.9640    5.0539 H   0  0  0  0  0  0  0  0  0  0  0  0
    8.3411   -1.6747    2.8230 H   0  0  0  0  0  0  0  0  0  0  0  0
    6.8798   -1.3876    0.8321 H   0  0  0  0  0  0  0  0  0  0  0  0
    4.5246    0.9959    3.7625 H   0  0  0  0  0  0  0  0  0  0  0  0
    6.1272    1.1293    3.0392 H   0  0  0  0  0  0  0  0  0  0  0  0
    5.4115    2.5159    3.8673 H   0  0  0  0  0  0  0  0  0  0  0  0
    7.2618    2.6492    1.6687 H   0  0  0  0  0  0  0  0  0  0  0  0
    7.1474    2.3641   -0.0702 H   0  0  0  0  0  0  0  0  0  0  0  0
    6.9612    4.0014    0.5638 H   0  0  0  0  0  0  0  0  0  0  0  0
    5.5448    3.7154   -1.7355 H   0  0  0  0  0  0  0  0  0  0  0  0
    3.8142    3.8833   -2.0470 H   0  0  0  0  0  0  0  0  0  0  0  0
    4.6459    5.0605   -1.0193 H   0  0  0  0  0  0  0  0  0  0  0  0
    1.8195    4.4288   -0.5254 H   0  0  0  0  0  0  0  0  0  0  0  0
    1.3942    2.7622   -0.9222 H   0  0  0  0  0  0  0  0  0  0  0  0
    0.9130    3.4418    0.6351 H   0  0  0  0  0  0  0  0  0  0  0  0
    1.7918    2.8173    3.2294 H   0  0  0  0  0  0  0  0  0  0  0  0
    1.1847    1.5704    2.1340 H   0  0  0  0  0  0  0  0  0  0  0  0
    2.3787    1.1593    3.3623 H   0  0  0  0  0  0  0  0  0  0  0  0
  4  5  1  0  0  0  0
  4 16  1  0  0  0  0
  5 10  1  0  0  0  0
  6  5  2  0  0  0  0
  6  7  1  0  0  0  0
  7  8  2  0  0  0  0
  8  9  1  0  0  0  0
  8 29  1  0  0  0  0
  9 30  1  0  0  0  0
 10 11  1  0  0  0  0
 10  9  2  0  0  0  0
 11 12  1  0  0  0  0
 12 31  1  0  0  0  0
 13 12  2  0  0  0  0
 13 32  1  0  0  0  0
 14 13  1  0  0  0  0
 15 16  1  0  0  0  0
 15 14  2  0  0  0  0
 16 11  2  0  0  0  0
 17 18  1  0  0  0  0
 18 35  1  0  0  0  0
 18 37  1  0  0  0  0
 19 17  2  0  0  0  0
 20 19  1  0  0  0  0
 20 38  1  0  0  0  0
 21  1  1  6  0  0  0
 21 23  1  0  0  0  0
 21 19  1  0  0  0  0
 22 43  1  0  0  0  0
 22 21  1  0  0  0  0
 23 25  2  0  0  0  0
 24 23  1  0  0  0  0
 24 46  1  0  0  0  0
 25 17  1  0  0  0  0
 25 26  1  0  0  0  0
 26 47  1  0  0  0  0
 26 49  1  0  0  0  0
 27  6  1  0  0  0  0
 28  7  1  0  0  0  0
 33 14  1  0  0  0  0
 34 15  1  0  0  0  0
 36 18  1  0  0  0  0
 39 20  1  0  0  0  0
 40 20  1  0  0  0  0
 41 22  1  0  0  0  0
 42 22  1  0  0  0  0
 44 24  1  0  0  0  0
 45 24  1  0  0  0  0
 48 26  1  0  0  0  0
M  END
$$$$
