CSD_code = SUBRAI | q = 1 | S = 0 | Stoichiometry = C28H24ClN8Ru(1+) | MND = 6
 OpenBabel04212202103D

 62 69  0  0  1  0  0  0  0  0999 V2000
    4.7961    1.9277    4.2441 Ru  0  0  0  0  0  0  0  0  0  0  0  0
    7.0095    2.7648    4.0692 Cl  0  0  0  0  0  0  0  0  0  0  0  0
    4.6134    3.4129    5.5630 N   0  0  0  0  0  0  0  0  0  0  0  0
    4.1295    4.6316    5.3274 C   0  0  0  0  0  3  0  0  0  0  0  0
    4.2925    5.6911    6.1992 C   0  0  0  0  0  0  0  0  0  0  0  0
    4.9952    5.4851    7.3793 C   0  0  0  0  0  0  0  0  0  0  0  0
    5.4914    4.2219    7.6403 C   0  0  0  0  0  0  0  0  0  0  0  0
    5.2873    3.1981    6.7166 C   0  0  0  0  0  0  0  0  0  0  0  0
    5.4784    1.0055    5.8501 N   0  0  0  0  0  0  0  0  0  0  0  0
    5.7551    1.8242    6.8896 C   0  0  2  0  0  3  0  0  0  0  0  0
    6.4145    1.3539    8.0246 C   0  0  0  0  0  0  0  0  0  0  0  0
    6.7906    0.0265    8.0945 C   0  0  0  0  0  0  0  0  0  0  0  0
    6.4837   -0.8083    7.0273 C   0  0  0  0  0  0  0  0  0  0  0  0
    5.8323   -0.2758    5.9320 C   0  0  0  0  0  0  0  0  0  0  0  0
    3.0368    1.0541    4.4222 N   0  0  0  0  0  0  0  0  0  0  0  0
    2.1083    1.3525    5.3351 C   0  0  0  0  0  3  0  0  0  0  0  0
    0.9157    0.6688    5.4506 C   0  0  0  0  0  0  0  0  0  0  0  0
    0.6553   -0.3828    4.5778 C   0  0  0  0  0  0  0  0  0  0  0  0
    1.6170   -0.7152    3.6429 C   0  0  0  0  0  0  0  0  0  0  0  0
    2.8054    0.0116    3.5863 C   0  0  0  0  0  0  0  0  0  0  0  0
    5.0281    0.4432    2.9361 N   0  0  0  0  0  0  0  0  0  0  0  0
    3.9173   -0.2907    2.6908 C   0  0  1  0  0  3  0  0  0  0  0  0
    3.8946   -1.2545    1.6839 C   0  0  0  0  0  0  0  0  0  0  0  0
    5.0331   -1.4770    0.9310 C   0  0  0  0  0  0  0  0  0  0  0  0
    6.1730   -0.7330    1.2095 C   0  0  0  0  0  0  0  0  0  0  0  0
    6.1246    0.2139    2.2158 C   0  0  0  0  0  0  0  0  0  0  0  0
    4.2380    3.0676    2.5397 N   0  0  0  0  0  0  0  0  0  0  0  0
    3.0548    3.4638    1.9728 C   0  0  0  0  0  0  0  0  0  0  0  0
    1.6987    3.1518    2.4825 C   0  0  0  0  0  0  0  0  0  0  0  0
    5.1632    3.5780    1.7409 C   0  0  0  0  0  3  0  0  0  0  0  0
    4.5711    4.2524    0.7457 N   0  0  0  0  0  0  0  0  0  0  0  0
    3.2454    4.1764    0.8965 N   0  0  0  0  0  0  0  0  0  0  0  0
    4.2906    5.5677   -1.1172 N   0  0  0  0  0  0  0  0  0  0  0  0
    5.1531    4.9689   -0.3171 C   0  0  0  0  0  0  0  0  0  0  0  0
    6.5337    5.0252   -0.4831 C   0  0  0  0  0  0  0  0  0  0  0  0
    7.0121    5.7596   -1.5570 C   0  0  0  0  0  0  0  0  0  0  0  0
    4.7570    6.2638   -2.1353 C   0  0  0  0  0  0  0  0  0  0  0  0
    6.1134    6.3930   -2.4022 C   0  0  0  0  0  0  0  0  0  0  0  0
    3.5943    4.7666    4.3956 H   0  0  0  0  0  0  0  0  0  0  0  0
    3.8875    6.6588    5.9523 H   0  0  0  0  0  0  0  0  0  0  0  0
    5.1555    6.2924    8.0756 H   0  0  0  0  0  0  0  0  0  0  0  0
    6.0481    4.0357    8.5434 H   0  0  0  0  0  0  0  0  0  0  0  0
    6.6386    2.0233    8.8382 H   0  0  0  0  0  0  0  0  0  0  0  0
    7.3124   -0.3514    8.9590 H   0  0  0  0  0  0  0  0  0  0  0  0
    6.7546   -1.8512    7.0389 H   0  0  0  0  0  0  0  0  0  0  0  0
    5.5914   -0.9015    5.0801 H   0  0  0  0  0  0  0  0  0  0  0  0
    2.3348    2.1826    5.9940 H   0  0  0  0  0  0  0  0  0  0  0  0
    0.2016    0.9533    6.2057 H   0  0  0  0  0  0  0  0  0  0  0  0
   -0.2702   -0.9321    4.6345 H   0  0  0  0  0  0  0  0  0  0  0  0
    1.4540   -1.5375    2.9661 H   0  0  0  0  0  0  0  0  0  0  0  0
    2.9964   -1.8165    1.4885 H   0  0  0  0  0  0  0  0  0  0  0  0
    5.0337   -2.2163    0.1461 H   0  0  0  0  0  0  0  0  0  0  0  0
    7.0845   -0.8821    0.6544 H   0  0  0  0  0  0  0  0  0  0  0  0
    6.9890    0.8158    2.4708 H   0  0  0  0  0  0  0  0  0  0  0  0
    1.6282    3.3452    3.5511 H   0  0  0  0  0  0  0  0  0  0  0  0
    1.4534    2.1059    2.3012 H   0  0  0  0  0  0  0  0  0  0  0  0
    0.9851    3.7727    1.9487 H   0  0  0  0  0  0  0  0  0  0  0  0
    6.2205    3.4829    1.9009 H   0  0  0  0  0  0  0  0  0  0  0  0
    7.2116    4.5269    0.1899 H   0  0  0  0  0  0  0  0  0  0  0  0
    8.0753    5.8344   -1.7276 H   0  0  0  0  0  0  0  0  0  0  0  0
    4.0081    6.7345   -2.7562 H   0  0  0  0  0  0  0  0  0  0  0  0
    6.4560    6.9718   -3.2441 H   0  0  0  0  0  0  0  0  0  0  0  0
  1 15  1  0  0  0  0
  1  3  1  0  0  0  0
  1  9  1  0  0  0  0
  2  1  1  0  0  0  0
  3  8  1  0  0  0  0
  4  3  1  0  0  0  0
  4  5  1  0  0  0  0
  5  6  2  0  0  0  0
  6  7  1  0  0  0  0
  6 41  1  0  0  0  0
  7 42  1  0  0  0  0
  8  7  2  0  0  0  0
  9 14  1  0  0  0  0
  9 10  1  0  0  0  0
 10  8  1  1  0  0  0
 10 11  1  0  0  0  0
 11 12  2  0  0  0  0
 11 43  1  0  0  0  0
 12 44  1  0  0  0  0
 13 45  1  0  0  0  0
 13 12  1  0  0  0  0
 14 13  2  0  0  0  0
 15 16  1  0  0  0  0
 16 17  1  0  0  0  0
 16 47  1  0  0  0  0
 17 48  1  0  0  0  0
 18 49  1  0  0  0  0
 18 17  2  0  0  0  0
 19 18  1  0  0  0  0
 20 19  2  0  0  0  0
 20 15  1  0  0  0  0
 21  1  1  0  0  0  0
 22 23  1  1  0  0  0
 22 21  1  0  0  0  0
 22 20  1  0  0  0  0
 24 25  1  0  0  0  0
 24 23  2  0  0  0  0
 25 26  2  0  0  0  0
 26 54  1  0  0  0  0
 26 21  1  0  0  0  0
 27  1  1  0  0  0  0
 28 29  1  0  0  0  0
 28 27  1  0  0  0  0
 29 55  1  0  0  0  0
 30 58  1  0  0  0  0
 30 27  1  0  0  0  0
 31 32  1  0  0  0  0
 31 30  1  0  0  0  0
 32 28  2  0  0  0  0
 33 34  1  0  0  0  0
 34 31  1  0  0  0  0
 35 34  2  0  0  0  0
 35 59  1  0  0  0  0
 36 35  1  0  0  0  0
 37 33  2  0  0  0  0
 38 37  1  0  0  0  0
 38 36  2  0  0  0  0
 39  4  1  0  0  0  0
 40  5  1  0  0  0  0
 46 14  1  0  0  0  0
 50 19  1  0  0  0  0
 51 23  1  0  0  0  0
 52 24  1  0  0  0  0
 53 25  1  0  0  0  0
 56 29  1  0  0  0  0
 57 29  1  0  0  0  0
 60 36  1  0  0  0  0
 61 37  1  0  0  0  0
 62 38  1  0  0  0  0
M  END
$$$$
