CSD_code = SUCBAT | q = 1 | S = 0 | Stoichiometry = C26H29ClCuN8O2(1+) | MND = 5
 OpenBabel04212202103D

 67 73  0  0  1  0  0  0  0  0999 V2000
    6.6702    0.4548    4.3146 Cu  0  0  0  0  0  0  0  0  0  0  0  0
    7.2983    2.3564    3.2662 Cl  0  0  0  0  0  0  0  0  0  0  0  0
    0.3415    1.3064    6.8314 O   0  0  0  0  0  0  0  0  0  0  0  0
    4.0787    0.7948    4.5705 O   0  0  0  0  0  0  0  0  0  0  0  0
    3.1811   -1.5566    7.7631 N   0  0  0  0  0  0  0  0  0  0  0  0
    1.2090   -0.4580    7.9857 N   0  0  0  0  0  0  0  0  0  0  0  0
    2.6504    0.1601    6.2342 N   0  0  0  0  0  0  0  0  0  0  0  0
    8.5192   -1.1685    4.6088 N   0  0  1  0  0  4  0  0  0  0  0  0
    5.8372   -1.2043    5.3149 N   0  0  2  0  0  0  0  0  0  0  0  0
    6.4297   -0.4788    2.5359 N   0  0  0  0  0  0  0  0  0  0  0  0
    7.1227    1.4659    6.0145 N   0  0  0  0  0  0  0  0  0  0  0  0
    5.1661   -2.7352    7.5403 N   0  0  0  0  0  0  0  0  0  0  0  0
    2.3903   -0.6344    7.3111 C   0  0  1  0  0  3  0  0  0  0  0  0
    3.8204    0.0639    5.5086 C   0  0  0  0  0  0  0  0  0  0  0  0
    4.7067   -0.9890    5.9872 C   0  0  1  0  0  3  0  0  0  0  0  0
    6.6307   -2.1849    5.7342 C   0  0  1  0  0  3  0  0  0  0  0  0
    6.2768   -2.9330    6.8632 C   0  0  0  0  0  0  0  0  0  0  0  0
    4.3499   -1.7660    7.1120 C   0  0  0  0  0  0  0  0  0  0  0  0
    9.3771   -1.2404    3.4262 C   0  0  0  0  0  0  0  0  0  0  0  0
    8.8410   -0.4133    2.2479 C   0  0  0  0  0  0  0  0  0  0  0  0
    7.4797   -0.8235    1.7906 C   0  0  2  0  0  3  0  0  0  0  0  0
    7.2989   -1.5086    0.5913 C   0  0  0  0  0  0  0  0  0  0  0  0
    6.0204   -1.8014    0.1532 C   0  0  0  0  0  0  0  0  0  0  0  0
    4.9427   -1.3938    0.9252 C   0  0  0  0  0  0  0  0  0  0  0  0
    5.1993   -0.7382    2.1151 C   0  0  0  0  0  0  0  0  0  0  0  0
    9.2201   -0.6586    5.7815 C   0  0  0  0  0  0  0  0  0  0  0  0
    9.4632    0.8551    5.6971 C   0  0  0  0  0  0  0  0  0  0  0  0
    8.3948    1.6580    6.3706 C   0  0  1  0  0  3  0  0  0  0  0  0
    8.7317    2.6041    7.3341 C   0  0  0  0  0  0  0  0  0  0  0  0
    7.7457    3.3787    7.9162 C   0  0  0  0  0  0  0  0  0  0  0  0
    6.4325    3.1821    7.5182 C   0  0  0  0  0  0  0  0  0  0  0  0
    6.1730    2.2157    6.5660 C   0  0  0  0  0  0  0  0  0  0  0  0
    7.8576   -2.4311    4.9066 C   0  0  0  0  0  0  0  0  0  0  0  0
    0.2579    0.5141    7.7496 C   0  0  0  0  0  0  0  0  0  0  0  0
   -1.8055   -0.4412    7.7727 C   0  0  0  0  0  3  0  0  0  0  0  0
   -1.7754   -1.9117    7.8825 C   0  0  0  0  0  0  0  0  0  0  0  0
   -2.5646    0.2151    6.6970 C   0  0  0  0  0  0  0  0  0  0  0  0
   -0.9651    0.4100    8.6470 C   0  0  0  0  0  0  0  0  0  0  0  0
    1.9509    0.8739    5.9959 H   0  0  0  0  0  0  0  0  0  0  0  0
    1.1104   -1.0852    8.7741 H   0  0  0  0  0  0  0  0  0  0  0  0
   10.3730   -0.8611    3.6691 H   0  0  0  0  0  0  0  0  0  0  0  0
    9.4968   -2.2819    3.1076 H   0  0  0  0  0  0  0  0  0  0  0  0
    8.7759    0.6379    2.5410 H   0  0  0  0  0  0  0  0  0  0  0  0
    9.5456   -0.5057    1.4210 H   0  0  0  0  0  0  0  0  0  0  0  0
    8.1590   -1.7900    0.0042 H   0  0  0  0  0  0  0  0  0  0  0  0
    5.8662   -2.3218   -0.7797 H   0  0  0  0  0  0  0  0  0  0  0  0
    3.9276   -1.5725    0.6104 H   0  0  0  0  0  0  0  0  0  0  0  0
    4.3988   -0.3829    2.7463 H   0  0  0  0  0  0  0  0  0  0  0  0
    8.6110   -0.8727    6.6641 H   0  0  0  0  0  0  0  0  0  0  0  0
   10.1831   -1.1762    5.9116 H   0  0  0  0  0  0  0  0  0  0  0  0
   10.4243    1.0999    6.1488 H   0  0  0  0  0  0  0  0  0  0  0  0
    9.4892    1.1626    4.6499 H   0  0  0  0  0  0  0  0  0  0  0  0
    9.7662    2.7371    7.6084 H   0  0  0  0  0  0  0  0  0  0  0  0
    7.9956    4.1266    8.6527 H   0  0  0  0  0  0  0  0  0  0  0  0
    5.6272    3.7718    7.9245 H   0  0  0  0  0  0  0  0  0  0  0  0
    5.1677    2.0565    6.2114 H   0  0  0  0  0  0  0  0  0  0  0  0
    7.5312   -2.8814    3.9639 H   0  0  0  0  0  0  0  0  0  0  0  0
    8.5234   -3.1433    5.4189 H   0  0  0  0  0  0  0  0  0  0  0  0
    6.9093   -3.7345    7.2203 H   0  0  0  0  0  0  0  0  0  0  0  0
   -1.3908    1.4045    8.7795 H   0  0  0  0  0  0  0  0  0  0  0  0
   -0.7332   -0.0441    9.6078 H   0  0  0  0  0  0  0  0  0  0  0  0
   -2.7973   -2.2966    7.9072 H   0  0  0  0  0  0  0  0  0  0  0  0
   -1.3081   -2.3654    7.0034 H   0  0  0  0  0  0  0  0  0  0  0  0
   -1.2539   -2.2539    8.7725 H   0  0  0  0  0  0  0  0  0  0  0  0
   -1.9295    0.9423    6.1809 H   0  0  0  0  0  0  0  0  0  0  0  0
   -2.9600   -0.4998    5.9812 H   0  0  0  0  0  0  0  0  0  0  0  0
   -3.3974    0.7909    7.1106 H   0  0  0  0  0  0  0  0  0  0  0  0
  1  8  1  0  0  0  0
  1 11  1  0  0  0  0
  2  1  1  0  0  0  0
  3 34  2  0  0  0  0
  4 14  2  0  0  0  0
  6 40  1  0  0  0  0
  7 13  1  0  0  0  0
  8 19  1  6  0  0  0
  8 33  1  0  0  0  0
  8 26  1  0  0  0  0
  9  1  1  1  0  0  0
  9 16  1  0  0  0  0
  9 15  1  0  0  0  0
 10  1  1  0  0  0  0
 11 28  1  0  0  0  0
 11 32  1  0  0  0  0
 13  5  1  0  0  0  0
 13  6  1  1  0  0  0
 14  7  1  0  0  0  0
 15 14  1  6  0  0  0
 15 18  1  0  0  0  0
 16 17  1  6  0  0  0
 17 59  1  0  0  0  0
 17 12  2  0  0  0  0
 18 12  1  0  0  0  0
 18  5  2  0  0  0  0
 19 41  1  0  0  0  0
 20 43  1  0  0  0  0
 20 19  1  0  0  0  0
 21 22  1  6  0  0  0
 21 20  1  0  0  0  0
 21 10  1  0  0  0  0
 23 22  2  0  0  0  0
 23 24  1  0  0  0  0
 24 25  2  0  0  0  0
 25 10  1  0  0  0  0
 25 48  1  0  0  0  0
 26 50  1  0  0  0  0
 26 49  1  0  0  0  0
 27 26  1  0  0  0  0
 27 51  1  0  0  0  0
 27 28  1  0  0  0  0
 28 29  1  6  0  0  0
 29 53  1  0  0  0  0
 29 30  2  0  0  0  0
 30 54  1  0  0  0  0
 31 30  1  0  0  0  0
 31 55  1  0  0  0  0
 32 31  2  0  0  0  0
 33 58  1  0  0  0  0
 33 16  1  0  0  0  0
 34  6  1  0  0  0  0
 34 38  1  0  0  0  0
 35 36  1  0  0  0  0
 35 38  1  0  0  0  0
 36 62  1  0  0  0  0
 36 64  1  0  0  0  0
 37 67  1  0  0  0  0
 37 35  1  0  0  0  0
 38 60  1  0  0  0  0
 38 61  1  0  0  0  0
 39  7  1  0  0  0  0
 42 19  1  0  0  0  0
 44 20  1  0  0  0  0
 45 22  1  0  0  0  0
 46 23  1  0  0  0  0
 47 24  1  0  0  0  0
 52 27  1  0  0  0  0
 56 32  1  0  0  0  0
 57 33  1  0  0  0  0
 63 36  1  0  0  0  0
 65 37  1  0  0  0  0
 66 37  1  0  0  0  0
M  END
$$$$
