CSD_code = SUDKIL | q = 1 | S = 0 | Stoichiometry = C30H34ClO2P2Pd(1+) | MND = 4
 OpenBabel04212202103D

 70 73  0  0  0  0  0  0  0  0999 V2000
   -0.2478    0.8998    3.2082 Pd  0  0  0  0  0  0  0  0  0  0  0  0
   -0.2654    3.0968    2.6901 Cl  0  0  0  0  0  0  0  0  0  0  0  0
   -0.4378   -1.3282    3.5731 P   0  0  0  0  0  4  0  0  0  0  0  0
    0.7612    1.7636    4.9798 P   0  0  0  0  0  4  0  0  0  0  0  0
   -1.0990    0.2350    1.1886 O   0  0  0  0  0  0  0  0  0  0  0  0
    2.5734    1.1462    3.1037 O   0  0  0  0  0  0  0  0  0  0  0  0
   -0.3904   -1.9681    1.8288 C   0  0  0  0  0  0  0  0  0  0  0  0
   -1.3570   -1.1460    0.9861 C   0  0  0  0  0  0  0  0  0  0  0  0
   -2.0221    1.0693    0.5066 C   0  0  0  0  0  0  0  0  0  0  0  0
    2.2075    2.8710    4.7089 C   0  0  0  0  0  0  0  0  0  0  0  0
    2.8502    2.5165    3.3682 C   0  0  0  0  0  0  0  0  0  0  0  0
    2.5513    0.8466    1.7159 C   0  0  0  0  0  0  0  0  0  0  0  0
   -2.9379   -0.6566    4.4798 C   0  0  0  0  0  0  0  0  0  0  0  0
   -4.2677   -0.8614    4.8017 C   0  0  0  0  0  0  0  0  0  0  0  0
   -4.8148   -2.1296    4.6878 C   0  0  0  0  0  0  0  0  0  0  0  0
   -4.0356   -3.1880    4.2455 C   0  0  0  0  0  0  0  0  0  0  0  0
   -2.7059   -2.9882    3.9203 C   0  0  0  0  0  0  0  0  0  0  0  0
   -2.1470   -1.7183    4.0464 C   0  0  0  0  0  0  0  0  0  0  0  0
    0.2381   -3.4510    5.3189 C   0  0  0  0  0  0  0  0  0  0  0  0
    1.1542   -4.3195    5.8856 C   0  0  0  0  0  0  0  0  0  0  0  0
    2.4991   -4.2216    5.5698 C   0  0  0  0  0  0  0  0  0  0  0  0
    2.9388   -3.2333    4.7033 C   0  0  0  0  0  0  0  0  0  0  0  0
    2.0302   -2.3603    4.1373 C   0  0  0  0  0  0  0  0  0  0  0  0
    0.6721   -2.4849    4.4198 C   0  0  0  0  0  0  0  0  0  0  0  0
    0.3443   -0.2246    6.8153 C   0  0  0  0  0  0  0  0  0  0  0  0
    0.6921   -1.2354    7.6893 C   0  0  0  0  0  0  0  0  0  0  0  0
    2.0232   -1.5962    7.8336 C   0  0  0  0  0  0  0  0  0  0  0  0
    2.9992   -0.9550    7.0907 C   0  0  0  0  0  0  0  0  0  0  0  0
    2.6570    0.0629    6.2166 C   0  0  0  0  0  0  0  0  0  0  0  0
    1.3286    0.4471    6.0920 C   0  0  0  0  0  0  0  0  0  0  0  0
   -1.6978    2.8991    5.6457 C   0  0  0  0  0  0  0  0  0  0  0  0
   -2.5554    3.6165    6.4610 C   0  0  0  0  0  0  0  0  0  0  0  0
   -2.0926    4.1471    7.6540 C   0  0  0  0  0  0  0  0  0  0  0  0
   -0.7731    3.9586    8.0364 C   0  0  0  0  0  0  0  0  0  0  0  0
    0.0874    3.2396    7.2280 C   0  0  0  0  0  0  0  0  0  0  0  0
   -0.3734    2.7125    6.0242 C   0  0  0  0  0  0  0  0  0  0  0  0
   -0.6596   -3.0264    1.7919 H   0  0  0  0  0  0  0  0  0  0  0  0
    0.6307   -1.8540    1.4528 H   0  0  0  0  0  0  0  0  0  0  0  0
   -2.3959   -1.3746    1.2732 H   0  0  0  0  0  0  0  0  0  0  0  0
   -1.2357   -1.3786   -0.0823 H   0  0  0  0  0  0  0  0  0  0  0  0
   -1.7505    2.1014    0.7333 H   0  0  0  0  0  0  0  0  0  0  0  0
   -3.0481    0.8731    0.8384 H   0  0  0  0  0  0  0  0  0  0  0  0
   -1.9540    0.9020   -0.5731 H   0  0  0  0  0  0  0  0  0  0  0  0
    2.8970    2.7321    5.5447 H   0  0  0  0  0  0  0  0  0  0  0  0
    1.8541    3.9044    4.7085 H   0  0  0  0  0  0  0  0  0  0  0  0
    3.9364    2.6784    3.3854 H   0  0  0  0  0  0  0  0  0  0  0  0
    2.4142    3.1386    2.5784 H   0  0  0  0  0  0  0  0  0  0  0  0
    2.4825   -0.2391    1.6259 H   0  0  0  0  0  0  0  0  0  0  0  0
    3.4742    1.1839    1.2331 H   0  0  0  0  0  0  0  0  0  0  0  0
    1.6867    1.3257    1.2220 H   0  0  0  0  0  0  0  0  0  0  0  0
   -2.4928    0.3388    4.5580 H   0  0  0  0  0  0  0  0  0  0  0  0
   -4.8774   -0.0364    5.1375 H   0  0  0  0  0  0  0  0  0  0  0  0
   -5.8514   -2.2938    4.9377 H   0  0  0  0  0  0  0  0  0  0  0  0
   -4.4675   -4.1725    4.1495 H   0  0  0  0  0  0  0  0  0  0  0  0
   -2.1060   -3.8150    3.5661 H   0  0  0  0  0  0  0  0  0  0  0  0
   -0.8070   -3.5219    5.5807 H   0  0  0  0  0  0  0  0  0  0  0  0
    0.8152   -5.0765    6.5763 H   0  0  0  0  0  0  0  0  0  0  0  0
    3.2067   -4.9080    6.0083 H   0  0  0  0  0  0  0  0  0  0  0  0
    3.9895   -3.1427    4.4736 H   0  0  0  0  0  0  0  0  0  0  0  0
    2.3649   -1.5604    3.4896 H   0  0  0  0  0  0  0  0  0  0  0  0
   -0.6934    0.0662    6.6955 H   0  0  0  0  0  0  0  0  0  0  0  0
   -0.0708   -1.7415    8.2609 H   0  0  0  0  0  0  0  0  0  0  0  0
    2.2971   -2.3813    8.5211 H   0  0  0  0  0  0  0  0  0  0  0  0
    4.0333   -1.2466    7.1940 H   0  0  0  0  0  0  0  0  0  0  0  0
    3.4203    0.5463    5.6264 H   0  0  0  0  0  0  0  0  0  0  0  0
   -2.0470    2.5061    4.6911 H   0  0  0  0  0  0  0  0  0  0  0  0
   -3.5820    3.7685    6.1640 H   0  0  0  0  0  0  0  0  0  0  0  0
   -2.7600    4.7114    8.2869 H   0  0  0  0  0  0  0  0  0  0  0  0
   -0.4154    4.3737    8.9661 H   0  0  0  0  0  0  0  0  0  0  0  0
    1.1150    3.0804    7.5246 H   0  0  0  0  0  0  0  0  0  0  0  0
  1  3  1  0  0  0  0
  1  4  1  0  0  0  0
  2  1  1  0  0  0  0
  3 18  1  0  0  0  0
  3 24  1  0  0  0  0
  4 36  1  0  0  0  0
  4 30  1  0  0  0  0
  6 11  1  0  0  0  0
  7  3  1  0  0  0  0
  8  5  1  0  0  0  0
  8 39  1  0  0  0  0
  8  7  1  0  0  0  0
  9 41  1  0  0  0  0
  9 42  1  0  0  0  0
  9  5  1  0  0  0  0
 10  4  1  0  0  0  0
 10 44  1  0  0  0  0
 11 46  1  0  0  0  0
 11 10  1  0  0  0  0
 12  6  1  0  0  0  0
 13 51  1  0  0  0  0
 13 14  1  0  0  0  0
 14 52  1  0  0  0  0
 15 14  2  0  0  0  0
 15 53  1  0  0  0  0
 16 15  1  0  0  0  0
 17 18  1  0  0  0  0
 17 16  2  0  0  0  0
 18 13  2  0  0  0  0
 19 56  1  0  0  0  0
 19 20  1  0  0  0  0
 20 57  1  0  0  0  0
 21 20  2  0  0  0  0
 21 58  1  0  0  0  0
 22 21  1  0  0  0  0
 23 24  1  0  0  0  0
 23 22  2  0  0  0  0
 24 19  2  0  0  0  0
 25 26  1  0  0  0  0
 26 27  2  0  0  0  0
 26 62  1  0  0  0  0
 27 63  1  0  0  0  0
 28 64  1  0  0  0  0
 28 27  1  0  0  0  0
 29 28  2  0  0  0  0
 30 29  1  0  0  0  0
 30 25  2  0  0  0  0
 31 36  2  0  0  0  0
 31 32  1  0  0  0  0
 32 33  2  0  0  0  0
 33 34  1  0  0  0  0
 33 68  1  0  0  0  0
 34 69  1  0  0  0  0
 35 70  1  0  0  0  0
 35 34  2  0  0  0  0
 36 35  1  0  0  0  0
 37  7  1  0  0  0  0
 38  7  1  0  0  0  0
 40  8  1  0  0  0  0
 43  9  1  0  0  0  0
 45 10  1  0  0  0  0
 47 11  1  0  0  0  0
 48 12  1  0  0  0  0
 49 12  1  0  0  0  0
 50 12  1  0  0  0  0
 54 16  1  0  0  0  0
 55 17  1  0  0  0  0
 59 22  1  0  0  0  0
 60 23  1  0  0  0  0
 61 25  1  0  0  0  0
 65 29  1  0  0  0  0
 66 31  1  0  0  0  0
 67 32  1  0  0  0  0
M  END
$$$$
