CSD_code = SUFDOM | q = 0 | S = 0 | Stoichiometry = C16H31Cl2N2PPt | MND = 4
 OpenBabel04212202103D

 53 56  0  0  1  0  0  0  0  0999 V2000
    0.9969    2.6752    1.1605 Pt  0  0  0  0  0  0  0  0  0  0  0  0
   -0.2202    4.3470    2.1979 Cl  0  0  0  0  0  0  0  0  0  0  0  0
    2.1017    0.9208    0.1224 Cl  0  0  0  0  0  0  0  0  0  0  0  0
    2.5728    4.0860    0.3662 P   0  0  0  0  0  4  0  0  0  0  0  0
   -0.4002    1.2794    1.7883 N   0  0  0  0  0  4  0  0  0  0  0  0
   -1.5664    1.4501    2.6061 N   0  0  0  0  0  0  0  0  0  0  0  0
   -0.4309    0.7686    3.1337 C   0  0  2  0  0  0  0  0  0  0  0  0
    0.4863    1.4104    4.1542 C   0  0  1  0  0  0  0  0  0  0  0  0
   -0.0514    1.1054    5.5531 C   0  0  0  0  0  0  0  0  0  0  0  0
   -0.1077   -0.4085    5.7571 C   0  0  1  0  0  0  0  0  0  0  0  0
   -1.0517   -1.0232    4.7244 C   0  0  0  0  0  0  0  0  0  0  0  0
   -0.5250   -0.7318    3.3185 C   0  0  2  0  0  0  0  0  0  0  0  0
    1.8842    0.8115    3.9826 C   0  0  0  0  0  0  0  0  0  0  0  0
    1.8148   -0.7013    4.1867 C   0  0  1  0  0  0  0  0  0  0  0  0
    1.2911   -1.0035    5.5911 C   0  0  0  0  0  0  0  0  0  0  0  0
    0.8799   -1.3156    3.1442 C   0  0  0  0  0  0  0  0  0  0  0  0
    4.2604    3.7185    0.9920 C   0  0  0  0  0  0  0  0  0  0  0  0
    4.3059    3.8911    2.5066 C   0  0  0  0  0  0  0  0  0  0  0  0
    2.3000    5.8776    0.6878 C   0  0  0  0  0  0  0  0  0  0  0  0
    3.3661    6.8199    0.1467 C   0  0  0  0  0  0  0  0  0  0  0  0
    2.7347    3.9300   -1.4553 C   0  0  0  0  0  0  0  0  0  0  0  0
    1.3623    4.0735   -2.1040 C   0  0  0  0  0  0  0  0  0  0  0  0
   -0.5639    0.5565    1.0782 H   0  0  0  0  0  0  0  0  0  0  0  0
   -1.6391    2.4286    2.9030 H   0  0  0  0  0  0  0  0  0  0  0  0
    0.5193    2.4952    3.9927 H   0  0  0  0  0  0  0  0  0  0  0  0
   -1.0493    1.5346    5.6684 H   0  0  0  0  0  0  0  0  0  0  0  0
    0.6012    1.5621    6.2995 H   0  0  0  0  0  0  0  0  0  0  0  0
   -0.4809   -0.6253    6.7637 H   0  0  0  0  0  0  0  0  0  0  0  0
   -2.0530   -0.6008    4.8323 H   0  0  0  0  0  0  0  0  0  0  0  0
   -1.1192   -2.1028    4.8716 H   0  0  0  0  0  0  0  0  0  0  0  0
   -1.2112   -1.1499    2.5737 H   0  0  0  0  0  0  0  0  0  0  0  0
    2.5668    1.2595    4.7072 H   0  0  0  0  0  0  0  0  0  0  0  0
    2.2584    1.0372    2.9765 H   0  0  0  0  0  0  0  0  0  0  0  0
    2.8157   -1.1287    4.0678 H   0  0  0  0  0  0  0  0  0  0  0  0
    1.2549   -2.0836    5.7493 H   0  0  0  0  0  0  0  0  0  0  0  0
    1.9654   -0.5785    6.3378 H   0  0  0  0  0  0  0  0  0  0  0  0
    1.2560   -1.0956    2.1421 H   0  0  0  0  0  0  0  0  0  0  0  0
    0.8443   -2.4002    3.2622 H   0  0  0  0  0  0  0  0  0  0  0  0
    4.9998    4.3463    0.4891 H   0  0  0  0  0  0  0  0  0  0  0  0
    4.4576    2.6762    0.7274 H   0  0  0  0  0  0  0  0  0  0  0  0
    5.2176    3.4639    2.9185 H   0  0  0  0  0  0  0  0  0  0  0  0
    4.2627    4.9424    2.7831 H   0  0  0  0  0  0  0  0  0  0  0  0
    3.4492    3.3841    2.9556 H   0  0  0  0  0  0  0  0  0  0  0  0
    2.2051    5.9849    1.7716 H   0  0  0  0  0  0  0  0  0  0  0  0
    1.3218    6.1207    0.2643 H   0  0  0  0  0  0  0  0  0  0  0  0
    3.1081    7.8462    0.4014 H   0  0  0  0  0  0  0  0  0  0  0  0
    4.3411    6.6026    0.5765 H   0  0  0  0  0  0  0  0  0  0  0  0
    3.4413    6.7536   -0.9362 H   0  0  0  0  0  0  0  0  0  0  0  0
    3.1319    2.9298   -1.6444 H   0  0  0  0  0  0  0  0  0  0  0  0
    3.4450    4.6635   -1.8437 H   0  0  0  0  0  0  0  0  0  0  0  0
    1.4054    3.8304   -3.1635 H   0  0  0  0  0  0  0  0  0  0  0  0
    0.6605    3.3888   -1.6197 H   0  0  0  0  0  0  0  0  0  0  0  0
    0.9801    5.0866   -1.9966 H   0  0  0  0  0  0  0  0  0  0  0  0
  1  5  1  0  0  0  0
  1  2  1  0  0  0  0
  3  1  1  0  0  0  0
  4 19  1  0  0  0  0
  4 17  1  0  0  0  0
  4  1  1  0  0  0  0
  5  6  1  0  0  0  0
  5  7  1  0  0  0  0
  6 24  1  0  0  0  0
  7  6  1  1  0  0  0
  7 12  1  0  0  0  0
  7  8  1  0  0  0  0
  8 25  1  6  0  0  0
  8  9  1  0  0  0  0
  9 26  1  0  0  0  0
  9 10  1  0  0  0  0
  9 27  1  0  0  0  0
 10 28  1  1  0  0  0
 11 29  1  0  0  0  0
 11 30  1  0  0  0  0
 11 10  1  0  0  0  0
 12 31  1  6  0  0  0
 12 11  1  0  0  0  0
 13  8  1  0  0  0  0
 13 14  1  0  0  0  0
 13 32  1  0  0  0  0
 14 34  1  6  0  0  0
 14 15  1  0  0  0  0
 15 35  1  0  0  0  0
 15 10  1  0  0  0  0
 15 36  1  0  0  0  0
 16 38  1  0  0  0  0
 16 12  1  0  0  0  0
 16 14  1  0  0  0  0
 17 18  1  0  0  0  0
 18 42  1  0  0  0  0
 18 41  1  0  0  0  0
 18 43  1  0  0  0  0
 19 44  1  0  0  0  0
 20 46  1  0  0  0  0
 20 47  1  0  0  0  0
 20 19  1  0  0  0  0
 21  4  1  0  0  0  0
 22 53  1  0  0  0  0
 22 52  1  0  0  0  0
 22 21  1  0  0  0  0
 23  5  1  0  0  0  0
 33 13  1  0  0  0  0
 37 16  1  0  0  0  0
 39 17  1  0  0  0  0
 40 17  1  0  0  0  0
 45 19  1  0  0  0  0
 48 20  1  0  0  0  0
 49 21  1  0  0  0  0
 50 21  1  0  0  0  0
 51 22  1  0  0  0  0
M  END
$$$$
