CSD_code = SUFFIK | q = 1 | S = 0 | Stoichiometry = C14H23ClN5Pt(1+) | MND = 4
 OpenBabel04212202103D

 44 47  0  0  1  0  0  0  0  0999 V2000
   -0.7812    3.8250    9.0177 Pt  0  0  1  0  0  0  0  0  0  0  0  0
    0.1691    4.8762   10.7565 Cl  0  0  0  0  0  0  0  0  0  0  0  0
    0.4397    4.7001    7.7009 N   0  0  0  0  0  0  0  0  0  0  0  0
    0.9643    3.9621    6.6979 N   0  0  2  0  0  0  0  0  0  0  0  0
    1.7464    4.7277    5.9024 C   0  0  1  0  0  3  0  0  0  0  0  0
    1.7136    6.0007    6.4291 C   0  0  0  0  0  0  0  0  0  0  0  0
    2.2233    6.8640    6.0563 H   0  0  0  0  0  0  0  0  0  0  0  0
    0.8782    5.9477    7.5524 C   0  0  0  0  0  0  0  0  0  0  0  0
    2.4696    4.2080    4.7174 C   0  0  0  0  0  0  0  0  0  0  0  0
    3.1636    3.4175    5.0010 H   0  0  0  0  0  0  0  0  0  0  0  0
    3.0382    5.0144    4.2647 H   0  0  0  0  0  0  0  0  0  0  0  0
    1.7802    3.8132    3.9717 H   0  0  0  0  0  0  0  0  0  0  0  0
    0.4852    7.0716    8.4337 C   0  0  0  0  0  0  0  0  0  0  0  0
   -0.4680    6.8652    8.9179 H   0  0  0  0  0  0  0  0  0  0  0  0
    0.4165    7.9892    7.8553 H   0  0  0  0  0  0  0  0  0  0  0  0
    1.2328    7.2137    9.2126 H   0  0  0  0  0  0  0  0  0  0  0  0
    0.5656    2.5932    6.5085 C   0  0  0  0  0  0  0  0  0  0  0  0
    0.7923    2.0192    7.4184 H   0  0  0  0  0  0  0  0  0  0  0  0
    1.1459    2.1800    5.6838 H   0  0  0  0  0  0  0  0  0  0  0  0
   -0.9383    2.5019    6.1942 C   0  0  0  0  0  0  0  0  0  0  0  0
   -1.2137    3.3303    5.5349 H   0  0  0  0  0  0  0  0  0  0  0  0
   -1.1474    1.5614    5.6710 H   0  0  0  0  0  0  0  0  0  0  0  0
   -1.7158    2.6023    7.4320 N   0  0  2  0  0  4  0  0  0  0  0  0
   -1.6205    1.7090    7.9213 H   0  0  0  0  0  0  0  0  0  0  0  0
   -2.1244    2.9215   10.1938 N   0  0  0  0  0  0  0  0  0  0  0  0
   -3.3934    2.9180    9.7279 N   0  0  1  0  0  0  0  0  0  0  0  0
   -4.2020    2.2228   10.5597 C   0  0  1  0  0  3  0  0  0  0  0  0
   -3.4044    1.7626   11.5865 C   0  0  0  0  0  0  0  0  0  0  0  0
   -3.7132    1.1750   12.4253 H   0  0  0  0  0  0  0  0  0  0  0  0
   -2.1056    2.2199   11.3221 C   0  0  0  0  0  0  0  0  0  0  0  0
   -5.6557    2.0520   10.3280 C   0  0  0  0  0  0  0  0  0  0  0  0
   -6.1668    3.0141   10.3533 H   0  0  0  0  0  0  0  0  0  0  0  0
   -6.0733    1.4244   11.1092 H   0  0  0  0  0  0  0  0  0  0  0  0
   -5.8528    1.5830    9.3647 H   0  0  0  0  0  0  0  0  0  0  0  0
   -0.8711    1.9822   12.1048 C   0  0  0  0  0  0  0  0  0  0  0  0
    0.0092    2.1778   11.4948 H   0  0  0  0  0  0  0  0  0  0  0  0
   -0.8488    0.9597   12.4739 H   0  0  0  0  0  0  0  0  0  0  0  0
   -0.8427    2.6532   12.9622 H   0  0  0  0  0  0  0  0  0  0  0  0
   -3.7021    3.6127    8.5069 C   0  0  0  0  0  0  0  0  0  0  0  0
   -3.2489    4.6155    8.5613 H   0  0  0  0  0  0  0  0  0  0  0  0
   -4.7837    3.7185    8.4189 H   0  0  0  0  0  0  0  0  0  0  0  0
   -3.1485    2.8810    7.2689 C   0  0  0  0  0  0  0  0  0  0  0  0
   -3.7109    1.9562    7.0955 H   0  0  0  0  0  0  0  0  0  0  0  0
   -3.2892    3.5338    6.4049 H   0  0  0  0  0  0  0  0  0  0  0  0
  1 25  1  0  0  0  0
  1  2  1  1  0  0  0
  3  1  1  0  0  0  0
  4 17  1  6  0  0  0
  4  3  1  0  0  0  0
  5  9  1  1  0  0  0
  5  6  1  0  0  0  0
  5  4  1  0  0  0  0
  6  8  2  0  0  0  0
  7  6  1  0  0  0  0
  8  3  1  0  0  0  0
  8 13  1  0  0  0  0
  9 10  1  0  0  0  0
 11  9  1  0  0  0  0
 12  9  1  0  0  0  0
 13 14  1  0  0  0  0
 13 16  1  0  0  0  0
 15 13  1  0  0  0  0
 17 18  1  0  0  0  0
 19 17  1  0  0  0  0
 20 17  1  0  0  0  0
 20 23  1  0  0  0  0
 21 20  1  0  0  0  0
 22 20  1  0  0  0  0
 23 24  1  1  0  0  0
 23  1  1  0  0  0  0
 25 30  1  0  0  0  0
 26 39  1  1  0  0  0
 26 25  1  0  0  0  0
 26 27  1  0  0  0  0
 27 31  1  1  0  0  0
 27 28  1  0  0  0  0
 28 29  1  0  0  0  0
 30 28  2  0  0  0  0
 30 35  1  0  0  0  0
 31 32  1  0  0  0  0
 31 33  1  0  0  0  0
 34 31  1  0  0  0  0
 35 37  1  0  0  0  0
 35 38  1  0  0  0  0
 36 35  1  0  0  0  0
 39 40  1  0  0  0  0
 41 39  1  0  0  0  0
 42 23  1  0  0  0  0
 42 39  1  0  0  0  0
 43 42  1  0  0  0  0
 44 42  1  0  0  0  0
M  END
$$$$
