CSD_code = SUFKAH | q = 0 | S = 0 | Stoichiometry = C22H35ClCuN | MND = 2
 OpenBabel04212202103D

 60 61  0  0  1  0  0  0  0  0999 V2000
    7.2445    5.8342    7.1030 Cu  0  0  0  0  0  0  0  0  0  0  0  0
    6.6211    3.8640    6.9480 Cl  0  0  0  0  0  0  0  0  0  0  0  0
    6.8809    8.6145    7.4542 N   0  0  0  0  0  0  0  0  0  0  0  0
    4.7271    8.3784    6.3151 C   0  0  0  0  0  0  0  0  0  0  0  0
    5.4683    8.3913    7.5044 C   0  0  0  0  0  0  0  0  0  0  0  0
    9.1262    8.2366    7.1725 C   0  0  0  0  0  0  0  0  0  0  0  0
    5.3769    8.3231    4.9516 C   0  0  0  0  0  0  0  0  0  0  0  0
    4.8476    8.1546    8.7377 C   0  0  0  0  0  0  0  0  0  0  0  0
    8.9496    9.7283    7.5233 C   0  0  0  0  0  0  0  0  0  0  0  0
    9.5735    8.0490    5.7037 C   0  0  0  0  0  0  0  0  0  0  0  0
    7.7362    7.6499    7.2661 C   0  0  2  0  0  3  0  0  0  0  0  0
    7.4351    9.9843    7.5672 C   0  0  0  0  0  0  0  0  0  0  0  0
    5.6373    7.8532    9.9899 C   0  0  0  0  0  0  0  0  0  0  0  0
    2.7101    8.1724    7.6227 C   0  0  0  0  0  0  0  0  0  0  0  0
    3.4624    8.0643    8.7749 C   0  0  0  0  0  0  0  0  0  0  0  0
   10.0978    7.5105    8.1182 C   0  0  0  0  0  0  0  0  0  0  0  0
    3.3438    8.2863    6.4019 C   0  0  0  0  0  0  0  0  0  0  0  0
    4.8069    9.3506    3.9713 C   0  0  0  0  0  0  0  0  0  0  0  0
    6.9652   10.8559    6.4023 C   0  0  0  0  0  0  0  0  0  0  0  0
    5.5411    6.3480   10.2641 C   0  0  0  0  0  0  0  0  0  0  0  0
    9.5706    7.3522    9.5402 C   0  0  0  0  0  0  0  0  0  0  0  0
    6.9978   10.6544    8.8681 C   0  0  0  0  0  0  0  0  0  0  0  0
    5.1612    8.6448   11.2094 C   0  0  0  0  0  0  0  0  0  0  0  0
    5.2014    6.9071    4.3915 C   0  0  0  0  0  0  0  0  0  0  0  0
   11.0151    8.4578    5.4237 C   0  0  0  0  0  0  0  0  0  0  0  0
    6.4502    8.4961    5.0562 H   0  0  0  0  0  0  0  0  0  0  0  0
    8.9081    8.6331    5.0632 H   0  0  0  0  0  0  0  0  0  0  0  0
   11.0392    8.0617    8.1424 H   0  0  0  0  0  0  0  0  0  0  0  0
    4.1492    6.6689    4.2598 H   0  0  0  0  0  0  0  0  0  0  0  0
    2.9666    7.8911    9.7166 H   0  0  0  0  0  0  0  0  0  0  0  0
    9.4407    6.9978    5.4382 H   0  0  0  0  0  0  0  0  0  0  0  0
    9.4260   10.3662    6.7818 H   0  0  0  0  0  0  0  0  0  0  0  0
    4.8349   10.3551    4.3869 H   0  0  0  0  0  0  0  0  0  0  0  0
    7.3970   11.6656    8.9007 H   0  0  0  0  0  0  0  0  0  0  0  0
    7.3629   11.8611    6.5218 H   0  0  0  0  0  0  0  0  0  0  0  0
    9.4010    9.9485    8.4892 H   0  0  0  0  0  0  0  0  0  0  0  0
    9.3361    8.3139    9.9920 H   0  0  0  0  0  0  0  0  0  0  0  0
   11.2144    9.4721    5.7623 H   0  0  0  0  0  0  0  0  0  0  0  0
    6.6895    8.0838    9.8144 H   0  0  0  0  0  0  0  0  0  0  0  0
    5.6354    6.1741    5.0717 H   0  0  0  0  0  0  0  0  0  0  0  0
    7.3658   10.1166    9.7368 H   0  0  0  0  0  0  0  0  0  0  0  0
    8.6752    6.7340    9.5430 H   0  0  0  0  0  0  0  0  0  0  0  0
   11.7145    7.7867    5.9129 H   0  0  0  0  0  0  0  0  0  0  0  0
    3.7774    9.1166    3.7149 H   0  0  0  0  0  0  0  0  0  0  0  0
   10.2912    6.5167    7.7114 H   0  0  0  0  0  0  0  0  0  0  0  0
    2.7547    8.2867    5.4987 H   0  0  0  0  0  0  0  0  0  0  0  0
    4.1712    8.3252   11.5224 H   0  0  0  0  0  0  0  0  0  0  0  0
    5.7008    6.8216    3.4290 H   0  0  0  0  0  0  0  0  0  0  0  0
    7.3084   10.4663    5.4483 H   0  0  0  0  0  0  0  0  0  0  0  0
    6.1478    6.0854   11.1280 H   0  0  0  0  0  0  0  0  0  0  0  0
    4.5129    6.0547   10.4594 H   0  0  0  0  0  0  0  0  0  0  0  0
    5.1255    9.7113   10.9991 H   0  0  0  0  0  0  0  0  0  0  0  0
    5.8797   10.9160    6.3912 H   0  0  0  0  0  0  0  0  0  0  0  0
    5.8987    5.7816    9.4040 H   0  0  0  0  0  0  0  0  0  0  0  0
    1.6330    8.1172    7.6712 H   0  0  0  0  0  0  0  0  0  0  0  0
    5.3891    9.3428    3.0524 H   0  0  0  0  0  0  0  0  0  0  0  0
   11.2009    8.4153    4.3531 H   0  0  0  0  0  0  0  0  0  0  0  0
    5.8426    8.4804   12.0414 H   0  0  0  0  0  0  0  0  0  0  0  0
   10.3219    6.8667   10.1585 H   0  0  0  0  0  0  0  0  0  0  0  0
    5.9131   10.7110    8.9205 H   0  0  0  0  0  0  0  0  0  0  0  0
  2  1  1  0  0  0  0
  3  5  1  0  0  0  0
  3 12  1  0  0  0  0
  4 17  2  0  0  0  0
  4  5  1  0  0  0  0
  5  8  2  0  0  0  0
  6 11  1  0  0  0  0
  6  9  1  0  0  0  0
  6 16  1  0  0  0  0
  7 26  1  0  0  0  0
  7  4  1  0  0  0  0
  8 15  1  0  0  0  0
  8 13  1  0  0  0  0
  9 12  1  0  0  0  0
  9 36  1  0  0  0  0
 10  6  1  0  0  0  0
 11  1  1  6  0  0  0
 11  3  1  0  0  0  0
 12 22  1  0  0  0  0
 13 20  1  0  0  0  0
 13 23  1  0  0  0  0
 14 55  1  0  0  0  0
 14 15  2  0  0  0  0
 15 30  1  0  0  0  0
 16 28  1  0  0  0  0
 16 21  1  0  0  0  0
 17 14  1  0  0  0  0
 18 33  1  0  0  0  0
 18  7  1  0  0  0  0
 19 35  1  0  0  0  0
 19 12  1  0  0  0  0
 20 51  1  0  0  0  0
 20 50  1  0  0  0  0
 21 42  1  0  0  0  0
 21 37  1  0  0  0  0
 21 59  1  0  0  0  0
 22 34  1  0  0  0  0
 22 60  1  0  0  0  0
 22 41  1  0  0  0  0
 23 47  1  0  0  0  0
 23 58  1  0  0  0  0
 24  7  1  0  0  0  0
 24 40  1  0  0  0  0
 25 10  1  0  0  0  0
 25 38  1  0  0  0  0
 25 43  1  0  0  0  0
 27 10  1  0  0  0  0
 29 24  1  0  0  0  0
 31 10  1  0  0  0  0
 32  9  1  0  0  0  0
 39 13  1  0  0  0  0
 44 18  1  0  0  0  0
 45 16  1  0  0  0  0
 46 17  1  0  0  0  0
 48 24  1  0  0  0  0
 49 19  1  0  0  0  0
 52 23  1  0  0  0  0
 53 19  1  0  0  0  0
 54 20  1  0  0  0  0
 56 18  1  0  0  0  0
 57 25  1  0  0  0  0
M  END
$$$$
