CSD_code = SUFVOG | q = 0 | S = 0 | Stoichiometry = C21H26BrN2O9P2Re | MND = 6
 OpenBabel04212202103D

 62 64  0  0  1  0  0  0  0  0999 V2000
    1.6899   21.3750    0.8600 Re  0  0  0  0  0  0  0  0  0  0  0  0
    3.5289   23.1602    1.1220 Br  0  0  0  0  0  0  0  0  0  0  0  0
   -0.3143   25.4707    5.7648 P   0  0  0  0  0  0  0  0  0  0  0  0
    4.3729   19.4531    6.7084 P   0  0  0  0  0  0  0  0  0  0  0  0
    0.7354   22.5451    2.3752 N   0  0  0  0  0  0  0  0  0  0  0  0
    2.8617   20.3712   -0.3407 C   0  0  0  0  0  2  0  0  0  0  0  0
    5.0347   20.8547    7.0697 O   0  0  0  0  0  0  0  0  0  0  0  0
   -0.5633   19.2654    0.7902 O   0  0  0  0  0  1  0  0  0  0  0  0
   -1.6200   26.3034    5.3168 O   0  0  0  0  0  0  0  0  0  0  0  0
    3.1695   19.3713    7.7773 O   0  0  0  0  0  0  0  0  0  0  0  0
   -0.4145   24.8358    7.0727 O   0  0  0  0  0  0  0  0  0  0  0  0
    0.8746   26.5192    5.7106 O   0  0  0  0  0  0  0  0  0  0  0  0
    0.6054   23.0236   -1.5254 O   0  0  0  0  0  1  0  0  0  0  0  0
    5.2268   18.2639    6.7072 O   0  0  0  0  0  0  0  0  0  0  0  0
    3.6246   19.8259   -0.9951 O   0  0  0  0  0  1  0  0  0  0  0  0
    2.4804   20.5949    2.6901 N   0  0  0  0  0  0  0  0  0  0  0  0
    0.9857   22.3655   -0.6697 C   0  0  0  0  0  2  0  0  0  0  0  0
    0.2751   20.0467    0.8040 C   0  0  0  0  0  2  0  0  0  0  0  0
    3.6123   19.9073    5.1239 C   0  0  0  0  0  0  0  0  0  0  0  0
   -0.1091   23.5471    2.1374 C   0  0  0  0  0  3  0  0  0  0  0  0
   -0.4864   23.6278    1.1257 H   0  0  0  0  0  0  0  0  0  0  0  0
    3.9373   19.2087    3.9708 C   0  0  0  0  0  0  0  0  0  0  0  0
    4.6425   18.3943    4.0156 H   0  0  0  0  0  0  0  0  0  0  0  0
    2.6191   18.0941    8.0644 C   0  0  0  0  0  0  0  0  0  0  0  0
    2.0797   18.2127    9.0075 H   0  0  0  0  0  0  0  0  0  0  0  0
    3.4344   17.3751    8.1937 H   0  0  0  0  0  0  0  0  0  0  0  0
    0.0251   24.3235    4.3819 C   0  0  0  0  0  0  0  0  0  0  0  0
   -2.8687   25.9168    5.8759 C   0  0  0  0  0  0  0  0  0  0  0  0
   -3.5327   26.7718    5.7249 H   0  0  0  0  0  0  0  0  0  0  0  0
   -2.7374   25.7384    6.9472 H   0  0  0  0  0  0  0  0  0  0  0  0
    1.2256   22.3925    3.6224 C   0  0  0  0  0  0  0  0  0  0  0  0
    2.7116   20.9510    5.0439 C   0  0  0  0  0  0  0  0  0  0  0  0
    2.4565   21.4919    5.9395 H   0  0  0  0  0  0  0  0  0  0  0  0
   -0.4869   24.4631    3.0996 C   0  0  0  0  0  0  0  0  0  0  0  0
   -1.1559   25.2725    2.8549 H   0  0  0  0  0  0  0  0  0  0  0  0
    0.8795   23.2711    4.6458 C   0  0  0  0  0  0  0  0  0  0  0  0
    1.2707   23.1693    5.6447 H   0  0  0  0  0  0  0  0  0  0  0  0
    2.1635   21.2812    3.8066 C   0  0  2  0  0  3  0  0  0  0  0  0
    3.3444   19.5854    2.7816 C   0  0  0  0  0  0  0  0  0  0  0  0
    3.5721   19.0614    1.8618 H   0  0  0  0  0  0  0  0  0  0  0  0
    5.9908   20.9118    8.1322 C   0  0  0  0  0  0  0  0  0  0  0  0
    5.7076   20.2085    8.9214 H   0  0  0  0  0  0  0  0  0  0  0  0
    5.9289   21.9316    8.5230 H   0  0  0  0  0  0  0  0  0  0  0  0
    1.6912   17.6302    6.9551 C   0  0  0  0  0  0  0  0  0  0  0  0
    2.2631   17.4920    6.0383 H   0  0  0  0  0  0  0  0  0  0  0  0
    0.9127   18.3691    6.7780 H   0  0  0  0  0  0  0  0  0  0  0  0
    1.2290   16.6857    7.2286 H   0  0  0  0  0  0  0  0  0  0  0  0
   -3.4179   24.6678    5.2092 C   0  0  0  0  0  0  0  0  0  0  0  0
   -2.7352   23.8371    5.3811 H   0  0  0  0  0  0  0  0  0  0  0  0
   -3.5297   24.8195    4.1378 H   0  0  0  0  0  0  0  0  0  0  0  0
   -4.3872   24.4205    5.6329 H   0  0  0  0  0  0  0  0  0  0  0  0
    1.3284   27.2119    4.5513 C   0  0  0  0  0  0  0  0  0  0  0  0
    1.4442   26.5103    3.7178 H   0  0  0  0  0  0  0  0  0  0  0  0
    2.3161   27.5930    4.8262 H   0  0  0  0  0  0  0  0  0  0  0  0
    7.3872   20.6023    7.6231 C   0  0  0  0  0  0  0  0  0  0  0  0
    7.6566   21.2942    6.8292 H   0  0  0  0  0  0  0  0  0  0  0  0
    7.4148   19.5895    7.2303 H   0  0  0  0  0  0  0  0  0  0  0  0
    8.1039   20.6927    8.4349 H   0  0  0  0  0  0  0  0  0  0  0  0
    0.4054   28.3523    4.1610 C   0  0  0  0  0  0  0  0  0  0  0  0
    0.8303   28.8901    3.3174 H   0  0  0  0  0  0  0  0  0  0  0  0
    0.2877   29.0364    4.9973 H   0  0  0  0  0  0  0  0  0  0  0  0
   -0.5741   27.9706    3.8871 H   0  0  0  0  0  0  0  0  0  0  0  0
  1  2  1  0  0  0  0
  1  5  1  0  0  0  0
  1 16  1  0  0  0  0
  3 11  2  0  0  0  0
  4  7  1  0  0  0  0
  4 10  1  0  0  0  0
  5 31  1  0  0  0  0
  6  1  1  0  0  0  0
  7 41  1  0  0  0  0
  8 18  1  0  0  0  0
  9  3  1  0  0  0  0
  9 28  1  0  0  0  0
 10 24  1  0  0  0  0
 12  3  1  0  0  0  0
 13 17  1  0  0  0  0
 14  4  2  0  0  0  0
 15  6  1  0  0  0  0
 16 39  1  0  0  0  0
 16 38  1  0  0  0  0
 17  1  1  0  0  0  0
 18  1  1  0  0  0  0
 19  4  1  0  0  0  0
 20  5  1  0  0  0  0
 20 34  1  0  0  0  0
 21 20  1  0  0  0  0
 22 23  1  0  0  0  0
 22 19  1  0  0  0  0
 24 26  1  0  0  0  0
 24 25  1  0  0  0  0
 27 36  1  0  0  0  0
 27  3  1  0  0  0  0
 28 30  1  0  0  0  0
 29 28  1  0  0  0  0
 31 36  2  0  0  0  0
 32 19  2  0  0  0  0
 32 33  1  0  0  0  0
 34 27  2  0  0  0  0
 35 34  1  0  0  0  0
 36 37  1  0  0  0  0
 38 31  1  6  0  0  0
 38 32  1  0  0  0  0
 39 22  2  0  0  0  0
 40 39  1  0  0  0  0
 41 43  1  0  0  0  0
 41 42  1  0  0  0  0
 44 47  1  0  0  0  0
 44 24  1  0  0  0  0
 45 44  1  0  0  0  0
 46 44  1  0  0  0  0
 48 49  1  0  0  0  0
 48 51  1  0  0  0  0
 48 28  1  0  0  0  0
 50 48  1  0  0  0  0
 52 54  1  0  0  0  0
 52 12  1  0  0  0  0
 53 52  1  0  0  0  0
 55 41  1  0  0  0  0
 55 58  1  0  0  0  0
 56 55  1  0  0  0  0
 57 55  1  0  0  0  0
 59 52  1  0  0  0  0
 59 61  1  0  0  0  0
 60 59  1  0  0  0  0
 62 59  1  0  0  0  0
M  END
$$$$
