CSD_code = SUGMEO | q = 0 | S = 0 | Stoichiometry = C15H12ClN2O3Re | MND = 6
 OpenBabel04212202103D

 34 36  0  0  1  0  0  0  0  0999 V2000
    1.2588    4.7074    5.9206 Re  0  0  0  0  0  0  0  0  0  0  0  0
    3.4379    5.4262    5.2861 Cl  0  0  0  0  0  0  0  0  0  0  0  0
    2.0752    5.0861    7.8629 N   0  0  0  0  0  0  0  0  0  0  0  0
    1.0201    6.8190    6.1822 N   0  0  0  0  0  0  0  0  0  0  0  0
    0.7370    4.6655    4.0429 C   0  0  0  0  0  2  0  0  0  0  0  0
    3.0784    6.7518    9.2393 C   0  0  0  0  0  0  0  0  0  0  0  0
    3.2793    7.7905    9.4437 H   0  0  0  0  0  0  0  0  0  0  0  0
   -0.5116    4.2684    6.5843 C   0  0  0  0  0  2  0  0  0  0  0  0
    1.8902    8.7255    7.3153 C   0  0  0  0  0  0  0  0  0  0  0  0
    2.4731    9.1426    8.1197 H   0  0  0  0  0  0  0  0  0  0  0  0
    2.3189    6.3813    8.1303 C   0  0  2  0  0  3  0  0  0  0  0  0
    0.4492    7.6356    5.3070 C   0  0  0  0  0  3  0  0  0  0  0  0
   -0.1258    7.1672    4.5174 H   0  0  0  0  0  0  0  0  0  0  0  0
    1.3065    9.5653    6.3876 C   0  0  0  0  0  0  0  0  0  0  0  0
    1.4349   10.6347    6.4665 H   0  0  0  0  0  0  0  0  0  0  0  0
    3.5916    5.7793   10.0727 C   0  0  0  0  0  0  0  0  0  0  0  0
    4.1941    6.0554   10.9254 H   0  0  0  0  0  0  0  0  0  0  0  0
    1.8444    2.8519    5.8019 C   0  0  0  0  0  2  0  0  0  0  0  0
    1.7355    7.3461    7.1930 C   0  0  0  0  0  0  0  0  0  0  0  0
    0.5098    4.7188    2.9220 O   0  0  0  0  0  1  0  0  0  0  0  0
   -1.5575    4.0322    7.0005 O   0  0  0  0  0  1  0  0  0  0  0  0
    2.5601    4.1594    8.6803 C   0  0  0  0  0  0  0  0  0  0  0  0
    2.3295    3.1315    8.4288 H   0  0  0  0  0  0  0  0  0  0  0  0
    2.2913    1.7990    5.7532 O   0  0  0  0  0  1  0  0  0  0  0  0
    0.5561    9.0208    5.3514 C   0  0  0  0  0  0  0  0  0  0  0  0
    3.3289    4.4394    9.8021 C   0  0  0  0  0  0  0  0  0  0  0  0
    3.8349    3.3438   10.6804 C   0  0  0  0  0  0  0  0  0  0  0  0
    4.8079    3.5998   11.0933 H   0  0  0  0  0  0  0  0  0  0  0  0
    3.9143    2.4106   10.1291 H   0  0  0  0  0  0  0  0  0  0  0  0
    3.1465    3.1894   11.5120 H   0  0  0  0  0  0  0  0  0  0  0  0
   -0.1143    9.8633    4.3176 C   0  0  0  0  0  0  0  0  0  0  0  0
    0.1607    9.5277    3.3193 H   0  0  0  0  0  0  0  0  0  0  0  0
    0.1629   10.9084    4.4281 H   0  0  0  0  0  0  0  0  0  0  0  0
   -1.1969    9.7775    4.4085 H   0  0  0  0  0  0  0  0  0  0  0  0
  1  4  1  0  0  0  0
  1  8  1  0  0  0  0
  1  3  1  0  0  0  0
  2  1  1  0  0  0  0
  3 11  1  0  0  0  0
  3 22  1  0  0  0  0
  4 19  1  0  0  0  0
  5  1  1  0  0  0  0
  6  7  1  0  0  0  0
  6 16  2  0  0  0  0
  8 21  1  0  0  0  0
  9 10  1  0  0  0  0
 11 19  1  1  0  0  0
 11  6  1  0  0  0  0
 12 25  1  0  0  0  0
 12  4  1  0  0  0  0
 13 12  1  0  0  0  0
 14 15  1  0  0  0  0
 14  9  1  0  0  0  0
 16 17  1  0  0  0  0
 18  1  1  0  0  0  0
 19  9  2  0  0  0  0
 20  5  1  0  0  0  0
 22 26  2  0  0  0  0
 23 22  1  0  0  0  0
 24 18  1  0  0  0  0
 25 14  2  0  0  0  0
 26 16  1  0  0  0  0
 26 27  1  0  0  0  0
 27 28  1  0  0  0  0
 27 30  1  0  0  0  0
 29 27  1  0  0  0  0
 31 34  1  0  0  0  0
 31 33  1  0  0  0  0
 31 25  1  0  0  0  0
 32 31  1  0  0  0  0
M  END
$$$$
