CSD_code = SUGXID | q = 0 | S = 0 | Stoichiometry = C15H19Cl2FeN3O2 | MND = 5
 OpenBabel04212202103D

 42 46  0  0  1  0  0  0  0  0999 V2000
    0.9917    0.6073    7.5049 Fe  0  0  0  0  0  0  0  0  0  0  0  0
    2.5336    1.8528    8.1811 Cl  0  0  0  0  0  0  0  0  0  0  0  0
   -0.9227    1.1425    7.9584 Cl  0  0  0  0  0  0  0  0  0  0  0  0
    2.4535   -2.4302    9.7293 O   0  0  0  0  0  0  0  0  0  0  0  0
    2.0529    1.2821    3.6639 O   0  0  0  0  0  0  0  0  0  0  0  0
    1.2005   -0.6996    9.0303 N   0  0  0  0  0  0  0  0  0  0  0  0
    2.0667   -0.5673    6.7130 N   0  0  0  0  0  0  0  0  0  0  0  0
    0.9850    1.3891    5.6395 N   0  0  2  0  0  0  0  0  0  0  0  0
    0.8414   -0.8303   10.4372 C   0  0  0  0  0  0  0  0  0  0  0  0
    1.7890   -1.9690   10.9076 C   0  0  0  0  0  0  0  0  0  0  0  0
    2.5471   -1.6115   11.6105 H   0  0  0  0  0  0  0  0  0  0  0  0
    1.2501   -2.8093   11.3504 H   0  0  0  0  0  0  0  0  0  0  0  0
    2.0818   -1.6063    8.7421 C   0  0  0  0  0  0  0  0  0  0  0  0
    2.5808   -1.6315    7.4031 C   0  0  0  0  0  0  0  0  0  0  0  0
    3.4526   -2.5381    6.8219 C   0  0  0  0  0  0  0  0  0  0  0  0
    3.8307   -3.3551    7.4151 H   0  0  0  0  0  0  0  0  0  0  0  0
    3.8237   -2.3658    5.4941 C   0  0  0  0  0  0  0  0  0  0  0  0
    4.5062   -3.0559    5.0259 H   0  0  0  0  0  0  0  0  0  0  0  0
    3.3138   -1.2890    4.7791 C   0  0  0  0  0  0  0  0  0  0  0  0
    3.5815   -1.1140    3.7495 H   0  0  0  0  0  0  0  0  0  0  0  0
    2.4464   -0.4101    5.4077 C   0  0  0  0  0  0  0  0  0  0  0  0
    1.8271    0.7635    4.8770 C   0  0  2  0  0  3  0  0  0  0  0  0
    1.3002    2.4950    3.5986 C   0  0  0  0  0  0  0  0  0  0  0  0
    0.6465    2.4471    2.7245 H   0  0  0  0  0  0  0  0  0  0  0  0
    2.0001    3.3272    3.4839 H   0  0  0  0  0  0  0  0  0  0  0  0
    0.5064    2.5712    4.9332 C   0  0  0  0  0  0  0  0  0  0  0  0
    1.1006    0.4893   11.1585 C   0  0  0  0  0  0  0  0  0  0  0  0
    2.1322    0.8030   11.0173 H   0  0  0  0  0  0  0  0  0  0  0  0
    0.8924    0.3841   12.2202 H   0  0  0  0  0  0  0  0  0  0  0  0
    0.4546    1.2578   10.7408 H   0  0  0  0  0  0  0  0  0  0  0  0
   -0.6300   -1.2318   10.5532 C   0  0  0  0  0  0  0  0  0  0  0  0
   -1.2511   -0.4695   10.0907 H   0  0  0  0  0  0  0  0  0  0  0  0
   -0.9056   -1.3318   11.5999 H   0  0  0  0  0  0  0  0  0  0  0  0
   -0.8071   -2.1774   10.0445 H   0  0  0  0  0  0  0  0  0  0  0  0
    0.8430    3.8188    5.7463 C   0  0  0  0  0  0  0  0  0  0  0  0
    0.3214    3.7759    6.6995 H   0  0  0  0  0  0  0  0  0  0  0  0
    0.5358    4.7125    5.2093 H   0  0  0  0  0  0  0  0  0  0  0  0
    1.9105    3.8631    5.9489 H   0  0  0  0  0  0  0  0  0  0  0  0
   -1.0017    2.4639    4.7058 C   0  0  0  0  0  0  0  0  0  0  0  0
   -1.2370    1.5729    4.1271 H   0  0  0  0  0  0  0  0  0  0  0  0
   -1.3586    3.3413    4.1727 H   0  0  0  0  0  0  0  0  0  0  0  0
   -1.5095    2.3958    5.6640 H   0  0  0  0  0  0  0  0  0  0  0  0
  1  3  1  0  0  0  0
  1  2  1  0  0  0  0
  1  6  1  0  0  0  0
  4 10  1  0  0  0  0
  6  9  1  0  0  0  0
  7 14  1  0  0  0  0
  7  1  1  0  0  0  0
  8 26  1  1  0  0  0
  8  1  1  0  0  0  0
  9 31  1  0  0  0  0
  9 10  1  0  0  0  0
  9 27  1  0  0  0  0
 10 12  1  0  0  0  0
 10 11  1  0  0  0  0
 13  6  1  0  0  0  0
 13  4  1  0  0  0  0
 14 13  2  0  0  0  0
 15 14  1  0  0  0  0
 15 16  1  0  0  0  0
 17 15  2  0  0  0  0
 18 17  1  0  0  0  0
 19 21  2  0  0  0  0
 19 17  1  0  0  0  0
 20 19  1  0  0  0  0
 21  7  1  0  0  0  0
 22  5  1  1  0  0  0
 22 21  1  0  0  0  0
 22  8  1  0  0  0  0
 23  5  1  0  0  0  0
 23 26  1  0  0  0  0
 24 23  1  0  0  0  0
 25 23  1  0  0  0  0
 26 35  1  0  0  0  0
 27 29  1  0  0  0  0
 28 27  1  0  0  0  0
 30 27  1  0  0  0  0
 31 33  1  0  0  0  0
 32 31  1  0  0  0  0
 34 31  1  0  0  0  0
 35 38  1  0  0  0  0
 35 36  1  0  0  0  0
 37 35  1  0  0  0  0
 39 26  1  0  0  0  0
 39 42  1  0  0  0  0
 40 39  1  0  0  0  0
 41 39  1  0  0  0  0
M  END
$$$$
