CSD_code = SUHCEE | q = 0 | S = 0 | Stoichiometry = C22H16Cl2F16N2O2Pt | MND = 4
 OpenBabel04212202103D

 61 63  0  0  0  0  0  0  0  0999 V2000
    6.5498    5.5955    6.9684 Pt  0  0  0  0  0  0  0  0  0  0  0  0
    5.5449    3.6190    7.2189 Cl  0  0  0  0  0  0  0  0  0  0  0  0
    7.1682    4.9571    4.9205 Cl  0  0  0  0  0  0  0  0  0  0  0  0
    3.0330    7.1824   16.6026 F   0  0  0  0  0  0  0  0  0  0  0  0
    4.4558    5.7203   15.8963 F   0  0  0  0  0  0  0  0  0  0  0  0
    1.7457    6.8154   13.9630 F   0  0  0  0  0  0  0  0  0  0  0  0
    2.9977    5.0600   13.8044 F   0  0  0  0  0  0  0  0  0  0  0  0
    0.5931    6.0421   16.1518 F   0  0  0  0  0  0  0  0  0  0  0  0
    2.0744    4.5353   16.6067 F   0  0  0  0  0  0  0  0  0  0  0  0
    0.0749    4.5994   13.7177 F   0  0  0  0  0  0  0  0  0  0  0  0
    1.3446    3.0328   14.5118 F   0  0  0  0  0  0  0  0  0  0  0  0
   12.9549   12.0019    5.9188 F   0  0  0  0  0  0  0  0  0  0  0  0
   12.4302   13.8588    4.9702 F   0  0  0  0  0  0  0  0  0  0  0  0
   11.9071   10.5236    4.1404 F   0  0  0  0  0  0  0  0  0  0  0  0
   10.4504   11.9721    3.5032 F   0  0  0  0  0  0  0  0  0  0  0  0
   13.9587   12.2214    3.2327 F   0  0  0  0  0  0  0  0  0  0  0  0
   12.6068   11.3896    1.7711 F   0  0  0  0  0  0  0  0  0  0  0  0
   12.3720   13.6860    0.8859 F   0  0  0  0  0  0  0  0  0  0  0  0
   11.2622   14.2157    2.6585 F   0  0  0  0  0  0  0  0  0  0  0  0
    4.5496    7.2039   13.4066 O   0  0  0  0  0  0  0  0  0  0  0  0
   10.1517   11.4365    6.1939 O   0  0  0  0  0  0  0  0  0  0  0  0
    6.0484    6.2803    8.7765 N   0  0  0  0  0  0  0  0  0  0  0  0
    7.3944    7.3993    6.8549 N   0  0  0  0  0  0  0  0  0  0  0  0
    6.4630    7.5438    9.0308 C   0  0  0  0  0  0  0  0  0  0  0  0
    6.1882    8.1515   10.2529 C   0  0  0  0  0  0  0  0  0  0  0  0
    6.5235    9.1577   10.4467 H   0  0  0  0  0  0  0  0  0  0  0  0
    5.4845    7.4612   11.2284 C   0  0  0  0  0  0  0  0  0  0  0  0
    5.0685    6.1623   10.9442 C   0  0  0  0  0  0  0  0  0  0  0  0
    4.5227    5.5943   11.6777 H   0  0  0  0  0  0  0  0  0  0  0  0
    5.3707    5.6170    9.7128 C   0  0  0  0  0  0  0  0  0  0  0  0
    5.0662    4.6121    9.4467 H   0  0  0  0  0  0  0  0  0  0  0  0
    7.2079    8.1759    7.9474 C   0  0  0  0  0  0  0  0  0  0  0  0
    7.7141    9.4733    7.9961 C   0  0  0  0  0  0  0  0  0  0  0  0
    7.5548   10.0835    8.8703 H   0  0  0  0  0  0  0  0  0  0  0  0
    8.4211    9.9820    6.9190 C   0  0  0  0  0  0  0  0  0  0  0  0
    8.6122    9.1578    5.8104 C   0  0  0  0  0  0  0  0  0  0  0  0
    9.1719    9.5113    4.9617 H   0  0  0  0  0  0  0  0  0  0  0  0
    8.0857    7.8833    5.8223 C   0  0  0  0  0  0  0  0  0  0  0  0
    8.2049    7.2095    4.9826 H   0  0  0  0  0  0  0  0  0  0  0  0
    5.1897    8.1194   12.5471 C   0  0  0  0  0  0  0  0  0  0  0  0
    4.2388    7.7356   14.6580 C   0  0  0  0  0  0  0  0  0  0  0  0
    3.5611    6.6386   15.4818 C   0  0  0  0  0  0  0  0  0  0  0  0
    2.4398    5.9082   14.6818 C   0  0  0  0  0  0  0  0  0  0  0  0
    1.4327    5.1442   15.5934 C   0  0  0  0  0  0  0  0  0  0  0  0
    0.5833    4.0823   14.8451 C   0  0  0  0  0  0  0  0  0  0  0  0
    8.9503   11.3879    6.9362 C   0  0  0  0  0  0  0  0  0  0  0  0
   10.6970   12.7164    6.0964 C   0  0  0  0  0  0  0  0  0  0  0  0
   11.9623   12.6118    5.2464 C   0  0  0  0  0  0  0  0  0  0  0  0
   11.7265   11.8345    3.9146 C   0  0  0  0  0  0  0  0  0  0  0  0
   12.6893   12.2806    2.7713 C   0  0  0  0  0  0  0  0  0  0  0  0
   12.4331   13.7178    2.2210 C   0  0  0  0  0  0  0  0  0  0  0  0
    6.1287    8.4731   13.0028 H   0  0  0  0  0  0  0  0  0  0  0  0
    4.5434    8.9977   12.3836 H   0  0  0  0  0  0  0  0  0  0  0  0
    3.5411    8.5845   14.5836 H   0  0  0  0  0  0  0  0  0  0  0  0
    5.1386    8.0552   15.2059 H   0  0  0  0  0  0  0  0  0  0  0  0
   -0.2401    3.7437   15.4939 H   0  0  0  0  0  0  0  0  0  0  0  0
    8.2055   12.0635    6.4828 H   0  0  0  0  0  0  0  0  0  0  0  0
    9.1281   11.7203    7.9697 H   0  0  0  0  0  0  0  0  0  0  0  0
   10.9847   13.1198    7.0794 H   0  0  0  0  0  0  0  0  0  0  0  0
   10.0119   13.4221    5.6007 H   0  0  0  0  0  0  0  0  0  0  0  0
   13.2434   14.3942    2.5353 H   0  0  0  0  0  0  0  0  0  0  0  0
  1  2  1  0  0  0  0
  1 22  1  0  0  0  0
  3  1  1  0  0  0  0
  6 43  1  0  0  0  0
  7 43  1  0  0  0  0
 10 45  1  0  0  0  0
 11 45  1  0  0  0  0
 13 48  1  0  0  0  0
 15 49  1  0  0  0  0
 17 50  1  0  0  0  0
 18 51  1  0  0  0  0
 20 41  1  0  0  0  0
 21 46  1  0  0  0  0
 22 24  1  0  0  0  0
 22 30  1  0  0  0  0
 23  1  1  0  0  0  0
 23 32  1  0  0  0  0
 24 25  1  0  0  0  0
 25 26  1  0  0  0  0
 25 27  2  0  0  0  0
 27 40  1  0  0  0  0
 28 27  1  0  0  0  0
 28 29  1  0  0  0  0
 30 28  2  0  0  0  0
 31 30  1  0  0  0  0
 32 33  1  0  0  0  0
 32 24  2  0  0  0  0
 33 34  1  0  0  0  0
 35 46  1  0  0  0  0
 35 33  2  0  0  0  0
 36 38  2  0  0  0  0
 36 35  1  0  0  0  0
 37 36  1  0  0  0  0
 38 23  1  0  0  0  0
 39 38  1  0  0  0  0
 40 52  1  0  0  0  0
 40 20  1  0  0  0  0
 41 55  1  0  0  0  0
 41 42  1  0  0  0  0
 42  5  1  0  0  0  0
 42  4  1  0  0  0  0
 43 42  1  0  0  0  0
 43 44  1  0  0  0  0
 44  8  1  0  0  0  0
 44  9  1  0  0  0  0
 45 56  1  0  0  0  0
 45 44  1  0  0  0  0
 46 58  1  0  0  0  0
 47 21  1  0  0  0  0
 47 59  1  0  0  0  0
 48 12  1  0  0  0  0
 48 47  1  0  0  0  0
 49 14  1  0  0  0  0
 49 48  1  0  0  0  0
 50 16  1  0  0  0  0
 50 49  1  0  0  0  0
 51 61  1  0  0  0  0
 51 19  1  0  0  0  0
 51 50  1  0  0  0  0
 53 40  1  0  0  0  0
 54 41  1  0  0  0  0
 57 46  1  0  0  0  0
 60 47  1  0  0  0  0
M  END
$$$$
