CSD_code = SUHQAP | q = 0 | S = 0 | Stoichiometry = C30H30BrPPd | MND = 5
 OpenBabel04212202103D

 63 68  0  0  1  0  0  0  0  0999 V2000
    1.7357    2.7351    2.0627 Pd  0  0  0  0  0  0  0  0  0  0  0  0
    1.3573    0.3265    2.5678 Br  0  0  0  0  0 15  0  0  0  0  0  0
    3.1440    2.8398    3.8123 P   0  0  0  0  0  0  0  0  0  0  0  0
    0.2605    2.6759    0.4978 C   0  0  0  0  0  3  0  0  0  0  0  0
   -0.0894    1.6632    0.3191 H   0  0  0  0  0  0  0  0  0  0  0  0
    1.4201    3.2148    0.0102 C   0  0  1  0  0  0  0  0  0  0  0  0
    2.1946    2.7046   -0.5638 H   0  0  0  0  0  0  0  0  0  0  0  0
    1.3434    4.7215    0.2000 C   0  0  2  0  0  0  0  0  0  0  0  0
    1.9862    5.3131   -0.4541 H   0  0  0  0  0  0  0  0  0  0  0  0
    1.7198    4.7386    1.6790 C   0  0  1  0  0  0  0  0  0  0  0  0
    2.6327    5.3032    1.8959 H   0  0  0  0  0  0  0  0  0  0  0  0
    0.5350    5.2275    2.4974 C   0  0  1  0  0  0  0  0  0  0  0  0
    0.7927    5.2963    3.5645 H   0  0  0  0  0  0  0  0  0  0  0  0
    0.1982    6.6083    1.9156 C   0  0  0  0  0  0  0  0  0  0  0  0
   -0.3371    7.2420    2.6232 H   0  0  0  0  0  0  0  0  0  0  0  0
    1.1175    7.1268    1.6374 H   0  0  0  0  0  0  0  0  0  0  0  0
   -0.6748    6.2995    0.7024 C   0  0  2  0  0  0  0  0  0  0  0  0
   -0.6720    7.1206   -0.0189 H   0  0  0  0  0  0  0  0  0  0  0  0
   -2.0893    6.0637    1.2496 C   0  0  0  0  0  0  0  0  0  0  0  0
   -2.7266    5.6416    0.4714 H   0  0  0  0  0  0  0  0  0  0  0  0
   -2.5307    7.0139    1.5544 H   0  0  0  0  0  0  0  0  0  0  0  0
   -1.9825    5.1094    2.4539 C   0  0  0  0  0  0  0  0  0  0  0  0
   -1.9518    5.6666    3.3916 H   0  0  0  0  0  0  0  0  0  0  0  0
   -2.8478    4.4455    2.4942 H   0  0  0  0  0  0  0  0  0  0  0  0
   -0.6974    4.2919    2.2918 C   0  0  1  0  0  0  0  0  0  0  0  0
   -0.6768    3.4454    3.0053 H   0  0  0  0  0  0  0  0  0  0  0  0
   -0.7118    3.7907    0.8302 C   0  0  1  0  0  0  0  0  0  0  0  0
   -1.7278    3.4999    0.5525 H   0  0  0  0  0  0  0  0  0  0  0  0
   -0.1647    5.0002    0.0502 C   0  0  2  0  0  0  0  0  0  0  0  0
   -0.4511    4.9542   -1.0054 H   0  0  0  0  0  0  0  0  0  0  0  0
    4.7303    2.1115    3.3115 C   0  0  0  0  0  0  0  0  0  0  0  0
    4.7972    1.4943    2.0653 C   0  0  0  0  0  0  0  0  0  0  0  0
    3.9045    1.4522    1.4323 H   0  0  0  0  0  0  0  0  0  0  0  0
    5.9842    0.9301    1.6339 C   0  0  0  0  0  0  0  0  0  0  0  0
    6.0327    0.4441    0.6708 H   0  0  0  0  0  0  0  0  0  0  0  0
    7.1092    0.9888    2.4398 C   0  0  0  0  0  0  0  0  0  0  0  0
    8.0357    0.5457    2.1056 H   0  0  0  0  0  0  0  0  0  0  0  0
    7.0530    1.6234    3.6711 C   0  0  0  0  0  0  0  0  0  0  0  0
    7.9360    1.6790    4.2912 H   0  0  0  0  0  0  0  0  0  0  0  0
    5.8697    2.1889    4.1084 C   0  0  0  0  0  0  0  0  0  0  0  0
    5.8279    2.7054    5.0584 H   0  0  0  0  0  0  0  0  0  0  0  0
    3.6751    4.4375    4.5099 C   0  0  0  0  0  0  0  0  0  0  0  0
    4.5628    5.2130    3.7667 C   0  0  0  0  0  0  0  0  0  0  0  0
    4.9680    4.8163    2.8435 H   0  0  0  0  0  0  0  0  0  0  0  0
    4.9333    6.4676    4.2103 C   0  0  0  0  0  0  0  0  0  0  0  0
    5.6269    7.0608    3.6324 H   0  0  0  0  0  0  0  0  0  0  0  0
    4.4127    6.9651    5.3949 C   0  0  0  0  0  0  0  0  0  0  0  0
    4.7006    7.9466    5.7411 H   0  0  0  0  0  0  0  0  0  0  0  0
    3.5231    6.2028    6.1332 C   0  0  0  0  0  0  0  0  0  0  0  0
    3.1169    6.5891    7.0567 H   0  0  0  0  0  0  0  0  0  0  0  0
    3.1501    4.9451    5.6929 C   0  0  0  0  0  0  0  0  0  0  0  0
    2.4562    4.3510    6.2719 H   0  0  0  0  0  0  0  0  0  0  0  0
    2.5652    1.9303    5.2738 C   0  0  0  0  0  0  0  0  0  0  0  0
    3.3508    1.0873    6.0461 C   0  0  0  0  0  0  0  0  0  0  0  0
    4.3876    0.9231    5.7920 H   0  0  0  0  0  0  0  0  0  0  0  0
    2.7883    0.4318    7.1284 C   0  0  0  0  0  0  0  0  0  0  0  0
    3.3970   -0.2324    7.7243 H   0  0  0  0  0  0  0  0  0  0  0  0
    1.4521    0.6127    7.4406 C   0  0  0  0  0  0  0  0  0  0  0  0
    1.0197    0.0922    8.2822 H   0  0  0  0  0  0  0  0  0  0  0  0
    0.6610    1.4437    6.6621 C   0  0  0  0  0  0  0  0  0  0  0  0
   -0.3867    1.5681    6.8922 H   0  0  0  0  0  0  0  0  0  0  0  0
    1.2153    2.0950    5.5789 C   0  0  0  0  0  0  0  0  0  0  0  0
    0.6033    2.7234    4.9338 H   0  0  0  0  0  0  0  0  0  0  0  0
  3 42  1  0  0  0  0
  3 53  1  0  0  0  0
  4 27  1  0  0  0  0
  5  4  1  0  0  0  0
  6  7  1  6  0  0  0
  6  8  1  0  0  0  0
  6  4  1  0  0  0  0
  6  1  1  0  0  0  0
  8  9  1  6  0  0  0
  8 10  1  0  0  0  0
 10 11  1  1  0  0  0
 10  1  1  0  0  0  0
 10 12  1  0  0  0  0
 12 13  1  1  0  0  0
 14 12  1  0  0  0  0
 14 15  1  0  0  0  0
 16 14  1  0  0  0  0
 17 18  1  6  0  0  0
 17 19  1  0  0  0  0
 17 14  1  0  0  0  0
 19 21  1  0  0  0  0
 19 22  1  0  0  0  0
 20 19  1  0  0  0  0
 22 24  1  0  0  0  0
 22 23  1  0  0  0  0
 25 22  1  0  0  0  0
 25 12  1  0  0  0  0
 25 26  1  1  0  0  0
 27 28  1  6  0  0  0
 27 25  1  0  0  0  0
 29 30  1  6  0  0  0
 29  8  1  0  0  0  0
 29 17  1  0  0  0  0
 29 27  1  0  0  0  0
 31  3  1  0  0  0  0
 31 40  1  0  0  0  0
 32 31  2  0  0  0  0
 33 32  1  0  0  0  0
 34 32  1  0  0  0  0
 34 36  2  0  0  0  0
 35 34  1  0  0  0  0
 36 38  1  0  0  0  0
 37 36  1  0  0  0  0
 38 40  2  0  0  0  0
 38 39  1  0  0  0  0
 40 41  1  0  0  0  0
 42 51  1  0  0  0  0
 43 45  1  0  0  0  0
 43 42  2  0  0  0  0
 44 43  1  0  0  0  0
 45 47  2  0  0  0  0
 46 45  1  0  0  0  0
 47 48  1  0  0  0  0
 47 49  1  0  0  0  0
 49 50  1  0  0  0  0
 51 49  2  0  0  0  0
 51 52  1  0  0  0  0
 53 62  2  0  0  0  0
 53 54  1  0  0  0  0
 54 56  2  0  0  0  0
 55 54  1  0  0  0  0
 56 58  1  0  0  0  0
 56 57  1  0  0  0  0
 58 59  1  0  0  0  0
 60 61  1  0  0  0  0
 60 58  2  0  0  0  0
 62 60  1  0  0  0  0
 63 62  1  0  0  0  0
M  END
$$$$
