CSD_code = SUJCIL | q = 0 | S = 0 | Stoichiometry = C29H30BrPPd | MND = 5
 OpenBabel04212202103D

 62 66  0  0  1  0  0  0  0  0999 V2000
    8.4835    0.5950   11.8050 Pd  0  0  0  0  0  0  0  0  0  0  0  0
    8.8561    0.1130   14.2244 Br  0  0  0  0  0 15  0  0  0  0  0  0
    7.7745   -1.5186   11.5478 P   0  0  0  0  0  0  0  0  0  0  0  0
    8.4651    1.0989    9.8197 C   0  0  1  0  0  0  0  0  0  0  0  0
    7.7273    0.6283    9.1619 H   0  0  0  0  0  0  0  0  0  0  0  0
    8.2707    2.6040    9.9867 C   0  0  1  0  0  0  0  0  0  0  0  0
    7.4392    3.0283    9.4200 H   0  0  0  0  0  0  0  0  0  0  0  0
    8.1306    2.6613   11.4992 C   0  0  2  0  0  0  0  0  0  0  0  0
    7.2030    2.8876   12.0285 H   0  0  0  0  0  0  0  0  0  0  0  0
    9.3852    2.5901   12.0304 C   0  0  0  0  0  3  0  0  0  0  0  0
    9.6483    2.7837   13.0662 H   0  0  0  0  0  0  0  0  0  0  0  0
   10.4388    2.6920   10.9278 C   0  0  2  0  0  0  0  0  0  0  0  0
    9.6164    3.3051    9.7675 C   0  0  1  0  0  0  0  0  0  0  0  0
    9.5055    4.3833    9.9282 H   0  0  0  0  0  0  0  0  0  0  0  0
   10.2064    3.0406    8.3872 C   0  0  0  0  0  0  0  0  0  0  0  0
   11.2260    3.4288    8.3577 H   0  0  0  0  0  0  0  0  0  0  0  0
    9.6297    3.5872    7.6388 H   0  0  0  0  0  0  0  0  0  0  0  0
   10.1892    1.5349    8.0890 C   0  0  0  0  0  0  0  0  0  0  0  0
    9.4158    1.2930    7.3573 H   0  0  0  0  0  0  0  0  0  0  0  0
   11.1462    1.2099    7.6766 H   0  0  0  0  0  0  0  0  0  0  0  0
    9.8953    0.7842    9.3939 C   0  0  1  0  0  0  0  0  0  0  0  0
   10.0145   -0.2981    9.2332 H   0  0  0  0  0  0  0  0  0  0  0  0
   10.8856    1.2861   10.4677 C   0  0  0  0  0  0  0  0  0  0  0  0
   11.8892    1.3327   10.0375 H   0  0  0  0  0  0  0  0  0  0  0  0
   10.9313    0.5990   11.3376 H   0  0  0  0  0  0  0  0  0  0  0  0
   11.6239    3.5403   11.3719 C   0  0  0  0  0  0  0  0  0  0  0  0
   11.2846    4.5115   11.7277 H   0  0  0  0  0  0  0  0  0  0  0  0
   12.3140    3.6984   10.5456 H   0  0  0  0  0  0  0  0  0  0  0  0
   12.1595    3.0448   12.1795 H   0  0  0  0  0  0  0  0  0  0  0  0
    7.5966   -2.2620    9.8932 C   0  0  0  0  0  0  0  0  0  0  0  0
    6.5588   -1.8006    9.0856 C   0  0  0  0  0  0  0  0  0  0  0  0
    5.8569   -1.0793    9.4871 H   0  0  0  0  0  0  0  0  0  0  0  0
    6.4200   -2.2679    7.7933 C   0  0  0  0  0  0  0  0  0  0  0  0
    5.6103   -1.9100    7.1741 H   0  0  0  0  0  0  0  0  0  0  0  0
    7.3218   -3.1936    7.2912 C   0  0  0  0  0  0  0  0  0  0  0  0
    7.2156   -3.5573    6.2799 H   0  0  0  0  0  0  0  0  0  0  0  0
    8.3582   -3.6515    8.0871 C   0  0  0  0  0  0  0  0  0  0  0  0
    9.0604   -4.3741    7.6977 H   0  0  0  0  0  0  0  0  0  0  0  0
    8.5003   -3.1865    9.3829 C   0  0  0  0  0  0  0  0  0  0  0  0
    9.3095   -3.5474   10.0029 H   0  0  0  0  0  0  0  0  0  0  0  0
    6.0790   -1.6404   12.1848 C   0  0  0  0  0  0  0  0  0  0  0  0
    5.3088   -2.7893   12.0230 C   0  0  0  0  0  0  0  0  0  0  0  0
    5.7188   -3.6413   11.4968 H   0  0  0  0  0  0  0  0  0  0  0  0
    4.0199   -2.8269   12.5214 C   0  0  0  0  0  0  0  0  0  0  0  0
    3.4237   -3.7199   12.4019 H   0  0  0  0  0  0  0  0  0  0  0  0
    3.4914   -1.7222   13.1716 C   0  0  0  0  0  0  0  0  0  0  0  0
    2.4851   -1.7593   13.5617 H   0  0  0  0  0  0  0  0  0  0  0  0
    4.2463   -0.5695   13.3137 C   0  0  0  0  0  0  0  0  0  0  0  0
    3.8289    0.2929   13.8117 H   0  0  0  0  0  0  0  0  0  0  0  0
    5.5368   -0.5255   12.8178 C   0  0  0  0  0  0  0  0  0  0  0  0
    6.1399    0.3818   12.9262 H   0  0  0  0  0  0  0  0  0  0  0  0
    8.7790   -2.7358   12.4457 C   0  0  0  0  0  0  0  0  0  0  0  0
   10.1581   -2.5907   12.3042 C   0  0  0  0  0  0  0  0  0  0  0  0
   10.5418   -1.7819   11.6852 H   0  0  0  0  0  0  0  0  0  0  0  0
   11.0198   -3.4442   12.9628 C   0  0  0  0  0  0  0  0  0  0  0  0
   12.0879   -3.3257   12.8553 H   0  0  0  0  0  0  0  0  0  0  0  0
   10.5074   -4.4413   13.7787 C   0  0  0  0  0  0  0  0  0  0  0  0
   11.1787   -5.1033   14.3051 H   0  0  0  0  0  0  0  0  0  0  0  0
    9.1390   -4.5750   13.9370 C   0  0  0  0  0  0  0  0  0  0  0  0
    8.7431   -5.3388   14.5899 H   0  0  0  0  0  0  0  0  0  0  0  0
    8.2697   -3.7250   13.2743 C   0  0  0  0  0  0  0  0  0  0  0  0
    7.2038   -3.8166   13.4224 H   0  0  0  0  0  0  0  0  0  0  0  0
  3 41  1  0  0  0  0
  3 52  1  0  0  0  0
  4  5  1  6  0  0  0
  4  6  1  0  0  0  0
  4  1  1  0  0  0  0
  6  7  1  6  0  0  0
  6  8  1  0  0  0  0
  8  1  1  0  0  0  0
  8  9  1  1  0  0  0
  8 10  1  0  0  0  0
 10 11  1  0  0  0  0
 12 26  1  1  0  0  0
 12 10  1  0  0  0  0
 13 14  1  1  0  0  0
 13  6  1  0  0  0  0
 13 12  1  0  0  0  0
 15 13  1  0  0  0  0
 16 15  1  0  0  0  0
 17 15  1  0  0  0  0
 18 15  1  0  0  0  0
 18 21  1  0  0  0  0
 19 18  1  0  0  0  0
 20 18  1  0  0  0  0
 21 22  1  6  0  0  0
 21  4  1  0  0  0  0
 21 23  1  0  0  0  0
 23 12  1  0  0  0  0
 23 25  1  0  0  0  0
 24 23  1  0  0  0  0
 26 27  1  0  0  0  0
 26 29  1  0  0  0  0
 28 26  1  0  0  0  0
 30  3  1  0  0  0  0
 31 32  1  0  0  0  0
 31 30  2  0  0  0  0
 33 31  1  0  0  0  0
 34 33  1  0  0  0  0
 35 33  2  0  0  0  0
 35 37  1  0  0  0  0
 36 35  1  0  0  0  0
 37 39  2  0  0  0  0
 38 37  1  0  0  0  0
 39 30  1  0  0  0  0
 39 40  1  0  0  0  0
 41 50  1  0  0  0  0
 42 41  2  0  0  0  0
 42 44  1  0  0  0  0
 43 42  1  0  0  0  0
 44 46  2  0  0  0  0
 45 44  1  0  0  0  0
 46 48  1  0  0  0  0
 46 47  1  0  0  0  0
 48 49  1  0  0  0  0
 50 51  1  0  0  0  0
 50 48  2  0  0  0  0
 52 61  1  0  0  0  0
 53 52  2  0  0  0  0
 53 55  1  0  0  0  0
 54 53  1  0  0  0  0
 55 57  2  0  0  0  0
 56 55  1  0  0  0  0
 57 59  1  0  0  0  0
 57 58  1  0  0  0  0
 59 60  1  0  0  0  0
 61 62  1  0  0  0  0
 61 59  2  0  0  0  0
M  END
$$$$
