CSD_code = SUJYAY | q = 0 | S = 0 | Stoichiometry = C12H8ClN3O2Pd | MND = 4
 OpenBabel04212202103D

 27 30  0  0  1  0  0  0  0  0999 V2000
    6.0066    0.5314    1.7429 Pd  0  0  2  0  0  0  0  0  0  0  0  0
    6.0068   -1.7055    1.7439 Cl  0  0  0  0  0  0  0  0  0  0  0  0
    7.4429    4.2964    1.4132 O   0  0  0  0  0  0  0  0  0  0  0  0
    6.0068    2.5037    1.7436 N   0  0  0  0  0  0  0  0  0  0  0  0
    7.1947    3.1144    1.4737 C   0  0  0  0  0  0  0  0  0  0  0  0
    7.9257    0.7601    1.3264 N   0  0  0  0  0  0  0  0  0  0  0  0
    8.2682    2.0622    1.2391 C   0  0  2  0  0  3  0  0  0  0  0  0
    9.5660    2.4559    0.9445 C   0  0  0  0  0  0  0  0  0  0  0  0
    9.7749    3.5133    0.8874 H   0  0  0  0  0  0  0  0  0  0  0  0
   10.5377    1.4911    0.7361 C   0  0  0  0  0  0  0  0  0  0  0  0
   11.5535    1.7731    0.5050 H   0  0  0  0  0  0  0  0  0  0  0  0
   10.1748    0.1560    0.8321 C   0  0  0  0  0  0  0  0  0  0  0  0
   10.8970   -0.6301    0.6801 H   0  0  0  0  0  0  0  0  0  0  0  0
    8.8600   -0.1687    1.1281 C   0  0  0  0  0  0  0  0  0  0  0  0
    8.5370   -1.2014    1.2100 H   0  0  0  0  0  0  0  0  0  0  0  0
    4.5707    4.2964    2.0742 O   0  0  0  0  0  0  0  0  0  0  0  0
    4.8189    3.1144    2.0137 C   0  0  0  0  0  0  0  0  0  0  0  0
    4.0879    0.7601    2.1611 N   0  0  0  0  0  0  0  0  0  0  0  0
    3.7455    2.0622    2.2483 C   0  0  2  0  0  3  0  0  0  0  0  0
    2.4476    2.4559    2.5429 C   0  0  0  0  0  0  0  0  0  0  0  0
    2.2387    3.5133    2.6000 H   0  0  0  0  0  0  0  0  0  0  0  0
    1.4759    1.4911    2.7513 C   0  0  0  0  0  0  0  0  0  0  0  0
    0.4602    1.7731    2.9824 H   0  0  0  0  0  0  0  0  0  0  0  0
    1.8388    0.1560    2.6553 C   0  0  0  0  0  0  0  0  0  0  0  0
    1.1166   -0.6301    2.8072 H   0  0  0  0  0  0  0  0  0  0  0  0
    3.1536   -0.1687    2.3594 C   0  0  0  0  0  0  0  0  0  0  0  0
    3.4766   -1.2014    2.2773 H   0  0  0  0  0  0  0  0  0  0  0  0
  1  4  1  0  0  0  0
  1  2  1  6  0  0  0
  1 18  1  0  0  0  0
  3  5  2  0  0  0  0
  4 17  1  0  0  0  0
  5  4  1  0  0  0  0
  6  1  1  0  0  0  0
  7  8  1  1  0  0  0
  7  6  1  0  0  0  0
  7  5  1  0  0  0  0
  9  8  1  0  0  0  0
 10 12  1  0  0  0  0
 10  8  2  0  0  0  0
 11 10  1  0  0  0  0
 12 14  2  0  0  0  0
 13 12  1  0  0  0  0
 14 15  1  0  0  0  0
 14  6  1  0  0  0  0
 17 16  2  0  0  0  0
 18 19  1  0  0  0  0
 18 26  1  0  0  0  0
 19 17  1  6  0  0  0
 19 20  1  0  0  0  0
 20 21  1  0  0  0  0
 20 22  2  0  0  0  0
 22 23  1  0  0  0  0
 24 22  1  0  0  0  0
 24 25  1  0  0  0  0
 26 24  2  0  0  0  0
 27 26  1  0  0  0  0
M  END
$$$$
