CSD_code = SUNWEF | q = 0 | S = 0 | Stoichiometry = C28H21ClN5O4Rh | MND = 6
 OpenBabel04212202103D

 60 69  0  0  1  0  0  0  0  0999 V2000
    8.4692    5.0290    9.1963 C   0  0  0  0  0  0  0  0  0  0  0  0
    7.5935    6.1003    9.4145 C   0  0  0  0  0  0  0  0  0  0  0  0
    6.3220    7.8081    8.9846 C   0  0  1  0  0  3  0  0  0  0  0  0
    5.5935    8.8210    8.3715 C   0  0  0  0  0  0  0  0  0  0  0  0
    5.5775    8.9097    7.2961 H   0  0  0  0  0  0  0  0  0  0  0  0
    4.9189    9.7106    9.1837 C   0  0  0  0  0  0  0  0  0  0  0  0
    4.3495   10.5089    8.7312 H   0  0  0  0  0  0  0  0  0  0  0  0
    4.9573    9.6075   10.5759 C   0  0  0  0  0  0  0  0  0  0  0  0
    4.4136   10.3264   11.1705 H   0  0  0  0  0  0  0  0  0  0  0  0
    5.6806    8.6131   11.2023 C   0  0  0  0  0  0  0  0  0  0  0  0
    5.7231    8.5297   12.2773 H   0  0  0  0  0  0  0  0  0  0  0  0
    6.3723    7.7040   10.4102 C   0  0  0  0  0  0  0  0  0  0  0  0
    7.2152    6.5839   10.6985 C   0  0  0  0  0  0  0  0  0  0  0  0
    7.7568    5.8967   11.7785 C   0  0  0  0  0  0  0  0  0  0  0  0
    7.5937    6.1036   13.2409 C   0  0  0  0  0  0  0  0  0  0  0  0
    9.0377    4.3160   12.9036 C   0  0  0  0  0  0  0  0  0  0  0  0
    8.6280    4.8170   11.5898 C   0  0  0  0  0  0  0  0  0  0  0  0
    9.0269    4.3534   10.3138 C   0  0  0  0  0  0  0  0  0  0  0  0
    9.9268    3.3156   10.0254 C   0  0  0  0  0  0  0  0  0  0  0  0
   10.3856    2.7684   10.8339 H   0  0  0  0  0  0  0  0  0  0  0  0
   10.2100    3.0371    8.7057 C   0  0  0  0  0  0  0  0  0  0  0  0
   10.9084    2.2559    8.4496 H   0  0  0  0  0  0  0  0  0  0  0  0
    9.6100    3.7639    7.6733 C   0  0  0  0  0  0  0  0  0  0  0  0
    9.8521    3.5461    6.6407 H   0  0  0  0  0  0  0  0  0  0  0  0
    9.3262    5.8114    4.1547 C   0  0  0  0  0  3  0  0  0  0  0  0
    9.8777    6.6452    4.5717 H   0  0  0  0  0  0  0  0  0  0  0  0
    9.5637    5.3376    2.8757 C   0  0  0  0  0  0  0  0  0  0  0  0
   10.3138    5.8092    2.2624 H   0  0  0  0  0  0  0  0  0  0  0  0
    8.8205    4.2677    2.4049 C   0  0  0  0  0  0  0  0  0  0  0  0
    8.9736    3.8798    1.4099 H   0  0  0  0  0  0  0  0  0  0  0  0
    7.8620    3.7072    3.2360 C   0  0  0  0  0  0  0  0  0  0  0  0
    7.2570    2.8777    2.9040 H   0  0  0  0  0  0  0  0  0  0  0  0
    7.6818    4.2310    4.5051 C   0  0  0  0  0  0  0  0  0  0  0  0
    6.6661    3.6983    5.4799 C   0  0  0  0  0  0  0  0  0  0  0  0
    7.1751    3.0489    6.2043 H   0  0  0  0  0  0  0  0  0  0  0  0
    5.9054    3.0993    4.9592 H   0  0  0  0  0  0  0  0  0  0  0  0
    5.2376    4.3233    7.3451 C   0  0  0  0  0  0  0  0  0  0  0  0
    4.7922    3.3537    7.0837 H   0  0  0  0  0  0  0  0  0  0  0  0
    5.8518    4.1982    8.2394 H   0  0  0  0  0  0  0  0  0  0  0  0
    4.1375    5.3623    7.5052 C   0  0  0  0  0  0  0  0  0  0  0  0
    4.5256    6.2587    7.9880 H   0  0  0  0  0  0  0  0  0  0  0  0
    3.2977    4.9853    8.0847 H   0  0  0  0  0  0  0  0  0  0  0  0
    3.7768    5.6529    6.0527 C   0  0  0  0  0  0  0  0  0  0  0  0
    3.1017    4.8866    5.6662 H   0  0  0  0  0  0  0  0  0  0  0  0
    3.3089    6.6251    5.9105 H   0  0  0  0  0  0  0  0  0  0  0  0
    5.1327    5.5948    5.3388 C   0  0  1  0  0  0  0  0  0  0  0  0
    5.0380    5.1140    4.3583 H   0  0  0  0  0  0  0  0  0  0  0  0
    5.6534    7.0466    5.0434 C   0  0  0  0  0  0  0  0  0  0  0  0
    8.7417    4.7346    7.9070 N   0  0  0  0  0  0  0  0  0  0  0  0
    7.0589    6.7988    8.4071 N   0  0  0  0  0  0  0  0  0  0  0  0
    8.3838    5.1326   13.8250 N   0  0  0  0  0  0  0  0  0  0  0  0
    8.4813    5.0237   14.8235 H   0  0  0  0  0  0  0  0  0  0  0  0
    8.4111    5.2640    4.9511 N   0  0  0  0  0  0  0  0  0  0  0  0
    6.0495    4.8110    6.2127 N   0  0  2  0  0  4  0  0  0  0  0  0
    6.9288    6.9113   13.8367 O   0  0  0  0  0  0  0  0  0  0  0  0
    9.7669    3.3992   13.1993 O   0  0  0  0  0  0  0  0  0  0  0  0
    4.9550    7.7578    4.3533 O   0  0  0  0  0  0  0  0  0  0  0  0
    6.7801    7.3733    5.5322 O   0  0  0  0  0  0  0  0  0  0  0  0
    9.5681    7.3792    6.9583 Cl  0  0  0  0  0  0  0  0  0  0  0  0
    7.7657    6.0601    6.6724 Rh  0  0  0  0  0  0  0  0  0  0  0  0
  1  2  2  0  0  0  0
  1 18  1  0  0  0  0
  2 13  1  0  0  0  0
  3  4  1  6  0  0  0
  3 12  1  0  0  0  0
  4  6  2  0  0  0  0
  5  4  1  0  0  0  0
  6  8  1  0  0  0  0
  7  6  1  0  0  0  0
  8  9  1  0  0  0  0
  8 10  2  0  0  0  0
 10 11  1  0  0  0  0
 12 13  2  0  0  0  0
 12 10  1  0  0  0  0
 13 14  1  0  0  0  0
 14 15  1  0  0  0  0
 15 51  1  0  0  0  0
 15 55  2  0  0  0  0
 16 56  2  0  0  0  0
 16 51  1  0  0  0  0
 17 14  2  0  0  0  0
 17 16  1  0  0  0  0
 18 17  1  0  0  0  0
 19 18  2  0  0  0  0
 19 20  1  0  0  0  0
 21 19  1  0  0  0  0
 22 21  1  0  0  0  0
 23 49  1  0  0  0  0
 23 21  2  0  0  0  0
 24 23  1  0  0  0  0
 25 26  1  0  0  0  0
 25 53  1  0  0  0  0
 27 25  1  0  0  0  0
 28 27  1  0  0  0  0
 29 27  2  0  0  0  0
 29 31  1  0  0  0  0
 30 29  1  0  0  0  0
 31 33  2  0  0  0  0
 32 31  1  0  0  0  0
 33 53  1  0  0  0  0
 33 34  1  0  0  0  0
 34 35  1  0  0  0  0
 36 34  1  0  0  0  0
 37 40  1  0  0  0  0
 37 39  1  0  0  0  0
 38 37  1  0  0  0  0
 40 41  1  0  0  0  0
 40 42  1  0  0  0  0
 43 40  1  0  0  0  0
 44 43  1  0  0  0  0
 45 43  1  0  0  0  0
 46 47  1  6  0  0  0
 46 43  1  0  0  0  0
 46 54  1  0  0  0  0
 48 46  1  0  0  0  0
 48 58  1  0  0  0  0
 49  1  1  0  0  0  0
 50  3  1  0  0  0  0
 50  2  1  0  0  0  0
 51 52  1  0  0  0  0
 53 60  1  0  0  0  0
 54 34  1  6  0  0  0
 54 60  1  0  0  0  0
 54 37  1  0  0  0  0
 57 48  2  0  0  0  0
 58 60  1  0  0  0  0
 60 59  1  0  0  0  0
 60 49  1  0  0  0  0
 60 50  1  0  0  0  0
M  END
$$$$
