CSD_code = SUPWAC | q = 0 | S = 0 | Stoichiometry = C8H8Cl2N2Ti | MND = 9
 OpenBabel04212202103D

 21 19  0  0  0  0  0  0  0  0999 V2000
    1.2954    5.0610    2.7668 Ti  0  0  0  0  0  0  0  0  0  0  0  0
   -0.1146    6.6528    3.2613 Cl  0  0  0  0  0 15  0  0  0  0  0  0
   -0.3032    3.7218    2.1148 Cl  0  0  0  0  0 15  0  0  0  0  0  0
    1.8647    5.0231    4.6332 N   0  0  0  0  0  0  0  0  0  0  0  0
    1.7696    3.7728    4.1490 N   0  0  0  0  0  0  0  0  0  0  0  0
    3.5672    5.1645    2.1993 C   0  0  0  0  0  0  0  0  0  0  0  0
    3.0144    6.4585    2.0769 C   0  0  0  0  0  3  0  0  0  0  0  0
    2.0355    6.4194    1.0549 C   0  0  0  0  0  0  0  0  0  0  0  0
    1.9736    5.0996    0.5605 C   0  0  0  0  0  0  0  0  0  0  0  0
    2.9132    4.3191    1.2759 C   0  0  0  0  0  0  0  0  0  0  0  0
    1.6933    4.9866    5.9541 C   0  0  0  0  0  0  0  0  0  0  0  0
    1.5035    3.6646    6.3454 C   0  0  0  0  0  0  0  0  0  0  0  0
    1.5367    2.9363    5.1602 C   0  0  0  0  0  0  0  0  0  0  0  0
    4.4085    4.8910    2.8244 H   0  0  0  0  0  0  0  0  0  0  0  0
    3.3609    7.3486    2.5873 H   0  0  0  0  0  0  0  0  0  0  0  0
    1.5090    7.2753    0.6495 H   0  0  0  0  0  0  0  0  0  0  0  0
    1.3920    4.7656   -0.2904 H   0  0  0  0  0  0  0  0  0  0  0  0
    3.1697    3.2881    1.0650 H   0  0  0  0  0  0  0  0  0  0  0  0
    1.7301    5.8815    6.5485 H   0  0  0  0  0  0  0  0  0  0  0  0
    1.3449    3.2923    7.3374 H   0  0  0  0  0  0  0  0  0  0  0  0
    1.4260    1.8791    5.0001 H   0  0  0  0  0  0  0  0  0  0  0  0
  1  5  1  0  0  0  0
  4 11  2  0  0  0  0
  5  4  1  0  0  0  0
  5 13  1  0  0  0  0
  6 14  1  0  0  0  0
  7  6  1  0  0  0  0
  7 15  1  0  0  0  0
  8  7  1  0  0  0  0
  9  8  2  0  0  0  0
  9 10  1  0  0  0  0
 10  6  2  0  0  0  0
 11 12  1  0  0  0  0
 11 19  1  0  0  0  0
 12 20  1  0  0  0  0
 13 12  2  0  0  0  0
 16  8  1  0  0  0  0
 17  9  1  0  0  0  0
 18 10  1  0  0  0  0
 21 13  1  0  0  0  0
M  END
$$$$
