CSD_code = SUQLIB | q = 0 | S = 0 | Stoichiometry = C13H9Cl2N3Pt | MND = 4
 OpenBabel04212202103D

 28 31  0  0  0  0  0  0  0  0999 V2000
   -0.5075    4.5595   14.1248 Pt  0  0  0  0  0  0  0  0  0  0  0  0
   -2.0477    4.2247   15.7107 Cl  0  0  0  0  0  0  0  0  0  0  0  0
   -1.0538    6.7306   14.1831 Cl  0  0  0  0  0  0  0  0  0  0  0  0
   -0.2294    2.6021   13.8054 N   0  0  0  0  0  0  0  0  0  0  0  0
    0.8450    4.6731   12.6744 N   0  0  0  0  0  0  0  0  0  0  0  0
    2.0689    4.5890   10.1628 N   0  0  0  0  0  0  0  0  0  0  0  0
   -0.7005    1.5866   14.5256 C   0  0  0  0  0  0  0  0  0  0  0  0
   -1.1373    1.8489   15.4802 H   0  0  0  0  0  0  0  0  0  0  0  0
   -0.6577    0.2813   14.0758 C   0  0  0  0  0  0  0  0  0  0  0  0
   -1.0517   -0.5122   14.6893 H   0  0  0  0  0  0  0  0  0  0  0  0
   -0.1102    0.0179   12.8249 C   0  0  0  0  0  0  0  0  0  0  0  0
   -0.0729   -0.9897   12.4409 H   0  0  0  0  0  0  0  0  0  0  0  0
    0.3879    1.0677   12.0787 C   0  0  0  0  0  0  0  0  0  0  0  0
    0.8198    0.8914   11.1074 H   0  0  0  0  0  0  0  0  0  0  0  0
    0.3265    2.3636   12.5935 C   0  0  0  0  0  0  0  0  0  0  0  0
    0.9054    3.5336   11.9577 C   0  0  0  0  0  0  0  0  0  0  0  0
    1.5338    3.5295   10.6930 C   0  0  0  0  0  0  0  0  0  0  0  0
    1.5493    2.6349   10.0874 H   0  0  0  0  0  0  0  0  0  0  0  0
    2.1365    5.7024   10.9241 C   0  0  0  0  0  0  0  0  0  0  0  0
    2.7907    6.8406   10.4259 C   0  0  0  0  0  0  0  0  0  0  0  0
    3.1963    6.7906    9.4281 H   0  0  0  0  0  0  0  0  0  0  0  0
    2.9225    7.9551   11.2126 C   0  0  0  0  0  0  0  0  0  0  0  0
    3.4265    8.8298   10.8304 H   0  0  0  0  0  0  0  0  0  0  0  0
    2.4427    7.9556   12.5292 C   0  0  0  0  0  0  0  0  0  0  0  0
    2.6044    8.8210   13.1528 H   0  0  0  0  0  0  0  0  0  0  0  0
    1.7816    6.8679   13.0399 C   0  0  0  0  0  0  0  0  0  0  0  0
    1.4340    6.8527   14.0615 H   0  0  0  0  0  0  0  0  0  0  0  0
    1.5632    5.7385   12.2326 C   0  0  0  0  0  0  0  0  0  0  0  0
  1  3  1  0  0  0  0
  1  2  1  0  0  0  0
  4  1  1  0  0  0  0
  4  7  1  0  0  0  0
  5  1  1  0  0  0  0
  6 17  2  0  0  0  0
  6 19  1  0  0  0  0
  7  8  1  0  0  0  0
  9  7  2  0  0  0  0
  9 10  1  0  0  0  0
 11  9  1  0  0  0  0
 12 11  1  0  0  0  0
 13 15  1  0  0  0  0
 13 11  2  0  0  0  0
 14 13  1  0  0  0  0
 15  4  1  0  0  0  0
 16 15  2  0  0  0  0
 16  5  1  0  0  0  0
 17 16  1  0  0  0  0
 18 17  1  0  0  0  0
 19 28  1  0  0  0  0
 20 19  2  0  0  0  0
 20 22  1  0  0  0  0
 21 20  1  0  0  0  0
 22 24  2  0  0  0  0
 23 22  1  0  0  0  0
 24 26  1  0  0  0  0
 24 25  1  0  0  0  0
 26 27  1  0  0  0  0
 28  5  1  0  0  0  0
 28 26  2  0  0  0  0
M  END
$$$$
