CSD_code = SUQMEW | q = -1 | S = 0 | Stoichiometry = C21H15AsI3O3W(1-) | MND = 7
 OpenBabel04212202103D

 44 46  0  0  0  0  0  0  0  0999 V2000
    3.4742    3.9738    3.0298 W   0  0  0  0  0  0  0  0  0  0  0  0
    4.1631    2.2057    0.9651 I   0  0  0  0  0  0  0  0  0  0  0  0
    5.4301    5.7559    2.0453 I   0  0  0  0  0  0  0  0  0  0  0  0
    5.3959    2.8102    4.7427 I   0  0  0  0  0 15  0  0  0  0  0  0
    3.3418    5.6951    4.9407 As  0  0  0  0  0  0  0  0  0  0  0  0
    0.5372    4.6355    4.0824 O   0  0  0  0  0  1  0  0  0  0  0  0
    1.3030    1.8019    3.9072 O   0  0  0  0  0  0  0  0  0  0  0  0
    1.1228    5.2623    1.2927 O   0  0  0  0  0  0  0  0  0  0  0  0
    1.5223    4.2159    3.4883 C   0  0  0  0  0  0  0  0  0  0  0  0
    2.0474    2.6849    3.5739 C   0  0  0  0  0  0  0  0  0  0  0  0
    1.9563    4.7373    1.9782 C   0  0  0  0  0  0  0  0  0  0  0  0
    2.7204    5.0651    6.6780 C   0  0  0  0  0  0  0  0  0  0  0  0
    2.7491    5.9133    7.7843 C   0  0  0  0  0  0  0  0  0  0  0  0
    2.2942    5.4762    9.0142 C   0  0  0  0  0  0  0  0  0  0  0  0
    1.8089    4.1852    9.1550 C   0  0  0  0  0  0  0  0  0  0  0  0
    1.7852    3.3332    8.0658 C   0  0  0  0  0  0  0  0  0  0  0  0
    2.2416    3.7717    6.8338 C   0  0  0  0  0  0  0  0  0  0  0  0
    2.0618    7.1103    4.5381 C   0  0  0  0  0  0  0  0  0  0  0  0
    2.1252    7.6989    3.2774 C   0  0  0  0  0  0  0  0  0  0  0  0
    1.1872    8.6379    2.8884 C   0  0  0  0  0  0  0  0  0  0  0  0
    0.1666    8.9922    3.7535 C   0  0  0  0  0  0  0  0  0  0  0  0
    0.0917    8.4083    5.0063 C   0  0  0  0  0  0  0  0  0  0  0  0
    1.0327    7.4722    5.3976 C   0  0  0  0  0  0  0  0  0  0  0  0
    4.8504    6.7834    5.5944 C   0  0  0  0  0  0  0  0  0  0  0  0
    5.7417    6.2337    6.5139 C   0  0  0  0  0  0  0  0  0  0  0  0
    6.8558    6.9470    6.9173 C   0  0  0  0  0  0  0  0  0  0  0  0
    7.0953    8.2107    6.4037 C   0  0  0  0  0  0  0  0  0  0  0  0
    6.2180    8.7616    5.4853 C   0  0  0  0  0  0  0  0  0  0  0  0
    5.1032    8.0506    5.0776 C   0  0  0  0  0  0  0  0  0  0  0  0
    3.1377    6.9234    7.6666 H   0  0  0  0  0  0  0  0  0  0  0  0
    2.3176    6.1429    9.8651 H   0  0  0  0  0  0  0  0  0  0  0  0
    1.4530    3.8442   10.1165 H   0  0  0  0  0  0  0  0  0  0  0  0
    1.4133    2.3245    8.1699 H   0  0  0  0  0  0  0  0  0  0  0  0
    2.2155    3.0865    5.9905 H   0  0  0  0  0  0  0  0  0  0  0  0
    2.9088    7.4202    2.5754 H   0  0  0  0  0  0  0  0  0  0  0  0
    1.2460    9.0766    1.9028 H   0  0  0  0  0  0  0  0  0  0  0  0
   -0.5777    9.7127    3.4459 H   0  0  0  0  0  0  0  0  0  0  0  0
   -0.7138    8.6695    5.6786 H   0  0  0  0  0  0  0  0  0  0  0  0
    0.9489    6.9972    6.3687 H   0  0  0  0  0  0  0  0  0  0  0  0
    5.5613    5.2388    6.9116 H   0  0  0  0  0  0  0  0  0  0  0  0
    7.5434    6.5081    7.6252 H   0  0  0  0  0  0  0  0  0  0  0  0
    7.9706    8.7632    6.7129 H   0  0  0  0  0  0  0  0  0  0  0  0
    6.4067    9.7427    5.0745 H   0  0  0  0  0  0  0  0  0  0  0  0
    4.4256    8.4793    4.3452 H   0  0  0  0  0  0  0  0  0  0  0  0
  1  9  1  0  0  0  0
  1 10  1  0  0  0  0
  2  1  1  0  0  0  0
  3  1  1  0  0  0  0
  5 24  1  0  0  0  0
  5 12  1  0  0  0  0
  8 11  2  0  0  0  0
  9 10  1  0  0  0  0
  9  6  1  0  0  0  0
 10  7  2  0  0  0  0
 11  1  1  0  0  0  0
 11  9  1  0  0  0  0
 12 17  2  0  0  0  0
 12 13  1  0  0  0  0
 13 14  2  0  0  0  0
 14 15  1  0  0  0  0
 14 31  1  0  0  0  0
 15 32  1  0  0  0  0
 16 33  1  0  0  0  0
 16 15  2  0  0  0  0
 17 16  1  0  0  0  0
 18  5  1  0  0  0  0
 18 23  1  0  0  0  0
 19 18  2  0  0  0  0
 20 19  1  0  0  0  0
 20 21  2  0  0  0  0
 21 22  1  0  0  0  0
 22 23  2  0  0  0  0
 22 38  1  0  0  0  0
 23 39  1  0  0  0  0
 24 25  1  0  0  0  0
 25 40  1  0  0  0  0
 25 26  2  0  0  0  0
 26 41  1  0  0  0  0
 27 42  1  0  0  0  0
 27 26  1  0  0  0  0
 28 27  2  0  0  0  0
 29 28  1  0  0  0  0
 29 24  2  0  0  0  0
 30 13  1  0  0  0  0
 34 17  1  0  0  0  0
 35 19  1  0  0  0  0
 36 20  1  0  0  0  0
 37 21  1  0  0  0  0
 43 28  1  0  0  0  0
 44 29  1  0  0  0  0
M  END
$$$$
