CSD_code = SURFEQ | q = 0 | S = 0 | Stoichiometry = C21H21ClN3O3Re | MND = 6
 OpenBabel04212202103D

 50 53  0  0  0  0  0  0  0  0999 V2000
    2.2078   -0.7646    3.6885 Re  0  0  0  0  0  0  0  0  0  0  0  0
    4.1026   -1.9416    2.9237 Cl  0  0  0  0  0  0  0  0  0  0  0  0
    1.9833   -2.6539    6.1185 O   0  0  0  0  0  1  0  0  0  0  0  0
    0.3804   -2.4890    1.8961 O   0  0  0  0  0  1  0  0  0  0  0  0
    0.0256    1.2290    4.5895 O   0  0  0  0  0  1  0  0  0  0  0  0
    2.8317    0.5232    1.9525 N   0  0  0  0  0  0  0  0  0  0  0  0
    3.8512    0.4268    4.6548 N   0  0  0  0  0  0  0  0  0  0  0  0
    7.0676    2.8744    2.1345 N   0  0  0  0  0  2  0  0  0  0  0  0
    2.0074   -1.9404    5.2245 C   0  0  0  0  0  2  0  0  0  0  0  0
    1.0106   -1.8385    2.5956 C   0  0  0  0  0  2  0  0  0  0  0  0
    0.8176    0.4637    4.2620 C   0  0  0  0  0  2  0  0  0  0  0  0
    2.5282    0.6292    0.6592 C   0  0  0  0  0  3  0  0  0  0  0  0
    3.3602    1.2676   -0.2494 C   0  0  0  0  0  0  0  0  0  0  0  0
    4.5656    1.8472    0.1501 C   0  0  0  0  0  0  0  0  0  0  0  0
    4.8875    1.7679    1.4944 C   0  0  0  0  0  0  0  0  0  0  0  0
    6.0231    2.2025    2.3614 C   0  0  0  0  0  0  0  0  0  0  0  0
    5.7129    1.6882    3.7133 C   0  0  0  0  0  0  0  0  0  0  0  0
    6.3652    1.7094    4.9320 C   0  0  0  0  0  0  0  0  0  0  0  0
    5.7198    1.0770    5.9940 C   0  0  0  0  0  0  0  0  0  0  0  0
    4.4865    0.4582    5.8256 C   0  0  0  0  0  0  0  0  0  0  0  0
    4.4793    1.0315    3.6590 C   0  0  0  0  0  0  0  0  0  0  0  0
    3.9756    1.0812    2.3125 C   0  0  0  0  0  0  0  0  0  0  0  0
    7.4152    3.4212    0.8633 C   0  0  0  0  0  0  0  0  0  0  0  0
    8.5756    4.4014    1.0351 C   0  0  0  0  0  0  0  0  0  0  0  0
    9.8338    3.7026    1.5421 C   0  0  0  0  0  0  0  0  0  0  0  0
   10.9683    4.6891    1.8039 C   0  0  0  0  0  0  0  0  0  0  0  0
   12.2265    3.9940    2.3176 C   0  0  0  0  0  0  0  0  0  0  0  0
   13.3584    4.9819    2.5891 C   0  0  0  0  0  0  0  0  0  0  0  0
   14.6116    4.2831    3.1014 C   0  0  0  0  0  0  0  0  0  0  0  0
    1.5987    0.1772    0.3420 H   0  0  0  0  0  0  0  0  0  0  0  0
    3.0691    1.3025   -1.2875 H   0  0  0  0  0  0  0  0  0  0  0  0
    5.2063    2.3180   -0.5791 H   0  0  0  0  0  0  0  0  0  0  0  0
    7.3265    2.1829    5.0512 H   0  0  0  0  0  0  0  0  0  0  0  0
    6.1828    1.0530    6.9680 H   0  0  0  0  0  0  0  0  0  0  0  0
    3.9954   -0.0361    6.6525 H   0  0  0  0  0  0  0  0  0  0  0  0
    7.7218    2.6054    0.1954 H   0  0  0  0  0  0  0  0  0  0  0  0
    6.5592    3.9291    0.3979 H   0  0  0  0  0  0  0  0  0  0  0  0
    8.7763    4.8841    0.0765 H   0  0  0  0  0  0  0  0  0  0  0  0
    8.2776    5.1725    1.7477 H   0  0  0  0  0  0  0  0  0  0  0  0
    9.5878    3.1711    2.4628 H   0  0  0  0  0  0  0  0  0  0  0  0
   10.1591    2.9625    0.8068 H   0  0  0  0  0  0  0  0  0  0  0  0
   11.2033    5.2240    0.8802 H   0  0  0  0  0  0  0  0  0  0  0  0
   10.6405    5.4290    2.5379 H   0  0  0  0  0  0  0  0  0  0  0  0
   11.9905    3.4550    3.2382 H   0  0  0  0  0  0  0  0  0  0  0  0
   12.5598    3.2584    1.5816 H   0  0  0  0  0  0  0  0  0  0  0  0
   13.5944    5.5214    1.6689 H   0  0  0  0  0  0  0  0  0  0  0  0
   13.0260    5.7167    3.3260 H   0  0  0  0  0  0  0  0  0  0  0  0
   14.9715    3.5616    2.3712 H   0  0  0  0  0  0  0  0  0  0  0  0
   15.4033    5.0044    3.2898 H   0  0  0  0  0  0  0  0  0  0  0  0
   14.4015    3.7542    4.0286 H   0  0  0  0  0  0  0  0  0  0  0  0
  1 11  1  0  0  0  0
  1  7  1  0  0  0  0
  1  9  1  0  0  0  0
  2  1  1  0  0  0  0
  4 10  1  0  0  0  0
  6 22  1  0  0  0  0
  6  1  1  0  0  0  0
  7 20  1  0  0  0  0
  8 16  1  0  0  0  0
  9  3  1  0  0  0  0
 10  1  1  0  0  0  0
 11  5  1  0  0  0  0
 12  6  1  0  0  0  0
 13 14  2  0  0  0  0
 13 12  1  0  0  0  0
 14 15  1  0  0  0  0
 15 22  1  0  0  0  0
 15 16  2  0  0  0  0
 16 17  1  0  0  0  0
 17 18  2  0  0  0  0
 18 33  1  0  0  0  0
 18 19  1  0  0  0  0
 19 34  1  0  0  0  0
 20 19  2  0  0  0  0
 20 35  1  0  0  0  0
 21 17  1  0  0  0  0
 21  7  1  0  0  0  0
 22 21  2  0  0  0  0
 23 24  1  0  0  0  0
 23  8  1  0  0  0  0
 24 25  1  0  0  0  0
 24 39  1  0  0  0  0
 25 26  1  0  0  0  0
 25 40  1  0  0  0  0
 26 27  1  0  0  0  0
 26 43  1  0  0  0  0
 27 28  1  0  0  0  0
 27 44  1  0  0  0  0
 28 29  1  0  0  0  0
 28 47  1  0  0  0  0
 29 49  1  0  0  0  0
 29 50  1  0  0  0  0
 30 12  1  0  0  0  0
 31 13  1  0  0  0  0
 32 14  1  0  0  0  0
 36 23  1  0  0  0  0
 37 23  1  0  0  0  0
 38 24  1  0  0  0  0
 41 25  1  0  0  0  0
 42 26  1  0  0  0  0
 45 27  1  0  0  0  0
 46 28  1  0  0  0  0
 48 29  1  0  0  0  0
M  END
$$$$
