CSD_code = SURKAS | q = 0 | S = 0 | Stoichiometry = C18H33AuBr3P | MND = 4
 OpenBabel04212202103D

 56 58  0  0  0  0  0  0  0  0999 V2000
  -14.1400   12.3432   -0.1820 Au  0  0  0  0  0  0  0  0  0  0  0  0
  -14.2316   14.7814   -0.2460 Br  0  0  0  0  0  0  0  0  0  0  0  0
  -16.4257   12.3432    0.7573 Br  0  0  0  0  0  0  0  0  0  0  0  0
  -11.9512   12.3431   -1.0846 P   0  0  0  0  0  4  0  0  0  0  0  0
  -12.0982   12.3431   -2.9287 C   0  0  0  0  0  0  0  0  0  0  0  0
  -11.0704   12.3431   -3.3191 H   0  0  0  0  0  0  0  0  0  0  0  0
  -12.8226   11.0907   -3.4278 C   0  0  0  0  0  0  0  0  0  0  0  0
  -12.3206   10.1835   -3.0860 H   0  0  0  0  0  0  0  0  0  0  0  0
  -13.8433   11.0751   -3.0356 H   0  0  0  0  0  0  0  0  0  0  0  0
  -12.8804   11.0920   -4.9535 C   0  0  0  0  0  0  0  0  0  0  0  0
  -11.8646   11.0566   -5.3557 H   0  0  0  0  0  0  0  0  0  0  0  0
  -13.4063   10.1987   -5.2934 H   0  0  0  0  0  0  0  0  0  0  0  0
  -13.5875   12.3431   -5.4636 C   0  0  0  0  0  0  0  0  0  0  0  0
  -14.6224   12.3431   -5.1150 H   0  0  0  0  0  0  0  0  0  0  0  0
  -13.6031   12.3431   -6.5545 H   0  0  0  0  0  0  0  0  0  0  0  0
  -11.0177   10.8027   -0.6573 C   0  0  0  0  0  0  0  0  0  0  0  0
  -11.6869   10.0082   -1.0158 H   0  0  0  0  0  0  0  0  0  0  0  0
  -10.8702   10.6128    0.8529 C   0  0  0  0  0  0  0  0  0  0  0  0
  -11.8205   10.8018    1.3606 H   0  0  0  0  0  0  0  0  0  0  0  0
  -10.1293   11.3064    1.2537 H   0  0  0  0  0  0  0  0  0  0  0  0
  -10.4126    9.1822    1.1255 C   0  0  0  0  0  0  0  0  0  0  0  0
  -10.3008    9.0317    2.2003 H   0  0  0  0  0  0  0  0  0  0  0  0
  -11.1751    8.4882    0.7671 H   0  0  0  0  0  0  0  0  0  0  0  0
   -9.0866    8.9099    0.4204 C   0  0  0  0  0  0  0  0  0  0  0  0
   -8.3114    9.5543    0.8430 H   0  0  0  0  0  0  0  0  0  0  0  0
   -8.7857    7.8750    0.5881 H   0  0  0  0  0  0  0  0  0  0  0  0
   -9.2022    9.1744   -1.0784 C   0  0  0  0  0  0  0  0  0  0  0  0
   -9.9185    8.4756   -1.5155 H   0  0  0  0  0  0  0  0  0  0  0  0
   -8.2365    9.0113   -1.5610 H   0  0  0  0  0  0  0  0  0  0  0  0
   -9.6660   10.6076   -1.3419 C   0  0  0  0  0  0  0  0  0  0  0  0
   -9.7384   10.7776   -2.4178 H   0  0  0  0  0  0  0  0  0  0  0  0
   -8.9270   11.2982   -0.9338 H   0  0  0  0  0  0  0  0  0  0  0  0
  -14.2315    9.9047   -0.2461 Br  0  0  0  0  0  0  0  0  0  0  0  0
  -12.8226   13.5956   -3.4278 C   0  0  0  0  0  0  0  0  0  0  0  0
  -12.3207   14.5027   -3.0860 H   0  0  0  0  0  0  0  0  0  0  0  0
  -13.8433   13.6111   -3.0356 H   0  0  0  0  0  0  0  0  0  0  0  0
  -12.8804   13.5942   -4.9535 C   0  0  0  0  0  0  0  0  0  0  0  0
  -11.8646   13.6296   -5.3557 H   0  0  0  0  0  0  0  0  0  0  0  0
  -13.4063   14.4875   -5.2934 H   0  0  0  0  0  0  0  0  0  0  0  0
  -11.0177   13.8835   -0.6573 C   0  0  0  0  0  0  0  0  0  0  0  0
  -11.6869   14.6781   -1.0158 H   0  0  0  0  0  0  0  0  0  0  0  0
  -10.8702   14.0734    0.8529 C   0  0  0  0  0  0  0  0  0  0  0  0
  -11.8205   13.8845    1.3606 H   0  0  0  0  0  0  0  0  0  0  0  0
  -10.1293   13.3798    1.2537 H   0  0  0  0  0  0  0  0  0  0  0  0
  -10.4126   15.5040    1.1255 C   0  0  0  0  0  0  0  0  0  0  0  0
  -10.3008   15.6545    2.2003 H   0  0  0  0  0  0  0  0  0  0  0  0
  -11.1751   16.1981    0.7671 H   0  0  0  0  0  0  0  0  0  0  0  0
   -9.0866   15.7764    0.4204 C   0  0  0  0  0  0  0  0  0  0  0  0
   -8.3114   15.1320    0.8430 H   0  0  0  0  0  0  0  0  0  0  0  0
   -8.7857   16.8112    0.5881 H   0  0  0  0  0  0  0  0  0  0  0  0
   -9.2022   15.5119   -1.0784 C   0  0  0  0  0  0  0  0  0  0  0  0
   -9.9185   16.2106   -1.5155 H   0  0  0  0  0  0  0  0  0  0  0  0
   -8.2366   15.6750   -1.5610 H   0  0  0  0  0  0  0  0  0  0  0  0
   -9.6660   14.0787   -1.3419 C   0  0  0  0  0  0  0  0  0  0  0  0
   -9.7385   13.9087   -2.4178 H   0  0  0  0  0  0  0  0  0  0  0  0
   -8.9270   13.3881   -0.9338 H   0  0  0  0  0  0  0  0  0  0  0  0
  1  3  1  0  0  0  0
  2  1  1  0  0  0  0
  4 40  1  0  0  0  0
  4 16  1  0  0  0  0
  4  1  1  0  0  0  0
  5  4  1  0  0  0  0
  6  5  1  0  0  0  0
  7  8  1  0  0  0  0
  7  9  1  0  0  0  0
  7  5  1  0  0  0  0
 10  7  1  0  0  0  0
 11 10  1  0  0  0  0
 12 10  1  0  0  0  0
 13 14  1  0  0  0  0
 13 10  1  0  0  0  0
 13 37  1  0  0  0  0
 15 13  1  0  0  0  0
 16 18  1  0  0  0  0
 17 16  1  0  0  0  0
 18 21  1  0  0  0  0
 18 20  1  0  0  0  0
 18 19  1  0  0  0  0
 21 22  1  0  0  0  0
 23 21  1  0  0  0  0
 24 26  1  0  0  0  0
 24 25  1  0  0  0  0
 24 21  1  0  0  0  0
 27 24  1  0  0  0  0
 28 27  1  0  0  0  0
 29 27  1  0  0  0  0
 30 27  1  0  0  0  0
 30 32  1  0  0  0  0
 30 16  1  0  0  0  0
 31 30  1  0  0  0  0
 33  1  1  0  0  0  0
 34 35  1  0  0  0  0
 34 36  1  0  0  0  0
 34  5  1  0  0  0  0
 37 34  1  0  0  0  0
 38 37  1  0  0  0  0
 39 37  1  0  0  0  0
 40 42  1  0  0  0  0
 41 40  1  0  0  0  0
 42 45  1  0  0  0  0
 42 44  1  0  0  0  0
 42 43  1  0  0  0  0
 45 46  1  0  0  0  0
 47 45  1  0  0  0  0
 48 50  1  0  0  0  0
 48 49  1  0  0  0  0
 48 45  1  0  0  0  0
 51 48  1  0  0  0  0
 52 51  1  0  0  0  0
 53 51  1  0  0  0  0
 54 51  1  0  0  0  0
 54 56  1  0  0  0  0
 54 40  1  0  0  0  0
 55 54  1  0  0  0  0
M  END
$$$$
