CSD_code = SUSPEB | q = 1 | S = 0 | Stoichiometry = C23H26ClN2Ru(1+) | MND = 9
 OpenBabel04212202103D

 53 55  0  0  1  0  0  0  0  0999 V2000
   11.0588   -1.1762    1.1515 Ru  0  0  0  0  0  0  0  0  0  0  0  0
   12.9567   -2.4846    1.4710 Cl  0  0  0  0  0 15  0  0  0  0  0  0
   11.5033   -0.5159    2.9638 N   0  0  0  0  0  0  0  0  0  0  0  0
   10.0523   -2.4464    2.2789 N   0  0  0  0  0  0  0  0  0  0  0  0
   12.3765    0.4521    3.2269 C   0  0  0  0  0  3  0  0  0  0  0  0
   12.7366    0.7982    4.5154 C   0  0  0  0  0  0  0  0  0  0  0  0
   12.1820    0.1044    5.5877 C   0  0  0  0  0  0  0  0  0  0  0  0
   11.3034   -0.9265    5.3247 C   0  0  0  0  0  0  0  0  0  0  0  0
   10.9874   -1.2243    3.9974 C   0  0  0  0  0  0  0  0  0  0  0  0
   10.1527   -2.3031    3.5583 C   0  0  0  0  0  3  0  0  0  0  0  0
    9.2984   -3.5428    1.6939 C   0  0  1  0  0  0  0  0  0  0  0  0
   10.2605   -4.4123    0.8734 C   0  0  0  0  0  0  0  0  0  0  0  0
    8.5181   -4.3780    2.6884 C   0  0  0  0  0  0  0  0  0  0  0  0
    9.1541   -5.2667    3.5498 C   0  0  0  0  0  0  0  0  0  0  0  0
    8.4153   -6.0356    4.4314 C   0  0  0  0  0  0  0  0  0  0  0  0
    7.0350   -5.9273    4.4639 C   0  0  0  0  0  0  0  0  0  0  0  0
    6.3954   -5.0430    3.6129 C   0  0  0  0  0  0  0  0  0  0  0  0
    7.1340   -4.2715    2.7321 C   0  0  0  0  0  0  0  0  0  0  0  0
    9.6433   -1.1651   -0.8567 C   0  0  0  0  0  0  0  0  0  0  0  0
    9.3944   -0.0737    0.0192 C   0  0  0  0  0  3  0  0  0  0  0  0
   10.4185    0.8456    0.3458 C   0  0  2  0  0  0  0  0  0  0  0  0
   11.7244    0.6238   -0.1682 C   0  0  0  0  0  0  0  0  0  0  0  0
   12.0190   -0.5107   -0.9372 C   0  0  0  0  0  0  0  0  0  0  0  0
   10.9608   -1.4109   -1.2610 C   0  0  0  0  0  0  0  0  0  0  0  0
    8.5101   -1.9611   -1.4251 C   0  0  0  0  0  0  0  0  0  0  0  0
   10.0869    2.1157    1.0680 C   0  0  0  0  0  0  0  0  0  0  0  0
   13.3887   -0.7514   -1.4806 C   0  0  0  0  0  0  0  0  0  0  0  0
   12.8210    0.9537    2.3776 H   0  0  0  0  0  0  0  0  0  0  0  0
   13.4479    1.5913    4.6776 H   0  0  0  0  0  0  0  0  0  0  0  0
   12.4500    0.3562    6.6010 H   0  0  0  0  0  0  0  0  0  0  0  0
   10.8703   -1.5167    6.1161 H   0  0  0  0  0  0  0  0  0  0  0  0
    9.6542   -2.9578    4.2638 H   0  0  0  0  0  0  0  0  0  0  0  0
    8.5783   -3.0802    1.0055 H   0  0  0  0  0  0  0  0  0  0  0  0
   10.7809   -3.8133    0.1269 H   0  0  0  0  0  0  0  0  0  0  0  0
   11.0082   -4.8651    1.5180 H   0  0  0  0  0  0  0  0  0  0  0  0
    9.7010   -5.2005    0.3775 H   0  0  0  0  0  0  0  0  0  0  0  0
   10.2296   -5.3624    3.5348 H   0  0  0  0  0  0  0  0  0  0  0  0
    8.9202   -6.7243    5.0912 H   0  0  0  0  0  0  0  0  0  0  0  0
    6.4606   -6.5319    5.1481 H   0  0  0  0  0  0  0  0  0  0  0  0
    5.3203   -4.9543    3.6306 H   0  0  0  0  0  0  0  0  0  0  0  0
    6.6259   -3.5865    2.0678 H   0  0  0  0  0  0  0  0  0  0  0  0
    8.3714    0.1559    0.3009 H   0  0  0  0  0  0  0  0  0  0  0  0
   12.4856    1.3841   -0.0295 H   0  0  0  0  0  0  0  0  0  0  0  0
   11.1648   -2.2242   -1.9493 H   0  0  0  0  0  0  0  0  0  0  0  0
    8.2691   -1.5576   -2.4104 H   0  0  0  0  0  0  0  0  0  0  0  0
    8.7762   -3.0075   -1.5566 H   0  0  0  0  0  0  0  0  0  0  0  0
    7.6146   -1.8867   -0.8125 H   0  0  0  0  0  0  0  0  0  0  0  0
    9.7585    2.8610    0.3417 H   0  0  0  0  0  0  0  0  0  0  0  0
    9.2786    1.9650    1.7812 H   0  0  0  0  0  0  0  0  0  0  0  0
   10.9496    2.5204    1.5921 H   0  0  0  0  0  0  0  0  0  0  0  0
   13.3383   -1.0956   -2.5117 H   0  0  0  0  0  0  0  0  0  0  0  0
   13.9986    0.1469   -1.4300 H   0  0  0  0  0  0  0  0  0  0  0  0
   13.8808   -1.5313   -0.8939 H   0  0  0  0  0  0  0  0  0  0  0  0
  1  4  1  0  0  0  0
  1  3  1  0  0  0  0
  3  5  1  0  0  0  0
  3  9  1  0  0  0  0
  4 10  1  0  0  0  0
  5  6  1  0  0  0  0
  6 29  1  0  0  0  0
  6  7  2  0  0  0  0
  7 30  1  0  0  0  0
  8  7  1  0  0  0  0
  8 31  1  0  0  0  0
  9  8  2  0  0  0  0
 10  9  1  0  0  0  0
 10 32  1  0  0  0  0
 11 33  1  6  0  0  0
 11  4  1  0  0  0  0
 11 13  1  0  0  0  0
 12 35  1  0  0  0  0
 12 11  1  0  0  0  0
 13 18  2  0  0  0  0
 13 14  1  0  0  0  0
 14 15  2  0  0  0  0
 15 16  1  0  0  0  0
 15 38  1  0  0  0  0
 16 39  1  0  0  0  0
 17 40  1  0  0  0  0
 17 16  2  0  0  0  0
 18 17  1  0  0  0  0
 19 20  1  0  0  0  0
 20 42  1  0  0  0  0
 20 21  1  0  0  0  0
 21 26  1  1  0  0  0
 21  1  1  0  0  0  0
 22 43  1  0  0  0  0
 22 21  1  0  0  0  0
 23 22  2  0  0  0  0
 24 23  1  0  0  0  0
 24 19  2  0  0  0  0
 25 19  1  0  0  0  0
 25 47  1  0  0  0  0
 26 50  1  0  0  0  0
 26 49  1  0  0  0  0
 27 52  1  0  0  0  0
 27 23  1  0  0  0  0
 27 53  1  0  0  0  0
 28  5  1  0  0  0  0
 34 12  1  0  0  0  0
 36 12  1  0  0  0  0
 37 14  1  0  0  0  0
 41 18  1  0  0  0  0
 44 24  1  0  0  0  0
 45 25  1  0  0  0  0
 46 25  1  0  0  0  0
 48 26  1  0  0  0  0
 51 27  1  0  0  0  0
M  END
$$$$
