CSD_code = SUSTAB | q = 1 | S = 0 | Stoichiometry = C28H24Cl2N4OsP(1+) | MND = 6
 OpenBabel04212202103D

 60 66  0  0  1  0  0  0  0  0999 V2000
    5.3878    2.5362    2.9051 Os  0  0  0  0  0  0  0  0  0  0  0  0
    6.6760    0.6775    3.0571 Cl  0  0  0  0  0  0  0  0  0  0  0  0
    4.6795    2.3082    5.1035 Cl  0  0  0  0  0  0  0  0  0  0  0  0
    3.1417    4.5716    3.8207 P   0  0  0  0  0  4  0  0  0  0  0  0
    4.3342    4.0839    2.8676 N   0  0  0  0  0  2  0  0  0  0  0  0
    3.7241    5.4140    5.3299 C   0  0  0  0  0  0  0  0  0  0  0  0
    1.8311    3.3698    4.2066 C   0  0  0  0  0  0  0  0  0  0  0  0
    1.0998    2.9167    3.1125 C   0  0  0  0  0  0  0  0  0  0  0  0
    0.0735    2.0085    3.2977 C   0  0  0  0  0  0  0  0  0  0  0  0
   -0.2171    1.5502    4.5733 C   0  0  0  0  0  0  0  0  0  0  0  0
    0.5166    1.9998    5.6603 C   0  0  0  0  0  0  0  0  0  0  0  0
    1.5444    2.9101    5.4837 C   0  0  0  0  0  0  0  0  0  0  0  0
    2.2598    5.8731    2.9093 C   0  0  0  0  0  0  0  0  0  0  0  0
    2.8284    6.4306    1.7739 C   0  0  0  0  0  0  0  0  0  0  0  0
    2.1692    7.4458    1.1030 C   0  0  0  0  0  0  0  0  0  0  0  0
    0.9468    7.9022    1.5687 C   0  0  0  0  0  0  0  0  0  0  0  0
    0.3788    7.3445    2.7042 C   0  0  0  0  0  0  0  0  0  0  0  0
    1.0333    6.3288    3.3763 C   0  0  0  0  0  0  0  0  0  0  0  0
    7.0678    3.6427    3.1681 N   0  0  0  0  0  0  0  0  0  0  0  0
    8.8150    4.7349    4.3569 C   0  0  0  0  0  0  0  0  0  0  0  0
    7.6235    4.0363    4.3114 C   0  0  0  0  0  3  0  0  0  0  0  0
    9.4570    5.0408    3.1621 C   0  0  0  0  0  0  0  0  0  0  0  0
    8.8854    4.6328    1.9719 C   0  0  0  0  0  0  0  0  0  0  0  0
    7.6839    3.9246    1.9889 C   0  0  0  0  0  0  0  0  0  0  0  0
    5.9017    2.7139    1.0827 N   0  0  0  0  0  0  0  0  0  0  0  0
    7.0179    3.4057    0.7982 C   0  0  2  0  0  3  0  0  0  0  0  0
    7.4358    3.5301   -0.5265 C   0  0  0  0  0  0  0  0  0  0  0  0
    6.6873    2.9239   -1.5216 C   0  0  0  0  0  0  0  0  0  0  0  0
    5.5549    2.1834   -1.1946 C   0  0  0  0  0  0  0  0  0  0  0  0
    5.1795    2.0840    0.1386 C   0  0  0  0  0  0  0  0  0  0  0  0
    3.9227    1.3013    2.0259 N   0  0  0  0  0  0  0  0  0  0  0  0
    4.0643    1.2878    0.6769 C   0  0  2  0  0  3  0  0  0  0  0  0
    3.2177    0.5098   -0.1075 C   0  0  0  0  0  0  0  0  0  0  0  0
    2.2483   -0.2726    0.5005 C   0  0  0  0  0  0  0  0  0  0  0  0
    2.1446   -0.2673    1.8823 C   0  0  0  0  0  0  0  0  0  0  0  0
    3.0042    0.5444    2.6064 C   0  0  0  0  0  0  0  0  0  0  0  0
    2.8752    5.9148    5.7916 H   0  0  0  0  0  0  0  0  0  0  0  0
    4.1706    4.6907    6.0076 H   0  0  0  0  0  0  0  0  0  0  0  0
    4.4650    6.1497    5.0182 H   0  0  0  0  0  0  0  0  0  0  0  0
    1.3366    3.2956    2.1249 H   0  0  0  0  0  0  0  0  0  0  0  0
   -0.5024    1.6645    2.4513 H   0  0  0  0  0  0  0  0  0  0  0  0
   -1.0197    0.8439    4.7213 H   0  0  0  0  0  0  0  0  0  0  0  0
    0.2862    1.6408    6.6515 H   0  0  0  0  0  0  0  0  0  0  0  0
    2.1259    3.2489    6.3259 H   0  0  0  0  0  0  0  0  0  0  0  0
    3.7828    6.0555    1.4313 H   0  0  0  0  0  0  0  0  0  0  0  0
    2.6077    7.8822    0.2184 H   0  0  0  0  0  0  0  0  0  0  0  0
    0.4331    8.6945    1.0460 H   0  0  0  0  0  0  0  0  0  0  0  0
   -0.5732    7.7030    3.0644 H   0  0  0  0  0  0  0  0  0  0  0  0
    0.5953    5.8823    4.2589 H   0  0  0  0  0  0  0  0  0  0  0  0
    9.2323    5.0282    5.3060 H   0  0  0  0  0  0  0  0  0  0  0  0
    7.0881    3.7685    5.2153 H   0  0  0  0  0  0  0  0  0  0  0  0
   10.3900    5.5819    3.1624 H   0  0  0  0  0  0  0  0  0  0  0  0
    9.3677    4.8501    1.0330 H   0  0  0  0  0  0  0  0  0  0  0  0
    8.3268    4.0815   -0.7757 H   0  0  0  0  0  0  0  0  0  0  0  0
    6.9904    3.0103   -2.5527 H   0  0  0  0  0  0  0  0  0  0  0  0
    4.9908    1.6926   -1.9698 H   0  0  0  0  0  0  0  0  0  0  0  0
    3.3225    0.5055   -1.1800 H   0  0  0  0  0  0  0  0  0  0  0  0
    1.5937   -0.8862   -0.0990 H   0  0  0  0  0  0  0  0  0  0  0  0
    1.4195   -0.8766    2.3956 H   0  0  0  0  0  0  0  0  0  0  0  0
    2.9670    0.5847    3.6881 H   0  0  0  0  0  0  0  0  0  0  0  0
  1  2  1  0  0  0  0
  1 19  1  0  0  0  0
  1  3  1  0  0  0  0
  4  7  1  0  0  0  0
  4  6  1  0  0  0  0
  5  1  1  0  0  0  0
  5  4  1  0  0  0  0
  6 37  1  0  0  0  0
  6 38  1  0  0  0  0
  7 12  1  0  0  0  0
  8  9  1  0  0  0  0
  8  7  2  0  0  0  0
  9 10  2  0  0  0  0
 10 42  1  0  0  0  0
 10 11  1  0  0  0  0
 11 43  1  0  0  0  0
 12 11  2  0  0  0  0
 12 44  1  0  0  0  0
 13 18  1  0  0  0  0
 13  4  1  0  0  0  0
 14 13  2  0  0  0  0
 15 16  2  0  0  0  0
 15 14  1  0  0  0  0
 16 17  1  0  0  0  0
 17 48  1  0  0  0  0
 17 18  2  0  0  0  0
 18 49  1  0  0  0  0
 19 21  1  0  0  0  0
 20 50  1  0  0  0  0
 21 20  1  0  0  0  0
 21 51  1  0  0  0  0
 22 52  1  0  0  0  0
 22 20  2  0  0  0  0
 23 24  2  0  0  0  0
 23 22  1  0  0  0  0
 24 19  1  0  0  0  0
 25  1  1  0  0  0  0
 26 27  1  1  0  0  0
 26 25  1  0  0  0  0
 26 24  1  0  0  0  0
 28 29  1  0  0  0  0
 28 27  2  0  0  0  0
 29 30  2  0  0  0  0
 30 32  1  0  0  0  0
 30 25  1  0  0  0  0
 31 36  1  0  0  0  0
 31  1  1  0  0  0  0
 32 33  1  1  0  0  0
 32 31  1  0  0  0  0
 33 34  2  0  0  0  0
 34 35  1  0  0  0  0
 35 59  1  0  0  0  0
 35 36  2  0  0  0  0
 36 60  1  0  0  0  0
 39  6  1  0  0  0  0
 40  8  1  0  0  0  0
 41  9  1  0  0  0  0
 45 14  1  0  0  0  0
 46 15  1  0  0  0  0
 47 16  1  0  0  0  0
 53 23  1  0  0  0  0
 54 27  1  0  0  0  0
 55 28  1  0  0  0  0
 56 29  1  0  0  0  0
 57 33  1  0  0  0  0
 58 34  1  0  0  0  0
M  END
$$$$
