CSD_code = SUTNUQ | q = 0 | S = 0 | Stoichiometry = C10H26Cl2N2NiO2 | MND = 6
 OpenBabel04212202103D

 43 40  0  0  1  0  0  0  0  0999 V2000
    9.6006    1.6843    3.0194 Ni  0  0  0  0  0  0  0  0  0  0  0  0
    7.9162    2.3806    2.0804 Cl  0  0  0  0  0  0  0  0  0  0  0  0
    8.5255    0.3705    4.1967 Cl  0  0  0  0  0  0  0  0  0  0  0  0
   11.4292    0.7000    3.7192 O   0  0  0  0  0  0  0  0  0  0  0  0
   10.8281    3.2345    2.1852 O   0  0  0  0  0  0  0  0  0  0  0  0
   10.3049    0.1943    1.1767 N   0  0  0  0  0  0  0  0  0  0  0  0
    9.7357    3.4165    4.7717 N   0  0  0  0  0  0  0  0  0  0  0  0
   11.6019   -0.5892    3.1306 C   0  0  1  0  0  0  0  0  0  0  0  0
   11.5670   -0.4048    1.6090 C   0  0  0  0  0  0  0  0  0  0  0  0
   12.9249   -1.2011    3.5872 C   0  0  0  0  0  0  0  0  0  0  0  0
    9.2544   -0.8190    1.0789 C   0  0  0  0  0  0  0  0  0  0  0  0
   10.4499    0.8238   -0.1313 C   0  0  0  0  0  0  0  0  0  0  0  0
   11.2929    4.2682    3.0399 C   0  0  2  0  0  0  0  0  0  0  0  0
   10.1435    4.5893    3.9992 C   0  0  0  0  0  0  0  0  0  0  0  0
   11.6840    5.4955    2.2190 C   0  0  0  0  0  0  0  0  0  0  0  0
    8.3981    3.6317    5.3231 C   0  0  0  0  0  0  0  0  0  0  0  0
   10.6605    3.1641    5.8699 C   0  0  0  0  0  0  0  0  0  0  0  0
   11.1330    0.5701    4.6314 H   0  0  0  0  0  0  0  0  0  0  0  0
   11.5541    2.9101    1.6433 H   0  0  0  0  0  0  0  0  0  0  0  0
   10.7725   -1.2381    3.4380 H   0  0  0  0  0  0  0  0  0  0  0  0
   12.3863    0.2693    1.3402 H   0  0  0  0  0  0  0  0  0  0  0  0
   11.7441   -1.3754    1.1197 H   0  0  0  0  0  0  0  0  0  0  0  0
   13.7558   -0.5576    3.3061 H   0  0  0  0  0  0  0  0  0  0  0  0
   12.9313   -1.3241    4.6681 H   0  0  0  0  0  0  0  0  0  0  0  0
   13.0634   -2.1755    3.1278 H   0  0  0  0  0  0  0  0  0  0  0  0
    8.3235   -0.3325    0.7926 H   0  0  0  0  0  0  0  0  0  0  0  0
    9.5097   -1.5840    0.3298 H   0  0  0  0  0  0  0  0  0  0  0  0
    9.0980   -1.2998    2.0418 H   0  0  0  0  0  0  0  0  0  0  0  0
   11.2664    1.5455   -0.1226 H   0  0  0  0  0  0  0  0  0  0  0  0
    9.5278    1.3508   -0.3700 H   0  0  0  0  0  0  0  0  0  0  0  0
   10.6528    0.0811   -0.9174 H   0  0  0  0  0  0  0  0  0  0  0  0
   12.1690    3.9140    3.6054 H   0  0  0  0  0  0  0  0  0  0  0  0
    9.2929    4.8945    3.3849 H   0  0  0  0  0  0  0  0  0  0  0  0
   10.4322    5.4259    4.6562 H   0  0  0  0  0  0  0  0  0  0  0  0
   11.9890    6.3061    2.8741 H   0  0  0  0  0  0  0  0  0  0  0  0
   10.8358    5.8219    1.6228 H   0  0  0  0  0  0  0  0  0  0  0  0
   12.5104    5.2620    1.5501 H   0  0  0  0  0  0  0  0  0  0  0  0
    7.6880    3.7709    4.5099 H   0  0  0  0  0  0  0  0  0  0  0  0
    8.3731    4.5082    5.9864 H   0  0  0  0  0  0  0  0  0  0  0  0
    8.0995    2.7492    5.8860 H   0  0  0  0  0  0  0  0  0  0  0  0
   11.6613    2.9636    5.4908 H   0  0  0  0  0  0  0  0  0  0  0  0
   10.3184    2.2938    6.4282 H   0  0  0  0  0  0  0  0  0  0  0  0
   10.7120    4.0222    6.5580 H   0  0  0  0  0  0  0  0  0  0  0  0
  1  3  1  0  0  0  0
  2  1  1  0  0  0  0
  4 18  1  0  0  0  0
  5 13  1  0  0  0  0
  6  9  1  0  0  0  0
  7 16  1  0  0  0  0
  7 17  1  0  0  0  0
  8 20  1  1  0  0  0
  8 10  1  0  0  0  0
  8  4  1  0  0  0  0
  9  8  1  0  0  0  0
 10 24  1  0  0  0  0
 11  6  1  0  0  0  0
 11 28  1  0  0  0  0
 12 29  1  0  0  0  0
 12  6  1  0  0  0  0
 13 32  1  1  0  0  0
 13 14  1  0  0  0  0
 14 34  1  0  0  0  0
 14  7  1  0  0  0  0
 15 35  1  0  0  0  0
 15 13  1  0  0  0  0
 16 40  1  0  0  0  0
 16 39  1  0  0  0  0
 17 42  1  0  0  0  0
 17 43  1  0  0  0  0
 19  5  1  0  0  0  0
 21  9  1  0  0  0  0
 22  9  1  0  0  0  0
 23 10  1  0  0  0  0
 25 10  1  0  0  0  0
 26 11  1  0  0  0  0
 27 11  1  0  0  0  0
 30 12  1  0  0  0  0
 31 12  1  0  0  0  0
 33 14  1  0  0  0  0
 36 15  1  0  0  0  0
 37 15  1  0  0  0  0
 38 16  1  0  0  0  0
 41 17  1  0  0  0  0
M  END
$$$$
