CSD_code = SUTRII | q = 0 | S = 0 | Stoichiometry = C6H9Cl2O3OsP | MND = 6
 OpenBabel04212202103D

 22 21  0  0  0  0  0  0  0  0999 V2000
    3.1258    2.6246    4.1335 Os  0  0  0  0  0  0  0  0  0  0  0  0
    1.2027    4.0148    4.0748 Cl  0  0  0  0  0  0  0  0  0  0  0  0
    2.2246    1.3057    5.8873 Cl  0  0  0  0  0  0  0  0  0  0  0  0
    3.8004    3.9779    5.9808 P   0  0  0  0  0  4  0  0  0  0  0  0
    5.4367    0.6830    4.4399 O   0  0  0  0  0  1  0  0  0  0  0  0
    4.0378    4.5889    2.0088 O   0  0  0  0  0  1  0  0  0  0  0  0
    1.1201    0.9839    2.5503 O   0  0  0  0  0  1  0  0  0  0  0  0
    4.6009    1.4421    4.2776 C   0  0  0  0  0  2  0  0  0  0  0  0
    3.7514    3.8113    2.7920 C   0  0  0  0  0  2  0  0  0  0  0  0
    1.9780    1.5512    3.0244 C   0  0  0  0  0  2  0  0  0  0  0  0
    4.5398    5.6056    5.5936 C   0  0  0  0  0  0  0  0  0  0  0  0
    5.0198    3.2179    7.1073 C   0  0  0  0  0  0  0  0  0  0  0  0
    2.4505    4.4274    7.1110 C   0  0  0  0  0  0  0  0  0  0  0  0
    3.8275    6.1805    5.0024 H   0  0  0  0  0  0  0  0  0  0  0  0
    4.7640    6.1427    6.5147 H   0  0  0  0  0  0  0  0  0  0  0  0
    5.4536    5.4716    5.0164 H   0  0  0  0  0  0  0  0  0  0  0  0
    5.9568    3.0428    6.5805 H   0  0  0  0  0  0  0  0  0  0  0  0
    5.1953    3.8745    7.9592 H   0  0  0  0  0  0  0  0  0  0  0  0
    4.6207    2.2653    7.4548 H   0  0  0  0  0  0  0  0  0  0  0  0
    1.9924    3.5162    7.4940 H   0  0  0  0  0  0  0  0  0  0  0  0
    2.8559    5.0216    7.9311 H   0  0  0  0  0  0  0  0  0  0  0  0
    1.7002    4.9971    6.5643 H   0  0  0  0  0  0  0  0  0  0  0  0
  1  8  1  0  0  0  0
  1  3  1  0  0  0  0
  1  4  1  0  0  0  0
  2  1  1  0  0  0  0
  4 12  1  0  0  0  0
  4 13  1  0  0  0  0
  6  9  1  0  0  0  0
  7 10  1  0  0  0  0
  8  5  1  0  0  0  0
  9  1  1  0  0  0  0
 10  1  1  0  0  0  0
 11  4  1  0  0  0  0
 11 15  1  0  0  0  0
 12 19  1  0  0  0  0
 12 18  1  0  0  0  0
 13 20  1  0  0  0  0
 13 21  1  0  0  0  0
 14 11  1  0  0  0  0
 16 11  1  0  0  0  0
 17 12  1  0  0  0  0
 22 13  1  0  0  0  0
M  END
$$$$
