CSD_code = SUVYUF | q = 0 | S = 0 | Stoichiometry = C12H14Cl2N2Zn | MND = 4
 OpenBabel04212202103D

 31 32  0  0  0  0  0  0  0  0999 V2000
    1.9602    6.1621    2.6395 Zn  0  0  0  0  0  0  0  0  0  0  0  0
    2.9400    7.5224    1.2027 Cl  0  0  0  0  0  0  0  0  0  0  0  0
    0.2452    6.2160    4.0454 Cl  0  0  0  0  0  0  0  0  0  0  0  0
    3.5639    5.5525    3.9057 N   0  0  0  0  0  0  0  0  0  0  0  0
    1.5276    4.4361    1.4654 N   0  0  0  0  0  0  0  0  0  0  0  0
    3.3034    5.0733    5.1168 C   0  0  0  0  0  3  0  0  0  0  0  0
    2.2566    4.9325    5.3489 H   0  0  0  0  0  0  0  0  0  0  0  0
    4.2904    4.7834    6.0498 C   0  0  0  0  0  0  0  0  0  0  0  0
    5.6115    5.0121    5.6746 C   0  0  0  0  0  0  0  0  0  0  0  0
    6.4140    4.8050    6.3680 H   0  0  0  0  0  0  0  0  0  0  0  0
    5.8822    5.5109    4.4123 C   0  0  0  0  0  0  0  0  0  0  0  0
    6.8952    5.7023    4.0956 H   0  0  0  0  0  0  0  0  0  0  0  0
    4.8263    5.7705    3.5553 C   0  0  0  0  0  0  0  0  0  0  0  0
    4.9803    6.1749    2.5654 H   0  0  0  0  0  0  0  0  0  0  0  0
    3.9444    4.2617    7.4062 C   0  0  0  0  0  0  0  0  0  0  0  0
    4.1988    5.0003    8.1647 H   0  0  0  0  0  0  0  0  0  0  0  0
    4.5077    3.3559    7.6220 H   0  0  0  0  0  0  0  0  0  0  0  0
    2.8825    4.0458    7.4768 H   0  0  0  0  0  0  0  0  0  0  0  0
    0.5905    3.5836    1.8645 C   0  0  0  0  0  3  0  0  0  0  0  0
    0.1546    3.7875    2.8330 H   0  0  0  0  0  0  0  0  0  0  0  0
    0.1661    2.5055    1.0991 C   0  0  0  0  0  0  0  0  0  0  0  0
    0.7675    2.3279   -0.1440 C   0  0  0  0  0  0  0  0  0  0  0  0
    0.4674    1.5053   -0.7771 H   0  0  0  0  0  0  0  0  0  0  0  0
    1.7429    3.2173   -0.5596 C   0  0  0  0  0  0  0  0  0  0  0  0
    2.2214    3.1093   -1.5200 H   0  0  0  0  0  0  0  0  0  0  0  0
    2.0945    4.2629    0.2771 C   0  0  0  0  0  0  0  0  0  0  0  0
    2.8371    4.9951   -0.0053 H   0  0  0  0  0  0  0  0  0  0  0  0
   -0.8924    1.5742    1.5934 C   0  0  0  0  0  0  0  0  0  0  0  0
   -1.3344    1.9470    2.5126 H   0  0  0  0  0  0  0  0  0  0  0  0
   -0.4667    0.5897    1.7844 H   0  0  0  0  0  0  0  0  0  0  0  0
   -1.6747    1.4584    0.8459 H   0  0  0  0  0  0  0  0  0  0  0  0
  1  4  1  0  0  0  0
  1  3  1  0  0  0  0
  2  1  1  0  0  0  0
  4  6  1  0  0  0  0
  5 19  1  0  0  0  0
  5  1  1  0  0  0  0
  6  7  1  0  0  0  0
  6  8  1  0  0  0  0
  8 15  1  0  0  0  0
  9  8  2  0  0  0  0
  9 10  1  0  0  0  0
 11  9  1  0  0  0  0
 12 11  1  0  0  0  0
 13  4  1  0  0  0  0
 13 11  2  0  0  0  0
 14 13  1  0  0  0  0
 15 18  1  0  0  0  0
 15 17  1  0  0  0  0
 15 16  1  0  0  0  0
 19 20  1  0  0  0  0
 21 28  1  0  0  0  0
 21 19  1  0  0  0  0
 22 21  2  0  0  0  0
 23 22  1  0  0  0  0
 24 22  1  0  0  0  0
 24 26  2  0  0  0  0
 25 24  1  0  0  0  0
 26  5  1  0  0  0  0
 27 26  1  0  0  0  0
 28 30  1  0  0  0  0
 28 29  1  0  0  0  0
 31 28  1  0  0  0  0
M  END
$$$$
