CSD_code = SUWSAF | q = 1 | S = 0 | Stoichiometry = C27H35ClN3Pt(1+) | MND = 4
 OpenBabel04212202103D

 67 71  0  0  0  0  0  0  0  0999 V2000
    4.5656    6.7938   10.9869 Pt  0  0  1  0  0  0  0  0  0  0  0  0
    5.4637    5.6400    9.3146 Cl  0  0  0  0  0  0  0  0  0  0  0  0
    4.7979    8.6274   10.2213 N   0  0  0  0  0  0  0  0  0  0  0  0
    3.7954    7.7784   12.4112 N   0  0  0  0  0  0  0  0  0  0  0  0
    4.1023    5.2559   12.1791 N   0  0  0  0  0  0  0  0  0  0  0  0
    5.3407    8.9871    9.0636 C   0  0  0  0  0  3  0  0  0  0  0  0
    5.7024    8.1828    8.4353 H   0  0  0  0  0  0  0  0  0  0  0  0
    5.4491   10.3072    8.6642 C   0  0  0  0  0  0  0  0  0  0  0  0
    5.9019   10.5181    7.7112 H   0  0  0  0  0  0  0  0  0  0  0  0
    4.9806   11.3296    9.4870 C   0  0  0  0  0  0  0  0  0  0  0  0
    4.4088   10.9362   10.6988 C   0  0  0  0  0  0  0  0  0  0  0  0
    4.0261   11.6770   11.3810 H   0  0  0  0  0  0  0  0  0  0  0  0
    4.3235    9.5995   11.0501 C   0  0  0  0  0  0  0  0  0  0  0  0
    3.7386    9.1139   12.3089 C   0  0  0  0  0  0  0  0  0  0  0  0
    3.1687    9.8501   13.3362 C   0  0  0  0  0  0  0  0  0  0  0  0
    3.1139   10.9224   13.2593 H   0  0  0  0  0  0  0  0  0  0  0  0
    2.6643    9.2021   14.4697 C   0  0  0  0  0  0  0  0  0  0  0  0
    2.7522    7.8100   14.5252 C   0  0  0  0  0  0  0  0  0  0  0  0
    2.3770    7.2737   15.3782 H   0  0  0  0  0  0  0  0  0  0  0  0
    3.3264    7.1090   13.4714 C   0  0  0  0  0  0  0  0  0  0  0  0
    3.5056    5.6563   13.3344 C   0  0  0  0  0  0  0  0  0  0  0  0
    3.1051    4.7338   14.2909 C   0  0  0  0  0  0  0  0  0  0  0  0
    2.6368    5.0941   15.1902 H   0  0  0  0  0  0  0  0  0  0  0  0
    3.3017    3.3684   14.0955 C   0  0  0  0  0  0  0  0  0  0  0  0
    3.9189    2.9969   12.8988 C   0  0  0  0  0  0  0  0  0  0  0  0
    4.1085    1.9616   12.6702 H   0  0  0  0  0  0  0  0  0  0  0  0
    4.2987    3.9551   11.9806 C   0  0  0  0  0  0  0  0  0  0  0  0
    4.7774    3.6810   11.0490 H   0  0  0  0  0  0  0  0  0  0  0  0
    5.0692   12.7965    9.1288 C   0  0  0  0  0  0  0  0  0  0  0  0
    5.7227   13.0232    7.7644 C   0  0  0  0  0  0  0  0  0  0  0  0
    5.1497   12.5524    6.9693 H   0  0  0  0  0  0  0  0  0  0  0  0
    6.7421   12.6456    7.7474 H   0  0  0  0  0  0  0  0  0  0  0  0
    5.7611   14.0896    7.5584 H   0  0  0  0  0  0  0  0  0  0  0  0
    3.6495   13.3826    9.0958 C   0  0  0  0  0  0  0  0  0  0  0  0
    3.0384   12.8572    8.3654 H   0  0  0  0  0  0  0  0  0  0  0  0
    3.6956   14.4303    8.8122 H   0  0  0  0  0  0  0  0  0  0  0  0
    3.1616   13.3171   10.0644 H   0  0  0  0  0  0  0  0  0  0  0  0
    5.9078   13.5121   10.1989 C   0  0  0  0  0  0  0  0  0  0  0  0
    6.0070   14.5626    9.9404 H   0  0  0  0  0  0  0  0  0  0  0  0
    6.9037   13.0782   10.2543 H   0  0  0  0  0  0  0  0  0  0  0  0
    5.4493   13.4487   11.1820 H   0  0  0  0  0  0  0  0  0  0  0  0
    2.0392   10.0243   15.5793 C   0  0  0  0  0  0  0  0  0  0  0  0
    1.5770    9.1657   16.7586 C   0  0  0  0  0  0  0  0  0  0  0  0
    0.8072    8.4590   16.4573 H   0  0  0  0  0  0  0  0  0  0  0  0
    1.1504    9.8101   17.5226 H   0  0  0  0  0  0  0  0  0  0  0  0
    2.4100    8.6289   17.2069 H   0  0  0  0  0  0  0  0  0  0  0  0
    0.8196   10.7640   15.0083 C   0  0  0  0  0  0  0  0  0  0  0  0
    0.0946   10.0555   14.6140 H   0  0  0  0  0  0  0  0  0  0  0  0
    1.0989   11.4483   14.2121 H   0  0  0  0  0  0  0  0  0  0  0  0
    0.3413   11.3400   15.7955 H   0  0  0  0  0  0  0  0  0  0  0  0
    3.0733   11.0367   16.0941 C   0  0  0  0  0  0  0  0  0  0  0  0
    3.9589   10.5230   16.4615 H   0  0  0  0  0  0  0  0  0  0  0  0
    2.6460   11.6086   16.9129 H   0  0  0  0  0  0  0  0  0  0  0  0
    3.3773   11.7361   15.3207 H   0  0  0  0  0  0  0  0  0  0  0  0
    2.8795    2.3183   15.0984 C   0  0  0  0  0  0  0  0  0  0  0  0
    4.1219    1.5252   15.5310 C   0  0  0  0  0  0  0  0  0  0  0  0
    4.8575    2.1857   15.9848 H   0  0  0  0  0  0  0  0  0  0  0  0
    4.5870    1.0170   14.6916 H   0  0  0  0  0  0  0  0  0  0  0  0
    3.8372    0.7752   16.2638 H   0  0  0  0  0  0  0  0  0  0  0  0
    1.8694    1.3791   14.4217 C   0  0  0  0  0  0  0  0  0  0  0  0
    0.9999    1.9362   14.0797 H   0  0  0  0  0  0  0  0  0  0  0  0
    1.5367    0.6289   15.1337 H   0  0  0  0  0  0  0  0  0  0  0  0
    2.3063    0.8661   13.5701 H   0  0  0  0  0  0  0  0  0  0  0  0
    2.2274    2.9229   16.3438 C   0  0  0  0  0  0  0  0  0  0  0  0
    2.9155    3.5799   16.8712 H   0  0  0  0  0  0  0  0  0  0  0  0
    1.9485    2.1228   17.0242 H   0  0  0  0  0  0  0  0  0  0  0  0
    1.3225    3.4707   16.0901 H   0  0  0  0  0  0  0  0  0  0  0  0
  1  2  1  6  0  0  0
  1  5  1  0  0  0  0
  1  4  1  0  0  0  0
  3  1  1  0  0  0  0
  3 13  1  0  0  0  0
  4 20  1  0  0  0  0
  5 21  1  0  0  0  0
  6  3  1  0  0  0  0
  7  6  1  0  0  0  0
  8  6  1  0  0  0  0
  8 10  2  0  0  0  0
  9  8  1  0  0  0  0
 10 11  1  0  0  0  0
 11 13  2  0  0  0  0
 11 12  1  0  0  0  0
 13 14  1  0  0  0  0
 14  4  1  0  0  0  0
 14 15  2  0  0  0  0
 15 17  1  0  0  0  0
 16 15  1  0  0  0  0
 17 18  2  0  0  0  0
 17 42  1  0  0  0  0
 18 19  1  0  0  0  0
 20 18  1  0  0  0  0
 21 20  2  0  0  0  0
 21 22  1  0  0  0  0
 22 23  1  0  0  0  0
 24 22  2  0  0  0  0
 24 55  1  0  0  0  0
 25 24  1  0  0  0  0
 26 25  1  0  0  0  0
 27  5  1  0  0  0  0
 27 25  2  0  0  0  0
 28 27  1  0  0  0  0
 29 10  1  0  0  0  0
 29 38  1  0  0  0  0
 30 29  1  0  0  0  0
 31 30  1  0  0  0  0
 32 30  1  0  0  0  0
 33 30  1  0  0  0  0
 34 29  1  0  0  0  0
 34 37  1  0  0  0  0
 35 34  1  0  0  0  0
 36 34  1  0  0  0  0
 38 40  1  0  0  0  0
 38 41  1  0  0  0  0
 39 38  1  0  0  0  0
 42 51  1  0  0  0  0
 42 43  1  0  0  0  0
 43 46  1  0  0  0  0
 43 45  1  0  0  0  0
 44 43  1  0  0  0  0
 47 42  1  0  0  0  0
 47 50  1  0  0  0  0
 48 47  1  0  0  0  0
 49 47  1  0  0  0  0
 51 52  1  0  0  0  0
 51 53  1  0  0  0  0
 54 51  1  0  0  0  0
 55 56  1  0  0  0  0
 55 64  1  0  0  0  0
 56 57  1  0  0  0  0
 56 59  1  0  0  0  0
 58 56  1  0  0  0  0
 60 55  1  0  0  0  0
 60 62  1  0  0  0  0
 61 60  1  0  0  0  0
 63 60  1  0  0  0  0
 64 65  1  0  0  0  0
 64 66  1  0  0  0  0
 67 64  1  0  0  0  0
M  END
$$$$
