CSD_code = SUWTIP | q = 0 | S = 0 | Stoichiometry = C22H20Cl2N4S4Zn | MND = 4
 OpenBabel04212202103D

 53 56  0  0  0  0  0  0  0  0999 V2000
    8.5243    3.6145   12.7978 Zn  0  0  0  0  0  0  0  0  0  0  0  0
    9.1290    3.8226   14.9113 Cl  0  0  0  0  0  0  0  0  0  0  0  0
    3.8005   -2.0529   10.8552 S   0  0  0  0  0  0  0  0  0  0  0  0
    7.0255    9.9459   11.4294 S   0  0  0  0  0  0  0  0  0  0  0  0
    3.2339   -0.3727   13.3964 S   0  0  0  0  0  0  0  0  0  0  0  0
    9.3969    2.9659   10.8709 Cl  0  0  0  0  0  0  0  0  0  0  0  0
    6.0973    9.5183    8.5060 S   0  0  0  0  0  0  0  0  0  0  0  0
    7.8490    5.5866   12.3247 N   0  0  0  0  0  0  0  0  0  0  0  0
    2.7225   -0.8678   11.7147 C   0  0  0  0  0  0  0  0  0  0  0  0
    1.7303   -1.2997   11.8247 H   0  0  0  0  0  0  0  0  0  0  0  0
    2.6776    0.0186   11.0863 H   0  0  0  0  0  0  0  0  0  0  0  0
    6.7587    2.4262   12.9283 N   0  0  0  0  0  0  0  0  0  0  0  0
    4.6021    0.6911   13.1396 C   0  0  0  0  0  0  0  0  0  0  0  0
    3.4024   -3.6083   11.5964 C   0  0  0  0  0  0  0  0  0  0  0  0
    7.3461    8.2446   11.7006 C   0  0  0  0  0  0  0  0  0  0  0  0
    7.5687    7.3071   10.6970 C   0  0  0  0  0  0  0  0  0  0  0  0
    7.5449    7.5649    9.6513 H   0  0  0  0  0  0  0  0  0  0  0  0
    6.1651    2.2213   14.1031 C   0  0  0  0  0  3  0  0  0  0  0  0
    6.5815    2.7594   14.9426 H   0  0  0  0  0  0  0  0  0  0  0  0
    5.2347    0.8956   11.9172 C   0  0  0  0  0  0  0  0  0  0  0  0
    4.9336    0.3815   11.0197 H   0  0  0  0  0  0  0  0  0  0  0  0
    4.6578   11.6807    9.5424 C   0  0  0  0  0  0  0  0  0  0  0  0
    5.3512   11.7744   10.3625 H   0  0  0  0  0  0  0  0  0  0  0  0
    6.3041    1.7690   11.8671 C   0  0  0  0  0  0  0  0  0  0  0  0
    6.8326    1.9447   10.9408 H   0  0  0  0  0  0  0  0  0  0  0  0
    2.8782   -6.1330   12.6169 N   0  0  0  0  0  0  0  0  0  0  0  0
    4.7901   10.7082    8.5621 C   0  0  0  0  0  0  0  0  0  0  0  0
    2.6807   -3.7558   12.7717 C   0  0  0  0  0  0  0  0  0  0  0  0
    2.3144   -2.9143   13.3369 H   0  0  0  0  0  0  0  0  0  0  0  0
    7.6269    6.4798   13.2876 C   0  0  0  0  0  3  0  0  0  0  0  0
    7.6771    6.1054   14.3000 H   0  0  0  0  0  0  0  0  0  0  0  0
    7.3450   10.1857    9.6482 C   0  0  0  0  0  0  0  0  0  0  0  0
    7.4223   11.2611    9.5039 H   0  0  0  0  0  0  0  0  0  0  0  0
    8.2862    9.7047    9.3921 H   0  0  0  0  0  0  0  0  0  0  0  0
    5.0929    1.3706   14.2568 C   0  0  0  0  0  0  0  0  0  0  0  0
    4.6372    1.2267   15.2232 H   0  0  0  0  0  0  0  0  0  0  0  0
    7.8164    5.9979   11.0619 C   0  0  0  0  0  0  0  0  0  0  0  0
    8.0112    5.2422   10.3139 H   0  0  0  0  0  0  0  0  0  0  0  0
    3.8305   10.6355    7.5561 C   0  0  0  0  0  0  0  0  0  0  0  0
    3.9043    9.8861    6.7842 H   0  0  0  0  0  0  0  0  0  0  0  0
    2.4499   -5.0456   13.2285 C   0  0  0  0  0  0  0  0  0  0  0  0
    1.8903   -5.2074   14.1399 H   0  0  0  0  0  0  0  0  0  0  0  0
    3.5761   -5.9812   11.5038 C   0  0  0  0  0  0  0  0  0  0  0  0
    3.9146   -6.8938   11.0327 H   0  0  0  0  0  0  0  0  0  0  0  0
    7.3702    7.8078   13.0268 C   0  0  0  0  0  0  0  0  0  0  0  0
    7.2008    8.5052   13.8315 H   0  0  0  0  0  0  0  0  0  0  0  0
    3.8679   -4.7486   10.9478 C   0  0  0  0  0  0  0  0  0  0  0  0
    4.4376   -4.6643   10.0363 H   0  0  0  0  0  0  0  0  0  0  0  0
    2.6639   12.4877    8.4999 N   0  0  0  0  0  0  0  0  0  0  0  0
    2.7923   11.5494    7.5766 C   0  0  0  0  0  0  0  0  0  0  0  0
    2.0266   11.5331    6.8130 H   0  0  0  0  0  0  0  0  0  0  0  0
    3.5740   12.5424    9.4534 C   0  0  0  0  0  0  0  0  0  0  0  0
    3.4328   13.3172   10.1951 H   0  0  0  0  0  0  0  0  0  0  0  0
  1 12  1  0  0  0  0
  1  2  1  0  0  0  0
  3 14  1  0  0  0  0
  3  9  1  0  0  0  0
  4 15  1  0  0  0  0
  6  1  1  0  0  0  0
  7 27  1  0  0  0  0
  7 32  1  0  0  0  0
  8  1  1  0  0  0  0
  8 30  1  0  0  0  0
  9 10  1  0  0  0  0
  9  5  1  0  0  0  0
 11  9  1  0  0  0  0
 12 18  1  0  0  0  0
 13  5  1  0  0  0  0
 13 35  2  0  0  0  0
 14 28  1  0  0  0  0
 15 45  2  0  0  0  0
 16 37  2  0  0  0  0
 16 15  1  0  0  0  0
 17 16  1  0  0  0  0
 18 35  1  0  0  0  0
 18 19  1  0  0  0  0
 20 13  1  0  0  0  0
 21 20  1  0  0  0  0
 22 23  1  0  0  0  0
 24 20  2  0  0  0  0
 24 12  1  0  0  0  0
 25 24  1  0  0  0  0
 26 41  1  0  0  0  0
 27 22  2  0  0  0  0
 28 41  2  0  0  0  0
 28 29  1  0  0  0  0
 30 31  1  0  0  0  0
 32  4  1  0  0  0  0
 33 32  1  0  0  0  0
 34 32  1  0  0  0  0
 35 36  1  0  0  0  0
 37  8  1  0  0  0  0
 38 37  1  0  0  0  0
 39 50  2  0  0  0  0
 39 27  1  0  0  0  0
 40 39  1  0  0  0  0
 41 42  1  0  0  0  0
 43 26  2  0  0  0  0
 44 43  1  0  0  0  0
 45 30  1  0  0  0  0
 45 46  1  0  0  0  0
 47 43  1  0  0  0  0
 47 14  2  0  0  0  0
 48 47  1  0  0  0  0
 49 52  2  0  0  0  0
 50 49  1  0  0  0  0
 51 50  1  0  0  0  0
 52 22  1  0  0  0  0
 52 53  1  0  0  0  0
M  END
$$$$
