CSD_code = SUXLON | q = 0 | S = 0 | Stoichiometry = C13H9ClN2O2Ru | MND = 5
 OpenBabel04212202103D

 28 31  0  0  0  0  0  0  0  0999 V2000
   -0.9083    2.7229   10.6937 Ru  0  0  0  0  0  0  0  0  0  0  0  0
   -0.5953    2.3361    8.5336 Cl  0  0  0  0  0  0  0  0  0  0  0  0
    0.5040    4.0857   10.5549 O   0  0  0  0  0  0  0  0  0  0  0  0
   -1.3397    0.7727   10.8226 O   0  0  0  0  0  0  0  0  0  0  0  0
   -2.3545    3.4952   10.7903 N   0  0  0  0  0  1  0  0  0  0  0  0
   -0.1859    2.6329   12.5852 N   0  0  0  0  0  0  0  0  0  0  0  0
    0.9374    4.4972   11.7234 C   0  0  0  0  0  0  0  0  0  0  0  0
    1.7334    5.6421   11.8534 C   0  0  0  0  0  0  0  0  0  0  0  0
    1.9576    6.2166   10.9689 H   0  0  0  0  0  0  0  0  0  0  0  0
    2.2129    5.9961   13.0952 C   0  0  0  0  0  0  0  0  0  0  0  0
    2.8299    6.8757   13.1963 H   0  0  0  0  0  0  0  0  0  0  0  0
    1.9145    5.2335   14.2208 C   0  0  0  0  0  0  0  0  0  0  0  0
    2.2971    5.5279   15.1855 H   0  0  0  0  0  0  0  0  0  0  0  0
    1.1304    4.1037   14.1185 C   0  0  0  0  0  0  0  0  0  0  0  0
    0.9100    3.5290   15.0050 H   0  0  0  0  0  0  0  0  0  0  0  0
    0.6240    3.7309   12.8725 C   0  0  0  0  0  0  0  0  0  0  0  0
   -0.5666    1.7610   13.4756 C   0  0  0  0  0  3  0  0  0  0  0  0
   -0.2646    1.9186   14.5097 H   0  0  0  0  0  0  0  0  0  0  0  0
   -1.3286    0.5945   13.2292 C   0  0  0  0  0  0  0  0  0  0  0  0
   -1.7227   -0.1954   14.3331 C   0  0  0  0  0  0  0  0  0  0  0  0
   -1.4527    0.1396   15.3242 H   0  0  0  0  0  0  0  0  0  0  0  0
   -2.4335   -1.3517   14.1676 C   0  0  0  0  0  0  0  0  0  0  0  0
   -2.7314   -1.9366   15.0234 H   0  0  0  0  0  0  0  0  0  0  0  0
   -2.7734   -1.7776   12.8777 C   0  0  0  0  0  0  0  0  0  0  0  0
   -3.3330   -2.6915   12.7476 H   0  0  0  0  0  0  0  0  0  0  0  0
   -2.4041   -1.0461   11.7805 C   0  0  0  0  0  0  0  0  0  0  0  0
   -2.6555   -1.3582   10.7788 H   0  0  0  0  0  0  0  0  0  0  0  0
   -1.6783    0.1599   11.9124 C   0  0  0  0  0  0  0  0  0  0  0  0
  1  5  1  0  0  0  0
  1  4  1  0  0  0  0
  1  6  1  0  0  0  0
  2  1  1  0  0  0  0
  3  1  1  0  0  0  0
  3  7  1  0  0  0  0
  4 28  1  0  0  0  0
  6 16  1  0  0  0  0
  6 17  1  0  0  0  0
  7  8  2  0  0  0  0
  7 16  1  0  0  0  0
  8 10  1  0  0  0  0
  9  8  1  0  0  0  0
 10 11  1  0  0  0  0
 10 12  2  0  0  0  0
 12 13  1  0  0  0  0
 14 12  1  0  0  0  0
 14 15  1  0  0  0  0
 16 14  2  0  0  0  0
 17 18  1  0  0  0  0
 19 17  1  0  0  0  0
 19 20  1  0  0  0  0
 20 21  1  0  0  0  0
 22 20  2  0  0  0  0
 22 23  1  0  0  0  0
 24 22  1  0  0  0  0
 25 24  1  0  0  0  0
 26 28  1  0  0  0  0
 26 24  2  0  0  0  0
 27 26  1  0  0  0  0
 28 19  2  0  0  0  0
M  END
$$$$
