CSD_code = SUXVIR | q = 0 | S = 0 | Stoichiometry = C15H15I2NOPtS | MND = 4
 OpenBabel04212202103D

 36 38  0  0  0  0  0  0  0  0999 V2000
    1.1370    3.6077    1.9781 Pt  0  0  0  0  0  0  0  0  0  0  0  0
    3.2925    4.8116    1.1421 I   0  0  0  0  0  0  0  0  0  0  0  0
   -0.9272    2.4565    3.0760 I   0  0  0  0  0  0  0  0  0  0  0  0
   -0.1302    5.1207    0.9004 S   0  0  0  0  0  0  0  0  0  0  0  0
   -0.0710    4.7874   -0.5074 O   0  0  0  0  0  1  0  0  0  0  0  0
    2.2868    2.1679    2.7406 N   0  0  0  0  0  0  0  0  0  0  0  0
    2.7891    2.2528    3.9802 C   0  0  0  0  0  0  0  0  0  0  0  0
    2.5298    3.3963    4.7715 C   0  0  0  0  0  0  0  0  0  0  0  0
    1.9226    4.1939    4.3484 H   0  0  0  0  0  0  0  0  0  0  0  0
    3.0335    3.4937    6.0339 C   0  0  0  0  0  0  0  0  0  0  0  0
    2.8324    4.3697    6.6310 H   0  0  0  0  0  0  0  0  0  0  0  0
    3.8210    2.4572    6.5755 C   0  0  0  0  0  0  0  0  0  0  0  0
    4.2071    2.5592    7.5779 H   0  0  0  0  0  0  0  0  0  0  0  0
    4.0911    1.3416    5.8427 C   0  0  0  0  0  0  0  0  0  0  0  0
    4.6931    0.5416    6.2468 H   0  0  0  0  0  0  0  0  0  0  0  0
    3.5882    1.2000    4.5255 C   0  0  0  0  0  0  0  0  0  0  0  0
    3.8331    0.0806    3.7353 C   0  0  0  0  0  0  0  0  0  0  0  0
    4.4297   -0.7323    4.1236 H   0  0  0  0  0  0  0  0  0  0  0  0
    3.3124    0.0037    2.4462 C   0  0  0  0  0  0  0  0  0  0  0  0
    3.5260   -1.1055    1.5909 C   0  0  0  0  0  3  0  0  0  0  0  0
    4.1209   -1.9271    1.9608 H   0  0  0  0  0  0  0  0  0  0  0  0
    2.9948   -1.1304    0.3370 C   0  0  0  0  0  0  0  0  0  0  0  0
    3.1610   -1.9779   -0.3101 H   0  0  0  0  0  0  0  0  0  0  0  0
    2.2225   -0.0487   -0.1332 C   0  0  0  0  0  0  0  0  0  0  0  0
    1.8140   -0.0855   -1.1312 H   0  0  0  0  0  0  0  0  0  0  0  0
    1.9908    1.0370    0.6580 C   0  0  0  0  0  0  0  0  0  0  0  0
    1.3969    1.8732    0.2870 H   0  0  0  0  0  0  0  0  0  0  0  0
    2.5246    1.0965    1.9681 C   0  0  0  0  0  0  0  0  0  0  0  0
    0.3200    6.8773    1.0913 C   0  0  0  0  0  0  0  0  0  0  0  0
    1.3217    7.0320    0.7051 H   0  0  0  0  0  0  0  0  0  0  0  0
    0.2813    7.1212    2.1485 H   0  0  0  0  0  0  0  0  0  0  0  0
   -0.3871    7.4734    0.5266 H   0  0  0  0  0  0  0  0  0  0  0  0
   -1.8967    5.3209    1.3042 C   0  0  0  0  0  0  0  0  0  0  0  0
   -2.2931    6.0809    0.6407 H   0  0  0  0  0  0  0  0  0  0  0  0
   -1.9971    5.6109    2.3443 H   0  0  0  0  0  0  0  0  0  0  0  0
   -2.4057    4.3796    1.1266 H   0  0  0  0  0  0  0  0  0  0  0  0
  1  6  1  0  0  0  0
  1  3  1  0  0  0  0
  2  1  1  0  0  0  0
  4 29  1  0  0  0  0
  4 33  1  0  0  0  0
  4  1  1  0  0  0  0
  5  4  1  0  0  0  0
  6  7  1  0  0  0  0
  7 16  2  0  0  0  0
  7  8  1  0  0  0  0
  8 10  2  0  0  0  0
  9  8  1  0  0  0  0
 10 12  1  0  0  0  0
 10 11  1  0  0  0  0
 12 13  1  0  0  0  0
 14 15  1  0  0  0  0
 14 12  2  0  0  0  0
 16 14  1  0  0  0  0
 17 18  1  0  0  0  0
 17 16  1  0  0  0  0
 19 17  2  0  0  0  0
 20 21  1  0  0  0  0
 20 19  1  0  0  0  0
 22 20  1  0  0  0  0
 23 22  1  0  0  0  0
 24 22  2  0  0  0  0
 24 26  1  0  0  0  0
 25 24  1  0  0  0  0
 26 28  2  0  0  0  0
 27 26  1  0  0  0  0
 28 19  1  0  0  0  0
 28  6  1  0  0  0  0
 29 31  1  0  0  0  0
 30 29  1  0  0  0  0
 32 29  1  0  0  0  0
 33 35  1  0  0  0  0
 34 33  1  0  0  0  0
 36 33  1  0  0  0  0
M  END
$$$$
