CSD_code = SUYXAN | q = 0 | S = 0 | Stoichiometry = C17H20AuCl3N2 | MND = 4
 OpenBabel04212202103D

 43 46  0  0  1  0  0  0  0  0999 V2000
    4.0494    2.0305   14.8421 Au  0  0  0  0  0  0  0  0  0  0  0  0
    5.4055    1.0310   16.3040 Cl  0  0  0  0  0  0  0  0  0  0  0  0
    3.0727    3.3258   16.4593 Cl  0  0  0  0  0  0  0  0  0  0  0  0
    4.8558    0.7954   13.0945 Cl  0  0  0  0  0  0  0  0  0  0  0  0
    2.7934    2.9293   13.5125 N   0  0  0  0  0  0  0  0  0  0  0  0
    0.9428    4.1297   11.7708 N   0  0  0  0  0  0  0  0  0  0  0  0
   -1.1052    2.6995   14.0106 C   0  0  0  0  0  0  0  0  0  0  0  0
   -1.1222    3.7836   14.1196 H   0  0  0  0  0  0  0  0  0  0  0  0
   -2.1185    2.3345   14.1690 H   0  0  0  0  0  0  0  0  0  0  0  0
    1.5976    2.4530   13.3479 C   0  0  0  0  0  0  0  0  0  0  0  0
    0.6616    3.0755   12.4599 C   0  0  0  0  0  0  0  0  0  0  0  0
    4.7803    5.7000   12.1692 C   0  0  0  0  0  0  0  0  0  0  0  0
    3.8334    6.2778   11.3004 C   0  0  0  0  0  0  0  0  0  0  0  0
    4.1183    7.1495   10.7300 H   0  0  0  0  0  0  0  0  0  0  0  0
    4.4259    4.5887   12.8993 C   0  0  0  0  0  0  0  0  0  0  0  0
    5.1336    4.1227   13.5719 H   0  0  0  0  0  0  0  0  0  0  0  0
    0.8883    1.3257   13.9985 C   0  0  1  0  0  0  0  0  0  0  0  0
    1.5216    0.5728   14.4627 H   0  0  0  0  0  0  0  0  0  0  0  0
   -0.6143    2.2993   12.5930 C   0  0  2  0  0  0  0  0  0  0  0  0
    2.1940    4.6243   11.9080 C   0  0  0  0  0  0  0  0  0  0  0  0
   -0.0936    2.0343   14.9621 C   0  0  0  0  0  0  0  0  0  0  0  0
   -0.5621    1.3001   15.6143 H   0  0  0  0  0  0  0  0  0  0  0  0
    0.4307    2.7532   15.5914 H   0  0  0  0  0  0  0  0  0  0  0  0
    3.1493    4.0316   12.7897 C   0  0  0  0  0  0  0  0  0  0  0  0
   -1.6248    2.4974   11.4853 C   0  0  0  0  0  0  0  0  0  0  0  0
   -1.9027    3.5464   11.4260 H   0  0  0  0  0  0  0  0  0  0  0  0
   -2.5171    1.9067   11.6759 H   0  0  0  0  0  0  0  0  0  0  0  0
   -1.2014    2.2027   10.5289 H   0  0  0  0  0  0  0  0  0  0  0  0
    2.5756    5.7584   11.1703 C   0  0  0  0  0  3  0  0  0  0  0  0
    1.8451    6.1941   10.5076 H   0  0  0  0  0  0  0  0  0  0  0  0
   -0.0367    0.8711   12.8390 C   0  0  0  0  0  0  0  0  0  0  0  0
    6.1418    6.3011   12.2810 C   0  0  0  0  0  0  0  0  0  0  0  0
    6.7613    5.7425   12.9765 H   0  0  0  0  0  0  0  0  0  0  0  0
    6.0691    7.3321   12.6249 H   0  0  0  0  0  0  0  0  0  0  0  0
    6.6284    6.3116   11.3067 H   0  0  0  0  0  0  0  0  0  0  0  0
   -1.0663   -0.1763   13.2424 C   0  0  0  0  0  0  0  0  0  0  0  0
   -1.6902   -0.4252   12.3871 H   0  0  0  0  0  0  0  0  0  0  0  0
   -1.7111    0.1514   14.0499 H   0  0  0  0  0  0  0  0  0  0  0  0
   -0.5550   -1.0819   13.5612 H   0  0  0  0  0  0  0  0  0  0  0  0
    0.7609    0.3264   11.6548 C   0  0  0  0  0  0  0  0  0  0  0  0
    1.2932   -0.5745   11.9520 H   0  0  0  0  0  0  0  0  0  0  0  0
    1.4960    1.0408   11.2901 H   0  0  0  0  0  0  0  0  0  0  0  0
    0.0938    0.0723   10.8343 H   0  0  0  0  0  0  0  0  0  0  0  0
  1  2  1  0  0  0  0
  1  3  1  0  0  0  0
  4  1  1  0  0  0  0
  5  1  1  0  0  0  0
  6 20  2  0  0  0  0
  6 11  1  0  0  0  0
  7  8  1  0  0  0  0
  7  9  1  0  0  0  0
  7 21  1  0  0  0  0
 10  5  1  0  0  0  0
 10 17  1  0  0  0  0
 11 19  1  0  0  0  0
 11 10  2  0  0  0  0
 12 32  1  0  0  0  0
 12 15  1  0  0  0  0
 13 12  2  0  0  0  0
 14 13  1  0  0  0  0
 15 16  1  0  0  0  0
 17 18  1  1  0  0  0
 17 21  1  0  0  0  0
 19 25  1  6  0  0  0
 19 31  1  0  0  0  0
 19  7  1  0  0  0  0
 20 24  1  0  0  0  0
 21 23  1  0  0  0  0
 21 22  1  0  0  0  0
 24 15  2  0  0  0  0
 24  5  1  0  0  0  0
 25 27  1  0  0  0  0
 26 25  1  0  0  0  0
 28 25  1  0  0  0  0
 29 13  1  0  0  0  0
 29 20  1  0  0  0  0
 30 29  1  0  0  0  0
 31 36  1  0  0  0  0
 31 17  1  0  0  0  0
 32 34  1  0  0  0  0
 32 33  1  0  0  0  0
 35 32  1  0  0  0  0
 36 39  1  0  0  0  0
 36 38  1  0  0  0  0
 37 36  1  0  0  0  0
 40 41  1  0  0  0  0
 40 31  1  0  0  0  0
 42 40  1  0  0  0  0
 43 40  1  0  0  0  0
M  END
$$$$
