CSD_code = SUZLOQ | q = 0 | S = 0 | Stoichiometry = C22H13ClN3O4Re | MND = 6
 OpenBabel04212202103D

 44 48  0  0  1  0  0  0  0  0999 V2000
    1.7261    2.0226    3.0917 Re  0  0  0  0  0  0  0  0  0  0  0  0
    1.9128   -0.0947    3.1354 N   0  0  0  0  0  0  0  0  0  0  0  0
    2.8458    1.6029    4.9342 N   0  0  0  0  0  0  0  0  0  0  0  0
    3.2292    4.9809    6.1527 C   0  0  0  0  0  0  0  0  0  0  0  0
    4.3052    4.9940    6.2302 H   0  0  0  0  0  0  0  0  0  0  0  0
   -1.0397    2.0896    4.4692 O   0  0  0  0  0  1  0  0  0  0  0  0
    2.1792    5.0799    3.0159 O   0  0  0  0  0  1  0  0  0  0  0  0
    0.5948    2.1112    0.2193 O   0  0  0  0  0  1  0  0  0  0  0  0
    6.4416    1.6696    8.4495 O   0  0  0  0  0  0  0  0  0  0  0  0
    3.9607    1.8590    2.2480 Cl  0  0  0  0  0  0  0  0  0  0  0  0
    1.9449    3.9591    3.0612 C   0  0  0  0  0  2  0  0  0  0  0  0
    0.9757    2.1106    1.3011 C   0  0  0  0  0  2  0  0  0  0  0  0
   -0.0127    2.0713    3.9587 C   0  0  0  0  0  2  0  0  0  0  0  0
    1.3399   -0.9281    2.2703 C   0  0  0  0  0  3  0  0  0  0  0  0
    0.5571   -0.5112    1.6496 H   0  0  0  0  0  0  0  0  0  0  0  0
    1.7015   -2.2554    2.1413 C   0  0  0  0  0  0  0  0  0  0  0  0
    1.2109   -2.8811    1.4136 H   0  0  0  0  0  0  0  0  0  0  0  0
    2.7077   -2.7499    2.9578 C   0  0  0  0  0  0  0  0  0  0  0  0
    3.0279   -3.7780    2.8848 H   0  0  0  0  0  0  0  0  0  0  0  0
    3.2926   -1.8974    3.8733 C   0  0  0  0  0  0  0  0  0  0  0  0
    4.0675   -2.2660    4.5244 H   0  0  0  0  0  0  0  0  0  0  0  0
    2.8813   -0.5664    3.9412 C   0  0  0  0  0  0  0  0  0  0  0  0
    3.4360    0.3942    4.9068 C   0  0  2  0  0  3  0  0  0  0  0  0
    4.4878    0.0695    5.7540 C   0  0  0  0  0  0  0  0  0  0  0  0
    4.9671   -0.8916    5.6931 H   0  0  0  0  0  0  0  0  0  0  0  0
    4.9498    1.0067    6.6764 C   0  0  0  0  0  0  0  0  0  0  0  0
    4.2939    2.2367    6.7225 C   0  0  0  0  0  0  0  0  0  0  0  0
    4.5901    2.9790    7.4455 H   0  0  0  0  0  0  0  0  0  0  0  0
    3.2556    2.4958    5.8392 C   0  0  0  0  0  0  0  0  0  0  0  0
    2.5468    3.7886    5.9236 C   0  0  0  0  0  0  0  0  0  0  0  0
    1.2245    3.7379    5.7790 N   0  0  0  0  0  0  0  0  0  0  0  0
    0.5332    4.8572    5.8731 C   0  0  0  0  0  0  0  0  0  0  0  0
   -0.5365    4.7508    5.7555 H   0  0  0  0  0  0  0  0  0  0  0  0
    1.1186    6.0943    6.0994 C   0  0  0  0  0  0  0  0  0  0  0  0
    0.5147    6.9855    6.1601 H   0  0  0  0  0  0  0  0  0  0  0  0
    2.4966    6.1531    6.2321 C   0  0  0  0  0  0  0  0  0  0  0  0
    2.9956    7.0976    6.3914 H   0  0  0  0  0  0  0  0  0  0  0  0
    6.0533    0.7216    7.5633 C   0  0  0  0  0  0  0  0  0  0  0  0
    6.8501   -0.3909    7.7067 C   0  0  0  0  0  0  0  0  0  0  0  0
    6.7950   -1.3038    7.1506 H   0  0  0  0  0  0  0  0  0  0  0  0
    7.7666   -0.0931    8.7351 C   0  0  0  0  0  0  0  0  0  0  0  0
    8.5390   -0.7291    9.1152 H   0  0  0  0  0  0  0  0  0  0  0  0
    7.4679    1.1720    9.1460 C   0  0  0  0  0  0  0  0  0  0  0  0
    7.9020    1.7996    9.8991 H   0  0  0  0  0  0  0  0  0  0  0  0
  1  2  1  0  0  0  0
  1 13  1  0  0  0  0
  1  3  1  0  0  0  0
  2 22  1  0  0  0  0
  3 29  1  0  0  0  0
  4  5  1  0  0  0  0
  4 36  1  0  0  0  0
  7 11  1  0  0  0  0
  8 12  1  0  0  0  0
  9 43  1  0  0  0  0
 10  1  1  0  0  0  0
 11  1  1  0  0  0  0
 12  1  1  0  0  0  0
 13  6  1  0  0  0  0
 14  2  1  0  0  0  0
 15 14  1  0  0  0  0
 16 14  1  0  0  0  0
 16 18  2  0  0  0  0
 17 16  1  0  0  0  0
 18 20  1  0  0  0  0
 19 18  1  0  0  0  0
 20 22  2  0  0  0  0
 20 21  1  0  0  0  0
 23 22  1  1  0  0  0
 23  3  1  0  0  0  0
 23 24  1  0  0  0  0
 24 26  2  0  0  0  0
 25 24  1  0  0  0  0
 26 27  1  0  0  0  0
 26 38  1  0  0  0  0
 27 28  1  0  0  0  0
 29 30  1  0  0  0  0
 29 27  2  0  0  0  0
 30  4  2  0  0  0  0
 31 32  2  0  0  0  0
 31 30  1  0  0  0  0
 32 34  1  0  0  0  0
 33 32  1  0  0  0  0
 34 35  1  0  0  0  0
 34 36  2  0  0  0  0
 36 37  1  0  0  0  0
 38 39  2  0  0  0  0
 38  9  1  0  0  0  0
 39 41  1  0  0  0  0
 40 39  1  0  0  0  0
 41 42  1  0  0  0  0
 41 43  2  0  0  0  0
 43 44  1  0  0  0  0
M  END
$$$$
