CSD_code = SUZSUB | q = 1 | S = 0 | Stoichiometry = C19H18BClN8Re(1+) | MND = 6
 OpenBabel04212202103D

 48 55  0  0  1  0  0  0  0  0999 V2000
    0.6787    3.1684    4.0404 Re  0  0  0  0  0  0  0  0  0  0  0  0
   -0.0088    5.0814    4.9896 Cl  0  0  0  0  0  0  0  0  0  0  0  0
    1.7644    2.7138    5.7486 N   0  0  0  0  0  0  0  0  0  0  0  0
    2.5277    4.0212    3.6473 N   0  0  0  0  0  0  0  0  0  0  0  0
    1.1926    1.3704    3.0986 N   0  0  2  0  0  0  0  0  0  0  0  0
    0.2989    0.7008    2.3542 N   0  0  0  0  0  0  0  0  0  0  0  0
   -1.1495    2.1876    4.4710 N   0  0  2  0  0  0  0  0  0  0  0  0
   -1.7434    1.4022    3.5639 N   0  0  0  0  0  0  0  0  0  0  0  0
   -0.3356    3.5950    2.2313 N   0  0  1  0  0  0  0  0  0  0  0  0
   -1.0246    2.6472    1.5839 N   0  0  0  0  0  0  0  0  0  0  0  0
    1.3401    1.9472    6.7549 C   0  0  0  0  0  3  0  0  0  0  0  0
    2.0360    1.7950    7.9357 C   0  0  0  0  0  0  0  0  0  0  0  0
    3.2403    2.4729    8.0936 C   0  0  0  0  0  0  0  0  0  0  0  0
    3.7045    3.2456    7.0488 C   0  0  0  0  0  0  0  0  0  0  0  0
    2.9537    3.3476    5.8763 C   0  0  0  0  0  0  0  0  0  0  0  0
    3.3856    4.0778    4.6928 C   0  0  1  0  0  3  0  0  0  0  0  0
    4.6057    4.7484    4.5906 C   0  0  0  0  0  0  0  0  0  0  0  0
    4.9562    5.3543    3.4015 C   0  0  0  0  0  0  0  0  0  0  0  0
    4.0817    5.2602    2.3238 C   0  0  0  0  0  0  0  0  0  0  0  0
    2.8891    4.5894    2.4953 C   0  0  0  0  0  0  0  0  0  0  0  0
    2.3348    0.6735    3.0800 C   0  0  0  0  0  3  0  0  0  0  0  0
    2.1724   -0.4658    2.3095 C   0  0  0  0  0  0  0  0  0  0  0  0
    0.8586   -0.4052    1.8681 C   0  0  0  0  0  0  0  0  0  0  0  0
   -1.9317    2.2283    5.5466 C   0  0  0  0  0  3  0  0  0  0  0  0
   -3.0607    1.4455    5.3319 C   0  0  0  0  0  0  0  0  0  0  0  0
   -2.8973    0.9388    4.0572 C   0  0  0  0  0  0  0  0  0  0  0  0
   -0.4842    4.7345    1.5607 C   0  0  0  0  0  3  0  0  0  0  0  0
   -1.2886    4.5184    0.4472 C   0  0  0  0  0  0  0  0  0  0  0  0
   -1.6084    3.1757    0.5024 C   0  0  0  0  0  0  0  0  0  0  0  0
   -1.1380    1.2313    2.1644 B   0  0  1  0  0  0  0  0  0  0  0  0
    0.3973    1.4387    6.6043 H   0  0  0  0  0  0  0  0  0  0  0  0
    1.6418    1.1688    8.7188 H   0  0  0  0  0  0  0  0  0  0  0  0
    3.8027    2.3929    9.0099 H   0  0  0  0  0  0  0  0  0  0  0  0
    4.6394    3.7718    7.1423 H   0  0  0  0  0  0  0  0  0  0  0  0
    5.2708    4.7970    5.4362 H   0  0  0  0  0  0  0  0  0  0  0  0
    5.8908    5.8839    3.3093 H   0  0  0  0  0  0  0  0  0  0  0  0
    4.3190    5.7067    1.3725 H   0  0  0  0  0  0  0  0  0  0  0  0
    2.1853    4.5041    1.6783 H   0  0  0  0  0  0  0  0  0  0  0  0
    3.2045    1.0144    3.6097 H   0  0  0  0  0  0  0  0  0  0  0  0
    2.8968   -1.2243    2.1004 H   0  0  0  0  0  0  0  0  0  0  0  0
    0.3115   -1.0831    1.2455 H   0  0  0  0  0  0  0  0  0  0  0  0
   -1.6725    2.8223    6.4025 H   0  0  0  0  0  0  0  0  0  0  0  0
   -3.8756    1.2782    6.0038 H   0  0  0  0  0  0  0  0  0  0  0  0
   -3.5258    0.2866    3.4867 H   0  0  0  0  0  0  0  0  0  0  0  0
   -0.0387    5.6477    1.9074 H   0  0  0  0  0  0  0  0  0  0  0  0
   -1.5946    5.2351   -0.2850 H   0  0  0  0  0  0  0  0  0  0  0  0
   -2.2063    2.5801   -0.1561 H   0  0  0  0  0  0  0  0  0  0  0  0
   -1.7770    0.5174    1.4832 H   0  0  0  0  0  0  0  0  0  0  0  0
  1  7  1  0  0  0  0
  1  2  1  0  0  0  0
  1  3  1  0  0  0  0
  3 15  1  0  0  0  0
  3 11  1  0  0  0  0
  4  1  1  0  0  0  0
  4 16  1  0  0  0  0
  5 21  1  1  0  0  0
  5  1  1  0  0  0  0
  6  5  1  0  0  0  0
  7 24  1  6  0  0  0
  8 26  1  0  0  0  0
  8  7  1  0  0  0  0
  9 27  1  1  0  0  0
  9  1  1  0  0  0  0
 10 30  1  0  0  0  0
 10  9  1  0  0  0  0
 11 12  1  0  0  0  0
 12 13  2  0  0  0  0
 12 32  1  0  0  0  0
 13 33  1  0  0  0  0
 14 34  1  0  0  0  0
 14 13  1  0  0  0  0
 15 14  2  0  0  0  0
 16 17  1  6  0  0  0
 16 15  1  0  0  0  0
 17 35  1  0  0  0  0
 18 17  2  0  0  0  0
 19 20  2  0  0  0  0
 19 18  1  0  0  0  0
 20  4  1  0  0  0  0
 21 39  1  0  0  0  0
 22 21  1  0  0  0  0
 23 22  2  0  0  0  0
 23  6  1  0  0  0  0
 24 42  1  0  0  0  0
 25 24  1  0  0  0  0
 25 43  1  0  0  0  0
 26 25  2  0  0  0  0
 27 45  1  0  0  0  0
 28 29  2  0  0  0  0
 28 27  1  0  0  0  0
 29 10  1  0  0  0  0
 30 48  1  6  0  0  0
 30  6  1  0  0  0  0
 30  8  1  0  0  0  0
 31 11  1  0  0  0  0
 36 18  1  0  0  0  0
 37 19  1  0  0  0  0
 38 20  1  0  0  0  0
 40 22  1  0  0  0  0
 41 23  1  0  0  0  0
 44 26  1  0  0  0  0
 46 28  1  0  0  0  0
 47 29  1  0  0  0  0
M  END
$$$$
