CSD_code = TABZOL | q = 0 | S = 0 | Stoichiometry = C32H29Cl2NP2Pd | MND = 4
 OpenBabel04212202103D

 67 72  0  0  0  0  0  0  0  0999 V2000
    6.9886    6.5832    3.4433 Pd  0  0  0  0  0  0  0  0  0  0  0  0
    6.9776    5.7980    1.3568 P   0  0  0  0  0  4  0  0  0  0  0  0
    8.7081    5.4352    4.2578 P   0  0  0  0  0  4  0  0  0  0  0  0
    7.1703    7.6266    5.4598 Cl  0  0  0  0  0  0  0  0  0  0  0  0
    5.1153    7.6716    2.7469 Cl  0  0  0  0  0  0  0  0  0  0  0  0
    9.4744    4.6170    1.7310 N   0  0  0  0  0  0  0  0  0  0  0  0
    7.5890    7.1872    0.3596 C   0  0  0  0  0  0  0  0  0  0  0  0
    8.1600    8.2688    1.0284 C   0  0  0  0  0  0  0  0  0  0  0  0
    8.6900    9.3242    0.3072 C   0  0  0  0  0  0  0  0  0  0  0  0
    8.6502    9.3074   -1.0778 C   0  0  0  0  0  0  0  0  0  0  0  0
    8.0833    8.2335   -1.7465 C   0  0  0  0  0  0  0  0  0  0  0  0
    7.5580    7.1714   -1.0334 C   0  0  0  0  0  0  0  0  0  0  0  0
    5.4835    5.2062    0.5228 C   0  0  0  0  0  0  0  0  0  0  0  0
    5.0662    3.8868    0.6769 C   0  0  0  0  0  0  0  0  0  0  0  0
    3.8800    3.4628    0.1065 C   0  0  0  0  0  0  0  0  0  0  0  0
    3.0922    4.3544   -0.6027 C   0  0  0  0  0  0  0  0  0  0  0  0
    3.4856    5.6770   -0.7270 C   0  0  0  0  0  0  0  0  0  0  0  0
    4.6718    6.1068   -0.1627 C   0  0  0  0  0  0  0  0  0  0  0  0
    8.2539    4.4706    0.9759 C   0  0  0  0  0  0  0  0  0  0  0  0
   10.6820    4.8462    1.0711 C   0  0  0  0  0  0  0  0  0  0  0  0
   10.7208    5.7291   -0.0124 C   0  0  0  0  0  0  0  0  0  0  0  0
   11.9025    5.9920   -0.6759 C   0  0  0  0  0  0  0  0  0  0  0  0
   13.0836    5.3894   -0.2787 C   0  0  0  0  0  0  0  0  0  0  0  0
   13.0595    4.5114    0.7904 C   0  0  0  0  0  0  0  0  0  0  0  0
   11.8798    4.2364    1.4552 C   0  0  0  0  0  0  0  0  0  0  0  0
    9.4278    4.1439    3.0899 C   0  0  0  0  0  0  0  0  0  0  0  0
    8.0730    4.3510    5.5634 C   0  0  0  0  0  0  0  0  0  0  0  0
    8.9029    3.6206    6.4082 C   0  0  0  0  0  0  0  0  0  0  0  0
    8.3477    2.7759    7.3523 C   0  0  0  0  0  0  0  0  0  0  0  0
    6.9709    2.6482    7.4485 C   0  0  0  0  0  0  0  0  0  0  0  0
    6.1417    3.3611    6.5965 C   0  0  0  0  0  0  0  0  0  0  0  0
    6.6890    4.2103    5.6522 C   0  0  0  0  0  0  0  0  0  0  0  0
   10.1646    6.2880    4.9020 C   0  0  0  0  0  0  0  0  0  0  0  0
   10.2769    6.5957    6.2542 C   0  0  0  0  0  0  0  0  0  0  0  0
   11.3683    7.3165    6.7031 C   0  0  0  0  0  0  0  0  0  0  0  0
   12.3389    7.7431    5.8108 C   0  0  0  0  0  0  0  0  0  0  0  0
   12.2131    7.4615    4.4597 C   0  0  0  0  0  0  0  0  0  0  0  0
   11.1247    6.7432    4.0013 C   0  0  0  0  0  0  0  0  0  0  0  0
    8.1768    8.2895    2.1291 H   0  0  0  0  0  0  0  0  0  0  0  0
    9.1297   10.1630    0.8254 H   0  0  0  0  0  0  0  0  0  0  0  0
    9.0589   10.1345   -1.6390 H   0  0  0  0  0  0  0  0  0  0  0  0
    8.0519    8.2233   -2.8262 H   0  0  0  0  0  0  0  0  0  0  0  0
    7.1189    6.3289   -1.5518 H   0  0  0  0  0  0  0  0  0  0  0  0
    5.6576    3.1919    1.2583 H   0  0  0  0  0  0  0  0  0  0  0  0
    3.5633    2.4369    0.2259 H   0  0  0  0  0  0  0  0  0  0  0  0
    2.1639    4.0218   -1.0428 H   0  0  0  0  0  0  0  0  0  0  0  0
    2.8599    6.3799   -1.2563 H   0  0  0  0  0  0  0  0  0  0  0  0
    4.9630    7.1446   -0.2286 H   0  0  0  0  0  0  0  0  0  0  0  0
    8.4734    4.4872   -0.0955 H   0  0  0  0  0  0  0  0  0  0  0  0
    7.8012    3.4965    1.2141 H   0  0  0  0  0  0  0  0  0  0  0  0
    9.8215    6.2338   -0.3252 H   0  0  0  0  0  0  0  0  0  0  0  0
   11.8969    6.6846   -1.5046 H   0  0  0  0  0  0  0  0  0  0  0  0
   14.0080    5.5998   -0.7936 H   0  0  0  0  0  0  0  0  0  0  0  0
   13.9684    4.0230    1.1097 H   0  0  0  0  0  0  0  0  0  0  0  0
   11.9062    3.5259    2.2672 H   0  0  0  0  0  0  0  0  0  0  0  0
    8.7960    3.2458    3.1645 H   0  0  0  0  0  0  0  0  0  0  0  0
   10.4244    3.8943    3.4546 H   0  0  0  0  0  0  0  0  0  0  0  0
    9.9766    3.7276    6.3316 H   0  0  0  0  0  0  0  0  0  0  0  0
    8.9898    2.2174    8.0176 H   0  0  0  0  0  0  0  0  0  0  0  0
    6.5430    1.9926    8.1923 H   0  0  0  0  0  0  0  0  0  0  0  0
    5.0696    3.2594    6.6752 H   0  0  0  0  0  0  0  0  0  0  0  0
    6.0382    4.7947    4.9842 H   0  0  0  0  0  0  0  0  0  0  0  0
    9.5007    6.2874    6.9391 H   0  0  0  0  0  0  0  0  0  0  0  0
   11.4569    7.5549    7.7526 H   0  0  0  0  0  0  0  0  0  0  0  0
   13.1877    8.3085    6.1664 H   0  0  0  0  0  0  0  0  0  0  0  0
   12.9584    7.8095    3.7595 H   0  0  0  0  0  0  0  0  0  0  0  0
   11.0124    6.5424    2.9440 H   0  0  0  0  0  0  0  0  0  0  0  0
  1  3  1  0  0  0  0
  1  4  1  0  0  0  0
  2  1  1  0  0  0  0
  3 33  1  0  0  0  0
  3 27  1  0  0  0  0
  5  1  1  0  0  0  0
  6 26  1  0  0  0  0
  7  8  1  0  0  0  0
  7  2  1  0  0  0  0
  8 39  1  0  0  0  0
  9 40  1  0  0  0  0
  9  8  2  0  0  0  0
 10  9  1  0  0  0  0
 11 10  2  0  0  0  0
 11 12  1  0  0  0  0
 12  7  2  0  0  0  0
 13 14  1  0  0  0  0
 13  2  1  0  0  0  0
 14 44  1  0  0  0  0
 15 45  1  0  0  0  0
 15 14  2  0  0  0  0
 16 15  1  0  0  0  0
 17 16  2  0  0  0  0
 17 18  1  0  0  0  0
 18 13  2  0  0  0  0
 19 50  1  0  0  0  0
 19  2  1  0  0  0  0
 19  6  1  0  0  0  0
 20 25  1  0  0  0  0
 20  6  1  0  0  0  0
 21 20  2  0  0  0  0
 22 23  2  0  0  0  0
 22 21  1  0  0  0  0
 23 24  1  0  0  0  0
 24 54  1  0  0  0  0
 24 25  2  0  0  0  0
 25 55  1  0  0  0  0
 26 56  1  0  0  0  0
 26 57  1  0  0  0  0
 26  3  1  0  0  0  0
 27 32  2  0  0  0  0
 27 28  1  0  0  0  0
 28 29  2  0  0  0  0
 29 30  1  0  0  0  0
 29 59  1  0  0  0  0
 30 60  1  0  0  0  0
 31 61  1  0  0  0  0
 31 30  2  0  0  0  0
 32 31  1  0  0  0  0
 33 34  1  0  0  0  0
 34 35  2  0  0  0  0
 34 63  1  0  0  0  0
 35 64  1  0  0  0  0
 36 65  1  0  0  0  0
 36 35  1  0  0  0  0
 37 36  2  0  0  0  0
 38 37  1  0  0  0  0
 38 33  2  0  0  0  0
 41 10  1  0  0  0  0
 42 11  1  0  0  0  0
 43 12  1  0  0  0  0
 46 16  1  0  0  0  0
 47 17  1  0  0  0  0
 48 18  1  0  0  0  0
 49 19  1  0  0  0  0
 51 21  1  0  0  0  0
 52 22  1  0  0  0  0
 53 23  1  0  0  0  0
 58 28  1  0  0  0  0
 62 32  1  0  0  0  0
 66 37  1  0  0  0  0
 67 38  1  0  0  0  0
M  END
$$$$
