CSD_code = TACSUM | q = 0 | S = 0 | Stoichiometry = C12H12Cl2HgS6 | MND = 8
 OpenBabel04212202103D

 33 32  0  0  0  0  0  0  0  0999 V2000
    2.6545    3.0070   -1.9104 Hg  0  0  0  0  0  0  0  0  0  0  0  0
    3.7275    3.0070   -3.9506 Cl  0  0  0  0  0  0  0  0  0  0  0  0
    1.5398    3.0070    0.2094 Cl  0  0  0  0  0  0  0  0  0  0  0  0
    5.4923    3.0070   -0.3247 S   0  0  0  0  0  0  0  0  0  0  0  0
    4.0713    5.8272   -1.1049 S   0  0  0  0  0  0  0  0  0  0  0  0
    1.1879    5.8274   -2.6214 S   0  0  0  0  0  0  0  0  0  0  0  0
   -0.2602    3.0070   -3.3504 S   0  0  0  0  0  0  0  0  0  0  0  0
    5.3101    4.3392    0.8104 C   0  0  0  0  0  0  0  0  0  0  0  0
    4.7311    5.4908    0.4913 C   0  0  0  0  0  0  0  0  0  0  0  0
    2.7214    6.8429   -0.6115 C   0  0  0  0  0  0  0  0  0  0  0  0
    1.5463    6.8430   -1.2295 C   0  0  0  0  0  0  0  0  0  0  0  0
   -0.5011    5.4908   -2.2606 C   0  0  0  0  0  0  0  0  0  0  0  0
   -1.0919    4.3391   -2.5567 C   0  0  0  0  0  0  0  0  0  0  0  0
    5.7132    4.1593    1.7949 H   0  0  0  0  0  0  0  0  0  0  0  0
    4.6388    6.2968    1.2028 H   0  0  0  0  0  0  0  0  0  0  0  0
    2.9183    7.4842    0.2339 H   0  0  0  0  0  0  0  0  0  0  0  0
    0.7381    7.4838   -0.9123 H   0  0  0  0  0  0  0  0  0  0  0  0
   -1.0349    6.2966   -1.7810 H   0  0  0  0  0  0  0  0  0  0  0  0
   -2.1316    4.1590   -2.3308 H   0  0  0  0  0  0  0  0  0  0  0  0
    4.0713    0.1868   -1.1049 S   0  0  0  0  0  0  0  0  0  0  0  0
    4.7311    0.5232    0.4913 C   0  0  0  0  0  0  0  0  0  0  0  0
    5.3101    1.6748    0.8104 C   0  0  0  0  0  0  0  0  0  0  0  0
    5.7132    1.8547    1.7949 H   0  0  0  0  0  0  0  0  0  0  0  0
    4.6388   -0.2828    1.2028 H   0  0  0  0  0  0  0  0  0  0  0  0
    2.7214   -0.8289   -0.6115 C   0  0  0  0  0  0  0  0  0  0  0  0
    1.5463   -0.8290   -1.2295 C   0  0  0  0  0  0  0  0  0  0  0  0
    1.1879    0.1866   -2.6214 S   0  0  0  0  0  0  0  0  0  0  0  0
   -1.0919    1.6749   -2.5567 C   0  0  0  0  0  0  0  0  0  0  0  0
   -0.5011    0.5232   -2.2606 C   0  0  0  0  0  0  0  0  0  0  0  0
   -1.0349   -0.2826   -1.7810 H   0  0  0  0  0  0  0  0  0  0  0  0
   -2.1316    1.8550   -2.3308 H   0  0  0  0  0  0  0  0  0  0  0  0
    0.7381   -1.4698   -0.9123 H   0  0  0  0  0  0  0  0  0  0  0  0
    2.9182   -1.4702    0.2339 H   0  0  0  0  0  0  0  0  0  0  0  0
  1  3  1  0  0  0  0
  2  1  1  0  0  0  0
  4 22  1  0  0  0  0
  4  8  1  0  0  0  0
  5 10  1  0  0  0  0
  5  9  1  0  0  0  0
  6 12  1  0  0  0  0
  6 11  1  0  0  0  0
  7 13  1  0  0  0  0
  7 28  1  0  0  0  0
  8 14  1  0  0  0  0
  9  8  2  0  0  0  0
  9 15  1  0  0  0  0
 10 16  1  0  0  0  0
 11 17  1  0  0  0  0
 11 10  2  0  0  0  0
 12 18  1  0  0  0  0
 13 19  1  0  0  0  0
 13 12  2  0  0  0  0
 20 25  1  0  0  0  0
 20 21  1  0  0  0  0
 21 22  2  0  0  0  0
 21 24  1  0  0  0  0
 22 23  1  0  0  0  0
 25 33  1  0  0  0  0
 26 32  1  0  0  0  0
 26 25  2  0  0  0  0
 27 29  1  0  0  0  0
 27 26  1  0  0  0  0
 28 31  1  0  0  0  0
 28 29  2  0  0  0  0
 29 30  1  0  0  0  0
M  END
$$$$
