CSD_code = TACZON | q = 0 | S = 0 | Stoichiometry = C18H29Cl5N2PV | MND = 4
 OpenBabel04212202103D

 56 56  0  0  0  0  0  0  0  0999 V2000
    9.7461   11.5361    0.4715 V   0  0  0  0  0  0  0  0  0  0  0  0
    6.9562   13.3634   -1.1920 Cl  0  0  0  0  0  0  0  0  0  0  0  0
    6.5537   18.2332    1.1265 Cl  0  0  0  0  0  0  0  0  0  0  0  0
   10.2792   14.6525    2.7145 Cl  0  0  0  0  0  0  0  0  0  0  0  0
    9.8139   11.0010   -1.5167 Cl  0  0  0  0  0  0  0  0  0  0  0  0
   11.6456   11.5103    1.2829 Cl  0  0  0  0  0  0  0  0  0  0  0  0
    7.7563    9.6922    2.2276 P   0  0  0  0  0  4  0  0  0  0  0  0
    9.1036   13.0051    0.6592 N   0  0  0  0  0  2  0  0  0  0  0  0
    8.7700   10.4878    1.3256 N   0  0  0  0  0  2  0  0  0  0  0  0
    8.5326   14.1861    0.7704 C   0  0  0  0  0  0  0  0  0  0  0  0
    7.4484   14.5564   -0.0581 C   0  0  0  0  0  0  0  0  0  0  0  0
    6.8398   15.7882    0.0411 C   0  0  0  0  0  0  0  0  0  0  0  0
    6.0183   16.0453   -0.6070 H   0  0  0  0  0  0  0  0  0  0  0  0
    7.3075   16.6894    0.9909 C   0  0  0  0  0  0  0  0  0  0  0  0
    8.3661   16.3756    1.8354 C   0  0  0  0  0  0  0  0  0  0  0  0
    8.7178   17.0849    2.5664 H   0  0  0  0  0  0  0  0  0  0  0  0
    8.9633   15.1388    1.7214 C   0  0  0  0  0  0  0  0  0  0  0  0
    7.9684   10.3558    4.0142 C   0  0  0  0  0  0  0  0  0  0  0  0
    6.8558    9.9339    4.9686 C   0  0  0  0  0  0  0  0  0  0  0  0
    7.1148   10.2567    5.9766 H   0  0  0  0  0  0  0  0  0  0  0  0
    6.7252    8.8553    4.9842 H   0  0  0  0  0  0  0  0  0  0  0  0
    5.9072   10.3963    4.7098 H   0  0  0  0  0  0  0  0  0  0  0  0
    9.3153    9.8308    4.5121 C   0  0  0  0  0  0  0  0  0  0  0  0
    9.5756   10.3303    5.4447 H   0  0  0  0  0  0  0  0  0  0  0  0
   10.0922   10.0583    3.7815 H   0  0  0  0  0  0  0  0  0  0  0  0
    9.2904    8.7640    4.7133 H   0  0  0  0  0  0  0  0  0  0  0  0
    8.0941   11.8800    3.9567 C   0  0  0  0  0  0  0  0  0  0  0  0
    8.5812   12.2339    4.8640 H   0  0  0  0  0  0  0  0  0  0  0  0
    7.1367   12.3837    3.8858 H   0  0  0  0  0  0  0  0  0  0  0  0
    8.7162   12.1679    3.1041 H   0  0  0  0  0  0  0  0  0  0  0  0
    6.0093   10.0383    1.5219 C   0  0  0  0  0  0  0  0  0  0  0  0
    5.6873   11.4852    1.8963 C   0  0  0  0  0  0  0  0  0  0  0  0
    4.8169   11.8215    1.3346 H   0  0  0  0  0  0  0  0  0  0  0  0
    6.5296   12.1268    1.6325 H   0  0  0  0  0  0  0  0  0  0  0  0
    5.4532   11.5894    2.9514 H   0  0  0  0  0  0  0  0  0  0  0  0
    6.0872    9.9891   -0.0061 C   0  0  0  0  0  0  0  0  0  0  0  0
    5.2591   10.5579   -0.4260 H   0  0  0  0  0  0  0  0  0  0  0  0
    6.0215    8.9813   -0.4012 H   0  0  0  0  0  0  0  0  0  0  0  0
    7.0166   10.4521   -0.3475 H   0  0  0  0  0  0  0  0  0  0  0  0
    4.9224    9.1048    2.0451 C   0  0  0  0  0  0  0  0  0  0  0  0
    3.9573    9.4441    1.6700 H   0  0  0  0  0  0  0  0  0  0  0  0
    4.8805    9.1053    3.1308 H   0  0  0  0  0  0  0  0  0  0  0  0
    5.0663    8.0831    1.7039 H   0  0  0  0  0  0  0  0  0  0  0  0
    8.2489    7.8430    2.0806 C   0  0  0  0  0  0  0  0  0  0  0  0
    7.6216    6.9377    3.1357 C   0  0  0  0  0  0  0  0  0  0  0  0
    7.8656    5.9009    2.9045 H   0  0  0  0  0  0  0  0  0  0  0  0
    6.5390    7.0332    3.1505 H   0  0  0  0  0  0  0  0  0  0  0  0
    8.0030    7.1504    4.1308 H   0  0  0  0  0  0  0  0  0  0  0  0
    9.7771    7.7519    2.1134 C   0  0  0  0  0  0  0  0  0  0  0  0
   10.0943    6.8187    1.6497 H   0  0  0  0  0  0  0  0  0  0  0  0
   10.1805    7.7673    3.1200 H   0  0  0  0  0  0  0  0  0  0  0  0
   10.2141    8.5770    1.5450 H   0  0  0  0  0  0  0  0  0  0  0  0
    7.8145    7.3911    0.6858 C   0  0  0  0  0  0  0  0  0  0  0  0
    8.2479    6.4152    0.4675 H   0  0  0  0  0  0  0  0  0  0  0  0
    8.1742    8.0967   -0.0633 H   0  0  0  0  0  0  0  0  0  0  0  0
    6.7360    7.2901    0.6088 H   0  0  0  0  0  0  0  0  0  0  0  0
  1  8  1  0  0  0  0
  1  6  1  0  0  0  0
  1  9  1  0  0  0  0
  2 11  1  0  0  0  0
  5  1  1  0  0  0  0
  7 18  1  0  0  0  0
  8 10  1  0  0  0  0
  9  7  1  0  0  0  0
 10 17  1  0  0  0  0
 11 12  1  0  0  0  0
 11 10  2  0  0  0  0
 12 14  2  0  0  0  0
 13 12  1  0  0  0  0
 14  3  1  0  0  0  0
 14 15  1  0  0  0  0
 15 16  1  0  0  0  0
 17 15  2  0  0  0  0
 17  4  1  0  0  0  0
 18 23  1  0  0  0  0
 18 19  1  0  0  0  0
 19 21  1  0  0  0  0
 19 20  1  0  0  0  0
 22 19  1  0  0  0  0
 23 26  1  0  0  0  0
 23 24  1  0  0  0  0
 25 23  1  0  0  0  0
 27 18  1  0  0  0  0
 27 28  1  0  0  0  0
 29 27  1  0  0  0  0
 30 27  1  0  0  0  0
 31 32  1  0  0  0  0
 31 40  1  0  0  0  0
 31  7  1  0  0  0  0
 32 35  1  0  0  0  0
 33 32  1  0  0  0  0
 34 32  1  0  0  0  0
 36 31  1  0  0  0  0
 37 36  1  0  0  0  0
 38 36  1  0  0  0  0
 39 36  1  0  0  0  0
 40 42  1  0  0  0  0
 41 40  1  0  0  0  0
 43 40  1  0  0  0  0
 44 49  1  0  0  0  0
 44  7  1  0  0  0  0
 44 45  1  0  0  0  0
 45 47  1  0  0  0  0
 45 48  1  0  0  0  0
 46 45  1  0  0  0  0
 49 51  1  0  0  0  0
 50 49  1  0  0  0  0
 52 49  1  0  0  0  0
 53 44  1  0  0  0  0
 54 53  1  0  0  0  0
 55 53  1  0  0  0  0
 56 53  1  0  0  0  0
M  END
$$$$
