CSD_code = TADGOV | q = 1 | S = 0 | Stoichiometry = C11H17ClN5PtS2(1+) | MND = 4
 OpenBabel04212202103D

 37 40  0  0  0  0  0  0  0  0999 V2000
    4.1135    5.2378   -1.3807 Pt  0  0  1  0  0  0  0  0  0  0  0  0
    6.0783    4.1437   -1.7046 Cl  0  0  0  0  0  0  0  0  0  0  0  0
    5.5718    5.2518    2.5700 N   0  0  0  0  0  0  0  0  0  0  0  0
    5.0356    5.0137    1.4058 C   0  0  0  0  0  3  0  0  0  0  0  0
    4.6715    4.0064    1.2403 H   0  0  0  0  0  0  0  0  0  0  0  0
    4.8836    5.8872    0.4005 N   0  0  0  0  0  0  0  0  0  0  0  0
    5.3702    7.1131    0.6617 C   0  0  0  0  0  0  0  0  0  0  0  0
    5.9640    7.4706    1.8848 C   0  0  0  0  0  0  0  0  0  0  0  0
    6.6151    6.6580    4.0630 N   0  0  0  0  0  0  0  0  0  0  0  0
    6.6775    5.8846    4.7046 H   0  0  0  0  0  0  0  0  0  0  0  0
    7.0135    7.5529    4.2929 H   0  0  0  0  0  0  0  0  0  0  0  0
    6.0667    6.4652    2.8715 C   0  0  0  0  0  0  0  0  0  0  0  0
    6.3458    8.7810    1.8349 N   0  0  0  0  0  0  0  0  0  0  0  0
    6.0119    9.1937    0.6547 C   0  0  0  0  0  0  0  0  0  0  0  0
    6.1867   10.1870    0.2930 H   0  0  0  0  0  0  0  0  0  0  0  0
    5.4096    8.2303   -0.1158 N   0  0  0  0  0  0  0  0  0  0  0  0
    4.9355    8.3520   -1.4685 C   0  0  0  0  0  0  0  0  0  0  0  0
    4.9655    7.3397   -1.9185 H   0  0  0  0  0  0  0  0  0  0  0  0
    5.6233    8.9935   -2.0246 H   0  0  0  0  0  0  0  0  0  0  0  0
    3.5241    8.9486   -1.5444 C   0  0  0  0  0  0  0  0  0  0  0  0
    3.5525    9.9653   -1.1439 H   0  0  0  0  0  0  0  0  0  0  0  0
    3.2385    9.0287   -2.5941 H   0  0  0  0  0  0  0  0  0  0  0  0
    2.4546    8.2113   -0.7477 C   0  0  0  0  0  0  0  0  0  0  0  0
    1.5038    8.7366   -0.8432 H   0  0  0  0  0  0  0  0  0  0  0  0
    2.7177    8.1741    0.3103 H   0  0  0  0  0  0  0  0  0  0  0  0
    2.0767    6.4610   -1.1534 S   0  0  1  0  0  3  0  0  0  0  0  0
    1.6793    6.5541   -2.9514 C   0  0  0  0  0  0  0  0  0  0  0  0
    0.6854    6.9956   -3.0397 H   0  0  0  0  0  0  0  0  0  0  0  0
    2.4061    7.2001   -3.4425 H   0  0  0  0  0  0  0  0  0  0  0  0
    1.6943    5.1601   -3.5423 C   0  0  0  0  0  0  0  0  0  0  0  0
    1.4824    5.1868   -4.6112 H   0  0  0  0  0  0  0  0  0  0  0  0
    0.9538    4.5266   -3.0519 H   0  0  0  0  0  0  0  0  0  0  0  0
    3.2984    4.2832   -3.3219 S   0  0  1  0  0  3  0  0  0  0  0  0
    4.3082    5.0917   -4.5950 C   0  0  0  0  0  0  0  0  0  0  0  0
    3.9699    4.7490   -5.5688 H   0  0  0  0  0  0  0  0  0  0  0  0
    5.3313    4.7655   -4.4245 H   0  0  0  0  0  0  0  0  0  0  0  0
    4.2478    6.1738   -4.5297 H   0  0  0  0  0  0  0  0  0  0  0  0
  1  2  1  6  0  0  0
  1 26  1  0  0  0  0
  1  6  1  0  0  0  0
  3 12  2  0  0  0  0
  4  3  1  0  0  0  0
  5  4  1  0  0  0  0
  6  7  1  0  0  0  0
  6  4  1  0  0  0  0
  7  8  2  0  0  0  0
  8 12  1  0  0  0  0
  9 11  1  0  0  0  0
  9 10  1  0  0  0  0
 12  9  1  0  0  0  0
 13  8  1  0  0  0  0
 14 13  2  0  0  0  0
 15 14  1  0  0  0  0
 16 14  1  0  0  0  0
 16  7  1  0  0  0  0
 17 16  1  0  0  0  0
 18 17  1  0  0  0  0
 19 17  1  0  0  0  0
 20 17  1  0  0  0  0
 20 21  1  0  0  0  0
 20 23  1  0  0  0  0
 22 20  1  0  0  0  0
 23 25  1  0  0  0  0
 24 23  1  0  0  0  0
 26 27  1  6  0  0  0
 26 23  1  0  0  0  0
 28 27  1  0  0  0  0
 29 27  1  0  0  0  0
 30 33  1  0  0  0  0
 30 32  1  0  0  0  0
 30 27  1  0  0  0  0
 31 30  1  0  0  0  0
 33 34  1  6  0  0  0
 33  1  1  0  0  0  0
 34 37  1  0  0  0  0
 34 36  1  0  0  0  0
 35 34  1  0  0  0  0
M  END
$$$$
