CSD_code = TADHAI | q = 0 | S = 0 | Stoichiometry = C10H15Cl3N5RhS2 | MND = 6
 OpenBabel04212202103D

 36 39  0  0  0  0  0  0  0  0999 V2000
   -0.5028    1.6967    7.2522 Rh  0  0  0  0  0  0  0  0  0  0  0  0
    1.3951    0.5877    6.4244 Cl  0  0  0  0  0  0  0  0  0  0  0  0
   -0.0410    3.4027    5.8115 Cl  0  0  0  0  0  0  0  0  0  0  0  0
   -2.2990    2.8337    8.2187 Cl  0  0  0  0  0  0  0  0  0  0  0  0
   -3.8832    1.3888    4.8056 N   0  0  0  0  0  0  0  0  0  0  0  0
   -2.7108    1.6487    5.3291 C   0  0  0  0  0  3  0  0  0  0  0  0
   -2.3518    2.6611    5.1915 H   0  0  0  0  0  0  0  0  0  0  0  0
   -1.9125    0.8114    6.0011 N   0  0  0  0  0  0  0  0  0  0  0  0
   -2.3937   -0.4457    6.0918 C   0  0  0  0  0  0  0  0  0  0  0  0
   -3.6600   -0.8118    5.5928 C   0  0  0  0  0  0  0  0  0  0  0  0
   -4.4224    0.1734    4.9401 C   0  0  0  0  0  0  0  0  0  0  0  0
   -5.6414   -0.0559    4.4446 N   0  0  0  0  0  0  0  0  0  0  0  0
   -6.1359    0.6976    4.0007 H   0  0  0  0  0  0  0  0  0  0  0  0
   -6.0537   -0.9658    4.5466 H   0  0  0  0  0  0  0  0  0  0  0  0
   -3.8948   -2.1365    5.8369 N   0  0  0  0  0  0  0  0  0  0  0  0
   -2.8271   -2.5546    6.4390 C   0  0  0  0  0  0  0  0  0  0  0  0
   -2.6769   -3.5664    6.7611 H   0  0  0  0  0  0  0  0  0  0  0  0
   -1.8723   -1.5939    6.6250 N   0  0  0  0  0  0  0  0  0  0  0  0
   -0.5521   -1.8458    7.1468 C   0  0  0  0  0  0  0  0  0  0  0  0
    0.1692   -1.2280    6.5946 H   0  0  0  0  0  0  0  0  0  0  0  0
   -0.3218   -2.9020    6.9827 H   0  0  0  0  0  0  0  0  0  0  0  0
   -0.4196   -1.5254    8.6325 C   0  0  0  0  0  0  0  0  0  0  0  0
    0.6306   -1.5524    8.9118 H   0  0  0  0  0  0  0  0  0  0  0  0
   -0.9972   -2.2149    9.2504 H   0  0  0  0  0  0  0  0  0  0  0  0
   -1.0918    0.1487    8.9599 S   0  0  1  0  0  3  0  0  0  0  0  0
   -0.0168    0.7309   10.3184 C   0  0  0  0  0  0  0  0  0  0  0  0
   -0.6107    1.4969   10.8189 H   0  0  0  0  0  0  0  0  0  0  0  0
    0.1336   -0.1074   10.9989 H   0  0  0  0  0  0  0  0  0  0  0  0
    1.2977    1.2920    9.8243 C   0  0  0  0  0  0  0  0  0  0  0  0
    1.8784    0.5367    9.2909 H   0  0  0  0  0  0  0  0  0  0  0  0
    1.8900    1.6905   10.6490 H   0  0  0  0  0  0  0  0  0  0  0  0
    1.0914    2.6365    8.5959 S   0  0  2  0  0  3  0  0  0  0  0  0
    0.3916    3.9496    9.6208 C   0  0  0  0  0  0  0  0  0  0  0  0
   -0.6149    3.7011    9.9429 H   0  0  0  0  0  0  0  0  0  0  0  0
    0.3494    4.8255    8.9797 H   0  0  0  0  0  0  0  0  0  0  0  0
    1.0615    4.1260   10.4572 H   0  0  0  0  0  0  0  0  0  0  0  0
  1  4  1  0  0  0  0
  1 32  1  0  0  0  0
  1 25  1  0  0  0  0
  2  1  1  0  0  0  0
  3  1  1  0  0  0  0
  5 11  2  0  0  0  0
  5  6  1  0  0  0  0
  6  8  1  0  0  0  0
  7  6  1  0  0  0  0
  8  9  1  0  0  0  0
  8  1  1  0  0  0  0
  9 18  1  0  0  0  0
 10 15  1  0  0  0  0
 10  9  2  0  0  0  0
 11 10  1  0  0  0  0
 12 14  1  0  0  0  0
 12 11  1  0  0  0  0
 13 12  1  0  0  0  0
 15 16  2  0  0  0  0
 16 18  1  0  0  0  0
 16 17  1  0  0  0  0
 18 19  1  0  0  0  0
 19 22  1  0  0  0  0
 20 19  1  0  0  0  0
 21 19  1  0  0  0  0
 22 23  1  0  0  0  0
 22 24  1  0  0  0  0
 25 22  1  6  0  0  0
 25 26  1  0  0  0  0
 26 27  1  0  0  0  0
 26 28  1  0  0  0  0
 29 26  1  0  0  0  0
 29 31  1  0  0  0  0
 30 29  1  0  0  0  0
 32 33  1  1  0  0  0
 32 29  1  0  0  0  0
 33 34  1  0  0  0  0
 33 36  1  0  0  0  0
 35 33  1  0  0  0  0
M  END
$$$$
