CSD_code = TADKOB | q = 0 | S = 0 | Stoichiometry = C32H27ClNNiPS2 | MND = 4
 OpenBabel04212202103D

 65 70  0  0  1  0  0  0  0  0999 V2000
    0.0236    0.8432   11.0639 Ni  0  0  1  0  0  0  0  0  0  0  0  0
    0.6315    0.3653   12.9726 Cl  0  0  0  0  0  0  0  0  0  0  0  0
   -0.7720    1.2766    9.0119 S   0  0  0  0  0  0  0  0  0  0  0  0
   -1.7731   -0.5234   10.9969 S   0  0  0  0  0  0  0  0  0  0  0  0
    1.6365    2.2750   11.0947 P   0  0  0  0  0  4  0  0  0  0  0  0
   -2.7662   -0.4156    8.5202 N   0  0  0  0  0  0  0  0  0  0  0  0
   -1.8678    0.0325    9.4014 C   0  0  1  0  0  3  0  0  0  0  0  0
   -2.7145   -0.0051    7.1606 C   0  0  0  0  0  0  0  0  0  0  0  0
   -1.5941   -0.2821    6.3887 C   0  0  0  0  0  0  0  0  0  0  0  0
   -1.5643    0.1057    5.0620 C   0  0  0  0  0  0  0  0  0  0  0  0
   -2.6494    0.7594    4.5027 C   0  0  0  0  0  0  0  0  0  0  0  0
   -3.7680    1.0290    5.2731 C   0  0  0  0  0  0  0  0  0  0  0  0
   -3.8041    0.6493    6.6026 C   0  0  0  0  0  0  0  0  0  0  0  0
   -3.6601   -1.5251    8.8275 C   0  0  0  0  0  0  0  0  0  0  0  0
   -3.0788   -2.7961    8.2641 C   0  0  0  0  0  0  0  0  0  0  0  0
   -3.3547   -3.1697    6.9551 C   0  0  0  0  0  0  0  0  0  0  0  0
   -2.7578   -4.2916    6.4083 C   0  0  0  0  0  0  0  0  0  0  0  0
   -1.8761   -5.0459    7.1637 C   0  0  0  0  0  0  0  0  0  0  0  0
   -1.5953   -4.6768    8.4683 C   0  0  0  0  0  0  0  0  0  0  0  0
   -2.1919   -3.5553    9.0167 C   0  0  0  0  0  0  0  0  0  0  0  0
    3.2452    2.0631   11.9127 C   0  0  0  0  0  0  0  0  0  0  0  0
    3.3005    2.1123   13.3039 C   0  0  0  0  0  0  0  0  0  0  0  0
    4.5076    1.9393   13.9536 C   0  0  0  0  0  0  0  0  0  0  0  0
    5.6656    1.7135   13.2264 C   0  0  0  0  0  0  0  0  0  0  0  0
    5.6129    1.6608   11.8437 C   0  0  0  0  0  0  0  0  0  0  0  0
    4.4077    1.8313   11.1856 C   0  0  0  0  0  0  0  0  0  0  0  0
    0.9107    3.6907   11.9740 C   0  0  0  0  0  0  0  0  0  0  0  0
    1.6586    4.7732   12.4254 C   0  0  0  0  0  0  0  0  0  0  0  0
    1.0253    5.8206   13.0703 C   0  0  0  0  0  0  0  0  0  0  0  0
   -0.3462    5.7922   13.2694 C   0  0  0  0  0  0  0  0  0  0  0  0
   -1.0936    4.7114   12.8288 C   0  0  0  0  0  0  0  0  0  0  0  0
   -0.4646    3.6641   12.1830 C   0  0  0  0  0  0  0  0  0  0  0  0
    2.1087    2.9368    9.4576 C   0  0  0  0  0  0  0  0  0  0  0  0
    2.1583    4.2865    9.1398 C   0  0  0  0  0  0  0  0  0  0  0  0
    2.5072    4.6783    7.8584 C   0  0  0  0  0  0  0  0  0  0  0  0
    2.8018    3.7324    6.8915 C   0  0  0  0  0  0  0  0  0  0  0  0
    2.7417    2.3828    7.2008 C   0  0  0  0  0  0  0  0  0  0  0  0
    2.3907    1.9882    8.4769 C   0  0  0  0  0  0  0  0  0  0  0  0
   -0.7564   -0.8002    6.8305 H   0  0  0  0  0  0  0  0  0  0  0  0
   -0.6926   -0.1090    4.4624 H   0  0  0  0  0  0  0  0  0  0  0  0
   -2.6236    1.0595    3.4659 H   0  0  0  0  0  0  0  0  0  0  0  0
   -4.6148    1.5406    4.8402 H   0  0  0  0  0  0  0  0  0  0  0  0
   -4.6687    0.8678    7.2122 H   0  0  0  0  0  0  0  0  0  0  0  0
   -4.0395   -2.5793    6.3620 H   0  0  0  0  0  0  0  0  0  0  0  0
   -2.9805   -4.5754    5.3902 H   0  0  0  0  0  0  0  0  0  0  0  0
   -1.4080   -5.9201    6.7357 H   0  0  0  0  0  0  0  0  0  0  0  0
   -0.9067   -5.2612    9.0603 H   0  0  0  0  0  0  0  0  0  0  0  0
   -1.9680   -3.2643   10.0323 H   0  0  0  0  0  0  0  0  0  0  0  0
   -4.6336   -1.3123    8.3786 H   0  0  0  0  0  0  0  0  0  0  0  0
   -3.7635   -1.5868    9.9130 H   0  0  0  0  0  0  0  0  0  0  0  0
    2.3935    2.2714   13.8674 H   0  0  0  0  0  0  0  0  0  0  0  0
    4.5444    1.9762   15.0321 H   0  0  0  0  0  0  0  0  0  0  0  0
    6.6075    1.5759   13.7367 H   0  0  0  0  0  0  0  0  0  0  0  0
    6.5135    1.4837   11.2737 H   0  0  0  0  0  0  0  0  0  0  0  0
    4.3733    1.7883   10.1061 H   0  0  0  0  0  0  0  0  0  0  0  0
    2.7305    4.7849   12.2828 H   0  0  0  0  0  0  0  0  0  0  0  0
    1.6040    6.6617   13.4234 H   0  0  0  0  0  0  0  0  0  0  0  0
   -0.8323    6.6119   13.7774 H   0  0  0  0  0  0  0  0  0  0  0  0
   -2.1601    4.6855   12.9956 H   0  0  0  0  0  0  0  0  0  0  0  0
   -1.0347    2.7898   11.8454 H   0  0  0  0  0  0  0  0  0  0  0  0
    1.9176    5.0295    9.8859 H   0  0  0  0  0  0  0  0  0  0  0  0
    2.5440    5.7299    7.6129 H   0  0  0  0  0  0  0  0  0  0  0  0
    3.0684    4.0459    5.8929 H   0  0  0  0  0  0  0  0  0  0  0  0
    2.9585    1.6424    6.4446 H   0  0  0  0  0  0  0  0  0  0  0  0
    2.3161    0.9358    8.7285 H   0  0  0  0  0  0  0  0  0  0  0  0
  1  5  1  0  0  0  0
  1  2  1  6  0  0  0
  3  7  1  0  0  0  0
  3  1  1  0  0  0  0
  4  1  1  0  0  0  0
  5 21  1  0  0  0  0
  5 27  1  0  0  0  0
  6 14  1  0  0  0  0
  7  6  1  1  0  0  0
  7  4  1  0  0  0  0
  8  6  1  0  0  0  0
  9 39  1  0  0  0  0
  9  8  2  0  0  0  0
 10  9  1  0  0  0  0
 11 10  2  0  0  0  0
 11 12  1  0  0  0  0
 12 13  2  0  0  0  0
 13  8  1  0  0  0  0
 13 43  1  0  0  0  0
 14 50  1  0  0  0  0
 15 14  1  0  0  0  0
 15 20  1  0  0  0  0
 16 15  2  0  0  0  0
 17 16  1  0  0  0  0
 17 18  2  0  0  0  0
 18 19  1  0  0  0  0
 19 20  2  0  0  0  0
 19 47  1  0  0  0  0
 20 48  1  0  0  0  0
 21 22  1  0  0  0  0
 22 51  1  0  0  0  0
 22 23  2  0  0  0  0
 23 52  1  0  0  0  0
 24 53  1  0  0  0  0
 24 23  1  0  0  0  0
 25 24  2  0  0  0  0
 26 25  1  0  0  0  0
 26 21  2  0  0  0  0
 27 32  2  0  0  0  0
 27 28  1  0  0  0  0
 28 29  2  0  0  0  0
 29 30  1  0  0  0  0
 29 57  1  0  0  0  0
 30 58  1  0  0  0  0
 31 59  1  0  0  0  0
 31 30  2  0  0  0  0
 32 31  1  0  0  0  0
 33  5  1  0  0  0  0
 34 33  1  0  0  0  0
 34 61  1  0  0  0  0
 35 34  2  0  0  0  0
 36 37  2  0  0  0  0
 36 35  1  0  0  0  0
 37 38  1  0  0  0  0
 38 65  1  0  0  0  0
 38 33  2  0  0  0  0
 40 10  1  0  0  0  0
 41 11  1  0  0  0  0
 42 12  1  0  0  0  0
 44 16  1  0  0  0  0
 45 17  1  0  0  0  0
 46 18  1  0  0  0  0
 49 14  1  0  0  0  0
 54 25  1  0  0  0  0
 55 26  1  0  0  0  0
 56 28  1  0  0  0  0
 60 32  1  0  0  0  0
 62 35  1  0  0  0  0
 63 36  1  0  0  0  0
 64 37  1  0  0  0  0
M  END
$$$$
