CSD_code = TAFQID | q = 0 | S = 0 | Stoichiometry = C16H18Cl5N4Rh | MND = 6
 OpenBabel04212202103D

 44 45  0  0  1  0  0  0  0  0999 V2000
    3.7675    2.8553    3.5915 Rh  0  0  0  0  0  0  0  0  0  0  0  0
    4.2505    4.3725    5.2072 Cl  0  0  0  0  0 15  0  0  0  0  0  0
    4.4992    7.4998    0.3868 Cl  0  0  0  0  0  0  0  0  0  0  0  0
    7.6864    6.0319    0.9126 Cl  0  0  0  0  0  0  0  0  0  0  0  0
   10.0267    3.6869    1.9942 Cl  0  0  0  0  0  0  0  0  0  0  0  0
   11.2512    5.8108    4.5344 Cl  0  0  0  0  0  0  0  0  0  0  0  0
    8.6419    5.5763    5.1197 N   0  0  0  0  0  0  0  0  0  0  0  0
    7.8707    4.2508    3.5305 N   0  0  0  0  0  0  0  0  0  0  0  0
    5.9328    4.3670    2.1560 N   0  0  0  0  0  0  0  0  0  0  0  0
    3.9950    5.2639    1.8235 N   0  0  0  0  0  0  0  0  0  0  0  0
    7.5882    4.9750    4.6473 C   0  0  0  0  0  0  0  0  0  0  0  0
    6.6034    5.0223    5.0748 H   0  0  0  0  0  0  0  0  0  0  0  0
    9.6677    5.2482    4.2969 C   0  0  0  0  0  0  0  0  0  0  0  0
    9.2160    4.4279    3.2947 C   0  0  0  0  0  0  0  0  0  0  0  0
    6.9519    3.5112    2.7153 C   0  0  0  0  0  0  0  0  0  0  0  0
    7.5261    3.0209    1.9199 H   0  0  0  0  0  0  0  0  0  0  0  0
    6.4108    2.7684    3.3290 H   0  0  0  0  0  0  0  0  0  0  0  0
    4.6066    4.2128    2.4003 C   0  0  2  0  0  3  0  0  0  0  0  0
    4.9230    6.0785    1.2179 C   0  0  0  0  0  0  0  0  0  0  0  0
    6.1469    5.5165    1.4235 C   0  0  0  0  0  0  0  0  0  0  0  0
    2.5848    5.5348    1.9054 C   0  0  0  0  0  0  0  0  0  0  0  0
    2.1487    4.7977    2.5881 H   0  0  0  0  0  0  0  0  0  0  0  0
    2.1198    5.4595    0.9213 H   0  0  0  0  0  0  0  0  0  0  0  0
    2.4222    6.5363    2.3036 H   0  0  0  0  0  0  0  0  0  0  0  0
    4.0516    1.2385    2.2532 C   0  0  1  0  0  0  0  0  0  0  0  0
    4.7780    1.4937    1.4805 H   0  0  0  0  0  0  0  0  0  0  0  0
    4.4102   -0.0219    3.0075 C   0  0  0  0  0  0  0  0  0  0  0  0
    5.4951   -0.0382    3.1422 H   0  0  0  0  0  0  0  0  0  0  0  0
    4.1505   -0.8943    2.3979 H   0  0  0  0  0  0  0  0  0  0  0  0
    3.7330   -0.1243    4.3877 C   0  0  0  0  0  0  0  0  0  0  0  0
    2.7873   -0.6616    4.3092 H   0  0  0  0  0  0  0  0  0  0  0  0
    4.3778   -0.7017    5.0527 H   0  0  0  0  0  0  0  0  0  0  0  0
    3.4788    1.2332    5.0051 C   0  0  0  0  0  3  0  0  0  0  0  0
    4.1076    1.4776    5.8618 H   0  0  0  0  0  0  0  0  0  0  0  0
    2.2956    1.9264    4.8605 C   0  0  0  0  0  3  0  0  0  0  0  0
    2.0347    2.6571    5.6266 H   0  0  0  0  0  0  0  0  0  0  0  0
    1.1225    1.4756    4.0209 C   0  0  0  0  0  0  0  0  0  0  0  0
    0.4273    2.3146    3.9324 H   0  0  0  0  0  0  0  0  0  0  0  0
    0.5932    0.6732    4.5456 H   0  0  0  0  0  0  0  0  0  0  0  0
    1.5252    1.0076    2.6087 C   0  0  0  0  0  0  0  0  0  0  0  0
    1.7123   -0.0669    2.6017 H   0  0  0  0  0  0  0  0  0  0  0  0
    0.6915    1.1927    1.9287 H   0  0  0  0  0  0  0  0  0  0  0  0
    2.7539    1.7257    2.0906 C   0  0  0  0  0  3  0  0  0  0  0  0
    2.5720    2.3552    1.2203 H   0  0  0  0  0  0  0  0  0  0  0  0
  3 19  1  0  0  0  0
  4 20  1  0  0  0  0
  5 14  1  0  0  0  0
  8 11  1  0  0  0  0
  9 18  1  0  0  0  0
  9 15  1  0  0  0  0
 10 21  1  0  0  0  0
 10 18  1  0  0  0  0
 11 12  1  0  0  0  0
 11  7  2  0  0  0  0
 13  6  1  0  0  0  0
 13  7  1  0  0  0  0
 14  8  1  0  0  0  0
 14 13  2  0  0  0  0
 15 17  1  0  0  0  0
 15  8  1  0  0  0  0
 16 15  1  0  0  0  0
 18  1  1  1  0  0  0
 19 20  2  0  0  0  0
 19 10  1  0  0  0  0
 20  9  1  0  0  0  0
 21 24  1  0  0  0  0
 21 22  1  0  0  0  0
 23 21  1  0  0  0  0
 25 26  1  6  0  0  0
 25 27  1  0  0  0  0
 25  1  1  0  0  0  0
 27 28  1  0  0  0  0
 27 30  1  0  0  0  0
 29 27  1  0  0  0  0
 30 33  1  0  0  0  0
 30 32  1  0  0  0  0
 31 30  1  0  0  0  0
 33 34  1  0  0  0  0
 35 33  1  0  0  0  0
 35 36  1  0  0  0  0
 37 39  1  0  0  0  0
 37 35  1  0  0  0  0
 38 37  1  0  0  0  0
 40 37  1  0  0  0  0
 41 40  1  0  0  0  0
 42 40  1  0  0  0  0
 43 25  1  0  0  0  0
 43 40  1  0  0  0  0
 44 43  1  0  0  0  0
M  END
$$$$
