CSD_code = TAFSAV | q = 0 | S = 0 | Stoichiometry = C14H17Cl2NTi | MND = 9
 OpenBabel04212202103D

 35 37  0  0  1  0  0  0  0  0999 V2000
    0.6867   10.9445    4.3504 Ti  0  0  0  0  0  0  0  0  0  0  0  0
   -1.1080   11.7625    5.3189 Cl  0  0  0  0  0  0  0  0  0  0  0  0
   -0.6061    9.0845    3.9797 Cl  0  0  0  0  0  0  0  0  0  0  0  0
    1.9852    9.3651    5.2931 N   0  0  0  0  0  4  0  0  0  0  0  0
    1.7710   11.9542    5.8036 C   0  0  0  0  0  0  0  0  0  0  0  0
    2.9344   11.3506    6.2888 C   0  0  0  0  0  0  0  0  0  0  0  0
    3.7570   11.9640    7.2229 C   0  0  0  0  0  0  0  0  0  0  0  0
    4.6466   11.4594    7.5758 H   0  0  0  0  0  0  0  0  0  0  0  0
    3.4331   13.2233    7.6948 C   0  0  0  0  0  0  0  0  0  0  0  0
    4.0663   13.7098    8.4219 H   0  0  0  0  0  0  0  0  0  0  0  0
    2.2909   13.8511    7.2282 C   0  0  0  0  0  0  0  0  0  0  0  0
    2.0318   14.8350    7.5924 H   0  0  0  0  0  0  0  0  0  0  0  0
    1.4758   13.2251    6.2963 C   0  0  0  0  0  0  0  0  0  0  0  0
    0.5887   13.7453    5.9515 H   0  0  0  0  0  0  0  0  0  0  0  0
    3.2453    9.9933    5.7205 C   0  0  0  0  0  0  0  0  0  0  0  0
    3.9016   10.1039    4.8472 H   0  0  0  0  0  0  0  0  0  0  0  0
    3.7656    9.3562    6.4538 H   0  0  0  0  0  0  0  0  0  0  0  0
    1.2462    8.9529    6.4988 C   0  0  0  0  0  0  0  0  0  0  0  0
    0.3164    8.4595    6.2088 H   0  0  0  0  0  0  0  0  0  0  0  0
    1.0063    9.8303    7.1100 H   0  0  0  0  0  0  0  0  0  0  0  0
    1.8496    8.2544    7.0951 H   0  0  0  0  0  0  0  0  0  0  0  0
    2.3006    8.1676    4.5080 C   0  0  0  0  0  0  0  0  0  0  0  0
    1.3778    7.6670    4.2171 H   0  0  0  0  0  0  0  0  0  0  0  0
    2.9155    7.4742    5.0968 H   0  0  0  0  0  0  0  0  0  0  0  0
    2.8475    8.4453    3.6058 H   0  0  0  0  0  0  0  0  0  0  0  0
    1.1324   10.6672    2.0398 C   0  0  0  0  0  0  0  0  0  0  0  0
    1.0175    9.7444    1.4861 H   0  0  0  0  0  0  0  0  0  0  0  0
    2.3233   11.1430    2.6188 C   0  0  0  0  0  0  0  0  0  0  0  0
    3.2993   10.6820    2.5281 H   0  0  0  0  0  0  0  0  0  0  0  0
    2.0742   12.4344    3.1369 C   0  0  0  0  0  0  0  0  0  0  0  0
    2.8208   13.1152    3.5223 H   0  0  0  0  0  0  0  0  0  0  0  0
    0.7199   12.7486    2.8845 C   0  0  0  0  0  0  0  0  0  0  0  0
    0.2410   13.6998    3.0817 H   0  0  0  0  0  0  0  0  0  0  0  0
    0.1381   11.6539    2.2102 C   0  0  2  0  0  0  0  0  0  0  0  0
   -0.8698   11.6148    1.8141 H   0  0  0  0  0  0  0  0  0  0  0  0
  1  4  1  0  0  0  0
  1  2  1  0  0  0  0
  1  5  1  0  0  0  0
  3  1  1  0  0  0  0
  4 15  1  0  0  0  0
  4 18  1  0  0  0  0
  5  6  2  0  0  0  0
  5 13  1  0  0  0  0
  6  7  1  0  0  0  0
  7  8  1  0  0  0  0
  7  9  2  0  0  0  0
  9 10  1  0  0  0  0
 11 12  1  0  0  0  0
 11  9  1  0  0  0  0
 13 11  2  0  0  0  0
 14 13  1  0  0  0  0
 15  6  1  0  0  0  0
 15 17  1  0  0  0  0
 16 15  1  0  0  0  0
 18 21  1  0  0  0  0
 18 20  1  0  0  0  0
 19 18  1  0  0  0  0
 22 24  1  0  0  0  0
 22  4  1  0  0  0  0
 23 22  1  0  0  0  0
 25 22  1  0  0  0  0
 26 34  1  0  0  0  0
 26 28  2  0  0  0  0
 27 26  1  0  0  0  0
 28 30  1  0  0  0  0
 29 28  1  0  0  0  0
 30 31  1  0  0  0  0
 32 33  1  0  0  0  0
 32 30  2  0  0  0  0
 34 35  1  6  0  0  0
 34 32  1  0  0  0  0
 34  1  1  0  0  0  0
M  END
$$$$
