CSD_code = TAFSID | q = 0 | S = 0 | Stoichiometry = C16H19Cl2NOTi | MND = 9
 OpenBabel04212202103D

 40 43  0  0  1  0  0  0  0  0999 V2000
    0.2897   11.6697    2.9379 Ti  0  0  0  0  0  0  0  0  0  0  0  0
   -1.4809   10.8713    1.9073 Cl  0  0  0  0  0  0  0  0  0  0  0  0
   -1.0621   13.4555    3.4273 Cl  0  0  0  0  0  0  0  0  0  0  0  0
    1.6623   16.1029    1.1265 O   0  0  0  0  0  0  0  0  0  0  0  0
    1.5837   13.3573    2.0924 N   0  0  0  0  0  4  0  0  0  0  0  0
    0.6902   11.8020    5.2727 C   0  0  0  0  0  0  0  0  0  0  0  0
    0.5268   12.6756    5.8903 H   0  0  0  0  0  0  0  0  0  0  0  0
    1.9085   11.4257    4.6785 C   0  0  0  0  0  0  0  0  0  0  0  0
    2.8597   11.9239    4.8214 H   0  0  0  0  0  0  0  0  0  0  0  0
    1.7269   10.1650    4.0646 C   0  0  0  0  0  0  0  0  0  0  0  0
    2.5092    9.5476    3.6443 H   0  0  0  0  0  0  0  0  0  0  0  0
    0.3860    9.7704    4.2747 C   0  0  0  0  0  0  0  0  0  0  0  0
   -0.0456    8.8156    4.0010 H   0  0  0  0  0  0  0  0  0  0  0  0
   -0.2545   10.7854    5.0168 C   0  0  2  0  0  0  0  0  0  0  0  0
   -1.2681   10.7496    5.3982 H   0  0  0  0  0  0  0  0  0  0  0  0
    1.3981   10.7816    1.4298 C   0  0  0  0  0  0  0  0  0  0  0  0
    2.5630   11.4295    1.0113 C   0  0  0  0  0  0  0  0  0  0  0  0
    3.4065   10.8954    0.0470 C   0  0  0  0  0  0  0  0  0  0  0  0
    4.2961   11.4332   -0.2536 H   0  0  0  0  0  0  0  0  0  0  0  0
    3.1056    9.6712   -0.5218 C   0  0  0  0  0  0  0  0  0  0  0  0
    3.7556    9.2469   -1.2726 H   0  0  0  0  0  0  0  0  0  0  0  0
    1.9643    8.9984   -0.1204 C   0  0  0  0  0  0  0  0  0  0  0  0
    1.7229    8.0408   -0.5587 H   0  0  0  0  0  0  0  0  0  0  0  0
    1.1272    9.5462    0.8408 C   0  0  0  0  0  0  0  0  0  0  0  0
    0.2418    8.9921    1.1324 H   0  0  0  0  0  0  0  0  0  0  0  0
    2.8593   12.7454    1.6767 C   0  0  0  0  0  0  0  0  0  0  0  0
    3.4688   12.5753    2.5744 H   0  0  0  0  0  0  0  0  0  0  0  0
    3.4337   13.3952    1.0051 H   0  0  0  0  0  0  0  0  0  0  0  0
    1.8208   14.5222    2.9671 C   0  0  0  0  0  0  0  0  0  0  0  0
    2.4629   14.2262    3.8015 H   0  0  0  0  0  0  0  0  0  0  0  0
    0.8512   14.8471    3.3573 H   0  0  0  0  0  0  0  0  0  0  0  0
    2.4542   15.7038    2.2199 C   0  0  0  0  0  0  0  0  0  0  0  0
    2.5094   16.5693    2.8827 H   0  0  0  0  0  0  0  0  0  0  0  0
    3.4731   15.4598    1.8796 H   0  0  0  0  0  0  0  0  0  0  0  0
    1.4668   15.0393    0.2238 C   0  0  0  0  0  0  0  0  0  0  0  0
    2.4226   14.7688   -0.2516 H   0  0  0  0  0  0  0  0  0  0  0  0
    0.7961   15.4193   -0.5488 H   0  0  0  0  0  0  0  0  0  0  0  0
    0.8214   13.8257    0.9085 C   0  0  0  0  0  0  0  0  0  0  0  0
   -0.1760   14.1248    1.2535 H   0  0  0  0  0  0  0  0  0  0  0  0
    0.7234   13.0006    0.1911 H   0  0  0  0  0  0  0  0  0  0  0  0
  1  3  1  0  0  0  0
  1 14  1  0  0  0  0
  2  1  1  0  0  0  0
  4 32  1  0  0  0  0
  5  1  1  0  0  0  0
  5 29  1  0  0  0  0
  6  7  1  0  0  0  0
  8  9  1  0  0  0  0
  8  6  2  0  0  0  0
 10 12  2  0  0  0  0
 10  8  1  0  0  0  0
 11 10  1  0  0  0  0
 12 14  1  0  0  0  0
 13 12  1  0  0  0  0
 14  6  1  0  0  0  0
 14 15  1  1  0  0  0
 16  1  1  0  0  0  0
 17 16  1  0  0  0  0
 17 26  1  0  0  0  0
 18 17  2  0  0  0  0
 19 18  1  0  0  0  0
 20 22  2  0  0  0  0
 20 18  1  0  0  0  0
 21 20  1  0  0  0  0
 22 24  1  0  0  0  0
 23 22  1  0  0  0  0
 24 25  1  0  0  0  0
 24 16  2  0  0  0  0
 26  5  1  0  0  0  0
 26 27  1  0  0  0  0
 28 26  1  0  0  0  0
 29 31  1  0  0  0  0
 29 30  1  0  0  0  0
 32 33  1  0  0  0  0
 32 29  1  0  0  0  0
 34 32  1  0  0  0  0
 35 38  1  0  0  0  0
 35  4  1  0  0  0  0
 36 35  1  0  0  0  0
 37 35  1  0  0  0  0
 38 39  1  0  0  0  0
 38  5  1  0  0  0  0
 40 38  1  0  0  0  0
M  END
$$$$
