CSD_code = TAGGOX | q = 0 | S = 0 | Stoichiometry = C10H20Br2FeO5 | MND = 7
 OpenBabel04212202103D

 38 37  0  0  0  0  0  0  0  0999 V2000
    2.9622    3.4588    2.8363 Fe  0  0  0  0  0  0  0  0  0  0  0  0
    4.3048    4.8549    4.1353 Br  0  0  0  0  0  0  0  0  0  0  0  0
    1.5973    1.9770    1.6555 Br  0  0  0  0  0  0  0  0  0  0  0  0
    4.2162    3.5175    1.0871 O   0  0  0  0  0  0  0  0  0  0  0  0
    4.0828    4.8271    0.5528 C   0  0  0  0  0  0  0  0  0  0  0  0
    2.5895    5.1833    0.5678 C   0  0  0  0  0  0  0  0  0  0  0  0
    2.1973    5.2306    1.9309 O   0  0  0  0  0  0  0  0  0  0  0  0
    0.8230    5.4046    2.2257 C   0  0  0  0  0  0  0  0  0  0  0  0
    0.6937    5.2572    3.7463 C   0  0  0  0  0  0  0  0  0  0  0  0
    1.0428    3.9251    4.0763 O   0  0  0  0  0  0  0  0  0  0  0  0
    1.0935    3.6114    5.4529 C   0  0  0  0  0  0  0  0  0  0  0  0
    1.4581    2.1299    5.5326 C   0  0  0  0  0  0  0  0  0  0  0  0
    2.7740    1.9840    5.0448 O   0  0  0  0  0  0  0  0  0  0  0  0
    3.1159    0.6727    4.6492 C   0  0  0  0  0  0  0  0  0  0  0  0
    4.5257    0.7171    4.0467 C   0  0  0  0  0  0  0  0  0  0  0  0
    4.5939    1.8203    3.1683 O   0  0  0  0  0  0  0  0  0  0  0  0
    5.4149    1.6937    2.0251 C   0  0  0  0  0  0  0  0  0  0  0  0
    5.5320    3.0775    1.3739 C   0  0  0  0  0  0  0  0  0  0  0  0
    4.6318    5.5461    1.1747 H   0  0  0  0  0  0  0  0  0  0  0  0
    4.4664    4.8527   -0.4747 H   0  0  0  0  0  0  0  0  0  0  0  0
    2.0210    4.4130    0.0317 H   0  0  0  0  0  0  0  0  0  0  0  0
    2.4318    6.1604    0.0951 H   0  0  0  0  0  0  0  0  0  0  0  0
    0.4899    6.4016    1.9121 H   0  0  0  0  0  0  0  0  0  0  0  0
    0.2222    4.6337    1.7271 H   0  0  0  0  0  0  0  0  0  0  0  0
   -0.3381    5.4639    4.0594 H   0  0  0  0  0  0  0  0  0  0  0  0
    1.3779    5.9616    4.2382 H   0  0  0  0  0  0  0  0  0  0  0  0
    1.8619    4.2126    5.9547 H   0  0  0  0  0  0  0  0  0  0  0  0
    0.1160    3.7878    5.9205 H   0  0  0  0  0  0  0  0  0  0  0  0
    0.7577    1.5608    4.9062 H   0  0  0  0  0  0  0  0  0  0  0  0
    1.3914    1.7745    6.5703 H   0  0  0  0  0  0  0  0  0  0  0  0
    3.1015   -0.0113    5.5096 H   0  0  0  0  0  0  0  0  0  0  0  0
    2.4020    0.3157    3.8942 H   0  0  0  0  0  0  0  0  0  0  0  0
    4.7170   -0.2223    3.5162 H   0  0  0  0  0  0  0  0  0  0  0  0
    5.2712    0.8527    4.8414 H   0  0  0  0  0  0  0  0  0  0  0  0
    6.4160    1.3427    2.3060 H   0  0  0  0  0  0  0  0  0  0  0  0
    4.9606    0.9884    1.3145 H   0  0  0  0  0  0  0  0  0  0  0  0
    6.1178    3.0046    0.4488 H   0  0  0  0  0  0  0  0  0  0  0  0
    6.0185    3.7725    2.0696 H   0  0  0  0  0  0  0  0  0  0  0  0
  1  2  1  0  0  0  0
  3  1  1  0  0  0  0
  4 18  1  0  0  0  0
  5  6  1  0  0  0  0
  5  4  1  0  0  0  0
  5 19  1  0  0  0  0
  6  7  1  0  0  0  0
  7  8  1  0  0  0  0
  8  9  1  0  0  0  0
  9 25  1  0  0  0  0
  9 10  1  0  0  0  0
  9 26  1  0  0  0  0
 10 11  1  0  0  0  0
 11 12  1  0  0  0  0
 11 28  1  0  0  0  0
 11 27  1  0  0  0  0
 12 30  1  0  0  0  0
 13 12  1  0  0  0  0
 14 13  1  0  0  0  0
 14 31  1  0  0  0  0
 15 14  1  0  0  0  0
 15 34  1  0  0  0  0
 16 15  1  0  0  0  0
 17 35  1  0  0  0  0
 17 16  1  0  0  0  0
 18 17  1  0  0  0  0
 18 38  1  0  0  0  0
 20  5  1  0  0  0  0
 21  6  1  0  0  0  0
 22  6  1  0  0  0  0
 23  8  1  0  0  0  0
 24  8  1  0  0  0  0
 29 12  1  0  0  0  0
 32 14  1  0  0  0  0
 33 15  1  0  0  0  0
 36 17  1  0  0  0  0
 37 18  1  0  0  0  0
M  END
$$$$
