CSD_code = TAGHIT | q = 1 | S = 0 | Stoichiometry = C5H12ClN4Pt(1+) | MND = 4
 OpenBabel04212202103D

 23 23  0  0  1  0  0  0  0  0999 V2000
    7.0111    7.1927    4.5454 Pt  0  0  0  0  0  0  0  0  0  0  0  0
    5.8887    6.8602    2.6115 Cl  0  0  0  0  0  0  0  0  0  0  0  0
    6.1316    5.4509    5.2161 N   0  0  0  0  0  4  0  0  0  0  0  0
    5.7556    5.0292    4.3580 H   0  0  0  0  0  0  0  0  0  0  0  0
    5.3360    5.6701    5.8207 H   0  0  0  0  0  0  0  0  0  0  0  0
    6.7210    4.7662    5.6920 H   0  0  0  0  0  0  0  0  0  0  0  0
    7.7161    8.9373    3.7010 N   0  0  0  0  0  4  0  0  0  0  0  0
    7.2113    9.7446    4.0752 H   0  0  0  0  0  0  0  0  0  0  0  0
    7.4552    8.8433    2.7117 H   0  0  0  0  0  0  0  0  0  0  0  0
    8.7180    9.1242    3.7634 H   0  0  0  0  0  0  0  0  0  0  0  0
    8.0543    7.4957    6.3180 N   0  0  0  0  0  0  0  0  0  0  0  0
    9.3223    7.0714    6.4457 C   0  0  1  0  0  3  0  0  0  0  0  0
    9.8802    6.4509    5.3871 N   0  0  0  0  0  0  0  0  0  0  0  0
    9.3106    6.2542    4.5713 H   0  0  0  0  0  0  0  0  0  0  0  0
   10.8029    6.0606    5.4491 H   0  0  0  0  0  0  0  0  0  0  0  0
   10.0351    7.2912    7.6381 C   0  0  0  0  0  0  0  0  0  0  0  0
   11.0513    6.9411    7.7159 H   0  0  0  0  0  0  0  0  0  0  0  0
    9.4215    7.9474    8.6763 C   0  0  0  0  0  0  0  0  0  0  0  0
    9.9518    8.1246    9.5981 H   0  0  0  0  0  0  0  0  0  0  0  0
    8.1023    8.3833    8.5271 C   0  0  0  0  0  0  0  0  0  0  0  0
    7.5942    8.9004    9.3225 H   0  0  0  0  0  0  0  0  0  0  0  0
    7.4643    8.1364    7.3369 C   0  0  0  0  0  0  0  0  0  0  0  0
    6.4430    8.4535    7.1670 H   0  0  0  0  0  0  0  0  0  0  0  0
  1  3  1  0  0  0  0
  1 11  1  0  0  0  0
  2  1  1  0  0  0  0
  3  6  1  0  0  0  0
  3  5  1  0  0  0  0
  4  3  1  0  0  0  0
  7 10  1  0  0  0  0
  7  8  1  0  0  0  0
  7  1  1  0  0  0  0
  9  7  1  0  0  0  0
 11 12  1  0  0  0  0
 11 22  1  0  0  0  0
 12 13  1  6  0  0  0
 12 16  1  0  0  0  0
 13 15  1  0  0  0  0
 14 13  1  0  0  0  0
 16 17  1  0  0  0  0
 16 18  2  0  0  0  0
 18 19  1  0  0  0  0
 20 18  1  0  0  0  0
 20 21  1  0  0  0  0
 22 20  2  0  0  0  0
 23 22  1  0  0  0  0
M  END
$$$$
