CSD_code = TAGREY | q = -1 | S = 0 | Stoichiometry = C4H12Cl4IrO2S2(1-) | MND = 6
 OpenBabel04212202103D

 25 24  0  0  0  0  0  0  0  0999 V2000
   -4.9200   -0.1282   10.3474 Ir  0  0  0  0  0  0  0  0  0  0  0  0
   -5.0245   -0.1301   12.6781 Cl  0  0  0  0  0  0  0  0  0  0  0  0
   -4.9206    2.2022   10.3471 Cl  0  0  0  0  0  0  0  0  0  0  0  0
   -4.9199   -2.4582   10.3487 Cl  0  0  0  0  0  0  0  0  0  0  0  0
   -2.6245   -0.1269   10.1982 S   0  0  0  0  0  0  0  0  0  0  0  0
   -1.8143   -0.1198   11.4015 O   0  0  0  0  0  1  0  0  0  0  0  0
   -2.0237    1.2422    9.1657 C   0  0  0  0  0  0  0  0  0  0  0  0
   -2.0205   -1.5052    9.1797 C   0  0  0  0  0  0  0  0  0  0  0  0
   -2.5349    1.1693    8.2131 H   0  0  0  0  0  0  0  0  0  0  0  0
   -0.9482    1.1493    9.0726 H   0  0  0  0  0  0  0  0  0  0  0  0
   -2.2933    2.1673    9.6637 H   0  0  0  0  0  0  0  0  0  0  0  0
   -2.5471   -1.4551    8.2339 H   0  0  0  0  0  0  0  0  0  0  0  0
   -2.2695   -2.4251    9.6974 H   0  0  0  0  0  0  0  0  0  0  0  0
   -0.9479   -1.3993    9.0676 H   0  0  0  0  0  0  0  0  0  0  0  0
   -4.8162   -0.1309    8.0162 Cl  0  0  0  0  0  0  0  0  0  0  0  0
   -7.2156   -0.1266   10.4969 S   0  0  0  0  0  0  0  0  0  0  0  0
   -8.0262   -0.1193    9.2938 O   0  0  0  0  0  1  0  0  0  0  0  0
   -7.8164    1.2423   11.5299 C   0  0  0  0  0  0  0  0  0  0  0  0
   -7.8194   -1.5050   11.5153 C   0  0  0  0  0  0  0  0  0  0  0  0
   -7.3051    1.1690   12.4824 H   0  0  0  0  0  0  0  0  0  0  0  0
   -8.8919    1.1493   11.6231 H   0  0  0  0  0  0  0  0  0  0  0  0
   -7.5468    2.1674   11.0321 H   0  0  0  0  0  0  0  0  0  0  0  0
   -7.2927   -1.4551   12.4610 H   0  0  0  0  0  0  0  0  0  0  0  0
   -7.5704   -2.4249   10.9973 H   0  0  0  0  0  0  0  0  0  0  0  0
   -8.8920   -1.3993   11.6275 H   0  0  0  0  0  0  0  0  0  0  0  0
  1  4  1  0  0  0  0
  1 16  1  0  0  0  0
  1  2  1  0  0  0  0
  3  1  1  0  0  0  0
  5  1  1  0  0  0  0
  5  6  1  0  0  0  0
  7 11  1  0  0  0  0
  7  5  1  0  0  0  0
  8 13  1  0  0  0  0
  8  5  1  0  0  0  0
  9  7  1  0  0  0  0
 10  7  1  0  0  0  0
 12  8  1  0  0  0  0
 14  8  1  0  0  0  0
 15  1  1  0  0  0  0
 16 19  1  0  0  0  0
 16 18  1  0  0  0  0
 17 16  1  0  0  0  0
 18 21  1  0  0  0  0
 18 20  1  0  0  0  0
 19 25  1  0  0  0  0
 19 23  1  0  0  0  0
 22 18  1  0  0  0  0
 24 19  1  0  0  0  0
M  END
$$$$
