CSD_code = TAHRAW | q = 0 | S = 0 | Stoichiometry = C24H27Cl2N4OPPd | MND = 4
 OpenBabel04212202103D

 60 64  0  0  1  0  0  0  0  0999 V2000
    0.2132    1.2269    4.8477 Pd  0  0  0  0  0  0  0  0  0  0  0  0
   -1.3913    2.0184    6.2140 Cl  0  0  0  0  0  0  0  0  0  0  0  0
   -1.2571    1.0089    3.1835 Cl  0  0  0  0  0  0  0  0  0  0  0  0
    1.7398    0.2135    3.5282 P   0  0  0  0  0  4  0  0  0  0  0  0
    4.2618   -2.8779    4.3243 O   0  0  0  0  0  0  0  0  0  0  0  0
    2.3643    0.7863    6.9503 N   0  0  2  0  0  0  0  0  0  0  0  0
    1.5648    1.6504    6.3285 N   0  0  0  0  0  0  0  0  0  0  0  0
    5.1311   -1.5999    7.3209 N   0  0  0  0  0  0  0  0  0  0  0  0
    4.6582   -1.2700    8.5228 N   0  0  0  0  0  0  0  0  0  0  0  0
    3.4024   -0.1453    4.2880 C   0  0  0  0  0  0  0  0  0  0  0  0
    4.0241   -0.6373    3.5347 H   0  0  0  0  0  0  0  0  0  0  0  0
    3.8326    0.8394    4.5026 H   0  0  0  0  0  0  0  0  0  0  0  0
    2.3709   -0.6057    6.6038 C   0  0  0  0  0  0  0  0  0  0  0  0
    1.3733   -0.8459    6.1968 H   0  0  0  0  0  0  0  0  0  0  0  0
    2.5355   -1.1806    7.5197 H   0  0  0  0  0  0  0  0  0  0  0  0
    4.8706   -0.7808    6.1745 C   0  0  0  0  0  0  0  0  0  0  0  0
    5.6046   -1.0301    5.4058 H   0  0  0  0  0  0  0  0  0  0  0  0
    4.9905    0.2664    6.4662 H   0  0  0  0  0  0  0  0  0  0  0  0
    3.4547   -0.9885    5.5724 C   0  0  2  0  0  0  0  0  0  0  0  0
    3.2769   -2.4800    5.2489 C   0  0  0  0  0  0  0  0  0  0  0  0
    3.3682   -3.0737    6.1727 H   0  0  0  0  0  0  0  0  0  0  0  0
    2.2754   -2.6595    4.8361 H   0  0  0  0  0  0  0  0  0  0  0  0
    4.1450   -4.2295    3.9566 C   0  0  0  0  0  0  0  0  0  0  0  0
    4.2638   -4.8870    4.8264 H   0  0  0  0  0  0  0  0  0  0  0  0
    4.9396   -4.4256    3.2399 H   0  0  0  0  0  0  0  0  0  0  0  0
    3.1725   -4.4289    3.4921 H   0  0  0  0  0  0  0  0  0  0  0  0
    3.0758    1.4059    7.9121 C   0  0  0  0  0  3  0  0  0  0  0  0
    3.7504    0.8547    8.5385 H   0  0  0  0  0  0  0  0  0  0  0  0
    2.7181    2.7351    7.8883 C   0  0  0  0  0  0  0  0  0  0  0  0
    3.0821    3.5198    8.5180 H   0  0  0  0  0  0  0  0  0  0  0  0
    1.7596    2.8383    6.8751 C   0  0  0  0  0  0  0  0  0  0  0  0
    1.2031    3.6965    6.5409 H   0  0  0  0  0  0  0  0  0  0  0  0
    5.8105   -2.7640    7.3601 C   0  0  0  0  0  0  0  0  0  0  0  0
    6.2592   -3.1792    6.4806 H   0  0  0  0  0  0  0  0  0  0  0  0
    5.7781   -3.2049    8.6621 C   0  0  0  0  0  0  0  0  0  0  0  0
    6.2194   -4.0918    9.0666 H   0  0  0  0  0  0  0  0  0  0  0  0
    5.0430   -2.2274    9.3448 C   0  0  0  0  0  0  0  0  0  0  0  0
    4.7847   -2.1841   10.3839 H   0  0  0  0  0  0  0  0  0  0  0  0
    2.2030    0.9711    1.9442 C   0  0  0  0  0  0  0  0  0  0  0  0
    1.2589    0.9017    0.9190 C   0  0  0  0  0  0  0  0  0  0  0  0
    0.3253    0.3860    1.0968 H   0  0  0  0  0  0  0  0  0  0  0  0
    1.5063    1.5105   -0.2962 C   0  0  0  0  0  0  0  0  0  0  0  0
    0.7700    1.4529   -1.0836 H   0  0  0  0  0  0  0  0  0  0  0  0
    2.6915    2.1993   -0.5010 C   0  0  0  0  0  0  0  0  0  0  0  0
    2.8851    2.6758   -1.4505 H   0  0  0  0  0  0  0  0  0  0  0  0
    3.6234    2.2863    0.5191 C   0  0  0  0  0  0  0  0  0  0  0  0
    4.5429    2.8327    0.3666 H   0  0  0  0  0  0  0  0  0  0  0  0
    3.3815    1.6824    1.7409 C   0  0  0  0  0  0  0  0  0  0  0  0
    4.1153    1.7744    2.5283 H   0  0  0  0  0  0  0  0  0  0  0  0
    1.1599   -1.4310    3.0039 C   0  0  0  0  0  0  0  0  0  0  0  0
    0.0598   -1.9821    3.6562 C   0  0  0  0  0  0  0  0  0  0  0  0
   -0.4518   -1.4014    4.4283 H   0  0  0  0  0  0  0  0  0  0  0  0
   -0.3968   -3.2387    3.3009 C   0  0  0  0  0  0  0  0  0  0  0  0
   -1.2557   -3.6618    3.7995 H   0  0  0  0  0  0  0  0  0  0  0  0
    0.2450   -3.9490    2.2984 C   0  0  0  0  0  0  0  0  0  0  0  0
   -0.1136   -4.9283    2.0176 H   0  0  0  0  0  0  0  0  0  0  0  0
    1.3410   -3.4027    1.6483 C   0  0  0  0  0  0  0  0  0  0  0  0
    1.8345   -3.9565    0.8629 H   0  0  0  0  0  0  0  0  0  0  0  0
    1.8003   -2.1453    1.9971 C   0  0  0  0  0  0  0  0  0  0  0  0
    2.6501   -1.7135    1.4875 H   0  0  0  0  0  0  0  0  0  0  0  0
  1  2  1  0  0  0  0
  1  7  1  0  0  0  0
  3  1  1  0  0  0  0
  4 10  1  0  0  0  0
  4  1  1  0  0  0  0
  5 20  1  0  0  0  0
  6 27  1  1  0  0  0
  7 31  1  0  0  0  0
  7  6  1  0  0  0  0
  8 33  1  0  0  0  0
  8  9  1  0  0  0  0
  9 37  2  0  0  0  0
 10 12  1  0  0  0  0
 10 19  1  0  0  0  0
 11 10  1  0  0  0  0
 13  6  1  0  0  0  0
 13 15  1  0  0  0  0
 14 13  1  0  0  0  0
 16 18  1  0  0  0  0
 16  8  1  0  0  0  0
 17 16  1  0  0  0  0
 19 20  1  6  0  0  0
 19 16  1  0  0  0  0
 19 13  1  0  0  0  0
 20 21  1  0  0  0  0
 22 20  1  0  0  0  0
 23  5  1  0  0  0  0
 23 24  1  0  0  0  0
 25 23  1  0  0  0  0
 26 23  1  0  0  0  0
 27 28  1  0  0  0  0
 29 27  1  0  0  0  0
 29 30  1  0  0  0  0
 31 29  2  0  0  0  0
 32 31  1  0  0  0  0
 33 35  2  0  0  0  0
 34 33  1  0  0  0  0
 35 36  1  0  0  0  0
 35 37  1  0  0  0  0
 37 38  1  0  0  0  0
 39  4  1  0  0  0  0
 40 41  1  0  0  0  0
 40 39  2  0  0  0  0
 42 40  1  0  0  0  0
 43 42  1  0  0  0  0
 44 42  2  0  0  0  0
 44 46  1  0  0  0  0
 45 44  1  0  0  0  0
 46 48  2  0  0  0  0
 47 46  1  0  0  0  0
 48 39  1  0  0  0  0
 48 49  1  0  0  0  0
 50  4  1  0  0  0  0
 50 51  1  0  0  0  0
 51 52  1  0  0  0  0
 53 51  2  0  0  0  0
 53 54  1  0  0  0  0
 55 53  1  0  0  0  0
 56 55  1  0  0  0  0
 57 59  1  0  0  0  0
 57 55  2  0  0  0  0
 58 57  1  0  0  0  0
 59 50  2  0  0  0  0
 60 59  1  0  0  0  0
M  END
$$$$
