CSD_code = TAJDOZ | q = 0 | S = 0 | Stoichiometry = C9H12CdI2N4OS | MND = 5
 OpenBabel04212202103D

 30 31  0  0  1  0  0  0  0  0999 V2000
   11.8189    8.3262    6.2563 Cd  0  0  0  0  0  0  0  0  0  0  0  0
   10.5215   10.0587    4.6025 I   0  0  0  0  0  0  0  0  0  0  0  0
   14.2715    7.2492    6.2467 I   0  0  0  0  0  0  0  0  0  0  0  0
   11.5051    9.9266    8.6871 S   0  0  0  0  0  0  0  0  0  0  0  0
    8.1717   13.8498    8.7045 O   0  0  0  0  0  0  0  0  0  0  0  0
    8.5931   14.2459    7.9322 H   0  0  0  0  0  0  0  0  0  0  0  0
   10.5322    6.1590    5.9348 N   0  0  0  0  0  0  0  0  0  0  0  0
    9.4763    8.1770    7.4027 N   0  0  0  0  0  0  0  0  0  0  0  0
    9.0269    9.2889    7.9686 N   0  0  0  0  0  0  0  0  0  0  0  0
    8.0318    9.5210    7.9006 H   0  0  0  0  0  0  0  0  0  0  0  0
    9.3326   11.3845    8.8580 N   0  0  0  0  0  0  0  0  0  0  0  0
    8.3858   11.6224    8.5812 H   0  0  0  0  0  0  0  0  0  0  0  0
    9.2145    6.1763    6.1800 C   0  0  2  0  0  3  0  0  0  0  0  0
    8.3742    5.1395    5.7698 C   0  0  0  0  0  0  0  0  0  0  0  0
    7.3155    5.1909    5.9725 H   0  0  0  0  0  0  0  0  0  0  0  0
    8.9229    4.0538    5.1112 C   0  0  0  0  0  0  0  0  0  0  0  0
    8.2961    3.2373    4.7856 H   0  0  0  0  0  0  0  0  0  0  0  0
   10.2893    4.0358    4.8787 C   0  0  0  0  0  0  0  0  0  0  0  0
   10.7599    3.2091    4.3720 H   0  0  0  0  0  0  0  0  0  0  0  0
   11.0490    5.1168    5.3063 C   0  0  0  0  0  0  0  0  0  0  0  0
   12.1189    5.1426    5.1364 H   0  0  0  0  0  0  0  0  0  0  0  0
    8.6807    7.3323    6.8736 C   0  0  0  0  0  0  0  0  0  0  0  0
    7.5952    7.4608    6.8950 H   0  0  0  0  0  0  0  0  0  0  0  0
    9.8889   10.2294    8.4777 C   0  0  1  0  0  3  0  0  0  0  0  0
   10.1146   12.5217    9.2860 C   0  0  0  0  0  0  0  0  0  0  0  0
   10.7580   12.8607    8.4630 H   0  0  0  0  0  0  0  0  0  0  0  0
   10.7574   12.2319   10.1203 H   0  0  0  0  0  0  0  0  0  0  0  0
    9.1382   13.6249    9.7017 C   0  0  0  0  0  0  0  0  0  0  0  0
    8.5770   13.3103   10.5850 H   0  0  0  0  0  0  0  0  0  0  0  0
    9.6919   14.5385    9.9439 H   0  0  0  0  0  0  0  0  0  0  0  0
  1  4  1  0  0  0  0
  2  1  1  0  0  0  0
  3  1  1  0  0  0  0
  5 28  1  0  0  0  0
  6  5  1  0  0  0  0
  7 13  1  0  0  0  0
  7  1  1  0  0  0  0
  8  9  1  0  0  0  0
  9 24  1  0  0  0  0
 10  9  1  0  0  0  0
 11 25  1  0  0  0  0
 12 11  1  0  0  0  0
 13 14  1  6  0  0  0
 13 22  1  0  0  0  0
 14 15  1  0  0  0  0
 16 14  2  0  0  0  0
 17 16  1  0  0  0  0
 18 16  1  0  0  0  0
 18 20  2  0  0  0  0
 19 18  1  0  0  0  0
 20  7  1  0  0  0  0
 21 20  1  0  0  0  0
 22 23  1  0  0  0  0
 22  8  2  0  0  0  0
 24  4  1  0  0  0  0
 24 11  1  1  0  0  0
 25 28  1  0  0  0  0
 25 27  1  0  0  0  0
 26 25  1  0  0  0  0
 28 30  1  0  0  0  0
 28 29  1  0  0  0  0
M  END
$$$$
