CSD_code = TAJNEY | q = 0 | S = 0 | Stoichiometry = C16H24Cl2OSi3Zr | MND = 12
 OpenBabel04212202103D

 47 50  0  0  1  0  0  0  0  0999 V2000
    3.8500    1.3532    1.3866 Zr  0  0  0  0  0  0  0  0  0  0  0  0
    5.2627    0.2860   -0.1608 Cl  0  0  0  0  0  0  0  0  0  0  0  0
    2.4922   -0.5358    1.5231 Cl  0  0  0  0  0  0  0  0  0  0  0  0
    2.4446    1.5747    4.6574 Si  0  0  0  0  0  0  0  0  0  0  0  0
    4.0437    4.3487    2.6308 Si  0  0  0  0  0  0  0  0  0  0  0  0
    0.6591    2.6846    2.2563 Si  0  0  0  0  0  0  0  0  0  0  0  0
    1.4085    2.4102    3.6931 O   0  0  0  0  0  0  0  0  0  0  0  0
    4.0786    1.5586    3.7318 C   0  0  2  0  0  0  0  0  0  0  0  0
    4.7797    2.6762    3.1544 C   0  0  1  0  0  3  0  0  0  0  0  0
    5.9490    2.1550    2.5377 C   0  0  0  0  0  3  0  0  0  0  0  0
    6.7271    2.7409    2.0616 H   0  0  0  0  0  0  0  0  0  0  0  0
    6.0178    0.7694    2.7793 C   0  0  0  0  0  0  0  0  0  0  0  0
    6.8406    0.1184    2.5117 H   0  0  0  0  0  0  0  0  0  0  0  0
    4.8675    0.3983    3.4959 C   0  0  0  0  0  0  0  0  0  0  0  0
    4.6613   -0.5892    3.8946 H   0  0  0  0  0  0  0  0  0  0  0  0
    2.5579    2.5559    6.2873 C   0  0  0  0  0  0  0  0  0  0  0  0
    2.9799    1.9392    7.0731 H   0  0  0  0  0  0  0  0  0  0  0  0
    1.5732    2.8748    6.6112 H   0  0  0  0  0  0  0  0  0  0  0  0
    3.1807    3.4385    6.1948 H   0  0  0  0  0  0  0  0  0  0  0  0
    1.7679   -0.1760    4.9628 C   0  0  0  0  0  0  0  0  0  0  0  0
    2.3900   -0.7238    5.6630 H   0  0  0  0  0  0  0  0  0  0  0  0
    1.7143   -0.7473    4.0407 H   0  0  0  0  0  0  0  0  0  0  0  0
    0.7676   -0.1302    5.3819 H   0  0  0  0  0  0  0  0  0  0  0  0
    5.4573    5.5358    2.1283 C   0  0  0  0  0  0  0  0  0  0  0  0
    6.1411    5.0968    1.4102 H   0  0  0  0  0  0  0  0  0  0  0  0
    6.0377    5.8274    2.9968 H   0  0  0  0  0  0  0  0  0  0  0  0
    5.0558    6.4412    1.6865 H   0  0  0  0  0  0  0  0  0  0  0  0
    2.9497    5.2792    3.8762 C   0  0  0  0  0  0  0  0  0  0  0  0
    2.1193    4.6782    4.2205 H   0  0  0  0  0  0  0  0  0  0  0  0
    2.5535    6.1828    3.4253 H   0  0  0  0  0  0  0  0  0  0  0  0
    3.5353    5.5792    4.7386 H   0  0  0  0  0  0  0  0  0  0  0  0
   -0.5310    1.2534    1.8668 C   0  0  0  0  0  0  0  0  0  0  0  0
    0.0033    0.3168    1.7372 H   0  0  0  0  0  0  0  0  0  0  0  0
   -1.0976    1.4459    0.9616 H   0  0  0  0  0  0  0  0  0  0  0  0
   -1.2432    1.1189    2.6749 H   0  0  0  0  0  0  0  0  0  0  0  0
   -0.2903    4.3243    2.4611 C   0  0  0  0  0  0  0  0  0  0  0  0
   -1.0355    4.4317    1.6807 H   0  0  0  0  0  0  0  0  0  0  0  0
    0.3629    5.1880    2.4102 H   0  0  0  0  0  0  0  0  0  0  0  0
   -0.8055    4.3513    3.4150 H   0  0  0  0  0  0  0  0  0  0  0  0
    2.0429    2.8261    0.9944 C   0  0  1  0  0  0  0  0  0  0  0  0
    3.2260    3.6441    1.0663 C   0  0  2  0  0  3  0  0  0  0  0  0
    3.9787    3.3842   -0.1106 C   0  0  0  0  0  0  0  0  0  0  0  0
    4.8982    3.8828   -0.3957 H   0  0  0  0  0  0  0  0  0  0  0  0
    3.2615    2.4887   -0.9270 C   0  0  0  0  0  0  0  0  0  0  0  0
    3.5405    2.1780   -1.9259 H   0  0  0  0  0  0  0  0  0  0  0  0
    2.0843    2.1327   -0.2474 C   0  0  0  0  0  3  0  0  0  0  0  0
    1.2871    1.5134   -0.6442 H   0  0  0  0  0  0  0  0  0  0  0  0
  1  3  1  0  0  0  0
  1  8  1  0  0  0  0
  2  1  1  0  0  0  0
  4 20  1  0  0  0  0
  4 16  1  0  0  0  0
  5  9  1  0  0  0  0
  5 28  1  0  0  0  0
  6 36  1  0  0  0  0
  6  7  1  0  0  0  0
  7  4  1  0  0  0  0
  8 14  1  1  0  0  0
  8  4  1  0  0  0  0
  9 10  1  6  0  0  0
  9  8  1  0  0  0  0
 10 12  1  0  0  0  0
 11 10  1  0  0  0  0
 12 14  2  0  0  0  0
 13 12  1  0  0  0  0
 14 15  1  0  0  0  0
 16 18  1  0  0  0  0
 16 17  1  0  0  0  0
 19 16  1  0  0  0  0
 20 23  1  0  0  0  0
 20 21  1  0  0  0  0
 22 20  1  0  0  0  0
 24  5  1  0  0  0  0
 24 26  1  0  0  0  0
 25 24  1  0  0  0  0
 27 24  1  0  0  0  0
 28 29  1  0  0  0  0
 28 31  1  0  0  0  0
 30 28  1  0  0  0  0
 32  6  1  0  0  0  0
 32 35  1  0  0  0  0
 33 32  1  0  0  0  0
 34 32  1  0  0  0  0
 36 39  1  0  0  0  0
 37 36  1  0  0  0  0
 38 36  1  0  0  0  0
 40 46  1  6  0  0  0
 40 41  1  0  0  0  0
 40  1  1  0  0  0  0
 40  6  1  0  0  0  0
 41 42  1  1  0  0  0
 41  5  1  0  0  0  0
 43 42  1  0  0  0  0
 44 46  1  0  0  0  0
 44 42  2  0  0  0  0
 45 44  1  0  0  0  0
 47 46  1  0  0  0  0
M  END
$$$$
