CSD_code = TAJTED | q = 0 | S = 0 | Stoichiometry = C6H14Cl2N2O2Pt | MND = 4
 OpenBabel04212202103D

 27 28  0  0  1  0  0  0  0  0999 V2000
    9.7292    4.1587    5.9215 Pt  0  0  0  0  0  0  0  0  0  0  0  0
   11.5964    5.2025    6.5613 Cl  0  0  0  0  0  0  0  0  0  0  0  0
   10.7564    2.9395    4.3584 Cl  0  0  0  0  0  0  0  0  0  0  0  0
    5.2271    4.1915    5.0017 O   0  0  0  0  0  0  0  0  0  0  0  0
    6.5896    4.6104    9.2537 O   0  0  0  0  0  0  0  0  0  0  0  0
    8.5573    5.2056    7.3707 N   0  0  0  0  0  4  0  0  0  0  0  0
    7.8292    3.2999    5.4484 N   0  0  0  0  0  4  0  0  0  0  0  0
    7.1520    5.0571    6.9938 C   0  0  1  0  0  0  0  0  0  0  0  0
    6.9189    3.5989    6.5536 C   0  0  1  0  0  0  0  0  0  0  0  0
    5.4483    3.3927    6.1465 C   0  0  1  0  0  0  0  0  0  0  0  0
    4.5242    3.7614    7.3106 C   0  0  0  0  0  0  0  0  0  0  0  0
    4.7542    5.2075    7.7420 C   0  0  0  0  0  0  0  0  0  0  0  0
    6.2125    5.4202    8.1584 C   0  0  1  0  0  0  0  0  0  0  0  0
    6.9382    5.7103    6.1414 H   0  0  0  0  0  0  0  0  0  0  0  0
    7.1538    2.9442    7.3994 H   0  0  0  0  0  0  0  0  0  0  0  0
    5.2984    2.3302    5.8894 H   0  0  0  0  0  0  0  0  0  0  0  0
    3.4822    3.6240    7.0146 H   0  0  0  0  0  0  0  0  0  0  0  0
    4.7336    3.0889    8.1434 H   0  0  0  0  0  0  0  0  0  0  0  0
    4.0911    5.4566    8.5731 H   0  0  0  0  0  0  0  0  0  0  0  0
    4.5305    5.8810    6.9138 H   0  0  0  0  0  0  0  0  0  0  0  0
    6.3631    6.4825    8.4160 H   0  0  0  0  0  0  0  0  0  0  0  0
    4.3098    4.1037    4.7248 H   0  0  0  0  0  0  0  0  0  0  0  0
    6.0112    4.7954   10.0001 H   0  0  0  0  0  0  0  0  0  0  0  0
    8.8433    6.1804    7.4435 H   0  0  0  0  0  0  0  0  0  0  0  0
    8.7093    4.7688    8.2817 H   0  0  0  0  0  0  0  0  0  0  0  0
    7.9091    2.3013    5.2648 H   0  0  0  0  0  0  0  0  0  0  0  0
    7.4820    3.7453    4.5970 H   0  0  0  0  0  0  0  0  0  0  0  0
  1  2  1  0  0  0  0
  1  6  1  0  0  0  0
  3  1  1  0  0  0  0
  4 10  1  0  0  0  0
  5 23  1  0  0  0  0
  6 24  1  0  0  0  0
  6 25  1  0  0  0  0
  7  1  1  0  0  0  0
  7  9  1  0  0  0  0
  8 14  1  6  0  0  0
  8  6  1  0  0  0  0
  8 13  1  0  0  0  0
  9  8  1  0  0  0  0
  9 15  1  1  0  0  0
 10 16  1  6  0  0  0
 10  9  1  0  0  0  0
 10 11  1  0  0  0  0
 11 12  1  0  0  0  0
 11 18  1  0  0  0  0
 12 13  1  0  0  0  0
 12 19  1  0  0  0  0
 13 21  1  1  0  0  0
 13  5  1  0  0  0  0
 17 11  1  0  0  0  0
 20 12  1  0  0  0  0
 22  4  1  0  0  0  0
 26  7  1  0  0  0  0
 27  7  1  0  0  0  0
M  END
$$$$
