CSD_code = TAJYIM | q = -1 | S = 0 | Stoichiometry = C4H4CoI2N4O4(1-) | MND = 6
 OpenBabel04212202103D

 19 20  0  0  0  0  0  0  0  0999 V2000
   -5.1601    3.1329   -3.9060 I   0  0  0  0  0  0  0  0  0  0  0  0
   -1.4531    3.1329   -0.3095 I   0  0  0  0  0  0  0  0  0  0  0  0
   -3.3066    3.1331   -2.1076 Co  0  0  0  0  0  0  0  0  0  0  0  0
   -2.3879    1.7543   -3.0535 N   0  0  0  0  0  0  0  0  0  0  0  0
   -4.2275    1.7547   -1.1592 N   0  0  0  0  0  0  0  0  0  0  0  0
   -1.5402    1.9875   -3.9271 O   0  0  0  0  0  1  0  0  0  0  0  0
   -5.0751    1.9904   -0.2859 O   0  0  0  0  0  1  0  0  0  0  0  0
   -2.8106    0.6099   -2.6180 C   0  0  0  0  0  0  0  0  0  0  0  0
   -2.4168   -0.3142   -3.0238 H   0  0  0  0  0  0  0  0  0  0  0  0
   -3.8052    0.6102   -1.5939 C   0  0  0  0  0  0  0  0  0  0  0  0
   -4.1991   -0.3138   -1.1878 H   0  0  0  0  0  0  0  0  0  0  0  0
   -2.3876    4.5111   -3.0538 N   0  0  0  0  0  0  0  0  0  0  0  0
   -4.2278    4.5107   -1.1589 N   0  0  0  0  0  0  0  0  0  0  0  0
   -1.5398    4.2783   -3.9274 O   0  0  0  0  0  1  0  0  0  0  0  0
   -2.8106    5.6554   -2.6180 C   0  0  0  0  0  0  0  0  0  0  0  0
   -5.0754    4.2753   -0.2856 O   0  0  0  0  0  1  0  0  0  0  0  0
   -3.8052    5.6550   -1.5939 C   0  0  0  0  0  0  0  0  0  0  0  0
   -2.4169    6.5796   -3.0237 H   0  0  0  0  0  0  0  0  0  0  0  0
   -4.1991    6.5791   -1.1879 H   0  0  0  0  0  0  0  0  0  0  0  0
  1  3  1  0  0  0  0
  3  5  1  0  0  0  0
  3 13  1  0  0  0  0
  3  2  1  0  0  0  0
  4  8  1  0  0  0  0
  4  3  1  0  0  0  0
  5  7  1  0  0  0  0
  6  4  1  0  0  0  0
  8 10  2  0  0  0  0
  9  8  1  0  0  0  0
 10 11  1  0  0  0  0
 10  5  1  0  0  0  0
 12 15  1  0  0  0  0
 12  3  1  0  0  0  0
 13 16  1  0  0  0  0
 14 12  1  0  0  0  0
 15 17  2  0  0  0  0
 17 19  1  0  0  0  0
 17 13  1  0  0  0  0
 18 15  1  0  0  0  0
M  END
$$$$
