CSD_code = TAJYOU | q = 0 | S = 0 | Stoichiometry = C24H30Cl2N2P2Pd | MND = 4
 OpenBabel04212202103D

 61 64  0  0  0  0  0  0  0  0999 V2000
   -1.2028    1.9175    3.3556 C   0  0  0  0  0  0  0  0  0  0  0  0
   -0.3864    0.8157    3.1180 C   0  0  0  0  0  0  0  0  0  0  0  0
    0.6855    0.9165    3.2703 H   0  0  0  0  0  0  0  0  0  0  0  0
   -0.9427   -0.3859    2.7234 C   0  0  0  0  0  0  0  0  0  0  0  0
   -0.3118   -1.2424    2.5404 H   0  0  0  0  0  0  0  0  0  0  0  0
   -2.3178   -0.4913    2.5795 C   0  0  0  0  0  0  0  0  0  0  0  0
   -2.7573   -1.4300    2.2771 H   0  0  0  0  0  0  0  0  0  0  0  0
   -3.1336    0.5990    2.8377 C   0  0  0  0  0  0  0  0  0  0  0  0
   -4.2052    0.5066    2.7377 H   0  0  0  0  0  0  0  0  0  0  0  0
   -2.5819    1.8056    3.2313 C   0  0  0  0  0  0  0  0  0  0  0  0
   -3.2171    2.6545    3.4397 H   0  0  0  0  0  0  0  0  0  0  0  0
    2.8048    3.6149    1.6906 C   0  0  0  0  0  0  0  0  0  0  0  0
    3.2351    2.3678    2.1419 C   0  0  0  0  0  0  0  0  0  0  0  0
    3.0640    2.0758    3.1893 H   0  0  0  0  0  0  0  0  0  0  0  0
    3.9117    1.5181    1.2851 C   0  0  0  0  0  0  0  0  0  0  0  0
    4.2524    0.5559    1.6369 H   0  0  0  0  0  0  0  0  0  0  0  0
    4.1619    1.9087   -0.0211 C   0  0  0  0  0  0  0  0  0  0  0  0
    4.6929    1.2472   -0.6894 H   0  0  0  0  0  0  0  0  0  0  0  0
    3.7425    3.1512   -0.4700 C   0  0  0  0  0  0  0  0  0  0  0  0
    3.9458    3.4559   -1.4862 H   0  0  0  0  0  0  0  0  0  0  0  0
    3.0663    4.0066    0.3812 C   0  0  0  0  0  0  0  0  0  0  0  0
    2.7470    4.9800    0.0343 H   0  0  0  0  0  0  0  0  0  0  0  0
    2.1834    6.3298    2.3504 C   0  0  0  0  0  0  0  0  0  0  0  0
    3.5270    6.6811    2.2247 C   0  0  0  0  0  0  0  0  0  0  0  0
    4.2850    5.9237    2.3751 H   0  0  0  0  0  0  0  0  0  0  0  0
    3.8764    7.9826    1.9223 C   0  0  0  0  0  0  0  0  0  0  0  0
    4.9172    8.2515    1.8213 H   0  0  0  0  0  0  0  0  0  0  0  0
    2.8907    8.9440    1.7564 C   0  0  0  0  0  0  0  0  0  0  0  0
    3.1636    9.9611    1.5183 H   0  0  0  0  0  0  0  0  0  0  0  0
    1.5565    8.6047    1.9105 C   0  0  0  0  0  0  0  0  0  0  0  0
    0.7902    9.3575    1.7964 H   0  0  0  0  0  0  0  0  0  0  0  0
    1.2003    7.3039    2.2190 C   0  0  0  0  0  0  0  0  0  0  0  0
    0.1605    7.0437    2.3545 H   0  0  0  0  0  0  0  0  0  0  0  0
   -1.1079    5.6201    5.1594 C   0  0  0  0  0  0  0  0  0  0  0  0
   -0.4277    6.0899    4.4348 H   0  0  0  0  0  0  0  0  0  0  0  0
   -0.3625    5.4293    6.4819 C   0  0  0  0  0  0  0  0  0  0  0  0
   -0.9660    4.8481    7.1785 H   0  0  0  0  0  0  0  0  0  0  0  0
   -0.1489    6.3973    6.9293 H   0  0  0  0  0  0  0  0  0  0  0  0
    0.6041    4.9057    6.3317 H   0  0  0  0  0  0  0  0  0  0  0  0
   -2.3397    6.5018    5.3464 C   0  0  0  0  0  0  0  0  0  0  0  0
   -2.8907    6.5863    4.4128 H   0  0  0  0  0  0  0  0  0  0  0  0
   -2.0458    7.4961    5.6710 H   0  0  0  0  0  0  0  0  0  0  0  0
   -2.9982    6.0723    6.0983 H   0  0  0  0  0  0  0  0  0  0  0  0
   -0.4214    4.4803    1.2182 C   0  0  0  0  0  0  0  0  0  0  0  0
    0.1970    5.2219    0.6926 H   0  0  0  0  0  0  0  0  0  0  0  0
   -0.4210    3.1915    0.3967 C   0  0  0  0  0  0  0  0  0  0  0  0
    0.5746    2.7546    0.3737 H   0  0  0  0  0  0  0  0  0  0  0  0
   -0.7305    3.4057   -0.6236 H   0  0  0  0  0  0  0  0  0  0  0  0
   -1.1090    2.4668    0.8241 H   0  0  0  0  0  0  0  0  0  0  0  0
   -1.8395    5.0191    1.3669 C   0  0  0  0  0  0  0  0  0  0  0  0
   -2.4563    4.2901    1.8841 H   0  0  0  0  0  0  0  0  0  0  0  0
   -2.2674    5.2125    0.3862 H   0  0  0  0  0  0  0  0  0  0  0  0
   -1.8447    5.9428    1.9397 H   0  0  0  0  0  0  0  0  0  0  0  0
    1.2638    1.8958    6.3760 Cl  0  0  0  0  0  0  0  0  0  0  0  0
    3.8275    3.8346    5.5365 Cl  0  0  0  0  0  0  0  0  0  0  0  0
   -1.5448    4.3544    4.5538 N   0  0  0  0  0  0  0  0  0  0  0  0
    0.2006    4.3020    2.5278 N   0  0  0  0  0  0  0  0  0  0  0  0
   -0.3244    3.4024    3.8999 P   0  0  2  0  0  4  0  0  0  0  0  0
    1.8558    4.6288    2.8739 P   0  0  0  0  0  4  0  0  0  0  0  0
    1.7242    3.4476    4.7976 Pd  0  0  0  0  0  0  0  0  0  0  0  0
   -2.0797    3.8111    5.2296 H   0  0  0  0  0  0  0  0  0  0  0  0
  1 58  1  0  0  0  0
  2  3  1  0  0  0  0
  2  1  2  0  0  0  0
  4  2  1  0  0  0  0
  5  4  1  0  0  0  0
  6  4  2  0  0  0  0
  6  8  1  0  0  0  0
  7  6  1  0  0  0  0
  8 10  2  0  0  0  0
  9  8  1  0  0  0  0
 10  1  1  0  0  0  0
 10 11  1  0  0  0  0
 12 13  1  0  0  0  0
 12 59  1  0  0  0  0
 13 14  1  0  0  0  0
 15 16  1  0  0  0  0
 15 13  2  0  0  0  0
 17 15  1  0  0  0  0
 18 17  1  0  0  0  0
 19 17  2  0  0  0  0
 19 21  1  0  0  0  0
 20 19  1  0  0  0  0
 21 12  2  0  0  0  0
 22 21  1  0  0  0  0
 23 59  1  0  0  0  0
 24 23  1  0  0  0  0
 24 25  1  0  0  0  0
 26 24  2  0  0  0  0
 27 26  1  0  0  0  0
 28 30  2  0  0  0  0
 28 26  1  0  0  0  0
 29 28  1  0  0  0  0
 30 32  1  0  0  0  0
 31 30  1  0  0  0  0
 32 23  2  0  0  0  0
 32 33  1  0  0  0  0
 34 40  1  0  0  0  0
 34 36  1  0  0  0  0
 35 34  1  0  0  0  0
 36 38  1  0  0  0  0
 36 37  1  0  0  0  0
 39 36  1  0  0  0  0
 40 42  1  0  0  0  0
 40 43  1  0  0  0  0
 41 40  1  0  0  0  0
 44 50  1  0  0  0  0
 44 57  1  0  0  0  0
 45 44  1  0  0  0  0
 46 49  1  0  0  0  0
 46 44  1  0  0  0  0
 47 46  1  0  0  0  0
 48 46  1  0  0  0  0
 50 51  1  0  0  0  0
 50 53  1  0  0  0  0
 52 50  1  0  0  0  0
 56 34  1  0  0  0  0
 56 61  1  0  0  0  0
 57 59  1  0  0  0  0
 57 58  1  0  0  0  0
 58 56  1  1  0  0  0
 58 60  1  0  0  0  0
 59 60  1  0  0  0  0
 60 55  1  0  0  0  0
 60 54  1  0  0  0  0
M  END
$$$$
