CSD_code = TAKKUO | q = 0 | S = 0 | Stoichiometry = C11H10FeINO5 | MND = 6
 OpenBabel04212202103D

 29 30  0  0  1  0  0  0  0  0999 V2000
   10.2896    4.3565    6.1984 I   0  0  0  0  0  0  0  0  0  0  0  0
    8.9938    2.3541    6.9238 Fe  0  0  0  0  0  0  0  0  0  0  0  0
    7.7946    0.0579    8.1836 O   0  0  0  0  0  1  0  0  0  0  0  0
    8.2787    3.5770    9.4442 O   0  0  0  0  0  1  0  0  0  0  0  0
   10.8665    1.5397    8.8315 O   0  0  0  0  0  0  0  0  0  0  0  0
    7.6103    1.5380    3.8603 O   0  0  0  0  0  0  0  0  0  0  0  0
    7.1595    3.0368    5.6168 O   0  0  0  0  0  0  0  0  0  0  0  0
    9.5109    1.1798    5.1838 N   0  0  0  0  0  0  0  0  0  0  0  0
    8.2359    0.9621    7.6302 C   0  0  0  0  0  2  0  0  0  0  0  0
    8.5649    3.1370    8.4322 C   0  0  0  0  0  2  0  0  0  0  0  0
   10.5485    1.5525    7.6786 C   0  0  0  0  0  0  0  0  0  0  0  0
   11.4292    0.9044    6.5955 C   0  0  0  0  0  0  0  0  0  0  0  0
   12.1529    1.6789    6.3135 H   0  0  0  0  0  0  0  0  0  0  0  0
   11.9881    0.0682    7.0219 H   0  0  0  0  0  0  0  0  0  0  0  0
   10.6470    0.4934    5.3973 C   0  0  1  0  0  3  0  0  0  0  0  0
   11.0449   -0.5400    4.5658 C   0  0  0  0  0  0  0  0  0  0  0  0
   11.9629   -1.0674    4.7674 H   0  0  0  0  0  0  0  0  0  0  0  0
   10.2436   -0.8845    3.4871 C   0  0  0  0  0  0  0  0  0  0  0  0
   10.5239   -1.6933    2.8306 H   0  0  0  0  0  0  0  0  0  0  0  0
    9.0860   -0.1696    3.2595 C   0  0  0  0  0  0  0  0  0  0  0  0
    8.4252   -0.3809    2.4361 H   0  0  0  0  0  0  0  0  0  0  0  0
    8.7608    0.8718    4.1285 C   0  0  0  0  0  0  0  0  0  0  0  0
    7.4618    2.8806    4.2655 C   0  0  0  0  0  0  0  0  0  0  0  0
    8.3830    3.4470    4.0810 H   0  0  0  0  0  0  0  0  0  0  0  0
    6.6452    3.2657    3.6388 H   0  0  0  0  0  0  0  0  0  0  0  0
    5.8397    2.6353    5.9583 C   0  0  0  0  0  0  0  0  0  0  0  0
    5.1137    3.2286    5.3945 H   0  0  0  0  0  0  0  0  0  0  0  0
    5.7242    2.8222    7.0234 H   0  0  0  0  0  0  0  0  0  0  0  0
    5.6851    1.5731    5.7517 H   0  0  0  0  0  0  0  0  0  0  0  0
  1  2  1  0  0  0  0
  2  9  1  0  0  0  0
  2 11  1  0  0  0  0
  2 10  1  0  0  0  0
  6 22  1  0  0  0  0
  6 23  1  0  0  0  0
  7 26  1  0  0  0  0
  8 15  1  0  0  0  0
  8  2  1  0  0  0  0
  9  3  1  0  0  0  0
 10  4  1  0  0  0  0
 11  5  2  0  0  0  0
 12 14  1  0  0  0  0
 12 11  1  0  0  0  0
 13 12  1  0  0  0  0
 15 16  1  1  0  0  0
 15 12  1  0  0  0  0
 16 17  1  0  0  0  0
 18 16  2  0  0  0  0
 19 18  1  0  0  0  0
 20 18  1  0  0  0  0
 20 22  2  0  0  0  0
 21 20  1  0  0  0  0
 22  8  1  0  0  0  0
 23  7  1  0  0  0  0
 24 23  1  0  0  0  0
 25 23  1  0  0  0  0
 26 28  1  0  0  0  0
 27 26  1  0  0  0  0
 29 26  1  0  0  0  0
M  END
$$$$
