CSD_code = TAKNOK | q = 0 | S = 0 | Stoichiometry = C12H17Cl2NPdS2 | MND = 4
 OpenBabel04212202103D

 35 37  0  0  1  0  0  0  0  0999 V2000
    2.4313    2.5078    3.2565 Pd  0  0  0  0  0  0  0  0  0  0  0  0
    3.2976    3.4673    1.3244 S   0  0  1  0  0  3  0  0  0  0  0  0
    1.9374    1.4419    5.1719 Cl  0  0  0  0  0  0  0  0  0  0  0  0
    2.9738    4.3404    4.4203 Cl  0  0  0  0  0  0  0  0  0  0  0  0
   -2.0629    0.9019    2.6870 S   0  0  0  0  0  0  0  0  0  0  0  0
    1.9336    0.7608    2.0425 N   0  0  2  0  0  4  0  0  0  0  0  0
    2.2283    0.0052    2.6678 H   0  0  0  0  0  0  0  0  0  0  0  0
    2.8091    0.8033    0.8677 C   0  0  0  0  0  0  0  0  0  0  0  0
    2.5433    0.0103    0.1511 H   0  0  0  0  0  0  0  0  0  0  0  0
    3.8422    0.6390    1.1969 H   0  0  0  0  0  0  0  0  0  0  0  0
    0.0236    3.8916    2.0049 C   0  0  0  0  0  0  0  0  0  0  0  0
    0.4836    3.9276    3.0038 H   0  0  0  0  0  0  0  0  0  0  0  0
    2.7342    2.1559    0.1619 C   0  0  0  0  0  0  0  0  0  0  0  0
    1.7183    2.3930   -0.1526 H   0  0  0  0  0  0  0  0  0  0  0  0
    3.3953    2.1668   -0.7050 H   0  0  0  0  0  0  0  0  0  0  0  0
   -0.3296    0.4366    2.9639 C   0  0  0  0  0  0  0  0  0  0  0  0
    0.0703    1.1023    3.7375 H   0  0  0  0  0  0  0  0  0  0  0  0
   -0.3463   -0.5790    3.3565 H   0  0  0  0  0  0  0  0  0  0  0  0
    2.1227    4.8563    1.0359 C   0  0  0  0  0  0  0  0  0  0  0  0
    2.2679    5.4749    1.9252 H   0  0  0  0  0  0  0  0  0  0  0  0
    2.4652    5.3858    0.1468 H   0  0  0  0  0  0  0  0  0  0  0  0
    0.7113    4.3958    0.9006 C   0  0  0  0  0  0  0  0  0  0  0  0
   -1.9541    2.7110    2.9954 C   0  0  0  0  0  0  0  0  0  0  0  0
   -2.9896    3.0361    3.0857 H   0  0  0  0  0  0  0  0  0  0  0  0
   -1.4323    2.8533    3.9418 H   0  0  0  0  0  0  0  0  0  0  0  0
    0.5243    0.5275    1.7007 C   0  0  0  0  0  0  0  0  0  0  0  0
    0.4243   -0.3967    1.1121 H   0  0  0  0  0  0  0  0  0  0  0  0
    0.1695    1.3562    1.0818 H   0  0  0  0  0  0  0  0  0  0  0  0
   -1.8698    3.4118    0.6040 C   0  0  0  0  0  0  0  0  0  0  0  0
   -2.8638    3.0058    0.4929 H   0  0  0  0  0  0  0  0  0  0  0  0
   -1.2600    3.3787    1.8569 C   0  0  0  0  0  0  0  0  0  0  0  0
    0.0915    4.4101   -0.3440 C   0  0  0  0  0  0  0  0  0  0  0  0
    0.6198    4.8015   -1.2017 H   0  0  0  0  0  0  0  0  0  0  0  0
   -1.2037    3.9377   -0.4850 C   0  0  0  0  0  0  0  0  0  0  0  0
   -1.6835    3.9661   -1.4514 H   0  0  0  0  0  0  0  0  0  0  0  0
  1  4  1  0  0  0  0
  1  3  1  0  0  0  0
  2 13  1  6  0  0  0
  2  1  1  0  0  0  0
  5 16  1  0  0  0  0
  5 23  1  0  0  0  0
  6  7  1  1  0  0  0
  6  1  1  0  0  0  0
  8 10  1  0  0  0  0
  8  6  1  0  0  0  0
  9  8  1  0  0  0  0
 11 12  1  0  0  0  0
 13  8  1  0  0  0  0
 14 13  1  0  0  0  0
 15 13  1  0  0  0  0
 16 18  1  0  0  0  0
 16 17  1  0  0  0  0
 19  2  1  0  0  0  0
 19 20  1  0  0  0  0
 21 19  1  0  0  0  0
 22 19  1  0  0  0  0
 22 11  2  0  0  0  0
 23 24  1  0  0  0  0
 23 25  1  0  0  0  0
 26  6  1  0  0  0  0
 26 16  1  0  0  0  0
 27 26  1  0  0  0  0
 28 26  1  0  0  0  0
 29 31  2  0  0  0  0
 30 29  1  0  0  0  0
 31 11  1  0  0  0  0
 31 23  1  0  0  0  0
 32 22  1  0  0  0  0
 33 32  1  0  0  0  0
 34 32  2  0  0  0  0
 34 29  1  0  0  0  0
 35 34  1  0  0  0  0
M  END
$$$$
