CSD_code = TALRUV | q = 0 | S = 0 | Stoichiometry = C18H23Cl2N3Zn | MND = 5
 OpenBabel04212202103D

 47 51  0  0  1  0  0  0  0  0999 V2000
    3.9770    1.7766    8.8199 Zn  0  0  0  0  0  0  0  0  0  0  0  0
    4.2232    3.6842    7.7026 Cl  0  0  0  0  0  0  0  0  0  0  0  0
    2.6526    1.2956   10.5965 Cl  0  0  0  0  0  0  0  0  0  0  0  0
    5.7352    2.0611   10.1530 N   0  0  0  0  0  0  0  0  0  0  0  0
    5.0412   -0.0423    8.2967 N   0  0  2  0  0  4  0  0  0  0  0  0
    2.4899    0.7862    7.4338 N   0  0  0  0  0  4  0  0  0  0  0  0
    1.6160    0.8709    7.9489 H   0  0  0  0  0  0  0  0  0  0  0  0
    5.6619    3.1971   10.8306 C   0  0  0  0  0  3  0  0  0  0  0  0
    4.9547    3.9242   10.4559 H   0  0  0  0  0  0  0  0  0  0  0  0
    6.4389    3.4598   11.9455 C   0  0  0  0  0  0  0  0  0  0  0  0
    6.3444    4.3981   12.4672 H   0  0  0  0  0  0  0  0  0  0  0  0
    7.3240    2.4836   12.3670 C   0  0  0  0  0  0  0  0  0  0  0  0
    7.9434    2.6360   13.2385 H   0  0  0  0  0  0  0  0  0  0  0  0
    7.4096    1.3011   11.6501 C   0  0  0  0  0  0  0  0  0  0  0  0
    8.0987    0.5354   11.9641 H   0  0  0  0  0  0  0  0  0  0  0  0
    6.5992    1.1187   10.5356 C   0  0  0  0  0  0  0  0  0  0  0  0
    6.6347   -0.1324    9.6931 C   0  0  1  0  0  0  0  0  0  0  0  0
    5.2298   -0.7616    9.5659 C   0  0  0  0  0  0  0  0  0  0  0  0
    5.2735   -1.8468    9.4277 H   0  0  0  0  0  0  0  0  0  0  0  0
    4.4989   -0.5090   10.3322 H   0  0  0  0  0  0  0  0  0  0  0  0
    6.4866    0.1935    8.1915 C   0  0  0  0  0  0  0  0  0  0  0  0
    6.7467    1.2014    7.8700 H   0  0  0  0  0  0  0  0  0  0  0  0
    6.9871   -0.5445    7.5568 H   0  0  0  0  0  0  0  0  0  0  0  0
    7.7539   -1.0971   10.0482 C   0  0  0  0  0  0  0  0  0  0  0  0
    8.7229   -0.6084    9.9742 H   0  0  0  0  0  0  0  0  0  0  0  0
    7.7463   -1.9404    9.3609 H   0  0  0  0  0  0  0  0  0  0  0  0
    7.6222   -1.4854   11.0554 H   0  0  0  0  0  0  0  0  0  0  0  0
    4.3821   -0.7390    7.2130 C   0  0  0  0  0  0  0  0  0  0  0  0
    4.6761   -1.7983    7.1753 H   0  0  0  0  0  0  0  0  0  0  0  0
    4.6799   -0.2594    6.2775 H   0  0  0  0  0  0  0  0  0  0  0  0
    2.8690   -0.6234    7.3978 C   0  0  0  0  0  0  0  0  0  0  0  0
    2.3491   -1.1659    6.5977 H   0  0  0  0  0  0  0  0  0  0  0  0
    2.6027   -1.0693    8.3585 H   0  0  0  0  0  0  0  0  0  0  0  0
    2.2835    1.3792    6.1051 C   0  0  0  0  0  0  0  0  0  0  0  0
    3.2050    1.2744    5.5300 H   0  0  0  0  0  0  0  0  0  0  0  0
    2.1076    2.4475    6.2519 H   0  0  0  0  0  0  0  0  0  0  0  0
    1.1265    0.7529    5.3726 C   0  0  0  0  0  0  0  0  0  0  0  0
    1.3305   -0.0595    4.2651 C   0  0  0  0  0  0  0  0  0  0  0  0
    2.3347   -0.2169    3.8959 H   0  0  0  0  0  0  0  0  0  0  0  0
    0.2597   -0.6590    3.6240 C   0  0  0  0  0  0  0  0  0  0  0  0
    0.4320   -1.2863    2.7616 H   0  0  0  0  0  0  0  0  0  0  0  0
   -1.0279   -0.4561    4.0885 C   0  0  0  0  0  0  0  0  0  0  0  0
   -1.8637   -0.9236    3.5895 H   0  0  0  0  0  0  0  0  0  0  0  0
   -1.2417    0.3524    5.1929 C   0  0  0  0  0  0  0  0  0  0  0  0
   -2.2455    0.5176    5.5556 H   0  0  0  0  0  0  0  0  0  0  0  0
   -0.1713    0.9519    5.8306 C   0  0  0  0  0  0  0  0  0  0  0  0
   -0.3422    1.5893    6.6869 H   0  0  0  0  0  0  0  0  0  0  0  0
  1  4  1  0  0  0  0
  1  3  1  0  0  0  0
  2  1  1  0  0  0  0
  4 16  1  0  0  0  0
  4  8  1  0  0  0  0
  5 28  1  6  0  0  0
  5  1  1  0  0  0  0
  5 18  1  0  0  0  0
  6  7  1  0  0  0  0
  6  1  1  0  0  0  0
  8 10  1  0  0  0  0
  9  8  1  0  0  0  0
 10 12  2  0  0  0  0
 10 11  1  0  0  0  0
 12 13  1  0  0  0  0
 14 15  1  0  0  0  0
 14 12  1  0  0  0  0
 16 14  2  0  0  0  0
 17 24  1  1  0  0  0
 17 16  1  0  0  0  0
 18 17  1  0  0  0  0
 18 20  1  0  0  0  0
 19 18  1  0  0  0  0
 21  5  1  0  0  0  0
 21 17  1  0  0  0  0
 22 21  1  0  0  0  0
 23 21  1  0  0  0  0
 24 27  1  0  0  0  0
 25 24  1  0  0  0  0
 26 24  1  0  0  0  0
 28 31  1  0  0  0  0
 29 28  1  0  0  0  0
 30 28  1  0  0  0  0
 31  6  1  0  0  0  0
 31 33  1  0  0  0  0
 32 31  1  0  0  0  0
 34 36  1  0  0  0  0
 34  6  1  0  0  0  0
 35 34  1  0  0  0  0
 37 46  1  0  0  0  0
 37 34  1  0  0  0  0
 38 37  2  0  0  0  0
 39 38  1  0  0  0  0
 40 42  2  0  0  0  0
 40 38  1  0  0  0  0
 41 40  1  0  0  0  0
 42 44  1  0  0  0  0
 43 42  1  0  0  0  0
 44 45  1  0  0  0  0
 44 46  2  0  0  0  0
 46 47  1  0  0  0  0
M  END
$$$$
