CSD_code = TALRED | q = 0 | S = 0 | Stoichiometry = C13H17ClSiTi | MND = 12
 OpenBabel04212202103D

 33 35  0  0  1  0  0  0  0  0999 V2000
    1.3850    2.1710    3.4958 Ti  0  0  2  0  0  0  0  0  0  0  0  0
    2.9132    2.2092    0.6028 Si  0  0  0  0  0  0  0  0  0  0  0  0
   -0.3792    2.1367    4.8235 Cl  0  0  0  0  0  0  0  0  0  0  0  0
    2.1611    0.8676    1.7010 C   0  0  2  0  0  3  0  0  0  0  0  0
    0.7627    0.6487    1.8046 C   0  0  0  0  0  3  0  0  0  0  0  0
    0.5005   -0.0619    2.9876 C   0  0  0  0  0  0  0  0  0  0  0  0
    1.7175   -0.2316    3.6687 C   0  0  0  0  0  0  0  0  0  0  0  0
    2.7387    0.3625    2.8898 C   0  0  2  0  0  0  0  0  0  0  0  0
    2.6473    2.1818    5.1758 C   0  0  0  0  0  0  0  0  0  0  0  0
    2.2717    2.2071   -1.1896 C   0  0  0  0  0  0  0  0  0  0  0  0
    4.8156    2.2383    0.6815 C   0  0  0  0  0  0  0  0  0  0  0  0
    0.0381    0.8448    1.0232 H   0  0  0  0  0  0  0  0  0  0  0  0
   -0.4572   -0.4632    3.2928 H   0  0  0  0  0  0  0  0  0  0  0  0
    1.8587   -0.8141    4.5702 H   0  0  0  0  0  0  0  0  0  0  0  0
    3.8012    0.2837    3.0843 H   0  0  0  0  0  0  0  0  0  0  0  0
    2.4374    3.0554    5.8026 H   0  0  0  0  0  0  0  0  0  0  0  0
    2.4610    1.2975    5.7952 H   0  0  0  0  0  0  0  0  0  0  0  0
    1.1878    2.2135   -1.2355 H   0  0  0  0  0  0  0  0  0  0  0  0
    2.6308    3.0794   -1.7254 H   0  0  0  0  0  0  0  0  0  0  0  0
    5.1765    2.2345    1.7055 H   0  0  0  0  0  0  0  0  0  0  0  0
    5.2342    1.3742    0.1771 H   0  0  0  0  0  0  0  0  0  0  0  0
    2.1201    3.5162    1.7138 C   0  0  1  0  0  3  0  0  0  0  0  0
    0.7155    3.6905    1.8185 C   0  0  0  0  0  0  0  0  0  0  0  0
    0.4306    4.3794    3.0088 C   0  0  0  0  0  0  0  0  0  0  0  0
    1.6414    4.5794    3.6930 C   0  0  0  0  0  3  0  0  0  0  0  0
    2.6810    4.0260    2.9086 C   0  0  1  0  0  0  0  0  0  0  0  0
    3.7146    2.1971    4.9245 H   0  0  0  0  0  0  0  0  0  0  0  0
    2.6204    1.3272   -1.7198 H   0  0  0  0  0  0  0  0  0  0  0  0
    5.2067    3.1244    0.1934 H   0  0  0  0  0  0  0  0  0  0  0  0
   -0.0022    3.4800    1.0346 H   0  0  0  0  0  0  0  0  0  0  0  0
   -0.5392    4.7475    3.3176 H   0  0  0  0  0  0  0  0  0  0  0  0
    1.7636    5.1567    4.6006 H   0  0  0  0  0  0  0  0  0  0  0  0
    3.7405    4.1358    3.1048 H   0  0  0  0  0  0  0  0  0  0  0  0
  1  3  1  1  0  0  0
  1  9  1  0  0  0  0
  2 11  1  0  0  0  0
  2  4  1  0  0  0  0
  2 22  1  0  0  0  0
  4  5  1  1  0  0  0
  4  8  1  0  0  0  0
  5  6  1  0  0  0  0
  6 13  1  0  0  0  0
  6  7  2  0  0  0  0
  7 14  1  0  0  0  0
  8 15  1  1  0  0  0
  8  1  1  0  0  0  0
  8  7  1  0  0  0  0
  9 17  1  0  0  0  0
  9 16  1  0  0  0  0
 10  2  1  0  0  0  0
 11 20  1  0  0  0  0
 12  5  1  0  0  0  0
 18 10  1  0  0  0  0
 19 10  1  0  0  0  0
 21 11  1  0  0  0  0
 22 23  1  1  0  0  0
 22 26  1  0  0  0  0
 23 24  2  0  0  0  0
 24 31  1  0  0  0  0
 24 25  1  0  0  0  0
 25 32  1  0  0  0  0
 26 33  1  1  0  0  0
 26  1  1  0  0  0  0
 26 25  1  0  0  0  0
 27  9  1  0  0  0  0
 28 10  1  0  0  0  0
 29 11  1  0  0  0  0
 30 23  1  0  0  0  0
M  END
$$$$
