CSD_code = TALXOU | q = 0 | S = 0 | Stoichiometry = C10H14Cl2N2O2Pd | MND = 4
 OpenBabel04212202103D

 31 32  0  0  1  0  0  0  0  0999 V2000
    5.6359   -2.4908    5.3039 Pd  0  0  0  0  0  0  0  0  0  0  0  0
    3.8585   -3.8758    4.9338 Cl  0  0  0  0  0  0  0  0  0  0  0  0
    3.8575   -0.3930    6.0994 O   0  0  0  0  0  0  0  0  0  0  0  0
    4.5094   -0.9614    5.0638 N   0  0  0  0  0  0  0  0  0  0  0  0
    3.1806    0.6741    5.6326 C   0  0  2  0  0  3  0  0  0  0  0  0
    3.4018    0.7884    4.2887 C   0  0  0  0  0  0  0  0  0  0  0  0
    4.2647   -0.2872    3.9697 C   0  0  0  0  0  0  0  0  0  0  0  0
    2.3791    1.4738    6.5869 C   0  0  0  0  0  0  0  0  0  0  0  0
    4.8745   -0.7047    2.6810 C   0  0  0  0  0  0  0  0  0  0  0  0
    3.0120    1.5268    3.6208 H   0  0  0  0  0  0  0  0  0  0  0  0
    1.8713    2.2770    6.0629 H   0  0  0  0  0  0  0  0  0  0  0  0
    1.6446    0.8391    7.0797 H   0  0  0  0  0  0  0  0  0  0  0  0
    3.0261    1.8944    7.3552 H   0  0  0  0  0  0  0  0  0  0  0  0
    4.1048   -0.8568    1.9267 H   0  0  0  0  0  0  0  0  0  0  0  0
    5.5636    0.0610    2.3272 H   0  0  0  0  0  0  0  0  0  0  0  0
    5.4307   -1.6479    2.8347 H   0  0  0  0  0  0  0  0  0  0  0  0
    7.4140   -1.1056    5.6703 Cl  0  0  0  0  0  0  0  0  0  0  0  0
    7.4146   -4.5883    4.5060 O   0  0  0  0  0  0  0  0  0  0  0  0
    6.7627   -4.0201    5.5417 N   0  0  0  0  0  0  0  0  0  0  0  0
    8.0916   -5.6555    4.9726 C   0  0  1  0  0  3  0  0  0  0  0  0
    7.8704   -5.7700    6.3165 C   0  0  0  0  0  0  0  0  0  0  0  0
    7.0075   -4.6945    6.6357 C   0  0  0  0  0  0  0  0  0  0  0  0
    8.8931   -6.4551    4.0183 C   0  0  0  0  0  0  0  0  0  0  0  0
    6.3976   -4.2769    7.9243 C   0  0  0  0  0  0  0  0  0  0  0  0
    8.2603   -6.5084    6.9844 H   0  0  0  0  0  0  0  0  0  0  0  0
    9.4011   -7.2582    4.5423 H   0  0  0  0  0  0  0  0  0  0  0  0
    9.6274   -5.8203    3.5253 H   0  0  0  0  0  0  0  0  0  0  0  0
    8.2462   -6.8760    3.2502 H   0  0  0  0  0  0  0  0  0  0  0  0
    7.1673   -4.1248    8.6786 H   0  0  0  0  0  0  0  0  0  0  0  0
    5.7083   -5.0426    8.2779 H   0  0  0  0  0  0  0  0  0  0  0  0
    5.8415   -3.3337    7.7701 H   0  0  0  0  0  0  0  0  0  0  0  0
  1 19  1  0  0  0  0
  1 17  1  0  0  0  0
  2  1  1  0  0  0  0
  4  1  1  0  0  0  0
  4  3  1  0  0  0  0
  5  3  1  0  0  0  0
  5  8  1  1  0  0  0
  6  5  1  0  0  0  0
  7  6  2  0  0  0  0
  7  4  1  0  0  0  0
  8 12  1  0  0  0  0
  8 13  1  0  0  0  0
  9 16  1  0  0  0  0
  9  7  1  0  0  0  0
 10  6  1  0  0  0  0
 11  8  1  0  0  0  0
 14  9  1  0  0  0  0
 15  9  1  0  0  0  0
 18 20  1  0  0  0  0
 18 19  1  0  0  0  0
 19 22  1  0  0  0  0
 20 23  1  6  0  0  0
 20 21  1  0  0  0  0
 21 22  2  0  0  0  0
 21 25  1  0  0  0  0
 22 24  1  0  0  0  0
 23 26  1  0  0  0  0
 24 30  1  0  0  0  0
 24 29  1  0  0  0  0
 27 23  1  0  0  0  0
 28 23  1  0  0  0  0
 31 24  1  0  0  0  0
M  END
$$$$
