CSD_code = TALYAJ | q = 0 | S = 0 | Stoichiometry = C10H16F4OP2W | MND = 7
 OpenBabel04212202103D

 34 34  0  0  0  0  0  0  0  0999 V2000
    3.9026    6.3662    3.5453 W   0  0  0  0  0  0  0  0  0  0  0  0
    5.6273    5.9146    1.6192 P   0  0  0  0  0  4  0  0  0  0  0  0
    5.7370    8.2252    3.8075 P   0  0  0  0  0  0  0  0  0  0  0  0
    4.9518    5.2399    4.6860 F   0  0  0  0  0  0  0  0  0  0  0  0
    1.9992    6.4455    3.5526 F   0  0  0  0  0  0  0  0  0  0  0  0
    3.4266    4.6433    2.8694 F   0  0  0  0  0  0  0  0  0  0  0  0
    3.5413    7.1585    5.2457 F   0  0  0  0  0  0  0  0  0  0  0  0
    4.0186    7.5553    2.2841 O   0  0  0  0  0  1  0  0  0  0  0  0
    6.9509    4.7564    0.9999 C   0  0  0  0  0  0  0  0  0  0  0  0
    7.1199    4.8386   -0.0708 H   0  0  0  0  0  0  0  0  0  0  0  0
    6.6465    3.7373    1.2283 H   0  0  0  0  0  0  0  0  0  0  0  0
    7.8824    4.9571    1.5233 H   0  0  0  0  0  0  0  0  0  0  0  0
    4.3822    5.6150    0.2909 C   0  0  0  0  0  0  0  0  0  0  0  0
    3.4571    6.1371    0.5607 H   0  0  0  0  0  0  0  0  0  0  0  0
    4.1917    4.5419    0.2439 H   0  0  0  0  0  0  0  0  0  0  0  0
    4.7471    5.9644   -0.6744 H   0  0  0  0  0  0  0  0  0  0  0  0
    6.4085    7.5194    1.1833 C   0  0  0  0  0  0  0  0  0  0  0  0
    6.9375    7.7517   -0.0780 C   0  0  0  0  0  0  0  0  0  0  0  0
    6.9046    6.9758   -0.8284 H   0  0  0  0  0  0  0  0  0  0  0  0
    7.5039    8.9757   -0.3964 C   0  0  0  0  0  0  0  0  0  0  0  0
    7.9023    9.1445   -1.3857 H   0  0  0  0  0  0  0  0  0  0  0  0
    7.5522    9.9787    0.5539 C   0  0  0  0  0  0  0  0  0  0  0  0
    7.9887   10.9362    0.3121 H   0  0  0  0  0  0  0  0  0  0  0  0
    7.0338    9.7542    1.8193 C   0  0  0  0  0  0  0  0  0  0  0  0
    7.0763   10.5451    2.5534 H   0  0  0  0  0  0  0  0  0  0  0  0
    6.4573    8.5353    2.1459 C   0  0  0  0  0  0  0  0  0  0  0  0
    4.5746    9.6296    4.0907 C   0  0  0  0  0  0  0  0  0  0  0  0
    4.4363    9.7402    5.1672 H   0  0  0  0  0  0  0  0  0  0  0  0
    3.6142    9.3822    3.6246 H   0  0  0  0  0  0  0  0  0  0  0  0
    4.9703   10.5560    3.6757 H   0  0  0  0  0  0  0  0  0  0  0  0
    7.1454    8.8361    4.8661 C   0  0  0  0  0  0  0  0  0  0  0  0
    8.0389    8.2550    4.6513 H   0  0  0  0  0  0  0  0  0  0  0  0
    6.8811    8.6782    5.9094 H   0  0  0  0  0  0  0  0  0  0  0  0
    7.3626    9.8907    4.7166 H   0  0  0  0  0  0  0  0  0  0  0  0
  1  5  1  0  0  0  0
  1  4  1  0  0  0  0
  1  7  1  0  0  0  0
  2  1  1  0  0  0  0
  3 27  1  0  0  0  0
  3 31  1  0  0  0  0
  6  1  1  0  0  0  0
  8  1  1  0  0  0  0
  9 11  1  0  0  0  0
  9 12  1  0  0  0  0
  9  2  1  0  0  0  0
 10  9  1  0  0  0  0
 13 14  1  0  0  0  0
 13  2  1  0  0  0  0
 15 13  1  0  0  0  0
 16 13  1  0  0  0  0
 17  2  1  0  0  0  0
 17 26  1  0  0  0  0
 18 17  2  0  0  0  0
 19 18  1  0  0  0  0
 20 18  1  0  0  0  0
 20 22  2  0  0  0  0
 21 20  1  0  0  0  0
 22 24  1  0  0  0  0
 23 22  1  0  0  0  0
 24 26  2  0  0  0  0
 24 25  1  0  0  0  0
 26  3  1  0  0  0  0
 27 28  1  0  0  0  0
 29 27  1  0  0  0  0
 30 27  1  0  0  0  0
 31 33  1  0  0  0  0
 32 31  1  0  0  0  0
 34 31  1  0  0  0  0
M  END
$$$$
