CSD_code = TALZEM | q = 1 | S = 0 | Stoichiometry = C24H16ClN4Zn(1+) | MND = 5
 OpenBabel04212202103D

 46 53  0  0  0  0  0  0  0  0999 V2000
    2.7882    1.5166    2.8156 Zn  0  0  0  0  0  0  0  0  0  0  0  0
    0.6287    1.4136    2.7685 Cl  0  0  0  0  0  0  0  0  0  0  0  0
    3.9439   -0.2437    3.0067 N   0  0  0  0  0  0  0  0  0  0  0  0
    2.8635    1.3034    4.9509 N   0  0  0  0  0  0  0  0  0  0  0  0
    4.5160   -0.9649    2.0649 C   0  0  0  0  0  0  0  0  0  0  0  0
    4.5709   -0.5169    1.0830 H   0  0  0  0  0  0  0  0  0  0  0  0
    5.0367   -2.2401    2.2938 C   0  0  0  0  0  0  0  0  0  0  0  0
    5.4957   -2.7842    1.4842 H   0  0  0  0  0  0  0  0  0  0  0  0
    4.9417   -2.7830    3.5530 C   0  0  0  0  0  0  0  0  0  0  0  0
    5.3166   -3.7731    3.7649 H   0  0  0  0  0  0  0  0  0  0  0  0
    4.3452   -2.0318    4.5795 C   0  0  0  0  0  0  0  0  0  0  0  0
    3.8685   -0.7418    4.2531 C   0  0  0  0  0  0  0  0  0  0  0  0
    3.2685    0.0650    5.2762 C   0  0  0  0  0  0  0  0  0  0  0  0
    3.1153   -0.4643    6.5766 C   0  0  0  0  0  0  0  0  0  0  0  0
    2.4808    0.3450    7.5349 C   0  0  0  0  0  0  0  0  0  0  0  0
    2.3380   -0.0281    8.5380 H   0  0  0  0  0  0  0  0  0  0  0  0
    2.0457    1.5968    7.1717 C   0  0  0  0  0  0  0  0  0  0  0  0
    1.5428    2.2396    7.8759 H   0  0  0  0  0  0  0  0  0  0  0  0
    2.2631    2.0374    5.8634 C   0  0  0  0  0  0  0  0  0  0  0  0
    1.9279    3.0163    5.5495 H   0  0  0  0  0  0  0  0  0  0  0  0
    4.1957   -2.5230    5.9087 C   0  0  0  0  0  0  0  0  0  0  0  0
    4.5643   -3.5130    6.1295 H   0  0  0  0  0  0  0  0  0  0  0  0
    3.5951   -1.7747    6.8648 C   0  0  0  0  0  0  0  0  0  0  0  0
    3.4677   -2.1546    7.8669 H   0  0  0  0  0  0  0  0  0  0  0  0
    2.9406    1.7224    0.6848 N   0  0  0  0  0  0  0  0  0  0  0  0
    3.7403    3.3967    2.6603 N   0  0  0  0  0  0  0  0  0  0  0  0
    2.4741    0.9185   -0.2469 C   0  0  0  0  0  0  0  0  0  0  0  0
    2.2280   -0.0874    0.0644 H   0  0  0  0  0  0  0  0  0  0  0  0
    2.2857    1.3190   -1.5723 C   0  0  0  0  0  0  0  0  0  0  0  0
    1.8958    0.6178   -2.2923 H   0  0  0  0  0  0  0  0  0  0  0  0
    2.6042    2.6066   -1.9316 C   0  0  0  0  0  0  0  0  0  0  0  0
    2.4796    2.9514   -2.9472 H   0  0  0  0  0  0  0  0  0  0  0  0
    3.0923    3.4898   -0.9530 C   0  0  0  0  0  0  0  0  0  0  0  0
    3.2282    2.9938    0.3625 C   0  0  0  0  0  0  0  0  0  0  0  0
    3.6793    3.8713    1.4038 C   0  0  0  0  0  0  0  0  0  0  0  0
    4.0289    5.2029    1.0833 C   0  0  0  0  0  0  0  0  0  0  0  0
    4.4790    6.0262    2.1289 C   0  0  0  0  0  0  0  0  0  0  0  0
    4.7542    7.0495    1.9220 H   0  0  0  0  0  0  0  0  0  0  0  0
    4.5600    5.5106    3.4005 C   0  0  0  0  0  0  0  0  0  0  0  0
    4.9076    6.1112    4.2255 H   0  0  0  0  0  0  0  0  0  0  0  0
    4.1727    4.1872    3.6208 C   0  0  0  0  0  0  0  0  0  0  0  0
    4.2214    3.7577    4.6112 H   0  0  0  0  0  0  0  0  0  0  0  0
    3.4435    4.8414   -1.2359 C   0  0  0  0  0  0  0  0  0  0  0  0
    3.3337    5.1946   -2.2498 H   0  0  0  0  0  0  0  0  0  0  0  0
    3.9032    5.6608   -0.2602 C   0  0  0  0  0  0  0  0  0  0  0  0
    4.1743    6.6827   -0.4768 H   0  0  0  0  0  0  0  0  0  0  0  0
  1  3  1  0  0  0  0
  1  4  1  0  0  0  0
  2  1  1  0  0  0  0
  3 12  1  0  0  0  0
  4 13  1  0  0  0  0
  4 19  1  0  0  0  0
  5  7  2  0  0  0  0
  5  3  1  0  0  0  0
  6  5  1  0  0  0  0
  7  9  1  0  0  0  0
  8  7  1  0  0  0  0
  9 10  1  0  0  0  0
  9 11  2  0  0  0  0
 11 21  1  0  0  0  0
 12 11  1  0  0  0  0
 12 13  2  0  0  0  0
 13 14  1  0  0  0  0
 14 23  1  0  0  0  0
 14 15  2  0  0  0  0
 15 16  1  0  0  0  0
 17 15  1  0  0  0  0
 17 18  1  0  0  0  0
 19 17  2  0  0  0  0
 20 19  1  0  0  0  0
 21 22  1  0  0  0  0
 21 23  2  0  0  0  0
 23 24  1  0  0  0  0
 25  1  1  0  0  0  0
 26  1  1  0  0  0  0
 26 41  1  0  0  0  0
 27 28  1  0  0  0  0
 27 25  1  0  0  0  0
 29 27  2  0  0  0  0
 30 29  1  0  0  0  0
 31 29  1  0  0  0  0
 31 33  2  0  0  0  0
 32 31  1  0  0  0  0
 33 34  1  0  0  0  0
 34 25  1  0  0  0  0
 34 35  2  0  0  0  0
 35 26  1  0  0  0  0
 36 35  1  0  0  0  0
 36 37  2  0  0  0  0
 37 39  1  0  0  0  0
 38 37  1  0  0  0  0
 39 41  2  0  0  0  0
 39 40  1  0  0  0  0
 41 42  1  0  0  0  0
 43 33  1  0  0  0  0
 43 45  2  0  0  0  0
 44 43  1  0  0  0  0
 45 36  1  0  0  0  0
 46 45  1  0  0  0  0
M  END
$$$$
