CSD_code = TAMZIR | q = 0 | S = 0 | Stoichiometry = C20H44Cl2OP2Ru | MND = 5
 OpenBabel04212202103D

 70 70  0  0  0  0  0  0  0  0999 V2000
    5.3694    2.1015    2.9971 Ru  0  0  0  0  0  0  0  0  0  0  0  0
    4.9662    3.9188    4.4128 Cl  0  0  0  0  0  0  0  0  0  0  0  0
    3.1601    1.5981    2.4002 Cl  0  0  0  0  0  0  0  0  0  0  0  0
    5.4795    0.6068    4.7717 P   0  0  0  0  0  4  0  0  0  0  0  0
    5.8703    3.5296    1.2471 P   0  0  0  0  0  4  0  0  0  0  0  0
    7.5846    2.3552    3.4064 O   0  0  0  0  0  0  0  0  0  0  0  0
    7.3273    0.6457    5.0649 C   0  0  0  0  0  0  0  0  0  0  0  0
    7.5814    0.3543    6.0846 H   0  0  0  0  0  0  0  0  0  0  0  0
    7.7968   -0.0583    4.3728 H   0  0  0  0  0  0  0  0  0  0  0  0
    7.8746    2.0379    4.7608 C   0  0  0  0  0  0  0  0  0  0  0  0
    7.4248    2.7934    5.4175 H   0  0  0  0  0  0  0  0  0  0  0  0
    8.9685    2.0559    4.8965 H   0  0  0  0  0  0  0  0  0  0  0  0
    7.9942    3.6680    3.0402 C   0  0  0  0  0  0  0  0  0  0  0  0
    9.0765    3.7616    3.2236 H   0  0  0  0  0  0  0  0  0  0  0  0
    7.4632    4.4052    3.6582 H   0  0  0  0  0  0  0  0  0  0  0  0
    7.6851    3.8725    1.5608 C   0  0  0  0  0  0  0  0  0  0  0  0
    8.2836    3.1638    0.9853 H   0  0  0  0  0  0  0  0  0  0  0  0
    7.9586    4.8833    1.2595 H   0  0  0  0  0  0  0  0  0  0  0  0
    5.2116   -1.1917    4.2364 C   0  0  0  0  0  0  0  0  0  0  0  0
    6.0180   -2.2535    4.9834 C   0  0  0  0  0  0  0  0  0  0  0  0
    5.8117   -3.2256    4.5351 H   0  0  0  0  0  0  0  0  0  0  0  0
    5.7508   -2.3119    6.0321 H   0  0  0  0  0  0  0  0  0  0  0  0
    7.0883   -2.0761    4.9091 H   0  0  0  0  0  0  0  0  0  0  0  0
    5.6264   -1.1987    2.7601 C   0  0  0  0  0  0  0  0  0  0  0  0
    5.5709   -2.2081    2.3537 H   0  0  0  0  0  0  0  0  0  0  0  0
    6.6486   -0.8386    2.6213 H   0  0  0  0  0  0  0  0  0  0  0  0
    4.9298   -0.5734    2.1935 H   0  0  0  0  0  0  0  0  0  0  0  0
    3.7169   -1.5130    4.2787 C   0  0  0  0  0  0  0  0  0  0  0  0
    3.5209   -2.4230    3.7119 H   0  0  0  0  0  0  0  0  0  0  0  0
    3.1503   -0.7013    3.8211 H   0  0  0  0  0  0  0  0  0  0  0  0
    3.3593   -1.6708    5.2921 H   0  0  0  0  0  0  0  0  0  0  0  0
    4.7419    0.8826    6.4966 C   0  0  0  0  0  0  0  0  0  0  0  0
    4.8326   -0.3157    7.4400 C   0  0  0  0  0  0  0  0  0  0  0  0
    4.4639   -0.0148    8.4205 H   0  0  0  0  0  0  0  0  0  0  0  0
    5.8627   -0.6471    7.5618 H   0  0  0  0  0  0  0  0  0  0  0  0
    4.2236   -1.1497    7.1055 H   0  0  0  0  0  0  0  0  0  0  0  0
    3.2825    1.2801    6.2610 C   0  0  0  0  0  0  0  0  0  0  0  0
    2.8275    1.6129    7.1926 H   0  0  0  0  0  0  0  0  0  0  0  0
    2.6963    0.4539    5.8694 H   0  0  0  0  0  0  0  0  0  0  0  0
    3.2323    2.1005    5.5446 H   0  0  0  0  0  0  0  0  0  0  0  0
    5.4592    2.0580    7.1693 C   0  0  0  0  0  0  0  0  0  0  0  0
    4.9360    2.3082    8.0915 H   0  0  0  0  0  0  0  0  0  0  0  0
    5.4398    2.9391    6.5329 H   0  0  0  0  0  0  0  0  0  0  0  0
    6.4877    1.8132    7.4291 H   0  0  0  0  0  0  0  0  0  0  0  0
    5.9629    2.5159   -0.3488 C   0  0  0  0  0  0  0  0  0  0  0  0
    6.8539    3.0347   -1.4766 C   0  0  0  0  0  0  0  0  0  0  0  0
    7.0335    2.2236   -2.1825 H   0  0  0  0  0  0  0  0  0  0  0  0
    7.8193    3.3811   -1.1151 H   0  0  0  0  0  0  0  0  0  0  0  0
    6.3820    3.8449   -2.0221 H   0  0  0  0  0  0  0  0  0  0  0  0
    6.5056    1.1703    0.1517 C   0  0  0  0  0  0  0  0  0  0  0  0
    6.3984    0.4016   -0.6128 H   0  0  0  0  0  0  0  0  0  0  0  0
    5.9215    0.8569    1.0303 H   0  0  0  0  0  0  0  0  0  0  0  0
    7.5582    1.2258    0.4295 H   0  0  0  0  0  0  0  0  0  0  0  0
    4.5391    2.2824   -0.8552 C   0  0  0  0  0  0  0  0  0  0  0  0
    4.5358    1.4997   -1.6136 H   0  0  0  0  0  0  0  0  0  0  0  0
    4.1213    3.1804   -1.3031 H   0  0  0  0  0  0  0  0  0  0  0  0
    3.8924    1.9665   -0.0342 H   0  0  0  0  0  0  0  0  0  0  0  0
    5.1158    5.2328    0.9395 C   0  0  0  0  0  0  0  0  0  0  0  0
    3.6117    5.0444    1.1500 C   0  0  0  0  0  0  0  0  0  0  0  0
    3.0941    5.9984    1.0661 H   0  0  0  0  0  0  0  0  0  0  0  0
    3.4253    4.6382    2.1446 H   0  0  0  0  0  0  0  0  0  0  0  0
    3.1870    4.3559    0.4237 H   0  0  0  0  0  0  0  0  0  0  0  0
    5.6360    6.2099    1.9987 C   0  0  0  0  0  0  0  0  0  0  0  0
    5.0386    7.1197    1.9640 H   0  0  0  0  0  0  0  0  0  0  0  0
    6.6737    6.4891    1.8259 H   0  0  0  0  0  0  0  0  0  0  0  0
    5.5375    5.7870    2.9958 H   0  0  0  0  0  0  0  0  0  0  0  0
    5.4061    5.8095   -0.4438 C   0  0  0  0  0  0  0  0  0  0  0  0
    5.0438    6.8364   -0.4815 H   0  0  0  0  0  0  0  0  0  0  0  0
    4.8969    5.2525   -1.2250 H   0  0  0  0  0  0  0  0  0  0  0  0
    6.4749    5.8229   -0.6510 H   0  0  0  0  0  0  0  0  0  0  0  0
  1  2  1  0  0  0  0
  1  4  1  0  0  0  0
  3  1  1  0  0  0  0
  4  7  1  0  0  0  0
  4 32  1  0  0  0  0
  5 16  1  0  0  0  0
  5  1  1  0  0  0  0
  6 10  1  0  0  0  0
  7  8  1  0  0  0  0
  9  7  1  0  0  0  0
 10 12  1  0  0  0  0
 10  7  1  0  0  0  0
 10 11  1  0  0  0  0
 13 14  1  0  0  0  0
 13  6  1  0  0  0  0
 13 15  1  0  0  0  0
 16 13  1  0  0  0  0
 17 16  1  0  0  0  0
 18 16  1  0  0  0  0
 19 28  1  0  0  0  0
 19  4  1  0  0  0  0
 19 20  1  0  0  0  0
 20 22  1  0  0  0  0
 21 20  1  0  0  0  0
 23 20  1  0  0  0  0
 24 19  1  0  0  0  0
 25 24  1  0  0  0  0
 26 24  1  0  0  0  0
 27 24  1  0  0  0  0
 28 31  1  0  0  0  0
 29 28  1  0  0  0  0
 30 28  1  0  0  0  0
 32 41  1  0  0  0  0
 32 33  1  0  0  0  0
 33 35  1  0  0  0  0
 33 34  1  0  0  0  0
 36 33  1  0  0  0  0
 37 32  1  0  0  0  0
 37 38  1  0  0  0  0
 39 37  1  0  0  0  0
 40 37  1  0  0  0  0
 41 44  1  0  0  0  0
 41 42  1  0  0  0  0
 43 41  1  0  0  0  0
 45 50  1  0  0  0  0
 45  5  1  0  0  0  0
 46 48  1  0  0  0  0
 46 45  1  0  0  0  0
 47 46  1  0  0  0  0
 49 46  1  0  0  0  0
 50 53  1  0  0  0  0
 50 52  1  0  0  0  0
 51 50  1  0  0  0  0
 54 45  1  0  0  0  0
 54 57  1  0  0  0  0
 55 54  1  0  0  0  0
 56 54  1  0  0  0  0
 58 59  1  0  0  0  0
 58  5  1  0  0  0  0
 58 63  1  0  0  0  0
 59 61  1  0  0  0  0
 60 59  1  0  0  0  0
 62 59  1  0  0  0  0
 63 66  1  0  0  0  0
 64 63  1  0  0  0  0
 65 63  1  0  0  0  0
 67 58  1  0  0  0  0
 68 67  1  0  0  0  0
 69 67  1  0  0  0  0
 70 67  1  0  0  0  0
M  END
$$$$
