CSD_code = TANBAM | q = 0 | S = 0 | Stoichiometry = C16H38Cl2OP2Ru | MND = 7
 OpenBabel04212202103D

 60 59  0  0  0  0  0  0  0  0999 V2000
    2.5537    1.1173    9.0584 Ru  0  0  0  0  0  0  0  0  0  0  0  0
    2.6610    0.2059    7.8307 H   0  0  0  0  0  0  0  0  0  0  0  0
    3.8094    1.0046    8.1858 H   0  0  0  0  0  0  0  0  0  0  0  0
    1.8341    3.0842    7.8920 Cl  0  0  0  0  0 15  0  0  0  0  0  0
    3.0217   -0.6507   10.5899 Cl  0  0  0  0  0  0  0  0  0  0  0  0
    0.4535    0.1440    8.7853 P   0  0  0  0  0  4  0  0  0  0  0  0
    4.2268    2.2969   10.1681 P   0  0  0  0  0  4  0  0  0  0  0  0
    1.3734    2.0283   10.8419 O   0  0  0  0  0  0  0  0  0  0  0  0
   -0.5325    0.7607   10.2324 C   0  0  0  0  0  0  0  0  0  0  0  0
   -1.6023    0.7888   10.0212 H   0  0  0  0  0  0  0  0  0  0  0  0
   -0.3395    0.0746   11.0639 H   0  0  0  0  0  0  0  0  0  0  0  0
   -0.0191    2.1419   10.6073 C   0  0  0  0  0  0  0  0  0  0  0  0
   -0.2083    2.8720    9.8061 H   0  0  0  0  0  0  0  0  0  0  0  0
   -0.5046    2.4982   11.5300 H   0  0  0  0  0  0  0  0  0  0  0  0
    1.9395    3.2084   11.3819 C   0  0  0  0  0  0  0  0  0  0  0  0
    1.3855    3.4779   12.2960 H   0  0  0  0  0  0  0  0  0  0  0  0
    1.8469    4.0334   10.6601 H   0  0  0  0  0  0  0  0  0  0  0  0
    3.3960    2.9166   11.7074 C   0  0  0  0  0  0  0  0  0  0  0  0
    3.4396    2.1039   12.4404 H   0  0  0  0  0  0  0  0  0  0  0  0
    3.8875    3.8022   12.1132 H   0  0  0  0  0  0  0  0  0  0  0  0
    0.3134   -1.6914    9.0694 C   0  0  0  0  0  0  0  0  0  0  0  0
    0.7479   -1.8122   10.0708 H   0  0  0  0  0  0  0  0  0  0  0  0
    1.1793   -2.4880    8.0991 C   0  0  0  0  0  0  0  0  0  0  0  0
    1.2151   -3.5302    8.4112 H   0  0  0  0  0  0  0  0  0  0  0  0
    2.1975   -2.0996    8.0987 H   0  0  0  0  0  0  0  0  0  0  0  0
    0.7801   -2.4506    7.0874 H   0  0  0  0  0  0  0  0  0  0  0  0
   -1.1180   -2.2202    9.0835 C   0  0  0  0  0  0  0  0  0  0  0  0
   -1.1205   -3.2264    9.4994 H   0  0  0  0  0  0  0  0  0  0  0  0
   -1.5264   -2.2817    8.0767 H   0  0  0  0  0  0  0  0  0  0  0  0
   -1.7761   -1.6034    9.6918 H   0  0  0  0  0  0  0  0  0  0  0  0
   -0.6106    0.4873    7.2917 C   0  0  0  0  0  0  0  0  0  0  0  0
   -1.3659   -0.3077    7.2625 H   0  0  0  0  0  0  0  0  0  0  0  0
    0.2686    0.4067    6.0458 C   0  0  0  0  0  0  0  0  0  0  0  0
   -0.3402    0.4991    5.1479 H   0  0  0  0  0  0  0  0  0  0  0  0
    0.8132   -0.5344    6.0001 H   0  0  0  0  0  0  0  0  0  0  0  0
    0.9932    1.2201    6.0561 H   0  0  0  0  0  0  0  0  0  0  0  0
   -1.3176    1.8389    7.3344 C   0  0  0  0  0  0  0  0  0  0  0  0
   -1.8854    1.9720    6.4146 H   0  0  0  0  0  0  0  0  0  0  0  0
   -0.5888    2.6439    7.3959 H   0  0  0  0  0  0  0  0  0  0  0  0
   -2.0131    1.9159    8.1681 H   0  0  0  0  0  0  0  0  0  0  0  0
    5.0506    3.8039    9.4386 C   0  0  0  0  0  0  0  0  0  0  0  0
    5.9511    3.9824   10.0387 H   0  0  0  0  0  0  0  0  0  0  0  0
    4.1816    5.0578    9.4719 C   0  0  0  0  0  0  0  0  0  0  0  0
    4.7219    5.8773    8.9998 H   0  0  0  0  0  0  0  0  0  0  0  0
    3.9367    5.3632   10.4877 H   0  0  0  0  0  0  0  0  0  0  0  0
    3.2644    4.8965    8.9096 H   0  0  0  0  0  0  0  0  0  0  0  0
    5.4456    3.4916    7.9974 C   0  0  0  0  0  0  0  0  0  0  0  0
    6.0176    4.3167    7.5761 H   0  0  0  0  0  0  0  0  0  0  0  0
    4.5495    3.3513    7.3942 H   0  0  0  0  0  0  0  0  0  0  0  0
    6.0459    2.5863    7.9339 H   0  0  0  0  0  0  0  0  0  0  0  0
    5.6084    1.3028   10.9253 C   0  0  0  0  0  0  0  0  0  0  0  0
    5.0694    0.6099   11.5848 H   0  0  0  0  0  0  0  0  0  0  0  0
    6.3409    0.4599    9.8864 C   0  0  0  0  0  0  0  0  0  0  0  0
    7.0043   -0.2429   10.3872 H   0  0  0  0  0  0  0  0  0  0  0  0
    6.9415    1.0780    9.2221 H   0  0  0  0  0  0  0  0  0  0  0  0
    5.6250   -0.1112    9.2954 H   0  0  0  0  0  0  0  0  0  0  0  0
    6.5897    2.1188   11.7614 C   0  0  0  0  0  0  0  0  0  0  0  0
    7.1870    1.4414   12.3696 H   0  0  0  0  0  0  0  0  0  0  0  0
    6.0793    2.8093   12.4300 H   0  0  0  0  0  0  0  0  0  0  0  0
    7.2743    2.6809   11.1293 H   0  0  0  0  0  0  0  0  0  0  0  0
  1  7  1  0  0  0  0
  1  5  1  0  0  0  0
  2  1  1  0  0  0  0
  3  1  1  0  0  0  0
  6  1  1  0  0  0  0
  6 21  1  0  0  0  0
  6  9  1  0  0  0  0
  7 51  1  0  0  0  0
  7 18  1  0  0  0  0
  8 15  1  0  0  0  0
  9 12  1  0  0  0  0
  9 11  1  0  0  0  0
 10  9  1  0  0  0  0
 12  8  1  0  0  0  0
 12 14  1  0  0  0  0
 13 12  1  0  0  0  0
 15 18  1  0  0  0  0
 15 16  1  0  0  0  0
 17 15  1  0  0  0  0
 18 20  1  0  0  0  0
 18 19  1  0  0  0  0
 21 27  1  0  0  0  0
 21 22  1  0  0  0  0
 23 24  1  0  0  0  0
 23 21  1  0  0  0  0
 25 23  1  0  0  0  0
 26 23  1  0  0  0  0
 27 28  1  0  0  0  0
 27 30  1  0  0  0  0
 29 27  1  0  0  0  0
 31 37  1  0  0  0  0
 31  6  1  0  0  0  0
 32 31  1  0  0  0  0
 33 36  1  0  0  0  0
 33 31  1  0  0  0  0
 34 33  1  0  0  0  0
 35 33  1  0  0  0  0
 37 39  1  0  0  0  0
 37 40  1  0  0  0  0
 38 37  1  0  0  0  0
 41 43  1  0  0  0  0
 41 42  1  0  0  0  0
 41  7  1  0  0  0  0
 43 45  1  0  0  0  0
 44 43  1  0  0  0  0
 46 43  1  0  0  0  0
 47 41  1  0  0  0  0
 48 47  1  0  0  0  0
 49 47  1  0  0  0  0
 50 47  1  0  0  0  0
 51 52  1  0  0  0  0
 51 57  1  0  0  0  0
 53 54  1  0  0  0  0
 53 51  1  0  0  0  0
 55 53  1  0  0  0  0
 56 53  1  0  0  0  0
 57 58  1  0  0  0  0
 57 59  1  0  0  0  0
 60 57  1  0  0  0  0
M  END
$$$$
