CSD_code = TANCAP | q = 0 | S = 0 | Stoichiometry = C17H14ClN2O4RhS | MND = 4
 OpenBabel04212202103D

 40 42  0  0  0  0  0  0  0  0999 V2000
    1.0952   10.9399    2.8862 Rh  0  0  0  0  0  0  0  0  0  0  0  0
   -4.3004   10.1222    2.3329 O   0  0  0  0  0  0  0  0  0  0  0  0
   -1.7676   10.3440    2.5580 N   0  0  0  0  0  0  0  0  0  0  0  0
   -1.9415   11.7805    2.6216 C   0  0  0  0  0  0  0  0  0  0  0  0
   -1.2377   12.2065    3.3477 H   0  0  0  0  0  0  0  0  0  0  0  0
   -2.9660   11.9641    2.9410 H   0  0  0  0  0  0  0  0  0  0  0  0
   -1.7856   12.2342    1.6389 H   0  0  0  0  0  0  0  0  0  0  0  0
    0.8799    6.7495    1.5464 C   0  0  0  0  0  0  0  0  0  0  0  0
    0.8589    7.8476    2.5760 C   0  0  0  0  0  0  0  0  0  0  0  0
    0.7724   10.3403    5.0200 Cl  0  0  0  0  0  0  0  0  0  0  0  0
   -3.0985    9.4407    1.9789 S   0  0  0  0  0  0  0  0  0  0  0  0
   -0.4686    8.4466    2.6896 N   0  0  0  0  0  0  0  0  0  0  0  0
   -2.8369    9.1764    0.5967 O   0  0  0  0  0  0  0  0  0  0  0  0
   -0.5533    9.7875    2.5997 C   0  0  0  0  0  0  0  0  0  0  0  0
   -2.8368    7.9715    2.9081 C   0  0  0  0  0  0  0  0  0  0  0  0
    2.5433   11.9257    3.5200 C   0  0  0  0  0  2  0  0  0  0  0  0
    1.2442   11.3940    1.1028 C   0  0  0  0  0  2  0  0  0  0  0  0
    0.0751    6.8244    0.4155 C   0  0  0  0  0  0  0  0  0  0  0  0
   -0.5879    7.6660    0.2717 H   0  0  0  0  0  0  0  0  0  0  0  0
    1.1945    7.4869    3.5538 H   0  0  0  0  0  0  0  0  0  0  0  0
   -3.6434    6.0170    4.0099 C   0  0  0  0  0  0  0  0  0  0  0  0
   -4.4555    5.4096    4.3755 H   0  0  0  0  0  0  0  0  0  0  0  0
   -3.8960    7.2151    3.3698 C   0  0  0  0  0  0  0  0  0  0  0  0
   -4.8962    7.5849    3.2102 H   0  0  0  0  0  0  0  0  0  0  0  0
    3.3858   12.4708    4.0586 O   0  0  0  0  0  1  0  0  0  0  0  0
   -2.3277    5.6016    4.1624 C   0  0  0  0  0  0  0  0  0  0  0  0
   -2.1176    4.6615    4.6493 H   0  0  0  0  0  0  0  0  0  0  0  0
    0.1140    5.8166   -0.5316 C   0  0  0  0  0  0  0  0  0  0  0  0
   -0.5178    5.8824   -1.4042 H   0  0  0  0  0  0  0  0  0  0  0  0
    1.5576    8.6578    2.2751 H   0  0  0  0  0  0  0  0  0  0  0  0
   -1.2718    6.3703    3.7121 C   0  0  0  0  0  0  0  0  0  0  0  0
   -0.2707    6.0080    3.8656 H   0  0  0  0  0  0  0  0  0  0  0  0
   -1.5070    7.5962    3.0776 C   0  0  0  0  0  0  0  0  0  0  0  0
    1.7272    5.6605    1.7079 C   0  0  0  0  0  0  0  0  0  0  0  0
    2.3612    5.6011    2.5814 H   0  0  0  0  0  0  0  0  0  0  0  0
    1.7696    4.6585    0.7552 C   0  0  0  0  0  0  0  0  0  0  0  0
    2.4335    3.8177    0.8899 H   0  0  0  0  0  0  0  0  0  0  0  0
    0.9599    4.7331   -0.3652 C   0  0  0  0  0  0  0  0  0  0  0  0
    0.9896    3.9496   -1.1072 H   0  0  0  0  0  0  0  0  0  0  0  0
    1.3136   11.6767   -0.0052 O   0  0  0  0  0  1  0  0  0  0  0  0
  1 16  1  0  0  0  0
  1 10  1  0  0  0  0
  3 14  1  0  0  0  0
  3  4  1  0  0  0  0
  4  6  1  0  0  0  0
  4  5  1  0  0  0  0
  7  4  1  0  0  0  0
  8 34  1  0  0  0  0
  8  9  1  0  0  0  0
  9 12  1  0  0  0  0
  9 20  1  0  0  0  0
 11  2  2  0  0  0  0
 11  3  1  0  0  0  0
 11 15  1  0  0  0  0
 12 33  1  0  0  0  0
 13 11  2  0  0  0  0
 14 12  1  0  0  0  0
 14  1  2  0  0  0  0
 15 33  2  0  0  0  0
 15 23  1  0  0  0  0
 16 25  1  0  0  0  0
 17  1  1  0  0  0  0
 18  8  2  0  0  0  0
 19 18  1  0  0  0  0
 21 26  1  0  0  0  0
 21 22  1  0  0  0  0
 23 21  2  0  0  0  0
 24 23  1  0  0  0  0
 26 27  1  0  0  0  0
 28 38  2  0  0  0  0
 28 18  1  0  0  0  0
 29 28  1  0  0  0  0
 30  9  1  0  0  0  0
 31 32  1  0  0  0  0
 31 26  2  0  0  0  0
 33 31  1  0  0  0  0
 34 35  1  0  0  0  0
 36 37  1  0  0  0  0
 36 34  2  0  0  0  0
 38 36  1  0  0  0  0
 39 38  1  0  0  0  0
 40 17  1  0  0  0  0
M  END
$$$$
