CSD_code = TANDOC | q = -1 | S = 0 | Stoichiometry = C6H7Cl3NPt(1-) | MND = 4
 OpenBabel04212202103D

 18 18  0  0  0  0  0  0  0  0999 V2000
    1.4521    0.8231    1.7697 Pt  0  0  0  0  0  0  0  0  0  0  0  0
    1.5705    3.1304    1.9388 Cl  0  0  0  0  0  0  0  0  0  0  0  0
    0.1076    0.6858    3.5688 Cl  0  0  0  0  0  0  0  0  0  0  0  0
    1.4240   -1.4748    1.4804 Cl  0  0  0  0  0  0  0  0  0  0  0  0
    2.6163    0.9406    0.2168 N   0  0  0  0  0  0  0  0  0  0  0  0
    3.8209    1.5200    0.3000 C   0  0  0  0  0  3  0  0  0  0  0  0
    4.0898    1.9292    1.2648 H   0  0  0  0  0  0  0  0  0  0  0  0
    4.6776    1.6149   -0.7743 C   0  0  0  0  0  0  0  0  0  0  0  0
    5.6391    2.0909   -0.6505 H   0  0  0  0  0  0  0  0  0  0  0  0
    4.3026    1.1000   -2.0144 C   0  0  0  0  0  0  0  0  0  0  0  0
    3.0482    0.5030   -2.0881 C   0  0  0  0  0  0  0  0  0  0  0  0
    2.6952    0.0837   -3.0188 H   0  0  0  0  0  0  0  0  0  0  0  0
    2.2458    0.4410   -0.9678 C   0  0  0  0  0  0  0  0  0  0  0  0
    1.2748   -0.0348   -1.0054 H   0  0  0  0  0  0  0  0  0  0  0  0
    5.2131    1.1939   -3.1992 C   0  0  0  0  0  0  0  0  0  0  0  0
    4.7661    0.7207   -4.0700 H   0  0  0  0  0  0  0  0  0  0  0  0
    6.1644    0.7071   -2.9856 H   0  0  0  0  0  0  0  0  0  0  0  0
    5.4191    2.2378   -3.4355 H   0  0  0  0  0  0  0  0  0  0  0  0
  1  2  1  0  0  0  0
  1  3  1  0  0  0  0
  4  1  1  0  0  0  0
  5  6  1  0  0  0  0
  5  1  1  0  0  0  0
  6  7  1  0  0  0  0
  8  9  1  0  0  0  0
  8  6  1  0  0  0  0
 10  8  2  0  0  0  0
 11 10  1  0  0  0  0
 11 13  2  0  0  0  0
 12 11  1  0  0  0  0
 13  5  1  0  0  0  0
 14 13  1  0  0  0  0
 15 17  1  0  0  0  0
 15 10  1  0  0  0  0
 16 15  1  0  0  0  0
 18 15  1  0  0  0  0
M  END
$$$$
