CSD_code = TANDUI | q = 0 | S = 0 | Stoichiometry = C12H14Cl2N2Pd | MND = 4
 OpenBabel04212202103D

 31 32  0  0  0  0  0  0  0  0999 V2000
    2.8169    0.0024   15.7270 Pd  0  0  0  0  0  0  0  0  0  0  0  0
    4.4435   -1.5988   15.8660 Cl  0  0  0  0  0  0  0  0  0  0  0  0
    3.1340    0.1602   13.8246 N   0  0  0  0  0  0  0  0  0  0  0  0
    2.3429   -0.4674   12.9553 C   0  0  0  0  0  3  0  0  0  0  0  0
    1.5272   -1.0526   13.3796 H   0  0  0  0  0  0  0  0  0  0  0  0
    2.5362   -0.3828   11.5910 C   0  0  0  0  0  0  0  0  0  0  0  0
    1.8740   -0.9076   10.9199 H   0  0  0  0  0  0  0  0  0  0  0  0
    3.5873    0.3815   11.0877 C   0  0  0  0  0  0  0  0  0  0  0  0
    4.4006    1.0297   12.0124 C   0  0  0  0  0  0  0  0  0  0  0  0
    5.2306    1.6349   11.6820 H   0  0  0  0  0  0  0  0  0  0  0  0
    4.1442    0.8945   13.3638 C   0  0  0  0  0  0  0  0  0  0  0  0
    4.7671    1.3840   14.1121 H   0  0  0  0  0  0  0  0  0  0  0  0
    3.8122    0.5067    9.6175 C   0  0  0  0  0  0  0  0  0  0  0  0
    4.7939    0.9215    9.4061 H   0  0  0  0  0  0  0  0  0  0  0  0
    3.0593    1.1659    9.1856 H   0  0  0  0  0  0  0  0  0  0  0  0
    3.7215   -0.4628    9.1326 H   0  0  0  0  0  0  0  0  0  0  0  0
    1.1898    1.6038   15.5887 Cl  0  0  0  0  0  0  0  0  0  0  0  0
    2.4991   -0.1564   17.6292 N   0  0  0  0  0  0  0  0  0  0  0  0
    3.2895    0.4693   18.5005 C   0  0  0  0  0  3  0  0  0  0  0  0
    4.1056    1.0553   18.0782 H   0  0  0  0  0  0  0  0  0  0  0  0
    3.0947    0.3822   19.8645 C   0  0  0  0  0  0  0  0  0  0  0  0
    3.7565    0.9056   20.5373 H   0  0  0  0  0  0  0  0  0  0  0  0
    2.0430   -0.3828   20.3654 C   0  0  0  0  0  0  0  0  0  0  0  0
    1.2306   -1.0291   19.4386 C   0  0  0  0  0  0  0  0  0  0  0  0
    0.4001   -1.6348   19.7671 H   0  0  0  0  0  0  0  0  0  0  0  0
    1.4883   -0.8915   18.0878 C   0  0  0  0  0  0  0  0  0  0  0  0
    0.8660   -1.3793   17.3379 H   0  0  0  0  0  0  0  0  0  0  0  0
    1.8167   -0.5112   21.8351 C   0  0  0  0  0  0  0  0  0  0  0  0
    0.8346   -0.9258   22.0447 H   0  0  0  0  0  0  0  0  0  0  0  0
    2.5689   -1.1718   22.2663 H   0  0  0  0  0  0  0  0  0  0  0  0
    1.9076    0.4573   22.3222 H   0  0  0  0  0  0  0  0  0  0  0  0
  1  2  1  0  0  0  0
  1 18  1  0  0  0  0
  3  1  1  0  0  0  0
  4  5  1  0  0  0  0
  4  3  1  0  0  0  0
  6  4  1  0  0  0  0
  7  6  1  0  0  0  0
  8  6  2  0  0  0  0
  8  9  1  0  0  0  0
  9 11  2  0  0  0  0
 10  9  1  0  0  0  0
 11  3  1  0  0  0  0
 11 12  1  0  0  0  0
 13  8  1  0  0  0  0
 14 13  1  0  0  0  0
 15 13  1  0  0  0  0
 16 13  1  0  0  0  0
 17  1  1  0  0  0  0
 18 26  1  0  0  0  0
 18 19  1  0  0  0  0
 19 21  1  0  0  0  0
 20 19  1  0  0  0  0
 21 23  2  0  0  0  0
 21 22  1  0  0  0  0
 23 28  1  0  0  0  0
 24 25  1  0  0  0  0
 24 23  1  0  0  0  0
 26 24  2  0  0  0  0
 27 26  1  0  0  0  0
 28 29  1  0  0  0  0
 28 30  1  0  0  0  0
 28 31  1  0  0  0  0
M  END
$$$$
