CSD_code = TANFAQ | q = 0 | S = 0 | Stoichiometry = C36H28ClNP2Pt | MND = 4
 OpenBabel04212202103D

 69 76  0  0  0  0  0  0  0  0999 V2000
    9.0491    1.4181    4.2408 Pt  0  0  0  0  0  0  0  0  0  0  0  0
    6.9417    2.3309    4.2592 Cl  0  0  0  0  0  0  0  0  0  0  0  0
    8.7303    0.0503    6.0197 P   0  0  0  0  0  4  0  0  0  0  0  0
    9.7995    2.5882    2.4514 P   0  0  0  0  0  4  0  0  0  0  0  0
   10.9315    0.6037    4.2249 N   0  0  0  0  0  0  0  0  0  0  0  0
    8.6060    0.5184    7.7637 C   0  0  0  0  0  0  0  0  0  0  0  0
    7.4519    1.1910    8.1629 C   0  0  0  0  0  0  0  0  0  0  0  0
    6.6784    1.3897    7.4324 H   0  0  0  0  0  0  0  0  0  0  0  0
    7.3131    1.5998    9.4751 C   0  0  0  0  0  0  0  0  0  0  0  0
    6.4178    2.1170    9.7875 H   0  0  0  0  0  0  0  0  0  0  0  0
    8.3260    1.3504   10.3894 C   0  0  0  0  0  0  0  0  0  0  0  0
    8.2160    1.6691   11.4156 H   0  0  0  0  0  0  0  0  0  0  0  0
    9.4824    0.7017    9.9884 C   0  0  0  0  0  0  0  0  0  0  0  0
   10.2737    0.5178   10.7006 H   0  0  0  0  0  0  0  0  0  0  0  0
    9.6298    0.2895    8.6754 C   0  0  0  0  0  0  0  0  0  0  0  0
   10.5328   -0.2112    8.3549 H   0  0  0  0  0  0  0  0  0  0  0  0
    7.3405   -1.0768    5.7371 C   0  0  0  0  0  0  0  0  0  0  0  0
    6.6569   -1.7457    6.7445 C   0  0  0  0  0  0  0  0  0  0  0  0
    6.9146   -1.5754    7.7810 H   0  0  0  0  0  0  0  0  0  0  0  0
    5.6358   -2.6192    6.4132 C   0  0  0  0  0  0  0  0  0  0  0  0
    5.0993   -3.1376    7.1947 H   0  0  0  0  0  0  0  0  0  0  0  0
    5.2981   -2.8277    5.0861 C   0  0  0  0  0  0  0  0  0  0  0  0
    4.4966   -3.5071    4.8358 H   0  0  0  0  0  0  0  0  0  0  0  0
    5.9803   -2.1617    4.0792 C   0  0  0  0  0  0  0  0  0  0  0  0
    5.7101   -2.3198    3.0457 H   0  0  0  0  0  0  0  0  0  0  0  0
    6.9996   -1.2886    4.4036 C   0  0  0  0  0  0  0  0  0  0  0  0
    7.5373   -0.7418    3.6292 H   0  0  0  0  0  0  0  0  0  0  0  0
   10.1720   -1.0196    5.8171 C   0  0  0  0  0  0  0  0  0  0  0  0
   10.2987   -2.2347    6.4750 C   0  0  0  0  0  0  0  0  0  0  0  0
    9.5533   -2.5169    7.2070 H   0  0  0  0  0  0  0  0  0  0  0  0
   11.3544   -3.0762    6.1856 C   0  0  0  0  0  0  0  0  0  0  0  0
   11.4622   -4.0186    6.7001 H   0  0  0  0  0  0  0  0  0  0  0  0
   12.2505   -2.7118    5.1874 C   0  0  0  0  0  0  0  0  0  0  0  0
   13.0467   -3.3889    4.9129 H   0  0  0  0  0  0  0  0  0  0  0  0
   12.1347   -1.5105    4.5238 C   0  0  0  0  0  0  0  0  0  0  0  0
   12.8124   -1.2817    3.7152 H   0  0  0  0  0  0  0  0  0  0  0  0
   11.1109   -0.6008    4.8450 C   0  0  0  0  0  0  0  0  0  0  0  0
   11.9226    1.3031    3.5954 C   0  0  0  0  0  0  0  0  0  0  0  0
   13.2906    1.1836    3.9002 C   0  0  0  0  0  0  0  0  0  0  0  0
   13.5996    0.5314    4.7030 H   0  0  0  0  0  0  0  0  0  0  0  0
   14.2349    1.9279    3.2283 C   0  0  0  0  0  0  0  0  0  0  0  0
   15.2771    1.8145    3.4907 H   0  0  0  0  0  0  0  0  0  0  0  0
   13.8720    2.8324    2.2373 C   0  0  0  0  0  0  0  0  0  0  0  0
   14.6245    3.4039    1.7161 H   0  0  0  0  0  0  0  0  0  0  0  0
   12.5318    3.0215    1.9638 C   0  0  0  0  0  0  0  0  0  0  0  0
   12.2159    3.7590    1.2376 H   0  0  0  0  0  0  0  0  0  0  0  0
   11.5700    2.2763    2.6307 C   0  0  0  0  0  0  0  0  0  0  0  0
    9.3464    2.3399    0.7167 C   0  0  0  0  0  0  0  0  0  0  0  0
   10.2028    1.7488   -0.2046 C   0  0  0  0  0  0  0  0  0  0  0  0
   11.1934    1.4427    0.1020 H   0  0  0  0  0  0  0  0  0  0  0  0
    9.7805    1.5604   -1.5092 C   0  0  0  0  0  0  0  0  0  0  0  0
   10.4472    1.1080   -2.2289 H   0  0  0  0  0  0  0  0  0  0  0  0
    8.5069    1.9480   -1.8922 C   0  0  0  0  0  0  0  0  0  0  0  0
    8.1831    1.7997   -2.9119 H   0  0  0  0  0  0  0  0  0  0  0  0
    7.6434    2.5176   -0.9680 C   0  0  0  0  0  0  0  0  0  0  0  0
    6.6467    2.8076   -1.2662 H   0  0  0  0  0  0  0  0  0  0  0  0
    8.0571    2.7093    0.3359 C   0  0  0  0  0  0  0  0  0  0  0  0
    7.3924    3.1389    1.0742 H   0  0  0  0  0  0  0  0  0  0  0  0
    9.6651    4.3748    2.7174 C   0  0  0  0  0  0  0  0  0  0  0  0
    9.6649    5.3199    1.6993 C   0  0  0  0  0  0  0  0  0  0  0  0
    9.7048    5.0043    0.6656 H   0  0  0  0  0  0  0  0  0  0  0  0
    9.5992    6.6654    2.0167 C   0  0  0  0  0  0  0  0  0  0  0  0
    9.5943    7.4027    1.2270 H   0  0  0  0  0  0  0  0  0  0  0  0
    9.5360    7.0683    3.3405 C   0  0  0  0  0  0  0  0  0  0  0  0
    9.4795    8.1200    3.5799 H   0  0  0  0  0  0  0  0  0  0  0  0
    9.5372    6.1262    4.3579 C   0  0  0  0  0  0  0  0  0  0  0  0
    9.4799    6.4424    5.3889 H   0  0  0  0  0  0  0  0  0  0  0  0
    9.6021    4.7823    4.0475 C   0  0  0  0  0  0  0  0  0  0  0  0
    9.5866    4.0243    4.8300 H   0  0  0  0  0  0  0  0  0  0  0  0
  1  2  1  0  0  0  0
  1  3  1  0  0  0  0
  3  6  1  0  0  0  0
  4 47  1  0  0  0  0
  4 59  1  0  0  0  0
  4  1  1  0  0  0  0
  5  1  1  0  0  0  0
  5 37  1  0  0  0  0
  6  7  2  0  0  0  0
  6 15  1  0  0  0  0
  7  9  1  0  0  0  0
  8  7  1  0  0  0  0
  9 10  1  0  0  0  0
  9 11  2  0  0  0  0
 11 12  1  0  0  0  0
 13 11  1  0  0  0  0
 13 14  1  0  0  0  0
 15 13  2  0  0  0  0
 16 15  1  0  0  0  0
 17  3  1  0  0  0  0
 17 18  1  0  0  0  0
 18 19  1  0  0  0  0
 20 18  2  0  0  0  0
 20 21  1  0  0  0  0
 22 20  1  0  0  0  0
 23 22  1  0  0  0  0
 24 26  1  0  0  0  0
 24 22  2  0  0  0  0
 25 24  1  0  0  0  0
 26 17  2  0  0  0  0
 27 26  1  0  0  0  0
 28  3  1  0  0  0  0
 28 29  1  0  0  0  0
 29 30  1  0  0  0  0
 31 29  2  0  0  0  0
 31 32  1  0  0  0  0
 33 31  1  0  0  0  0
 34 33  1  0  0  0  0
 35 37  1  0  0  0  0
 35 33  2  0  0  0  0
 36 35  1  0  0  0  0
 37 28  2  0  0  0  0
 38 39  1  0  0  0  0
 38  5  1  0  0  0  0
 39 40  1  0  0  0  0
 41 42  1  0  0  0  0
 41 39  2  0  0  0  0
 43 41  1  0  0  0  0
 44 43  1  0  0  0  0
 45 43  2  0  0  0  0
 45 47  1  0  0  0  0
 46 45  1  0  0  0  0
 47 38  2  0  0  0  0
 48  4  1  0  0  0  0
 49 50  1  0  0  0  0
 49 48  2  0  0  0  0
 51 49  1  0  0  0  0
 52 51  1  0  0  0  0
 53 51  2  0  0  0  0
 53 55  1  0  0  0  0
 54 53  1  0  0  0  0
 55 57  2  0  0  0  0
 56 55  1  0  0  0  0
 57 48  1  0  0  0  0
 57 58  1  0  0  0  0
 59 68  1  0  0  0  0
 60 62  1  0  0  0  0
 60 59  2  0  0  0  0
 61 60  1  0  0  0  0
 62 64  2  0  0  0  0
 63 62  1  0  0  0  0
 64 65  1  0  0  0  0
 64 66  1  0  0  0  0
 66 67  1  0  0  0  0
 68 66  2  0  0  0  0
 68 69  1  0  0  0  0
M  END
$$$$
