CSD_code = TANJUO | q = 0 | S = 0 | Stoichiometry = C25H33ClNO2RhSi | MND = 4
 OpenBabel04212202103D

 64 65  0  0  0  0  0  0  0  0999 V2000
    1.9302   17.0600    4.8250 Rh  0  0  0  0  0  0  0  0  0  0  0  0
    2.4054   20.2122    4.6440 Si  0  0  0  0  0  0  0  0  0  0  0  0
    3.8275   17.3180    6.0434 Cl  0  0  0  0  0  0  0  0  0  0  0  0
   -0.4182   16.6253    3.0293 O   0  0  0  0  0  1  0  0  0  0  0  0
    1.1603   14.8529    6.7084 O   0  0  0  0  0  1  0  0  0  0  0  0
    3.8635   18.4455    2.9806 N   0  0  0  0  0  0  0  0  0  0  0  0
    2.9166   18.5075    3.8656 C   0  0  0  0  0  0  0  0  0  0  0  0
    0.4914   16.8407    3.6996 C   0  0  0  0  0  2  0  0  0  0  0  0
    1.3680   15.7174    5.9898 C   0  0  0  0  0  2  0  0  0  0  0  0
    0.9295   20.2904    5.9156 C   0  0  0  0  0  0  0  0  0  0  0  0
    0.6947   21.7535    6.3048 C   0  0  0  0  0  0  0  0  0  0  0  0
    0.4906   22.3626    5.4262 H   0  0  0  0  0  0  0  0  0  0  0  0
    1.5558   22.1647    6.8244 H   0  0  0  0  0  0  0  0  0  0  0  0
   -0.1645   21.8246    6.9713 H   0  0  0  0  0  0  0  0  0  0  0  0
   -0.3808   19.7526    5.3432 C   0  0  0  0  0  0  0  0  0  0  0  0
   -0.2815   18.6980    5.0756 H   0  0  0  0  0  0  0  0  0  0  0  0
   -0.6837   20.3144    4.4628 H   0  0  0  0  0  0  0  0  0  0  0  0
   -1.1730   19.8354    6.0873 H   0  0  0  0  0  0  0  0  0  0  0  0
    1.2715   19.5043    7.1802 C   0  0  0  0  0  0  0  0  0  0  0  0
    0.4898   19.6285    7.9295 H   0  0  0  0  0  0  0  0  0  0  0  0
    2.2140   19.8397    7.6078 H   0  0  0  0  0  0  0  0  0  0  0  0
    1.3577   18.4356    6.9521 H   0  0  0  0  0  0  0  0  0  0  0  0
    4.0882   17.2477    2.1414 C   0  0  0  0  0  0  0  0  0  0  0  0
    4.9762   17.4544    1.5427 H   0  0  0  0  0  0  0  0  0  0  0  0
    2.9102   17.0475    1.1898 C   0  0  0  0  0  0  0  0  0  0  0  0
    3.1392   16.2536    0.4838 H   0  0  0  0  0  0  0  0  0  0  0  0
    2.7017   17.9597    0.6358 H   0  0  0  0  0  0  0  0  0  0  0  0
    2.0186   16.7670    1.7456 H   0  0  0  0  0  0  0  0  0  0  0  0
    4.3656   15.9875    2.9537 C   0  0  0  0  0  0  0  0  0  0  0  0
    3.4812   15.7019    3.5439 H   0  0  0  0  0  0  0  0  0  0  0  0
    5.1989   16.1457    3.6341 H   0  0  0  0  0  0  0  0  0  0  0  0
    4.6093   15.1692    2.2808 H   0  0  0  0  0  0  0  0  0  0  0  0
    4.8245   19.5271    2.7281 C   0  0  0  0  0  0  0  0  0  0  0  0
    4.5325   20.3610    3.3665 H   0  0  0  0  0  0  0  0  0  0  0  0
    6.2294   19.0994    3.1544 C   0  0  0  0  0  0  0  0  0  0  0  0
    6.1940   18.6560    4.1460 H   0  0  0  0  0  0  0  0  0  0  0  0
    6.8742   19.9732    3.1933 H   0  0  0  0  0  0  0  0  0  0  0  0
    6.6696   18.3829    2.4652 H   0  0  0  0  0  0  0  0  0  0  0  0
    4.7842   20.0219    1.2833 C   0  0  0  0  0  0  0  0  0  0  0  0
    5.1773   19.2930    0.5792 H   0  0  0  0  0  0  0  0  0  0  0  0
    5.3898   20.9210    1.2055 H   0  0  0  0  0  0  0  0  0  0  0  0
    3.7659   20.2743    0.9987 H   0  0  0  0  0  0  0  0  0  0  0  0
    3.8083   21.2142    5.4656 C   0  0  0  0  0  0  0  0  0  0  0  0
    4.8877   20.5760    6.0729 C   0  0  0  0  0  0  0  0  0  0  0  0
    4.9313   19.4984    6.0735 H   0  0  0  0  0  0  0  0  0  0  0  0
    5.8919   21.2950    6.6960 C   0  0  0  0  0  0  0  0  0  0  0  0
    6.7148   20.7719    7.1612 H   0  0  0  0  0  0  0  0  0  0  0  0
    5.8409   22.6776    6.7282 C   0  0  0  0  0  0  0  0  0  0  0  0
    6.6245   23.2428    7.2116 H   0  0  0  0  0  0  0  0  0  0  0  0
    4.7686   23.3307    6.1450 C   0  0  0  0  0  0  0  0  0  0  0  0
    4.7098   24.4096    6.1762 H   0  0  0  0  0  0  0  0  0  0  0  0
    3.7650   22.6064    5.5271 C   0  0  0  0  0  0  0  0  0  0  0  0
    2.9295   23.1375    5.0979 H   0  0  0  0  0  0  0  0  0  0  0  0
    1.8275   20.9957    2.9933 C   0  0  0  0  0  0  0  0  0  0  0  0
    2.3441   22.1780    2.4738 C   0  0  0  0  0  0  0  0  0  0  0  0
    3.1073   22.7117    3.0181 H   0  0  0  0  0  0  0  0  0  0  0  0
    1.9155   22.6810    1.2573 C   0  0  0  0  0  0  0  0  0  0  0  0
    2.3309   23.6052    0.8817 H   0  0  0  0  0  0  0  0  0  0  0  0
    0.9626   22.0003    0.5199 C   0  0  0  0  0  0  0  0  0  0  0  0
    0.6253   22.3912   -0.4289 H   0  0  0  0  0  0  0  0  0  0  0  0
    0.4541   20.8071    1.0048 C   0  0  0  0  0  0  0  0  0  0  0  0
   -0.2789   20.2575    0.4317 H   0  0  0  0  0  0  0  0  0  0  0  0
    0.8855   20.3150    2.2230 C   0  0  0  0  0  0  0  0  0  0  0  0
    0.4899   19.3757    2.5798 H   0  0  0  0  0  0  0  0  0  0  0  0
  1  9  1  0  0  0  0
  1  3  1  0  0  0  0
  2 43  1  0  0  0  0
  2 10  1  0  0  0  0
  4  8  1  0  0  0  0
  6  7  1  0  0  0  0
  7  2  1  0  0  0  0
  7  1  2  0  0  0  0
  8  1  1  0  0  0  0
  9  5  1  0  0  0  0
 10 11  1  0  0  0  0
 10 19  1  0  0  0  0
 11 13  1  0  0  0  0
 11 14  1  0  0  0  0
 12 11  1  0  0  0  0
 15 10  1  0  0  0  0
 15 18  1  0  0  0  0
 16 15  1  0  0  0  0
 17 15  1  0  0  0  0
 19 21  1  0  0  0  0
 19 20  1  0  0  0  0
 22 19  1  0  0  0  0
 23 29  1  0  0  0  0
 23  6  1  0  0  0  0
 24 23  1  0  0  0  0
 25 28  1  0  0  0  0
 25 23  1  0  0  0  0
 26 25  1  0  0  0  0
 27 25  1  0  0  0  0
 29 30  1  0  0  0  0
 29 31  1  0  0  0  0
 32 29  1  0  0  0  0
 33  6  1  0  0  0  0
 33 35  1  0  0  0  0
 33 34  1  0  0  0  0
 35 37  1  0  0  0  0
 35 36  1  0  0  0  0
 38 35  1  0  0  0  0
 39 33  1  0  0  0  0
 40 39  1  0  0  0  0
 41 39  1  0  0  0  0
 42 39  1  0  0  0  0
 43 52  2  0  0  0  0
 43 44  1  0  0  0  0
 44 45  1  0  0  0  0
 44 46  2  0  0  0  0
 46 48  1  0  0  0  0
 46 47  1  0  0  0  0
 48 49  1  0  0  0  0
 50 51  1  0  0  0  0
 50 48  2  0  0  0  0
 52 50  1  0  0  0  0
 53 52  1  0  0  0  0
 54  2  1  0  0  0  0
 55 54  1  0  0  0  0
 55 56  1  0  0  0  0
 57 55  2  0  0  0  0
 58 57  1  0  0  0  0
 59 61  2  0  0  0  0
 59 57  1  0  0  0  0
 60 59  1  0  0  0  0
 61 63  1  0  0  0  0
 62 61  1  0  0  0  0
 63 64  1  0  0  0  0
 63 54  2  0  0  0  0
M  END
$$$$
