CSD_code = TAPHEX | q = 0 | S = 0 | Stoichiometry = C6H18Br2N2O2Zn | MND = 4
 OpenBabel04212202103D

 31 30  0  0  0  0  0  0  0  0999 V2000
    5.6350    3.4508    7.6544 Zn  0  0  0  0  0  0  0  0  0  0  0  0
    4.9906    2.6956    5.5007 Br  0  0  0  0  0  0  0  0  0  0  0  0
    7.0887    4.7661    7.1189 O   0  0  0  0  0  0  0  0  0  0  0  0
    8.0511    5.3942    7.8331 N   0  0  0  0  0  4  0  0  0  0  0  0
    7.4782    6.0649    9.0157 C   0  0  0  0  0  0  0  0  0  0  0  0
    8.6686    6.4038    6.9481 C   0  0  0  0  0  0  0  0  0  0  0  0
    9.0884    4.4376    8.2708 C   0  0  0  0  0  0  0  0  0  0  0  0
    6.7045    6.7537    8.6834 H   0  0  0  0  0  0  0  0  0  0  0  0
    7.0188    5.3175    9.6606 H   0  0  0  0  0  0  0  0  0  0  0  0
    8.2512    6.6000    9.5628 H   0  0  0  0  0  0  0  0  0  0  0  0
    9.0773    5.8934    6.0781 H   0  0  0  0  0  0  0  0  0  0  0  0
    7.8925    7.0870    6.6080 H   0  0  0  0  0  0  0  0  0  0  0  0
    9.4519    6.9518    7.4680 H   0  0  0  0  0  0  0  0  0  0  0  0
    9.4422    3.8913    7.3982 H   0  0  0  0  0  0  0  0  0  0  0  0
    9.9138    4.9628    8.7465 H   0  0  0  0  0  0  0  0  0  0  0  0
    8.6509    3.7305    8.9746 H   0  0  0  0  0  0  0  0  0  0  0  0
    6.2792    2.6954    9.8082 Br  0  0  0  0  0  0  0  0  0  0  0  0
    4.1814    4.7661    8.1901 O   0  0  0  0  0  0  0  0  0  0  0  0
    3.2189    5.3942    7.4759 N   0  0  0  0  0  4  0  0  0  0  0  0
    3.7918    6.0649    6.2933 C   0  0  0  0  0  0  0  0  0  0  0  0
    2.6015    6.4038    8.3609 C   0  0  0  0  0  0  0  0  0  0  0  0
    2.1816    4.4376    7.0383 C   0  0  0  0  0  0  0  0  0  0  0  0
    4.5655    6.7536    6.6255 H   0  0  0  0  0  0  0  0  0  0  0  0
    4.2510    5.3175    5.6483 H   0  0  0  0  0  0  0  0  0  0  0  0
    3.0186    6.6000    5.7462 H   0  0  0  0  0  0  0  0  0  0  0  0
    2.1928    5.8935    9.2309 H   0  0  0  0  0  0  0  0  0  0  0  0
    3.3776    7.0870    8.7009 H   0  0  0  0  0  0  0  0  0  0  0  0
    1.8181    6.9518    7.8411 H   0  0  0  0  0  0  0  0  0  0  0  0
    1.8279    3.8913    7.9109 H   0  0  0  0  0  0  0  0  0  0  0  0
    1.3562    4.9627    6.5627 H   0  0  0  0  0  0  0  0  0  0  0  0
    2.6191    3.7305    6.3345 H   0  0  0  0  0  0  0  0  0  0  0  0
  1 18  1  0  0  0  0
  1 17  1  0  0  0  0
  2  1  1  0  0  0  0
  3  1  1  0  0  0  0
  3  4  1  0  0  0  0
  4  7  1  0  0  0  0
  4  5  1  0  0  0  0
  5 10  1  0  0  0  0
  5  9  1  0  0  0  0
  6 13  1  0  0  0  0
  6  4  1  0  0  0  0
  7 15  1  0  0  0  0
  7 16  1  0  0  0  0
  8  5  1  0  0  0  0
 11  6  1  0  0  0  0
 12  6  1  0  0  0  0
 14  7  1  0  0  0  0
 19 18  1  0  0  0  0
 19 21  1  0  0  0  0
 20 23  1  0  0  0  0
 20 19  1  0  0  0  0
 21 27  1  0  0  0  0
 21 26  1  0  0  0  0
 22 19  1  0  0  0  0
 22 29  1  0  0  0  0
 24 20  1  0  0  0  0
 25 20  1  0  0  0  0
 28 21  1  0  0  0  0
 30 22  1  0  0  0  0
 31 22  1  0  0  0  0
M  END
$$$$
