CSD_code = TAPWAK | q = 0 | S = 0 | Stoichiometry = C24H24Cl2N4Pd | MND = 4
 OpenBabel04212202103D

 55 58  0  0  1  0  0  0  0  0999 V2000
   -2.4240    9.2224    5.2310 Pd  0  0  0  0  0  0  0  0  0  0  0  0
   -0.3725   10.1980    4.8453 Cl  0  0  0  0  0  0  0  0  0  0  0  0
   -1.6629    7.4181    4.9698 N   0  0  0  0  0  0  0  0  0  0  0  0
   -0.6299    7.7410    6.9836 N   0  0  0  0  0  0  0  0  0  0  0  0
   -0.6008    8.7341    6.6996 H   0  0  0  0  0  0  0  0  0  0  0  0
   -0.9193    6.8895    5.9600 C   0  0  2  0  0  3  0  0  0  0  0  0
   -0.4729    5.5612    5.8751 C   0  0  0  0  0  0  0  0  0  0  0  0
    0.1544    5.1597    6.6534 H   0  0  0  0  0  0  0  0  0  0  0  0
   -0.8183    4.8075    4.7768 C   0  0  0  0  0  0  0  0  0  0  0  0
   -0.4795    3.7860    4.6950 H   0  0  0  0  0  0  0  0  0  0  0  0
   -1.5933    5.3736    3.7674 C   0  0  0  0  0  0  0  0  0  0  0  0
   -1.8773    4.8073    2.8964 H   0  0  0  0  0  0  0  0  0  0  0  0
   -1.9884    6.6874    3.9076 C   0  0  0  0  0  0  0  0  0  0  0  0
   -2.5899    7.1855    3.1492 H   0  0  0  0  0  0  0  0  0  0  0  0
   -0.0189    7.4369    8.2011 C   0  0  0  0  0  0  0  0  0  0  0  0
    0.8787    8.3513    8.7467 C   0  0  0  0  0  0  0  0  0  0  0  0
    1.1085    9.2558    8.2020 H   0  0  0  0  0  0  0  0  0  0  0  0
    1.4713    8.1019    9.9689 C   0  0  0  0  0  0  0  0  0  0  0  0
    2.1696    8.8188   10.3761 H   0  0  0  0  0  0  0  0  0  0  0  0
    1.1835    6.9441   10.6813 C   0  0  0  0  0  0  0  0  0  0  0  0
    0.2651    6.0506   10.1427 C   0  0  0  0  0  0  0  0  0  0  0  0
    0.0087    5.1567   10.6931 H   0  0  0  0  0  0  0  0  0  0  0  0
   -0.3386    6.2896    8.9234 C   0  0  0  0  0  0  0  0  0  0  0  0
   -1.0807    5.6037    8.5442 H   0  0  0  0  0  0  0  0  0  0  0  0
    1.8469    6.6567   11.9935 C   0  0  0  0  0  0  0  0  0  0  0  0
    1.1456    6.2017   12.6899 H   0  0  0  0  0  0  0  0  0  0  0  0
    2.2438    7.5667   12.4364 H   0  0  0  0  0  0  0  0  0  0  0  0
    2.6740    5.9605   11.8495 H   0  0  0  0  0  0  0  0  0  0  0  0
   -4.4753    8.2463    5.6158 Cl  0  0  0  0  0  0  0  0  0  0  0  0
   -3.1849   11.0270    5.4909 N   0  0  0  0  0  0  0  0  0  0  0  0
   -4.2179   10.7034    3.4773 N   0  0  0  0  0  0  0  0  0  0  0  0
   -4.2475    9.7104    3.7617 H   0  0  0  0  0  0  0  0  0  0  0  0
   -3.9285   11.5552    4.5005 C   0  0  1  0  0  3  0  0  0  0  0  0
   -4.3749   12.8835    4.5850 C   0  0  0  0  0  0  0  0  0  0  0  0
   -5.0023   13.2848    3.8065 H   0  0  0  0  0  0  0  0  0  0  0  0
   -4.0296   13.6377    5.6830 C   0  0  0  0  0  0  0  0  0  0  0  0
   -4.3685   14.6592    5.7645 H   0  0  0  0  0  0  0  0  0  0  0  0
   -3.2547   13.0720    6.6927 C   0  0  0  0  0  0  0  0  0  0  0  0
   -2.9707   13.6386    7.5634 H   0  0  0  0  0  0  0  0  0  0  0  0
   -2.8595   11.7581    6.5529 C   0  0  0  0  0  0  0  0  0  0  0  0
   -2.2581   11.2603    7.3115 H   0  0  0  0  0  0  0  0  0  0  0  0
   -4.8287   11.0070    2.2595 C   0  0  0  0  0  0  0  0  0  0  0  0
   -5.7262   10.0923    1.7141 C   0  0  0  0  0  0  0  0  0  0  0  0
   -5.9561    9.1880    2.2592 H   0  0  0  0  0  0  0  0  0  0  0  0
   -6.3185   10.3412    0.4917 C   0  0  0  0  0  0  0  0  0  0  0  0
   -7.0167    9.6242    0.0847 H   0  0  0  0  0  0  0  0  0  0  0  0
   -6.0306   11.4987   -0.2211 C   0  0  0  0  0  0  0  0  0  0  0  0
   -5.1123   12.3925    0.3173 C   0  0  0  0  0  0  0  0  0  0  0  0
   -4.8559   13.2862   -0.2333 H   0  0  0  0  0  0  0  0  0  0  0  0
   -4.5090   12.1540    1.5369 C   0  0  0  0  0  0  0  0  0  0  0  0
   -3.7670   12.8401    1.9159 H   0  0  0  0  0  0  0  0  0  0  0  0
   -6.6938   11.7856   -1.5335 C   0  0  0  0  0  0  0  0  0  0  0  0
   -5.9924   12.2403   -2.2300 H   0  0  0  0  0  0  0  0  0  0  0  0
   -7.0906   10.8754   -1.9761 H   0  0  0  0  0  0  0  0  0  0  0  0
   -7.5209   12.4818   -1.3900 H   0  0  0  0  0  0  0  0  0  0  0  0
  1 30  1  0  0  0  0
  1 29  1  0  0  0  0
  2  1  1  0  0  0  0
  3  1  1  0  0  0  0
  3  6  1  0  0  0  0
  4 15  1  0  0  0  0
  5  4  1  0  0  0  0
  6  4  1  6  0  0  0
  7  6  1  0  0  0  0
  7  8  1  0  0  0  0
  9  7  2  0  0  0  0
 10  9  1  0  0  0  0
 11 13  2  0  0  0  0
 11  9  1  0  0  0  0
 12 11  1  0  0  0  0
 13  3  1  0  0  0  0
 14 13  1  0  0  0  0
 15 16  2  0  0  0  0
 15 23  1  0  0  0  0
 16 18  1  0  0  0  0
 17 16  1  0  0  0  0
 18 19  1  0  0  0  0
 18 20  2  0  0  0  0
 20 25  1  0  0  0  0
 21 20  1  0  0  0  0
 21 22  1  0  0  0  0
 23 21  2  0  0  0  0
 24 23  1  0  0  0  0
 25 27  1  0  0  0  0
 25 26  1  0  0  0  0
 28 25  1  0  0  0  0
 30 40  1  0  0  0  0
 31 32  1  0  0  0  0
 33 31  1  1  0  0  0
 33 34  1  0  0  0  0
 33 30  1  0  0  0  0
 34 36  2  0  0  0  0
 35 34  1  0  0  0  0
 36 37  1  0  0  0  0
 36 38  1  0  0  0  0
 38 39  1  0  0  0  0
 40 38  2  0  0  0  0
 40 41  1  0  0  0  0
 42 31  1  0  0  0  0
 43 44  1  0  0  0  0
 43 42  1  0  0  0  0
 45 43  2  0  0  0  0
 46 45  1  0  0  0  0
 47 48  2  0  0  0  0
 47 45  1  0  0  0  0
 48 50  1  0  0  0  0
 49 48  1  0  0  0  0
 50 51  1  0  0  0  0
 50 42  2  0  0  0  0
 52 55  1  0  0  0  0
 52 47  1  0  0  0  0
 53 52  1  0  0  0  0
 54 52  1  0  0  0  0
M  END
$$$$
