CSD_code = TAPWEO | q = 1 | S = 0 | Stoichiometry = C30H22ClN8Ru(1+) | MND = 6
 OpenBabel04212202103D

 62 70  0  0  1  0  0  0  0  0999 V2000
    1.5767    1.0635    6.9188 Ru  0  0  0  0  0  0  0  0  0  0  0  0
    2.4270    3.1595    7.4684 Cl  0  0  0  0  0  0  0  0  0  0  0  0
    3.5044    0.4382    6.8925 N   0  0  0  0  0  0  0  0  0  0  0  0
    1.8057    0.6457    8.7662 N   0  0  0  0  0  0  0  0  0  0  0  0
   -0.2245    1.6486    7.6160 N   0  0  0  0  0  0  0  0  0  0  0  0
    1.3652    1.5290    5.0415 N   0  0  0  0  0  0  0  0  0  0  0  0
    1.5920    2.4340    4.6175 H   0  0  0  0  0  0  0  0  0  0  0  0
    0.8607   -0.6524    6.1633 N   0  0  0  0  0  0  0  0  0  0  0  0
    0.6828   -1.5423    6.6282 H   0  0  0  0  0  0  0  0  0  0  0  0
    4.5084   -2.0647   10.2935 N   0  0  0  0  0  0  0  0  0  0  0  0
    2.2468    0.3895   11.3997 N   0  0  0  0  0  0  0  0  0  0  0  0
   -0.1527    2.9812   11.5707 N   0  0  0  0  0  0  0  0  0  0  0  0
    4.3411    0.4755    5.8593 C   0  0  0  0  0  3  0  0  0  0  0  0
    3.9075    0.7144    4.8950 H   0  0  0  0  0  0  0  0  0  0  0  0
    5.6970    0.2372    5.9849 C   0  0  0  0  0  0  0  0  0  0  0  0
    6.3347    0.2803    5.1173 H   0  0  0  0  0  0  0  0  0  0  0  0
    6.2131   -0.0277    7.2467 C   0  0  0  0  0  0  0  0  0  0  0  0
    7.2711   -0.1818    7.3876 H   0  0  0  0  0  0  0  0  0  0  0  0
    5.3492   -0.0814    8.3229 C   0  0  0  0  0  0  0  0  0  0  0  0
    5.7181   -0.2721    9.3152 H   0  0  0  0  0  0  0  0  0  0  0  0
    3.9854    0.1316    8.1209 C   0  0  0  0  0  0  0  0  0  0  0  0
    2.9858    0.1593    9.1800 C   0  0  1  0  0  3  0  0  0  0  0  0
    3.0983   -0.1621   10.5551 C   0  0  0  0  0  0  0  0  0  0  0  0
    1.2096    1.1079   10.9954 C   0  0  0  0  0  0  0  0  0  0  0  0
    0.8643    1.0706    9.6252 C   0  0  0  0  0  0  0  0  0  0  0  0
   -0.3596    1.4890    8.9540 C   0  0  2  0  0  3  0  0  0  0  0  0
   -1.5959    1.6547    9.5773 C   0  0  0  0  0  0  0  0  0  0  0  0
   -1.6928    1.4601   10.6309 H   0  0  0  0  0  0  0  0  0  0  0  0
   -2.6822    2.0664    8.8300 C   0  0  0  0  0  0  0  0  0  0  0  0
   -3.6437    2.2104    9.2963 H   0  0  0  0  0  0  0  0  0  0  0  0
   -2.5136    2.2883    7.4687 C   0  0  0  0  0  0  0  0  0  0  0  0
   -3.3308    2.6259    6.8526 H   0  0  0  0  0  0  0  0  0  0  0  0
   -1.2752    2.0505    6.9034 C   0  0  0  0  0  0  0  0  0  0  0  0
   -1.1150    2.1872    5.8402 H   0  0  0  0  0  0  0  0  0  0  0  0
    4.0490   -1.1233   11.1188 C   0  0  0  0  0  0  0  0  0  0  0  0
    4.3803   -1.0812   12.4727 C   0  0  0  0  0  0  0  0  0  0  0  0
    3.9869   -0.2931   13.0932 H   0  0  0  0  0  0  0  0  0  0  0  0
    5.2222   -2.0592   12.9755 C   0  0  0  0  0  0  0  0  0  0  0  0
    5.5035   -2.0563   14.0177 H   0  0  0  0  0  0  0  0  0  0  0  0
    5.6933   -3.0415   12.1184 C   0  0  0  0  0  0  0  0  0  0  0  0
    6.3454   -3.8245   12.4703 H   0  0  0  0  0  0  0  0  0  0  0  0
    5.3033   -2.9938   10.7851 C   0  0  0  0  0  0  0  0  0  0  0  0
    5.6413   -3.7357   10.0742 H   0  0  0  0  0  0  0  0  0  0  0  0
    0.5731    1.9532   12.0079 C   0  0  0  0  0  0  0  0  0  0  0  0
    0.8033    1.7200   13.3645 C   0  0  0  0  0  0  0  0  0  0  0  0
    1.3880    0.8672   13.6672 H   0  0  0  0  0  0  0  0  0  0  0  0
    0.2608    2.6000   14.2859 C   0  0  0  0  0  0  0  0  0  0  0  0
    0.4170    2.4494   15.3436 H   0  0  0  0  0  0  0  0  0  0  0  0
   -0.4794    3.6781   13.8267 C   0  0  0  0  0  0  0  0  0  0  0  0
   -0.9103    4.3922   14.5097 H   0  0  0  0  0  0  0  0  0  0  0  0
   -0.6564    3.8170   12.4545 C   0  0  0  0  0  0  0  0  0  0  0  0
   -1.2274    4.6373   12.0414 H   0  0  0  0  0  0  0  0  0  0  0  0
    0.8943    0.6156    4.2174 C   0  0  0  0  0  0  0  0  0  0  0  0
    0.6665    0.7481    2.8228 C   0  0  0  0  0  0  0  0  0  0  0  0
    0.8804    1.6919    2.3431 H   0  0  0  0  0  0  0  0  0  0  0  0
    0.1831   -0.3141    2.1197 C   0  0  0  0  0  0  0  0  0  0  0  0
    0.0054   -0.2257    1.0595 H   0  0  0  0  0  0  0  0  0  0  0  0
   -0.0943   -1.5499    2.7551 C   0  0  0  0  0  0  0  0  0  0  0  0
   -0.4743   -2.3638    2.1575 H   0  0  0  0  0  0  0  0  0  0  0  0
    0.1091   -1.7248    4.0919 C   0  0  0  0  0  0  0  0  0  0  0  0
   -0.1030   -2.6679    4.5736 H   0  0  0  0  0  0  0  0  0  0  0  0
    0.6068   -0.6488    4.8691 C   0  0  0  0  0  0  0  0  0  0  0  0
  1  2  1  0  0  0  0
  1  5  1  0  0  0  0
  1  4  1  0  0  0  0
  3  1  1  0  0  0  0
  3 21  1  0  0  0  0
  4 22  1  0  0  0  0
  4 25  1  0  0  0  0
  5 26  1  0  0  0  0
  6  1  1  0  0  0  0
  7  6  1  0  0  0  0
  8  9  1  0  0  0  0
  8  1  1  0  0  0  0
 10 42  2  0  0  0  0
 10 35  1  0  0  0  0
 12 44  2  0  0  0  0
 12 51  1  0  0  0  0
 13 15  1  0  0  0  0
 13  3  1  0  0  0  0
 14 13  1  0  0  0  0
 15 17  2  0  0  0  0
 16 15  1  0  0  0  0
 17 18  1  0  0  0  0
 17 19  1  0  0  0  0
 19 20  1  0  0  0  0
 21 19  2  0  0  0  0
 22 21  1  1  0  0  0
 22 23  1  0  0  0  0
 23 35  1  0  0  0  0
 23 11  2  0  0  0  0
 24 11  1  0  0  0  0
 24 44  1  0  0  0  0
 25 24  2  0  0  0  0
 26 27  1  6  0  0  0
 26 25  1  0  0  0  0
 27 28  1  0  0  0  0
 29 30  1  0  0  0  0
 29 27  2  0  0  0  0
 31 29  1  0  0  0  0
 32 31  1  0  0  0  0
 33 31  2  0  0  0  0
 33  5  1  0  0  0  0
 34 33  1  0  0  0  0
 35 36  2  0  0  0  0
 36 38  1  0  0  0  0
 36 37  1  0  0  0  0
 38 39  1  0  0  0  0
 40 41  1  0  0  0  0
 40 38  2  0  0  0  0
 42 40  1  0  0  0  0
 43 42  1  0  0  0  0
 44 45  1  0  0  0  0
 45 46  1  0  0  0  0
 45 47  2  0  0  0  0
 47 48  1  0  0  0  0
 49 47  1  0  0  0  0
 49 50  1  0  0  0  0
 51 49  2  0  0  0  0
 52 51  1  0  0  0  0
 53 62  1  0  0  0  0
 53  6  1  0  0  0  0
 54 53  2  0  0  0  0
 55 54  1  0  0  0  0
 56 58  2  0  0  0  0
 56 54  1  0  0  0  0
 57 56  1  0  0  0  0
 58 60  1  0  0  0  0
 59 58  1  0  0  0  0
 60 61  1  0  0  0  0
 60 62  2  0  0  0  0
 62  8  1  0  0  0  0
M  END
$$$$
