CSD_code = TAPZUI | q = 1 | S = 0 | Stoichiometry = C14H32ClFeN4(1+) | MND = 5
 OpenBabel04212202103D

 52 55  0  0  1  0  0  0  0  0999 V2000
    4.3624    5.8797    3.7396 Fe  0  0  0  0  0  0  0  0  0  0  0  0
    2.9556    4.5878    4.7155 Cl  0  0  0  0  0  0  0  0  0  0  0  0
    5.2512    6.1763    5.6911 N   0  0  2  0  0  4  0  0  0  0  0  0
    3.3090    5.4313    1.9038 N   0  0  1  0  0  4  0  0  0  0  0  0
    3.5959    6.5599    1.0171 C   0  0  0  0  0  0  0  0  0  0  0  0
    3.1956    6.3612    0.0129 H   0  0  0  0  0  0  0  0  0  0  0  0
    4.6808    6.6680    0.9283 H   0  0  0  0  0  0  0  0  0  0  0  0
    5.7320    4.4390    3.1828 N   0  0  1  0  0  4  0  0  0  0  0  0
    7.4663    5.4949    4.7363 C   0  0  0  0  0  0  0  0  0  0  0  0
    8.4852    5.8797    4.6557 H   0  0  0  0  0  0  0  0  0  0  0  0
    7.5213    4.5939    5.3423 H   0  0  0  0  0  0  0  0  0  0  0  0
    4.4476    7.2924    6.2100 C   0  0  0  0  0  0  0  0  0  0  0  0
    4.9664    7.7940    7.0379 H   0  0  0  0  0  0  0  0  0  0  0  0
    3.5263    6.8539    6.5945 H   0  0  0  0  0  0  0  0  0  0  0  0
    3.3657    7.6632    4.0380 N   0  0  2  0  0  4  0  0  0  0  0  0
    3.6751    8.3978    2.8024 C   0  0  0  0  0  0  0  0  0  0  0  0
    4.7648    8.3546    2.6706 H   0  0  0  0  0  0  0  0  0  0  0  0
    3.3946    9.4523    2.9309 H   0  0  0  0  0  0  0  0  0  0  0  0
    5.4852    4.2368    1.7455 C   0  0  0  0  0  0  0  0  0  0  0  0
    5.9374    3.2994    1.4023 H   0  0  0  0  0  0  0  0  0  0  0  0
    5.9501    5.0463    1.1786 H   0  0  0  0  0  0  0  0  0  0  0  0
    3.9924    4.2053    1.4672 C   0  0  0  0  0  0  0  0  0  0  0  0
    3.5446    3.3871    2.0320 H   0  0  0  0  0  0  0  0  0  0  0  0
    3.8219    4.0242    0.3975 H   0  0  0  0  0  0  0  0  0  0  0  0
    6.6322    6.5786    5.4208 C   0  0  0  0  0  0  0  0  0  0  0  0
    7.1307    6.8669    6.3571 H   0  0  0  0  0  0  0  0  0  0  0  0
    6.6198    7.4549    4.7662 H   0  0  0  0  0  0  0  0  0  0  0  0
    7.0076    5.1577    3.3199 C   0  0  0  0  0  0  0  0  0  0  0  0
    6.9023    6.1024    2.7695 H   0  0  0  0  0  0  0  0  0  0  0  0
    7.8029    4.5744    2.8355 H   0  0  0  0  0  0  0  0  0  0  0  0
    3.0322    7.8919    1.5137 C   0  0  0  0  0  0  0  0  0  0  0  0
    3.2427    8.6353    0.7419 H   0  0  0  0  0  0  0  0  0  0  0  0
    1.9509    7.8510    1.6191 H   0  0  0  0  0  0  0  0  0  0  0  0
    4.0988    8.3106    5.1384 C   0  0  0  0  0  0  0  0  0  0  0  0
    3.5005    9.1139    5.5831 H   0  0  0  0  0  0  0  0  0  0  0  0
    5.0123    8.7655    4.7495 H   0  0  0  0  0  0  0  0  0  0  0  0
    1.9410    7.6562    4.3515 C   0  0  0  0  0  0  0  0  0  0  0  0
    1.4013    7.0509    3.6351 H   0  0  0  0  0  0  0  0  0  0  0  0
    1.5276    8.6697    4.3670 H   0  0  0  0  0  0  0  0  0  0  0  0
    1.7960    7.1907    5.3220 H   0  0  0  0  0  0  0  0  0  0  0  0
    5.7379    3.1439    3.8541 C   0  0  0  0  0  0  0  0  0  0  0  0
    5.7551    3.2772    4.9278 H   0  0  0  0  0  0  0  0  0  0  0  0
    6.5910    2.5330    3.5421 H   0  0  0  0  0  0  0  0  0  0  0  0
    4.8144    2.6218    3.6217 H   0  0  0  0  0  0  0  0  0  0  0  0
    1.8761    5.1145    1.8586 C   0  0  0  0  0  0  0  0  0  0  0  0
    1.6388    4.4349    2.6728 H   0  0  0  0  0  0  0  0  0  0  0  0
    1.6179    4.6483    0.9030 H   0  0  0  0  0  0  0  0  0  0  0  0
    1.2667    6.0027    1.9698 H   0  0  0  0  0  0  0  0  0  0  0  0
    5.2269    5.1560    6.7465 C   0  0  0  0  0  0  0  0  0  0  0  0
    4.2380    4.7075    6.7809 H   0  0  0  0  0  0  0  0  0  0  0  0
    5.4616    5.6037    7.7166 H   0  0  0  0  0  0  0  0  0  0  0  0
    5.9489    4.3712    6.5605 H   0  0  0  0  0  0  0  0  0  0  0  0
  1 15  1  0  0  0  0
  1  2  1  0  0  0  0
  1  3  1  0  0  0  0
  3 12  1  0  0  0  0
  3 49  1  1  0  0  0
  4 45  1  1  0  0  0
  4  1  1  0  0  0  0
  5 31  1  0  0  0  0
  5  4  1  0  0  0  0
  6  5  1  0  0  0  0
  7  5  1  0  0  0  0
  8 28  1  0  0  0  0
  8  1  1  0  0  0  0
  8 41  1  1  0  0  0
  9 11  1  0  0  0  0
  9 25  1  0  0  0  0
 10  9  1  0  0  0  0
 12 14  1  0  0  0  0
 12 13  1  0  0  0  0
 15 37  1  1  0  0  0
 15 34  1  0  0  0  0
 16 18  1  0  0  0  0
 16 15  1  0  0  0  0
 17 16  1  0  0  0  0
 19  8  1  0  0  0  0
 20 19  1  0  0  0  0
 21 19  1  0  0  0  0
 22 19  1  0  0  0  0
 22  4  1  0  0  0  0
 22 23  1  0  0  0  0
 24 22  1  0  0  0  0
 25  3  1  0  0  0  0
 25 26  1  0  0  0  0
 27 25  1  0  0  0  0
 28  9  1  0  0  0  0
 29 28  1  0  0  0  0
 30 28  1  0  0  0  0
 31 33  1  0  0  0  0
 31 16  1  0  0  0  0
 32 31  1  0  0  0  0
 34 35  1  0  0  0  0
 34 12  1  0  0  0  0
 36 34  1  0  0  0  0
 37 39  1  0  0  0  0
 37 40  1  0  0  0  0
 38 37  1  0  0  0  0
 41 42  1  0  0  0  0
 43 41  1  0  0  0  0
 44 41  1  0  0  0  0
 45 48  1  0  0  0  0
 45 46  1  0  0  0  0
 47 45  1  0  0  0  0
 49 50  1  0  0  0  0
 49 51  1  0  0  0  0
 52 49  1  0  0  0  0
M  END
$$$$
