CSD_code = TAQFUM | q = 0 | S = 0 | Stoichiometry = C28H27Cl3N2O2PRe | MND = 6
 OpenBabel04212202103D

 64 68  0  0  0  0  0  0  0  0999 V2000
    2.3210    0.9868    6.1809 Re  0  0  0  0  0  0  0  0  0  0  0  0
    3.5113   -0.8230    5.5675 Cl  0  0  0  0  0  0  0  0  0  0  0  0
    4.1628    2.2862    5.5698 Cl  0  0  0  0  0  0  0  0  0  0  0  0
    1.1072   -0.4136    7.5045 Cl  0  0  0  0  0  0  0  0  0  0  0  0
    1.3585    1.2529    4.8572 O   0  0  0  0  0  1  0  0  0  0  0  0
    3.6224    1.1000    8.1485 O   0  0  0  0  0  0  0  0  0  0  0  0
    4.8060    1.9785    8.4213 P   0  0  0  0  0  4  0  0  0  0  0  0
    1.4569    2.6238    7.2725 N   0  0  0  0  0  0  0  0  0  0  0  0
    0.4263    3.7218    8.8902 N   0  0  0  0  0  0  0  0  0  0  0  0
    0.9149    2.5462    8.4670 C   0  0  0  0  0  3  0  0  0  0  0  0
   -0.2434    3.9765   10.1327 C   0  0  0  0  0  0  0  0  0  0  0  0
    0.6749    4.6395    7.8943 C   0  0  0  0  0  0  0  0  0  0  0  0
    0.4087    5.9948    7.7775 C   0  0  0  0  0  0  0  0  0  0  0  0
    0.8081    6.6395    6.6212 C   0  0  0  0  0  0  0  0  0  0  0  0
    0.5489    8.1067    6.4688 C   0  0  0  0  0  0  0  0  0  0  0  0
    1.4528    5.9296    5.5832 C   0  0  0  0  0  0  0  0  0  0  0  0
    1.8645    6.6468    4.3351 C   0  0  0  0  0  0  0  0  0  0  0  0
    1.7071    4.5769    5.7001 C   0  0  0  0  0  0  0  0  0  0  0  0
    1.3284    3.9322    6.8696 C   0  0  0  0  0  0  0  0  0  0  0  0
    6.3303    1.5933    7.5221 C   0  0  0  0  0  0  0  0  0  0  0  0
    6.4530    0.3091    7.0080 C   0  0  0  0  0  0  0  0  0  0  0  0
    7.6232   -0.0668    6.3752 C   0  0  0  0  0  0  0  0  0  0  0  0
    8.6727    0.8314    6.2720 C   0  0  0  0  0  0  0  0  0  0  0  0
    8.5556    2.1045    6.8065 C   0  0  0  0  0  0  0  0  0  0  0  0
    7.3871    2.4890    7.4384 C   0  0  0  0  0  0  0  0  0  0  0  0
    5.2992    1.6390   10.1405 C   0  0  0  0  0  0  0  0  0  0  0  0
    6.2231    2.4457   10.7918 C   0  0  0  0  0  0  0  0  0  0  0  0
    6.6178    2.1362   12.0797 C   0  0  0  0  0  0  0  0  0  0  0  0
    6.0972    1.0195   12.7161 C   0  0  0  0  0  0  0  0  0  0  0  0
    5.1799    0.2116   12.0655 C   0  0  0  0  0  0  0  0  0  0  0  0
    4.7820    0.5198   10.7760 C   0  0  0  0  0  0  0  0  0  0  0  0
    4.3917    3.7571    8.4492 C   0  0  0  0  0  0  0  0  0  0  0  0
    3.6113    4.1566    9.5287 C   0  0  0  0  0  0  0  0  0  0  0  0
    3.2116    5.4744    9.6477 C   0  0  0  0  0  0  0  0  0  0  0  0
    3.5837    6.3980    8.6846 C   0  0  0  0  0  0  0  0  0  0  0  0
    4.3599    6.0003    7.6099 C   0  0  0  0  0  0  0  0  0  0  0  0
    4.7711    4.6837    7.4903 C   0  0  0  0  0  0  0  0  0  0  0  0
    0.8497    1.6323    9.0287 H   0  0  0  0  0  0  0  0  0  0  0  0
   -0.2973    3.0553   10.7089 H   0  0  0  0  0  0  0  0  0  0  0  0
    0.2990    4.7296   10.7074 H   0  0  0  0  0  0  0  0  0  0  0  0
   -1.2556    4.3403    9.9459 H   0  0  0  0  0  0  0  0  0  0  0  0
   -0.0953    6.5342    8.5651 H   0  0  0  0  0  0  0  0  0  0  0  0
    0.0480    8.5047    7.3473 H   0  0  0  0  0  0  0  0  0  0  0  0
    1.4835    8.6477    6.3267 H   0  0  0  0  0  0  0  0  0  0  0  0
   -0.0764    8.2971    5.5979 H   0  0  0  0  0  0  0  0  0  0  0  0
    2.3644    5.9632    3.6558 H   0  0  0  0  0  0  0  0  0  0  0  0
    0.9965    7.0672    3.8289 H   0  0  0  0  0  0  0  0  0  0  0  0
    2.5427    7.4671    4.5660 H   0  0  0  0  0  0  0  0  0  0  0  0
    2.1877    4.0215    4.9109 H   0  0  0  0  0  0  0  0  0  0  0  0
    5.6211   -0.3778    7.0788 H   0  0  0  0  0  0  0  0  0  0  0  0
    7.7117   -1.0588    5.9592 H   0  0  0  0  0  0  0  0  0  0  0  0
    9.5853    0.5403    5.7729 H   0  0  0  0  0  0  0  0  0  0  0  0
    9.3770    2.8018    6.7279 H   0  0  0  0  0  0  0  0  0  0  0  0
    7.2937    3.4818    7.8541 H   0  0  0  0  0  0  0  0  0  0  0  0
    6.6223    3.3160   10.2899 H   0  0  0  0  0  0  0  0  0  0  0  0
    7.3340    2.7639   12.5894 H   0  0  0  0  0  0  0  0  0  0  0  0
    6.4101    0.7796   13.7216 H   0  0  0  0  0  0  0  0  0  0  0  0
    4.7766   -0.6591   12.5608 H   0  0  0  0  0  0  0  0  0  0  0  0
    4.0662   -0.0973   10.2520 H   0  0  0  0  0  0  0  0  0  0  0  0
    3.3287    3.4238   10.2748 H   0  0  0  0  0  0  0  0  0  0  0  0
    2.6185    5.7868   10.4954 H   0  0  0  0  0  0  0  0  0  0  0  0
    3.2682    7.4266    8.7749 H   0  0  0  0  0  0  0  0  0  0  0  0
    4.6511    6.7185    6.8586 H   0  0  0  0  0  0  0  0  0  0  0  0
    5.3630    4.3714    6.6447 H   0  0  0  0  0  0  0  0  0  0  0  0
  1  8  1  0  0  0  0
  1  4  1  0  0  0  0
  1  6  1  0  0  0  0
  2  1  1  0  0  0  0
  3  1  1  0  0  0  0
  5  1  1  0  0  0  0
  6  7  1  0  0  0  0
  7 32  1  0  0  0  0
  7 26  1  0  0  0  0
  8 10  1  0  0  0  0
  9 11  1  0  0  0  0
 10  9  1  0  0  0  0
 10 38  1  0  0  0  0
 11 40  1  0  0  0  0
 11 39  1  0  0  0  0
 12  9  1  0  0  0  0
 13 12  1  0  0  0  0
 13 42  1  0  0  0  0
 14 13  2  0  0  0  0
 15 14  1  0  0  0  0
 15 43  1  0  0  0  0
 16 18  2  0  0  0  0
 16 14  1  0  0  0  0
 17 48  1  0  0  0  0
 17 16  1  0  0  0  0
 18 19  1  0  0  0  0
 19  8  1  0  0  0  0
 19 12  2  0  0  0  0
 20  7  1  0  0  0  0
 21 50  1  0  0  0  0
 21 20  2  0  0  0  0
 22 21  1  0  0  0  0
 23 22  2  0  0  0  0
 23 24  1  0  0  0  0
 24 25  2  0  0  0  0
 25 20  1  0  0  0  0
 25 54  1  0  0  0  0
 26 31  2  0  0  0  0
 26 27  1  0  0  0  0
 27 28  2  0  0  0  0
 28 56  1  0  0  0  0
 28 29  1  0  0  0  0
 29 57  1  0  0  0  0
 30 58  1  0  0  0  0
 30 29  2  0  0  0  0
 31 30  1  0  0  0  0
 32 33  1  0  0  0  0
 33 34  2  0  0  0  0
 33 60  1  0  0  0  0
 34 61  1  0  0  0  0
 35 62  1  0  0  0  0
 35 34  1  0  0  0  0
 36 35  2  0  0  0  0
 37 36  1  0  0  0  0
 37 32  2  0  0  0  0
 41 11  1  0  0  0  0
 44 15  1  0  0  0  0
 45 15  1  0  0  0  0
 46 17  1  0  0  0  0
 47 17  1  0  0  0  0
 49 18  1  0  0  0  0
 51 22  1  0  0  0  0
 52 23  1  0  0  0  0
 53 24  1  0  0  0  0
 55 27  1  0  0  0  0
 59 31  1  0  0  0  0
 63 36  1  0  0  0  0
 64 37  1  0  0  0  0
M  END
$$$$
