CSD_code = TARFAT | q = 0 | S = 0 | Stoichiometry = C13H22Cl2Pt | MND = 6
 OpenBabel04212202103D

 38 36  0  0  1  0  0  0  0  0999 V2000
    2.3564    1.2523    2.6948 Pt  0  0  0  0  0  0  0  0  0  0  0  0
    4.0450    2.4010    1.7420 Cl  0  0  0  0  0 15  0  0  0  0  0  0
    0.9528    2.9497    2.2041 Cl  0  0  0  0  0 15  0  0  0  0  0  0
    3.1635   -0.8469    2.6418 C   0  0  2  0  0  3  0  0  0  0  0  0
    3.0602   -0.3706    3.9531 C   0  0  2  0  0  0  0  0  0  0  0  0
    1.6389   -0.1180    4.2286 C   0  0  1  0  0  3  0  0  0  0  0  0
    0.9205   -0.4424    3.0724 C   0  0  1  0  0  3  0  0  0  0  0  0
    1.7917   -1.2777    2.1371 C   0  0  0  0  0  0  0  0  0  0  0  0
    4.4408   -1.2853    2.0062 C   0  0  0  0  0  0  0  0  0  0  0  0
    4.2218   -0.2688    4.8900 C   0  0  0  0  0  0  0  0  0  0  0  0
    1.0251    0.3540    5.5215 C   0  0  0  0  0  0  0  0  0  0  0  0
    1.2432   -0.6842    6.6262 C   0  0  0  0  0  0  0  0  0  0  0  0
    1.5328    1.7394    5.9361 C   0  0  0  0  0  0  0  0  0  0  0  0
   -0.5666   -0.3824    2.9341 C   0  0  0  0  0  0  0  0  0  0  0  0
    1.5691   -0.9586    0.6553 C   0  0  0  0  0  0  0  0  0  0  0  0
    1.5727   -2.7760    2.3950 C   0  0  0  0  0  0  0  0  0  0  0  0
    4.2887   -1.5564    0.9657 H   0  0  0  0  0  0  0  0  0  0  0  0
    4.8481   -2.1478    2.5377 H   0  0  0  0  0  0  0  0  0  0  0  0
    5.1785   -0.4849    2.0438 H   0  0  0  0  0  0  0  0  0  0  0  0
    4.0080    0.3592    5.7477 H   0  0  0  0  0  0  0  0  0  0  0  0
    5.0856    0.1419    4.3698 H   0  0  0  0  0  0  0  0  0  0  0  0
    4.4867   -1.2670    5.2432 H   0  0  0  0  0  0  0  0  0  0  0  0
   -0.0529    0.4389    5.3518 H   0  0  0  0  0  0  0  0  0  0  0  0
    0.7339   -0.3657    7.5324 H   0  0  0  0  0  0  0  0  0  0  0  0
    2.2983   -0.8075    6.8517 H   0  0  0  0  0  0  0  0  0  0  0  0
    0.8401   -1.6496    6.3267 H   0  0  0  0  0  0  0  0  0  0  0  0
    1.5330    2.4132    5.0759 H   0  0  0  0  0  0  0  0  0  0  0  0
    2.5383    1.6983    6.3452 H   0  0  0  0  0  0  0  0  0  0  0  0
    0.8784    2.1591    6.6962 H   0  0  0  0  0  0  0  0  0  0  0  0
   -0.8656   -0.5643    1.9059 H   0  0  0  0  0  0  0  0  0  0  0  0
   -0.9407    0.5981    3.2229 H   0  0  0  0  0  0  0  0  0  0  0  0
   -1.0374   -1.1350    3.5697 H   0  0  0  0  0  0  0  0  0  0  0  0
    2.2661   -1.5193    0.0380 H   0  0  0  0  0  0  0  0  0  0  0  0
    1.7156    0.1100    0.4640 H   0  0  0  0  0  0  0  0  0  0  0  0
    0.5608   -1.2303    0.3539 H   0  0  0  0  0  0  0  0  0  0  0  0
    2.2669   -3.3633    1.7989 H   0  0  0  0  0  0  0  0  0  0  0  0
    0.5581   -3.0570    2.1237 H   0  0  0  0  0  0  0  0  0  0  0  0
    1.7307   -3.0084    3.4464 H   0  0  0  0  0  0  0  0  0  0  0  0
  4  9  1  1  0  0  0
  4  5  1  0  0  0  0
  5  1  1  6  0  0  0
  5  6  1  0  0  0  0
  5 10  1  0  0  0  0
  6 11  1  1  0  0  0
  7 14  1  1  0  0  0
  7  6  1  0  0  0  0
  8 16  1  0  0  0  0
  8  4  1  0  0  0  0
  8  7  1  0  0  0  0
  9 19  1  0  0  0  0
  9 18  1  0  0  0  0
 10 22  1  0  0  0  0
 10 20  1  0  0  0  0
 11 13  1  0  0  0  0
 11 12  1  0  0  0  0
 12 25  1  0  0  0  0
 12 24  1  0  0  0  0
 13 28  1  0  0  0  0
 13 29  1  0  0  0  0
 14 31  1  0  0  0  0
 14 32  1  0  0  0  0
 15  8  1  0  0  0  0
 16 38  1  0  0  0  0
 17  9  1  0  0  0  0
 21 10  1  0  0  0  0
 23 11  1  0  0  0  0
 26 12  1  0  0  0  0
 27 13  1  0  0  0  0
 30 14  1  0  0  0  0
 33 15  1  0  0  0  0
 34 15  1  0  0  0  0
 35 15  1  0  0  0  0
 36 16  1  0  0  0  0
 37 16  1  0  0  0  0
M  END
$$$$
