CSD_code = TARHIF | q = 0 | S = 0 | Stoichiometry = C12H14Cl2N6NiS2 | MND = 6
 OpenBabel04212202103D

 37 42  0  0  1  0  0  0  0  0999 V2000
    3.2628   -0.7000    4.1730 Ni  0  0  0  0  0  0  0  0  0  0  0  0
    1.6352   -3.0421    0.8993 S   0  0  0  0  0  0  0  0  0  0  0  0
    2.2375   -1.8100    3.1026 N   0  0  2  0  0  0  0  0  0  0  0  0
    2.6241   -2.0068    1.9070 C   0  0  2  0  0  3  0  0  0  0  0  0
    1.0048   -2.4502    3.4611 C   0  0  0  0  0  0  0  0  0  0  0  0
    0.2632   -1.6634    3.6414 H   0  0  0  0  0  0  0  0  0  0  0  0
    1.1619   -2.9996    4.3936 H   0  0  0  0  0  0  0  0  0  0  0  0
    0.5610   -3.3969    2.3301 C   0  0  0  0  0  0  0  0  0  0  0  0
   -0.4721   -3.2347    2.0304 H   0  0  0  0  0  0  0  0  0  0  0  0
    0.7019   -4.4453    2.5913 H   0  0  0  0  0  0  0  0  0  0  0  0
    2.1209    1.0023    3.4983 Cl  0  0  0  0  0  0  0  0  0  0  0  0
    3.7647   -1.4422    1.4058 N   0  0  1  0  0  0  0  0  0  0  0  0
    4.5116   -0.6479    2.1873 N   0  0  0  0  0  0  0  0  0  0  0  0
    4.3007   -1.5701    0.1638 C   0  0  0  0  0  3  0  0  0  0  0  0
    3.8299   -2.1705   -0.5881 H   0  0  0  0  0  0  0  0  0  0  0  0
    5.5260   -0.2675    1.4485 C   0  0  0  0  0  0  0  0  0  0  0  0
    6.2855    0.3797    1.8408 H   0  0  0  0  0  0  0  0  0  0  0  0
    5.4439   -0.8211    0.1549 C   0  0  0  0  0  0  0  0  0  0  0  0
    6.1296   -0.6827   -0.6549 H   0  0  0  0  0  0  0  0  0  0  0  0
    4.8903    1.6426    7.4467 S   0  0  0  0  0  0  0  0  0  0  0  0
    4.2879    0.4106    5.2433 N   0  0  1  0  0  0  0  0  0  0  0  0
    3.9012    0.6076    6.4388 C   0  0  1  0  0  3  0  0  0  0  0  0
    5.5207    1.0506    4.8849 C   0  0  0  0  0  0  0  0  0  0  0  0
    6.2622    0.2637    4.7045 H   0  0  0  0  0  0  0  0  0  0  0  0
    5.3638    1.6002    3.9524 H   0  0  0  0  0  0  0  0  0  0  0  0
    5.9648    1.9970    6.0161 C   0  0  0  0  0  0  0  0  0  0  0  0
    6.9977    1.8344    6.3159 H   0  0  0  0  0  0  0  0  0  0  0  0
    5.8244    3.0455    5.7549 H   0  0  0  0  0  0  0  0  0  0  0  0
    4.4047   -2.4021    4.8477 Cl  0  0  0  0  0  0  0  0  0  0  0  0
    2.7605    0.0431    6.9400 N   0  0  2  0  0  0  0  0  0  0  0  0
    2.0137   -0.7514    6.1585 N   0  0  0  0  0  0  0  0  0  0  0  0
    2.2242    0.1715    8.1818 C   0  0  0  0  0  3  0  0  0  0  0  0
    2.6948    0.7721    8.9336 H   0  0  0  0  0  0  0  0  0  0  0  0
    0.9990   -1.1312    6.8971 C   0  0  0  0  0  0  0  0  0  0  0  0
    0.2395   -1.7785    6.5048 H   0  0  0  0  0  0  0  0  0  0  0  0
    1.0809   -0.5774    8.1906 C   0  0  0  0  0  0  0  0  0  0  0  0
    0.3950   -0.7154    9.0002 H   0  0  0  0  0  0  0  0  0  0  0  0
  1 29  1  0  0  0  0
  1 21  1  0  0  0  0
  1 31  1  0  0  0  0
  2  8  1  0  0  0  0
  3  5  1  6  0  0  0
  3  1  1  0  0  0  0
  4  2  1  6  0  0  0
  4  3  1  0  0  0  0
  5  6  1  0  0  0  0
  5  7  1  0  0  0  0
  8 10  1  0  0  0  0
  8  5  1  0  0  0  0
  9  8  1  0  0  0  0
 11  1  1  0  0  0  0
 12 14  1  1  0  0  0
 12  4  1  0  0  0  0
 12 13  1  0  0  0  0
 13  1  1  0  0  0  0
 15 14  1  0  0  0  0
 16 17  1  0  0  0  0
 16 13  1  0  0  0  0
 18 14  1  0  0  0  0
 18 16  2  0  0  0  0
 19 18  1  0  0  0  0
 21 23  1  1  0  0  0
 21 22  1  0  0  0  0
 22 30  1  0  0  0  0
 22 20  1  1  0  0  0
 23 26  1  0  0  0  0
 24 23  1  0  0  0  0
 25 23  1  0  0  0  0
 26 27  1  0  0  0  0
 26 20  1  0  0  0  0
 28 26  1  0  0  0  0
 30 32  1  6  0  0  0
 31 34  1  0  0  0  0
 31 30  1  0  0  0  0
 32 36  1  0  0  0  0
 32 33  1  0  0  0  0
 34 36  2  0  0  0  0
 35 34  1  0  0  0  0
 36 37  1  0  0  0  0
M  END
$$$$
