CSD_code = TARQUY | q = 0 | S = 0 | Stoichiometry = C18H18Cl3NTi | MND = 9
 OpenBabel04212202103D

 41 43  0  0  1  0  0  0  0  0999 V2000
    2.5117   10.9545    6.2591 Ti  0  0  0  0  0  0  0  0  0  0  0  0
    0.4519   11.6986    5.9545 Cl  0  0  0  0  0  0  0  0  0  0  0  0
    3.7535   11.8359    7.8744 Cl  0  0  0  0  0  0  0  0  0  0  0  0
    1.6775    9.5651    7.7652 Cl  0  0  0  0  0  0  0  0  0  0  0  0
    2.9629   13.1308    5.5543 N   0  0  0  0  0  0  0  0  0  0  0  0
    2.3605   14.1860    6.0483 C   0  0  0  0  0  0  0  0  0  0  0  0
    2.8857   15.4857    5.9598 C   0  0  0  0  0  0  0  0  0  0  0  0
    4.0967   15.6805    5.3524 C   0  0  0  0  0  0  0  0  0  0  0  0
    4.7838   14.5688    4.8239 C   0  0  0  0  0  0  0  0  0  0  0  0
    6.0572   14.6465    4.2222 C   0  0  0  0  0  0  0  0  0  0  0  0
    6.6806   13.5147    3.7720 C   0  0  0  0  0  0  0  0  0  0  0  0
    6.0611   12.2604    3.8763 C   0  0  0  0  0  0  0  0  0  0  0  0
    4.8090   12.1443    4.4314 C   0  0  0  0  0  0  0  0  0  0  0  0
    4.1569   13.3016    4.9345 C   0  0  0  0  0  0  0  0  0  0  0  0
    4.0642   10.8926    4.5860 C   0  0  0  0  0  0  0  0  0  0  0  0
    4.3987    9.8064    5.4353 C   0  0  0  0  0  0  0  0  0  0  0  0
    3.3226    8.8829    5.3922 C   0  0  0  0  0  0  0  0  0  0  0  0
    2.3155    9.4052    4.5301 C   0  0  0  0  0  0  0  0  0  0  0  0
    2.7652   10.6528    4.0303 C   0  0  1  0  0  0  0  0  0  0  0  0
    5.6837    9.6266    6.1842 C   0  0  0  0  0  0  0  0  0  0  0  0
    3.3232    7.5279    6.0256 C   0  0  0  0  0  0  0  0  0  0  0  0
    1.0360    8.7129    4.1699 C   0  0  0  0  0  0  0  0  0  0  0  0
    2.1004   11.4716    2.9618 C   0  0  0  0  0  0  0  0  0  0  0  0
    1.4098   14.0171    6.5436 H   0  0  0  0  0  0  0  0  0  0  0  0
    2.3317   16.3088    6.3825 H   0  0  0  0  0  0  0  0  0  0  0  0
    4.5392   16.6635    5.2791 H   0  0  0  0  0  0  0  0  0  0  0  0
    6.5335   15.6120    4.1391 H   0  0  0  0  0  0  0  0  0  0  0  0
    7.6618   13.5789    3.3261 H   0  0  0  0  0  0  0  0  0  0  0  0
    6.5669   11.3796    3.5096 H   0  0  0  0  0  0  0  0  0  0  0  0
    6.2918    8.8518    5.7118 H   0  0  0  0  0  0  0  0  0  0  0  0
    5.4888    9.3247    7.2140 H   0  0  0  0  0  0  0  0  0  0  0  0
    6.2495   10.5571    6.1996 H   0  0  0  0  0  0  0  0  0  0  0  0
    3.8585    6.8232    5.3844 H   0  0  0  0  0  0  0  0  0  0  0  0
    2.3077    7.1654    6.1671 H   0  0  0  0  0  0  0  0  0  0  0  0
    3.8187    7.5537    6.9948 H   0  0  0  0  0  0  0  0  0  0  0  0
    0.3731    9.3902    3.6355 H   0  0  0  0  0  0  0  0  0  0  0  0
    1.2368    7.8443    3.5394 H   0  0  0  0  0  0  0  0  0  0  0  0
    0.5253    8.3710    5.0716 H   0  0  0  0  0  0  0  0  0  0  0  0
    2.7137   12.3341    2.7047 H   0  0  0  0  0  0  0  0  0  0  0  0
    1.9602   10.8682    2.0631 H   0  0  0  0  0  0  0  0  0  0  0  0
    1.1224   11.8255    3.2931 H   0  0  0  0  0  0  0  0  0  0  0  0
  1  4  1  0  0  0  0
  1  3  1  0  0  0  0
  2  1  1  0  0  0  0
  5  6  1  0  0  0  0
  6 24  1  0  0  0  0
  7  6  2  0  0  0  0
  7 25  1  0  0  0  0
  8  7  1  0  0  0  0
  9 14  1  0  0  0  0
  9  8  2  0  0  0  0
 10  9  1  0  0  0  0
 11 12  1  0  0  0  0
 11 10  2  0  0  0  0
 12 13  2  0  0  0  0
 13 15  1  0  0  0  0
 13 14  1  0  0  0  0
 14  5  2  0  0  0  0
 15 16  2  0  0  0  0
 16 20  1  0  0  0  0
 17 16  1  0  0  0  0
 17 21  1  0  0  0  0
 18 17  2  0  0  0  0
 19 23  1  6  0  0  0
 19 18  1  0  0  0  0
 19 15  1  0  0  0  0
 19  1  1  0  0  0  0
 20 32  1  0  0  0  0
 20 31  1  0  0  0  0
 21 34  1  0  0  0  0
 21 35  1  0  0  0  0
 22 18  1  0  0  0  0
 22 38  1  0  0  0  0
 23 41  1  0  0  0  0
 26  8  1  0  0  0  0
 27 10  1  0  0  0  0
 28 11  1  0  0  0  0
 29 12  1  0  0  0  0
 30 20  1  0  0  0  0
 33 21  1  0  0  0  0
 36 22  1  0  0  0  0
 37 22  1  0  0  0  0
 39 23  1  0  0  0  0
 40 23  1  0  0  0  0
M  END
$$$$
