CSD_code = TARSIR | q = 0 | S = 0 | Stoichiometry = C20H44BrNNiP2 | MND = 4
 OpenBabel04212202103D

 69 70  0  0  1  0  0  0  0  0999 V2000
    5.8158    9.4054    9.0594 C   0  0  0  0  0  0  0  0  0  0  0  0
    5.7585    9.9972    8.1267 H   0  0  0  0  0  0  0  0  0  0  0  0
    6.4103   10.0178    9.7658 H   0  0  0  0  0  0  0  0  0  0  0  0
    4.4071    9.1844    9.5933 C   0  0  0  0  0  0  0  0  0  0  0  0
    3.7588    8.9471    8.7490 H   0  0  0  0  0  0  0  0  0  0  0  0
    4.0161   10.0680   10.1008 H   0  0  0  0  0  0  0  0  0  0  0  0
    4.6666    8.3607   12.4313 C   0  0  0  0  0  0  0  0  0  0  0  0
    5.9081    9.2567   12.3886 C   0  0  0  0  0  0  0  0  0  0  0  0
    6.7203    8.7504   11.8614 H   0  0  0  0  0  0  0  0  0  0  0  0
    6.2508    9.4719   13.4003 H   0  0  0  0  0  0  0  0  0  0  0  0
    5.7036   10.2034   11.8932 H   0  0  0  0  0  0  0  0  0  0  0  0
    4.9675    7.1901   13.3689 C   0  0  0  0  0  0  0  0  0  0  0  0
    4.1484    6.4794   13.4120 H   0  0  0  0  0  0  0  0  0  0  0  0
    5.1548    7.5602   14.3765 H   0  0  0  0  0  0  0  0  0  0  0  0
    5.8563    6.6565   13.0343 H   0  0  0  0  0  0  0  0  0  0  0  0
    3.4833    9.1668   12.9560 C   0  0  0  0  0  0  0  0  0  0  0  0
    3.2013    9.9611   12.2667 H   0  0  0  0  0  0  0  0  0  0  0  0
    3.7619    9.6322   13.9018 H   0  0  0  0  0  0  0  0  0  0  0  0
    2.6206    8.5333   13.1420 H   0  0  0  0  0  0  0  0  0  0  0  0
    2.7138    6.9810   10.4080 C   0  0  0  0  0  0  0  0  0  0  0  0
    2.3074    6.0006   11.5083 C   0  0  0  0  0  0  0  0  0  0  0  0
    1.4072    5.4706   11.1987 H   0  0  0  0  0  0  0  0  0  0  0  0
    2.0832    6.5160   12.4389 H   0  0  0  0  0  0  0  0  0  0  0  0
    3.0831    5.2600   11.6849 H   0  0  0  0  0  0  0  0  0  0  0  0
    1.6311    8.0561   10.2797 C   0  0  0  0  0  0  0  0  0  0  0  0
    1.7757    8.6854    9.4056 H   0  0  0  0  0  0  0  0  0  0  0  0
    1.5781    8.6911   11.1581 H   0  0  0  0  0  0  0  0  0  0  0  0
    0.6661    7.5616   10.1694 H   0  0  0  0  0  0  0  0  0  0  0  0
    2.8189    6.2151    9.0832 C   0  0  0  0  0  0  0  0  0  0  0  0
    3.2364    6.8388    8.2919 H   0  0  0  0  0  0  0  0  0  0  0  0
    1.8349    5.8748    8.7641 H   0  0  0  0  0  0  0  0  0  0  0  0
    3.4545    5.3391    9.2000 H   0  0  0  0  0  0  0  0  0  0  0  0
    7.7944    8.4417    8.2673 C   0  0  0  0  0  0  0  0  0  0  0  0
    8.3960    9.0041    9.0089 H   0  0  0  0  0  0  0  0  0  0  0  0
    7.7012    9.1100    7.3912 H   0  0  0  0  0  0  0  0  0  0  0  0
    8.5127    7.1676    7.8438 C   0  0  0  0  0  0  0  0  0  0  0  0
    9.5886    7.3169    7.7395 H   0  0  0  0  0  0  0  0  0  0  0  0
    8.1049    6.8567    6.8817 H   0  0  0  0  0  0  0  0  0  0  0  0
    9.5392    5.8202   10.2719 C   0  0  0  0  0  0  0  0  0  0  0  0
   10.8553    5.3588    9.6552 C   0  0  0  0  0  0  0  0  0  0  0  0
   10.8349    4.2968    9.4264 H   0  0  0  0  0  0  0  0  0  0  0  0
   11.6617    5.5279   10.3691 H   0  0  0  0  0  0  0  0  0  0  0  0
   11.0925    5.9143    8.7494 H   0  0  0  0  0  0  0  0  0  0  0  0
    9.1791    4.9358   11.4668 C   0  0  0  0  0  0  0  0  0  0  0  0
    8.9950    3.9074   11.1737 H   0  0  0  0  0  0  0  0  0  0  0  0
    8.2824    5.3084   11.9591 H   0  0  0  0  0  0  0  0  0  0  0  0
    9.9918    4.9458   12.1924 H   0  0  0  0  0  0  0  0  0  0  0  0
    9.6924    7.2563   10.7826 C   0  0  0  0  0  0  0  0  0  0  0  0
   10.1236    7.9093   10.0267 H   0  0  0  0  0  0  0  0  0  0  0  0
   10.3420    7.2765   11.6571 H   0  0  0  0  0  0  0  0  0  0  0  0
    8.7196    7.6550   11.0801 H   0  0  0  0  0  0  0  0  0  0  0  0
    8.0349    4.3115    7.9734 C   0  0  0  0  0  0  0  0  0  0  0  0
    8.1345    3.0197    8.7848 C   0  0  0  0  0  0  0  0  0  0  0  0
    7.8886    2.1746    8.1425 H   0  0  0  0  0  0  0  0  0  0  0  0
    7.4347    3.0183    9.6164 H   0  0  0  0  0  0  0  0  0  0  0  0
    9.1421    2.8644    9.1627 H   0  0  0  0  0  0  0  0  0  0  0  0
    6.6538    4.3712    7.3090 C   0  0  0  0  0  0  0  0  0  0  0  0
    6.4976    5.3210    6.7968 H   0  0  0  0  0  0  0  0  0  0  0  0
    5.8681    4.2517    8.0540 H   0  0  0  0  0  0  0  0  0  0  0  0
    6.5485    3.5697    6.5793 H   0  0  0  0  0  0  0  0  0  0  0  0
    9.1140    4.2938    6.8875 C   0  0  0  0  0  0  0  0  0  0  0  0
    9.0199    3.3654    6.3243 H   0  0  0  0  0  0  0  0  0  0  0  0
   10.1150    4.3263    7.3055 H   0  0  0  0  0  0  0  0  0  0  0  0
    9.0067    5.1137    6.1825 H   0  0  0  0  0  0  0  0  0  0  0  0
    6.4674    8.1523    8.7572 N   0  0  1  0  0  0  0  0  0  0  0  0
    4.4551    7.6873   10.6721 P   0  0  0  0  0  4  0  0  0  0  0  0
    8.0743    5.8591    9.0701 P   0  0  0  0  0  4  0  0  0  0  0  0
    6.1810    6.6128    9.8718 Ni  0  0  2  0  0  0  0  0  0  0  0  0
    5.6436    4.6611   10.8885 Br  0  0  0  0  0  0  0  0  0  0  0  0
  1  4  1  0  0  0  0
  1  3  1  0  0  0  0
  2  1  1  0  0  0  0
  4  6  1  0  0  0  0
  4 66  1  0  0  0  0
  5  4  1  0  0  0  0
  7 16  1  0  0  0  0
  7 12  1  0  0  0  0
  8  7  1  0  0  0  0
  8 10  1  0  0  0  0
  9  8  1  0  0  0  0
 11  8  1  0  0  0  0
 12 13  1  0  0  0  0
 12 14  1  0  0  0  0
 15 12  1  0  0  0  0
 16 19  1  0  0  0  0
 16 18  1  0  0  0  0
 17 16  1  0  0  0  0
 20 66  1  0  0  0  0
 20 21  1  0  0  0  0
 21 24  1  0  0  0  0
 21 23  1  0  0  0  0
 22 21  1  0  0  0  0
 25 20  1  0  0  0  0
 25 27  1  0  0  0  0
 26 25  1  0  0  0  0
 28 25  1  0  0  0  0
 29 32  1  0  0  0  0
 29 20  1  0  0  0  0
 30 29  1  0  0  0  0
 31 29  1  0  0  0  0
 33 34  1  0  0  0  0
 35 33  1  0  0  0  0
 36 33  1  0  0  0  0
 36 67  1  0  0  0  0
 37 36  1  0  0  0  0
 38 36  1  0  0  0  0
 39 48  1  0  0  0  0
 39 44  1  0  0  0  0
 40 39  1  0  0  0  0
 40 42  1  0  0  0  0
 41 40  1  0  0  0  0
 43 40  1  0  0  0  0
 44 46  1  0  0  0  0
 44 47  1  0  0  0  0
 45 44  1  0  0  0  0
 48 51  1  0  0  0  0
 48 50  1  0  0  0  0
 49 48  1  0  0  0  0
 52 53  1  0  0  0  0
 52 67  1  0  0  0  0
 53 56  1  0  0  0  0
 53 55  1  0  0  0  0
 54 53  1  0  0  0  0
 57 52  1  0  0  0  0
 57 59  1  0  0  0  0
 58 57  1  0  0  0  0
 60 57  1  0  0  0  0
 61 63  1  0  0  0  0
 61 52  1  0  0  0  0
 62 61  1  0  0  0  0
 64 61  1  0  0  0  0
 65 33  1  1  0  0  0
 65  1  1  0  0  0  0
 65 68  1  0  0  0  0
 66  7  1  0  0  0  0
 67 68  1  0  0  0  0
 67 39  1  0  0  0  0
 68 66  1  0  0  0  0
 68 69  1  6  0  0  0
M  END
$$$$
