CSD_code = TARTUC | q = 0 | S = 0 | Stoichiometry = C12H12ClNOPtS | MND = 4
 OpenBabel04212202103D

 29 31  0  0  0  0  0  0  0  0999 V2000
    1.6415    8.0337    0.3025 C   0  0  0  0  0  0  0  0  0  0  0  0
    2.1841    7.5013    1.0742 H   0  0  0  0  0  0  0  0  0  0  0  0
    0.6699    7.3878   -0.4769 C   0  0  0  0  0  0  0  0  0  0  0  0
    0.4530    6.3469   -0.2986 H   0  0  0  0  0  0  0  0  0  0  0  0
    0.0209    8.0963   -1.4513 C   0  0  0  0  0  0  0  0  0  0  0  0
   -0.7306    7.6377   -2.0776 H   0  0  0  0  0  0  0  0  0  0  0  0
   -0.2748   10.2553   -2.6318 C   0  0  0  0  0  3  0  0  0  0  0  0
   -1.0218    9.8058   -3.2690 H   0  0  0  0  0  0  0  0  0  0  0  0
    0.0691   11.5716   -2.7751 C   0  0  0  0  0  0  0  0  0  0  0  0
   -0.4030   12.1824   -3.5289 H   0  0  0  0  0  0  0  0  0  0  0  0
    1.0344   12.1445   -1.9371 C   0  0  0  0  0  0  0  0  0  0  0  0
    1.2902   13.1875   -2.0468 H   0  0  0  0  0  0  0  0  0  0  0  0
    1.6588   11.3921   -0.9762 C   0  0  0  0  0  0  0  0  0  0  0  0
    1.3288   10.0289   -0.8000 C   0  0  0  0  0  0  0  0  0  0  0  0
    0.3390    9.4576   -1.6462 C   0  0  0  0  0  0  0  0  0  0  0  0
    4.2513   12.2702   -1.1511 C   0  0  0  0  0  0  0  0  0  0  0  0
    5.1582   12.4675   -0.5833 H   0  0  0  0  0  0  0  0  0  0  0  0
    4.0507   13.0795   -1.8470 H   0  0  0  0  0  0  0  0  0  0  0  0
    4.3416   11.3225   -1.6747 H   0  0  0  0  0  0  0  0  0  0  0  0
    5.1306   11.2584    2.1196 C   0  0  0  0  0  0  0  0  0  0  0  0
    5.1065   11.3312    3.6220 C   0  0  0  0  0  0  0  0  0  0  0  0
    5.7815   12.1080    3.9780 H   0  0  0  0  0  0  0  0  0  0  0  0
    5.4294   10.3624    4.0031 H   0  0  0  0  0  0  0  0  0  0  0  0
    4.0921   11.5074    3.9795 H   0  0  0  0  0  0  0  0  0  0  0  0
    5.9753   11.7751    1.4315 O   0  0  0  0  0  0  0  0  0  0  0  0
    1.9560    9.2962    0.1481 N   0  0  0  0  0  0  0  0  0  0  0  0
    2.8945   12.1771    0.0662 S   0  0  2  0  0  3  0  0  0  0  0  0
    3.6414   10.2934    1.2675 Pt  0  0  2  0  0  0  0  0  0  0  0  0
    4.2990    8.3877    2.2896 Cl  0  0  0  0  0  0  0  0  0  0  0  0
  1  2  1  0  0  0  0
  3  4  1  0  0  0  0
  3  1  2  0  0  0  0
  5  3  1  0  0  0  0
  6  5  1  0  0  0  0
  7 15  1  0  0  0  0
  8  7  1  0  0  0  0
  9  7  1  0  0  0  0
  9 11  2  0  0  0  0
 10  9  1  0  0  0  0
 11 13  1  0  0  0  0
 12 11  1  0  0  0  0
 13 14  2  0  0  0  0
 13 27  1  0  0  0  0
 14 26  1  0  0  0  0
 15  5  2  0  0  0  0
 15 14  1  0  0  0  0
 16 17  1  0  0  0  0
 18 16  1  0  0  0  0
 19 16  1  0  0  0  0
 20 21  1  0  0  0  0
 21 22  1  0  0  0  0
 21 24  1  0  0  0  0
 21 23  1  0  0  0  0
 25 20  2  0  0  0  0
 26  1  1  0  0  0  0
 26 28  1  0  0  0  0
 27 16  1  6  0  0  0
 27 28  1  0  0  0  0
 28 20  1  0  0  0  0
 28 29  1  1  0  0  0
M  END
$$$$
