CSD_code = TARTAK | q = 1 | S = 0 | Stoichiometry = C20H41BrNNiP2(1+) | MND = 4
 OpenBabel04212202103D

 66 67  0  0  0  0  0  0  0  0999 V2000
    2.1630   11.5611   18.5481 Br  0  0  0  0  0  0  0  0  0  0  0  0
    3.4842   10.2988   17.3261 Ni  0  0  1  0  0  0  0  0  0  0  0  0
    4.3372    9.0215   14.8853 C   0  0  0  0  0  0  0  0  0  0  0  0
    5.0433    8.4579   14.2810 H   0  0  0  0  0  0  0  0  0  0  0  0
    4.6300    9.1570   16.2341 N   0  0  0  0  0  0  0  0  0  0  0  0
    2.1615   10.4396   15.5765 P   0  0  0  0  0  4  0  0  0  0  0  0
    3.2184    9.5574   14.3950 C   0  0  0  0  0  0  0  0  0  0  0  0
    2.9585    9.4647   13.3526 H   0  0  0  0  0  0  0  0  0  0  0  0
    5.0058   10.0856   18.9110 P   0  0  0  0  0  4  0  0  0  0  0  0
    1.9027   12.1067   14.7328 C   0  0  0  0  0  0  0  0  0  0  0  0
    1.7156   11.9692   13.2235 C   0  0  0  0  0  0  0  0  0  0  0  0
    1.4756   12.9491   12.8143 H   0  0  0  0  0  0  0  0  0  0  0  0
    0.8971   11.2987   12.9739 H   0  0  0  0  0  0  0  0  0  0  0  0
    2.6220   11.6222   12.7324 H   0  0  0  0  0  0  0  0  0  0  0  0
    0.7233   12.8602   15.3411 C   0  0  0  0  0  0  0  0  0  0  0  0
    0.7803   13.9070   15.0489 H   0  0  0  0  0  0  0  0  0  0  0  0
    0.7316   12.8177   16.4278 H   0  0  0  0  0  0  0  0  0  0  0  0
   -0.2217   12.4682   14.9764 H   0  0  0  0  0  0  0  0  0  0  0  0
    3.2077   12.8537   15.0305 C   0  0  0  0  0  0  0  0  0  0  0  0
    4.0678   12.3196   14.6212 H   0  0  0  0  0  0  0  0  0  0  0  0
    3.3421   12.9807   16.1075 H   0  0  0  0  0  0  0  0  0  0  0  0
    3.1838   13.8438   14.5809 H   0  0  0  0  0  0  0  0  0  0  0  0
    0.6697    9.2871   15.7225 C   0  0  0  0  0  0  0  0  0  0  0  0
   -0.4762    9.9520   16.4802 C   0  0  0  0  0  0  0  0  0  0  0  0
   -0.9885   10.6843   15.8646 H   0  0  0  0  0  0  0  0  0  0  0  0
   -0.1338   10.4382   17.3907 H   0  0  0  0  0  0  0  0  0  0  0  0
   -1.2033    9.1923   16.7610 H   0  0  0  0  0  0  0  0  0  0  0  0
    0.1818    8.7860   14.3672 C   0  0  0  0  0  0  0  0  0  0  0  0
    0.9621    8.2609   13.8203 H   0  0  0  0  0  0  0  0  0  0  0  0
   -0.1961    9.6005   13.7543 H   0  0  0  0  0  0  0  0  0  0  0  0
   -0.6392    8.0889   14.5270 H   0  0  0  0  0  0  0  0  0  0  0  0
    1.2240    8.1252   16.5563 C   0  0  0  0  0  0  0  0  0  0  0  0
    1.9813    7.5668   16.0048 H   0  0  0  0  0  0  0  0  0  0  0  0
    0.4253    7.4360   16.8215 H   0  0  0  0  0  0  0  0  0  0  0  0
    1.6637    8.4987   17.4930 H   0  0  0  0  0  0  0  0  0  0  0  0
    5.6607    8.5886   16.7321 C   0  0  0  0  0  3  0  0  0  0  0  0
    6.3365    8.0152   16.0937 H   0  0  0  0  0  0  0  0  0  0  0  0
    5.9430    8.6449   18.1773 C   0  0  0  0  0  0  0  0  0  0  0  0
    7.0152    8.6579   18.3833 H   0  0  0  0  0  0  0  0  0  0  0  0
    5.5383    7.7313   18.6273 H   0  0  0  0  0  0  0  0  0  0  0  0
    6.2598   11.4956   18.8354 C   0  0  0  0  0  0  0  0  0  0  0  0
    7.4898   11.2757   19.7088 C   0  0  0  0  0  0  0  0  0  0  0  0
    7.9853   10.3293   19.4995 H   0  0  0  0  0  0  0  0  0  0  0  0
    7.2374   11.3196   20.7648 H   0  0  0  0  0  0  0  0  0  0  0  0
    8.2071   12.0709   19.5111 H   0  0  0  0  0  0  0  0  0  0  0  0
    5.5622   12.7990   19.2289 C   0  0  0  0  0  0  0  0  0  0  0  0
    6.2499   13.6319   19.0952 H   0  0  0  0  0  0  0  0  0  0  0  0
    5.2396   12.7948   20.2648 H   0  0  0  0  0  0  0  0  0  0  0  0
    4.6906   12.9808   18.6018 H   0  0  0  0  0  0  0  0  0  0  0  0
    6.6637   11.6012   17.3604 C   0  0  0  0  0  0  0  0  0  0  0  0
    7.2470   10.7437   17.0276 H   0  0  0  0  0  0  0  0  0  0  0  0
    7.2688   12.4928   17.2085 H   0  0  0  0  0  0  0  0  0  0  0  0
    5.7756   11.6957   16.7263 H   0  0  0  0  0  0  0  0  0  0  0  0
    4.6068    9.4707   20.6478 C   0  0  0  0  0  0  0  0  0  0  0  0
    5.7491    8.6619   21.2650 C   0  0  0  0  0  0  0  0  0  0  0  0
    5.9011    7.7085   20.7645 H   0  0  0  0  0  0  0  0  0  0  0  0
    5.4917    8.4442   22.3001 H   0  0  0  0  0  0  0  0  0  0  0  0
    6.6872    9.2085   21.2684 H   0  0  0  0  0  0  0  0  0  0  0  0
    4.2463   10.6405   21.5620 C   0  0  0  0  0  0  0  0  0  0  0  0
    3.5181   11.3007   21.0952 H   0  0  0  0  0  0  0  0  0  0  0  0
    5.1281   11.2116   21.8408 H   0  0  0  0  0  0  0  0  0  0  0  0
    3.8020   10.2535   22.4769 H   0  0  0  0  0  0  0  0  0  0  0  0
    3.3755    8.5747   20.4690 C   0  0  0  0  0  0  0  0  0  0  0  0
    2.5114    9.1644   20.1652 H   0  0  0  0  0  0  0  0  0  0  0  0
    3.1311    8.0920   21.4125 H   0  0  0  0  0  0  0  0  0  0  0  0
    3.5458    7.7887   19.7303 H   0  0  0  0  0  0  0  0  0  0  0  0
  2  1  1  1  0  0  0
  2  9  1  0  0  0  0
  3  5  1  0  0  0  0
  4  3  1  0  0  0  0
  5 36  1  0  0  0  0
  5  2  1  0  0  0  0
  6 23  1  0  0  0  0
  6  2  1  0  0  0  0
  7  3  2  0  0  0  0
  7  6  1  0  0  0  0
  8  7  1  0  0  0  0
  9 54  1  0  0  0  0
 10 19  1  0  0  0  0
 10 15  1  0  0  0  0
 10  6  1  0  0  0  0
 11 10  1  0  0  0  0
 12 11  1  0  0  0  0
 13 11  1  0  0  0  0
 14 11  1  0  0  0  0
 15 17  1  0  0  0  0
 16 15  1  0  0  0  0
 18 15  1  0  0  0  0
 19 21  1  0  0  0  0
 20 19  1  0  0  0  0
 22 19  1  0  0  0  0
 23 24  1  0  0  0  0
 23 32  1  0  0  0  0
 24 27  1  0  0  0  0
 24 26  1  0  0  0  0
 25 24  1  0  0  0  0
 28 31  1  0  0  0  0
 28 23  1  0  0  0  0
 29 28  1  0  0  0  0
 30 28  1  0  0  0  0
 32 34  1  0  0  0  0
 32 35  1  0  0  0  0
 33 32  1  0  0  0  0
 36 38  1  0  0  0  0
 37 36  1  0  0  0  0
 38 39  1  0  0  0  0
 38 40  1  0  0  0  0
 38  9  1  0  0  0  0
 41  9  1  0  0  0  0
 41 46  1  0  0  0  0
 41 42  1  0  0  0  0
 42 44  1  0  0  0  0
 43 42  1  0  0  0  0
 45 42  1  0  0  0  0
 46 48  1  0  0  0  0
 47 46  1  0  0  0  0
 49 46  1  0  0  0  0
 50 41  1  0  0  0  0
 51 50  1  0  0  0  0
 52 50  1  0  0  0  0
 53 50  1  0  0  0  0
 54 55  1  0  0  0  0
 54 59  1  0  0  0  0
 55 58  1  0  0  0  0
 55 57  1  0  0  0  0
 56 55  1  0  0  0  0
 59 61  1  0  0  0  0
 59 62  1  0  0  0  0
 60 59  1  0  0  0  0
 63 54  1  0  0  0  0
 63 65  1  0  0  0  0
 64 63  1  0  0  0  0
 66 63  1  0  0  0  0
M  END
$$$$
