CSD_code = TASGAV | q = 0 | S = 0 | Stoichiometry = C9H14Cl2NNbO | MND = 8
 OpenBabel04212202103D

 28 28  0  0  1  0  0  0  0  0999 V2000
    1.0149   -0.8369    6.9028 Nb  0  0  0  0  0  0  0  0  0  0  0  0
   -1.2345   -1.3088    6.5755 Cl  0  0  0  0  0  0  0  0  0  0  0  0
    1.3259   -2.3424    8.6137 Cl  0  0  0  0  0  0  0  0  0  0  0  0
    2.0648   -2.4375    4.5075 O   0  0  0  0  0  0  0  0  0  0  0  0
    1.6395   -1.7091    5.5112 N   0  0  0  0  0  2  0  0  0  0  0  0
    2.3501    1.1785    6.9549 C   0  0  0  0  0  0  0  0  0  0  0  0
    1.0407    1.5382    6.5248 C   0  0  2  0  0  0  0  0  0  0  0  0
    0.1712    1.3855    7.6308 C   0  0  0  0  0  0  0  0  0  0  0  0
    0.9163    0.9145    8.7161 C   0  0  0  0  0  0  0  0  0  0  0  0
    2.2603    0.7879    8.3123 C   0  0  0  0  0  0  0  0  0  0  0  0
    2.1606   -3.8770    4.7906 C   0  0  0  0  0  0  0  0  0  0  0  0
    0.8008   -4.3856    5.2681 C   0  0  0  0  0  0  0  0  0  0  0  0
    2.5458   -4.4885    3.4480 C   0  0  0  0  0  0  0  0  0  0  0  0
    3.2440   -4.1006    5.8441 C   0  0  0  0  0  0  0  0  0  0  0  0
    3.2661    1.3640    6.4067 H   0  0  0  0  0  0  0  0  0  0  0  0
    0.8030    2.0466    5.5977 H   0  0  0  0  0  0  0  0  0  0  0  0
   -0.8764    1.6565    7.6461 H   0  0  0  0  0  0  0  0  0  0  0  0
    0.5433    0.7469    9.7174 H   0  0  0  0  0  0  0  0  0  0  0  0
    3.0986    0.5533    8.9569 H   0  0  0  0  0  0  0  0  0  0  0  0
    0.8257   -5.4668    5.3646 H   0  0  0  0  0  0  0  0  0  0  0  0
    0.5463   -3.9487    6.2368 H   0  0  0  0  0  0  0  0  0  0  0  0
    0.0307   -4.1093    4.5505 H   0  0  0  0  0  0  0  0  0  0  0  0
    2.6790   -5.5607    3.5546 H   0  0  0  0  0  0  0  0  0  0  0  0
    3.4723   -4.0478    3.0923 H   0  0  0  0  0  0  0  0  0  0  0  0
    1.7682   -4.2964    2.7151 H   0  0  0  0  0  0  0  0  0  0  0  0
    3.3124   -5.1564    6.0872 H   0  0  0  0  0  0  0  0  0  0  0  0
    3.0017   -3.5425    6.7505 H   0  0  0  0  0  0  0  0  0  0  0  0
    4.2055   -3.7594    5.4684 H   0  0  0  0  0  0  0  0  0  0  0  0
  1  3  1  0  0  0  0
  2  1  1  0  0  0  0
  4 11  1  0  0  0  0
  4  5  1  0  0  0  0
  5  1  1  0  0  0  0
  6 10  2  0  0  0  0
  7 16  1  6  0  0  0
  7  1  1  0  0  0  0
  7  6  1  0  0  0  0
  7  8  1  0  0  0  0
  8 17  1  0  0  0  0
  8  9  2  0  0  0  0
  9 18  1  0  0  0  0
 10  9  1  0  0  0  0
 10 19  1  0  0  0  0
 11 12  1  0  0  0  0
 11 14  1  0  0  0  0
 12 20  1  0  0  0  0
 12 21  1  0  0  0  0
 13 23  1  0  0  0  0
 13 11  1  0  0  0  0
 14 26  1  0  0  0  0
 14 27  1  0  0  0  0
 15  6  1  0  0  0  0
 22 12  1  0  0  0  0
 24 13  1  0  0  0  0
 25 13  1  0  0  0  0
 28 14  1  0  0  0  0
M  END
$$$$
