CSD_code = TAVKIL | q = 1 | S = 0 | Stoichiometry = C22H25ClNOTi(1+) | MND = 12
 OpenBabel04212202103D

 51 54  0  0  1  0  0  0  0  0999 V2000
    1.7979    7.7795    5.2654 Ti  0  0  1  0  0  0  0  0  0  0  0  0
    1.7605    9.0940    3.4816 Cl  0  0  0  0  0  0  0  0  0  0  0  0
    1.9532    9.2474    7.0552 C   0  0  2  0  0  0  0  0  0  0  0  0
    1.1615    9.8355    7.5029 H   0  0  0  0  0  0  0  0  0  0  0  0
    2.8595    9.7162    6.0802 C   0  0  0  0  0  0  0  0  0  0  0  0
    2.8446   10.6956    5.6200 H   0  0  0  0  0  0  0  0  0  0  0  0
    3.8579    8.7383    5.9033 C   0  0  0  0  0  0  0  0  0  0  0  0
    4.7361    8.8376    5.2775 H   0  0  0  0  0  0  0  0  0  0  0  0
    3.5885    7.6712    6.7978 C   0  0  0  0  0  0  0  0  0  0  0  0
    4.2429    6.8288    6.9889 H   0  0  0  0  0  0  0  0  0  0  0  0
    2.4256    7.9939    7.5192 C   0  0  0  0  0  0  0  0  0  0  0  0
    2.0409    7.4508    8.3711 H   0  0  0  0  0  0  0  0  0  0  0  0
   -0.0904    6.8866    4.1730 C   0  0  0  0  0  0  0  0  0  0  0  0
   -0.2837    6.9275    3.1101 H   0  0  0  0  0  0  0  0  0  0  0  0
   -0.5068    7.8728    5.1038 C   0  0  1  0  0  0  0  0  0  0  0  0
   -1.0872    8.7560    4.8623 H   0  0  0  0  0  0  0  0  0  0  0  0
   -0.2129    7.3958    6.3967 C   0  0  0  0  0  0  0  0  0  0  0  0
   -0.5514    7.8339    7.3260 H   0  0  0  0  0  0  0  0  0  0  0  0
    0.4304    6.1444    6.2639 C   0  0  0  0  0  0  0  0  0  0  0  0
    0.6753    5.4841    7.0850 H   0  0  0  0  0  0  0  0  0  0  0  0
    0.4700    5.8034    4.8864 C   0  0  0  0  0  0  0  0  0  0  0  0
    0.9259    4.4728    4.3325 C   0  0  0  0  0  0  0  0  0  0  0  0
    2.4420    4.2799    4.6450 C   0  0  0  0  0  0  0  0  0  0  0  0
    2.5910    4.3125    5.7286 H   0  0  0  0  0  0  0  0  0  0  0  0
    2.7773    3.3137    4.2690 H   0  0  0  0  0  0  0  0  0  0  0  0
    3.1850    5.4148    4.0080 C   0  0  2  0  0  3  0  0  0  0  0  0
    2.9751    6.5920    4.3988 O   0  0  0  0  0  0  0  0  0  0  0  0
    4.0293    5.1698    3.0226 N   0  0  0  0  0  0  0  0  0  0  0  0
    4.1556    4.2199    2.6993 H   0  0  0  0  0  0  0  0  0  0  0  0
    4.6277    6.2100    2.1921 C   0  0  0  0  0  0  0  0  0  0  0  0
    5.6912    5.9926    2.0766 H   0  0  0  0  0  0  0  0  0  0  0  0
    4.4958    7.1650    2.7093 H   0  0  0  0  0  0  0  0  0  0  0  0
    3.9285    6.2273    0.8546 C   0  0  0  0  0  0  0  0  0  0  0  0
    4.4506    5.5353   -0.2296 C   0  0  0  0  0  0  0  0  0  0  0  0
    5.3932    5.0157   -0.1356 H   0  0  0  0  0  0  0  0  0  0  0  0
    3.7749    5.5268   -1.4381 C   0  0  0  0  0  0  0  0  0  0  0  0
    4.1907    4.9967   -2.2807 H   0  0  0  0  0  0  0  0  0  0  0  0
    2.5710    6.1989   -1.5649 C   0  0  0  0  0  0  0  0  0  0  0  0
    2.0466    6.1928   -2.5076 H   0  0  0  0  0  0  0  0  0  0  0  0
    2.0436    6.8852   -0.4831 C   0  0  0  0  0  0  0  0  0  0  0  0
    1.1102    7.4176   -0.5820 H   0  0  0  0  0  0  0  0  0  0  0  0
    2.7182    6.8981    0.7250 C   0  0  0  0  0  0  0  0  0  0  0  0
    2.3198    7.4505    1.5668 H   0  0  0  0  0  0  0  0  0  0  0  0
    0.7132    4.3949    2.8170 C   0  0  0  0  0  0  0  0  0  0  0  0
    1.0754    3.4426    2.4362 H   0  0  0  0  0  0  0  0  0  0  0  0
    1.2315    5.1965    2.2919 H   0  0  0  0  0  0  0  0  0  0  0  0
   -0.3471    4.4603    2.5880 H   0  0  0  0  0  0  0  0  0  0  0  0
    0.1353    3.3454    5.0096 C   0  0  0  0  0  0  0  0  0  0  0  0
    0.4071    2.3840    4.5817 H   0  0  0  0  0  0  0  0  0  0  0  0
   -0.9293    3.4998    4.8558 H   0  0  0  0  0  0  0  0  0  0  0  0
    0.3235    3.3107    6.0788 H   0  0  0  0  0  0  0  0  0  0  0  0
  1  2  1  6  0  0  0
  1  3  1  0  0  0  0
  3  4  1  1  0  0  0
  3 11  1  0  0  0  0
  5  3  1  0  0  0  0
  6  5  1  0  0  0  0
  7  5  2  0  0  0  0
  7  9  1  0  0  0  0
  8  7  1  0  0  0  0
  9 10  1  0  0  0  0
  9 11  2  0  0  0  0
 11 12  1  0  0  0  0
 13 21  2  0  0  0  0
 13 15  1  0  0  0  0
 14 13  1  0  0  0  0
 15 16  1  6  0  0  0
 15  1  1  0  0  0  0
 15 17  1  0  0  0  0
 17 18  1  0  0  0  0
 19 17  2  0  0  0  0
 19 20  1  0  0  0  0
 21 19  1  0  0  0  0
 22 23  1  0  0  0  0
 22 21  1  0  0  0  0
 22 48  1  0  0  0  0
 23 24  1  0  0  0  0
 25 23  1  0  0  0  0
 26 28  1  6  0  0  0
 26 27  1  0  0  0  0
 26 23  1  0  0  0  0
 27  1  1  0  0  0  0
 29 28  1  0  0  0  0
 30 32  1  0  0  0  0
 30 28  1  0  0  0  0
 31 30  1  0  0  0  0
 33 30  1  0  0  0  0
 34 35  1  0  0  0  0
 34 33  2  0  0  0  0
 36 34  1  0  0  0  0
 37 36  1  0  0  0  0
 38 36  2  0  0  0  0
 38 40  1  0  0  0  0
 39 38  1  0  0  0  0
 40 42  2  0  0  0  0
 41 40  1  0  0  0  0
 42 33  1  0  0  0  0
 42 43  1  0  0  0  0
 44 22  1  0  0  0  0
 45 44  1  0  0  0  0
 46 44  1  0  0  0  0
 47 44  1  0  0  0  0
 48 51  1  0  0  0  0
 49 48  1  0  0  0  0
 50 48  1  0  0  0  0
M  END
$$$$
