CSD_code = TAVMOV | q = 1 | S = 0 | Stoichiometry = C22H28BrFeN4O3(1+) | MND = 6
 OpenBabel04212202103D

 59 64  0  0  1  0  0  0  0  0999 V2000
    7.5509    6.2057    1.7217 Br  0  0  0  0  0  0  0  0  0  0  0  0
    6.7918    5.5805    3.7805 Fe  0  0  0  0  0  0  0  0  0  0  0  0
    7.3423    9.5601    4.7295 O   0  0  0  0  0  0  0  0  0  0  0  0
    5.0811    2.1591    2.1728 O   0  0  0  0  0  0  0  0  0  0  0  0
    5.8262    5.1619    5.6876 O   0  0  0  0  0  0  0  0  0  0  0  0
    5.4089    5.9219    6.1071 H   0  0  0  0  0  0  0  0  0  0  0  0
    5.2003    4.4335    5.7450 H   0  0  0  0  0  0  0  0  0  0  0  0
    8.3163    6.1524    4.5987 N   0  0  0  0  0  0  0  0  0  0  0  0
    6.2889    7.6860    4.1212 N   0  0  1  0  0  0  0  0  0  0  0  0
    7.6697    3.9836    3.7834 N   0  0  0  0  0  0  0  0  0  0  0  0
    5.2760    4.2839    2.8407 N   0  0  2  0  0  0  0  0  0  0  0  0
    9.3078    5.2579    4.7897 C   0  0  0  0  0  0  0  0  0  0  0  0
   10.5126    5.6409    5.3695 C   0  0  0  0  0  0  0  0  0  0  0  0
   11.2974    4.9170    5.5149 H   0  0  0  0  0  0  0  0  0  0  0  0
   10.6952    6.9657    5.7387 C   0  0  0  0  0  0  0  0  0  0  0  0
   11.6272    7.2823    6.1779 H   0  0  0  0  0  0  0  0  0  0  0  0
    9.6770    7.8853    5.5234 C   0  0  0  0  0  0  0  0  0  0  0  0
    9.7842    8.9267    5.7781 H   0  0  0  0  0  0  0  0  0  0  0  0
    8.4984    7.4341    4.9469 C   0  0  0  0  0  0  0  0  0  0  0  0
    7.3467    8.2452    4.5989 C   0  0  1  0  0  3  0  0  0  0  0  0
    6.0823   10.0207    4.2305 C   0  0  0  0  0  0  0  0  0  0  0  0
    6.2708   10.6973    3.3956 H   0  0  0  0  0  0  0  0  0  0  0  0
    5.5845   10.5649    5.0361 H   0  0  0  0  0  0  0  0  0  0  0  0
    5.3255    8.7334    3.8137 C   0  0  2  0  0  0  0  0  0  0  0  0
    5.1268    8.7097    2.7373 H   0  0  0  0  0  0  0  0  0  0  0  0
    4.0023    8.5206    4.5684 C   0  0  0  0  0  0  0  0  0  0  0  0
    4.2269    8.4933    5.6424 H   0  0  0  0  0  0  0  0  0  0  0  0
    3.0258    9.6610    4.2918 C   0  0  0  0  0  0  0  0  0  0  0  0
    3.4003   10.6154    4.6501 H   0  0  0  0  0  0  0  0  0  0  0  0
    2.0808    9.4624    4.7906 H   0  0  0  0  0  0  0  0  0  0  0  0
    2.8379    9.7466    3.2246 H   0  0  0  0  0  0  0  0  0  0  0  0
    3.3762    7.1936    4.1438 C   0  0  0  0  0  0  0  0  0  0  0  0
    2.9715    7.2889    3.1396 H   0  0  0  0  0  0  0  0  0  0  0  0
    2.5639    6.9244    4.8147 H   0  0  0  0  0  0  0  0  0  0  0  0
    4.1236    6.4020    4.1337 H   0  0  0  0  0  0  0  0  0  0  0  0
    8.9157    3.9468    4.3023 C   0  0  0  0  0  0  0  0  0  0  0  0
    9.6494    2.7655    4.3180 C   0  0  0  0  0  0  0  0  0  0  0  0
   10.6440    2.7525    4.7322 H   0  0  0  0  0  0  0  0  0  0  0  0
    9.0911    1.6137    3.7824 C   0  0  0  0  0  0  0  0  0  0  0  0
    9.6509    0.6926    3.7748 H   0  0  0  0  0  0  0  0  0  0  0  0
    7.8100    1.6573    3.2486 C   0  0  0  0  0  0  0  0  0  0  0  0
    7.3410    0.7889    2.8162 H   0  0  0  0  0  0  0  0  0  0  0  0
    7.1317    2.8676    3.2687 C   0  0  0  0  0  0  0  0  0  0  0  0
    5.8023    3.1115    2.7423 C   0  0  1  0  0  3  0  0  0  0  0  0
    3.8314    2.7543    1.8024 C   0  0  0  0  0  0  0  0  0  0  0  0
    3.0392    2.2645    2.3746 H   0  0  0  0  0  0  0  0  0  0  0  0
    3.6705    2.5772    0.7397 H   0  0  0  0  0  0  0  0  0  0  0  0
    3.9919    4.2524    2.1566 C   0  0  2  0  0  0  0  0  0  0  0  0
    3.2146    4.5768    2.8564 H   0  0  0  0  0  0  0  0  0  0  0  0
    3.9847    5.2199    0.9536 C   0  0  0  0  0  0  0  0  0  0  0  0
    4.4138    6.1558    1.3252 H   0  0  0  0  0  0  0  0  0  0  0  0
    2.5513    5.4676    0.4927 C   0  0  0  0  0  0  0  0  0  0  0  0
    2.0905    4.5429    0.1529 H   0  0  0  0  0  0  0  0  0  0  0  0
    2.5486    6.1712   -0.3347 H   0  0  0  0  0  0  0  0  0  0  0  0
    1.9407    5.8774    1.2944 H   0  0  0  0  0  0  0  0  0  0  0  0
    4.8476    4.7366   -0.2087 C   0  0  0  0  0  0  0  0  0  0  0  0
    4.3640    3.9364   -0.7638 H   0  0  0  0  0  0  0  0  0  0  0  0
    5.8200    4.3963    0.1359 H   0  0  0  0  0  0  0  0  0  0  0  0
    5.0185    5.5607   -0.8948 H   0  0  0  0  0  0  0  0  0  0  0  0
  1  2  1  0  0  0  0
  2 10  1  0  0  0  0
  2  8  1  0  0  0  0
  5  7  1  0  0  0  0
  5  6  1  0  0  0  0
  8 12  1  0  0  0  0
  8 19  1  0  0  0  0
  9  2  1  6  0  0  0
  9 20  1  0  0  0  0
 10 36  1  0  0  0  0
 11  2  1  6  0  0  0
 12 13  1  0  0  0  0
 13 14  1  0  0  0  0
 13 15  2  0  0  0  0
 15 16  1  0  0  0  0
 17 15  1  0  0  0  0
 17 18  1  0  0  0  0
 19 17  2  0  0  0  0
 20  3  1  6  0  0  0
 20 19  1  0  0  0  0
 21  3  1  0  0  0  0
 21 23  1  0  0  0  0
 22 21  1  0  0  0  0
 24 25  1  6  0  0  0
 24  9  1  0  0  0  0
 24 21  1  0  0  0  0
 24 26  1  0  0  0  0
 26 27  1  0  0  0  0
 28 26  1  0  0  0  0
 28 29  1  0  0  0  0
 28 30  1  0  0  0  0
 31 28  1  0  0  0  0
 32 26  1  0  0  0  0
 32 34  1  0  0  0  0
 33 32  1  0  0  0  0
 35 32  1  0  0  0  0
 36 37  1  0  0  0  0
 36 12  2  0  0  0  0
 37 38  1  0  0  0  0
 39 37  2  0  0  0  0
 40 39  1  0  0  0  0
 41 43  2  0  0  0  0
 41 39  1  0  0  0  0
 42 41  1  0  0  0  0
 43 10  1  0  0  0  0
 44  4  1  1  0  0  0
 44 11  1  0  0  0  0
 44 43  1  0  0  0  0
 45 48  1  0  0  0  0
 45  4  1  0  0  0  0
 45 46  1  0  0  0  0
 47 45  1  0  0  0  0
 48 11  1  0  0  0  0
 48 49  1  1  0  0  0
 50 51  1  0  0  0  0
 50 48  1  0  0  0  0
 52 50  1  0  0  0  0
 52 55  1  0  0  0  0
 53 52  1  0  0  0  0
 54 52  1  0  0  0  0
 56 58  1  0  0  0  0
 56 50  1  0  0  0  0
 57 56  1  0  0  0  0
 59 56  1  0  0  0  0
M  END
$$$$
