CSD_code = TAVROZ | q = 0 | S = 0 | Stoichiometry = C31H28AgClN2 | MND = 2
 OpenBabel04212202103D

 63 67  0  0  1  0  0  0  0  0999 V2000
   20.6270    7.7446   11.3114 Ag  0  0  0  0  0  0  0  0  0  0  0  0
   20.6273    5.4931   11.2590 Cl  0  0  0  0  0  0  0  0  0  0  0  0
   20.6293   10.6984   10.3088 N   0  0  0  0  0  0  0  0  0  0  0  0
   20.6247   10.6537   12.4451 N   0  0  0  0  0  0  0  0  0  0  0  0
   20.6269    9.8552   11.3598 C   0  0  2  0  0  3  0  0  0  0  0  0
   20.6295   12.0023   10.7279 C   0  0  0  0  0  0  0  0  0  0  0  0
   20.6115   12.8278   10.0460 H   0  0  0  0  0  0  0  0  0  0  0  0
   20.6254   11.9740   12.0808 C   0  0  0  0  0  0  0  0  0  0  0  0
   20.6441   12.7703   12.7967 H   0  0  0  0  0  0  0  0  0  0  0  0
   20.5966   10.2632    8.9601 C   0  0  0  0  0  0  0  0  0  0  0  0
   19.4332    9.6623    8.5022 C   0  0  0  0  0  0  0  0  0  0  0  0
   18.5979    9.5588    9.1782 H   0  0  0  0  0  0  0  0  0  0  0  0
   19.3519    9.2168    7.1950 C   0  0  0  0  0  0  0  0  0  0  0  0
   18.4482    8.7462    6.8409 H   0  0  0  0  0  0  0  0  0  0  0  0
   20.4373    9.3784    6.3541 C   0  0  0  0  0  0  0  0  0  0  0  0
   20.3862    9.0360    5.3315 H   0  0  0  0  0  0  0  0  0  0  0  0
   21.6025    9.9637    6.8203 C   0  0  0  0  0  0  0  0  0  0  0  0
   22.4404   10.0569    6.1487 H   0  0  0  0  0  0  0  0  0  0  0  0
   21.7122   10.4118    8.1299 C   0  0  0  0  0  0  0  0  0  0  0  0
   22.9899   10.9762    8.7076 C   0  0  1  0  0  0  0  0  0  0  0  0
   22.7718   11.9637    9.1332 H   0  0  0  0  0  0  0  0  0  0  0  0
   23.4863   10.0799    9.8246 C   0  0  0  0  0  0  0  0  0  0  0  0
   23.4101    8.6959    9.7122 C   0  0  0  0  0  0  0  0  0  0  0  0
   22.9847    8.2512    8.8230 H   0  0  0  0  0  0  0  0  0  0  0  0
   23.8996    7.8791   10.7209 C   0  0  0  0  0  0  0  0  0  0  0  0
   23.8489    6.8056   10.6147 H   0  0  0  0  0  0  0  0  0  0  0  0
   24.4899    8.4419   11.8419 C   0  0  0  0  0  0  0  0  0  0  0  0
   24.8833    7.8077   12.6224 H   0  0  0  0  0  0  0  0  0  0  0  0
   24.5762    9.8201   11.9555 C   0  0  0  0  0  0  0  0  0  0  0  0
   25.0408   10.2663   12.8241 H   0  0  0  0  0  0  0  0  0  0  0  0
   24.0706   10.6330   10.9560 C   0  0  0  0  0  0  0  0  0  0  0  0
   24.1348   11.7086   11.0548 H   0  0  0  0  0  0  0  0  0  0  0  0
   24.1168   11.1556    7.6869 C   0  0  0  0  0  0  0  0  0  0  0  0
   23.8071   11.8105    6.8754 H   0  0  0  0  0  0  0  0  0  0  0  0
   24.4249   10.1958    7.2798 H   0  0  0  0  0  0  0  0  0  0  0  0
   24.9777   11.6025    8.1797 H   0  0  0  0  0  0  0  0  0  0  0  0
   20.6498   10.1634   13.7749 C   0  0  0  0  0  0  0  0  0  0  0  0
   21.8088    9.5405   14.2143 C   0  0  0  0  0  0  0  0  0  0  0  0
   22.6474    9.4615   13.5390 H   0  0  0  0  0  0  0  0  0  0  0  0
   21.8812    9.0420   15.5028 C   0  0  0  0  0  0  0  0  0  0  0  0
   22.7812    8.5539   15.8425 H   0  0  0  0  0  0  0  0  0  0  0  0
   20.7918    9.1732   16.3437 C   0  0  0  0  0  0  0  0  0  0  0  0
   20.8360    8.7893   17.3518 H   0  0  0  0  0  0  0  0  0  0  0  0
   19.6307    9.7802   15.8952 C   0  0  0  0  0  0  0  0  0  0  0  0
   18.7893    9.8488   16.5652 H   0  0  0  0  0  0  0  0  0  0  0  0
   19.5296   10.2810   14.6041 C   0  0  0  0  0  0  0  0  0  0  0  0
   18.2559   10.8699   14.0422 C   0  0  2  0  0  0  0  0  0  0  0  0
   18.4783   11.8715   13.6533 H   0  0  0  0  0  0  0  0  0  0  0  0
   17.1254   11.0159   15.0643 C   0  0  0  0  0  0  0  0  0  0  0  0
   16.8123   10.0430   15.4350 H   0  0  0  0  0  0  0  0  0  0  0  0
   16.2680   11.4834   14.5846 H   0  0  0  0  0  0  0  0  0  0  0  0
   17.4338   11.6398   15.9004 H   0  0  0  0  0  0  0  0  0  0  0  0
   17.7610   10.0163   12.8915 C   0  0  0  0  0  0  0  0  0  0  0  0
   17.1689   10.6122   11.7861 C   0  0  0  0  0  0  0  0  0  0  0  0
   17.0976   11.6907   11.7325 H   0  0  0  0  0  0  0  0  0  0  0  0
   16.6640    9.8385   10.7558 C   0  0  0  0  0  0  0  0  0  0  0  0
   16.1932   10.3173    9.9082 H   0  0  0  0  0  0  0  0  0  0  0  0
   16.7594    8.4573   10.8116 C   0  0  0  0  0  0  0  0  0  0  0  0
   16.3681    7.8536   10.0062 H   0  0  0  0  0  0  0  0  0  0  0  0
   17.3572    7.8522   11.9062 C   0  0  0  0  0  0  0  0  0  0  0  0
   17.4156    6.7755   11.9670 H   0  0  0  0  0  0  0  0  0  0  0  0
   17.8453    8.6294   12.9463 C   0  0  0  0  0  0  0  0  0  0  0  0
   18.2761    8.1506   13.8151 H   0  0  0  0  0  0  0  0  0  0  0  0
  2  1  1  0  0  0  0
  3  6  1  0  0  0  0
  3  5  1  0  0  0  0
  4 37  1  0  0  0  0
  5  1  1  1  0  0  0
  5  4  1  0  0  0  0
  6  8  2  0  0  0  0
  7  6  1  0  0  0  0
  8  4  1  0  0  0  0
  8  9  1  0  0  0  0
 10  3  1  0  0  0  0
 11 10  1  0  0  0  0
 11 12  1  0  0  0  0
 13 11  2  0  0  0  0
 14 13  1  0  0  0  0
 15 17  2  0  0  0  0
 15 13  1  0  0  0  0
 16 15  1  0  0  0  0
 17 19  1  0  0  0  0
 18 17  1  0  0  0  0
 19 20  1  0  0  0  0
 19 10  2  0  0  0  0
 20 21  1  1  0  0  0
 20 22  1  0  0  0  0
 22 31  1  0  0  0  0
 23 22  2  0  0  0  0
 23 25  1  0  0  0  0
 24 23  1  0  0  0  0
 25 27  2  0  0  0  0
 26 25  1  0  0  0  0
 27 29  1  0  0  0  0
 27 28  1  0  0  0  0
 29 30  1  0  0  0  0
 31 32  1  0  0  0  0
 31 29  2  0  0  0  0
 33 36  1  0  0  0  0
 33 20  1  0  0  0  0
 34 33  1  0  0  0  0
 35 33  1  0  0  0  0
 37 38  2  0  0  0  0
 37 46  1  0  0  0  0
 38 40  1  0  0  0  0
 39 38  1  0  0  0  0
 40 41  1  0  0  0  0
 40 42  2  0  0  0  0
 42 43  1  0  0  0  0
 44 42  1  0  0  0  0
 44 45  1  0  0  0  0
 46 44  2  0  0  0  0
 47 48  1  6  0  0  0
 47 46  1  0  0  0  0
 47 49  1  0  0  0  0
 49 50  1  0  0  0  0
 49 52  1  0  0  0  0
 51 49  1  0  0  0  0
 53 62  1  0  0  0  0
 53 47  1  0  0  0  0
 54 53  2  0  0  0  0
 55 54  1  0  0  0  0
 56 58  2  0  0  0  0
 56 54  1  0  0  0  0
 57 56  1  0  0  0  0
 58 60  1  0  0  0  0
 59 58  1  0  0  0  0
 60 61  1  0  0  0  0
 60 62  2  0  0  0  0
 62 63  1  0  0  0  0
M  END
$$$$
