CSD_code = TAVYEU | q = 0 | S = 0 | Stoichiometry = C10H18Cl2NTa | MND = 9
 OpenBabel04212202103D

 32 32  0  0  0  0  0  0  0  0999 V2000
    3.8394    3.7734    2.0776 Ta  0  0  0  0  0  0  0  0  0  0  0  0
    4.7059    5.4229    3.3113 Cl  0  0  0  0  0  0  0  0  0  0  0  0
    2.2387    3.6987    0.8577 N   0  0  0  0  0  0  0  0  0  0  0  0
    1.3847    4.7595    0.6118 C   0  0  0  0  0  0  0  0  0  0  0  0
    0.3681    4.3585   -0.2088 C   0  0  0  0  0  0  0  0  0  0  0  0
    5.1333    4.2371    0.3060 C   0  0  0  0  0  0  0  0  0  0  0  0
    1.6530    6.0893    1.2453 C   0  0  0  0  0  0  0  0  0  0  0  0
   -0.7804    5.1442   -0.7392 C   0  0  0  0  0  0  0  0  0  0  0  0
    6.1926    4.3229    0.5456 H   0  0  0  0  0  0  0  0  0  0  0  0
    5.0758    3.5559   -0.5422 H   0  0  0  0  0  0  0  0  0  0  0  0
    4.8418    5.2123   -0.0885 H   0  0  0  0  0  0  0  0  0  0  0  0
    0.8909    6.8024    0.9414 H   0  0  0  0  0  0  0  0  0  0  0  0
    1.6273    6.0150    2.3376 H   0  0  0  0  0  0  0  0  0  0  0  0
    2.6277    6.4840    0.9420 H   0  0  0  0  0  0  0  0  0  0  0  0
   -1.7215    4.7295   -0.3776 H   0  0  0  0  0  0  0  0  0  0  0  0
   -0.7221    6.1853   -0.4340 H   0  0  0  0  0  0  0  0  0  0  0  0
   -0.7957    5.1017   -1.8279 H   0  0  0  0  0  0  0  0  0  0  0  0
    2.7059    2.7030    3.8011 Cl  0  0  0  0  0  0  0  0  0  0  0  0
    1.7338    2.6087    0.1734 C   0  0  0  0  0  0  0  0  0  0  0  0
    0.5944    2.9638   -0.4917 C   0  0  0  0  0  0  0  0  0  0  0  0
   -0.2889    2.1303   -1.3537 C   0  0  0  0  0  0  0  0  0  0  0  0
   -1.3041    2.1207   -0.9576 H   0  0  0  0  0  0  0  0  0  0  0  0
    0.0706    1.1069   -1.4106 H   0  0  0  0  0  0  0  0  0  0  0  0
   -0.3296    2.5408   -2.3627 H   0  0  0  0  0  0  0  0  0  0  0  0
    5.2827    1.9907    2.3638 C   0  0  0  0  0  0  0  0  0  0  0  0
    5.9351    2.2300    3.2030 H   0  0  0  0  0  0  0  0  0  0  0  0
    5.9080    1.7931    1.4957 H   0  0  0  0  0  0  0  0  0  0  0  0
    4.7475    1.0788    2.6178 H   0  0  0  0  0  0  0  0  0  0  0  0
    2.4331    1.2934    0.2786 C   0  0  0  0  0  0  0  0  0  0  0  0
    1.9149    0.5451   -0.3143 H   0  0  0  0  0  0  0  0  0  0  0  0
    2.4506    0.9634    1.3194 H   0  0  0  0  0  0  0  0  0  0  0  0
    3.4616    1.3744   -0.0779 H   0  0  0  0  0  0  0  0  0  0  0  0
  1 25  1  0  0  0  0
  1  2  1  0  0  0  0
  1 18  1  0  0  0  0
  3  1  1  0  0  0  0
  4  3  1  0  0  0  0
  4  7  1  0  0  0  0
  5  4  2  0  0  0  0
  6  9  1  0  0  0  0
  6  1  1  0  0  0  0
  7 13  1  0  0  0  0
  8 16  1  0  0  0  0
  8 15  1  0  0  0  0
  8  5  1  0  0  0  0
 10  6  1  0  0  0  0
 11  6  1  0  0  0  0
 12  7  1  0  0  0  0
 14  7  1  0  0  0  0
 17  8  1  0  0  0  0
 19 29  1  0  0  0  0
 19  3  1  0  0  0  0
 20  5  1  0  0  0  0
 20 19  2  0  0  0  0
 21 22  1  0  0  0  0
 21 20  1  0  0  0  0
 23 21  1  0  0  0  0
 24 21  1  0  0  0  0
 25 28  1  0  0  0  0
 25 26  1  0  0  0  0
 27 25  1  0  0  0  0
 29 31  1  0  0  0  0
 30 29  1  0  0  0  0
 32 29  1  0  0  0  0
M  END
$$$$
