CSD_code = TAWNUD | q = 0 | S = 0 | Stoichiometry = C16H12AuCl3N2O | MND = 4
 OpenBabel04212202103D

 35 38  0  0  0  0  0  0  0  0999 V2000
    6.5913    3.7866   10.8184 Au  0  0  0  0  0  0  0  0  0  0  0  0
    5.1771    2.2421    9.9202 Cl  0  0  0  0  0  0  0  0  0  0  0  0
    5.5122    5.4864    9.8222 Cl  0  0  0  0  0  0  0  0  0  0  0  0
    8.0952    5.1917   11.8056 Cl  0  0  0  0  0  0  0  0  0  0  0  0
    7.4240   -1.1067    9.4515 O   0  0  0  0  0  0  0  0  0  0  0  0
    7.6737    1.9500   12.9584 N   0  0  0  0  0  0  0  0  0  0  0  0
    8.1588    1.2724   10.9728 N   0  0  0  0  0  0  0  0  0  0  0  0
    7.5622    2.2546   11.6626 C   0  0  0  0  0  0  0  0  0  0  0  0
    8.3351    0.7627   13.0886 C   0  0  0  0  0  0  0  0  0  0  0  0
    8.5387    0.3223   14.0428 H   0  0  0  0  0  0  0  0  0  0  0  0
    8.6364    0.3301   11.8384 C   0  0  0  0  0  0  0  0  0  0  0  0
    9.1422   -0.5501   11.5006 H   0  0  0  0  0  0  0  0  0  0  0  0
    7.1749    2.7521   14.0422 C   0  0  0  0  0  0  0  0  0  0  0  0
    7.5038    3.7841   13.9105 H   0  0  0  0  0  0  0  0  0  0  0  0
    7.5564    2.3624   14.9834 H   0  0  0  0  0  0  0  0  0  0  0  0
    6.0840    2.7313   14.0581 H   0  0  0  0  0  0  0  0  0  0  0  0
    8.2210    1.2097    9.5642 C   0  0  0  0  0  0  0  0  0  0  0  0
    8.6223    2.3030    8.8068 C   0  0  0  0  0  0  0  0  0  0  0  0
    8.9624    3.1957    9.3104 H   0  0  0  0  0  0  0  0  0  0  0  0
    8.6072    2.2536    7.4179 C   0  0  0  0  0  0  0  0  0  0  0  0
    8.9166    3.1256    6.8637 H   0  0  0  0  0  0  0  0  0  0  0  0
    8.1936    1.1200    6.7441 C   0  0  0  0  0  0  0  0  0  0  0  0
    8.1652    1.0942    5.6665 H   0  0  0  0  0  0  0  0  0  0  0  0
    7.8098    0.0110    7.4851 C   0  0  0  0  0  0  0  0  0  0  0  0
    7.8326    0.0580    8.8933 C   0  0  0  0  0  0  0  0  0  0  0  0
    7.3293   -1.3088    7.1682 C   0  0  0  0  0  0  0  0  0  0  0  0
    7.1100   -1.9347    8.4101 C   0  0  0  0  0  0  0  0  0  0  0  0
    6.6426   -3.2321    8.5056 C   0  0  0  0  0  0  0  0  0  0  0  0
    6.4775   -3.6938    9.4655 H   0  0  0  0  0  0  0  0  0  0  0  0
    6.3929   -3.9010    7.3201 C   0  0  0  0  0  0  0  0  0  0  0  0
    6.0245   -4.9149    7.3553 H   0  0  0  0  0  0  0  0  0  0  0  0
    6.6038   -3.2954    6.0839 C   0  0  0  0  0  0  0  0  0  0  0  0
    6.3944   -3.8521    5.1832 H   0  0  0  0  0  0  0  0  0  0  0  0
    7.0718   -1.9993    5.9910 C   0  0  0  0  0  0  0  0  0  0  0  0
    7.2325   -1.5298    5.0332 H   0  0  0  0  0  0  0  0  0  0  0  0
  1  8  2  0  0  0  0
  1  4  1  0  0  0  0
  2  1  1  0  0  0  0
  3  1  1  0  0  0  0
  6  9  1  0  0  0  0
  6 13  1  0  0  0  0
  7  8  1  0  0  0  0
  7 11  1  0  0  0  0
  8  6  1  0  0  0  0
  9 10  1  0  0  0  0
 11  9  2  0  0  0  0
 12 11  1  0  0  0  0
 13 16  1  0  0  0  0
 13 15  1  0  0  0  0
 14 13  1  0  0  0  0
 17  7  1  0  0  0  0
 18 19  1  0  0  0  0
 18 17  2  0  0  0  0
 20 18  1  0  0  0  0
 21 20  1  0  0  0  0
 22 20  2  0  0  0  0
 22 24  1  0  0  0  0
 23 22  1  0  0  0  0
 24 25  2  0  0  0  0
 25  5  1  0  0  0  0
 25 17  1  0  0  0  0
 26 24  1  0  0  0  0
 26 27  1  0  0  0  0
 27 28  2  0  0  0  0
 27  5  1  0  0  0  0
 28 29  1  0  0  0  0
 30 31  1  0  0  0  0
 30 28  1  0  0  0  0
 32 30  2  0  0  0  0
 33 32  1  0  0  0  0
 34 32  1  0  0  0  0
 34 26  2  0  0  0  0
 35 34  1  0  0  0  0
M  END
$$$$
