CSD_code = TAWQIS | q = 0 | S = 0 | Stoichiometry = C24H26Cl2N2Ru | MND = 9
 OpenBabel04212202103D

 55 57  0  0  1  0  0  0  0  0999 V2000
    7.1247   10.7665    0.1533 Ru  0  0  0  0  0  0  0  0  0  0  0  0
    9.3528   11.3019    0.6411 Cl  0  0  0  0  0 15  0  0  0  0  0  0
    6.8245   10.0836    2.3865 Cl  0  0  0  0  0 15  0  0  0  0  0  0
    6.4412   13.3248   -0.8563 N   0  0  1  0  0  0  0  0  0  0  0  0
    7.0734   13.6501    1.1943 N   0  0  0  0  0  0  0  0  0  0  0  0
    6.4094   11.1576   -1.8181 C   0  0  1  0  0  0  0  0  0  0  0  0
    7.6249   10.4414   -1.9828 C   0  0  1  0  0  3  0  0  0  0  0  0
    7.7147    9.1132   -1.4683 C   0  0  0  0  0  0  0  0  0  0  0  0
    8.6196    8.5460   -1.6537 H   0  0  0  0  0  0  0  0  0  0  0  0
    6.6986    8.5580   -0.7047 C   0  0  0  0  0  0  0  0  0  0  0  0
    5.4921    9.3080   -0.5341 C   0  0  0  0  0  0  0  0  0  0  0  0
    4.6736    8.8453    0.0087 H   0  0  0  0  0  0  0  0  0  0  0  0
    5.2908   10.5458   -1.1527 C   0  0  0  0  0  0  0  0  0  0  0  0
    8.7977   10.9988   -2.7375 C   0  0  0  0  0  0  0  0  0  0  0  0
    8.4852   11.5433   -3.6276 H   0  0  0  0  0  0  0  0  0  0  0  0
    9.4631   10.1939   -3.0421 H   0  0  0  0  0  0  0  0  0  0  0  0
    9.3687   11.6677   -2.0889 H   0  0  0  0  0  0  0  0  0  0  0  0
    6.8056    7.1946   -0.0922 C   0  0  0  0  0  0  0  0  0  0  0  0
    7.7733    6.7460   -0.3050 H   0  0  0  0  0  0  0  0  0  0  0  0
    6.0190    6.5430   -0.4749 H   0  0  0  0  0  0  0  0  0  0  0  0
    6.6873    7.2659    0.9902 H   0  0  0  0  0  0  0  0  0  0  0  0
    3.9439   11.2126   -1.1043 C   0  0  0  0  0  0  0  0  0  0  0  0
    3.2392   10.5927   -0.5548 H   0  0  0  0  0  0  0  0  0  0  0  0
    3.5616   11.3549   -2.1166 H   0  0  0  0  0  0  0  0  0  0  0  0
    3.9937   12.1841   -0.6143 H   0  0  0  0  0  0  0  0  0  0  0  0
    6.3183   12.6360   -2.1252 C   0  0  0  0  0  0  0  0  0  0  0  0
    7.1224   12.9600   -2.7980 H   0  0  0  0  0  0  0  0  0  0  0  0
    5.3590   12.8953   -2.5905 H   0  0  0  0  0  0  0  0  0  0  0  0
    6.8492   12.7229    0.2843 C   0  0  2  0  0  3  0  0  0  0  0  0
    6.4823   14.7741   -0.7719 C   0  0  0  0  0  0  0  0  0  0  0  0
    5.5059   15.2035   -1.0200 H   0  0  0  0  0  0  0  0  0  0  0  0
    7.2253   15.1756   -1.4710 H   0  0  0  0  0  0  0  0  0  0  0  0
    6.8740   15.0030    0.6924 C   0  0  0  0  0  0  0  0  0  0  0  0
    7.7975   15.5789    0.8008 H   0  0  0  0  0  0  0  0  0  0  0  0
    6.0842   15.5005    1.2631 H   0  0  0  0  0  0  0  0  0  0  0  0
    7.4466   13.4452    2.5745 C   0  0  0  0  0  0  0  0  0  0  0  0
    8.4682   13.8131    2.7199 H   0  0  0  0  0  0  0  0  0  0  0  0
    7.4424   12.3662    2.7671 H   0  0  0  0  0  0  0  0  0  0  0  0
    6.5061   14.1696    3.5016 C   0  0  0  0  0  0  0  0  0  0  0  0
    5.1168   13.8665    3.5147 C   0  0  0  0  0  0  0  0  0  0  0  0
    4.5487   12.8279    2.7439 C   0  0  0  0  0  0  0  0  0  0  0  0
    5.1862   12.1839    2.1560 H   0  0  0  0  0  0  0  0  0  0  0  0
    3.2014   12.5952    2.7689 C   0  0  0  0  0  0  0  0  0  0  0  0
    2.7838   11.7899    2.1824 H   0  0  0  0  0  0  0  0  0  0  0  0
    2.3509   13.3794    3.5614 C   0  0  0  0  0  0  0  0  0  0  0  0
    1.2886   13.1817    3.5641 H   0  0  0  0  0  0  0  0  0  0  0  0
    2.8716   14.3739    4.3392 C   0  0  0  0  0  0  0  0  0  0  0  0
    2.2302   14.9718    4.9716 H   0  0  0  0  0  0  0  0  0  0  0  0
    4.2572   14.6391    4.3435 C   0  0  0  0  0  0  0  0  0  0  0  0
    4.8017   15.6520    5.1604 C   0  0  0  0  0  0  0  0  0  0  0  0
    4.1362   16.2247    5.7906 H   0  0  0  0  0  0  0  0  0  0  0  0
    6.1444   15.8977    5.1575 C   0  0  0  0  0  0  0  0  0  0  0  0
    6.5643   16.6657    5.7902 H   0  0  0  0  0  0  0  0  0  0  0  0
    6.9899   15.1629    4.3148 C   0  0  0  0  0  0  0  0  0  0  0  0
    8.0472   15.3872    4.3104 H   0  0  0  0  0  0  0  0  0  0  0  0
  4 26  1  6  0  0  0
  4 30  1  0  0  0  0
  4 29  1  0  0  0  0
  5 36  1  0  0  0  0
  6 13  1  6  0  0  0
  6  1  1  0  0  0  0
  7 14  1  6  0  0  0
  7  6  1  0  0  0  0
  7  8  1  0  0  0  0
  8 10  2  0  0  0  0
  9  8  1  0  0  0  0
 10 11  1  0  0  0  0
 10 18  1  0  0  0  0
 11 12  1  0  0  0  0
 13 22  1  0  0  0  0
 13 11  2  0  0  0  0
 14 17  1  0  0  0  0
 15 14  1  0  0  0  0
 16 14  1  0  0  0  0
 18 21  1  0  0  0  0
 19 18  1  0  0  0  0
 20 18  1  0  0  0  0
 22 25  1  0  0  0  0
 22 23  1  0  0  0  0
 24 22  1  0  0  0  0
 26  6  1  0  0  0  0
 27 26  1  0  0  0  0
 28 26  1  0  0  0  0
 29  1  1  6  0  0  0
 29  5  1  0  0  0  0
 30 33  1  0  0  0  0
 31 30  1  0  0  0  0
 32 30  1  0  0  0  0
 33 34  1  0  0  0  0
 33  5  1  0  0  0  0
 33 35  1  0  0  0  0
 36 37  1  0  0  0  0
 36 38  1  0  0  0  0
 36 39  1  0  0  0  0
 39 40  2  0  0  0  0
 39 54  1  0  0  0  0
 40 49  1  0  0  0  0
 41 43  2  0  0  0  0
 41 40  1  0  0  0  0
 42 41  1  0  0  0  0
 43 45  1  0  0  0  0
 44 43  1  0  0  0  0
 45 46  1  0  0  0  0
 45 47  2  0  0  0  0
 47 49  1  0  0  0  0
 47 48  1  0  0  0  0
 49 50  2  0  0  0  0
 50 51  1  0  0  0  0
 52 50  1  0  0  0  0
 52 53  1  0  0  0  0
 54 52  2  0  0  0  0
 55 54  1  0  0  0  0
M  END
$$$$
