CSD_code = TAXKIN | q = 0 | S = 0 | Stoichiometry = C6H10Cl2N2Pt | MND = 4
 OpenBabel04212202103D

 21 21  0  0  0  0  0  0  0  0999 V2000
    4.6337    8.0016    4.3075 Pt  0  0  0  0  0  0  0  0  0  0  0  0
    4.2650    9.7151    5.8045 Cl  0  0  0  0  0  0  0  0  0  0  0  0
    4.9032    6.2649    2.8150 Cl  0  0  0  0  0  0  0  0  0  0  0  0
    6.5426    8.2991    4.3866 N   0  0  0  0  0  0  0  0  0  0  0  0
    7.0782    9.4418    3.9495 C   0  0  0  0  0  3  0  0  0  0  0  0
    6.3894   10.1797    3.5546 H   0  0  0  0  0  0  0  0  0  0  0  0
    8.4346    9.6903    4.0030 C   0  0  0  0  0  0  0  0  0  0  0  0
    8.8190   10.6299    3.6382 H   0  0  0  0  0  0  0  0  0  0  0  0
    9.2967    8.7328    4.5310 C   0  0  0  0  0  0  0  0  0  0  0  0
   10.7705    8.9567    4.5902 C   0  0  0  0  0  0  0  0  0  0  0  0
   11.2308    8.6041    3.6669 H   0  0  0  0  0  0  0  0  0  0  0  0
   11.2135    8.4077    5.4172 H   0  0  0  0  0  0  0  0  0  0  0  0
   10.9983   10.0142    4.6967 H   0  0  0  0  0  0  0  0  0  0  0  0
    8.7206    7.5476    4.9814 C   0  0  0  0  0  0  0  0  0  0  0  0
    9.3347    6.7659    5.4005 H   0  0  0  0  0  0  0  0  0  0  0  0
    7.3555    7.3678    4.8927 C   0  0  0  0  0  0  0  0  0  0  0  0
    6.8889    6.4491    5.2295 H   0  0  0  0  0  0  0  0  0  0  0  0
    2.5933    7.6739    4.2229 N   0  0  0  0  0  4  0  0  0  0  0  0
    2.2020    7.6374    5.1652 H   0  0  0  0  0  0  0  0  0  0  0  0
    2.4223    6.7917    3.7353 H   0  0  0  0  0  0  0  0  0  0  0  0
    2.1370    8.4343    3.7169 H   0  0  0  0  0  0  0  0  0  0  0  0
  1  4  1  0  0  0  0
  1  2  1  0  0  0  0
  3  1  1  0  0  0  0
  4 16  1  0  0  0  0
  5  7  1  0  0  0  0
  5  4  1  0  0  0  0
  6  5  1  0  0  0  0
  7  9  2  0  0  0  0
  8  7  1  0  0  0  0
  9 10  1  0  0  0  0
  9 14  1  0  0  0  0
 10 13  1  0  0  0  0
 10 12  1  0  0  0  0
 11 10  1  0  0  0  0
 14 15  1  0  0  0  0
 16 14  2  0  0  0  0
 16 17  1  0  0  0  0
 18  1  1  0  0  0  0
 18 19  1  0  0  0  0
 20 18  1  0  0  0  0
 21 18  1  0  0  0  0
M  END
$$$$
