CSD_code = TAYPOY | q = -1 | S = 0 | Stoichiometry = C10H10Br4N2Tc(1-) | MND = 6
 OpenBabel04212202103D

 27 28  0  0  0  0  0  0  0  0999 V2000
   20.8397   -4.5724    8.6409 Tc  0  0  0  0  0  0  0  0  0  0  0  0
   18.3134   -4.5522    8.7032 Br  0  0  0  0  0  0  0  0  0  0  0  0
   20.9311   -6.0637   10.6790 Br  0  0  0  0  0  0  0  0  0  0  0  0
   20.8831   -2.8769    9.8805 N   0  0  0  0  0  0  0  0  0  0  0  0
   20.1140   -2.7858   10.9737 C   0  0  0  0  0  3  0  0  0  0  0  0
   19.4634   -3.6215   11.1877 H   0  0  0  0  0  0  0  0  0  0  0  0
   21.6859   -1.8368    9.6186 C   0  0  0  0  0  0  0  0  0  0  0  0
   22.3064   -1.9052    8.7369 H   0  0  0  0  0  0  0  0  0  0  0  0
   20.1185   -1.6949   11.8172 C   0  0  0  0  0  0  0  0  0  0  0  0
   19.4714   -1.6940   12.6808 H   0  0  0  0  0  0  0  0  0  0  0  0
   21.7515   -0.7094   10.4099 C   0  0  0  0  0  0  0  0  0  0  0  0
   22.4238    0.0885   10.1353 H   0  0  0  0  0  0  0  0  0  0  0  0
   20.9540   -0.6236   11.5408 C   0  0  0  0  0  0  0  0  0  0  0  0
   20.9825    0.2447   12.1822 H   0  0  0  0  0  0  0  0  0  0  0  0
   23.3659   -4.5953    8.5820 Br  0  0  0  0  0  0  0  0  0  0  0  0
   20.7471   -3.0818    6.6035 Br  0  0  0  0  0  0  0  0  0  0  0  0
   20.7940   -6.2687    7.4024 N   0  0  0  0  0  0  0  0  0  0  0  0
   21.5635   -6.3600    6.3094 C   0  0  0  0  0  3  0  0  0  0  0  0
   22.2142   -5.5243    6.0956 H   0  0  0  0  0  0  0  0  0  0  0  0
   21.5595   -7.4511    5.4662 C   0  0  0  0  0  0  0  0  0  0  0  0
   22.2064   -7.4519    4.6026 H   0  0  0  0  0  0  0  0  0  0  0  0
   20.7241   -8.5225    5.7427 C   0  0  0  0  0  0  0  0  0  0  0  0
   19.9265   -8.4368    6.8736 C   0  0  0  0  0  0  0  0  0  0  0  0
   19.9917   -7.3091    7.6646 C   0  0  0  0  0  0  0  0  0  0  0  0
   19.3712   -7.2408    8.5464 H   0  0  0  0  0  0  0  0  0  0  0  0
   19.2543   -9.2347    7.1482 H   0  0  0  0  0  0  0  0  0  0  0  0
   20.6956   -9.3908    5.1013 H   0  0  0  0  0  0  0  0  0  0  0  0
  1  2  1  0  0  0  0
  1  4  1  0  0  0  0
  1  3  1  0  0  0  0
  4  5  1  0  0  0  0
  5  6  1  0  0  0  0
  5  9  1  0  0  0  0
  7  4  1  0  0  0  0
  7 11  2  0  0  0  0
  8  7  1  0  0  0  0
  9 10  1  0  0  0  0
 11 13  1  0  0  0  0
 12 11  1  0  0  0  0
 13  9  2  0  0  0  0
 13 14  1  0  0  0  0
 15  1  1  0  0  0  0
 16  1  1  0  0  0  0
 17 24  1  0  0  0  0
 17  1  1  0  0  0  0
 18 17  1  0  0  0  0
 19 18  1  0  0  0  0
 20 22  2  0  0  0  0
 20 18  1  0  0  0  0
 21 20  1  0  0  0  0
 22 23  1  0  0  0  0
 23 26  1  0  0  0  0
 23 24  2  0  0  0  0
 24 25  1  0  0  0  0
 27 22  1  0  0  0  0
M  END
$$$$
