CSD_code = TAYROB | q = 0 | S = 0 | Stoichiometry = C23H24Cl2N4OPd | MND = 4
 OpenBabel04212202103D

 55 59  0  0  1  0  0  0  0  0999 V2000
    5.4223   15.0343    2.5343 Pd  0  0  0  0  0  0  0  0  0  0  0  0
    5.8021   14.1922    8.1474 C   0  0  0  0  0  0  0  0  0  0  0  0
    5.6528   13.7172    9.1060 H   0  0  0  0  0  0  0  0  0  0  0  0
    1.7107   11.2509    1.6810 C   0  0  0  0  0  0  0  0  0  0  0  0
    0.9706   12.0327    1.5318 H   0  0  0  0  0  0  0  0  0  0  0  0
    1.2914   10.4704    2.3087 H   0  0  0  0  0  0  0  0  0  0  0  0
    1.9528   10.8182    0.7096 H   0  0  0  0  0  0  0  0  0  0  0  0
    4.7382   14.3289    7.2772 C   0  0  0  0  0  0  0  0  0  0  0  0
    3.7655   13.9538    7.5576 H   0  0  0  0  0  0  0  0  0  0  0  0
    7.2409   15.2645    6.5599 C   0  0  0  0  0  0  0  0  0  0  0  0
    8.2155   15.6358    6.2818 H   0  0  0  0  0  0  0  0  0  0  0  0
    0.2833   15.4822    4.0243 C   0  0  0  0  0  0  0  0  0  0  0  0
    0.0483   16.3987    3.4832 H   0  0  0  0  0  0  0  0  0  0  0  0
   -0.2417   15.4988    4.9754 H   0  0  0  0  0  0  0  0  0  0  0  0
   -0.0750   14.6310    3.4464 H   0  0  0  0  0  0  0  0  0  0  0  0
    7.0543   14.6666    7.7954 C   0  0  0  0  0  0  0  0  0  0  0  0
    7.8820   14.5688    8.4817 H   0  0  0  0  0  0  0  0  0  0  0  0
    3.2482   13.7418    0.7393 C   0  0  0  0  0  0  0  0  0  0  0  0
    2.8851   13.0849   -0.0562 H   0  0  0  0  0  0  0  0  0  0  0  0
    4.1962   14.2122    0.4167 H   0  0  0  0  0  0  0  0  0  0  0  0
    5.8870   12.1231    4.4441 C   0  0  0  0  0  0  0  0  0  0  0  0
    8.0526   11.8927    6.1780 C   0  0  0  0  0  0  0  0  0  0  0  0
    8.8949   11.7955    6.8465 H   0  0  0  0  0  0  0  0  0  0  0  0
    8.1643   12.6483    5.0224 C   0  0  0  0  0  0  0  0  0  0  0  0
    9.0960   13.1398    4.7863 H   0  0  0  0  0  0  0  0  0  0  0  0
    6.8560   11.2624    6.4745 C   0  0  0  0  0  0  0  0  0  0  0  0
    6.7612   10.6790    7.3787 H   0  0  0  0  0  0  0  0  0  0  0  0
    7.0903   12.7747    4.1615 C   0  0  0  0  0  0  0  0  0  0  0  0
    7.2019   13.3525    3.2442 H   0  0  0  0  0  0  0  0  0  0  0  0
    2.9317   11.8011    2.3172 C   0  0  1  0  0  3  0  0  0  0  0  0
    1.7420   15.3683    4.2741 C   0  0  1  0  0  3  0  0  0  0  0  0
    2.4034   15.0910    5.4485 C   0  0  0  0  0  0  0  0  0  0  0  0
    1.9537   14.9170    6.4037 H   0  0  0  0  0  0  0  0  0  0  0  0
    3.6778   11.3172    3.3683 C   0  0  0  0  0  0  0  0  0  0  0  0
    3.4807   10.4306    3.9342 H   0  0  0  0  0  0  0  0  0  0  0  0
    2.1906   14.8515    0.9282 C   0  0  2  0  0  0  0  0  0  0  0  0
    2.1345   15.3604   -0.0483 H   0  0  0  0  0  0  0  0  0  0  0  0
    5.7811   11.3722    5.6138 C   0  0  0  0  0  0  0  0  0  0  0  0
    4.8498   10.8805    5.8520 H   0  0  0  0  0  0  0  0  0  0  0  0
    3.7781   15.1227    5.1427 C   0  0  0  0  0  0  0  0  0  0  0  0
    6.1851   15.3947    5.6775 C   0  0  0  0  0  0  0  0  0  0  0  0
    6.3451   15.8859    4.7165 H   0  0  0  0  0  0  0  0  0  0  0  0
    2.5463   15.9581    1.9518 C   0  0  0  0  0  0  0  0  0  0  0  0
    3.5053   16.4237    1.6513 H   0  0  0  0  0  0  0  0  0  0  0  0
    1.7622   16.7227    1.9114 H   0  0  0  0  0  0  0  0  0  0  0  0
    4.7677   12.1975    3.5141 C   0  0  0  0  0  0  0  0  0  0  0  0
    4.9142   14.9384    6.0356 C   0  0  0  0  0  0  0  0  0  0  0  0
    3.9159   15.4041    3.8526 N   0  0  0  0  0  0  0  0  0  0  0  0
    2.6934   15.5312    3.3211 N   0  0  1  0  0  0  0  0  0  0  0  0
    3.5479   12.9307    1.8917 N   0  0  1  0  0  0  0  0  0  0  0  0
    4.6641   13.1524    2.5975 N   0  0  0  0  0  0  0  0  0  0  0  0
    0.9460   14.2441    1.2136 O   0  0  0  0  0  0  0  0  0  0  0  0
    0.2425   14.8929    1.1029 H   0  0  0  0  0  0  0  0  0  0  0  0
    5.9403   17.2192    2.3732 Cl  0  0  0  0  0  0  0  0  0  0  0  0
    6.8229   14.5192    0.8504 Cl  0  0  0  0  0  0  0  0  0  0  0  0
  1 51  1  0  0  0  0
  1 48  1  0  0  0  0
  2  3  1  0  0  0  0
  4  6  1  0  0  0  0
  5  4  1  0  0  0  0
  7  4  1  0  0  0  0
  8  9  1  0  0  0  0
  8  2  2  0  0  0  0
 10 16  2  0  0  0  0
 11 10  1  0  0  0  0
 12 14  1  0  0  0  0
 13 12  1  0  0  0  0
 15 12  1  0  0  0  0
 16  2  1  0  0  0  0
 16 17  1  0  0  0  0
 18 36  1  0  0  0  0
 19 18  1  0  0  0  0
 20 18  1  0  0  0  0
 21 38  1  0  0  0  0
 22 26  1  0  0  0  0
 22 23  1  0  0  0  0
 24 22  2  0  0  0  0
 25 24  1  0  0  0  0
 26 27  1  0  0  0  0
 28 21  2  0  0  0  0
 28 24  1  0  0  0  0
 29 28  1  0  0  0  0
 30  4  1  6  0  0  0
 30 34  1  0  0  0  0
 31 12  1  6  0  0  0
 31 32  1  0  0  0  0
 32 33  1  0  0  0  0
 34 46  2  0  0  0  0
 34 35  1  0  0  0  0
 36 37  1  6  0  0  0
 36 52  1  0  0  0  0
 36 43  1  0  0  0  0
 38 39  1  0  0  0  0
 38 26  2  0  0  0  0
 40 32  2  0  0  0  0
 40 47  1  0  0  0  0
 41 47  2  0  0  0  0
 41 10  1  0  0  0  0
 42 41  1  0  0  0  0
 44 43  1  0  0  0  0
 45 43  1  0  0  0  0
 46 21  1  0  0  0  0
 47  8  1  0  0  0  0
 48 40  1  0  0  0  0
 49 43  1  1  0  0  0
 49 48  1  0  0  0  0
 49 31  1  0  0  0  0
 50 18  1  6  0  0  0
 50 30  1  0  0  0  0
 50 51  1  0  0  0  0
 51 46  1  0  0  0  0
 53 52  1  0  0  0  0
 54  1  1  0  0  0  0
 55  1  1  0  0  0  0
M  END
$$$$
