CSD_code = TCACTC | q = 0 | S = 0 | Stoichiometry = C28H29ClO4PTc | MND = 6
 OpenBabel04212202103D

 64 68  0  0  1  0  0  0  0  0999 V2000
   -7.3997    6.5085   -5.6975 Tc  0  0  0  0  0  0  0  0  0  0  0  0
   -5.3022    7.0966   -4.8221 Cl  0  0  0  0  0  0  0  0  0  0  0  0
   -9.5495    5.9677   -6.6342 P   0  0  0  0  0  4  0  0  0  0  0  0
   -8.2200    7.4843   -4.1862 O   0  0  0  0  0  0  0  0  0  0  0  0
   -7.3236    4.9378   -4.4742 O   0  0  0  0  0  0  0  0  0  0  0  0
   -6.5091    5.4825   -7.1724 O   0  0  0  0  0  0  0  0  0  0  0  0
   -7.2816    8.1090   -6.8991 O   0  0  0  0  0  0  0  0  0  0  0  0
   -8.2051    8.4556   -2.0197 C   0  0  0  0  0  0  0  0  0  0  0  0
   -7.9002    7.3248   -2.9680 C   0  0  1  0  0  3  0  0  0  0  0  0
   -7.3317    6.1539   -2.4603 C   0  0  0  0  0  0  0  0  0  0  0  0
   -7.0526    5.0237   -3.2384 C   0  0  0  0  0  0  0  0  0  0  0  0
   -6.4623    3.8086   -2.5718 C   0  0  0  0  0  0  0  0  0  0  0  0
   -6.0359    4.6668   -9.3485 C   0  0  0  0  0  0  0  0  0  0  0  0
   -6.4605    5.7685   -8.4058 C   0  0  2  0  0  3  0  0  0  0  0  0
   -6.7428    7.0343   -8.9280 C   0  0  0  0  0  0  0  0  0  0  0  0
   -7.0916    8.1458   -8.1473 C   0  0  0  0  0  0  0  0  0  0  0  0
   -7.1937    9.4904   -8.8278 C   0  0  0  0  0  0  0  0  0  0  0  0
   -9.8276    4.3204   -7.3653 C   0  0  0  0  0  0  0  0  0  0  0  0
   -8.8331    3.3549   -7.2673 C   0  0  0  0  0  0  0  0  0  0  0  0
   -9.0413    2.0914   -7.7947 C   0  0  0  0  0  0  0  0  0  0  0  0
  -10.2421    1.7855   -8.4126 C   0  0  0  0  0  0  0  0  0  0  0  0
  -11.2431    2.7415   -8.4958 C   0  0  0  0  0  0  0  0  0  0  0  0
  -11.0413    4.0038   -7.9707 C   0  0  0  0  0  0  0  0  0  0  0  0
  -10.0824    7.1251   -7.9258 C   0  0  0  0  0  0  0  0  0  0  0  0
  -10.3357    8.4371   -7.5285 C   0  0  0  0  0  0  0  0  0  0  0  0
  -10.6711    9.3955   -8.4650 C   0  0  0  0  0  0  0  0  0  0  0  0
  -10.7360    9.0578   -9.8085 C   0  0  0  0  0  0  0  0  0  0  0  0
  -10.4490    7.7643  -10.2117 C   0  0  0  0  0  0  0  0  0  0  0  0
  -10.1157    6.7999   -9.2764 C   0  0  0  0  0  0  0  0  0  0  0  0
  -10.9502    5.9894   -5.4594 C   0  0  0  0  0  0  0  0  0  0  0  0
  -10.7356    5.3611   -4.2354 C   0  0  0  0  0  0  0  0  0  0  0  0
  -11.7394    5.3115   -3.2872 C   0  0  0  0  0  0  0  0  0  0  0  0
  -12.9717    5.8866   -3.5547 C   0  0  0  0  0  0  0  0  0  0  0  0
  -13.1949    6.5034   -4.7739 C   0  0  0  0  0  0  0  0  0  0  0  0
  -12.1914    6.5548   -5.7262 C   0  0  0  0  0  0  0  0  0  0  0  0
   -8.8649    9.1709   -2.5035 H   0  0  0  0  0  0  0  0  0  0  0  0
   -7.2719    8.9563   -1.7672 H   0  0  0  0  0  0  0  0  0  0  0  0
   -8.6600    8.0890   -1.1032 H   0  0  0  0  0  0  0  0  0  0  0  0
   -7.1455    6.0985   -1.3992 H   0  0  0  0  0  0  0  0  0  0  0  0
   -6.5908    2.9389   -3.2111 H   0  0  0  0  0  0  0  0  0  0  0  0
   -6.9138    3.6303   -1.5994 H   0  0  0  0  0  0  0  0  0  0  0  0
   -5.3965    3.9821   -2.4324 H   0  0  0  0  0  0  0  0  0  0  0  0
   -5.5336    3.8837   -8.7874 H   0  0  0  0  0  0  0  0  0  0  0  0
   -5.3748    5.0473  -10.1217 H   0  0  0  0  0  0  0  0  0  0  0  0
   -6.9192    4.2423   -9.8243 H   0  0  0  0  0  0  0  0  0  0  0  0
   -6.5633    7.1993   -9.9788 H   0  0  0  0  0  0  0  0  0  0  0  0
   -7.5832   10.2233   -8.1272 H   0  0  0  0  0  0  0  0  0  0  0  0
   -7.8474    9.4250   -9.6939 H   0  0  0  0  0  0  0  0  0  0  0  0
   -6.2076    9.8084   -9.1613 H   0  0  0  0  0  0  0  0  0  0  0  0
   -7.9018    3.6043   -6.7785 H   0  0  0  0  0  0  0  0  0  0  0  0
   -8.2656    1.3432   -7.7226 H   0  0  0  0  0  0  0  0  0  0  0  0
  -10.4032    0.8005   -8.8257 H   0  0  0  0  0  0  0  0  0  0  0  0
  -12.1836    2.4995   -8.9693 H   0  0  0  0  0  0  0  0  0  0  0  0
  -11.8231    4.7486   -8.0278 H   0  0  0  0  0  0  0  0  0  0  0  0
  -10.2567    8.6905   -6.4794 H   0  0  0  0  0  0  0  0  0  0  0  0
  -10.8761   10.4090   -8.1527 H   0  0  0  0  0  0  0  0  0  0  0  0
  -10.9991    9.8064  -10.5415 H   0  0  0  0  0  0  0  0  0  0  0  0
  -10.4820    7.5055  -11.2601 H   0  0  0  0  0  0  0  0  0  0  0  0
   -9.8813    5.7940   -9.5946 H   0  0  0  0  0  0  0  0  0  0  0  0
   -9.7704    4.9138   -4.0349 H   0  0  0  0  0  0  0  0  0  0  0  0
  -11.5627    4.8268   -2.3381 H   0  0  0  0  0  0  0  0  0  0  0  0
  -13.7568    5.8535   -2.8138 H   0  0  0  0  0  0  0  0  0  0  0  0
  -14.1562    6.9486   -4.9859 H   0  0  0  0  0  0  0  0  0  0  0  0
  -12.3748    7.0432   -6.6728 H   0  0  0  0  0  0  0  0  0  0  0  0
  1  2  1  0  0  0  0
  1  5  1  0  0  0  0
  1  4  1  0  0  0  0
  3  1  1  0  0  0  0
  3 30  1  0  0  0  0
  4  9  1  0  0  0  0
  5 11  1  0  0  0  0
  6  1  1  0  0  0  0
  7  1  1  0  0  0  0
  8 37  1  0  0  0  0
  8 38  1  0  0  0  0
  9 10  1  0  0  0  0
  9  8  1  1  0  0  0
 10 39  1  0  0  0  0
 11 12  1  0  0  0  0
 11 10  2  0  0  0  0
 12 42  1  0  0  0  0
 12 41  1  0  0  0  0
 13 43  1  0  0  0  0
 14 13  1  1  0  0  0
 14  6  1  0  0  0  0
 15 14  1  0  0  0  0
 15 16  2  0  0  0  0
 16  7  1  0  0  0  0
 17 16  1  0  0  0  0
 17 47  1  0  0  0  0
 18 19  1  0  0  0  0
 18  3  1  0  0  0  0
 19 50  1  0  0  0  0
 20 51  1  0  0  0  0
 20 19  2  0  0  0  0
 21 20  1  0  0  0  0
 22 21  2  0  0  0  0
 22 23  1  0  0  0  0
 23 18  2  0  0  0  0
 24 25  1  0  0  0  0
 24  3  1  0  0  0  0
 25 55  1  0  0  0  0
 26 56  1  0  0  0  0
 26 25  2  0  0  0  0
 27 26  1  0  0  0  0
 28 27  2  0  0  0  0
 28 29  1  0  0  0  0
 29 24  2  0  0  0  0
 30 31  1  0  0  0  0
 31 60  1  0  0  0  0
 31 32  2  0  0  0  0
 32 61  1  0  0  0  0
 33 32  1  0  0  0  0
 33 62  1  0  0  0  0
 34 33  2  0  0  0  0
 35 30  2  0  0  0  0
 35 34  1  0  0  0  0
 36  8  1  0  0  0  0
 40 12  1  0  0  0  0
 44 13  1  0  0  0  0
 45 13  1  0  0  0  0
 46 15  1  0  0  0  0
 48 17  1  0  0  0  0
 49 17  1  0  0  0  0
 52 21  1  0  0  0  0
 53 22  1  0  0  0  0
 54 23  1  0  0  0  0
 57 27  1  0  0  0  0
 58 28  1  0  0  0  0
 59 29  1  0  0  0  0
 63 34  1  0  0  0  0
 64 35  1  0  0  0  0
M  END
$$$$
