CSD_code = TCEPPT | q = 0 | S = 0 | Stoichiometry = C12H30Cl4P2Pt | MND = 6
 OpenBabel04212202103D

 49 48  0  0  0  0  0  0  0  0999 V2000
   -0.1499    1.3360    4.4731 Pt  0  0  0  0  0  0  0  0  0  0  0  0
    1.9481    1.4040    5.5545 Cl  0  0  0  0  0  0  0  0  0  0  0  0
   -0.9424   -0.3573    5.9415 Cl  0  0  0  0  0  0  0  0  0  0  0  0
    0.5292    2.7920    2.7162 P   0  0  0  0  0  4  0  0  0  0  0  0
   -0.6208    4.2305    2.5637 C   0  0  0  0  0  0  0  0  0  0  0  0
   -0.3405    5.1940    1.4165 C   0  0  0  0  0  0  0  0  0  0  0  0
    2.1965    3.5357    2.9616 C   0  0  0  0  0  0  0  0  0  0  0  0
    3.3252    2.5577    2.6532 C   0  0  0  0  0  0  0  0  0  0  0  0
    0.6451    2.1209    1.0126 C   0  0  0  0  0  0  0  0  0  0  0  0
   -0.6720    1.6386    0.4224 C   0  0  0  0  0  0  0  0  0  0  0  0
   -0.5937    4.7706    3.5139 H   0  0  0  0  0  0  0  0  0  0  0  0
   -1.6197    3.7988    2.4575 H   0  0  0  0  0  0  0  0  0  0  0  0
   -1.0782    5.9941    1.4344 H   0  0  0  0  0  0  0  0  0  0  0  0
   -0.4131    4.6969    0.4537 H   0  0  0  0  0  0  0  0  0  0  0  0
    0.6441    5.6480    1.5020 H   0  0  0  0  0  0  0  0  0  0  0  0
    2.2607    3.8472    4.0067 H   0  0  0  0  0  0  0  0  0  0  0  0
    2.2753    4.4219    2.3262 H   0  0  0  0  0  0  0  0  0  0  0  0
    4.2712    2.9654    3.0022 H   0  0  0  0  0  0  0  0  0  0  0  0
    3.4069    2.3692    1.5861 H   0  0  0  0  0  0  0  0  0  0  0  0
    3.1562    1.6127    3.1639 H   0  0  0  0  0  0  0  0  0  0  0  0
    1.3473    1.2856    1.0536 H   0  0  0  0  0  0  0  0  0  0  0  0
    1.0820    2.9238    0.4075 H   0  0  0  0  0  0  0  0  0  0  0  0
   -0.5118    1.3036   -0.6004 H   0  0  0  0  0  0  0  0  0  0  0  0
   -1.4279    2.4202    0.4178 H   0  0  0  0  0  0  0  0  0  0  0  0
   -1.0509    0.7996    0.9986 H   0  0  0  0  0  0  0  0  0  0  0  0
   -2.2466    1.4042    3.3886 Cl  0  0  0  0  0  0  0  0  0  0  0  0
    0.6422   -0.3563    3.0024 Cl  0  0  0  0  0  0  0  0  0  0  0  0
   -0.8292    2.7923    6.2284 P   0  0  0  0  0  4  0  0  0  0  0  0
    0.3210    4.2306    6.3808 C   0  0  0  0  0  0  0  0  0  0  0  0
   -2.4965    3.5358    5.9830 C   0  0  0  0  0  0  0  0  0  0  0  0
   -0.9450    2.1210    7.9320 C   0  0  0  0  0  0  0  0  0  0  0  0
    0.0407    5.1941    7.5280 C   0  0  0  0  0  0  0  0  0  0  0  0
    0.2938    4.7707    5.4306 H   0  0  0  0  0  0  0  0  0  0  0  0
    1.3198    3.7989    6.4870 H   0  0  0  0  0  0  0  0  0  0  0  0
   -3.6252    2.5577    6.2914 C   0  0  0  0  0  0  0  0  0  0  0  0
   -2.5607    3.8473    4.9379 H   0  0  0  0  0  0  0  0  0  0  0  0
   -2.5753    4.4220    6.6184 H   0  0  0  0  0  0  0  0  0  0  0  0
    0.3722    1.6386    8.5221 C   0  0  0  0  0  0  0  0  0  0  0  0
   -1.6472    1.2857    7.8910 H   0  0  0  0  0  0  0  0  0  0  0  0
   -1.3818    2.9239    8.5371 H   0  0  0  0  0  0  0  0  0  0  0  0
    0.7784    5.9942    7.5101 H   0  0  0  0  0  0  0  0  0  0  0  0
    0.1133    4.6969    8.4908 H   0  0  0  0  0  0  0  0  0  0  0  0
   -0.9439    5.6481    7.4426 H   0  0  0  0  0  0  0  0  0  0  0  0
   -4.5711    2.9654    5.9423 H   0  0  0  0  0  0  0  0  0  0  0  0
   -3.7068    2.3692    7.3585 H   0  0  0  0  0  0  0  0  0  0  0  0
   -3.4561    1.6127    5.7807 H   0  0  0  0  0  0  0  0  0  0  0  0
    0.2120    1.3036    9.5449 H   0  0  0  0  0  0  0  0  0  0  0  0
    1.1281    2.4202    8.5267 H   0  0  0  0  0  0  0  0  0  0  0  0
    0.7510    0.7996    7.9459 H   0  0  0  0  0  0  0  0  0  0  0  0
  1  2  1  0  0  0  0
  1  3  1  0  0  0  0
  1 28  1  0  0  0  0
  4  7  1  0  0  0  0
  4  1  1  0  0  0  0
  5  4  1  0  0  0  0
  5 11  1  0  0  0  0
  6 13  1  0  0  0  0
  6 15  1  0  0  0  0
  6  5  1  0  0  0  0
  7 16  1  0  0  0  0
  8  7  1  0  0  0  0
  8 18  1  0  0  0  0
  8 20  1  0  0  0  0
  9 21  1  0  0  0  0
  9  4  1  0  0  0  0
 10 25  1  0  0  0  0
 10  9  1  0  0  0  0
 12  5  1  0  0  0  0
 14  6  1  0  0  0  0
 17  7  1  0  0  0  0
 19  8  1  0  0  0  0
 22  9  1  0  0  0  0
 23 10  1  0  0  0  0
 24 10  1  0  0  0  0
 26  1  1  0  0  0  0
 27  1  1  0  0  0  0
 28 29  1  0  0  0  0
 28 31  1  0  0  0  0
 29 34  1  0  0  0  0
 29 32  1  0  0  0  0
 30 28  1  0  0  0  0
 30 35  1  0  0  0  0
 30 37  1  0  0  0  0
 31 38  1  0  0  0  0
 31 40  1  0  0  0  0
 32 42  1  0  0  0  0
 33 29  1  0  0  0  0
 35 45  1  0  0  0  0
 36 30  1  0  0  0  0
 38 48  1  0  0  0  0
 38 47  1  0  0  0  0
 39 31  1  0  0  0  0
 41 32  1  0  0  0  0
 43 32  1  0  0  0  0
 44 35  1  0  0  0  0
 46 35  1  0  0  0  0
 49 38  1  0  0  0  0
M  END
$$$$
