CSD_code = TEBDUB | q = 0 | S = 0 | Stoichiometry = C32H12Br2N12Zn | MND = 6
 OpenBabel04212202103D

 59 68  0  0  0  0  0  0  0  0999 V2000
    1.3119    8.1292   20.4864 Zn  0  0  0  0  0  0  0  0  0  0  0  0
    2.3018    6.8302   18.6257 Br  0  0  0  0  0  0  0  0  0  0  0  0
   -0.5740    8.3388   19.3288 N   0  0  0  0  0  0  0  0  0  0  0  0
    1.6213    9.8812   19.0976 N   0  0  0  0  0  0  0  0  0  0  0  0
   -1.5559    8.9711   14.6889 N   0  0  0  0  0  0  0  0  0  0  0  0
    0.7367   10.5254   14.4415 N   0  0  0  0  0  0  0  0  0  0  0  0
   -2.6886    9.0927   11.4703 N   0  0  0  0  0  0  0  0  0  0  0  0
    0.5848   11.2795   11.1195 N   0  0  0  0  0  0  0  0  0  0  0  0
   -1.6466    7.5871   19.4743 C   0  0  0  0  0  0  0  0  0  0  0  0
   -1.8116    7.1782   20.4626 H   0  0  0  0  0  0  0  0  0  0  0  0
   -2.5224    7.3016   18.4269 C   0  0  0  0  0  0  0  0  0  0  0  0
   -3.3790    6.6711   18.6015 H   0  0  0  0  0  0  0  0  0  0  0  0
   -2.2568    7.8190   17.1793 C   0  0  0  0  0  0  0  0  0  0  0  0
   -2.8849    7.6171   16.3256 H   0  0  0  0  0  0  0  0  0  0  0  0
   -1.1266    8.6294   17.0139 C   0  0  0  0  0  0  0  0  0  0  0  0
   -0.7714    9.2005   15.7400 C   0  0  0  0  0  0  0  0  0  0  0  0
   -1.2084    9.4901   13.5252 C   0  0  0  0  0  0  0  0  0  0  0  0
   -2.0370    9.2569   12.3968 C   0  0  0  0  0  0  0  0  0  0  0  0
    0.3209   10.8381   12.1421 C   0  0  0  0  0  0  0  0  0  0  0  0
   -0.0352   10.2814   13.3983 C   0  0  0  0  0  0  0  0  0  0  0  0
    0.3950    9.9958   15.6146 C   0  0  0  0  0  0  0  0  0  0  0  0
    1.2283   10.2459   16.7615 C   0  0  0  0  0  0  0  0  0  0  0  0
    2.3986   11.0101   16.6817 C   0  0  0  0  0  0  0  0  0  0  0  0
    2.6882   11.4256   15.7291 H   0  0  0  0  0  0  0  0  0  0  0  0
    3.1446   11.1989   17.8232 C   0  0  0  0  0  0  0  0  0  0  0  0
    4.0549   11.7763   17.8064 H   0  0  0  0  0  0  0  0  0  0  0  0
    2.7089   10.6140   19.0118 C   0  0  0  0  0  0  0  0  0  0  0  0
    3.2698   10.7311   19.9287 H   0  0  0  0  0  0  0  0  0  0  0  0
   -0.3056    8.8678   18.1295 C   0  0  0  0  0  0  0  0  0  0  0  0
    0.8785    9.6888   18.0040 C   0  0  0  0  0  0  0  0  0  0  0  0
    0.3287    6.7797   22.2925 Br  0  0  0  0  0  0  0  0  0  0  0  0
    3.2184    8.3307   21.6123 N   0  0  0  0  0  0  0  0  0  0  0  0
    1.0103    9.8414   21.9348 N   0  0  0  0  0  0  0  0  0  0  0  0
    4.4072    9.0189   26.1943 N   0  0  0  0  0  0  0  0  0  0  0  0
    2.0974   10.5271   26.5428 N   0  0  0  0  0  0  0  0  0  0  0  0
    5.7134    9.2117   29.3406 N   0  0  0  0  0  0  0  0  0  0  0  0
    2.4141   11.3232   29.8465 N   0  0  0  0  0  0  0  0  0  0  0  0
    4.2950    7.5946   21.4231 C   0  0  0  0  0  0  0  0  0  0  0  0
    4.4246    7.1858   20.4296 H   0  0  0  0  0  0  0  0  0  0  0  0
    5.2199    7.3270   22.4321 C   0  0  0  0  0  0  0  0  0  0  0  0
    6.0779    6.7093   22.2222 H   0  0  0  0  0  0  0  0  0  0  0  0
    5.0021    7.8476   23.6874 C   0  0  0  0  0  0  0  0  0  0  0  0
    5.6708    7.6609   24.5133 H   0  0  0  0  0  0  0  0  0  0  0  0
    3.8679    8.6414   23.8985 C   0  0  0  0  0  0  0  0  0  0  0  0
    3.5647    9.2188   25.1828 C   0  0  0  0  0  0  0  0  0  0  0  0
    4.1106    9.5466   27.3677 C   0  0  0  0  0  0  0  0  0  0  0  0
    5.0056    9.3487   28.4516 C   0  0  0  0  0  0  0  0  0  0  0  0
    2.6270   10.8764   28.8145 C   0  0  0  0  0  0  0  0  0  0  0  0
    2.9274   10.3129   27.5468 C   0  0  0  0  0  0  0  0  0  0  0  0
    2.3904    9.9923   25.3588 C   0  0  0  0  0  0  0  0  0  0  0  0
    1.4983   10.2170   24.2512 C   0  0  0  0  0  0  0  0  0  0  0  0
    0.3177   10.9579   24.3823 C   0  0  0  0  0  0  0  0  0  0  0  0
    0.0637   11.3716   25.3457 H   0  0  0  0  0  0  0  0  0  0  0  0
   -0.4830   11.1276   23.2752 C   0  0  0  0  0  0  0  0  0  0  0  0
   -1.4035   11.6860   23.3323 H   0  0  0  0  0  0  0  0  0  0  0  0
   -0.0880   10.5512   22.0684 C   0  0  0  0  0  0  0  0  0  0  0  0
   -0.6910   10.6554   21.1772 H   0  0  0  0  0  0  0  0  0  0  0  0
    2.9941    8.8615   22.8196 C   0  0  0  0  0  0  0  0  0  0  0  0
    1.8034    9.6641   22.9948 C   0  0  0  0  0  0  0  0  0  0  0  0
  1 32  1  0  0  0  0
  1 33  1  0  0  0  0
  1 31  1  0  0  0  0
  2  1  1  0  0  0  0
  3  9  1  0  0  0  0
  3  1  1  0  0  0  0
  4  1  1  0  0  0  0
  5 16  1  0  0  0  0
  6 21  1  0  0  0  0
  7 18  3  0  0  0  0
  8 19  3  0  0  0  0
  9 10  1  0  0  0  0
 11 12  1  0  0  0  0
 11  9  2  0  0  0  0
 13 11  1  0  0  0  0
 14 13  1  0  0  0  0
 15 13  2  0  0  0  0
 15 29  1  0  0  0  0
 16 15  1  0  0  0  0
 17  5  2  0  0  0  0
 18 17  1  0  0  0  0
 19 20  1  0  0  0  0
 20 17  1  0  0  0  0
 20  6  2  0  0  0  0
 21 16  2  0  0  0  0
 21 22  1  0  0  0  0
 22 30  1  0  0  0  0
 23 22  2  0  0  0  0
 23 25  1  0  0  0  0
 24 23  1  0  0  0  0
 25 27  2  0  0  0  0
 26 25  1  0  0  0  0
 27  4  1  0  0  0  0
 27 28  1  0  0  0  0
 29  3  1  0  0  0  0
 30 29  2  0  0  0  0
 30  4  1  0  0  0  0
 32 58  1  0  0  0  0
 33 56  1  0  0  0  0
 33 59  1  0  0  0  0
 34 46  1  0  0  0  0
 35 49  1  0  0  0  0
 38 32  1  0  0  0  0
 38 40  2  0  0  0  0
 39 38  1  0  0  0  0
 40 42  1  0  0  0  0
 41 40  1  0  0  0  0
 42 44  2  0  0  0  0
 42 43  1  0  0  0  0
 44 45  1  0  0  0  0
 45 50  1  0  0  0  0
 45 34  2  0  0  0  0
 46 49  2  0  0  0  0
 46 47  1  0  0  0  0
 47 36  3  0  0  0  0
 48 37  3  0  0  0  0
 49 48  1  0  0  0  0
 50 35  2  0  0  0  0
 51 52  2  0  0  0  0
 51 50  1  0  0  0  0
 52 53  1  0  0  0  0
 54 55  1  0  0  0  0
 54 52  1  0  0  0  0
 56 54  2  0  0  0  0
 57 56  1  0  0  0  0
 58 59  2  0  0  0  0
 58 44  1  0  0  0  0
 59 51  1  0  0  0  0
M  END
$$$$
