CSD_code = TEBFEL | q = 0 | S = 0 | Stoichiometry = C6H7Cl3Ti | MND = 8
 OpenBabel04212202103D

 17 18  0  0  1  0  0  0  0  0999 V2000
    2.8779    0.4978    2.9903 Ti  0  0  0  0  0  0  0  0  0  0  0  0
    4.9339    1.0955    2.8449 Cl  0  0  0  0  0  0  0  0  0  0  0  0
    2.1424    1.5059    1.2451 Cl  0  0  0  0  0  0  0  0  0  0  0  0
    2.2055    1.9002    4.4682 Cl  0  0  0  0  0  0  0  0  0  0  0  0
    1.3613   -1.0969    3.6207 C   0  0  2  0  0  0  0  0  0  0  0  0
    2.5129   -1.2510    4.4359 C   0  0  0  0  0  0  0  0  0  0  0  0
    3.5937   -1.6025    3.5995 C   0  0  0  0  0  0  0  0  0  0  0  0
    3.1149   -1.6573    2.2652 C   0  0  1  0  0  0  0  0  0  0  0  0
    1.7263   -1.3662    2.2782 C   0  0  1  0  0  3  0  0  0  0  0  0
    0.7911   -1.4628    1.1113 C   0  0  0  0  0  0  0  0  0  0  0  0
    0.3517   -0.9298    3.9788 H   0  0  0  0  0  0  0  0  0  0  0  0
    2.5300   -1.2157    5.5188 H   0  0  0  0  0  0  0  0  0  0  0  0
    4.5876   -1.8825    3.9268 H   0  0  0  0  0  0  0  0  0  0  0  0
    3.6807   -1.9960    1.4047 H   0  0  0  0  0  0  0  0  0  0  0  0
    0.4061   -2.4820    1.0340 H   0  0  0  0  0  0  0  0  0  0  0  0
    1.3050   -1.2188    0.1826 H   0  0  0  0  0  0  0  0  0  0  0  0
   -0.0524   -0.7846    1.2344 H   0  0  0  0  0  0  0  0  0  0  0  0
  1  5  1  0  0  0  0
  1  4  1  0  0  0  0
  2  1  1  0  0  0  0
  3  1  1  0  0  0  0
  5 11  1  1  0  0  0
  5  6  1  0  0  0  0
  6 12  1  0  0  0  0
  7 13  1  0  0  0  0
  7  6  2  0  0  0  0
  8 14  1  6  0  0  0
  8  9  1  0  0  0  0
  8  1  1  0  0  0  0
  8  7  1  0  0  0  0
  9 10  1  1  0  0  0
  9  5  1  0  0  0  0
 10 17  1  0  0  0  0
 15 10  1  0  0  0  0
 16 10  1  0  0  0  0
M  END
$$$$
