CSD_code = TEBKIW | q = -1 | S = 0 | Stoichiometry = C20H22ClFeN2O6(1-) | MND = 5
 OpenBabel04212202103D

 52 55  0  0  0  0  0  0  0  0999 V2000
   -0.6726    3.9019    4.8354 Fe  0  0  0  0  0  0  0  0  0  0  0  0
    1.4693    3.6698    4.6945 Cl  0  0  0  0  0  0  0  0  0  0  0  0
   -1.6239    5.2768   -0.3052 O   0  0  0  0  0  0  0  0  0  0  0  0
   -1.0698    2.5502    3.5068 O   0  0  0  0  0  0  0  0  0  0  0  0
   -0.8346    5.5351    9.9887 O   0  0  0  0  0  0  0  0  0  0  0  0
   -1.1753    3.3611   10.3919 O   0  0  0  0  0  0  0  0  0  0  0  0
   -0.8845    2.6244    6.2730 O   0  0  0  0  0  0  0  0  0  0  0  0
   -1.9601    3.0794   -0.5571 O   0  0  0  0  0  0  0  0  0  0  0  0
   -0.6940    5.2669    3.5142 N   0  0  0  0  0  0  0  0  0  0  0  0
   -0.5095    5.3337    6.0759 N   0  0  0  0  0  0  0  0  0  0  0  0
   -0.3414    6.5044    4.0341 C   0  0  0  0  0  0  0  0  0  0  0  0
   -0.2384    6.5412    5.4477 C   0  0  0  0  0  0  0  0  0  0  0  0
   -0.6465    5.2604    7.3780 C   0  0  0  0  0  3  0  0  0  0  0  0
   -0.6424    6.1807    7.9547 H   0  0  0  0  0  0  0  0  0  0  0  0
    0.1544    7.7243    6.0699 C   0  0  0  0  0  0  0  0  0  0  0  0
    0.2796    7.7626    7.1414 H   0  0  0  0  0  0  0  0  0  0  0  0
   -0.9143    2.7960    7.5122 C   0  0  0  0  0  0  0  0  0  0  0  0
   -1.0268    5.1295    2.2533 C   0  0  0  0  0  3  0  0  0  0  0  0
   -1.1234    6.0211    1.6405 H   0  0  0  0  0  0  0  0  0  0  0  0
   -0.0473    7.6517    3.3004 C   0  0  0  0  0  0  0  0  0  0  0  0
   -0.0785    7.6327    2.2215 H   0  0  0  0  0  0  0  0  0  0  0  0
   -1.6525    3.9943    0.1864 C   0  0  0  0  0  0  0  0  0  0  0  0
    0.3213    8.8199    3.9411 C   0  0  0  0  0  0  0  0  0  0  0  0
    0.5515    9.7008    3.3579 H   0  0  0  0  0  0  0  0  0  0  0  0
    0.4220    8.8560    5.3224 C   0  0  0  0  0  0  0  0  0  0  0  0
    0.7312    9.7651    5.8193 H   0  0  0  0  0  0  0  0  0  0  0  0
   -1.2731    2.6595    2.2770 C   0  0  0  0  0  0  0  0  0  0  0  0
   -1.3067    3.9186    1.5904 C   0  0  0  0  0  0  0  0  0  0  0  0
   -0.9638    4.2335    9.5682 C   0  0  0  0  0  0  0  0  0  0  0  0
   -0.9417    5.7355   11.3868 C   0  0  0  0  0  0  0  0  0  0  0  0
   -0.2003    5.1102   11.9001 H   0  0  0  0  0  0  0  0  0  0  0  0
   -1.9367    5.4172   11.7248 H   0  0  0  0  0  0  0  0  0  0  0  0
   -1.9488    5.4092   -1.6772 C   0  0  0  0  0  0  0  0  0  0  0  0
   -2.9652    5.0308   -1.8484 H   0  0  0  0  0  0  0  0  0  0  0  0
   -1.2609    4.7962   -2.2736 H   0  0  0  0  0  0  0  0  0  0  0  0
   -1.8407    6.8771   -2.0533 C   0  0  0  0  0  0  0  0  0  0  0  0
   -2.5235    7.4677   -1.4475 H   0  0  0  0  0  0  0  0  0  0  0  0
   -2.0887    7.0091   -3.1033 H   0  0  0  0  0  0  0  0  0  0  0  0
   -0.8283    7.2314   -1.8774 H   0  0  0  0  0  0  0  0  0  0  0  0
   -0.8345    4.0867    8.1334 C   0  0  0  0  0  0  0  0  0  0  0  0
   -1.5317    1.3777    1.5235 C   0  0  0  0  0  0  0  0  0  0  0  0
   -1.4328    0.5463    2.2175 H   0  0  0  0  0  0  0  0  0  0  0  0
   -0.8187    1.2715    0.7103 H   0  0  0  0  0  0  0  0  0  0  0  0
   -2.5264    1.3857    1.0842 H   0  0  0  0  0  0  0  0  0  0  0  0
   -1.0798    1.5563    8.3567 C   0  0  0  0  0  0  0  0  0  0  0  0
   -1.1075    0.6928    7.6961 H   0  0  0  0  0  0  0  0  0  0  0  0
   -1.9925    1.6114    8.9449 H   0  0  0  0  0  0  0  0  0  0  0  0
   -0.2500    1.4655    9.0526 H   0  0  0  0  0  0  0  0  0  0  0  0
   -0.7111    7.2088   11.6768 C   0  0  0  0  0  0  0  0  0  0  0  0
    0.2776    7.5033   11.3347 H   0  0  0  0  0  0  0  0  0  0  0  0
   -0.7897    7.3924   12.7454 H   0  0  0  0  0  0  0  0  0  0  0  0
   -1.4507    7.8112   11.1551 H   0  0  0  0  0  0  0  0  0  0  0  0
  1 10  1  0  0  0  0
  1  7  1  0  0  0  0
  2  1  1  0  0  0  0
  3 22  1  0  0  0  0
  4  1  1  0  0  0  0
  5 30  1  0  0  0  0
  7 17  1  0  0  0  0
  8 22  2  0  0  0  0
  9 11  1  0  0  0  0
  9  1  1  0  0  0  0
 10 13  1  0  0  0  0
 11 12  1  0  0  0  0
 12 15  2  0  0  0  0
 12 10  1  0  0  0  0
 13 14  1  0  0  0  0
 13 40  1  0  0  0  0
 15 16  1  0  0  0  0
 17 40  2  0  0  0  0
 17 45  1  0  0  0  0
 18  9  1  0  0  0  0
 19 18  1  0  0  0  0
 20 23  1  0  0  0  0
 20 11  2  0  0  0  0
 21 20  1  0  0  0  0
 22 28  1  0  0  0  0
 23 25  2  0  0  0  0
 24 23  1  0  0  0  0
 25 26  1  0  0  0  0
 25 15  1  0  0  0  0
 27  4  1  0  0  0  0
 28 18  1  0  0  0  0
 28 27  2  0  0  0  0
 29  5  1  0  0  0  0
 29  6  2  0  0  0  0
 30 49  1  0  0  0  0
 30 32  1  0  0  0  0
 30 31  1  0  0  0  0
 33  3  1  0  0  0  0
 34 33  1  0  0  0  0
 35 33  1  0  0  0  0
 36 39  1  0  0  0  0
 36 33  1  0  0  0  0
 36 37  1  0  0  0  0
 38 36  1  0  0  0  0
 40 29  1  0  0  0  0
 41 42  1  0  0  0  0
 41 27  1  0  0  0  0
 43 41  1  0  0  0  0
 44 41  1  0  0  0  0
 45 47  1  0  0  0  0
 45 48  1  0  0  0  0
 46 45  1  0  0  0  0
 49 51  1  0  0  0  0
 50 49  1  0  0  0  0
 52 49  1  0  0  0  0
M  END
$$$$
