CSD_code = TEBNEW | q = 0 | S = 0 | Stoichiometry = C20H18Cl2N4Pt | MND = 4
 OpenBabel04212202103D

 45 49  0  0  0  0  0  0  0  0999 V2000
    5.8482    9.4359    7.2367 Pt  0  0  0  0  0  0  0  0  0  0  0  0
    6.4129    8.3696    9.1103 Cl  0  0  0  0  0  0  0  0  0  0  0  0
    7.9913   10.0675    7.0469 Cl  0  0  0  0  0  0  0  0  0  0  0  0
    3.8963    8.9594    7.2614 N   0  0  0  0  0  0  0  0  0  0  0  0
    1.8917    9.0853    6.2964 N   0  0  0  0  0  0  0  0  0  0  0  0
    5.2519   10.3510    5.5589 N   0  0  0  0  0  0  0  0  0  0  0  0
    1.3333   11.6761    6.3750 N   0  0  0  0  0  0  0  0  0  0  0  0
    3.0155    8.2763    8.0514 C   0  0  0  0  0  0  0  0  0  0  0  0
    1.7407    8.3609    7.4551 C   0  0  0  0  0  0  0  0  0  0  0  0
    0.6399    7.7556    8.0440 C   0  0  0  0  0  0  0  0  0  0  0  0
   -0.3437    7.8134    7.6007 H   0  0  0  0  0  0  0  0  0  0  0  0
    0.8206    7.0690    9.2306 C   0  0  0  0  0  0  0  0  0  0  0  0
    2.0989    6.9818    9.8293 C   0  0  0  0  0  0  0  0  0  0  0  0
    3.1945    7.5815    9.2438 C   0  0  0  0  0  0  0  0  0  0  0  0
    4.1786    7.5274    9.6823 H   0  0  0  0  0  0  0  0  0  0  0  0
    3.2097    9.4459    6.2264 C   0  0  0  0  0  0  0  0  0  0  0  0
    3.9349   10.2150    5.2464 C   0  0  0  0  0  0  0  0  0  0  0  0
    3.4219   10.7874    4.0809 C   0  0  0  0  0  0  0  0  0  0  0  0
    2.3828   10.6826    3.8270 H   0  0  0  0  0  0  0  0  0  0  0  0
    4.2544   11.5067    3.2463 C   0  0  0  0  0  0  0  0  0  0  0  0
    3.8645   11.9543    2.3451 H   0  0  0  0  0  0  0  0  0  0  0  0
    5.5949   11.6415    3.5875 C   0  0  0  0  0  0  0  0  0  0  0  0
    6.2771   12.1959    2.9644 H   0  0  0  0  0  0  0  0  0  0  0  0
    6.0472   11.0468    4.7481 C   0  0  0  0  0  0  0  0  0  0  0  0
    7.0829   11.1163    5.0577 H   0  0  0  0  0  0  0  0  0  0  0  0
    0.8048    9.5039    5.4587 C   0  0  0  0  0  0  0  0  0  0  0  0
   -0.0971    8.9935    5.8086 H   0  0  0  0  0  0  0  0  0  0  0  0
    0.9757    9.1878    4.4224 H   0  0  0  0  0  0  0  0  0  0  0  0
    0.5764   11.0004    5.5261 C   0  0  0  0  0  0  0  0  0  0  0  0
   -0.3872   11.6093    4.7288 C   0  0  0  0  0  0  0  0  0  0  0  0
   -0.9859   11.0233    4.0478 H   0  0  0  0  0  0  0  0  0  0  0  0
   -0.5550   12.9796    4.8340 C   0  0  0  0  0  0  0  0  0  0  0  0
   -1.2941   13.4868    4.2316 H   0  0  0  0  0  0  0  0  0  0  0  0
    0.2400   13.6871    5.7232 C   0  0  0  0  0  0  0  0  0  0  0  0
    0.1394   14.7548    5.8328 H   0  0  0  0  0  0  0  0  0  0  0  0
    1.1703   12.9831    6.4715 C   0  0  0  0  0  0  0  0  0  0  0  0
    1.8189   13.4779    7.1812 H   0  0  0  0  0  0  0  0  0  0  0  0
   -0.3538    6.4127    9.8879 C   0  0  0  0  0  0  0  0  0  0  0  0
   -1.2586    6.5587    9.3035 H   0  0  0  0  0  0  0  0  0  0  0  0
   -0.5139    6.8261   10.8828 H   0  0  0  0  0  0  0  0  0  0  0  0
   -0.1816    5.3433   10.0000 H   0  0  0  0  0  0  0  0  0  0  0  0
    2.2718    6.2315   11.1134 C   0  0  0  0  0  0  0  0  0  0  0  0
    3.3073    6.2748   11.4368 H   0  0  0  0  0  0  0  0  0  0  0  0
    1.9888    5.1867   10.9910 H   0  0  0  0  0  0  0  0  0  0  0  0
    1.6441    6.6557   11.8960 H   0  0  0  0  0  0  0  0  0  0  0  0
  1  4  1  0  0  0  0
  1  2  1  0  0  0  0
  3  1  1  0  0  0  0
  4  8  1  0  0  0  0
  5  9  1  0  0  0  0
  6  1  1  0  0  0  0
  7 36  1  0  0  0  0
  8 14  1  0  0  0  0
  9 10  1  0  0  0  0
  9  8  2  0  0  0  0
 10 12  2  0  0  0  0
 11 10  1  0  0  0  0
 12 13  1  0  0  0  0
 12 38  1  0  0  0  0
 13 42  1  0  0  0  0
 14 15  1  0  0  0  0
 14 13  2  0  0  0  0
 16  5  1  0  0  0  0
 16  4  1  0  0  0  0
 17  6  1  0  0  0  0
 17 16  2  0  0  0  0
 18 17  1  0  0  0  0
 19 18  1  0  0  0  0
 20 22  1  0  0  0  0
 20 18  2  0  0  0  0
 21 20  1  0  0  0  0
 22 24  2  0  0  0  0
 23 22  1  0  0  0  0
 24 25  1  0  0  0  0
 24  6  1  0  0  0  0
 26 29  1  0  0  0  0
 26 27  1  0  0  0  0
 26  5  1  0  0  0  0
 28 26  1  0  0  0  0
 29  7  2  0  0  0  0
 30 32  2  0  0  0  0
 30 29  1  0  0  0  0
 31 30  1  0  0  0  0
 32 34  1  0  0  0  0
 33 32  1  0  0  0  0
 34 35  1  0  0  0  0
 34 36  2  0  0  0  0
 36 37  1  0  0  0  0
 38 41  1  0  0  0  0
 38 40  1  0  0  0  0
 39 38  1  0  0  0  0
 42 43  1  0  0  0  0
 42 45  1  0  0  0  0
 44 42  1  0  0  0  0
M  END
$$$$
