CSD_code = TEBWON | q = 0 | S = 0 | Stoichiometry = C20H28Cl2I2N2Pd | MND = 4
 OpenBabel04212202103D

 55 56  0  0  0  0  0  0  0  0999 V2000
    8.7298    0.0001    0.0001 Pd  0  0  0  0  0  0  0  0  0  0  0  0
    2.9190   -1.5577   -0.2693 I   0  0  0  0  0  0  0  0  0  0  0  0
    7.4428   -0.4811    1.5600 N   0  0  0  0  0  4  0  0  0  0  0  0
    7.2567   -1.4606    1.3124 H   0  0  0  0  0  0  0  0  0  0  0  0
    7.9099   -0.4500    2.4695 H   0  0  0  0  0  0  0  0  0  0  0  0
    9.4774    1.9507    0.9699 Cl  0  0  0  0  0  0  0  0  0  0  0  0
    6.1679    0.2691    1.6105 C   0  0  0  0  0  0  0  0  0  0  0  0
    5.8113    0.6853    0.1791 C   0  0  0  0  0  0  0  0  0  0  0  0
    6.5647    1.3993   -0.1920 H   0  0  0  0  0  0  0  0  0  0  0  0
    4.8393    1.1728    0.1535 H   0  0  0  0  0  0  0  0  0  0  0  0
    5.7882   -0.1878   -0.4767 H   0  0  0  0  0  0  0  0  0  0  0  0
    6.3787    1.5094    2.4755 C   0  0  0  0  0  0  0  0  0  0  0  0
    6.5708    1.2377    3.5123 H   0  0  0  0  0  0  0  0  0  0  0  0
    5.5071    2.1564    2.4385 H   0  0  0  0  0  0  0  0  0  0  0  0
    7.2372    2.0658    2.1028 H   0  0  0  0  0  0  0  0  0  0  0  0
    5.0912   -0.6759    2.2083 C   0  0  0  0  0  0  0  0  0  0  0  0
    5.0391   -1.5698    1.5826 H   0  0  0  0  0  0  0  0  0  0  0  0
    5.4214   -0.9799    3.2061 H   0  0  0  0  0  0  0  0  0  0  0  0
    3.7266   -0.0621    2.3257 C   0  0  0  0  0  0  0  0  0  0  0  0
    2.7034   -0.2602    1.4034 C   0  0  0  0  0  0  0  0  0  0  0  0
    1.4704    0.3548    1.5478 C   0  0  0  0  0  0  0  0  0  0  0  0
    0.6958    0.1849    0.8159 H   0  0  0  0  0  0  0  0  0  0  0  0
    1.2273    1.1800    2.6295 C   0  0  0  0  0  0  0  0  0  0  0  0
    0.2658    1.6585    2.7338 H   0  0  0  0  0  0  0  0  0  0  0  0
    2.2168    1.3680    3.5783 C   0  0  0  0  0  0  0  0  0  0  0  0
    2.0348    1.9921    4.4399 H   0  0  0  0  0  0  0  0  0  0  0  0
    3.4415    0.7479    3.4236 C   0  0  0  0  0  0  0  0  0  0  0  0
    4.2012    0.8854    4.1778 H   0  0  0  0  0  0  0  0  0  0  0  0
   14.5406    1.5575    0.2695 I   0  0  0  0  0  0  0  0  0  0  0  0
   10.0167    0.4811   -1.5600 N   0  0  0  0  0  4  0  0  0  0  0  0
   10.2028    1.4606   -1.3122 H   0  0  0  0  0  0  0  0  0  0  0  0
    9.5496    0.4501   -2.4695 H   0  0  0  0  0  0  0  0  0  0  0  0
    7.9827   -1.9507   -0.9706 Cl  0  0  0  0  0  0  0  0  0  0  0  0
   11.2916   -0.2691   -1.6106 C   0  0  0  0  0  0  0  0  0  0  0  0
   11.6482   -0.6853   -0.1791 C   0  0  0  0  0  0  0  0  0  0  0  0
   10.8949   -1.3994    0.1919 H   0  0  0  0  0  0  0  0  0  0  0  0
   12.6203   -1.1729   -0.1535 H   0  0  0  0  0  0  0  0  0  0  0  0
   11.6713    0.1877    0.4767 H   0  0  0  0  0  0  0  0  0  0  0  0
   11.0808   -1.5093   -2.4756 C   0  0  0  0  0  0  0  0  0  0  0  0
   10.8888   -1.2375   -3.5124 H   0  0  0  0  0  0  0  0  0  0  0  0
   11.9524   -2.1563   -2.4386 H   0  0  0  0  0  0  0  0  0  0  0  0
   10.2222   -2.0657   -2.1030 H   0  0  0  0  0  0  0  0  0  0  0  0
   12.3685    0.6759   -2.2083 C   0  0  0  0  0  0  0  0  0  0  0  0
   12.4206    1.5697   -1.5824 H   0  0  0  0  0  0  0  0  0  0  0  0
   12.0383    0.9800   -3.2060 H   0  0  0  0  0  0  0  0  0  0  0  0
   13.7330    0.0620   -2.3256 C   0  0  0  0  0  0  0  0  0  0  0  0
   14.7563    0.2601   -1.4034 C   0  0  0  0  0  0  0  0  0  0  0  0
   15.9893   -0.3549   -1.5477 C   0  0  0  0  0  0  0  0  0  0  0  0
   16.7638   -0.1850   -0.8158 H   0  0  0  0  0  0  0  0  0  0  0  0
   16.2323   -1.1800   -2.6295 C   0  0  0  0  0  0  0  0  0  0  0  0
   17.1938   -1.6586   -2.7338 H   0  0  0  0  0  0  0  0  0  0  0  0
   15.2429   -1.3680   -3.5783 C   0  0  0  0  0  0  0  0  0  0  0  0
   15.4248   -1.9921   -4.4399 H   0  0  0  0  0  0  0  0  0  0  0  0
   14.0182   -0.7480   -3.4236 C   0  0  0  0  0  0  0  0  0  0  0  0
   13.2584   -0.8854   -4.1778 H   0  0  0  0  0  0  0  0  0  0  0  0
  1  6  1  0  0  0  0
  1  3  1  0  0  0  0
  2 20  1  0  0  0  0
  3  7  1  0  0  0  0
  3  5  1  0  0  0  0
  4  3  1  0  0  0  0
  7 16  1  0  0  0  0
  7 12  1  0  0  0  0
  8  7  1  0  0  0  0
  9  8  1  0  0  0  0
 10  8  1  0  0  0  0
 11  8  1  0  0  0  0
 12 13  1  0  0  0  0
 14 12  1  0  0  0  0
 15 12  1  0  0  0  0
 16 19  1  0  0  0  0
 16 18  1  0  0  0  0
 17 16  1  0  0  0  0
 19 27  1  0  0  0  0
 20 21  1  0  0  0  0
 20 19  2  0  0  0  0
 21 23  2  0  0  0  0
 22 21  1  0  0  0  0
 23 24  1  0  0  0  0
 23 25  1  0  0  0  0
 25 26  1  0  0  0  0
 27 25  2  0  0  0  0
 27 28  1  0  0  0  0
 30 31  1  0  0  0  0
 30  1  1  0  0  0  0
 32 30  1  0  0  0  0
 33  1  1  0  0  0  0
 34 30  1  0  0  0  0
 34 35  1  0  0  0  0
 35 37  1  0  0  0  0
 35 36  1  0  0  0  0
 35 38  1  0  0  0  0
 39 41  1  0  0  0  0
 39 42  1  0  0  0  0
 39 34  1  0  0  0  0
 40 39  1  0  0  0  0
 43 34  1  0  0  0  0
 43 44  1  0  0  0  0
 45 43  1  0  0  0  0
 46 43  1  0  0  0  0
 46 47  1  0  0  0  0
 47 29  1  0  0  0  0
 48 47  2  0  0  0  0
 48 49  1  0  0  0  0
 50 48  1  0  0  0  0
 51 50  1  0  0  0  0
 52 54  1  0  0  0  0
 52 50  2  0  0  0  0
 53 52  1  0  0  0  0
 54 46  2  0  0  0  0
 55 54  1  0  0  0  0
M  END
$$$$
