CSD_code = TEBYEH | q = 0 | S = 0 | Stoichiometry = C26H23ClN4Pd | MND = 4
 OpenBabel04212202103D

 55 60  0  0  1  0  0  0  0  0999 V2000
    0.9359    6.8501   10.2249 Pd  0  0  1  0  0  0  0  0  0  0  0  0
    0.6791    8.7296    8.9365 Cl  0  0  0  0  0  0  0  0  0  0  0  0
    0.4407    5.4589    8.8616 N   0  0  0  0  0  0  0  0  0  0  0  0
    1.2930    4.2195   11.4011 N   0  0  0  0  0  0  0  0  0  0  0  0
    1.1306    5.4720   11.5560 N   0  0  0  0  0  0  0  0  0  0  0  0
    1.3615    8.1635   11.8631 N   0  0  0  0  0  4  0  0  0  0  0  0
    0.7732    9.0021   11.8733 H   0  0  0  0  0  0  0  0  0  0  0  0
    0.8430    4.2025    8.9567 C   0  0  2  0  0  3  0  0  0  0  0  0
    0.8143    3.3066    7.8432 C   0  0  0  0  0  0  0  0  0  0  0  0
    0.5190    3.6928    6.8812 H   0  0  0  0  0  0  0  0  0  0  0  0
    1.2102    2.0074    7.9349 C   0  0  0  0  0  0  0  0  0  0  0  0
    1.1965    1.3849    7.0518 H   0  0  0  0  0  0  0  0  0  0  0  0
    1.6420    1.4602    9.1574 C   0  0  0  0  0  0  0  0  0  0  0  0
    1.9488    0.4273    9.2080 H   0  0  0  0  0  0  0  0  0  0  0  0
    1.6621    2.2537   10.2617 C   0  0  0  0  0  0  0  0  0  0  0  0
    1.9819    1.8771   11.2213 H   0  0  0  0  0  0  0  0  0  0  0  0
    1.2813    3.6186   10.2157 C   0  0  0  0  0  0  0  0  0  0  0  0
    1.0838    5.9579   12.8546 C   0  0  0  0  0  0  0  0  0  0  0  0
    0.9671    5.1337   13.9777 C   0  0  0  0  0  0  0  0  0  0  0  0
    0.9417    4.0655   13.8312 H   0  0  0  0  0  0  0  0  0  0  0  0
    0.8654    5.6923   15.2353 C   0  0  0  0  0  0  0  0  0  0  0  0
    0.7642    5.0510   16.0976 H   0  0  0  0  0  0  0  0  0  0  0  0
    0.8778    7.0697   15.3999 C   0  0  0  0  0  0  0  0  0  0  0  0
    0.7802    7.5001   16.3845 H   0  0  0  0  0  0  0  0  0  0  0  0
    1.0216    7.8975   14.2972 C   0  0  0  0  0  0  0  0  0  0  0  0
    1.0419    8.9715   14.4225 H   0  0  0  0  0  0  0  0  0  0  0  0
    1.1291    7.3524   13.0299 C   0  0  0  0  0  0  0  0  0  0  0  0
   -0.2409    5.9021    7.6589 C   0  0  0  0  0  0  0  0  0  0  0  0
   -0.7270    6.8601    7.8868 H   0  0  0  0  0  0  0  0  0  0  0  0
   -1.0299    5.1840    7.3926 H   0  0  0  0  0  0  0  0  0  0  0  0
    0.6759    6.1220    6.4771 C   0  0  0  0  0  0  0  0  0  0  0  0
    0.1683    6.1019    5.1845 C   0  0  0  0  0  0  0  0  0  0  0  0
   -0.8832    5.9064    5.0252 H   0  0  0  0  0  0  0  0  0  0  0  0
    0.9998    6.3346    4.1040 C   0  0  0  0  0  0  0  0  0  0  0  0
    0.5954    6.3173    3.1023 H   0  0  0  0  0  0  0  0  0  0  0  0
    2.3459    6.5900    4.3041 C   0  0  0  0  0  0  0  0  0  0  0  0
    2.9935    6.7729    3.4592 H   0  0  0  0  0  0  0  0  0  0  0  0
    2.8565    6.6137    5.5906 C   0  0  0  0  0  0  0  0  0  0  0  0
    3.9050    6.8184    5.7521 H   0  0  0  0  0  0  0  0  0  0  0  0
    2.0253    6.3798    6.6707 C   0  0  0  0  0  0  0  0  0  0  0  0
    2.4146    6.4012    7.6821 H   0  0  0  0  0  0  0  0  0  0  0  0
    2.7822    8.5848   11.7796 C   0  0  0  0  0  0  0  0  0  0  0  0
    3.1014    9.0523   12.7211 H   0  0  0  0  0  0  0  0  0  0  0  0
    2.8658    9.3072   10.9617 H   0  0  0  0  0  0  0  0  0  0  0  0
    3.5991    7.3520   11.4847 C   0  0  0  0  0  0  0  0  0  0  0  0
    4.0875    6.5521   12.5077 C   0  0  0  0  0  0  0  0  0  0  0  0
    3.9958    6.8750   13.5355 H   0  0  0  0  0  0  0  0  0  0  0  0
    4.6760    5.3304   12.2180 C   0  0  0  0  0  0  0  0  0  0  0  0
    5.0414    4.7096   13.0221 H   0  0  0  0  0  0  0  0  0  0  0  0
    4.7754    4.9006   10.9076 C   0  0  0  0  0  0  0  0  0  0  0  0
    5.2122    3.9387   10.6857 H   0  0  0  0  0  0  0  0  0  0  0  0
    4.3235    5.7089    9.8742 C   0  0  0  0  0  0  0  0  0  0  0  0
    4.4365    5.3838    8.8499 H   0  0  0  0  0  0  0  0  0  0  0  0
    3.7347    6.9332   10.1563 C   0  0  0  0  0  0  0  0  0  0  0  0
    3.4451    7.6099    9.3517 H   0  0  0  0  0  0  0  0  0  0  0  0
  1  2  1  6  0  0  0
  1  5  1  0  0  0  0
  1  6  1  0  0  0  0
  3  8  1  0  0  0  0
  3  1  1  0  0  0  0
  4  5  1  0  0  0  0
  5 18  1  0  0  0  0
  6  7  1  0  0  0  0
  6 27  1  0  0  0  0
  8  9  1  1  0  0  0
  8 17  1  0  0  0  0
  9 11  2  0  0  0  0
 10  9  1  0  0  0  0
 11 13  1  0  0  0  0
 12 11  1  0  0  0  0
 13 14  1  0  0  0  0
 13 15  2  0  0  0  0
 15 16  1  0  0  0  0
 17 15  1  0  0  0  0
 17  4  2  0  0  0  0
 18 27  2  0  0  0  0
 18 19  1  0  0  0  0
 19 21  2  0  0  0  0
 20 19  1  0  0  0  0
 21 23  1  0  0  0  0
 21 22  1  0  0  0  0
 23 24  1  0  0  0  0
 25 26  1  0  0  0  0
 25 23  2  0  0  0  0
 27 25  1  0  0  0  0
 28 29  1  0  0  0  0
 28  3  1  0  0  0  0
 30 28  1  0  0  0  0
 31 40  1  0  0  0  0
 31 28  1  0  0  0  0
 32 31  2  0  0  0  0
 33 32  1  0  0  0  0
 34 36  2  0  0  0  0
 34 32  1  0  0  0  0
 35 34  1  0  0  0  0
 36 38  1  0  0  0  0
 37 36  1  0  0  0  0
 38 39  1  0  0  0  0
 38 40  2  0  0  0  0
 40 41  1  0  0  0  0
 42  6  1  0  0  0  0
 42 43  1  0  0  0  0
 44 42  1  0  0  0  0
 45 42  1  0  0  0  0
 45 46  1  0  0  0  0
 46 47  1  0  0  0  0
 48 46  2  0  0  0  0
 48 49  1  0  0  0  0
 50 48  1  0  0  0  0
 51 50  1  0  0  0  0
 52 54  1  0  0  0  0
 52 50  2  0  0  0  0
 53 52  1  0  0  0  0
 54 45  2  0  0  0  0
 55 54  1  0  0  0  0
M  END
$$$$
