CSD_code = TECMAR | q = 0 | S = 0 | Stoichiometry = C23H21ClNPPdS | MND = 4
 OpenBabel04212202103D

 49 54  0  0  1  0  0  0  0  0999 V2000
    1.1505   10.5441    3.1219 Pd  0  0  2  0  0  0  0  0  0  0  0  0
   -0.6280   10.0482    1.7693 Cl  0  0  0  0  0  0  0  0  0  0  0  0
    1.3711    8.3230    4.0833 S   0  0  0  0  0  0  0  0  0  0  0  0
    3.2193    8.6505    3.4505 P   0  0  0  0  0  4  0  0  0  0  0  0
    0.9400   12.6044    3.1578 N   0  0  2  0  0  0  0  0  0  0  0  0
    3.0008   12.4769    4.2024 C   0  0  0  0  0  0  0  0  0  0  0  0
    2.8011   11.1049    3.9859 C   0  0  0  0  0  0  0  0  0  0  0  0
    3.8679   10.2187    4.1043 C   0  0  0  0  0  0  0  0  0  0  0  0
    5.1077   10.6393    4.5623 C   0  0  0  0  0  0  0  0  0  0  0  0
    5.9360    9.9514    4.6596 H   0  0  0  0  0  0  0  0  0  0  0  0
    5.2583   11.9830    4.8863 C   0  0  0  0  0  0  0  0  0  0  0  0
    6.2090   12.3269    5.2665 H   0  0  0  0  0  0  0  0  0  0  0  0
    4.2373   12.9026    4.6857 C   0  0  0  0  0  0  0  0  0  0  0  0
    4.4202   13.9492    4.8850 H   0  0  0  0  0  0  0  0  0  0  0  0
    1.8453   13.2676    3.7959 C   0  0  1  0  0  3  0  0  0  0  0  0
   -0.2906   13.2035    2.7020 C   0  0  0  0  0  0  0  0  0  0  0  0
   -1.0829   12.8784    3.3924 H   0  0  0  0  0  0  0  0  0  0  0  0
   -0.5281   12.7617    1.7270 H   0  0  0  0  0  0  0  0  0  0  0  0
   -0.2339   14.7269    2.6310 C   0  0  0  0  0  0  0  0  0  0  0  0
    0.4040   15.0325    1.7986 H   0  0  0  0  0  0  0  0  0  0  0  0
   -1.2357   15.1173    2.4531 H   0  0  0  0  0  0  0  0  0  0  0  0
    0.3388   15.2641    3.9372 C   0  0  0  0  0  0  0  0  0  0  0  0
   -0.2767   14.9211    4.7714 H   0  0  0  0  0  0  0  0  0  0  0  0
    0.3400   16.3552    3.9446 H   0  0  0  0  0  0  0  0  0  0  0  0
    1.7611   14.7359    4.0993 C   0  0  0  0  0  0  0  0  0  0  0  0
    2.4367   15.2604    3.4151 H   0  0  0  0  0  0  0  0  0  0  0  0
    2.1270   14.9087    5.1138 H   0  0  0  0  0  0  0  0  0  0  0  0
    3.1592    8.7758    1.6232 C   0  0  0  0  0  0  0  0  0  0  0  0
    3.0311    9.9957    0.9557 C   0  0  0  0  0  0  0  0  0  0  0  0
    3.2091   10.9420    1.4732 H   0  0  0  0  0  0  0  0  0  0  0  0
    2.7422    9.9969   -0.3992 C   0  0  0  0  0  0  0  0  0  0  0  0
    2.6366   10.9366   -0.9207 H   0  0  0  0  0  0  0  0  0  0  0  0
    2.5775    8.8015   -1.0828 C   0  0  0  0  0  0  0  0  0  0  0  0
    2.3305    8.8140   -2.1335 H   0  0  0  0  0  0  0  0  0  0  0  0
    2.7197    7.5941   -0.4206 C   0  0  0  0  0  0  0  0  0  0  0  0
    2.5893    6.6634   -0.9521 H   0  0  0  0  0  0  0  0  0  0  0  0
    3.0029    7.5791    0.9338 C   0  0  0  0  0  0  0  0  0  0  0  0
    3.0863    6.6426    1.4714 H   0  0  0  0  0  0  0  0  0  0  0  0
    4.3505    7.2909    3.8357 C   0  0  0  0  0  0  0  0  0  0  0  0
    3.9714    6.3053    4.7361 C   0  0  0  0  0  0  0  0  0  0  0  0
    2.9783    6.3385    5.1637 H   0  0  0  0  0  0  0  0  0  0  0  0
    4.8633    5.2980    5.0591 C   0  0  0  0  0  0  0  0  0  0  0  0
    4.5743    4.5249    5.7551 H   0  0  0  0  0  0  0  0  0  0  0  0
    6.1263    5.2830    4.4892 C   0  0  0  0  0  0  0  0  0  0  0  0
    6.8217    4.4969    4.7434 H   0  0  0  0  0  0  0  0  0  0  0  0
    6.5036    6.2712    3.5919 C   0  0  0  0  0  0  0  0  0  0  0  0
    7.4889    6.2528    3.1499 H   0  0  0  0  0  0  0  0  0  0  0  0
    5.6174    7.2794    3.2625 C   0  0  0  0  0  0  0  0  0  0  0  0
    5.8908    8.0540    2.5578 H   0  0  0  0  0  0  0  0  0  0  0  0
  1  2  1  6  0  0  0
  1  5  1  0  0  0  0
  1  7  1  0  0  0  0
  1  3  1  0  0  0  0
  4 39  1  0  0  0  0
  4  3  1  0  0  0  0
  4  8  1  0  0  0  0
  5 16  1  1  0  0  0
  5 15  1  0  0  0  0
  6 13  1  0  0  0  0
  7  8  1  0  0  0  0
  7  6  2  0  0  0  0
  8  9  2  0  0  0  0
  9 10  1  0  0  0  0
  9 11  1  0  0  0  0
 11 12  1  0  0  0  0
 13 14  1  0  0  0  0
 13 11  2  0  0  0  0
 15 25  1  0  0  0  0
 15  6  1  6  0  0  0
 16 17  1  0  0  0  0
 18 16  1  0  0  0  0
 19 16  1  0  0  0  0
 19 22  1  0  0  0  0
 20 19  1  0  0  0  0
 21 19  1  0  0  0  0
 22 24  1  0  0  0  0
 22 25  1  0  0  0  0
 22 23  1  0  0  0  0
 25 27  1  0  0  0  0
 26 25  1  0  0  0  0
 28  4  1  0  0  0  0
 29 30  1  0  0  0  0
 29 28  1  0  0  0  0
 31 29  2  0  0  0  0
 32 31  1  0  0  0  0
 33 35  2  0  0  0  0
 33 31  1  0  0  0  0
 34 33  1  0  0  0  0
 35 37  1  0  0  0  0
 36 35  1  0  0  0  0
 37 38  1  0  0  0  0
 37 28  2  0  0  0  0
 39 40  1  0  0  0  0
 40 42  2  0  0  0  0
 40 41  1  0  0  0  0
 42 43  1  0  0  0  0
 44 45  1  0  0  0  0
 44 42  1  0  0  0  0
 46 44  2  0  0  0  0
 47 46  1  0  0  0  0
 48 46  1  0  0  0  0
 48 39  2  0  0  0  0
 49 48  1  0  0  0  0
M  END
$$$$
