CSD_code = TECWAA | q = 0 | S = 0 | Stoichiometry = C6H10Cl2N2Pt | MND = 4
 OpenBabel04212202103D

 21 21  0  0  0  0  0  0  0  0999 V2000
   -4.2116    4.0653   -0.4383 Pt  0  0  0  0  0  0  0  0  0  0  0  0
   -6.4681    4.0926   -0.9090 Cl  0  0  0  0  0  0  0  0  0  0  0  0
   -1.9597    3.9247    0.0436 Cl  0  0  0  0  0  0  0  0  0  0  0  0
   -4.3171    2.0144   -0.1818 N   0  0  0  0  0  4  0  0  0  0  0  0
   -3.3744    1.6598   -0.0050 H   0  0  0  0  0  0  0  0  0  0  0  0
   -4.7032    1.5730   -1.0175 H   0  0  0  0  0  0  0  0  0  0  0  0
   -4.9238    1.7873    0.6072 H   0  0  0  0  0  0  0  0  0  0  0  0
   -4.0992    5.9773   -0.6814 N   0  0  0  0  0  0  0  0  0  0  0  0
   -4.7655    6.8000    0.1321 C   0  0  0  0  0  3  0  0  0  0  0  0
   -5.3542    6.3310    0.9132 H   0  0  0  0  0  0  0  0  0  0  0  0
   -4.7369    8.1803    0.0007 C   0  0  0  0  0  0  0  0  0  0  0  0
   -3.9722    8.7158   -1.0334 C   0  0  0  0  0  0  0  0  0  0  0  0
   -3.9233    9.7853   -1.1732 H   0  0  0  0  0  0  0  0  0  0  0  0
   -3.2820    7.8606   -1.8747 C   0  0  0  0  0  0  0  0  0  0  0  0
   -2.6816    8.2441   -2.6840 H   0  0  0  0  0  0  0  0  0  0  0  0
   -3.3675    6.4958   -1.6695 C   0  0  0  0  0  0  0  0  0  0  0  0
   -2.8349    5.7948   -2.3012 H   0  0  0  0  0  0  0  0  0  0  0  0
   -5.4964    9.0606    0.9391 C   0  0  0  0  0  0  0  0  0  0  0  0
   -4.8048    9.6321    1.5567 H   0  0  0  0  0  0  0  0  0  0  0  0
   -6.1391    8.4736    1.5885 H   0  0  0  0  0  0  0  0  0  0  0  0
   -6.1079    9.7677    0.3822 H   0  0  0  0  0  0  0  0  0  0  0  0
  1  4  1  0  0  0  0
  1  3  1  0  0  0  0
  2  1  1  0  0  0  0
  4  5  1  0  0  0  0
  4  7  1  0  0  0  0
  6  4  1  0  0  0  0
  8  1  1  0  0  0  0
  8  9  1  0  0  0  0
  9 10  1  0  0  0  0
 11  9  1  0  0  0  0
 11 18  1  0  0  0  0
 12 11  2  0  0  0  0
 13 12  1  0  0  0  0
 14 16  2  0  0  0  0
 14 12  1  0  0  0  0
 15 14  1  0  0  0  0
 16  8  1  0  0  0  0
 17 16  1  0  0  0  0
 18 19  1  0  0  0  0
 18 20  1  0  0  0  0
 21 18  1  0  0  0  0
M  END
$$$$
