CSD_code = TECWEE | q = 0 | S = 0 | Stoichiometry = C6H10Cl2N2Pt | MND = 4
 OpenBabel04212202103D

 21 21  0  0  1  0  0  0  0  0999 V2000
    9.6607    8.1485    1.4138 Pt  0  0  0  0  0  0  0  0  0  0  0  0
    9.7778    6.9503    3.3902 Cl  0  0  0  0  0  0  0  0  0  0  0  0
    9.4396    9.3293   -0.5667 Cl  0  0  0  0  0  0  0  0  0  0  0  0
   11.5796    8.4454    1.4345 N   0  0  0  0  0  0  0  0  0  0  0  0
   12.1079    9.5010    2.0691 C   0  0  2  0  0  3  0  0  0  0  0  0
   13.4810    9.7088    2.0740 C   0  0  0  0  0  0  0  0  0  0  0  0
   13.8855   10.5648    2.5908 H   0  0  0  0  0  0  0  0  0  0  0  0
   14.3155    8.8207    1.4180 C   0  0  0  0  0  0  0  0  0  0  0  0
   15.3838    8.9719    1.4131 H   0  0  0  0  0  0  0  0  0  0  0  0
   13.7492    7.7340    0.7677 C   0  0  0  0  0  0  0  0  0  0  0  0
   14.3583    7.0160    0.2434 H   0  0  0  0  0  0  0  0  0  0  0  0
   12.3771    7.5838    0.8013 C   0  0  0  0  0  0  0  0  0  0  0  0
   11.8903    6.7501    0.3063 H   0  0  0  0  0  0  0  0  0  0  0  0
   11.1530   10.4177    2.7566 C   0  0  0  0  0  0  0  0  0  0  0  0
   10.4192   10.7872    2.0350 H   0  0  0  0  0  0  0  0  0  0  0  0
   11.6678   11.2606    3.2087 H   0  0  0  0  0  0  0  0  0  0  0  0
   10.6170    9.8651    3.5324 H   0  0  0  0  0  0  0  0  0  0  0  0
    7.6174    7.8144    1.3585 N   0  0  0  0  0  4  0  0  0  0  0  0
    7.4218    6.8138    1.4150 H   0  0  0  0  0  0  0  0  0  0  0  0
    7.2546    8.1914    0.4796 H   0  0  0  0  0  0  0  0  0  0  0  0
    7.1566    8.2748    2.1452 H   0  0  0  0  0  0  0  0  0  0  0  0
  1  4  1  0  0  0  0
  1  2  1  0  0  0  0
  3  1  1  0  0  0  0
  4  5  1  0  0  0  0
  5  6  1  0  0  0  0
  5 14  1  1  0  0  0
  6  7  1  0  0  0  0
  8  6  2  0  0  0  0
  9  8  1  0  0  0  0
 10 12  2  0  0  0  0
 10  8  1  0  0  0  0
 11 10  1  0  0  0  0
 12  4  1  0  0  0  0
 13 12  1  0  0  0  0
 14 16  1  0  0  0  0
 14 17  1  0  0  0  0
 15 14  1  0  0  0  0
 18  1  1  0  0  0  0
 18 19  1  0  0  0  0
 18 21  1  0  0  0  0
 20 18  1  0  0  0  0
M  END
$$$$
