CSD_code = TEDJAN | q = 0 | S = 0 | Stoichiometry = C10H14Cl2CrN2O2 | MND = 6
 OpenBabel04212202103D

 31 30  0  0  0  0  0  0  0  0999 V2000
   -0.0000   -0.0002    0.0001 Cr  0  0  0  0  0  0  0  0  0  0  0  0
   -1.5790    1.6600   -0.3503 Cl  0  0  0  0  0  0  0  0  0  0  0  0
    1.2082    1.9164    0.2523 O   0  0  0  0  0  0  0  0  0  0  0  0
   -0.4087    0.0187    1.9248 N   0  0  0  0  0  0  0  0  0  0  0  0
   -1.6689    0.0198    2.3851 C   0  0  0  0  0  3  0  0  0  0  0  0
   -1.9921    0.0482    3.7265 C   0  0  0  0  0  0  0  0  0  0  0  0
   -0.9737    0.0729    4.6687 C   0  0  0  0  0  0  0  0  0  0  0  0
    0.3343    0.0771    4.2022 C   0  0  0  0  0  0  0  0  0  0  0  0
    0.5679    0.0535    2.8429 C   0  0  0  0  0  0  0  0  0  0  0  0
    1.7574    2.1811   -0.4956 H   0  0  0  0  0  0  0  0  0  0  0  0
    0.3918    2.4531    0.1965 H   0  0  0  0  0  0  0  0  0  0  0  0
   -2.4461    0.0216    1.6321 H   0  0  0  0  0  0  0  0  0  0  0  0
   -3.0284    0.0515    4.0262 H   0  0  0  0  0  0  0  0  0  0  0  0
   -1.1906    0.0931    5.7251 H   0  0  0  0  0  0  0  0  0  0  0  0
    1.1677    0.1018    4.8864 H   0  0  0  0  0  0  0  0  0  0  0  0
    1.5768    0.0576    2.4546 H   0  0  0  0  0  0  0  0  0  0  0  0
    1.5793   -1.6606    0.3482 Cl  0  0  0  0  0  0  0  0  0  0  0  0
   -1.2080   -1.9169   -0.2523 O   0  0  0  0  0  0  0  0  0  0  0  0
   -1.7576   -2.1813    0.4951 H   0  0  0  0  0  0  0  0  0  0  0  0
   -0.3917   -2.4534   -0.1957 H   0  0  0  0  0  0  0  0  0  0  0  0
    0.4086   -0.0184   -1.9246 N   0  0  0  0  0  0  0  0  0  0  0  0
    1.6688   -0.0195   -2.3850 C   0  0  0  0  0  3  0  0  0  0  0  0
    1.9921   -0.0478   -3.7263 C   0  0  0  0  0  0  0  0  0  0  0  0
    0.9737   -0.0726   -4.6686 C   0  0  0  0  0  0  0  0  0  0  0  0
   -0.3343   -0.0771   -4.2020 C   0  0  0  0  0  0  0  0  0  0  0  0
   -0.5679   -0.0535   -2.8427 C   0  0  0  0  0  0  0  0  0  0  0  0
   -1.5768   -0.0579   -2.4544 H   0  0  0  0  0  0  0  0  0  0  0  0
   -1.1677   -0.1020   -4.8862 H   0  0  0  0  0  0  0  0  0  0  0  0
    1.1906   -0.0927   -5.7250 H   0  0  0  0  0  0  0  0  0  0  0  0
    3.0284   -0.0510   -4.0261 H   0  0  0  0  0  0  0  0  0  0  0  0
    2.4461   -0.0214   -1.6320 H   0  0  0  0  0  0  0  0  0  0  0  0
  1 17  1  0  0  0  0
  1  4  1  0  0  0  0
  2  1  1  0  0  0  0
  4  5  1  0  0  0  0
  4  9  1  0  0  0  0
  5  6  1  0  0  0  0
  6 13  1  0  0  0  0
  6  7  2  0  0  0  0
  7 14  1  0  0  0  0
  8  7  1  0  0  0  0
  8 15  1  0  0  0  0
  9  8  2  0  0  0  0
 10  3  1  0  0  0  0
 11  3  1  0  0  0  0
 12  5  1  0  0  0  0
 16  9  1  0  0  0  0
 18 20  1  0  0  0  0
 18 19  1  0  0  0  0
 21  1  1  0  0  0  0
 22 21  1  0  0  0  0
 22 31  1  0  0  0  0
 23 22  1  0  0  0  0
 24 25  1  0  0  0  0
 24 23  2  0  0  0  0
 25 26  2  0  0  0  0
 26 27  1  0  0  0  0
 26 21  1  0  0  0  0
 28 25  1  0  0  0  0
 29 24  1  0  0  0  0
 30 23  1  0  0  0  0
M  END
$$$$
