CSD_code = TEGFUJ | q = 0 | S = 0 | Stoichiometry = C25H30Cl2NPPd | MND = 4
 OpenBabel04212202103D

 60 63  0  0  1  0  0  0  0  0999 V2000
    0.1755    0.6412    2.5659 C   0  0  2  0  0  0  0  0  0  0  0  0
   -0.0176    0.9860    1.5385 H   0  0  0  0  0  0  0  0  0  0  0  0
   -1.1329    0.0956    3.1503 C   0  0  0  0  0  0  0  0  0  0  0  0
   -0.9715   -0.1981    4.1897 H   0  0  0  0  0  0  0  0  0  0  0  0
   -1.3843   -0.8167    2.6009 H   0  0  0  0  0  0  0  0  0  0  0  0
   -2.3712    1.0108    3.0779 C   0  0  2  0  0  0  0  0  0  0  0  0
   -3.2278    0.3871    3.3875 H   0  0  0  0  0  0  0  0  0  0  0  0
    1.2364   -0.4559    2.4770 C   0  0  0  0  0  0  0  0  0  0  0  0
    1.3260   -1.0099    3.4071 H   0  0  0  0  0  0  0  0  0  0  0  0
    2.2086   -0.0329    2.2315 H   0  0  0  0  0  0  0  0  0  0  0  0
    0.9671   -1.1663    1.6967 H   0  0  0  0  0  0  0  0  0  0  0  0
    2.2580    2.5661    2.4799 C   0  0  0  0  0  0  0  0  0  0  0  0
    3.5273    2.3586    3.0055 C   0  0  0  0  0  0  0  0  0  0  0  0
    3.6412    1.9735    4.0096 H   0  0  0  0  0  0  0  0  0  0  0  0
    4.6413    2.6554    2.2396 C   0  0  0  0  0  0  0  0  0  0  0  0
    5.6291    2.4979    2.6474 H   0  0  0  0  0  0  0  0  0  0  0  0
    4.4920    3.1588    0.9581 C   0  0  0  0  0  0  0  0  0  0  0  0
    5.3654    3.3947    0.3683 H   0  0  0  0  0  0  0  0  0  0  0  0
    3.2257    3.3739    0.4356 C   0  0  0  0  0  0  0  0  0  0  0  0
    3.1125    3.7815   -0.5577 H   0  0  0  0  0  0  0  0  0  0  0  0
    2.1098    3.0815    1.1947 C   0  0  0  0  0  0  0  0  0  0  0  0
    1.1125    3.2805    0.8160 H   0  0  0  0  0  0  0  0  0  0  0  0
    1.2694    1.9666    5.1075 C   0  0  0  0  0  0  0  0  0  0  0  0
    1.4803    0.7665    5.7748 C   0  0  0  0  0  0  0  0  0  0  0  0
    1.3698   -0.1760    5.2622 H   0  0  0  0  0  0  0  0  0  0  0  0
    1.8344    0.7732    7.1143 C   0  0  0  0  0  0  0  0  0  0  0  0
    1.9950   -0.1639    7.6276 H   0  0  0  0  0  0  0  0  0  0  0  0
    1.9837    1.9696    7.7941 C   0  0  0  0  0  0  0  0  0  0  0  0
    2.2603    1.9651    8.8378 H   0  0  0  0  0  0  0  0  0  0  0  0
    1.7732    3.1720    7.1353 C   0  0  0  0  0  0  0  0  0  0  0  0
    1.8849    4.1063    7.6647 H   0  0  0  0  0  0  0  0  0  0  0  0
    1.4093    3.1711    5.8030 C   0  0  0  0  0  0  0  0  0  0  0  0
    1.2298    4.1065    5.2743 H   0  0  0  0  0  0  0  0  0  0  0  0
   -2.6351    1.5311    1.6624 C   0  0  0  0  0  0  0  0  0  0  0  0
   -3.6476    1.9246    1.5932 H   0  0  0  0  0  0  0  0  0  0  0  0
   -2.5226    0.7380    0.9277 H   0  0  0  0  0  0  0  0  0  0  0  0
   -1.9397    2.3534    1.4188 H   0  0  0  0  0  0  0  0  0  0  0  0
   -2.2794    1.9059    5.4080 C   0  0  2  0  0  0  0  0  0  0  0  0
   -1.3827    1.3187    5.6489 H   0  0  0  0  0  0  0  0  0  0  0  0
   -3.5081    1.1341    5.8392 C   0  0  0  0  0  0  0  0  0  0  0  0
   -3.3830   -0.0447    6.5613 C   0  0  0  0  0  0  0  0  0  0  0  0
   -2.3981   -0.4117    6.8165 H   0  0  0  0  0  0  0  0  0  0  0  0
   -4.5055   -0.7481    6.9626 C   0  0  0  0  0  0  0  0  0  0  0  0
   -4.3935   -1.6625    7.5263 H   0  0  0  0  0  0  0  0  0  0  0  0
   -5.7675   -0.2810    6.6400 C   0  0  0  0  0  0  0  0  0  0  0  0
   -6.6441   -0.8296    6.9502 H   0  0  0  0  0  0  0  0  0  0  0  0
   -5.9018    0.8945    5.9200 C   0  0  0  0  0  0  0  0  0  0  0  0
   -6.8843    1.2652    5.6685 H   0  0  0  0  0  0  0  0  0  0  0  0
   -4.7802    1.5991    5.5230 C   0  0  0  0  0  0  0  0  0  0  0  0
   -4.8999    2.5192    4.9687 H   0  0  0  0  0  0  0  0  0  0  0  0
   -2.1990    3.2376    6.1618 C   0  0  0  0  0  0  0  0  0  0  0  0
   -3.1038    3.8208    5.9990 H   0  0  0  0  0  0  0  0  0  0  0  0
   -1.3366    3.8285    5.8095 H   0  0  0  0  0  0  0  0  0  0  0  0
   -2.0852    3.0553    7.2280 H   0  0  0  0  0  0  0  0  0  0  0  0
   -2.2857    2.1741    3.9645 N   0  0  0  0  0  4  0  0  0  0  0  0
   -3.0911    2.7876    3.7674 H   0  0  0  0  0  0  0  0  0  0  0  0
    0.7306    2.2186    3.3889 P   0  0  0  0  0  4  0  0  0  0  0  0
   -2.8177    4.9862    3.2158 Cl  0  0  0  0  0  0  0  0  0  0  0  0
    0.4084    5.3799    2.7663 Cl  0  0  0  0  0  0  0  0  0  0  0  0
   -0.9446    3.6787    3.3443 Pd  0  0  0  0  0  0  0  0  0  0  0  0
  1  2  1  6  0  0  0
  1  3  1  0  0  0  0
  1 57  1  0  0  0  0
  3  4  1  0  0  0  0
  5  3  1  0  0  0  0
  6  3  1  0  0  0  0
  6  7  1  1  0  0  0
  6 55  1  0  0  0  0
  8  1  1  0  0  0  0
  8  9  1  0  0  0  0
 10  8  1  0  0  0  0
 11  8  1  0  0  0  0
 12 13  1  0  0  0  0
 12 57  1  0  0  0  0
 13 14  1  0  0  0  0
 15 16  1  0  0  0  0
 15 13  2  0  0  0  0
 17 15  1  0  0  0  0
 18 17  1  0  0  0  0
 19 17  2  0  0  0  0
 19 21  1  0  0  0  0
 20 19  1  0  0  0  0
 21 12  2  0  0  0  0
 22 21  1  0  0  0  0
 23 24  2  0  0  0  0
 23 32  1  0  0  0  0
 24 26  1  0  0  0  0
 25 24  1  0  0  0  0
 26 27  1  0  0  0  0
 26 28  2  0  0  0  0
 28 29  1  0  0  0  0
 30 31  1  0  0  0  0
 30 28  1  0  0  0  0
 32 30  2  0  0  0  0
 33 32  1  0  0  0  0
 34  6  1  0  0  0  0
 35 34  1  0  0  0  0
 36 34  1  0  0  0  0
 37 34  1  0  0  0  0
 38 39  1  1  0  0  0
 38 40  1  0  0  0  0
 38 51  1  0  0  0  0
 40 41  1  0  0  0  0
 41 42  1  0  0  0  0
 41 43  2  0  0  0  0
 43 44  1  0  0  0  0
 45 46  1  0  0  0  0
 45 43  1  0  0  0  0
 47 45  2  0  0  0  0
 48 47  1  0  0  0  0
 49 40  2  0  0  0  0
 49 47  1  0  0  0  0
 50 49  1  0  0  0  0
 51 54  1  0  0  0  0
 52 51  1  0  0  0  0
 53 51  1  0  0  0  0
 55 38  1  0  0  0  0
 56 55  1  0  0  0  0
 57 23  1  0  0  0  0
 58 60  1  0  0  0  0
 59 60  1  0  0  0  0
 60 57  1  0  0  0  0
 60 55  1  0  0  0  0
M  END
$$$$
