CSD_code = TEGHOE | q = 0 | S = 0 | Stoichiometry = C26H18ClN4O3Re | MND = 6
 OpenBabel04212202103D

 53 60  0  0  1  0  0  0  0  0999 V2000
   10.5349    4.1067    3.1795 Re  0  0  0  0  0  0  0  0  0  0  0  0
   12.1395    4.4468    2.9310 O   0  0  0  0  0  1  0  0  0  0  0  0
   10.3756    4.4263    5.2164 O   0  0  0  0  0  0  0  0  0  0  0  0
    8.6114    4.0352    3.2273 O   0  0  0  0  0  0  0  0  0  0  0  0
   10.0704    6.2141    2.9628 N   0  0  0  0  0  0  0  0  0  0  0  0
    9.0743    8.1346    3.3814 N   0  0  0  0  0  0  0  0  0  0  0  0
    8.6064    8.8652    3.8892 H   0  0  0  0  0  0  0  0  0  0  0  0
   10.1559    3.6103    1.1269 N   0  0  0  0  0  0  0  0  0  0  0  0
    9.1203    3.3439   -0.8065 N   0  0  0  0  0  0  0  0  0  0  0  0
    8.3742    3.3258   -1.4808 H   0  0  0  0  0  0  0  0  0  0  0  0
   10.6755    1.8747    3.5753 Cl  0  0  0  0  0  0  0  0  0  0  0  0
   10.2003    7.0023    1.8511 C   0  0  0  0  0  0  0  0  0  0  0  0
    9.5614    8.2324    2.1025 C   0  0  0  0  0  0  0  0  0  0  0  0
    9.5167    9.2402    1.1542 C   0  0  0  0  0  0  0  0  0  0  0  0
    9.0275   10.1811    1.3534 H   0  0  0  0  0  0  0  0  0  0  0  0
   10.1370    8.9879   -0.0548 C   0  0  0  0  0  0  0  0  0  0  0  0
   10.1265    9.7475   -0.8216 H   0  0  0  0  0  0  0  0  0  0  0  0
   10.7923    7.7805   -0.3022 C   0  0  0  0  0  0  0  0  0  0  0  0
   11.2811    7.6387   -1.2542 H   0  0  0  0  0  0  0  0  0  0  0  0
   10.8420    6.7730    0.6401 C   0  0  0  0  0  0  0  0  0  0  0  0
   11.3754    5.8511    0.4731 H   0  0  0  0  0  0  0  0  0  0  0  0
    9.4024    6.9046    3.8765 C   0  0  2  0  0  3  0  0  0  0  0  0
    9.0710    6.4801    5.2098 C   0  0  0  0  0  0  0  0  0  0  0  0
    9.6222    5.2963    5.7933 C   0  0  0  0  0  0  0  0  0  0  0  0
    9.3052    5.0411    7.1531 C   0  0  0  0  0  0  0  0  0  0  0  0
    9.7474    4.1577    7.5874 H   0  0  0  0  0  0  0  0  0  0  0  0
    8.4685    5.8463    7.8753 C   0  0  0  0  0  0  0  0  0  0  0  0
    8.2430    5.6069    8.9041 H   0  0  0  0  0  0  0  0  0  0  0  0
    7.8888    6.9674    7.2798 C   0  0  0  0  0  0  0  0  0  0  0  0
    7.2074    7.5912    7.8374 H   0  0  0  0  0  0  0  0  0  0  0  0
    8.1960    7.2699    5.9780 C   0  0  0  0  0  0  0  0  0  0  0  0
    7.7291    8.1360    5.5293 H   0  0  0  0  0  0  0  0  0  0  0  0
   11.0308    3.0008    0.2604 C   0  0  0  0  0  0  0  0  0  0  0  0
   10.3802    2.8252   -0.9762 C   0  0  0  0  0  0  0  0  0  0  0  0
   11.0187    2.2354   -2.0560 C   0  0  0  0  0  0  0  0  0  0  0  0
   10.5172    2.0984   -3.0015 H   0  0  0  0  0  0  0  0  0  0  0  0
   12.3236    1.8278   -1.8607 C   0  0  0  0  0  0  0  0  0  0  0  0
   12.8554    1.3594   -2.6749 H   0  0  0  0  0  0  0  0  0  0  0  0
   12.9737    2.0019   -0.6356 C   0  0  0  0  0  0  0  0  0  0  0  0
   13.9926    1.6623   -0.5351 H   0  0  0  0  0  0  0  0  0  0  0  0
   12.3457    2.5878    0.4435 C   0  0  0  0  0  0  0  0  0  0  0  0
   12.8250    2.7293    1.4002 H   0  0  0  0  0  0  0  0  0  0  0  0
    9.0163    3.8003    0.4724 C   0  0  1  0  0  3  0  0  0  0  0  0
    7.8115    4.3715    1.0218 C   0  0  0  0  0  0  0  0  0  0  0  0
    7.6609    4.4223    2.4380 C   0  0  0  0  0  0  0  0  0  0  0  0
    6.4494    4.9098    2.9613 C   0  0  0  0  0  0  0  0  0  0  0  0
    6.3409    4.9342    4.0358 H   0  0  0  0  0  0  0  0  0  0  0  0
    5.4497    5.3589    2.1313 C   0  0  0  0  0  0  0  0  0  0  0  0
    4.5332    5.7407    2.5565 H   0  0  0  0  0  0  0  0  0  0  0  0
    5.6124    5.3335    0.7496 C   0  0  0  0  0  0  0  0  0  0  0  0
    4.8285    5.6997    0.1051 H   0  0  0  0  0  0  0  0  0  0  0  0
    6.7771    4.8369    0.2068 C   0  0  0  0  0  0  0  0  0  0  0  0
    6.9025    4.8355   -0.8668 H   0  0  0  0  0  0  0  0  0  0  0  0
  1  4  1  0  0  0  0
  1 11  1  0  0  0  0
  1  3  1  0  0  0  0
  2  1  1  0  0  0  0
  3 24  1  0  0  0  0
  5  1  1  0  0  0  0
  5 22  1  0  0  0  0
  6 22  1  0  0  0  0
  6  7  1  0  0  0  0
  8  1  1  0  0  0  0
  9 43  1  0  0  0  0
 10  9  1  0  0  0  0
 12 13  1  0  0  0  0
 12  5  1  0  0  0  0
 13  6  1  0  0  0  0
 14 15  1  0  0  0  0
 14 13  2  0  0  0  0
 16 14  1  0  0  0  0
 17 16  1  0  0  0  0
 18 16  2  0  0  0  0
 18 20  1  0  0  0  0
 19 18  1  0  0  0  0
 20 12  2  0  0  0  0
 21 20  1  0  0  0  0
 22 23  1  1  0  0  0
 23 24  2  0  0  0  0
 23 31  1  0  0  0  0
 24 25  1  0  0  0  0
 25 26  1  0  0  0  0
 25 27  2  0  0  0  0
 27 28  1  0  0  0  0
 29 30  1  0  0  0  0
 29 27  1  0  0  0  0
 31 29  2  0  0  0  0
 32 31  1  0  0  0  0
 33 41  1  0  0  0  0
 33  8  1  0  0  0  0
 34  9  1  0  0  0  0
 34 33  2  0  0  0  0
 35 37  2  0  0  0  0
 35 34  1  0  0  0  0
 36 35  1  0  0  0  0
 37 39  1  0  0  0  0
 38 37  1  0  0  0  0
 39 40  1  0  0  0  0
 39 41  2  0  0  0  0
 41 42  1  0  0  0  0
 43 44  1  1  0  0  0
 43  8  1  0  0  0  0
 44 45  1  0  0  0  0
 45 46  2  0  0  0  0
 45  4  1  0  0  0  0
 46 47  1  0  0  0  0
 48 49  1  0  0  0  0
 48 46  1  0  0  0  0
 50 48  2  0  0  0  0
 51 50  1  0  0  0  0
 52 50  1  0  0  0  0
 52 44  2  0  0  0  0
 53 52  1  0  0  0  0
M  END
$$$$
