CSD_code = TEGJAS | q = 0 | S = 0 | Stoichiometry = C26H16ClN2O3ReS2 | MND = 6
 OpenBabel04212202103D

 51 58  0  0  1  0  0  0  0  0999 V2000
    6.3506    3.7358    7.7384 Re  0  0  0  0  0  0  0  0  0  0  0  0
    4.7512    3.3986    8.0175 O   0  0  0  0  0  1  0  0  0  0  0  0
    7.2508    2.2226    8.7877 O   0  0  0  0  0  0  0  0  0  0  0  0
    8.0644    4.0469    6.9794 O   0  0  0  0  0  0  0  0  0  0  0  0
    6.2884    2.3132    6.0070 N   0  0  0  0  0  0  0  0  0  0  0  0
    5.8769    5.4924    6.4988 N   0  0  0  0  0  0  0  0  0  0  0  0
    7.5621    1.0072    4.1939 S   0  0  0  0  0  0  0  0  0  0  0  0
    5.8227    7.0994    4.4887 S   0  0  0  0  0  0  0  0  0  0  0  0
    6.7757    5.1371    9.4665 Cl  0  0  0  0  0  0  0  0  0  0  0  0
    6.2625    2.0488    3.6958 C   0  0  0  0  0  0  0  0  0  0  0  0
    5.7978    2.3166    2.4198 C   0  0  0  0  0  0  0  0  0  0  0  0
    6.2684    1.8658    1.5609 H   0  0  0  0  0  0  0  0  0  0  0  0
    4.7163    3.1659    2.2878 C   0  0  0  0  0  0  0  0  0  0  0  0
    4.3396    3.3954    1.3032 H   0  0  0  0  0  0  0  0  0  0  0  0
    4.0883    3.7068    3.4085 C   0  0  0  0  0  0  0  0  0  0  0  0
    3.2216    4.3366    3.2776 H   0  0  0  0  0  0  0  0  0  0  0  0
    4.5480    3.4425    4.6812 C   0  0  0  0  0  0  0  0  0  0  0  0
    4.0545    3.8206    5.5640 H   0  0  0  0  0  0  0  0  0  0  0  0
    5.6746    2.6358    4.8287 C   0  0  0  0  0  0  0  0  0  0  0  0
    7.2621    1.4511    5.8751 C   0  0  2  0  0  3  0  0  0  0  0  0
    8.0333    0.8573    6.9222 C   0  0  0  0  0  0  0  0  0  0  0  0
    7.9264    1.2402    8.2978 C   0  0  0  0  0  0  0  0  0  0  0  0
    8.6824    0.4889    9.2342 C   0  0  0  0  0  0  0  0  0  0  0  0
    8.5755    0.7750   10.2691 H   0  0  0  0  0  0  0  0  0  0  0  0
    9.5176   -0.5269    8.8587 C   0  0  0  0  0  0  0  0  0  0  0  0
   10.0795   -1.0660    9.6068 H   0  0  0  0  0  0  0  0  0  0  0  0
    9.6530   -0.8626    7.5094 C   0  0  0  0  0  0  0  0  0  0  0  0
   10.3188   -1.6556    7.2076 H   0  0  0  0  0  0  0  0  0  0  0  0
    8.9207   -0.1803    6.5757 C   0  0  0  0  0  0  0  0  0  0  0  0
    9.0056   -0.4496    5.5317 H   0  0  0  0  0  0  0  0  0  0  0  0
    4.6029    7.2752    5.7140 C   0  0  0  0  0  0  0  0  0  0  0  0
    3.5608    8.1863    5.7661 C   0  0  0  0  0  0  0  0  0  0  0  0
    3.4292    8.9115    4.9791 H   0  0  0  0  0  0  0  0  0  0  0  0
    2.7109    8.1341    6.8525 C   0  0  0  0  0  0  0  0  0  0  0  0
    1.8938    8.8357    6.9205 H   0  0  0  0  0  0  0  0  0  0  0  0
    2.8984    7.1915    7.8630 C   0  0  0  0  0  0  0  0  0  0  0  0
    2.2220    7.1762    8.7029 H   0  0  0  0  0  0  0  0  0  0  0  0
    3.9336    6.2825    7.8148 C   0  0  0  0  0  0  0  0  0  0  0  0
    4.0880    5.5517    8.5942 H   0  0  0  0  0  0  0  0  0  0  0  0
    4.8022    6.3187    6.7241 C   0  0  0  0  0  0  0  0  0  0  0  0
    6.5195    5.7753    5.3899 C   0  0  1  0  0  3  0  0  0  0  0  0
    7.7097    5.1328    4.9043 C   0  0  0  0  0  0  0  0  0  0  0  0
    8.4783    4.3101    5.7774 C   0  0  0  0  0  0  0  0  0  0  0  0
    9.6801    3.7632    5.2963 C   0  0  0  0  0  0  0  0  0  0  0  0
   10.2585    3.1490    5.9708 H   0  0  0  0  0  0  0  0  0  0  0  0
   10.0819    3.9751    3.9984 C   0  0  0  0  0  0  0  0  0  0  0  0
   10.9966    3.5246    3.6440 H   0  0  0  0  0  0  0  0  0  0  0  0
    9.3137    4.7550    3.1378 C   0  0  0  0  0  0  0  0  0  0  0  0
    9.6300    4.9076    2.1182 H   0  0  0  0  0  0  0  0  0  0  0  0
    8.1526    5.3351    3.5938 C   0  0  0  0  0  0  0  0  0  0  0  0
    7.5521    5.9458    2.9346 H   0  0  0  0  0  0  0  0  0  0  0  0
  1  2  1  0  0  0  0
  1  3  1  0  0  0  0
  1  9  1  0  0  0  0
  4  1  1  0  0  0  0
  5  1  1  0  0  0  0
  6 40  1  0  0  0  0
  6  1  1  0  0  0  0
  8 31  1  0  0  0  0
 10  7  1  0  0  0  0
 10 19  1  0  0  0  0
 11 10  2  0  0  0  0
 12 11  1  0  0  0  0
 13 11  1  0  0  0  0
 13 15  2  0  0  0  0
 14 13  1  0  0  0  0
 15 17  1  0  0  0  0
 16 15  1  0  0  0  0
 17 19  2  0  0  0  0
 17 18  1  0  0  0  0
 19  5  1  0  0  0  0
 20  7  1  1  0  0  0
 20  5  1  0  0  0  0
 20 21  1  0  0  0  0
 21 22  1  0  0  0  0
 22  3  1  0  0  0  0
 22 23  2  0  0  0  0
 23 24  1  0  0  0  0
 25 23  1  0  0  0  0
 25 26  1  0  0  0  0
 27 25  2  0  0  0  0
 28 27  1  0  0  0  0
 29 21  2  0  0  0  0
 29 27  1  0  0  0  0
 30 29  1  0  0  0  0
 31 32  2  0  0  0  0
 31 40  1  0  0  0  0
 32 34  1  0  0  0  0
 33 32  1  0  0  0  0
 34 35  1  0  0  0  0
 34 36  2  0  0  0  0
 36 37  1  0  0  0  0
 38 36  1  0  0  0  0
 38 39  1  0  0  0  0
 40 38  2  0  0  0  0
 41  8  1  1  0  0  0
 41  6  1  0  0  0  0
 42 41  1  0  0  0  0
 42 43  1  0  0  0  0
 43  4  1  0  0  0  0
 44 43  2  0  0  0  0
 44 45  1  0  0  0  0
 46 44  1  0  0  0  0
 47 46  1  0  0  0  0
 48 50  1  0  0  0  0
 48 46  2  0  0  0  0
 49 48  1  0  0  0  0
 50 42  2  0  0  0  0
 51 50  1  0  0  0  0
M  END
$$$$
