CSD_code = TEHBOZ | q = 0 | S = 0 | Stoichiometry = C15H18Cl2N2Zn | MND = 4
 OpenBabel04212202103D

 38 40  0  0  1  0  0  0  0  0999 V2000
    5.1545    8.7483    0.4698 Zn  0  0  0  0  0  0  0  0  0  0  0  0
    6.0926   10.6918    0.9111 Cl  0  0  0  0  0  0  0  0  0  0  0  0
    4.7305    7.0895    1.8520 Cl  0  0  0  0  0  0  0  0  0  0  0  0
    6.1798    7.7605   -1.1103 N   0  0  0  0  0  0  0  0  0  0  0  0
    3.7676    9.0807   -1.2281 N   0  0  0  0  0  4  0  0  0  0  0  0
    3.3573   10.0092   -1.1395 H   0  0  0  0  0  0  0  0  0  0  0  0
    7.1321    6.8492   -0.9674 C   0  0  0  0  0  3  0  0  0  0  0  0
    7.4831    6.6861    0.0416 H   0  0  0  0  0  0  0  0  0  0  0  0
    7.6446    6.1388   -2.0384 C   0  0  0  0  0  0  0  0  0  0  0  0
    8.4204    5.4066   -1.8845 H   0  0  0  0  0  0  0  0  0  0  0  0
    7.1324    6.3885   -3.3028 C   0  0  0  0  0  0  0  0  0  0  0  0
    7.5016    5.8516   -4.1636 H   0  0  0  0  0  0  0  0  0  0  0  0
    6.1324    7.3352   -3.4425 C   0  0  0  0  0  0  0  0  0  0  0  0
    5.7024    7.5529   -4.4082 H   0  0  0  0  0  0  0  0  0  0  0  0
    5.6781    8.0074   -2.3141 C   0  0  0  0  0  0  0  0  0  0  0  0
    4.6298    9.0870   -2.4150 C   0  0  2  0  0  0  0  0  0  0  0  0
    4.0288    8.9042   -3.3200 H   0  0  0  0  0  0  0  0  0  0  0  0
    5.3255   10.4430   -2.5470 C   0  0  0  0  0  0  0  0  0  0  0  0
    4.5914   11.2217   -2.7421 H   0  0  0  0  0  0  0  0  0  0  0  0
    6.0350   10.4250   -3.3702 H   0  0  0  0  0  0  0  0  0  0  0  0
    5.8565   10.6831   -1.6281 H   0  0  0  0  0  0  0  0  0  0  0  0
    2.6670    8.1043   -1.3196 C   0  0  1  0  0  0  0  0  0  0  0  0
    3.1249    7.1089   -1.3501 H   0  0  0  0  0  0  0  0  0  0  0  0
    1.7902    8.2032   -0.0749 C   0  0  0  0  0  0  0  0  0  0  0  0
    2.3748    7.9833    0.8154 H   0  0  0  0  0  0  0  0  0  0  0  0
    0.9784    7.4834   -0.1398 H   0  0  0  0  0  0  0  0  0  0  0  0
    1.3614    9.1990    0.0166 H   0  0  0  0  0  0  0  0  0  0  0  0
    1.8246    8.3018   -2.5626 C   0  0  0  0  0  0  0  0  0  0  0  0
    1.5861    7.2376   -3.4227 C   0  0  0  0  0  0  0  0  0  0  0  0
    2.0179    6.2713   -3.2027 H   0  0  0  0  0  0  0  0  0  0  0  0
    0.8001    7.4027   -4.5499 C   0  0  0  0  0  0  0  0  0  0  0  0
    0.6207    6.5646   -5.2067 H   0  0  0  0  0  0  0  0  0  0  0  0
    0.2477    8.6394   -4.8350 C   0  0  0  0  0  0  0  0  0  0  0  0
   -0.3638    8.7708   -5.7148 H   0  0  0  0  0  0  0  0  0  0  0  0
    0.4806    9.7073   -3.9849 C   0  0  0  0  0  0  0  0  0  0  0  0
    0.0505   10.6742   -4.2003 H   0  0  0  0  0  0  0  0  0  0  0  0
    1.2612    9.5391   -2.8556 C   0  0  0  0  0  0  0  0  0  0  0  0
    1.4257   10.3818   -2.1983 H   0  0  0  0  0  0  0  0  0  0  0  0
  1  2  1  0  0  0  0
  1  3  1  0  0  0  0
  4  7  1  0  0  0  0
  4  1  1  0  0  0  0
  5  6  1  0  0  0  0
  5  1  1  0  0  0  0
  7  8  1  0  0  0  0
  9 10  1  0  0  0  0
  9  7  1  0  0  0  0
 11  9  2  0  0  0  0
 12 11  1  0  0  0  0
 13 11  1  0  0  0  0
 13 15  2  0  0  0  0
 14 13  1  0  0  0  0
 15  4  1  0  0  0  0
 16 17  1  6  0  0  0
 16 15  1  0  0  0  0
 16  5  1  0  0  0  0
 18 16  1  0  0  0  0
 18 21  1  0  0  0  0
 19 18  1  0  0  0  0
 20 18  1  0  0  0  0
 22 23  1  6  0  0  0
 22  5  1  0  0  0  0
 22 24  1  0  0  0  0
 24 27  1  0  0  0  0
 24 25  1  0  0  0  0
 26 24  1  0  0  0  0
 28 22  1  0  0  0  0
 29 30  1  0  0  0  0
 29 28  2  0  0  0  0
 31 29  1  0  0  0  0
 32 31  1  0  0  0  0
 33 31  2  0  0  0  0
 33 35  1  0  0  0  0
 34 33  1  0  0  0  0
 35 37  2  0  0  0  0
 36 35  1  0  0  0  0
 37 28  1  0  0  0  0
 37 38  1  0  0  0  0
M  END
$$$$
