CSD_code = TEJKIF | q = 0 | S = 0 | Stoichiometry = C25H20AgClS2 | MND = 2
 OpenBabel04212202103D

 49 52  0  0  0  0  0  0  0  0999 V2000
    9.6051    1.9877    4.2624 Cl  0  0  0  0  0  0  0  0  0  0  0  0
    8.5280    3.5546    3.0437 Ag  0  0  0  0  0  0  0  0  0  0  0  0
    6.0131    5.7222    2.3039 S   0  0  0  0  0  3  0  0  0  0  0  0
    7.5243    5.0319    1.8842 C   0  0  0  0  0  3  0  0  0  0  0  0
    7.8336    5.4007    0.2354 S   0  0  0  0  0  3  0  0  0  0  0  0
    6.3756    6.0336    4.0421 C   0  0  0  0  0  0  0  0  0  0  0  0
    6.6391    7.3402    4.4184 C   0  0  0  0  0  0  0  0  0  0  0  0
    6.5190    8.1378    3.7001 H   0  0  0  0  0  0  0  0  0  0  0  0
    7.0601    7.6057    5.7098 C   0  0  0  0  0  0  0  0  0  0  0  0
    7.2649    8.6228    6.0081 H   0  0  0  0  0  0  0  0  0  0  0  0
    7.2246    6.5664    6.6122 C   0  0  0  0  0  0  0  0  0  0  0  0
    7.5614    6.7740    7.6165 H   0  0  0  0  0  0  0  0  0  0  0  0
    6.9546    5.2630    6.2304 C   0  0  0  0  0  0  0  0  0  0  0  0
    7.0745    4.4525    6.9326 H   0  0  0  0  0  0  0  0  0  0  0  0
    6.5294    4.9855    4.9399 C   0  0  0  0  0  0  0  0  0  0  0  0
    6.2723    3.9708    4.6611 H   0  0  0  0  0  0  0  0  0  0  0  0
    4.8277    4.3406    2.5754 C   0  0  0  0  0  0  0  0  0  0  0  0
    3.6369    4.6105    3.2256 C   0  0  0  0  0  0  0  0  0  0  0  0
    3.4400    5.6047    3.5999 H   0  0  0  0  0  0  0  0  0  0  0  0
    2.7191    3.5900    3.4024 C   0  0  0  0  0  0  0  0  0  0  0  0
    1.7910    3.7865    3.9183 H   0  0  0  0  0  0  0  0  0  0  0  0
    2.9921    2.3195    2.9193 C   0  0  0  0  0  0  0  0  0  0  0  0
    2.2741    1.5257    3.0600 H   0  0  0  0  0  0  0  0  0  0  0  0
    4.1812    2.0650    2.2567 C   0  0  0  0  0  0  0  0  0  0  0  0
    4.3955    1.0773    1.8781 H   0  0  0  0  0  0  0  0  0  0  0  0
    5.1030    3.0828    2.0773 C   0  0  0  0  0  0  0  0  0  0  0  0
    6.0381    2.8969    1.5601 H   0  0  0  0  0  0  0  0  0  0  0  0
    8.0441    3.7306   -0.4481 C   0  0  0  0  0  0  0  0  0  0  0  0
    7.0243    3.2420   -1.2486 C   0  0  0  0  0  0  0  0  0  0  0  0
    6.2213    3.8987   -1.5507 H   0  0  0  0  0  0  0  0  0  0  0  0
    7.0422    1.9149   -1.6423 C   0  0  0  0  0  0  0  0  0  0  0  0
    6.2483    1.5302   -2.2647 H   0  0  0  0  0  0  0  0  0  0  0  0
    8.0726    1.0849   -1.2305 C   0  0  0  0  0  0  0  0  0  0  0  0
    8.0823    0.0484   -1.5319 H   0  0  0  0  0  0  0  0  0  0  0  0
    9.0919    1.5819   -0.4336 C   0  0  0  0  0  0  0  0  0  0  0  0
    9.8987    0.9393   -0.1166 H   0  0  0  0  0  0  0  0  0  0  0  0
    9.0819    2.9077   -0.0315 C   0  0  0  0  0  0  0  0  0  0  0  0
    9.8948    3.2997    0.5691 H   0  0  0  0  0  0  0  0  0  0  0  0
    9.5940    5.8593    0.2277 C   0  0  0  0  0  0  0  0  0  0  0  0
   10.2896    5.8036   -0.9681 C   0  0  0  0  0  0  0  0  0  0  0  0
    9.7954    5.4579   -1.8645 H   0  0  0  0  0  0  0  0  0  0  0  0
   11.6213    6.1771   -0.9920 C   0  0  0  0  0  0  0  0  0  0  0  0
   12.1749    6.1284   -1.9175 H   0  0  0  0  0  0  0  0  0  0  0  0
   12.2416    6.6111    0.1696 C   0  0  0  0  0  0  0  0  0  0  0  0
   13.2820    6.8983    0.1477 H   0  0  0  0  0  0  0  0  0  0  0  0
   11.5308    6.6796    1.3559 C   0  0  0  0  0  0  0  0  0  0  0  0
   12.0113    7.0214    2.2599 H   0  0  0  0  0  0  0  0  0  0  0  0
   10.1962    6.3099    1.3864 C   0  0  0  0  0  0  0  0  0  0  0  0
    9.6225    6.3646    2.3032 H   0  0  0  0  0  0  0  0  0  0  0  0
  2  1  1  0  0  0  0
  3 17  1  0  0  0  0
  3  6  1  0  0  0  0
  4  3  1  0  0  0  0
  4  2  1  0  0  0  0
  5  4  1  0  0  0  0
  6  7  2  0  0  0  0
  6 15  1  0  0  0  0
  7  9  1  0  0  0  0
  8  7  1  0  0  0  0
  9 10  1  0  0  0  0
  9 11  2  0  0  0  0
 11 12  1  0  0  0  0
 13 11  1  0  0  0  0
 13 14  1  0  0  0  0
 15 13  2  0  0  0  0
 16 15  1  0  0  0  0
 17 18  1  0  0  0  0
 18 20  2  0  0  0  0
 18 19  1  0  0  0  0
 20 21  1  0  0  0  0
 22 23  1  0  0  0  0
 22 20  1  0  0  0  0
 24 22  2  0  0  0  0
 25 24  1  0  0  0  0
 26 24  1  0  0  0  0
 26 17  2  0  0  0  0
 27 26  1  0  0  0  0
 28 37  1  0  0  0  0
 28  5  1  0  0  0  0
 29 28  2  0  0  0  0
 30 29  1  0  0  0  0
 31 29  1  0  0  0  0
 31 33  2  0  0  0  0
 32 31  1  0  0  0  0
 33 35  1  0  0  0  0
 34 33  1  0  0  0  0
 35 36  1  0  0  0  0
 35 37  2  0  0  0  0
 37 38  1  0  0  0  0
 39  5  1  0  0  0  0
 39 48  1  0  0  0  0
 40 39  2  0  0  0  0
 41 40  1  0  0  0  0
 42 40  1  0  0  0  0
 42 44  2  0  0  0  0
 43 42  1  0  0  0  0
 44 46  1  0  0  0  0
 45 44  1  0  0  0  0
 46 48  2  0  0  0  0
 46 47  1  0  0  0  0
 48 49  1  0  0  0  0
M  END
$$$$
