CSD_code = TEJWUA | q = 0 | S = 0 | Stoichiometry = C18H14ClF5Ti | MND = 12
 OpenBabel04212202103D

 39 40  0  0  1  0  0  0  0  0999 V2000
    0.5610   10.0641    3.1320 Ti  0  0  0  0  0  0  0  0  0  0  0  0
    2.5269   10.7278    2.3310 Cl  0  0  0  0  0  0  0  0  0  0  0  0
    3.5617    8.7920    4.0335 F   0  0  0  0  0  0  0  0  0  0  0  0
    4.2096    6.8508    5.7645 F   0  0  0  0  0  0  0  0  0  0  0  0
    2.2599    5.5319    7.1652 F   0  0  0  0  0  0  0  0  0  0  0  0
   -0.3671    6.2263    6.7740 F   0  0  0  0  0  0  0  0  0  0  0  0
   -0.9984    8.1936    5.0184 F   0  0  0  0  0  0  0  0  0  0  0  0
    1.0656   11.7005    4.8005 C   0  0  0  0  0  0  0  0  0  0  0  0
    0.5826   12.3846    3.6627 C   0  0  0  0  0  0  0  0  0  0  0  0
    1.1228   13.1425    3.1100 H   0  0  0  0  0  0  0  0  0  0  0  0
   -0.7519   11.9910    3.4381 C   0  0  0  0  0  0  0  0  0  0  0  0
   -1.4315   12.4544    2.7352 H   0  0  0  0  0  0  0  0  0  0  0  0
   -1.1109   11.0701    4.4465 C   0  0  0  0  0  0  0  0  0  0  0  0
   -2.1011   10.6795    4.6307 H   0  0  0  0  0  0  0  0  0  0  0  0
    0.0059   10.8950    5.2874 C   0  0  0  0  0  3  0  0  0  0  0  0
    0.0089   10.3715    6.2346 H   0  0  0  0  0  0  0  0  0  0  0  0
    2.4009   11.8821    5.4495 C   0  0  0  0  0  0  0  0  0  0  0  0
    2.4488   12.8558    5.9404 H   0  0  0  0  0  0  0  0  0  0  0  0
    3.1998   11.8396    4.7086 H   0  0  0  0  0  0  0  0  0  0  0  0
    2.5725   11.1094    6.1984 H   0  0  0  0  0  0  0  0  0  0  0  0
    0.7284    8.4391    1.3811 C   0  0  0  0  0  0  0  0  0  0  0  0
    0.3751    9.6668    0.7800 C   0  0  0  0  0  0  0  0  0  0  0  0
    0.9435   10.1769    0.0132 H   0  0  0  0  0  0  0  0  0  0  0  0
   -0.8815   10.0634    1.2776 C   0  0  0  0  0  0  0  0  0  0  0  0
   -1.4731   10.8838    0.8927 H   0  0  0  0  0  0  0  0  0  0  0  0
   -1.3315    9.0650    2.1716 C   0  0  1  0  0  0  0  0  0  0  0  0
   -2.3136    9.0039    2.6178 H   0  0  0  0  0  0  0  0  0  0  0  0
   -0.3434    8.0636    2.2302 C   0  0  0  0  0  0  0  0  0  0  0  0
   -0.4494    7.0973    2.7053 H   0  0  0  0  0  0  0  0  0  0  0  0
    1.9508    7.6268    1.0913 C   0  0  0  0  0  0  0  0  0  0  0  0
    1.9189    7.2531    0.0664 H   0  0  0  0  0  0  0  0  0  0  0  0
    2.0159    6.7753    1.7684 H   0  0  0  0  0  0  0  0  0  0  0  0
    2.8512    8.2340    1.1982 H   0  0  0  0  0  0  0  0  0  0  0  0
    1.2498    8.5732    4.4495 C   0  0  0  0  0  0  0  0  0  0  0  0
    2.5616    8.1784    4.6922 C   0  0  0  0  0  0  0  0  0  0  0  0
    2.9222    7.1718    5.5887 C   0  0  0  0  0  0  0  0  0  0  0  0
    1.9380    6.5000    6.3017 C   0  0  0  0  0  0  0  0  0  0  0  0
    0.6065    6.8541    6.1011 C   0  0  0  0  0  0  0  0  0  0  0  0
    0.3113    7.8632    5.1962 C   0  0  0  0  0  0  0  0  0  0  0  0
  1 34  1  0  0  0  0
  2  1  1  0  0  0  0
  3 35  1  0  0  0  0
  7 39  1  0  0  0  0
  8 15  1  0  0  0  0
  8 17  1  0  0  0  0
  9  8  2  0  0  0  0
 10  9  1  0  0  0  0
 11  9  1  0  0  0  0
 11 13  2  0  0  0  0
 12 11  1  0  0  0  0
 13 14  1  0  0  0  0
 13 15  1  0  0  0  0
 15 16  1  0  0  0  0
 17 18  1  0  0  0  0
 17 20  1  0  0  0  0
 19 17  1  0  0  0  0
 21 28  2  0  0  0  0
 22 24  2  0  0  0  0
 22 21  1  0  0  0  0
 23 22  1  0  0  0  0
 24 26  1  0  0  0  0
 25 24  1  0  0  0  0
 26 28  1  0  0  0  0
 26 27  1  1  0  0  0
 26  1  1  0  0  0  0
 28 29  1  0  0  0  0
 30 33  1  0  0  0  0
 30 21  1  0  0  0  0
 30 32  1  0  0  0  0
 31 30  1  0  0  0  0
 34 35  2  0  0  0  0
 34 39  1  0  0  0  0
 35 36  1  0  0  0  0
 36  4  1  0  0  0  0
 36 37  2  0  0  0  0
 37  5  1  0  0  0  0
 38 37  1  0  0  0  0
 38  6  1  0  0  0  0
 39 38  2  0  0  0  0
M  END
$$$$
