CSD_code = TEJZIT | q = 0 | S = 0 | Stoichiometry = C11H12ClNO2PdS | MND = 4
 OpenBabel04212202103D

 29 32  0  0  1  0  0  0  0  0999 V2000
   -1.7032    9.4349    5.8563 Pd  0  0  2  0  0  0  0  0  0  0  0  0
   -1.4079   10.5849    3.9811 Cl  0  0  0  0  0  0  0  0  0  0  0  0
   -2.5336    7.8986    4.8361 O   0  0  0  0  0  0  0  0  0  0  0  0
   -3.1054    7.2252    9.0482 O   0  0  0  0  0  0  0  0  0  0  0  0
   -3.1068    6.8637    5.3400 C   0  0  2  0  0  3  0  0  0  0  0  0
   -3.6309    5.9095    4.4251 C   0  0  0  0  0  0  0  0  0  0  0  0
   -3.4725    6.1122    3.3770 H   0  0  0  0  0  0  0  0  0  0  0  0
   -4.3091    4.7982    4.8398 C   0  0  0  0  0  0  0  0  0  0  0  0
   -4.6912    4.1018    4.1074 H   0  0  0  0  0  0  0  0  0  0  0  0
   -4.5188    4.5514    6.2017 C   0  0  0  0  0  0  0  0  0  0  0  0
   -5.0593    3.6728    6.5172 H   0  0  0  0  0  0  0  0  0  0  0  0
   -4.0250    5.4334    7.1224 C   0  0  0  0  0  0  0  0  0  0  0  0
   -4.1613    5.2646    8.1800 H   0  0  0  0  0  0  0  0  0  0  0  0
   -3.3078    6.5808    6.7304 C   0  0  0  0  0  0  0  0  0  0  0  0
   -2.7865    7.4321    7.7486 C   0  0  0  0  0  0  0  0  0  0  0  0
   -2.5118    8.2599    9.8213 C   0  0  0  0  0  0  0  0  0  0  0  0
   -1.9342    7.8050   10.6278 H   0  0  0  0  0  0  0  0  0  0  0  0
   -3.3089    8.8769   10.2517 H   0  0  0  0  0  0  0  0  0  0  0  0
   -1.6315    9.0486    8.8218 C   0  0  2  0  0  0  0  0  0  0  0  0
   -0.5612    8.8952    9.0206 H   0  0  0  0  0  0  0  0  0  0  0  0
   -1.9040   10.5477    8.7241 C   0  0  0  0  0  0  0  0  0  0  0  0
   -1.5161   11.0861    9.5883 H   0  0  0  0  0  0  0  0  0  0  0  0
   -2.9732   10.7372    8.6092 H   0  0  0  0  0  0  0  0  0  0  0  0
   -2.3183   12.3500    6.5978 C   0  0  0  0  0  0  0  0  0  0  0  0
   -2.4533   13.1523    7.3188 H   0  0  0  0  0  0  0  0  0  0  0  0
   -3.2525   11.8139    6.4074 H   0  0  0  0  0  0  0  0  0  0  0  0
   -1.9326   12.7366    5.6557 H   0  0  0  0  0  0  0  0  0  0  0  0
   -1.0504   11.1944    7.2059 S   0  0  2  0  0  3  0  0  0  0  0  0
   -1.9789    8.4268    7.5587 N   0  0  0  0  0  0  0  0  0  0  0  0
  1  2  1  6  0  0  0
  1 28  1  0  0  0  0
  1 29  1  0  0  0  0
  3  5  1  0  0  0  0
  3  1  1  0  0  0  0
  4 16  1  0  0  0  0
  5  6  1  6  0  0  0
  5 14  1  0  0  0  0
  6  8  2  0  0  0  0
  7  6  1  0  0  0  0
  8 10  1  0  0  0  0
  9  8  1  0  0  0  0
 10 11  1  0  0  0  0
 10 12  2  0  0  0  0
 12 13  1  0  0  0  0
 14 12  1  0  0  0  0
 14 15  2  0  0  0  0
 15  4  1  0  0  0  0
 16 18  1  0  0  0  0
 16 17  1  0  0  0  0
 19 20  1  1  0  0  0
 19 16  1  0  0  0  0
 21 19  1  0  0  0  0
 21 22  1  0  0  0  0
 23 21  1  0  0  0  0
 24 25  1  0  0  0  0
 26 24  1  0  0  0  0
 27 24  1  0  0  0  0
 28 24  1  6  0  0  0
 28 21  1  0  0  0  0
 29 15  1  0  0  0  0
 29 19  1  0  0  0  0
M  END
$$$$
