CSD_code = TEKJEB | q = 0 | S = 0 | Stoichiometry = C18H24AuClN2O9 | MND = 2
 OpenBabel04212202103D

 55 56  0  0  1  0  0  0  0  0999 V2000
    4.8597    1.6074    9.0173 C   0  0  2  0  0  3  0  0  0  0  0  0
    3.1903    1.6408    7.5274 C   0  0  0  0  0  0  0  0  0  0  0  0
    2.1822    1.5442    7.1848 H   0  0  0  0  0  0  0  0  0  0  0  0
    4.3519    1.8233    6.8606 C   0  0  0  0  0  0  0  0  0  0  0  0
    4.5394    1.9629    5.8164 H   0  0  0  0  0  0  0  0  0  0  0  0
    6.7457    1.9903    7.4752 C   0  0  0  0  0  0  0  0  0  0  0  0
    6.9044    2.9747    7.0324 H   0  0  0  0  0  0  0  0  0  0  0  0
    7.0769    1.2260    6.7707 H   0  0  0  0  0  0  0  0  0  0  0  0
    7.3265    1.9134    8.3929 H   0  0  0  0  0  0  0  0  0  0  0  0
    2.5685    1.3486    9.9087 C   0  0  2  0  0  0  0  0  0  0  0  0
    3.0564    0.8123   10.7424 H   0  0  0  0  0  0  0  0  0  0  0  0
    2.0781    2.7175   10.4378 C   0  0  1  0  0  0  0  0  0  0  0  0
    1.7679    3.3423    9.5877 H   0  0  0  0  0  0  0  0  0  0  0  0
    0.9035    2.5321   11.4039 C   0  0  2  0  0  0  0  0  0  0  0  0
    1.2721    2.1524   12.3676 H   0  0  0  0  0  0  0  0  0  0  0  0
   -0.1622    1.5677   10.8529 C   0  0  1  0  0  0  0  0  0  0  0  0
   -0.7457    2.0898   10.0819 H   0  0  0  0  0  0  0  0  0  0  0  0
    0.4854    0.2992   10.2796 C   0  0  1  0  0  0  0  0  0  0  0  0
    0.8906   -0.2929   11.1154 H   0  0  0  0  0  0  0  0  0  0  0  0
    3.7868    4.3710   10.5350 C   0  0  0  0  0  0  0  0  0  0  0  0
    4.6833    5.0725   11.4990 C   0  0  0  0  0  0  0  0  0  0  0  0
    5.2781    5.8160   10.9780 H   0  0  0  0  0  0  0  0  0  0  0  0
    5.3314    4.3494   11.9957 H   0  0  0  0  0  0  0  0  0  0  0  0
    4.0789    5.5484   12.2680 H   0  0  0  0  0  0  0  0  0  0  0  0
   -0.2151    4.0976   12.7997 C   0  0  0  0  0  0  0  0  0  0  0  0
   -0.8607    5.4491   12.7752 C   0  0  0  0  0  0  0  0  0  0  0  0
   -0.9873    5.8171   13.7885 H   0  0  0  0  0  0  0  0  0  0  0  0
   -1.8383    5.3341   12.3082 H   0  0  0  0  0  0  0  0  0  0  0  0
   -0.2721    6.1388   12.1784 H   0  0  0  0  0  0  0  0  0  0  0  0
   -2.1409    1.8899   12.1227 C   0  0  0  0  0  0  0  0  0  0  0  0
   -2.8391    1.4077   13.3557 C   0  0  0  0  0  0  0  0  0  0  0  0
   -2.3303    1.8569   14.2084 H   0  0  0  0  0  0  0  0  0  0  0  0
   -2.7596    0.3285   13.4388 H   0  0  0  0  0  0  0  0  0  0  0  0
   -3.8766    1.7265   13.3466 H   0  0  0  0  0  0  0  0  0  0  0  0
   -0.5384   -0.5526    9.5147 C   0  0  0  0  0  0  0  0  0  0  0  0
    0.0036   -1.3196    8.9524 H   0  0  0  0  0  0  0  0  0  0  0  0
   -1.2430   -1.0010   10.2156 H   0  0  0  0  0  0  0  0  0  0  0  0
   -0.8445    0.4161    7.3713 C   0  0  0  0  0  0  0  0  0  0  0  0
   -1.7520    1.3456    6.6142 C   0  0  0  0  0  0  0  0  0  0  0  0
   -1.6830    1.1401    5.5502 H   0  0  0  0  0  0  0  0  0  0  0  0
   -1.4301    2.3702    6.7936 H   0  0  0  0  0  0  0  0  0  0  0  0
   -2.7736    1.2395    6.9649 H   0  0  0  0  0  0  0  0  0  0  0  0
    5.3577    1.8087    7.7900 N   0  0  0  0  0  0  0  0  0  0  0  0
    3.5242    1.5118    8.8509 N   0  0  0  0  0  0  0  0  0  0  0  0
    1.5058    0.6199    9.3673 O   0  0  0  0  0  0  0  0  0  0  0  0
    3.0998    3.3793   11.1569 O   0  0  0  0  0  0  0  0  0  0  0  0
    3.6479    4.6149    9.3665 O   0  0  0  0  0  0  0  0  0  0  0  0
    0.3330    3.8186   11.6005 O   0  0  0  0  0  0  0  0  0  0  0  0
   -0.1977    3.3410   13.7315 O   0  0  0  0  0  0  0  0  0  0  0  0
   -1.0283    1.1592   11.8994 O   0  0  0  0  0  0  0  0  0  0  0  0
   -2.4858    2.8038   11.4249 O   0  0  0  0  0  0  0  0  0  0  0  0
   -1.3077    0.2335    8.6235 O   0  0  0  0  0  0  0  0  0  0  0  0
    0.1508   -0.0946    6.9396 O   0  0  0  0  0  0  0  0  0  0  0  0
    5.7827    1.7709   10.7881 Au  0  0  0  0  0  0  0  0  0  0  0  0
    6.7140    2.2379   12.7854 Cl  0  0  0  0  0  0  0  0  0  0  0  0
  1 54  1  1  0  0  0
  2 44  1  0  0  0  0
  3  2  1  0  0  0  0
  4  2  2  0  0  0  0
  4 43  1  0  0  0  0
  5  4  1  0  0  0  0
  6 43  1  0  0  0  0
  6  9  1  0  0  0  0
  7  6  1  0  0  0  0
  8  6  1  0  0  0  0
 10 12  1  0  0  0  0
 10 11  1  1  0  0  0
 12 13  1  6  0  0  0
 12 46  1  0  0  0  0
 12 14  1  0  0  0  0
 14 48  1  0  0  0  0
 14 15  1  1  0  0  0
 16 17  1  6  0  0  0
 16 14  1  0  0  0  0
 16 50  1  0  0  0  0
 18 16  1  0  0  0  0
 18 19  1  1  0  0  0
 20 46  1  0  0  0  0
 20 21  1  0  0  0  0
 21 23  1  0  0  0  0
 21 24  1  0  0  0  0
 22 21  1  0  0  0  0
 25 49  2  0  0  0  0
 26 25  1  0  0  0  0
 26 27  1  0  0  0  0
 28 26  1  0  0  0  0
 29 26  1  0  0  0  0
 30 31  1  0  0  0  0
 31 33  1  0  0  0  0
 31 32  1  0  0  0  0
 34 31  1  0  0  0  0
 35 37  1  0  0  0  0
 35 18  1  0  0  0  0
 36 35  1  0  0  0  0
 38 52  1  0  0  0  0
 39 41  1  0  0  0  0
 39 42  1  0  0  0  0
 39 38  1  0  0  0  0
 40 39  1  0  0  0  0
 43  1  1  0  0  0  0
 44  1  1  0  0  0  0
 44 10  1  0  0  0  0
 45 10  1  0  0  0  0
 45 18  1  0  0  0  0
 47 20  2  0  0  0  0
 48 25  1  0  0  0  0
 50 30  1  0  0  0  0
 51 30  2  0  0  0  0
 52 35  1  0  0  0  0
 53 38  2  0  0  0  0
 54 55  1  0  0  0  0
M  END
$$$$
