CSD_code = TELFUL | q = -1 | S = 0 | Stoichiometry = C6H7Cl3N5Zn(1-) | MND = 4
 OpenBabel04212202103D

 22 23  0  0  0  0  0  0  0  0999 V2000
    3.8527    9.5843    5.6089 Zn  0  0  0  0  0  0  0  0  0  0  0  0
    4.8915    7.9423    6.8124 Cl  0  0  0  0  0  0  0  0  0  0  0  0
    4.0746    9.7341    3.3900 Cl  0  0  0  0  0  0  0  0  0  0  0  0
    1.7460    9.9765    6.5881 Cl  0  0  0  0  0  0  0  0  0  0  0  0
    3.2273   15.0635    6.9566 N   0  0  0  0  0  0  0  0  0  0  0  0
    3.9307   14.5979    5.9298 C   0  0  0  0  0  0  0  0  0  0  0  0
    4.4321   13.3979    5.7631 N   0  0  0  0  0  0  0  0  0  0  0  0
    4.1672   12.5577    6.7608 C   0  0  0  0  0  0  0  0  0  0  0  0
    3.4385   12.9368    7.9160 C   0  0  0  0  0  0  0  0  0  0  0  0
    2.9563   14.2456    7.9721 C   0  0  0  0  0  0  0  0  0  0  0  0
    3.4090   11.8175    8.7166 N   0  0  0  0  0  0  0  0  0  0  0  0
    4.0556   10.8580    8.0357 C   0  0  0  0  0  3  0  0  0  0  0  0
    4.5378   11.2529    6.8814 N   0  0  0  0  0  0  0  0  0  0  0  0
    2.6587   11.6198    9.9225 C   0  0  0  0  0  0  0  0  0  0  0  0
    2.1840   14.7492    8.9809 N   0  0  0  0  0  0  0  0  0  0  0  0
    2.7335   10.5719   10.2064 H   0  0  0  0  0  0  0  0  0  0  0  0
    1.6075   11.8550    9.7465 H   0  0  0  0  0  0  0  0  0  0  0  0
    3.0529   12.2405   10.7330 H   0  0  0  0  0  0  0  0  0  0  0  0
    2.1922   14.3045    9.8804 H   0  0  0  0  0  0  0  0  0  0  0  0
    2.0318   15.7428    8.9475 H   0  0  0  0  0  0  0  0  0  0  0  0
    4.1194   15.3118    5.1385 H   0  0  0  0  0  0  0  0  0  0  0  0
    4.1852    9.8599    8.4095 H   0  0  0  0  0  0  0  0  0  0  0  0
  1  4  1  0  0  0  0
  1  2  1  0  0  0  0
  1 13  1  0  0  0  0
  3  1  1  0  0  0  0
  5 10  1  0  0  0  0
  6  5  2  0  0  0  0
  7  6  1  0  0  0  0
  7  8  2  0  0  0  0
  8 13  1  0  0  0  0
  8  9  1  0  0  0  0
  9 10  2  0  0  0  0
  9 11  1  0  0  0  0
 10 15  1  0  0  0  0
 11 14  1  0  0  0  0
 12 22  1  0  0  0  0
 12 11  1  0  0  0  0
 13 12  1  0  0  0  0
 14 16  1  0  0  0  0
 14 18  1  0  0  0  0
 15 19  1  0  0  0  0
 17 14  1  0  0  0  0
 20 15  1  0  0  0  0
 21  6  1  0  0  0  0
M  END
$$$$
