CSD_code = TELQEI | q = 0 | S = 0 | Stoichiometry = C14H10ClN3Pt | MND = 4
 OpenBabel04212202103D

 29 33  0  0  0  0  0  0  0  0999 V2000
    4.3640    5.6967    6.4833 Pt  0  0  2  0  0  0  0  0  0  0  0  0
    4.3642    3.4438    6.4836 Cl  0  0  0  0  0  0  0  0  0  0  0  0
    6.1019    6.1149    5.4443 N   0  0  0  0  0  0  0  0  0  0  0  0
    4.3641    7.5518    6.4834 N   0  0  0  0  0  0  0  0  0  0  0  0
    6.9669    5.2523    4.9264 C   0  0  0  0  0  0  0  0  0  0  0  0
    6.7322    4.2038    5.0635 H   0  0  0  0  0  0  0  0  0  0  0  0
    8.1056    5.6509    4.2488 C   0  0  0  0  0  0  0  0  0  0  0  0
    8.7791    4.9131    3.8452 H   0  0  0  0  0  0  0  0  0  0  0  0
    8.3555    7.0109    4.1041 C   0  0  0  0  0  0  0  0  0  0  0  0
    9.2361    7.3531    3.5815 H   0  0  0  0  0  0  0  0  0  0  0  0
    7.4634    7.9186    4.6374 C   0  0  0  0  0  0  0  0  0  0  0  0
    7.6214    8.9815    4.5465 H   0  0  0  0  0  0  0  0  0  0  0  0
    6.3293    7.4631    5.3112 C   0  0  0  0  0  0  0  0  0  0  0  0
    5.3202    8.2950    5.9133 C   0  0  0  0  0  0  0  0  0  0  0  0
    4.9608    9.6450    6.1276 C   0  0  0  0  0  0  0  0  0  0  0  0
    5.5043   10.5111    5.8033 H   0  0  0  0  0  0  0  0  0  0  0  0
    2.6264    6.1149    7.5227 N   0  0  0  0  0  0  0  0  0  0  0  0
    1.7613    5.2523    8.0405 C   0  0  0  0  0  0  0  0  0  0  0  0
    1.9961    4.2038    7.9034 H   0  0  0  0  0  0  0  0  0  0  0  0
    0.6226    5.6509    8.7181 C   0  0  0  0  0  0  0  0  0  0  0  0
   -0.0509    4.9131    9.1216 H   0  0  0  0  0  0  0  0  0  0  0  0
    0.3727    7.0109    8.8627 C   0  0  0  0  0  0  0  0  0  0  0  0
   -0.5078    7.3531    9.3853 H   0  0  0  0  0  0  0  0  0  0  0  0
    1.2649    7.9186    8.3294 C   0  0  0  0  0  0  0  0  0  0  0  0
    1.1069    8.9815    8.4204 H   0  0  0  0  0  0  0  0  0  0  0  0
    2.3989    7.4631    7.6557 C   0  0  0  0  0  0  0  0  0  0  0  0
    3.4081    8.2950    7.0536 C   0  0  0  0  0  0  0  0  0  0  0  0
    3.7675    9.6450    6.8393 C   0  0  0  0  0  0  0  0  0  0  0  0
    3.2240   10.5111    7.1637 H   0  0  0  0  0  0  0  0  0  0  0  0
  1  4  1  0  0  0  0
  1  2  1  1  0  0  0
  1 17  1  0  0  0  0
  3  1  1  0  0  0  0
  4 27  1  0  0  0  0
  5  6  1  0  0  0  0
  5  3  1  0  0  0  0
  7  5  2  0  0  0  0
  8  7  1  0  0  0  0
  9  7  1  0  0  0  0
  9 11  2  0  0  0  0
 10  9  1  0  0  0  0
 11 13  1  0  0  0  0
 12 11  1  0  0  0  0
 13  3  1  0  0  0  0
 13 14  2  0  0  0  0
 14 15  1  0  0  0  0
 14  4  1  0  0  0  0
 15 28  2  0  0  0  0
 16 15  1  0  0  0  0
 17 26  1  0  0  0  0
 17 18  1  0  0  0  0
 18 20  2  0  0  0  0
 19 18  1  0  0  0  0
 20 22  1  0  0  0  0
 20 21  1  0  0  0  0
 22 23  1  0  0  0  0
 24 25  1  0  0  0  0
 24 22  2  0  0  0  0
 26 24  1  0  0  0  0
 27 26  2  0  0  0  0
 28 27  1  0  0  0  0
 28 29  1  0  0  0  0
M  END
$$$$
