CSD_code = TEMHEY | q = 1 | S = 0 | Stoichiometry = C16H20Cl2N4V(1+) | MND = 6
 OpenBabel04212202103D

 43 48  0  0  1  0  0  0  0  0999 V2000
    0.2849    0.7306    4.5793 V   0  0  0  0  0  0  0  0  0  0  0  0
    1.6262    0.1785    3.1713 Cl  0  0  0  0  0  0  0  0  0  0  0  0
    0.4461    2.9382    4.2923 Cl  0  0  0  0  0  0  0  0  0  0  0  0
   -1.3226    0.1139    3.2682 N   0  0  1  0  0  4  0  0  0  0  0  0
   -0.0980   -0.9758    5.3730 N   0  0  0  0  0  0  0  0  0  0  0  0
    1.2206    1.0128    6.4652 N   0  0  2  0  0  4  0  0  0  0  0  0
   -1.3018    1.1204    5.6696 N   0  0  0  0  0  0  0  0  0  0  0  0
   -1.2366   -1.3561    3.3306 C   0  0  0  0  0  0  0  0  0  0  0  0
   -0.9332   -1.7929    4.7300 C   0  0  1  0  0  3  0  0  0  0  0  0
   -1.4353   -2.9325    5.3393 C   0  0  0  0  0  0  0  0  0  0  0  0
   -1.0568   -3.2145    6.6444 C   0  0  0  0  0  0  0  0  0  0  0  0
   -0.1752   -2.3594    7.2959 C   0  0  0  0  0  0  0  0  0  0  0  0
    0.2838   -1.2426    6.6190 C   0  0  0  0  0  0  0  0  0  0  0  0
    1.3250   -0.2908    7.1363 C   0  0  0  0  0  0  0  0  0  0  0  0
    0.3171    1.8942    7.2134 C   0  0  0  0  0  0  0  0  0  0  0  0
   -1.0953    1.4979    6.9318 C   0  0  1  0  0  3  0  0  0  0  0  0
   -2.1327    1.5594    7.8516 C   0  0  0  0  0  0  0  0  0  0  0  0
   -3.4122    1.2194    7.4415 C   0  0  0  0  0  0  0  0  0  0  0  0
   -3.6205    0.8570    6.1170 C   0  0  0  0  0  0  0  0  0  0  0  0
   -2.5316    0.8282    5.2614 C   0  0  0  0  0  0  0  0  0  0  0  0
   -2.6150    0.5778    3.7872 C   0  0  0  0  0  0  0  0  0  0  0  0
   -1.1948    0.5708    1.8815 C   0  0  0  0  0  0  0  0  0  0  0  0
    2.5464    1.6226    6.3527 C   0  0  0  0  0  0  0  0  0  0  0  0
   -2.1500   -1.8311    2.9482 H   0  0  0  0  0  0  0  0  0  0  0  0
   -0.3928   -1.6625    2.7003 H   0  0  0  0  0  0  0  0  0  0  0  0
   -2.1065   -3.5867    4.8062 H   0  0  0  0  0  0  0  0  0  0  0  0
   -1.4371   -4.0895    7.1460 H   0  0  0  0  0  0  0  0  0  0  0  0
    0.1516   -2.5639    8.3027 H   0  0  0  0  0  0  0  0  0  0  0  0
    2.2996   -0.7343    6.8938 H   0  0  0  0  0  0  0  0  0  0  0  0
    1.2674   -0.1888    8.2281 H   0  0  0  0  0  0  0  0  0  0  0  0
    0.5410    1.9001    8.2887 H   0  0  0  0  0  0  0  0  0  0  0  0
    0.4464    2.9087    6.8117 H   0  0  0  0  0  0  0  0  0  0  0  0
   -1.9421    1.8723    8.8657 H   0  0  0  0  0  0  0  0  0  0  0  0
   -4.2362    1.2492    8.1360 H   0  0  0  0  0  0  0  0  0  0  0  0
   -4.6072    0.6147    5.7569 H   0  0  0  0  0  0  0  0  0  0  0  0
   -3.4275   -0.1176    3.5390 H   0  0  0  0  0  0  0  0  0  0  0  0
   -2.8445    1.5462    3.3247 H   0  0  0  0  0  0  0  0  0  0  0  0
   -0.2957    0.1569    1.4281 H   0  0  0  0  0  0  0  0  0  0  0  0
   -1.1100    1.6585    1.8699 H   0  0  0  0  0  0  0  0  0  0  0  0
   -2.0644    0.2658    1.2880 H   0  0  0  0  0  0  0  0  0  0  0  0
    3.1970    0.9779    5.7592 H   0  0  0  0  0  0  0  0  0  0  0  0
    2.9945    1.7763    7.3410 H   0  0  0  0  0  0  0  0  0  0  0  0
    2.4585    2.5835    5.8447 H   0  0  0  0  0  0  0  0  0  0  0  0
  1  5  1  0  0  0  0
  1  7  1  0  0  0  0
  1  6  1  0  0  0  0
  2  1  1  0  0  0  0
  3  1  1  0  0  0  0
  4 22  1  6  0  0  0
  4  8  1  0  0  0  0
  4 21  1  0  0  0  0
  4  1  1  0  0  0  0
  5 13  1  0  0  0  0
  6 23  1  6  0  0  0
  6 14  1  0  0  0  0
  6 15  1  0  0  0  0
  7 16  1  0  0  0  0
  8  9  1  0  0  0  0
  9 10  1  6  0  0  0
  9  5  1  0  0  0  0
 10 11  2  0  0  0  0
 11 27  1  0  0  0  0
 11 12  1  0  0  0  0
 12 28  1  0  0  0  0
 13 14  1  0  0  0  0
 13 12  2  0  0  0  0
 14 30  1  0  0  0  0
 15 31  1  0  0  0  0
 16 15  1  0  0  0  0
 16 17  1  6  0  0  0
 17 33  1  0  0  0  0
 18 17  2  0  0  0  0
 18 34  1  0  0  0  0
 19 18  1  0  0  0  0
 20  7  1  0  0  0  0
 20 19  2  0  0  0  0
 21 20  1  0  0  0  0
 23 42  1  0  0  0  0
 24  8  1  0  0  0  0
 25  8  1  0  0  0  0
 26 10  1  0  0  0  0
 29 14  1  0  0  0  0
 32 15  1  0  0  0  0
 35 19  1  0  0  0  0
 36 21  1  0  0  0  0
 37 21  1  0  0  0  0
 38 22  1  0  0  0  0
 39 22  1  0  0  0  0
 40 22  1  0  0  0  0
 41 23  1  0  0  0  0
 43 23  1  0  0  0  0
M  END
$$$$
