CSD_code = TEMJIE | q = -1 | S = 0 | Stoichiometry = C18H15Br4O2PRe(1-) | MND = 6
 OpenBabel04212202103D

 41 43  0  0  0  0  0  0  0  0999 V2000
    3.7601    3.0619    8.3026 Re  0  0  0  0  0  0  0  0  0  0  0  0
    3.6092    3.6714   10.6919 Br  0  0  0  0  0  0  0  0  0  0  0  0
    3.7588    0.6981    8.9717 Br  0  0  0  0  0  0  0  0  0  0  0  0
    3.2477    2.3542    5.9952 Br  0  0  0  0  0  0  0  0  0  0  0  0
    2.9861    5.3386    7.7268 Br  0  0  0  0  0  0  0  0  0  0  0  0
    1.3798    2.6922    8.5469 O   0  0  0  0  0  0  0  0  0  0  0  0
    5.3836    3.2814    8.0899 O   0  0  0  0  0  1  0  0  0  0  0  0
    0.0505    3.2306    8.9325 P   0  0  0  0  0  4  0  0  0  0  0  0
    0.1212    4.2615   10.4267 C   0  0  0  0  0  0  0  0  0  0  0  0
    0.4457    5.6081   10.3275 C   0  0  0  0  0  0  0  0  0  0  0  0
    0.6389    6.3477   11.4799 C   0  0  0  0  0  0  0  0  0  0  0  0
    0.5086    5.7474   12.7211 C   0  0  0  0  0  0  0  0  0  0  0  0
    0.1844    4.4042   12.8167 C   0  0  0  0  0  0  0  0  0  0  0  0
   -0.0067    3.6569   11.6697 C   0  0  0  0  0  0  0  0  0  0  0  0
   -1.0550    1.8367    9.2872 C   0  0  0  0  0  0  0  0  0  0  0  0
   -2.4076    2.0314    9.5334 C   0  0  0  0  0  0  0  0  0  0  0  0
   -3.2161    0.9440    9.8052 C   0  0  0  0  0  0  0  0  0  0  0  0
   -2.6761   -0.3334    9.8321 C   0  0  0  0  0  0  0  0  0  0  0  0
   -1.3275   -0.5264    9.5850 C   0  0  0  0  0  0  0  0  0  0  0  0
   -0.5140    0.5591    9.3100 C   0  0  0  0  0  0  0  0  0  0  0  0
   -0.7041    4.2068    7.6033 C   0  0  0  0  0  0  0  0  0  0  0  0
   -1.6987    5.1434    7.8546 C   0  0  0  0  0  0  0  0  0  0  0  0
   -2.2495    5.8535    6.8045 C   0  0  0  0  0  0  0  0  0  0  0  0
   -1.8084    5.6329    5.5088 C   0  0  0  0  0  0  0  0  0  0  0  0
   -0.8181    4.6982    5.2591 C   0  0  0  0  0  0  0  0  0  0  0  0
   -0.2681    3.9794    6.3051 C   0  0  0  0  0  0  0  0  0  0  0  0
    0.5755    6.0626    9.3550 H   0  0  0  0  0  0  0  0  0  0  0  0
    0.9107    7.3901   11.4051 H   0  0  0  0  0  0  0  0  0  0  0  0
    0.6753    6.3250   13.6188 H   0  0  0  0  0  0  0  0  0  0  0  0
    0.0986    3.9337   13.7853 H   0  0  0  0  0  0  0  0  0  0  0  0
   -0.2367    2.6012   11.7301 H   0  0  0  0  0  0  0  0  0  0  0  0
   -2.8190    3.0307    9.5106 H   0  0  0  0  0  0  0  0  0  0  0  0
   -4.2698    1.0901    9.9973 H   0  0  0  0  0  0  0  0  0  0  0  0
   -3.3129   -1.1801   10.0467 H   0  0  0  0  0  0  0  0  0  0  0  0
   -0.9057   -1.5201    9.6065 H   0  0  0  0  0  0  0  0  0  0  0  0
    0.5405    0.4217    9.1160 H   0  0  0  0  0  0  0  0  0  0  0  0
   -2.0240    5.3264    8.8698 H   0  0  0  0  0  0  0  0  0  0  0  0
   -3.0185    6.5886    6.9973 H   0  0  0  0  0  0  0  0  0  0  0  0
   -2.2356    6.1991    4.6934 H   0  0  0  0  0  0  0  0  0  0  0  0
   -0.4650    4.5307    4.2530 H   0  0  0  0  0  0  0  0  0  0  0  0
    0.5112    3.2549    6.1165 H   0  0  0  0  0  0  0  0  0  0  0  0
  1  6  1  0  0  0  0
  1  3  1  0  0  0  0
  1  2  1  0  0  0  0
  4  1  1  0  0  0  0
  5  1  1  0  0  0  0
  6  8  1  0  0  0  0
  7  1  1  0  0  0  0
  8 15  1  0  0  0  0
  8  9  1  0  0  0  0
  9 14  1  0  0  0  0
 10  9  2  0  0  0  0
 10 11  1  0  0  0  0
 11 12  2  0  0  0  0
 12 13  1  0  0  0  0
 12 29  1  0  0  0  0
 13 30  1  0  0  0  0
 14 31  1  0  0  0  0
 14 13  2  0  0  0  0
 15 20  2  0  0  0  0
 15 16  1  0  0  0  0
 16 17  2  0  0  0  0
 17 18  1  0  0  0  0
 17 33  1  0  0  0  0
 18 34  1  0  0  0  0
 19 35  1  0  0  0  0
 19 18  2  0  0  0  0
 20 19  1  0  0  0  0
 21 22  1  0  0  0  0
 21  8  1  0  0  0  0
 22 37  1  0  0  0  0
 23 38  1  0  0  0  0
 23 22  2  0  0  0  0
 24 23  1  0  0  0  0
 25 24  2  0  0  0  0
 25 26  1  0  0  0  0
 26 21  2  0  0  0  0
 27 10  1  0  0  0  0
 28 11  1  0  0  0  0
 32 16  1  0  0  0  0
 36 20  1  0  0  0  0
 39 24  1  0  0  0  0
 40 25  1  0  0  0  0
 41 26  1  0  0  0  0
M  END
$$$$
