CSD_code = TEMMED | q = 1 | S = 0 | Stoichiometry = C12H30AuCl2N6O2(1+) | MND = 6
 OpenBabel04212202103D

 53 56  0  0  1  0  0  0  0  0999 V2000
    2.6372   -0.0001    5.5090 Au  0  0  0  0  0  0  0  0  0  0  0  0
    0.5627    0.1536    4.2700 Cl  0  0  0  0  0  0  0  0  0  0  0  0
    3.7884   -0.1567    3.8945 N   0  0  1  0  0  4  0  0  0  0  0  0
    2.8770    2.3706    5.0581 N   0  0  2  0  0  4  0  0  0  0  0  0
    3.3872   -2.5823    3.7669 N   0  0  0  0  0  0  0  0  0  0  0  0
    3.3572   -1.3512    3.0721 C   0  0  0  0  0  0  0  0  0  0  0  0
    3.8420    1.1375    3.1905 C   0  0  0  0  0  0  0  0  0  0  0  0
    4.0524    2.2812    4.1960 C   0  0  0  0  0  0  0  0  0  0  0  0
    2.9856    2.9620    6.4004 C   0  0  0  0  0  0  0  0  0  0  0  0
    4.6826   -3.1263    4.1638 C   0  0  0  0  0  0  0  0  0  0  0  0
    5.7939   -2.8802    3.1298 C   0  0  0  0  0  0  0  0  0  0  0  0
    5.3867   -3.0884    1.8047 O   0  0  0  0  0  0  0  0  0  0  0  0
    4.7258   -0.3582    4.2542 H   0  0  0  0  0  0  0  0  0  0  0  0
    2.1059    2.7933    4.5504 H   0  0  0  0  0  0  0  0  0  0  0  0
    2.3388   -1.1486    2.7340 H   0  0  0  0  0  0  0  0  0  0  0  0
    4.0176   -1.4204    2.2007 H   0  0  0  0  0  0  0  0  0  0  0  0
    4.6482    1.1308    2.4521 H   0  0  0  0  0  0  0  0  0  0  0  0
    2.8892    1.2765    2.6742 H   0  0  0  0  0  0  0  0  0  0  0  0
    4.2474    3.2113    3.6503 H   0  0  0  0  0  0  0  0  0  0  0  0
    4.9192    2.0610    4.8241 H   0  0  0  0  0  0  0  0  0  0  0  0
    3.9154    2.6028    6.8470 H   0  0  0  0  0  0  0  0  0  0  0  0
    3.0152    4.0594    6.3559 H   0  0  0  0  0  0  0  0  0  0  0  0
    5.0314   -2.7209    5.1244 H   0  0  0  0  0  0  0  0  0  0  0  0
    4.5408   -4.2053    4.2817 H   0  0  0  0  0  0  0  0  0  0  0  0
    6.6453   -3.5201    3.3932 H   0  0  0  0  0  0  0  0  0  0  0  0
    6.1413   -1.8435    3.1690 H   0  0  0  0  0  0  0  0  0  0  0  0
    5.1879   -4.0212    1.6662 H   0  0  0  0  0  0  0  0  0  0  0  0
    4.7121   -0.1538    6.7478 Cl  0  0  0  0  0  0  0  0  0  0  0  0
    2.2904   -2.9628    4.6185 C   0  0  0  0  0  0  0  0  0  0  0  0
    2.3981   -2.3707    5.9605 N   0  0  2  0  0  4  0  0  0  0  0  0
    1.4860    0.1566    7.1235 N   0  0  2  0  0  4  0  0  0  0  0  0
    1.9179    1.3507    7.9463 C   0  0  0  0  0  0  0  0  0  0  0  0
    1.8888    2.5821    7.2521 N   0  0  0  0  0  0  0  0  0  0  0  0
    0.5939    3.1280    6.8563 C   0  0  0  0  0  0  0  0  0  0  0  0
   -0.5179    2.8813    7.8896 C   0  0  0  0  0  0  0  0  0  0  0  0
   -0.1111    3.0854    9.2154 O   0  0  0  0  0  0  0  0  0  0  0  0
    0.0883    4.0176    9.3571 H   0  0  0  0  0  0  0  0  0  0  0  0
   -1.3682    3.5232    7.6272 H   0  0  0  0  0  0  0  0  0  0  0  0
   -0.8669    1.8453    7.8477 H   0  0  0  0  0  0  0  0  0  0  0  0
    0.2447    2.7244    5.8950 H   0  0  0  0  0  0  0  0  0  0  0  0
    0.7368    4.2070    6.7399 H   0  0  0  0  0  0  0  0  0  0  0  0
    2.9361    1.1473    8.2845 H   0  0  0  0  0  0  0  0  0  0  0  0
    1.2573    1.4199    8.8176 H   0  0  0  0  0  0  0  0  0  0  0  0
    1.4319   -1.1376    7.8275 C   0  0  0  0  0  0  0  0  0  0  0  0
    1.2222   -2.2814    6.8218 C   0  0  0  0  0  0  0  0  0  0  0  0
    3.1691   -2.7928    6.4688 H   0  0  0  0  0  0  0  0  0  0  0  0
    1.0269   -3.2115    7.3676 H   0  0  0  0  0  0  0  0  0  0  0  0
    0.3557   -2.0613    6.1933 H   0  0  0  0  0  0  0  0  0  0  0  0
    0.6252   -1.1308    8.5653 H   0  0  0  0  0  0  0  0  0  0  0  0
    2.3843   -1.2766    8.3444 H   0  0  0  0  0  0  0  0  0  0  0  0
    0.5487    0.3586    6.7638 H   0  0  0  0  0  0  0  0  0  0  0  0
    1.3605   -2.6046    4.1713 H   0  0  0  0  0  0  0  0  0  0  0  0
    2.2618   -4.0602    4.6635 H   0  0  0  0  0  0  0  0  0  0  0  0
  1 30  1  0  0  0  0
  1 28  1  0  0  0  0
  1 31  1  0  0  0  0
  2  1  1  0  0  0  0
  3 13  1  1  0  0  0
  3  1  1  0  0  0  0
  4 14  1  6  0  0  0
  4  1  1  0  0  0  0
  4  9  1  0  0  0  0
  5 10  1  0  0  0  0
  5 29  1  0  0  0  0
  6  5  1  0  0  0  0
  6  3  1  0  0  0  0
  7  3  1  0  0  0  0
  7  8  1  0  0  0  0
  8 20  1  0  0  0  0
  8  4  1  0  0  0  0
  9 21  1  0  0  0  0
  9 33  1  0  0  0  0
 10 24  1  0  0  0  0
 10 23  1  0  0  0  0
 11 26  1  0  0  0  0
 11 25  1  0  0  0  0
 11 10  1  0  0  0  0
 12 11  1  0  0  0  0
 15  6  1  0  0  0  0
 16  6  1  0  0  0  0
 17  7  1  0  0  0  0
 18  7  1  0  0  0  0
 19  8  1  0  0  0  0
 22  9  1  0  0  0  0
 27 12  1  0  0  0  0
 29 53  1  0  0  0  0
 29 30  1  0  0  0  0
 30 46  1  1  0  0  0
 30 45  1  0  0  0  0
 31 51  1  6  0  0  0
 31 44  1  0  0  0  0
 31 32  1  0  0  0  0
 32 42  1  0  0  0  0
 32 43  1  0  0  0  0
 33 32  1  0  0  0  0
 34 33  1  0  0  0  0
 34 35  1  0  0  0  0
 35 36  1  0  0  0  0
 36 37  1  0  0  0  0
 38 35  1  0  0  0  0
 39 35  1  0  0  0  0
 40 34  1  0  0  0  0
 41 34  1  0  0  0  0
 44 50  1  0  0  0  0
 44 49  1  0  0  0  0
 45 47  1  0  0  0  0
 45 44  1  0  0  0  0
 48 45  1  0  0  0  0
 52 29  1  0  0  0  0
M  END
$$$$
