CSD_code = TENBOF | q = 0 | S = 0 | Stoichiometry = C7H10Cl4SiTi | MND = 8
 OpenBabel04212202103D

 23 23  0  0  1  0  0  0  0  0999 V2000
    3.1265    2.5381   12.7297 Ti  0  0  0  0  0  0  0  0  0  0  0  0
    2.9633    4.1699   10.1780 Cl  0  0  0  0  0  0  0  0  0  0  0  0
    4.2212    1.5431   14.3434 Cl  0  0  0  0  0  0  0  0  0  0  0  0
    4.1500    4.3979   13.0790 Cl  0  0  0  0  0  0  0  0  0  0  0  0
    1.1575    3.1622    9.9769 Si  0  0  0  0  0  0  0  0  0  0  0  0
    4.2124    1.4601   11.2103 Cl  0  0  0  0  0  0  0  0  0  0  0  0
    1.0508    2.6124   11.7793 C   0  0  2  0  0  3  0  0  0  0  0  0
    1.0734    3.5103   12.8846 C   0  0  1  0  0  0  0  0  0  0  0  0
    0.8932    4.5784   12.8320 H   0  0  0  0  0  0  0  0  0  0  0  0
    1.1926    1.3021   12.3077 C   0  0  0  0  0  0  0  0  0  0  0  0
    1.1345    0.3843   11.7351 H   0  0  0  0  0  0  0  0  0  0  0  0
    1.3709    1.6891    8.7932 C   0  0  0  0  0  0  0  0  0  0  0  0
    0.5023    1.0382    8.8005 H   0  0  0  0  0  0  0  0  0  0  0  0
    2.2419    1.0988    9.0715 H   0  0  0  0  0  0  0  0  0  0  0  0
    1.5160    2.0315    7.7733 H   0  0  0  0  0  0  0  0  0  0  0  0
   -0.2000    4.4000    9.4833 C   0  0  0  0  0  0  0  0  0  0  0  0
    0.0239    4.8387    8.5167 H   0  0  0  0  0  0  0  0  0  0  0  0
   -0.2870    5.2113   10.1999 H   0  0  0  0  0  0  0  0  0  0  0  0
   -1.1671    3.9146    9.4107 H   0  0  0  0  0  0  0  0  0  0  0  0
    1.2664    1.3917   13.7106 C   0  0  0  0  0  0  0  0  0  0  0  0
    1.3017    0.5586   14.4001 H   0  0  0  0  0  0  0  0  0  0  0  0
    1.2029    2.7560   14.0702 C   0  0  0  0  0  3  0  0  0  0  0  0
    1.1614    3.1431   15.0811 H   0  0  0  0  0  0  0  0  0  0  0  0
  1  8  1  0  0  0  0
  1  4  1  0  0  0  0
  1  3  1  0  0  0  0
  5  2  1  0  0  0  0
  6  1  1  0  0  0  0
  7  5  1  6  0  0  0
  7 10  1  0  0  0  0
  7  8  1  0  0  0  0
  8  9  1  6  0  0  0
  8 22  1  0  0  0  0
 10 20  2  0  0  0  0
 11 10  1  0  0  0  0
 12 13  1  0  0  0  0
 12 14  1  0  0  0  0
 12  5  1  0  0  0  0
 15 12  1  0  0  0  0
 16  5  1  0  0  0  0
 16 18  1  0  0  0  0
 17 16  1  0  0  0  0
 19 16  1  0  0  0  0
 20 22  1  0  0  0  0
 20 21  1  0  0  0  0
 22 23  1  0  0  0  0
M  END
$$$$
