CSD_code = TENDOF | q = 0 | S = 0 | Stoichiometry = C8H16F2MoO4 | MND = 6
 OpenBabel04212202103D

 31 30  0  0  0  0  0  0  0  0999 V2000
    0.0908    1.4232    5.1412 Mo  0  0  0  0  0  0  0  0  0  0  0  0
   -1.5409    0.8093    5.6144 F   0  0  0  0  0  0  0  0  0  0  0  0
    1.6597    0.9834    4.3612 F   0  0  0  0  0  0  0  0  0  0  0  0
    0.5558   -0.8092    5.9072 O   0  0  0  0  0  0  0  0  0  0  0  0
   -0.5903    0.0039    3.3237 O   0  0  0  0  0  0  0  0  0  0  0  0
    0.6358    1.9280    6.6075 O   0  0  0  0  0  1  0  0  0  0  0  0
   -0.3487    2.6885    4.1885 O   0  0  0  0  0  1  0  0  0  0  0  0
    1.9035   -0.9154    6.3794 C   0  0  0  0  0  0  0  0  0  0  0  0
    1.9226   -2.0439    7.4282 C   0  0  0  0  0  0  0  0  0  0  0  0
    0.4499   -2.4512    7.5556 C   0  0  0  0  0  0  0  0  0  0  0  0
   -0.2740   -1.2340    6.9842 C   0  0  0  0  0  0  0  0  0  0  0  0
   -1.9201    0.3251    2.8972 C   0  0  0  0  0  0  0  0  0  0  0  0
   -2.0140   -0.0396    1.4032 C   0  0  0  0  0  0  0  0  0  0  0  0
   -0.6057   -0.5366    1.0595 C   0  0  0  0  0  0  0  0  0  0  0  0
    0.2348    0.0951    2.1661 C   0  0  0  0  0  0  0  0  0  0  0  0
    2.2050    0.0435    6.8216 H   0  0  0  0  0  0  0  0  0  0  0  0
    2.5321   -1.1259    5.5095 H   0  0  0  0  0  0  0  0  0  0  0  0
    2.3075   -1.6717    8.3756 H   0  0  0  0  0  0  0  0  0  0  0  0
    2.5446   -2.8786    7.1107 H   0  0  0  0  0  0  0  0  0  0  0  0
    0.1569   -2.6588    8.5814 H   0  0  0  0  0  0  0  0  0  0  0  0
    0.2393   -3.3294    6.9445 H   0  0  0  0  0  0  0  0  0  0  0  0
   -1.2625   -1.4605    6.5778 H   0  0  0  0  0  0  0  0  0  0  0  0
   -0.3529   -0.4293    7.7299 H   0  0  0  0  0  0  0  0  0  0  0  0
   -2.0999    1.3962    3.0579 H   0  0  0  0  0  0  0  0  0  0  0  0
   -2.6043   -0.2542    3.5242 H   0  0  0  0  0  0  0  0  0  0  0  0
   -2.2675    0.8410    0.8159 H   0  0  0  0  0  0  0  0  0  0  0  0
   -2.7682   -0.8023    1.2200 H   0  0  0  0  0  0  0  0  0  0  0  0
   -0.5538   -1.6237    1.1282 H   0  0  0  0  0  0  0  0  0  0  0  0
   -0.2799   -0.2304    0.0690 H   0  0  0  0  0  0  0  0  0  0  0  0
    1.1643   -0.4402    2.3741 H   0  0  0  0  0  0  0  0  0  0  0  0
    0.4533    1.1509    1.9484 H   0  0  0  0  0  0  0  0  0  0  0  0
  1  2  1  0  0  0  0
  1  6  1  0  0  0  0
  3  1  1  0  0  0  0
  4  8  1  0  0  0  0
  4 11  1  0  0  0  0
  7  1  1  0  0  0  0
  8 16  1  0  0  0  0
  8  9  1  0  0  0  0
  9 10  1  0  0  0  0
  9 18  1  0  0  0  0
 10 20  1  0  0  0  0
 11 10  1  0  0  0  0
 11 23  1  0  0  0  0
 12 24  1  0  0  0  0
 12  5  1  0  0  0  0
 12 25  1  0  0  0  0
 13 12  1  0  0  0  0
 14 28  1  0  0  0  0
 14 13  1  0  0  0  0
 14 15  1  0  0  0  0
 15 30  1  0  0  0  0
 15  5  1  0  0  0  0
 17  8  1  0  0  0  0
 19  9  1  0  0  0  0
 21 10  1  0  0  0  0
 22 11  1  0  0  0  0
 26 13  1  0  0  0  0
 27 13  1  0  0  0  0
 29 14  1  0  0  0  0
 31 15  1  0  0  0  0
M  END
$$$$
