CSD_code = TENWUH | q = 0 | S = 0 | Stoichiometry = C26H28Cl2N3O5PRu | MND = 6
 OpenBabel04212202103D

 66 72  0  0  1  0  0  0  0  0999 V2000
   -1.5128    5.2607   19.3081 C   0  0  0  0  0  0  0  0  0  0  0  0
   -2.3703    4.6071   19.2384 H   0  0  0  0  0  0  0  0  0  0  0  0
   -1.4812    6.4410   18.5879 C   0  0  0  0  0  0  0  0  0  0  0  0
   -2.3188    6.7108   17.9607 H   0  0  0  0  0  0  0  0  0  0  0  0
   -0.3756    7.2726   18.6654 C   0  0  0  0  0  0  0  0  0  0  0  0
   -0.3478    8.1901   18.0959 H   0  0  0  0  0  0  0  0  0  0  0  0
    0.6919    6.9217   19.4730 C   0  0  0  0  0  0  0  0  0  0  0  0
    1.5596    7.5606   19.5371 H   0  0  0  0  0  0  0  0  0  0  0  0
    0.6575    5.7465   20.2049 C   0  0  0  0  0  0  0  0  0  0  0  0
    1.5007    5.4813   20.8249 H   0  0  0  0  0  0  0  0  0  0  0  0
   -0.4405    4.9033   20.1159 C   0  0  0  0  0  0  0  0  0  0  0  0
   -0.5149    3.6279   20.9187 C   0  0  2  0  0  0  0  0  0  0  0  0
   -1.0650    2.8745   20.3405 H   0  0  0  0  0  0  0  0  0  0  0  0
   -1.1489    3.8576   22.3201 C   0  0  0  0  0  0  0  0  0  0  0  0
   -1.3269    4.9194   22.5180 H   0  0  0  0  0  0  0  0  0  0  0  0
   -2.0754    3.2981   22.4667 H   0  0  0  0  0  0  0  0  0  0  0  0
    0.8657    2.9513   22.5332 C   0  0  0  0  0  0  0  0  0  0  0  0
    2.0426    2.3441   23.1023 C   0  0  0  0  0  0  0  0  0  0  0  0
    2.3783    2.1661   24.4420 C   0  0  0  0  0  0  0  0  0  0  0  0
    1.7037    2.5064   25.2101 H   0  0  0  0  0  0  0  0  0  0  0  0
    3.5876    1.5528   24.7435 C   0  0  0  0  0  0  0  0  0  0  0  0
    3.8734    1.4040   25.7727 H   0  0  0  0  0  0  0  0  0  0  0  0
    4.4327    1.1366   23.7232 C   0  0  0  0  0  0  0  0  0  0  0  0
    5.3815    0.6669   23.9235 H   0  0  0  0  0  0  0  0  0  0  0  0
    4.0308    1.3419   22.4056 C   0  0  0  0  0  0  0  0  0  0  0  0
    4.7273    1.0302   21.1838 C   0  0  1  0  0  3  0  0  0  0  0  0
    6.3241    0.4902   19.7405 C   0  0  0  0  0  0  0  0  0  0  0  0
    6.6405   -0.5257   19.4907 H   0  0  0  0  0  0  0  0  0  0  0  0
    7.1538    1.1841   19.5799 H   0  0  0  0  0  0  0  0  0  0  0  0
    5.0377    0.9104   18.9765 C   0  0  1  0  0  0  0  0  0  0  0  0
    5.2004    1.7856   18.3361 H   0  0  0  0  0  0  0  0  0  0  0  0
    4.4724   -0.2245   18.1559 C   0  0  0  0  0  0  0  0  0  0  0  0
    3.9495   -1.3444   18.7911 C   0  0  0  0  0  0  0  0  0  0  0  0
    3.8947   -1.3802   19.8699 H   0  0  0  0  0  0  0  0  0  0  0  0
    3.4796   -2.4106   18.0448 C   0  0  0  0  0  0  0  0  0  0  0  0
    3.0669   -3.2731   18.5461 H   0  0  0  0  0  0  0  0  0  0  0  0
    3.5351   -2.3672   16.6621 C   0  0  0  0  0  0  0  0  0  0  0  0
    3.1721   -3.2020   16.0807 H   0  0  0  0  0  0  0  0  0  0  0  0
    4.0506   -1.2500   16.0268 C   0  0  0  0  0  0  0  0  0  0  0  0
    4.0895   -1.2104   14.9483 H   0  0  0  0  0  0  0  0  0  0  0  0
    4.5158   -0.1800   16.7700 C   0  0  0  0  0  0  0  0  0  0  0  0
    4.9078    0.6957   16.2753 H   0  0  0  0  0  0  0  0  0  0  0  0
    1.0550    0.1899   17.1659 C   0  0  0  0  0  0  0  0  0  0  0  0
    1.0171   -0.2695   16.1782 H   0  0  0  0  0  0  0  0  0  0  0  0
    1.4774   -0.5107   17.8852 H   0  0  0  0  0  0  0  0  0  0  0  0
    0.0487    0.4589   17.4916 H   0  0  0  0  0  0  0  0  0  0  0  0
   -0.2691    3.3719   16.6950 C   0  0  0  0  0  0  0  0  0  0  0  0
   -1.1452    2.7379   16.5493 H   0  0  0  0  0  0  0  0  0  0  0  0
   -0.5718    4.4202   16.6759 H   0  0  0  0  0  0  0  0  0  0  0  0
    0.4536    3.1814   15.8995 H   0  0  0  0  0  0  0  0  0  0  0  0
    2.8863    4.8571   17.3595 C   0  0  0  0  0  0  0  0  0  0  0  0
    3.4438    5.2354   16.5031 H   0  0  0  0  0  0  0  0  0  0  0  0
    1.9385    5.3920   17.4499 H   0  0  0  0  0  0  0  0  0  0  0  0
    3.4622    4.9985   18.2751 H   0  0  0  0  0  0  0  0  0  0  0  0
    0.7810    3.0708   21.2473 N   0  0  0  0  0  0  0  0  0  0  0  0
    2.8563    1.9298   22.1166 N   0  0  0  0  0  0  0  0  0  0  0  0
    4.1454    1.2828   20.0547 N   0  0  2  0  0  0  0  0  0  0  0  0
   -0.1808    3.3796   23.2530 O   0  0  0  0  0  0  0  0  0  0  0  0
    5.9687    0.5271   21.1230 O   0  0  0  0  0  0  0  0  0  0  0  0
    1.8762    1.3403   17.0344 O   0  0  0  0  0  0  0  0  0  0  0  0
    0.2935    3.0913   17.9717 O   0  0  0  0  0  0  0  0  0  0  0  0
    2.6657    3.4759   17.0999 O   0  0  0  0  0  0  0  0  0  0  0  0
    1.8242    2.5429   18.0988 P   0  0  0  0  0  4  0  0  0  0  0  0
    1.1505    0.2232   20.3528 Cl  0  0  0  0  0  0  0  0  0  0  0  0
    3.7163    4.1816   20.4876 Cl  0  0  0  0  0  0  0  0  0  0  0  0
    2.3838    2.2277   20.3211 Ru  0  0  0  0  0  0  0  0  0  0  0  0
  1 11  1  0  0  0  0
  2  1  1  0  0  0  0
  3  5  1  0  0  0  0
  3  1  2  0  0  0  0
  4  3  1  0  0  0  0
  5  7  2  0  0  0  0
  6  5  1  0  0  0  0
  7  8  1  0  0  0  0
  7  9  1  0  0  0  0
  9 10  1  0  0  0  0
 11  9  2  0  0  0  0
 11 12  1  0  0  0  0
 12 13  1  6  0  0  0
 12 55  1  0  0  0  0
 12 14  1  0  0  0  0
 14 16  1  0  0  0  0
 14 15  1  0  0  0  0
 14 58  1  0  0  0  0
 17 18  2  0  0  0  0
 17 58  1  0  0  0  0
 18 19  1  0  0  0  0
 19 21  2  0  0  0  0
 19 20  1  0  0  0  0
 21 22  1  0  0  0  0
 23 24  1  0  0  0  0
 23 21  1  0  0  0  0
 25 23  2  0  0  0  0
 26 59  1  6  0  0  0
 26 25  1  0  0  0  0
 27 59  1  0  0  0  0
 28 27  1  0  0  0  0
 29 27  1  0  0  0  0
 30 31  1  6  0  0  0
 30 27  1  0  0  0  0
 30 57  1  0  0  0  0
 32 33  1  0  0  0  0
 32 30  1  0  0  0  0
 33 34  1  0  0  0  0
 35 36  1  0  0  0  0
 35 33  2  0  0  0  0
 37 35  1  0  0  0  0
 38 37  1  0  0  0  0
 39 37  2  0  0  0  0
 39 41  1  0  0  0  0
 40 39  1  0  0  0  0
 41 32  2  0  0  0  0
 42 41  1  0  0  0  0
 43 46  1  0  0  0  0
 43 45  1  0  0  0  0
 44 43  1  0  0  0  0
 47 61  1  0  0  0  0
 48 47  1  0  0  0  0
 49 47  1  0  0  0  0
 50 47  1  0  0  0  0
 51 53  1  0  0  0  0
 51 54  1  0  0  0  0
 52 51  1  0  0  0  0
 55 17  1  0  0  0  0
 56 25  1  0  0  0  0
 56 18  1  0  0  0  0
 57 66  1  0  0  0  0
 57 26  1  0  0  0  0
 60 43  1  0  0  0  0
 60 63  1  0  0  0  0
 61 63  1  0  0  0  0
 62 51  1  0  0  0  0
 62 63  1  0  0  0  0
 63 66  1  0  0  0  0
 66 64  1  0  0  0  0
 66 65  1  0  0  0  0
 66 55  1  0  0  0  0
 66 56  1  0  0  0  0
M  END
$$$$
