CSD_code = TEPWAO | q = 0 | S = 0 | Stoichiometry = C28H16Cl2N2Pd | MND = 4
 OpenBabel04212202103D

 49 53  0  0  0  0  0  0  0  0999 V2000
   -1.0146    0.5984    5.8593 Pd  0  0  0  0  0  0  0  0  0  0  0  0
   -0.0949   -1.2608    4.8830 Cl  0  0  0  0  0  0  0  0  0  0  0  0
    0.6896    1.0034    6.6691 N   0  0  0  0  0  0  0  0  0  0  0  0
    1.0134    0.5604    7.8782 C   0  0  0  0  0  3  0  0  0  0  0  0
    0.2553   -0.0254    8.3984 H   0  0  0  0  0  0  0  0  0  0  0  0
   -1.9326    2.4526    6.8179 Cl  0  0  0  0  0  0  0  0  0  0  0  0
   -2.7401    0.0701    5.1418 N   0  0  0  0  0  0  0  0  0  0  0  0
    2.2441    0.8275    8.4516 C   0  0  0  0  0  0  0  0  0  0  0  0
    2.4750    0.4524    9.4356 H   0  0  0  0  0  0  0  0  0  0  0  0
    3.1686    1.5826    7.7390 C   0  0  0  0  0  0  0  0  0  0  0  0
    4.1360    1.8054    8.1626 H   0  0  0  0  0  0  0  0  0  0  0  0
    2.8322    2.0442    6.4807 C   0  0  0  0  0  0  0  0  0  0  0  0
    3.5165    2.6330    5.8906 H   0  0  0  0  0  0  0  0  0  0  0  0
    1.5717    1.7330    5.9691 C   0  0  0  0  0  0  0  0  0  0  0  0
    1.1312    2.1607    4.6946 C   0  0  0  0  0  0  0  0  0  0  0  0
    0.8113    2.5582    3.5949 C   0  0  0  0  0  0  0  0  0  0  0  0
    0.4274    3.0688    2.3378 C   0  0  0  0  0  0  0  0  0  0  0  0
    1.2193    4.0221    1.6903 C   0  0  0  0  0  0  0  0  0  0  0  0
    2.1444    4.3434    2.1445 H   0  0  0  0  0  0  0  0  0  0  0  0
    0.8072    4.5475    0.4794 C   0  0  0  0  0  0  0  0  0  0  0  0
    1.4220    5.2797   -0.0232 H   0  0  0  0  0  0  0  0  0  0  0  0
   -0.3925    4.1559   -0.0868 C   0  0  0  0  0  0  0  0  0  0  0  0
   -0.7236    4.5827   -1.0219 H   0  0  0  0  0  0  0  0  0  0  0  0
   -1.1915    3.2046    0.5542 C   0  0  0  0  0  0  0  0  0  0  0  0
   -0.7646    2.6469    1.7566 C   0  0  0  0  0  0  0  0  0  0  0  0
   -1.3524    1.8831    2.2438 H   0  0  0  0  0  0  0  0  0  0  0  0
   -2.4437    2.8383    0.0176 C   0  0  0  0  0  0  0  0  0  0  0  0
   -3.5428    2.5637   -0.4018 C   0  0  0  0  0  0  0  0  0  0  0  0
   -4.8304    2.2518   -0.8799 C   0  0  0  0  0  0  0  0  0  0  0  0
   -5.2603    2.7098   -2.1246 C   0  0  0  0  0  0  0  0  0  0  0  0
   -4.5874    3.3039   -2.7256 H   0  0  0  0  0  0  0  0  0  0  0  0
   -6.5288    2.4068   -2.5803 C   0  0  0  0  0  0  0  0  0  0  0  0
   -6.8523    2.7670   -3.5455 H   0  0  0  0  0  0  0  0  0  0  0  0
   -7.3885    1.6423   -1.8026 C   0  0  0  0  0  0  0  0  0  0  0  0
   -8.3792    1.4094   -2.1635 H   0  0  0  0  0  0  0  0  0  0  0  0
   -6.9801    1.1777   -0.5675 C   0  0  0  0  0  0  0  0  0  0  0  0
   -7.6431    0.5827    0.0435 H   0  0  0  0  0  0  0  0  0  0  0  0
   -5.7039    1.4751   -0.0914 C   0  0  0  0  0  0  0  0  0  0  0  0
   -5.2766    0.9990    1.1629 C   0  0  0  0  0  0  0  0  0  0  0  0
   -4.8972    0.5847    2.2328 C   0  0  0  0  0  0  0  0  0  0  0  0
   -4.4219    0.0560    3.4479 C   0  0  0  0  0  0  0  0  0  0  0  0
   -5.0451   -1.0316    4.0675 C   0  0  0  0  0  0  0  0  0  0  0  0
   -5.9335   -1.4649    3.6338 H   0  0  0  0  0  0  0  0  0  0  0  0
   -4.4950   -1.5341    5.2328 C   0  0  0  0  0  0  0  0  0  0  0  0
   -4.9509   -2.3680    5.7427 H   0  0  0  0  0  0  0  0  0  0  0  0
   -3.3341   -0.9694    5.7338 C   0  0  0  0  0  3  0  0  0  0  0  0
   -2.8530   -1.3595    6.6313 H   0  0  0  0  0  0  0  0  0  0  0  0
   -3.2772    0.5888    4.0473 C   0  0  0  0  0  0  0  0  0  0  0  0
   -2.7937    1.4691    3.6333 H   0  0  0  0  0  0  0  0  0  0  0  0
  1  3  1  0  0  0  0
  1  6  1  0  0  0  0
  2  1  1  0  0  0  0
  3  4  1  0  0  0  0
  4  5  1  0  0  0  0
  4  8  1  0  0  0  0
  7 46  1  0  0  0  0
  7  1  1  0  0  0  0
  8  9  1  0  0  0  0
 10 11  1  0  0  0  0
 10  8  2  0  0  0  0
 12 10  1  0  0  0  0
 13 12  1  0  0  0  0
 14 12  2  0  0  0  0
 14  3  1  0  0  0  0
 15 14  1  0  0  0  0
 16 15  3  0  0  0  0
 17 16  1  0  0  0  0
 18 19  1  0  0  0  0
 18 17  2  0  0  0  0
 20 18  1  0  0  0  0
 21 20  1  0  0  0  0
 22 20  2  0  0  0  0
 22 24  1  0  0  0  0
 23 22  1  0  0  0  0
 24 25  2  0  0  0  0
 25 26  1  0  0  0  0
 25 17  1  0  0  0  0
 27 24  1  0  0  0  0
 28 27  3  0  0  0  0
 29 28  1  0  0  0  0
 29 38  1  0  0  0  0
 30 29  2  0  0  0  0
 31 30  1  0  0  0  0
 32 30  1  0  0  0  0
 32 34  2  0  0  0  0
 33 32  1  0  0  0  0
 34 36  1  0  0  0  0
 35 34  1  0  0  0  0
 36 38  2  0  0  0  0
 36 37  1  0  0  0  0
 38 39  1  0  0  0  0
 39 40  3  0  0  0  0
 40 41  1  0  0  0  0
 41 48  2  0  0  0  0
 41 42  1  0  0  0  0
 42 44  2  0  0  0  0
 43 42  1  0  0  0  0
 44 46  1  0  0  0  0
 44 45  1  0  0  0  0
 46 47  1  0  0  0  0
 48  7  1  0  0  0  0
 49 48  1  0  0  0  0
M  END
$$$$
