CSD_code = TEPYEU | q = 0 | S = 0 | Stoichiometry = C24H33ClIrN | MND = 8
 OpenBabel04212202103D

 60 62  0  0  1  0  0  0  0  0999 V2000
    1.5023    1.1147    3.8106 Ir  0  0  0  0  0  0  0  0  0  0  0  0
    2.0160    2.7360    5.4151 Cl  0  0  0  0  0 15  0  0  0  0  0  0
    3.2861    0.1817    4.3258 N   0  0  0  0  0  0  0  0  0  0  0  0
    3.2515   -0.6737    5.3055 C   0  0  0  0  0  0  0  0  0  0  0  0
    1.9459   -0.8755    5.8934 C   0  0  0  0  0  0  0  0  0  0  0  0
    0.9400   -0.0461    5.3497 C   0  0  0  0  0  0  0  0  0  0  0  0
   -0.3175   -0.0611    5.9385 C   0  0  0  0  0  0  0  0  0  0  0  0
   -0.6019   -0.9177    6.9871 C   0  0  0  0  0  0  0  0  0  0  0  0
    0.3769   -1.7677    7.4841 C   0  0  0  0  0  0  0  0  0  0  0  0
    1.6475   -1.7382    6.9527 C   0  0  0  0  0  0  0  0  0  0  0  0
    4.4658   -1.3602    5.8545 C   0  0  0  0  0  0  0  0  0  0  0  0
    4.5633    0.5337    3.7254 C   0  0  0  0  0  0  0  0  0  0  0  0
    4.8340   -0.3536    2.5038 C   0  0  0  0  0  0  0  0  0  0  0  0
    6.1898   -0.0152    1.8929 C   0  0  0  0  0  0  0  0  0  0  0  0
    6.2507    1.4576    1.4996 C   0  0  0  0  0  0  0  0  0  0  0  0
    5.9577    2.3451    2.7059 C   0  0  0  0  0  0  0  0  0  0  0  0
    4.6013    2.0062    3.3161 C   0  0  0  0  0  0  0  0  0  0  0  0
    0.8873    2.7089    2.0916 C   0  0  0  0  0  0  0  0  0  0  0  0
   -0.1971    2.1657    2.8974 C   0  0  1  0  0  0  0  0  0  0  0  0
   -0.3262    0.7833    2.5734 C   0  0  0  0  0  0  0  0  0  0  0  0
    0.7995    0.4383    1.7603 C   0  0  0  0  0  0  0  0  0  0  0  0
    1.4704    1.6666    1.3787 C   0  0  0  0  0  0  0  0  0  0  0  0
    2.4638    1.7863    0.2670 C   0  0  0  0  0  0  0  0  0  0  0  0
    0.9624   -0.8763    1.0620 C   0  0  0  0  0  0  0  0  0  0  0  0
   -1.4891   -0.1227    2.8429 C   0  0  0  0  0  0  0  0  0  0  0  0
   -1.2057    3.0360    3.5824 C   0  0  0  0  0  0  0  0  0  0  0  0
    1.2147    4.1641    2.0304 C   0  0  0  0  0  0  0  0  0  0  0  0
   -1.0861    0.6110    5.5909 H   0  0  0  0  0  0  0  0  0  0  0  0
   -1.5893   -0.9207    7.4261 H   0  0  0  0  0  0  0  0  0  0  0  0
    0.1483   -2.4364    8.3009 H   0  0  0  0  0  0  0  0  0  0  0  0
    2.4055   -2.3812    7.3746 H   0  0  0  0  0  0  0  0  0  0  0  0
    5.0979   -1.7494    5.0602 H   0  0  0  0  0  0  0  0  0  0  0  0
    4.1805   -2.1850    6.4976 H   0  0  0  0  0  0  0  0  0  0  0  0
    5.0480   -0.6547    6.4482 H   0  0  0  0  0  0  0  0  0  0  0  0
    5.3658    0.3815    4.4565 H   0  0  0  0  0  0  0  0  0  0  0  0
    4.0445   -0.1869    1.7717 H   0  0  0  0  0  0  0  0  0  0  0  0
    4.8000   -1.4075    2.7898 H   0  0  0  0  0  0  0  0  0  0  0  0
    6.9776   -0.2282    2.6199 H   0  0  0  0  0  0  0  0  0  0  0  0
    6.3663   -0.6444    1.0175 H   0  0  0  0  0  0  0  0  0  0  0  0
    5.5161    1.6538    0.7163 H   0  0  0  0  0  0  0  0  0  0  0  0
    7.2378    1.6916    1.0952 H   0  0  0  0  0  0  0  0  0  0  0  0
    6.7401    2.2049    3.4557 H   0  0  0  0  0  0  0  0  0  0  0  0
    5.9704    3.3948    2.4073 H   0  0  0  0  0  0  0  0  0  0  0  0
    4.4138    2.6278    4.1923 H   0  0  0  0  0  0  0  0  0  0  0  0
    3.8138    2.2039    2.5913 H   0  0  0  0  0  0  0  0  0  0  0  0
    1.9308    1.9257   -0.6773 H   0  0  0  0  0  0  0  0  0  0  0  0
    3.0704    0.8879    0.1688 H   0  0  0  0  0  0  0  0  0  0  0  0
    3.1239    2.6418    0.4038 H   0  0  0  0  0  0  0  0  0  0  0  0
    0.5739   -1.6868    1.6743 H   0  0  0  0  0  0  0  0  0  0  0  0
    2.0065   -1.0870    0.8391 H   0  0  0  0  0  0  0  0  0  0  0  0
    0.4131   -0.8670    0.1178 H   0  0  0  0  0  0  0  0  0  0  0  0
   -1.9575   -0.3909    1.8943 H   0  0  0  0  0  0  0  0  0  0  0  0
   -2.2342    0.3711    3.4597 H   0  0  0  0  0  0  0  0  0  0  0  0
   -1.1839   -1.0404    3.3424 H   0  0  0  0  0  0  0  0  0  0  0  0
   -1.7702    3.6076    2.8430 H   0  0  0  0  0  0  0  0  0  0  0  0
   -0.7102    3.7384    4.2499 H   0  0  0  0  0  0  0  0  0  0  0  0
   -1.9060    2.4465    4.1687 H   0  0  0  0  0  0  0  0  0  0  0  0
    2.1028    4.3470    1.4298 H   0  0  0  0  0  0  0  0  0  0  0  0
    1.3892    4.5528    3.0335 H   0  0  0  0  0  0  0  0  0  0  0  0
    0.3821    4.7188    1.5945 H   0  0  0  0  0  0  0  0  0  0  0  0
  1  3  1  0  0  0  0
  1  6  2  0  0  0  0
  3  4  1  0  0  0  0
  4 11  1  0  0  0  0
  4  5  2  0  0  0  0
  5 10  1  0  0  0  0
  6  5  1  0  0  0  0
  6  7  1  0  0  0  0
  7  8  2  0  0  0  0
  8 29  1  0  0  0  0
  8  9  1  0  0  0  0
  9 30  1  0  0  0  0
 10 31  1  0  0  0  0
 10  9  2  0  0  0  0
 11 34  1  0  0  0  0
 11 33  1  0  0  0  0
 12  3  1  0  0  0  0
 12 35  1  0  0  0  0
 13 37  1  0  0  0  0
 13 12  1  0  0  0  0
 14 13  1  0  0  0  0
 14 38  1  0  0  0  0
 15 14  1  0  0  0  0
 15 16  1  0  0  0  0
 16 17  1  0  0  0  0
 16 42  1  0  0  0  0
 17 12  1  0  0  0  0
 17 44  1  0  0  0  0
 18 19  1  0  0  0  0
 19 26  1  1  0  0  0
 19  1  1  0  0  0  0
 20 25  1  0  0  0  0
 20 19  1  0  0  0  0
 21 20  2  0  0  0  0
 22 21  1  0  0  0  0
 22 18  2  0  0  0  0
 23 48  1  0  0  0  0
 23 22  1  0  0  0  0
 24 49  1  0  0  0  0
 24 21  1  0  0  0  0
 25 54  1  0  0  0  0
 25 53  1  0  0  0  0
 26 57  1  0  0  0  0
 26 56  1  0  0  0  0
 27 18  1  0  0  0  0
 27 59  1  0  0  0  0
 28  7  1  0  0  0  0
 32 11  1  0  0  0  0
 36 13  1  0  0  0  0
 39 14  1  0  0  0  0
 40 15  1  0  0  0  0
 41 15  1  0  0  0  0
 43 16  1  0  0  0  0
 45 17  1  0  0  0  0
 46 23  1  0  0  0  0
 47 23  1  0  0  0  0
 50 24  1  0  0  0  0
 51 24  1  0  0  0  0
 52 25  1  0  0  0  0
 55 26  1  0  0  0  0
 58 27  1  0  0  0  0
 60 27  1  0  0  0  0
M  END
$$$$
