CSD_code = TEQFON | q = 1 | S = 0 | Stoichiometry = C22H22ClN6ORuS(1+) | MND = 6
 OpenBabel04212202103D

 54 60  0  0  1  0  0  0  0  0999 V2000
    9.7295    2.8748    0.2286 Ru  0  0  0  0  0  0  0  0  0  0  0  0
    9.0116    1.6666   -1.6601 Cl  0  0  0  0  0  0  0  0  0  0  0  0
   10.4251    4.1620    2.0081 S   0  0  0  0  0  0  0  0  0  0  0  0
   10.7371    4.3336   -2.1350 C   0  0  0  0  0  3  0  0  0  0  0  0
    9.6706    4.3675   -2.3147 H   0  0  0  0  0  0  0  0  0  0  0  0
   11.6089    4.9094   -3.0334 C   0  0  0  0  0  0  0  0  0  0  0  0
   11.2294    5.4141   -3.9057 H   0  0  0  0  0  0  0  0  0  0  0  0
   12.9731    4.8257   -2.7827 C   0  0  0  0  0  0  0  0  0  0  0  0
   13.6906    5.2913   -3.4389 H   0  0  0  0  0  0  0  0  0  0  0  0
   13.3894    4.0940   -1.6928 C   0  0  0  0  0  0  0  0  0  0  0  0
   14.4399    3.9582   -1.4881 H   0  0  0  0  0  0  0  0  0  0  0  0
   12.4379    3.4982   -0.8555 C   0  0  0  0  0  0  0  0  0  0  0  0
   12.3360    1.6053    0.7871 C   0  0  2  0  0  3  0  0  0  0  0  0
   13.1704    0.6793    1.4234 C   0  0  0  0  0  0  0  0  0  0  0  0
   14.2414    0.7846    1.3538 H   0  0  0  0  0  0  0  0  0  0  0  0
   12.6057   -0.3619    2.1337 C   0  0  0  0  0  0  0  0  0  0  0  0
   13.2315   -1.0887    2.6253 H   0  0  0  0  0  0  0  0  0  0  0  0
   11.2246   -0.4499    2.2162 C   0  0  0  0  0  0  0  0  0  0  0  0
   10.7630   -1.2313    2.7944 H   0  0  0  0  0  0  0  0  0  0  0  0
   10.4482    0.4941    1.5547 C   0  0  0  0  0  0  0  0  0  0  0  0
    8.9859    0.5170    1.5807 C   0  0  2  0  0  3  0  0  0  0  0  0
    8.2144   -0.5768    1.9482 C   0  0  0  0  0  0  0  0  0  0  0  0
    8.6804   -1.4869    2.2839 H   0  0  0  0  0  0  0  0  0  0  0  0
    6.8349   -0.5006    1.8232 C   0  0  0  0  0  0  0  0  0  0  0  0
    6.2120   -1.3358    2.0992 H   0  0  0  0  0  0  0  0  0  0  0  0
    6.2792    0.6433    1.2917 C   0  0  0  0  0  0  0  0  0  0  0  0
    5.2162    0.7138    1.1243 H   0  0  0  0  0  0  0  0  0  0  0  0
    7.1128    1.7112    0.9330 C   0  0  0  0  0  0  0  0  0  0  0  0
    6.9884    4.0131   -0.1054 C   0  0  2  0  0  3  0  0  0  0  0  0
    6.0236    4.9539   -0.5049 C   0  0  0  0  0  0  0  0  0  0  0  0
    4.9832    4.6699   -0.5271 H   0  0  0  0  0  0  0  0  0  0  0  0
    6.4119    6.2260   -0.8546 C   0  0  0  0  0  0  0  0  0  0  0  0
    5.6844    6.9565   -1.1694 H   0  0  0  0  0  0  0  0  0  0  0  0
    7.7628    6.5518   -0.7631 C   0  0  0  0  0  0  0  0  0  0  0  0
    8.1147    7.5470   -0.9747 H   0  0  0  0  0  0  0  0  0  0  0  0
    8.6545    5.5654   -0.4070 C   0  0  0  0  0  0  0  0  0  0  0  0
    9.7108    5.7898   -0.3181 H   0  0  0  0  0  0  0  0  0  0  0  0
    9.0700    4.8768    3.0061 C   0  0  0  0  0  0  0  0  0  0  0  0
    9.4935    5.5107    3.7767 H   0  0  0  0  0  0  0  0  0  0  0  0
    8.5037    4.0587    3.4378 H   0  0  0  0  0  0  0  0  0  0  0  0
    8.4392    5.4718    2.3538 H   0  0  0  0  0  0  0  0  0  0  0  0
   11.3055    3.4016    3.4220 C   0  0  0  0  0  0  0  0  0  0  0  0
   12.2507    3.0027    3.0703 H   0  0  0  0  0  0  0  0  0  0  0  0
   10.6876    2.6090    3.8296 H   0  0  0  0  0  0  0  0  0  0  0  0
   11.4919    4.1728    4.1605 H   0  0  0  0  0  0  0  0  0  0  0  0
   11.1285    3.6898   -1.0286 N   0  0  0  0  0  0  0  0  0  0  0  0
   12.9165    2.6834    0.1577 N   0  0  0  0  0  0  0  0  0  0  0  0
   13.9274    2.6857    0.2165 H   0  0  0  0  0  0  0  0  0  0  0  0
   11.0058    1.4924    0.8334 N   0  0  0  0  0  0  0  0  0  0  0  0
    8.4300    1.6751    1.1485 N   0  0  0  0  0  0  0  0  0  0  0  0
    6.5151    2.8083    0.3587 N   0  0  0  0  0  0  0  0  0  0  0  0
    5.5219    2.6849    0.2074 H   0  0  0  0  0  0  0  0  0  0  0  0
    8.2956    4.3021   -0.1249 N   0  0  0  0  0  0  0  0  0  0  0  0
   11.2459    5.2699    1.5484 O   0  0  0  0  0  1  0  0  0  0  0  0
  1 49  1  0  0  0  0
  1 50  1  0  0  0  0
  1  3  1  0  0  0  0
  2  1  1  0  0  0  0
  3 38  1  0  0  0  0
  3 42  1  0  0  0  0
  4 46  1  0  0  0  0
  5  4  1  0  0  0  0
  6  8  2  0  0  0  0
  6  4  1  0  0  0  0
  7  6  1  0  0  0  0
  8 10  1  0  0  0  0
  9  8  1  0  0  0  0
 10 11  1  0  0  0  0
 10 12  2  0  0  0  0
 12 47  1  0  0  0  0
 13 49  1  0  0  0  0
 13 14  1  1  0  0  0
 14 16  2  0  0  0  0
 15 14  1  0  0  0  0
 16 18  1  0  0  0  0
 16 17  1  0  0  0  0
 18 19  1  0  0  0  0
 20 18  2  0  0  0  0
 21 20  1  6  0  0  0
 21 22  1  0  0  0  0
 22 23  1  0  0  0  0
 24 22  2  0  0  0  0
 24 25  1  0  0  0  0
 26 24  1  0  0  0  0
 27 26  1  0  0  0  0
 28 50  1  0  0  0  0
 28 26  2  0  0  0  0
 29 30  1  1  0  0  0
 29 51  1  0  0  0  0
 31 30  1  0  0  0  0
 32 34  1  0  0  0  0
 32 30  2  0  0  0  0
 33 32  1  0  0  0  0
 34 36  2  0  0  0  0
 35 34  1  0  0  0  0
 36 37  1  0  0  0  0
 36 53  1  0  0  0  0
 38 40  1  0  0  0  0
 38 39  1  0  0  0  0
 41 38  1  0  0  0  0
 42 44  1  0  0  0  0
 42 45  1  0  0  0  0
 43 42  1  0  0  0  0
 46 12  1  0  0  0  0
 46  1  1  0  0  0  0
 47 48  1  0  0  0  0
 47 13  1  0  0  0  0
 49 20  1  0  0  0  0
 50 21  1  0  0  0  0
 51 28  1  0  0  0  0
 52 51  1  0  0  0  0
 53 29  1  0  0  0  0
 53  1  1  0  0  0  0
 54  3  1  0  0  0  0
M  END
$$$$
