CSD_code = TEQYOF | q = 0 | S = 0 | Stoichiometry = C22H19AuCl3N3 | MND = 4
 OpenBabel04212202103D

 48 52  0  0  0  0  0  0  0  0999 V2000
    0.1141    4.3622    3.2942 Au  0  0  0  0  0  0  0  0  0  0  0  0
   -0.2988    5.8417    4.9377 Cl  0  0  0  0  0  0  0  0  0  0  0  0
    2.1146    3.7052    4.1934 Cl  0  0  0  0  0  0  0  0  0  0  0  0
   -1.8064    4.8887    2.1820 Cl  0  0  0  0  0  0  0  0  0  0  0  0
    0.8516    1.0991    0.8206 C   0  0  0  0  0  0  0  0  0  0  0  0
    0.9728   -0.2305    0.4410 C   0  0  0  0  0  0  0  0  0  0  0  0
    0.7029   -1.0345    1.1060 H   0  0  0  0  0  0  0  0  0  0  0  0
    1.4602   -0.4763   -0.8268 C   0  0  0  0  0  0  0  0  0  0  0  0
    1.5721   -1.4957   -1.1611 H   0  0  0  0  0  0  0  0  0  0  0  0
    1.8150    0.5618   -1.6906 C   0  0  0  0  0  0  0  0  0  0  0  0
    2.1924    0.3193   -2.6716 H   0  0  0  0  0  0  0  0  0  0  0  0
    1.6971    1.8866   -1.3214 C   0  0  0  0  0  0  0  0  0  0  0  0
    1.9734    2.6813   -1.9953 H   0  0  0  0  0  0  0  0  0  0  0  0
    1.2080    2.1444   -0.0481 C   0  0  0  0  0  0  0  0  0  0  0  0
    0.9626    3.3151    0.6379 N   0  0  0  0  0  0  0  0  0  0  0  0
    0.4988    3.0207    1.8584 C   0  0  0  0  0  0  0  0  0  0  0  0
    0.4159    1.6935    1.9857 N   0  0  0  0  0  0  0  0  0  0  0  0
    1.2394    4.6395    0.1549 C   0  0  0  0  0  0  0  0  0  0  0  0
    0.5083    5.3310    0.5824 H   0  0  0  0  0  0  0  0  0  0  0  0
    1.1321    4.6500   -0.9320 H   0  0  0  0  0  0  0  0  0  0  0  0
    2.6639    5.0923    0.5508 C   0  0  0  0  0  0  0  0  0  0  0  0
    2.7960    4.9617    1.6297 H   0  0  0  0  0  0  0  0  0  0  0  0
    3.4073    4.4739    0.0396 H   0  0  0  0  0  0  0  0  0  0  0  0
    2.8656    6.4625    0.2072 N   0  0  0  0  0  0  0  0  0  0  0  0
    2.4454    7.5373    0.9670 C   0  0  0  0  0  0  0  0  0  0  0  0
    1.8794    7.5572    2.2317 C   0  0  0  0  0  0  0  0  0  0  0  0
    1.6921    6.6483    2.7871 H   0  0  0  0  0  0  0  0  0  0  0  0
    1.5519    8.7842    2.7753 C   0  0  0  0  0  0  0  0  0  0  0  0
    1.1030    8.8178    3.7562 H   0  0  0  0  0  0  0  0  0  0  0  0
    1.7845    9.9686    2.0801 C   0  0  0  0  0  0  0  0  0  0  0  0
    1.5152   10.9089    2.5373 H   0  0  0  0  0  0  0  0  0  0  0  0
    2.3490    9.9562    0.8201 C   0  0  0  0  0  0  0  0  0  0  0  0
    2.5274   10.8750    0.2819 H   0  0  0  0  0  0  0  0  0  0  0  0
    2.6813    8.7327    0.2522 C   0  0  0  0  0  0  0  0  0  0  0  0
    3.2474    8.3473   -1.0114 C   0  0  0  0  0  0  0  0  0  0  0  0
    3.6747    9.0584   -2.1242 C   0  0  0  0  0  0  0  0  0  0  0  0
    3.6213   10.1363   -2.1372 H   0  0  0  0  0  0  0  0  0  0  0  0
    4.1659    8.3593   -3.2094 C   0  0  0  0  0  0  0  0  0  0  0  0
    4.5022    8.8939   -4.0850 H   0  0  0  0  0  0  0  0  0  0  0  0
    4.2346    6.9690   -3.1944 C   0  0  0  0  0  0  0  0  0  0  0  0
    4.6216    6.4492   -4.0586 H   0  0  0  0  0  0  0  0  0  0  0  0
    3.8169    6.2390   -2.0970 C   0  0  0  0  0  0  0  0  0  0  0  0
    3.8819    5.1601   -2.1014 H   0  0  0  0  0  0  0  0  0  0  0  0
    3.3254    6.9347   -1.0029 C   0  0  0  0  0  0  0  0  0  0  0  0
   -0.0212    0.9728    3.1487 C   0  0  0  0  0  0  0  0  0  0  0  0
   -0.4433    1.6688    3.8711 H   0  0  0  0  0  0  0  0  0  0  0  0
    0.8252    0.4597    3.6089 H   0  0  0  0  0  0  0  0  0  0  0  0
   -0.7801    0.2424    2.8665 H   0  0  0  0  0  0  0  0  0  0  0  0
  1  3  1  0  0  0  0
  1  2  1  0  0  0  0
  4  1  1  0  0  0  0
  5 17  1  0  0  0  0
  6  5  1  0  0  0  0
  6  7  1  0  0  0  0
  8  6  2  0  0  0  0
  9  8  1  0  0  0  0
 10 12  2  0  0  0  0
 10  8  1  0  0  0  0
 11 10  1  0  0  0  0
 12 14  1  0  0  0  0
 13 12  1  0  0  0  0
 14 15  1  0  0  0  0
 14  5  2  0  0  0  0
 15 16  1  0  0  0  0
 16 17  1  0  0  0  0
 16  1  2  0  0  0  0
 17 45  1  0  0  0  0
 18 21  1  0  0  0  0
 18 19  1  0  0  0  0
 18 15  1  0  0  0  0
 20 18  1  0  0  0  0
 21 22  1  0  0  0  0
 23 21  1  0  0  0  0
 24 21  1  0  0  0  0
 24 25  1  0  0  0  0
 25 26  1  0  0  0  0
 26 28  2  0  0  0  0
 26 27  1  0  0  0  0
 28 29  1  0  0  0  0
 30 31  1  0  0  0  0
 30 28  1  0  0  0  0
 32 30  2  0  0  0  0
 33 32  1  0  0  0  0
 34 32  1  0  0  0  0
 34 25  2  0  0  0  0
 35 44  1  0  0  0  0
 35 34  1  0  0  0  0
 36 35  2  0  0  0  0
 37 36  1  0  0  0  0
 38 40  2  0  0  0  0
 38 36  1  0  0  0  0
 39 38  1  0  0  0  0
 40 42  1  0  0  0  0
 41 40  1  0  0  0  0
 42 44  2  0  0  0  0
 43 42  1  0  0  0  0
 44 24  1  0  0  0  0
 45 47  1  0  0  0  0
 45 46  1  0  0  0  0
 48 45  1  0  0  0  0
M  END
$$$$
