CSD_code = TERCIE | q = 0 | S = 0 | Stoichiometry = C15H29Cl2N3Pd | MND = 4
 OpenBabel04212202103D

 50 51  0  0  1  0  0  0  0  0999 V2000
    0.1090    8.1010   14.9123 C   0  0  1  0  0  3  0  0  0  0  0  0
    1.1109    7.5927   14.0695 C   0  0  0  0  0  0  0  0  0  0  0  0
    1.2227    6.5796   13.7427 H   0  0  0  0  0  0  0  0  0  0  0  0
    1.9214    8.6611   13.7469 C   0  0  0  0  0  0  0  0  0  0  0  0
   -1.0124    7.4067   15.5920 C   0  0  0  0  0  0  0  0  0  0  0  0
   -1.4008    8.0529   16.3862 H   0  0  0  0  0  0  0  0  0  0  0  0
   -0.6831    6.4572   16.0086 H   0  0  0  0  0  0  0  0  0  0  0  0
   -1.8202    7.2179   14.8868 H   0  0  0  0  0  0  0  0  0  0  0  0
    3.1329    8.7225   12.8901 C   0  0  0  0  0  0  0  0  0  0  0  0
    2.9795    9.3998   12.0500 H   0  0  0  0  0  0  0  0  0  0  0  0
    3.3462    7.7326   12.4980 H   0  0  0  0  0  0  0  0  0  0  0  0
    3.9995    9.0658   13.4551 H   0  0  0  0  0  0  0  0  0  0  0  0
    1.8997   11.0893   14.4579 C   0  0  0  0  0  0  0  0  0  0  0  0
    1.0633   11.7883   14.2702 H   0  0  0  0  0  0  0  0  0  0  0  0
    2.6680   11.2313   13.6969 H   0  0  0  0  0  0  0  0  0  0  0  0
    2.4741   11.3584   15.8652 C   0  0  0  0  0  0  0  0  0  0  0  0
    3.1386   10.5291   16.1303 H   0  0  0  0  0  0  0  0  0  0  0  0
    3.0659   12.2808   15.8329 H   0  0  0  0  0  0  0  0  0  0  0  0
    1.6879   10.8447   18.1567 C   0  0  0  0  0  0  0  0  0  0  0  0
    1.9793    9.7983   18.0112 H   0  0  0  0  0  0  0  0  0  0  0  0
    0.7546   10.8675   18.7338 H   0  0  0  0  0  0  0  0  0  0  0  0
    2.7732   11.5945   18.9343 C   0  0  0  0  0  0  0  0  0  0  0  0
    2.4923   12.6482   19.0037 H   0  0  0  0  0  0  0  0  0  0  0  0
    3.7278   11.5341   18.4049 H   0  0  0  0  0  0  0  0  0  0  0  0
    2.9399   11.0293   20.3427 C   0  0  0  0  0  0  0  0  0  0  0  0
    1.9839   11.0897   20.8662 H   0  0  0  0  0  0  0  0  0  0  0  0
    3.2178    9.9743   20.2819 H   0  0  0  0  0  0  0  0  0  0  0  0
    3.9982   11.7875   21.1402 C   0  0  0  0  0  0  0  0  0  0  0  0
    3.7278   12.8450   21.1807 H   0  0  0  0  0  0  0  0  0  0  0  0
    4.9621   11.7123   20.6305 H   0  0  0  0  0  0  0  0  0  0  0  0
    4.1353   11.2506   22.5626 C   0  0  0  0  0  0  0  0  0  0  0  0
    3.1690   11.3207   23.0671 H   0  0  0  0  0  0  0  0  0  0  0  0
    4.4120   10.1941   22.5264 H   0  0  0  0  0  0  0  0  0  0  0  0
    5.1800   12.0201   23.3668 C   0  0  0  0  0  0  0  0  0  0  0  0
    6.1493   11.9442   22.8679 H   0  0  0  0  0  0  0  0  0  0  0  0
    4.9055   13.0772   23.3950 H   0  0  0  0  0  0  0  0  0  0  0  0
    5.3068   11.4967   24.7954 C   0  0  0  0  0  0  0  0  0  0  0  0
    4.3370   11.5701   25.2926 H   0  0  0  0  0  0  0  0  0  0  0  0
    5.5855   10.4407   24.7695 H   0  0  0  0  0  0  0  0  0  0  0  0
    6.3448   12.2756   25.5939 C   0  0  0  0  0  0  0  0  0  0  0  0
    7.3233   12.2001   25.1242 H   0  0  0  0  0  0  0  0  0  0  0  0
    6.4197   11.8875   26.6070 H   0  0  0  0  0  0  0  0  0  0  0  0
    6.0727   13.3274   25.6486 H   0  0  0  0  0  0  0  0  0  0  0  0
    0.3090    9.3983   15.0737 N   0  0  2  0  0  0  0  0  0  0  0  0
    1.3983    9.7424   14.3725 N   0  0  0  0  0  0  0  0  0  0  0  0
    1.3975   11.4372   16.8505 N   0  0  0  0  0  4  0  0  0  0  0  0
    1.1103   12.4108   17.0067 H   0  0  0  0  0  0  0  0  0  0  0  0
   -2.6053   10.3969   15.3575 Cl  0  0  0  0  0  0  0  0  0  0  0  0
   -1.3440   12.5385   17.3989 Cl  0  0  0  0  0  0  0  0  0  0  0  0
   -0.5813   10.8469   16.1706 Pd  0  0  0  0  0  0  0  0  0  0  0  0
  1 44  1  0  0  0  0
  1  5  1  1  0  0  0
  2  1  1  0  0  0  0
  3  2  1  0  0  0  0
  4  2  2  0  0  0  0
  4 45  1  0  0  0  0
  5  7  1  0  0  0  0
  5  6  1  0  0  0  0
  8  5  1  0  0  0  0
  9 12  1  0  0  0  0
  9  4  1  0  0  0  0
 10  9  1  0  0  0  0
 11  9  1  0  0  0  0
 13 16  1  0  0  0  0
 14 13  1  0  0  0  0
 15 13  1  0  0  0  0
 16 17  1  0  0  0  0
 16 46  1  0  0  0  0
 18 16  1  0  0  0  0
 19 21  1  0  0  0  0
 19 22  1  0  0  0  0
 20 19  1  0  0  0  0
 22 23  1  0  0  0  0
 22 25  1  0  0  0  0
 24 22  1  0  0  0  0
 25 26  1  0  0  0  0
 25 28  1  0  0  0  0
 27 25  1  0  0  0  0
 28 29  1  0  0  0  0
 28 31  1  0  0  0  0
 30 28  1  0  0  0  0
 31 32  1  0  0  0  0
 31 34  1  0  0  0  0
 33 31  1  0  0  0  0
 34 36  1  0  0  0  0
 34 37  1  0  0  0  0
 35 34  1  0  0  0  0
 37 38  1  0  0  0  0
 37 40  1  0  0  0  0
 39 37  1  0  0  0  0
 40 43  1  0  0  0  0
 40 42  1  0  0  0  0
 41 40  1  0  0  0  0
 44 45  1  1  0  0  0
 44 50  1  0  0  0  0
 45 13  1  0  0  0  0
 46 47  1  0  0  0  0
 46 19  1  0  0  0  0
 48 50  1  0  0  0  0
 50 46  1  0  0  0  0
 50 49  1  0  0  0  0
M  END
$$$$
