CSD_code = TERTUG | q = 0 | S = 0 | Stoichiometry = C28H16CdCl2N8 | MND = 6
 OpenBabel04212202103D

 55 64  0  0  0  0  0  0  0  0999 V2000
    2.6819    6.5133   17.0043 Cd  0  0  0  0  0  0  0  0  0  0  0  0
    3.6611    7.8299   18.7401 Cl  0  0  0  0  0  0  0  0  0  0  0  0
    4.6706    6.4442   15.7065 N   0  0  0  0  0  0  0  0  0  0  0  0
    4.9979    6.6510   13.3372 C   0  0  0  0  0  0  0  0  0  0  0  0
    5.2454    6.7712   10.9552 N   0  0  0  0  0  0  0  0  0  0  0  0
    4.3276    6.1190   14.4533 C   0  0  0  0  0  0  0  0  0  0  0  0
    4.5833    6.2767   12.0067 C   0  0  0  0  0  0  0  0  0  0  0  0
    2.7860    4.8757   12.9691 C   0  0  0  0  0  0  0  0  0  0  0  0
    3.2068    5.2165   14.2676 C   0  0  0  0  0  0  0  0  0  0  0  0
    3.0960    5.0449   10.5981 N   0  0  0  0  0  0  0  0  0  0  0  0
    1.6677    4.0468   12.8310 C   0  0  0  0  0  0  0  0  0  0  0  0
    1.3288    3.7934   11.8383 H   0  0  0  0  0  0  0  0  0  0  0  0
    3.4915    5.4008   11.8251 C   0  0  0  0  0  0  0  0  0  0  0  0
    5.6533    7.3002   15.9016 C   0  0  0  0  0  0  0  0  0  0  0  0
    5.8706    7.5400   16.9362 H   0  0  0  0  0  0  0  0  0  0  0  0
    1.0324    3.5928   13.9651 C   0  0  0  0  0  0  0  0  0  0  0  0
    0.1600    2.9616   13.9012 H   0  0  0  0  0  0  0  0  0  0  0  0
    4.8343    6.4182    9.7572 C   0  0  0  0  0  0  0  0  0  0  0  0
    5.3800    6.8312    8.9201 H   0  0  0  0  0  0  0  0  0  0  0  0
    6.3716    7.8845   14.8567 C   0  0  0  0  0  0  0  0  0  0  0  0
    7.1607    8.5878   15.0710 H   0  0  0  0  0  0  0  0  0  0  0  0
    3.7538    5.5496    9.5776 C   0  0  0  0  0  0  0  0  0  0  0  0
    3.4177    5.2523    8.5938 H   0  0  0  0  0  0  0  0  0  0  0  0
    6.0411    7.5571   13.5610 C   0  0  0  0  0  0  0  0  0  0  0  0
    6.5506    7.9821   12.7098 H   0  0  0  0  0  0  0  0  0  0  0  0
    2.5849    4.7519   15.3577 N   0  0  0  0  0  0  0  0  0  0  0  0
    1.5338    3.9742   15.2096 C   0  0  0  0  0  0  0  0  0  0  0  0
    1.0663    3.6375   16.1270 H   0  0  0  0  0  0  0  0  0  0  0  0
    1.7058    7.8357   15.2710 Cl  0  0  0  0  0  0  0  0  0  0  0  0
    0.6933    6.4459   18.3017 N   0  0  0  0  0  0  0  0  0  0  0  0
    0.3665    6.6518   20.6711 C   0  0  0  0  0  0  0  0  0  0  0  0
    0.1186    6.7698   23.0532 N   0  0  0  0  0  0  0  0  0  0  0  0
    1.0358    6.1193   19.5547 C   0  0  0  0  0  0  0  0  0  0  0  0
    0.7810    6.2765   22.0014 C   0  0  0  0  0  0  0  0  0  0  0  0
    2.5767    4.8742   21.0379 C   0  0  0  0  0  0  0  0  0  0  0  0
    2.1549    5.2146   19.7397 C   0  0  0  0  0  0  0  0  0  0  0  0
    2.2703    5.0463   23.4092 N   0  0  0  0  0  0  0  0  0  0  0  0
    3.6939    4.0437   21.1754 C   0  0  0  0  0  0  0  0  0  0  0  0
    4.0341    3.7910   22.1678 H   0  0  0  0  0  0  0  0  0  0  0  0
    1.8731    5.4007   22.1823 C   0  0  0  0  0  0  0  0  0  0  0  0
   -0.2879    7.3039   18.1072 C   0  0  0  0  0  0  0  0  0  0  0  0
   -0.5046    7.5449   17.0728 H   0  0  0  0  0  0  0  0  0  0  0  0
    4.3265    3.5870   20.0408 C   0  0  0  0  0  0  0  0  0  0  0  0
    5.1978    2.9542   20.1041 H   0  0  0  0  0  0  0  0  0  0  0  0
    0.5305    6.4171   24.2510 C   0  0  0  0  0  0  0  0  0  0  0  0
   -0.0160    6.8286   25.0883 H   0  0  0  0  0  0  0  0  0  0  0  0
   -1.0052    7.8886   19.1525 C   0  0  0  0  0  0  0  0  0  0  0  0
   -1.7929    8.5936   18.9387 H   0  0  0  0  0  0  0  0  0  0  0  0
    1.6130    5.5509   24.4301 C   0  0  0  0  0  0  0  0  0  0  0  0
    1.9511    5.2554   25.4137 H   0  0  0  0  0  0  0  0  0  0  0  0
   -0.6752    7.5597   20.4480 C   0  0  0  0  0  0  0  0  0  0  0  0
   -1.1839    7.9850   21.2995 H   0  0  0  0  0  0  0  0  0  0  0  0
    2.7742    4.7476   18.6491 N   0  0  0  0  0  0  0  0  0  0  0  0
    3.8238    3.9677   18.7966 C   0  0  0  0  0  0  0  0  0  0  0  0
    4.2889    3.6284   17.8789 H   0  0  0  0  0  0  0  0  0  0  0  0
  1 30  1  0  0  0  0
  1 53  1  0  0  0  0
  1  2  1  0  0  0  0
  3 14  1  0  0  0  0
  3  1  1  0  0  0  0
  4 24  2  0  0  0  0
  4  6  1  0  0  0  0
  5  7  1  0  0  0  0
  6  3  1  0  0  0  0
  7  4  1  0  0  0  0
  8  9  1  0  0  0  0
  9  6  2  0  0  0  0
  9 26  1  0  0  0  0
 10 13  1  0  0  0  0
 11  8  2  0  0  0  0
 11 16  1  0  0  0  0
 12 11  1  0  0  0  0
 13  7  2  0  0  0  0
 13  8  1  0  0  0  0
 14 15  1  0  0  0  0
 16 27  2  0  0  0  0
 17 16  1  0  0  0  0
 18  5  2  0  0  0  0
 19 18  1  0  0  0  0
 20 21  1  0  0  0  0
 20 14  2  0  0  0  0
 22 18  1  0  0  0  0
 22 10  2  0  0  0  0
 23 22  1  0  0  0  0
 24 20  1  0  0  0  0
 25 24  1  0  0  0  0
 26  1  1  0  0  0  0
 27 26  1  0  0  0  0
 27 28  1  0  0  0  0
 29  1  1  0  0  0  0
 30 33  1  0  0  0  0
 31 34  1  0  0  0  0
 32 45  1  0  0  0  0
 33 36  2  0  0  0  0
 33 31  1  0  0  0  0
 34 40  1  0  0  0  0
 34 32  2  0  0  0  0
 35 38  2  0  0  0  0
 35 40  1  0  0  0  0
 36 35  1  0  0  0  0
 37 49  1  0  0  0  0
 38 39  1  0  0  0  0
 40 37  2  0  0  0  0
 41 30  1  0  0  0  0
 41 47  2  0  0  0  0
 42 41  1  0  0  0  0
 43 44  1  0  0  0  0
 43 38  1  0  0  0  0
 45 49  2  0  0  0  0
 45 46  1  0  0  0  0
 47 51  1  0  0  0  0
 48 47  1  0  0  0  0
 49 50  1  0  0  0  0
 51 31  2  0  0  0  0
 51 52  1  0  0  0  0
 53 54  1  0  0  0  0
 53 36  1  0  0  0  0
 54 43  2  0  0  0  0
 55 54  1  0  0  0  0
M  END
$$$$
