CSD_code = TERVUI | q = 0 | S = 0 | Stoichiometry = C19H23Cl4NTi | MND = 8
 OpenBabel04212202103D

 48 49  0  0  1  0  0  0  0  0999 V2000
    2.3138    8.1382    2.5710 Ti  0  0  0  0  0  0  0  0  0  0  0  0
    4.4405    8.2570    2.8817 Cl  0  0  0  0  0  0  0  0  0  0  0  0
    2.1612    9.6814    1.0677 Cl  0  0  0  0  0  0  0  0  0  0  0  0
    1.6357    9.3276    4.2395 Cl  0  0  0  0  0  0  0  0  0  0  0  0
    0.5764    3.2837    3.3002 Cl  0  0  0  0  0  0  0  0  0  0  0  0
    3.1854    3.1955    2.8590 N   0  0  0  0  0  0  0  0  0  0  0  0
    3.4890    3.9962    3.9466 C   0  0  0  0  0  0  0  0  0  0  0  0
    3.0321    5.3188    4.0580 C   0  0  0  0  0  0  0  0  0  0  0  0
    3.4006    6.0680    5.1750 C   0  0  0  0  0  0  0  0  0  0  0  0
    3.0456    7.0930    5.2579 H   0  0  0  0  0  0  0  0  0  0  0  0
    4.2135    5.5283    6.1538 C   0  0  0  0  0  0  0  0  0  0  0  0
    4.4897    6.1217    7.0117 H   0  0  0  0  0  0  0  0  0  0  0  0
    4.6837    4.2298    6.0237 C   0  0  0  0  0  0  0  0  0  0  0  0
    5.3287    3.8084    6.7797 H   0  0  0  0  0  0  0  0  0  0  0  0
    4.3310    3.4719    4.9257 C   0  0  0  0  0  0  0  0  0  0  0  0
    4.6809    2.4569    4.8159 H   0  0  0  0  0  0  0  0  0  0  0  0
    2.0675    2.8410    2.4541 C   0  0  0  0  0  0  0  0  0  0  0  0
    1.8599    1.9820    1.2399 C   0  0  0  0  0  0  0  0  0  0  0  0
    3.2179    1.6354    0.6271 C   0  0  0  0  0  0  0  0  0  0  0  0
    3.7561    2.5356    0.3479 H   0  0  0  0  0  0  0  0  0  0  0  0
    3.0758    1.0201   -0.2577 H   0  0  0  0  0  0  0  0  0  0  0  0
    3.8257    1.0886    1.3416 H   0  0  0  0  0  0  0  0  0  0  0  0
    1.1398    0.6919    1.6510 C   0  0  0  0  0  0  0  0  0  0  0  0
    1.7252    0.1502    2.3904 H   0  0  0  0  0  0  0  0  0  0  0  0
    1.0066    0.0550    0.7803 H   0  0  0  0  0  0  0  0  0  0  0  0
    0.1627    0.9096    2.0733 H   0  0  0  0  0  0  0  0  0  0  0  0
    1.0053    2.7562    0.2290 C   0  0  0  0  0  0  0  0  0  0  0  0
    0.0285    2.9859    0.6459 H   0  0  0  0  0  0  0  0  0  0  0  0
    0.8681    2.1583   -0.6685 H   0  0  0  0  0  0  0  0  0  0  0  0
    1.4911    3.6900   -0.0427 H   0  0  0  0  0  0  0  0  0  0  0  0
    2.1899    5.9349    3.0204 C   0  0  2  0  0  0  0  0  0  0  0  0
    2.5129    6.0860    1.6365 C   0  0  0  0  0  0  0  0  0  0  0  0
    1.4108    6.7178    0.9997 C   0  0  0  0  0  0  0  0  0  0  0  0
    0.4226    6.9707    1.9864 C   0  0  0  0  0  0  0  0  0  0  0  0
   -0.5738    7.3540    1.7959 H   0  0  0  0  0  0  0  0  0  0  0  0
    0.8905    6.4874    3.2355 C   0  0  0  0  0  0  0  0  0  0  0  0
    3.7749    5.6483    0.9521 C   0  0  0  0  0  0  0  0  0  0  0  0
    3.5652    4.8525    0.2352 H   0  0  0  0  0  0  0  0  0  0  0  0
    4.4958    5.2783    1.6791 H   0  0  0  0  0  0  0  0  0  0  0  0
    4.2238    6.4835    0.4079 H   0  0  0  0  0  0  0  0  0  0  0  0
    1.2716    6.9674   -0.4708 C   0  0  0  0  0  0  0  0  0  0  0  0
    2.2131    7.3114   -0.8991 H   0  0  0  0  0  0  0  0  0  0  0  0
    0.5087    7.7211   -0.6581 H   0  0  0  0  0  0  0  0  0  0  0  0
    0.9795    6.0465   -0.9813 H   0  0  0  0  0  0  0  0  0  0  0  0
    0.0819    6.4070    4.4959 C   0  0  0  0  0  0  0  0  0  0  0  0
   -0.8287    5.8334    4.3132 H   0  0  0  0  0  0  0  0  0  0  0  0
   -0.2078    7.4011    4.8408 H   0  0  0  0  0  0  0  0  0  0  0  0
    0.6501    5.9154    5.2838 H   0  0  0  0  0  0  0  0  0  0  0  0
  1  2  1  0  0  0  0
  1  4  1  0  0  0  0
  3  1  1  0  0  0  0
  6  7  1  0  0  0  0
  7  8  2  0  0  0  0
  7 15  1  0  0  0  0
  8  9  1  0  0  0  0
  9 10  1  0  0  0  0
  9 11  2  0  0  0  0
 11 12  1  0  0  0  0
 13 11  1  0  0  0  0
 13 14  1  0  0  0  0
 15 13  2  0  0  0  0
 16 15  1  0  0  0  0
 17  6  2  0  0  0  0
 17  5  1  0  0  0  0
 18 23  1  0  0  0  0
 18 17  1  0  0  0  0
 19 18  1  0  0  0  0
 19 22  1  0  0  0  0
 20 19  1  0  0  0  0
 21 19  1  0  0  0  0
 23 26  1  0  0  0  0
 23 24  1  0  0  0  0
 25 23  1  0  0  0  0
 27 28  1  0  0  0  0
 27 18  1  0  0  0  0
 29 27  1  0  0  0  0
 30 27  1  0  0  0  0
 31  1  1  1  0  0  0
 31 36  1  0  0  0  0
 31  8  1  0  0  0  0
 32 31  1  0  0  0  0
 33 32  2  0  0  0  0
 33 34  1  0  0  0  0
 34 36  2  0  0  0  0
 35 34  1  0  0  0  0
 36 45  1  0  0  0  0
 37 32  1  0  0  0  0
 37 39  1  0  0  0  0
 38 37  1  0  0  0  0
 40 37  1  0  0  0  0
 41 33  1  0  0  0  0
 42 41  1  0  0  0  0
 43 41  1  0  0  0  0
 44 41  1  0  0  0  0
 45 47  1  0  0  0  0
 45 48  1  0  0  0  0
 46 45  1  0  0  0  0
M  END
$$$$
