CSD_code = TERWET | q = 0 | S = 0 | Stoichiometry = C18H19Cl2F2NOTi | MND = 8
 OpenBabel04212202103D

 44 46  0  0  1  0  0  0  0  0999 V2000
    0.6211    0.1907    3.4519 Ti  0  0  0  0  0  0  0  0  0  0  0  0
    2.0166    1.6042    4.3313 Cl  0  0  0  0  0  0  0  0  0  0  0  0
    0.8090    0.9276    1.4150 Cl  0  0  0  0  0  0  0  0  0  0  0  0
   -4.4109   -0.9855    6.2379 F   0  0  0  0  0  0  0  0  0  0  0  0
   -1.5740   -4.1075    8.2884 F   0  0  0  0  0  0  0  0  0  0  0  0
   -0.8137    0.8390    4.1040 O   0  0  0  0  0  0  0  0  0  0  0  0
   -2.6910   -0.4585    4.3176 N   0  0  0  0  0  0  0  0  0  0  0  0
   -1.0442   -2.0207    5.3665 C   0  0  0  0  0  0  0  0  0  0  0  0
   -0.8333   -2.9583    6.3757 C   0  0  0  0  0  0  0  0  0  0  0  0
    0.0975   -3.5013    6.4200 H   0  0  0  0  0  0  0  0  0  0  0  0
    1.3665   -1.8187    2.5265 C   0  0  0  0  0  0  0  0  0  0  0  0
    1.6939   -2.0124    1.5111 H   0  0  0  0  0  0  0  0  0  0  0  0
    0.0584   -1.7947    4.4124 C   0  0  0  0  0  0  0  0  0  0  0  0
    0.0375   -1.9883    2.9990 C   0  0  0  0  0  0  0  0  0  0  0  0
   -2.0591    0.5216    3.8152 C   0  0  0  0  0  0  0  0  0  0  0  0
    1.3994   -1.4714    4.7912 C   0  0  1  0  0  0  0  0  0  0  0  0
   -3.2357   -1.6377    6.2763 C   0  0  0  0  0  0  0  0  0  0  0  0
   -2.2760   -1.3415    5.2975 C   0  0  0  0  0  0  0  0  0  0  0  0
    2.1959   -1.4953    3.6184 C   0  0  0  0  0  0  0  0  0  0  0  0
    3.2723   -1.3724    3.5900 H   0  0  0  0  0  0  0  0  0  0  0  0
   -1.1137   -2.4988    2.1844 C   0  0  0  0  0  0  0  0  0  0  0  0
   -2.0676   -2.1943    2.6125 H   0  0  0  0  0  0  0  0  0  0  0  0
   -1.0893   -3.5910    2.1600 H   0  0  0  0  0  0  0  0  0  0  0  0
   -1.0468   -2.1351    1.1587 H   0  0  0  0  0  0  0  0  0  0  0  0
   -3.0259   -2.5435    7.2947 C   0  0  0  0  0  0  0  0  0  0  0  0
   -3.7865   -2.7317    8.0340 H   0  0  0  0  0  0  0  0  0  0  0  0
   -1.8107   -3.2035    7.3183 C   0  0  0  0  0  0  0  0  0  0  0  0
    1.8999   -1.2285    6.1837 C   0  0  0  0  0  0  0  0  0  0  0  0
    1.0905   -0.8981    6.8354 H   0  0  0  0  0  0  0  0  0  0  0  0
    2.6806   -0.4671    6.1766 H   0  0  0  0  0  0  0  0  0  0  0  0
    2.3256   -2.1442    6.5999 H   0  0  0  0  0  0  0  0  0  0  0  0
   -2.7834    1.4157    2.8156 C   0  0  0  0  0  0  0  0  0  0  0  0
   -2.0647    2.7650    2.7212 C   0  0  0  0  0  0  0  0  0  0  0  0
   -2.0276    3.2449    3.6991 H   0  0  0  0  0  0  0  0  0  0  0  0
   -2.6013    3.4172    2.0363 H   0  0  0  0  0  0  0  0  0  0  0  0
   -1.0421    2.6431    2.3545 H   0  0  0  0  0  0  0  0  0  0  0  0
   -2.7609    0.7018    1.4565 C   0  0  0  0  0  0  0  0  0  0  0  0
   -1.7350    0.4894    1.1510 H   0  0  0  0  0  0  0  0  0  0  0  0
   -3.2214    1.3375    0.7040 H   0  0  0  0  0  0  0  0  0  0  0  0
   -3.3201   -0.2288    1.5149 H   0  0  0  0  0  0  0  0  0  0  0  0
   -4.2306    1.6148    3.2745 C   0  0  0  0  0  0  0  0  0  0  0  0
   -4.2609    2.1537    4.2179 H   0  0  0  0  0  0  0  0  0  0  0  0
   -4.7133    0.6531    3.4180 H   0  0  0  0  0  0  0  0  0  0  0  0
   -4.7797    2.1842    2.5289 H   0  0  0  0  0  0  0  0  0  0  0  0
  1  6  1  0  0  0  0
  1  2  1  0  0  0  0
  1 16  1  0  0  0  0
  3  1  1  0  0  0  0
  4 17  1  0  0  0  0
  7 18  1  0  0  0  0
  8  9  1  0  0  0  0
  9 10  1  0  0  0  0
  9 27  2  0  0  0  0
 11 14  1  0  0  0  0
 11 19  2  0  0  0  0
 12 11  1  0  0  0  0
 13 16  1  0  0  0  0
 13  8  1  0  0  0  0
 14 13  2  0  0  0  0
 15  6  1  0  0  0  0
 15  7  2  0  0  0  0
 16 28  1  1  0  0  0
 17 25  2  0  0  0  0
 18  8  2  0  0  0  0
 18 17  1  0  0  0  0
 19 16  1  0  0  0  0
 20 19  1  0  0  0  0
 21 22  1  0  0  0  0
 21 14  1  0  0  0  0
 23 21  1  0  0  0  0
 24 21  1  0  0  0  0
 25 27  1  0  0  0  0
 25 26  1  0  0  0  0
 27  5  1  0  0  0  0
 28 31  1  0  0  0  0
 28 29  1  0  0  0  0
 30 28  1  0  0  0  0
 32 41  1  0  0  0  0
 32 15  1  0  0  0  0
 33 32  1  0  0  0  0
 33 34  1  0  0  0  0
 35 33  1  0  0  0  0
 36 33  1  0  0  0  0
 37 40  1  0  0  0  0
 37 32  1  0  0  0  0
 38 37  1  0  0  0  0
 39 37  1  0  0  0  0
 41 43  1  0  0  0  0
 41 42  1  0  0  0  0
 44 41  1  0  0  0  0
M  END
$$$$
