CSD_code = TERWOD | q = 0 | S = 0 | Stoichiometry = C18H21Cl4NTi | MND = 8
 OpenBabel04212202103D

 45 46  0  0  1  0  0  0  0  0999 V2000
   13.5771    1.5850    3.2577 Ti  0  0  0  0  0  0  0  0  0  0  0  0
   13.0124    3.6239    2.8663 Cl  0  0  0  0  0  0  0  0  0  0  0  0
   12.8803    1.4836    5.2965 Cl  0  0  0  0  0  0  0  0  0  0  0  0
   15.6650    1.8984    3.6860 Cl  0  0  0  0  0  0  0  0  0  0  0  0
   13.4321   -1.3585   -1.0935 Cl  0  0  0  0  0  0  0  0  0  0  0  0
   11.8090    0.7094   -1.3751 N   0  0  0  0  0  0  0  0  0  0  0  0
   12.8378    1.6265   -1.2260 C   0  0  0  0  0  0  0  0  0  0  0  0
   13.5661    1.7401   -0.0312 C   0  0  0  0  0  0  0  0  0  0  0  0
   14.5841    2.6884    0.0527 C   0  0  0  0  0  0  0  0  0  0  0  0
   15.1482    2.7690    0.9798 H   0  0  0  0  0  0  0  0  0  0  0  0
   14.8647    3.5212   -1.0144 C   0  0  0  0  0  0  0  0  0  0  0  0
   15.6556    4.2508   -0.9348 H   0  0  0  0  0  0  0  0  0  0  0  0
   14.1201    3.4250   -2.1805 C   0  0  0  0  0  0  0  0  0  0  0  0
   14.3282    4.0814   -3.0118 H   0  0  0  0  0  0  0  0  0  0  0  0
   13.1105    2.4893   -2.2848 C   0  0  0  0  0  0  0  0  0  0  0  0
   12.5329    2.3949   -3.1915 H   0  0  0  0  0  0  0  0  0  0  0  0
   11.8864   -0.5288   -1.3180 C   0  0  0  0  0  0  0  0  0  0  0  0
   10.7038   -1.4467   -1.4406 C   0  0  0  0  0  0  0  0  0  0  0  0
    9.4427   -0.6299   -1.7298 C   0  0  0  0  0  0  0  0  0  0  0  0
    9.2110    0.0351   -0.9034 H   0  0  0  0  0  0  0  0  0  0  0  0
    8.6003   -1.3000   -1.8801 H   0  0  0  0  0  0  0  0  0  0  0  0
    9.5770   -0.0279   -2.6238 H   0  0  0  0  0  0  0  0  0  0  0  0
   10.9391   -2.4378   -2.5868 C   0  0  0  0  0  0  0  0  0  0  0  0
   11.0659   -1.9061   -3.5271 H   0  0  0  0  0  0  0  0  0  0  0  0
   10.0829   -3.1013   -2.6770 H   0  0  0  0  0  0  0  0  0  0  0  0
   11.8247   -3.0408   -2.4065 H   0  0  0  0  0  0  0  0  0  0  0  0
   10.5482   -2.2038   -0.1148 C   0  0  0  0  0  0  0  0  0  0  0  0
   11.4196   -2.8235    0.0793 H   0  0  0  0  0  0  0  0  0  0  0  0
    9.6704   -2.8432   -0.1600 H   0  0  0  0  0  0  0  0  0  0  0  0
   10.4315   -1.5058    0.7112 H   0  0  0  0  0  0  0  0  0  0  0  0
   13.2661    0.8872    1.1303 C   0  0  2  0  0  0  0  0  0  0  0  0
   12.0110    0.7957    1.8070 C   0  0  0  0  0  0  0  0  0  0  0  0
   12.1506   -0.1726    2.8297 C   0  0  0  0  0  0  0  0  0  0  0  0
   11.3543   -0.5345    3.4697 H   0  0  0  0  0  0  0  0  0  0  0  0
   13.4777   -0.6683    2.8029 C   0  0  0  0  0  0  0  0  0  0  0  0
   13.8597   -1.4895    3.3987 H   0  0  0  0  0  0  0  0  0  0  0  0
   14.1751   -0.0234    1.7504 C   0  0  0  0  0  0  0  0  0  0  0  0
   10.7618    1.5528    1.4678 C   0  0  0  0  0  0  0  0  0  0  0  0
   10.3657    1.2191    0.5074 H   0  0  0  0  0  0  0  0  0  0  0  0
   10.9703    2.6208    1.3800 H   0  0  0  0  0  0  0  0  0  0  0  0
   10.0078    1.4019    2.2402 H   0  0  0  0  0  0  0  0  0  0  0  0
   15.5548   -0.3720    1.2751 C   0  0  0  0  0  0  0  0  0  0  0  0
   16.3008   -0.1616    2.0434 H   0  0  0  0  0  0  0  0  0  0  0  0
   15.8048    0.1975    0.3814 H   0  0  0  0  0  0  0  0  0  0  0  0
   15.6048   -1.4359    1.0374 H   0  0  0  0  0  0  0  0  0  0  0  0
  1  4  1  0  0  0  0
  1  3  1  0  0  0  0
  2  1  1  0  0  0  0
  6 17  2  0  0  0  0
  6  7  1  0  0  0  0
  7  8  1  0  0  0  0
  8  9  2  0  0  0  0
  8 31  1  0  0  0  0
  9 10  1  0  0  0  0
 11 12  1  0  0  0  0
 11  9  1  0  0  0  0
 13 11  2  0  0  0  0
 14 13  1  0  0  0  0
 15 13  1  0  0  0  0
 15  7  2  0  0  0  0
 16 15  1  0  0  0  0
 17  5  1  0  0  0  0
 18 17  1  0  0  0  0
 18 27  1  0  0  0  0
 19 18  1  0  0  0  0
 19 20  1  0  0  0  0
 21 19  1  0  0  0  0
 22 19  1  0  0  0  0
 23 26  1  0  0  0  0
 23 18  1  0  0  0  0
 24 23  1  0  0  0  0
 25 23  1  0  0  0  0
 27 28  1  0  0  0  0
 27 30  1  0  0  0  0
 29 27  1  0  0  0  0
 31 37  1  0  0  0  0
 31 32  1  0  0  0  0
 31  1  1  1  0  0  0
 32 33  2  0  0  0  0
 33 34  1  0  0  0  0
 35 33  1  0  0  0  0
 35 36  1  0  0  0  0
 37 35  2  0  0  0  0
 38 32  1  0  0  0  0
 38 41  1  0  0  0  0
 39 38  1  0  0  0  0
 40 38  1  0  0  0  0
 42 37  1  0  0  0  0
 42 43  1  0  0  0  0
 44 42  1  0  0  0  0
 45 42  1  0  0  0  0
M  END
$$$$
