CSD_code = TERWAP | q = 0 | S = 0 | Stoichiometry = C20H25Cl4NTi | MND = 8
 OpenBabel04212202103D

 51 52  0  0  1  0  0  0  0  0999 V2000
   11.2035   12.3693    5.8273 Ti  0  0  0  0  0  0  0  0  0  0  0  0
   12.2825   12.0237    7.6617 Cl  0  0  0  0  0  0  0  0  0  0  0  0
    9.2038   12.0476    6.5561 Cl  0  0  0  0  0  0  0  0  0  0  0  0
   11.1860   14.5273    5.9191 Cl  0  0  0  0  0  0  0  0  0  0  0  0
   12.7002    8.6259    2.5003 Cl  0  0  0  0  0  0  0  0  0  0  0  0
   10.0544    8.7112    2.5591 N   0  0  0  0  0  0  0  0  0  0  0  0
    9.9977    8.4401    3.9184 C   0  0  0  0  0  0  0  0  0  0  0  0
   10.5553    9.3003    4.8732 C   0  0  0  0  0  0  0  0  0  0  0  0
   10.4480    8.9812    6.2252 C   0  0  0  0  0  0  0  0  0  0  0  0
   10.8856    9.6574    6.9575 H   0  0  0  0  0  0  0  0  0  0  0  0
    9.7810    7.8414    6.6430 C   0  0  0  0  0  0  0  0  0  0  0  0
    9.2109    7.0141    5.6803 C   0  0  0  0  0  0  0  0  0  0  0  0
    8.6787    6.1276    5.9947 H   0  0  0  0  0  0  0  0  0  0  0  0
    9.3035    7.2951    4.3294 C   0  0  0  0  0  0  0  0  0  0  0  0
    9.6837    7.5046    8.0989 C   0  0  0  0  0  0  0  0  0  0  0  0
   10.4785    6.8113    8.3761 H   0  0  0  0  0  0  0  0  0  0  0  0
    8.7313    7.0302    8.3235 H   0  0  0  0  0  0  0  0  0  0  0  0
    9.7868    8.3996    8.7070 H   0  0  0  0  0  0  0  0  0  0  0  0
    8.7125    6.3873    3.2956 C   0  0  0  0  0  0  0  0  0  0  0  0
    8.1627    6.9708    2.5596 H   0  0  0  0  0  0  0  0  0  0  0  0
    8.0466    5.6609    3.7531 H   0  0  0  0  0  0  0  0  0  0  0  0
    9.5025    5.8514    2.7689 H   0  0  0  0  0  0  0  0  0  0  0  0
   11.0656    8.8423    1.8518 C   0  0  0  0  0  0  0  0  0  0  0  0
   11.0226    9.1872    0.3902 C   0  0  0  0  0  0  0  0  0  0  0  0
   11.7915    8.1322   -0.4137 C   0  0  0  0  0  0  0  0  0  0  0  0
   11.3539    7.1479   -0.2627 H   0  0  0  0  0  0  0  0  0  0  0  0
   12.8354    8.0978   -0.1147 H   0  0  0  0  0  0  0  0  0  0  0  0
   11.7432    8.3737   -1.4726 H   0  0  0  0  0  0  0  0  0  0  0  0
   11.6738   10.5641    0.2047 C   0  0  0  0  0  0  0  0  0  0  0  0
   11.6285   10.8522   -0.8423 H   0  0  0  0  0  0  0  0  0  0  0  0
   12.7151   10.5408    0.5136 H   0  0  0  0  0  0  0  0  0  0  0  0
   11.1561   11.3142    0.7973 H   0  0  0  0  0  0  0  0  0  0  0  0
    9.5694    9.2241   -0.0869 C   0  0  0  0  0  0  0  0  0  0  0  0
    9.0023    9.9817    0.4457 H   0  0  0  0  0  0  0  0  0  0  0  0
    9.0928    8.2622    0.0789 H   0  0  0  0  0  0  0  0  0  0  0  0
    9.5395    9.4516   -1.1493 H   0  0  0  0  0  0  0  0  0  0  0  0
   11.2295   10.5502    4.4862 C   0  0  2  0  0  0  0  0  0  0  0  0
   12.5861   10.8857    4.7815 C   0  0  2  0  0  3  0  0  0  0  0  0
   12.8392   12.1633    4.2211 C   0  0  0  0  0  0  0  0  0  0  0  0
   13.8060   12.6523    4.1833 H   0  0  0  0  0  0  0  0  0  0  0  0
   11.6581   12.6119    3.5804 C   0  0  0  0  0  0  0  0  0  0  0  0
   11.5643   13.5167    2.9915 H   0  0  0  0  0  0  0  0  0  0  0  0
   10.6536   11.6286    3.7474 C   0  0  1  0  0  3  0  0  0  0  0  0
   13.6119    9.9867    5.4063 C   0  0  0  0  0  0  0  0  0  0  0  0
   13.1673    9.0281    5.6687 H   0  0  0  0  0  0  0  0  0  0  0  0
   14.0328   10.4359    6.3074 H   0  0  0  0  0  0  0  0  0  0  0  0
   14.4274    9.8126    4.7021 H   0  0  0  0  0  0  0  0  0  0  0  0
    9.2556   11.6904    3.2076 C   0  0  0  0  0  0  0  0  0  0  0  0
    9.0440   12.6885    2.8240 H   0  0  0  0  0  0  0  0  0  0  0  0
    8.5306   11.4492    3.9877 H   0  0  0  0  0  0  0  0  0  0  0  0
    9.1256   10.9613    2.4061 H   0  0  0  0  0  0  0  0  0  0  0  0
  1  4  1  0  0  0  0
  1  3  1  0  0  0  0
  1  2  1  0  0  0  0
  6  7  1  0  0  0  0
  7 14  2  0  0  0  0
  7  8  1  0  0  0  0
  8  9  2  0  0  0  0
  9 11  1  0  0  0  0
  9 10  1  0  0  0  0
 11 15  1  0  0  0  0
 12 13  1  0  0  0  0
 12 11  2  0  0  0  0
 14 12  1  0  0  0  0
 15 17  1  0  0  0  0
 15 16  1  0  0  0  0
 15 18  1  0  0  0  0
 19 21  1  0  0  0  0
 19 14  1  0  0  0  0
 20 19  1  0  0  0  0
 22 19  1  0  0  0  0
 23  5  1  0  0  0  0
 23  6  2  0  0  0  0
 24 23  1  0  0  0  0
 25 26  1  0  0  0  0
 25 27  1  0  0  0  0
 25 24  1  0  0  0  0
 28 25  1  0  0  0  0
 29 24  1  0  0  0  0
 29 31  1  0  0  0  0
 29 32  1  0  0  0  0
 30 29  1  0  0  0  0
 33 35  1  0  0  0  0
 33 24  1  0  0  0  0
 33 34  1  0  0  0  0
 36 33  1  0  0  0  0
 37 38  1  0  0  0  0
 37  8  1  0  0  0  0
 37  1  1  1  0  0  0
 38 44  1  6  0  0  0
 39 38  1  0  0  0  0
 40 39  1  0  0  0  0
 41 43  1  0  0  0  0
 41 39  2  0  0  0  0
 42 41  1  0  0  0  0
 43 48  1  6  0  0  0
 43 37  1  0  0  0  0
 44 45  1  0  0  0  0
 44 46  1  0  0  0  0
 47 44  1  0  0  0  0
 48 50  1  0  0  0  0
 49 48  1  0  0  0  0
 51 48  1  0  0  0  0
M  END
$$$$
