CSD_code = TESBEZ | q = 0 | S = 0 | Stoichiometry = C30H28Cl2O4P2Pd | MND = 4
 OpenBabel04212202103D

 67 71  0  0  1  0  0  0  0  0999 V2000
    4.1647    6.1038    5.2744 Pd  0  0  0  0  0  0  0  0  0  0  0  0
    5.8824    7.5895    5.3077 Cl  0  0  0  0  0  0  0  0  0  0  0  0
    3.6134    6.2504    7.4732 Cl  0  0  0  0  0  0  0  0  0  0  0  0
    4.3122    4.3689    0.2746 O   0  0  0  0  0  0  0  0  0  0  0  0
    2.1654    4.9449    0.5989 O   0  0  0  0  0  0  0  0  0  0  0  0
    2.3939    1.9272    2.7144 O   0  0  0  0  0  0  0  0  0  0  0  0
    0.4586    2.8007    3.4477 O   0  0  0  0  0  0  0  0  0  0  0  0
    4.4957    5.9761    3.0799 P   0  0  0  0  0  4  0  0  0  0  0  0
    2.6046    4.5261    5.1336 P   0  0  0  0  0  4  0  0  0  0  0  0
    3.5624    4.4501    2.4895 C   0  0  1  0  0  0  0  0  0  0  0  0
    4.2226    3.5857    2.6273 H   0  0  0  0  0  0  0  0  0  0  0  0
    2.2844    4.2553    3.2973 C   0  0  1  0  0  0  0  0  0  0  0  0
    1.5334    4.9890    2.9817 H   0  0  0  0  0  0  0  0  0  0  0  0
    1.7431    2.8656    3.0962 C   0  0  0  0  0  0  0  0  0  0  0  0
    3.2383    4.6061    1.0280 C   0  0  0  0  0  0  0  0  0  0  0  0
   -0.1822    1.5351    3.3401 C   0  0  0  0  0  0  0  0  0  0  0  0
   -0.6101    1.4254    2.3422 H   0  0  0  0  0  0  0  0  0  0  0  0
   -0.9710    1.5207    4.0893 H   0  0  0  0  0  0  0  0  0  0  0  0
    0.5372    0.7323    3.5123 H   0  0  0  0  0  0  0  0  0  0  0  0
    4.1647    4.5088   -1.1335 C   0  0  0  0  0  0  0  0  0  0  0  0
    3.8600    3.5541   -1.5655 H   0  0  0  0  0  0  0  0  0  0  0  0
    5.1381    4.8016   -1.5217 H   0  0  0  0  0  0  0  0  0  0  0  0
    3.4090    5.2633   -1.3603 H   0  0  0  0  0  0  0  0  0  0  0  0
    3.5313    7.3342    2.3561 C   0  0  0  0  0  0  0  0  0  0  0  0
    2.6706    8.0322    3.2039 C   0  0  0  0  0  0  0  0  0  0  0  0
    2.6416    7.7932    4.2789 H   0  0  0  0  0  0  0  0  0  0  0  0
    1.8771    9.0467    2.6987 C   0  0  0  0  0  0  0  0  0  0  0  0
    1.2124    9.5882    3.3551 H   0  0  0  0  0  0  0  0  0  0  0  0
    1.9415    9.3708    1.3530 C   0  0  0  0  0  0  0  0  0  0  0  0
    1.3210   10.1618    0.9593 H   0  0  0  0  0  0  0  0  0  0  0  0
    2.8101    8.6924    0.5125 C   0  0  0  0  0  0  0  0  0  0  0  0
    2.8675    8.9574   -0.5329 H   0  0  0  0  0  0  0  0  0  0  0  0
    3.6066    7.6776    1.0089 C   0  0  0  0  0  0  0  0  0  0  0  0
    4.2996    7.1603    0.3600 H   0  0  0  0  0  0  0  0  0  0  0  0
    6.0819    5.9743    2.2196 C   0  0  0  0  0  0  0  0  0  0  0  0
    6.6759    7.2104    1.9682 C   0  0  0  0  0  0  0  0  0  0  0  0
    6.1510    8.1172    2.2352 H   0  0  0  0  0  0  0  0  0  0  0  0
    7.9362    7.2678    1.4044 C   0  0  0  0  0  0  0  0  0  0  0  0
    8.3936    8.2262    1.2100 H   0  0  0  0  0  0  0  0  0  0  0  0
    8.6148    6.0983    1.1005 C   0  0  0  0  0  0  0  0  0  0  0  0
    9.5995    6.1444    0.6596 H   0  0  0  0  0  0  0  0  0  0  0  0
    8.0390    4.8692    1.3793 C   0  0  0  0  0  0  0  0  0  0  0  0
    8.5771    3.9586    1.1604 H   0  0  0  0  0  0  0  0  0  0  0  0
    6.7810    4.8013    1.9496 C   0  0  0  0  0  0  0  0  0  0  0  0
    6.3474    3.8387    2.1788 H   0  0  0  0  0  0  0  0  0  0  0  0
    3.4155    2.9788    5.6298 C   0  0  0  0  0  0  0  0  0  0  0  0
    4.8012    3.0069    5.7903 C   0  0  0  0  0  0  0  0  0  0  0  0
    5.3503    3.9550    5.6743 H   0  0  0  0  0  0  0  0  0  0  0  0
    5.4807    1.8499    6.1272 C   0  0  0  0  0  0  0  0  0  0  0  0
    6.5527    1.8724    6.2540 H   0  0  0  0  0  0  0  0  0  0  0  0
    4.7839    0.6661    6.3086 C   0  0  0  0  0  0  0  0  0  0  0  0
    5.3149   -0.2366    6.5714 H   0  0  0  0  0  0  0  0  0  0  0  0
    3.4053    0.6391    6.1678 C   0  0  0  0  0  0  0  0  0  0  0  0
    2.8644   -0.2826    6.3235 H   0  0  0  0  0  0  0  0  0  0  0  0
    2.7183    1.7907    5.8317 C   0  0  0  0  0  0  0  0  0  0  0  0
    1.6411    1.7769    5.7414 H   0  0  0  0  0  0  0  0  0  0  0  0
    0.9900    4.5308    5.9395 C   0  0  0  0  0  0  0  0  0  0  0  0
    0.9335    4.0963    7.2631 C   0  0  0  0  0  0  0  0  0  0  0  0
    1.8284    3.7181    7.7375 H   0  0  0  0  0  0  0  0  0  0  0  0
   -0.2545    4.1751    7.9646 C   0  0  0  0  0  0  0  0  0  0  0  0
   -0.2958    3.8373    8.9892 H   0  0  0  0  0  0  0  0  0  0  0  0
   -1.3858    4.6973    7.3581 C   0  0  0  0  0  0  0  0  0  0  0  0
   -2.3136    4.7584    7.9073 H   0  0  0  0  0  0  0  0  0  0  0  0
   -1.3232    5.1591    6.0531 C   0  0  0  0  0  0  0  0  0  0  0  0
   -2.2003    5.5845    5.5880 H   0  0  0  0  0  0  0  0  0  0  0  0
   -0.1374    5.0903    5.3448 C   0  0  0  0  0  0  0  0  0  0  0  0
   -0.0948    5.4687    4.3338 H   0  0  0  0  0  0  0  0  0  0  0  0
  1  2  1  0  0  0  0
  1  3  1  0  0  0  0
  4 15  1  0  0  0  0
  5 15  2  0  0  0  0
  6 14  2  0  0  0  0
  8  1  1  0  0  0  0
  9  1  1  0  0  0  0
  9 46  1  0  0  0  0
  9 57  1  0  0  0  0
 10 11  1  1  0  0  0
 10  8  1  0  0  0  0
 10 12  1  0  0  0  0
 12 13  1  6  0  0  0
 12  9  1  0  0  0  0
 14 12  1  0  0  0  0
 14  7  1  0  0  0  0
 15 10  1  0  0  0  0
 16  7  1  0  0  0  0
 16 19  1  0  0  0  0
 16 18  1  0  0  0  0
 17 16  1  0  0  0  0
 20  4  1  0  0  0  0
 21 20  1  0  0  0  0
 22 20  1  0  0  0  0
 23 20  1  0  0  0  0
 24  8  1  0  0  0  0
 24 25  1  0  0  0  0
 25 26  1  0  0  0  0
 27 25  2  0  0  0  0
 27 28  1  0  0  0  0
 29 27  1  0  0  0  0
 30 29  1  0  0  0  0
 31 33  1  0  0  0  0
 31 29  2  0  0  0  0
 32 31  1  0  0  0  0
 33 24  2  0  0  0  0
 34 33  1  0  0  0  0
 35  8  1  0  0  0  0
 36 35  1  0  0  0  0
 36 37  1  0  0  0  0
 38 36  2  0  0  0  0
 39 38  1  0  0  0  0
 40 42  2  0  0  0  0
 40 38  1  0  0  0  0
 41 40  1  0  0  0  0
 42 44  1  0  0  0  0
 43 42  1  0  0  0  0
 44 45  1  0  0  0  0
 44 35  2  0  0  0  0
 46 47  2  0  0  0  0
 46 55  1  0  0  0  0
 47 49  1  0  0  0  0
 48 47  1  0  0  0  0
 49 50  1  0  0  0  0
 49 51  2  0  0  0  0
 51 52  1  0  0  0  0
 53 51  1  0  0  0  0
 53 54  1  0  0  0  0
 55 53  2  0  0  0  0
 56 55  1  0  0  0  0
 57 58  1  0  0  0  0
 58 59  1  0  0  0  0
 58 60  2  0  0  0  0
 60 61  1  0  0  0  0
 62 63  1  0  0  0  0
 62 60  1  0  0  0  0
 64 62  2  0  0  0  0
 65 64  1  0  0  0  0
 66 57  2  0  0  0  0
 66 64  1  0  0  0  0
 67 66  1  0  0  0  0
M  END
$$$$
