CSD_code = TESGII | q = 0 | S = 0 | Stoichiometry = C19H19BrF5IrN2 | MND = 6
 OpenBabel04212202103D

 47 48  0  0  1  0  0  0  0  0999 V2000
    4.1874    7.2131    2.7142 Ir  0  0  0  0  0  0  0  0  0  0  0  0
    3.3701    4.8525    2.9449 Br  0  0  0  0  0 15  0  0  0  0  0  0
    7.2831    3.2459    3.5213 F   0  0  0  0  0  0  0  0  0  0  0  0
    5.6047    1.5955    4.8681 F   0  0  0  0  0  0  0  0  0  0  0  0
    3.8611    2.6258    6.6991 F   0  0  0  0  0  0  0  0  0  0  0  0
    3.8388    5.3147    7.1815 F   0  0  0  0  0  0  0  0  0  0  0  0
    5.5230    6.9424    5.8346 F   0  0  0  0  0  0  0  0  0  0  0  0
    5.8743    5.9884    0.5517 N   0  0  0  0  0  0  0  0  0  0  0  0
    6.9729    5.9579    2.3980 N   0  0  0  0  0  0  0  0  0  0  0  0
    5.8063    6.3790    1.8415 C   0  0  2  0  0  3  0  0  0  0  0  0
    7.0529    5.3355    0.3043 C   0  0  0  0  0  0  0  0  0  0  0  0
    7.2987    4.9434   -0.6606 H   0  0  0  0  0  0  0  0  0  0  0  0
    7.7441    5.3134    1.4641 C   0  0  0  0  0  0  0  0  0  0  0  0
    8.6987    4.8923    1.7003 H   0  0  0  0  0  0  0  0  0  0  0  0
    4.8219    6.1421   -0.4148 C   0  0  0  0  0  0  0  0  0  0  0  0
    5.2158    6.5628   -1.3406 H   0  0  0  0  0  0  0  0  0  0  0  0
    4.0610    6.8041   -0.0018 H   0  0  0  0  0  0  0  0  0  0  0  0
    4.3636    5.1739   -0.6253 H   0  0  0  0  0  0  0  0  0  0  0  0
    7.2955    6.0528    3.8008 C   0  0  0  0  0  0  0  0  0  0  0  0
    7.1489    7.0803    4.1417 H   0  0  0  0  0  0  0  0  0  0  0  0
    8.3440    5.7707    3.9304 H   0  0  0  0  0  0  0  0  0  0  0  0
    6.4113    5.1357    4.6150 C   0  0  0  0  0  0  0  0  0  0  0  0
    6.4132    3.7619    4.3979 C   0  0  0  0  0  0  0  0  0  0  0  0
    5.5576    2.9084    5.0842 C   0  0  0  0  0  0  0  0  0  0  0  0
    4.6706    3.4320    6.0199 C   0  0  0  0  0  0  0  0  0  0  0  0
    4.6631    4.8008    6.2676 C   0  0  0  0  0  0  0  0  0  0  0  0
    5.5254    5.6329    5.5630 C   0  0  0  0  0  0  0  0  0  0  0  0
    4.4679    9.1498    1.8716 C   0  0  0  0  0  3  0  0  0  0  0  0
    5.1769    9.0525    3.0848 C   0  0  1  0  0  0  0  0  0  0  0  0
    4.7272    9.7061    4.3708 C   0  0  0  0  0  0  0  0  0  0  0  0
    4.8487   10.7918    4.2854 H   0  0  0  0  0  0  0  0  0  0  0  0
    5.3891    9.3720    5.1705 H   0  0  0  0  0  0  0  0  0  0  0  0
    3.2731    9.3674    4.7518 C   0  0  0  0  0  0  0  0  0  0  0  0
    3.2006    9.3121    5.8389 H   0  0  0  0  0  0  0  0  0  0  0  0
    2.6005   10.1615    4.4219 H   0  0  0  0  0  0  0  0  0  0  0  0
    2.8011    8.0564    4.1663 C   0  0  0  0  0  3  0  0  0  0  0  0
    2.1687    7.9534    2.9442 C   0  0  0  0  0  3  0  0  0  0  0  0
    1.9311    9.1044    1.9959 C   0  0  0  0  0  0  0  0  0  0  0  0
    1.1261    9.7349    2.3881 H   0  0  0  0  0  0  0  0  0  0  0  0
    1.5804    8.6928    1.0465 H   0  0  0  0  0  0  0  0  0  0  0  0
    3.1905    9.9539    1.7410 C   0  0  0  0  0  0  0  0  0  0  0  0
    3.1325   10.3745    0.7350 H   0  0  0  0  0  0  0  0  0  0  0  0
    3.2268   10.7925    2.4380 H   0  0  0  0  0  0  0  0  0  0  0  0
    2.6106    7.2750    4.8990 H   0  0  0  0  0  0  0  0  0  0  0  0
    5.0590    9.1072    0.9579 H   0  0  0  0  0  0  0  0  0  0  0  0
    6.2621    8.9809    3.0072 H   0  0  0  0  0  0  0  0  0  0  0  0
    1.4868    7.1200    2.7891 H   0  0  0  0  0  0  0  0  0  0  0  0
  1 29  1  0  0  0  0
  3 23  1  0  0  0  0
  4 24  1  0  0  0  0
  8 10  1  0  0  0  0
  9 19  1  0  0  0  0
 10  9  1  0  0  0  0
 10  1  1  1  0  0  0
 11  8  1  0  0  0  0
 11 13  2  0  0  0  0
 12 11  1  0  0  0  0
 13 14  1  0  0  0  0
 13  9  1  0  0  0  0
 15 17  1  0  0  0  0
 15  8  1  0  0  0  0
 16 15  1  0  0  0  0
 18 15  1  0  0  0  0
 19 21  1  0  0  0  0
 19 20  1  0  0  0  0
 19 22  1  0  0  0  0
 22 27  1  0  0  0  0
 23 22  2  0  0  0  0
 23 24  1  0  0  0  0
 24 25  2  0  0  0  0
 25 26  1  0  0  0  0
 25  5  1  0  0  0  0
 26  6  1  0  0  0  0
 27  7  1  0  0  0  0
 27 26  2  0  0  0  0
 28 29  1  0  0  0  0
 29 46  1  6  0  0  0
 29 30  1  0  0  0  0
 30 33  1  0  0  0  0
 30 32  1  0  0  0  0
 31 30  1  0  0  0  0
 33 34  1  0  0  0  0
 35 33  1  0  0  0  0
 36 33  1  0  0  0  0
 36 44  1  0  0  0  0
 37 36  1  0  0  0  0
 38 39  1  0  0  0  0
 38 37  1  0  0  0  0
 40 38  1  0  0  0  0
 41 28  1  0  0  0  0
 41 38  1  0  0  0  0
 41 43  1  0  0  0  0
 42 41  1  0  0  0  0
 45 28  1  0  0  0  0
 47 37  1  0  0  0  0
M  END
$$$$
