CSD_code = TESPEP | q = 0 | S = 0 | Stoichiometry = C12H34Cl2N2O5RuS2Si | MND = 6
 OpenBabel04212202103D

 59 59  0  0  0  0  0  0  0  0999 V2000
    2.8475    0.9639    4.2768 Ru  0  0  0  0  0  0  0  0  0  0  0  0
    4.8194    2.0732    4.3614 S   0  0  0  0  0  0  0  0  0  0  0  0
    3.2070    0.5550    2.0928 S   0  0  0  0  0  0  0  0  0  0  0  0
    3.8896   -1.0599    4.8875 Cl  0  0  0  0  0  0  0  0  0  0  0  0
    1.6810    2.9162    3.7165 Cl  0  0  0  0  0  0  0  0  0  0  0  0
   -0.3317   -2.9234    1.6106 Si  0  0  0  0  0  0  0  0  0  0  0  0
    1.1357   -3.1066    2.3066 O   0  0  0  0  0  0  0  0  0  0  0  0
   -1.1001   -4.3463    1.4021 O   0  0  0  0  0  0  0  0  0  0  0  0
    0.0177   -2.0620    0.2737 O   0  0  0  0  0  0  0  0  0  0  0  0
    5.0104    2.4437    5.7663 O   0  0  0  0  0  1  0  0  0  0  0  0
    4.3804    1.3213    1.6737 O   0  0  0  0  0  1  0  0  0  0  0  0
    2.5133    1.4837    6.3148 N   0  0  0  0  0  4  0  0  0  0  0  0
    3.3940    1.4992    6.8372 H   0  0  0  0  0  0  0  0  0  0  0  0
    2.1635    2.4473    6.2736 H   0  0  0  0  0  0  0  0  0  0  0  0
    1.0076   -0.1126    4.6276 N   0  0  0  0  0  4  0  0  0  0  0  0
    1.3822   -1.0461    4.8437 H   0  0  0  0  0  0  0  0  0  0  0  0
    1.5110    0.5987    6.8972 C   0  0  0  0  0  0  0  0  0  0  0  0
    1.0970    0.9965    7.8324 H   0  0  0  0  0  0  0  0  0  0  0  0
    1.9840   -0.3695    7.0964 H   0  0  0  0  0  0  0  0  0  0  0  0
    0.4073    0.4283    5.8539 C   0  0  0  0  0  0  0  0  0  0  0  0
   -0.3844   -0.2269    6.2359 H   0  0  0  0  0  0  0  0  0  0  0  0
   -0.0174    1.4078    5.6067 H   0  0  0  0  0  0  0  0  0  0  0  0
    0.0478   -0.2486    3.5360 C   0  0  0  0  0  0  0  0  0  0  0  0
    0.5993   -0.6062    2.6664 H   0  0  0  0  0  0  0  0  0  0  0  0
   -0.3532    0.7431    3.3105 H   0  0  0  0  0  0  0  0  0  0  0  0
   -1.0802   -1.2460    3.8258 C   0  0  0  0  0  0  0  0  0  0  0  0
   -1.8991   -0.7514    4.3524 H   0  0  0  0  0  0  0  0  0  0  0  0
   -0.6977   -2.0396    4.4723 H   0  0  0  0  0  0  0  0  0  0  0  0
   -1.6085   -1.8690    2.5353 C   0  0  0  0  0  0  0  0  0  0  0  0
   -1.9614   -1.0718    1.8838 H   0  0  0  0  0  0  0  0  0  0  0  0
   -2.4741   -2.4850    2.7722 H   0  0  0  0  0  0  0  0  0  0  0  0
    1.5821   -3.7492    3.4801 C   0  0  0  0  0  0  0  0  0  0  0  0
    0.7554   -3.9661    4.1564 H   0  0  0  0  0  0  0  0  0  0  0  0
    2.3109   -3.0975    3.9700 H   0  0  0  0  0  0  0  0  0  0  0  0
    2.0706   -4.6878    3.2114 H   0  0  0  0  0  0  0  0  0  0  0  0
   -0.6291   -5.5550    0.8598 C   0  0  0  0  0  0  0  0  0  0  0  0
   -0.7559   -5.5530   -0.2252 H   0  0  0  0  0  0  0  0  0  0  0  0
   -1.2194   -6.3655    1.2890 H   0  0  0  0  0  0  0  0  0  0  0  0
    0.4262   -5.7115    1.0913 H   0  0  0  0  0  0  0  0  0  0  0  0
    0.7733   -2.4317   -0.8537 C   0  0  0  0  0  0  0  0  0  0  0  0
    1.7460   -2.8299   -0.5601 H   0  0  0  0  0  0  0  0  0  0  0  0
    0.9109   -1.5398   -1.4656 H   0  0  0  0  0  0  0  0  0  0  0  0
    0.2411   -3.1877   -1.4343 H   0  0  0  0  0  0  0  0  0  0  0  0
    6.3521    1.2186    3.8886 C   0  0  0  0  0  0  0  0  0  0  0  0
    7.1825    1.8205    4.2373 H   0  0  0  0  0  0  0  0  0  0  0  0
    6.3540    1.0967    2.8136 H   0  0  0  0  0  0  0  0  0  0  0  0
    6.3466    0.2555    4.3893 H   0  0  0  0  0  0  0  0  0  0  0  0
    5.0546    3.6121    3.4300 C   0  0  0  0  0  0  0  0  0  0  0  0
    4.1850    4.2326    3.6216 H   0  0  0  0  0  0  0  0  0  0  0  0
    5.1184    3.3609    2.3796 H   0  0  0  0  0  0  0  0  0  0  0  0
    5.9543    4.0886    3.7996 H   0  0  0  0  0  0  0  0  0  0  0  0
    1.9272    0.9726    0.8614 C   0  0  0  0  0  0  0  0  0  0  0  0
    1.4128    1.8569    1.2250 H   0  0  0  0  0  0  0  0  0  0  0  0
    1.2363    0.1487    0.7348 H   0  0  0  0  0  0  0  0  0  0  0  0
    2.4505    1.1976   -0.0606 H   0  0  0  0  0  0  0  0  0  0  0  0
    3.5476   -1.1422    1.5406 C   0  0  0  0  0  0  0  0  0  0  0  0
    3.8807   -1.0941    0.5107 H   0  0  0  0  0  0  0  0  0  0  0  0
    2.6524   -1.7403    1.6519 H   0  0  0  0  0  0  0  0  0  0  0  0
    4.3349   -1.5299    2.1793 H   0  0  0  0  0  0  0  0  0  0  0  0
  1  2  1  0  0  0  0
  1 15  1  0  0  0  0
  1  4  1  0  0  0  0
  1 12  1  0  0  0  0
  2 10  1  0  0  0  0
  3  1  1  0  0  0  0
  5  1  1  0  0  0  0
  6  7  1  0  0  0  0
  6 29  1  0  0  0  0
  7 32  1  0  0  0  0
  8  6  1  0  0  0  0
  9  6  1  0  0  0  0
 11  3  1  0  0  0  0
 12 13  1  0  0  0  0
 12 17  1  0  0  0  0
 14 12  1  0  0  0  0
 15 16  1  0  0  0  0
 15 20  1  0  0  0  0
 17 19  1  0  0  0  0
 17 18  1  0  0  0  0
 20 21  1  0  0  0  0
 20 17  1  0  0  0  0
 22 20  1  0  0  0  0
 23 26  1  0  0  0  0
 23 15  1  0  0  0  0
 24 23  1  0  0  0  0
 25 23  1  0  0  0  0
 26 27  1  0  0  0  0
 26 28  1  0  0  0  0
 29 31  1  0  0  0  0
 29 26  1  0  0  0  0
 30 29  1  0  0  0  0
 32 34  1  0  0  0  0
 32 33  1  0  0  0  0
 35 32  1  0  0  0  0
 36 39  1  0  0  0  0
 36 38  1  0  0  0  0
 36  8  1  0  0  0  0
 37 36  1  0  0  0  0
 40 41  1  0  0  0  0
 40  9  1  0  0  0  0
 42 40  1  0  0  0  0
 43 40  1  0  0  0  0
 44 45  1  0  0  0  0
 44  2  1  0  0  0  0
 44 47  1  0  0  0  0
 46 44  1  0  0  0  0
 48 49  1  0  0  0  0
 48 51  1  0  0  0  0
 48  2  1  0  0  0  0
 50 48  1  0  0  0  0
 52 53  1  0  0  0  0
 52  3  1  0  0  0  0
 54 52  1  0  0  0  0
 55 52  1  0  0  0  0
 56 58  1  0  0  0  0
 56  3  1  0  0  0  0
 56 59  1  0  0  0  0
 57 56  1  0  0  0  0
M  END
$$$$
