CSD_code = TESVOF | q = 0 | S = 0 | Stoichiometry = C16H16ClCuN4O | MND = 4
 OpenBabel04212202103D

 39 43  0  0  1  0  0  0  0  0999 V2000
    4.0720    7.8001    2.5854 Cu  0  0  1  0  0  0  0  0  0  0  0  0
    6.0106    8.6861    3.1023 Cl  0  0  0  0  0  0  0  0  0  0  0  0
    8.8099    6.3583    1.2868 O   0  0  0  0  0  0  0  0  0  0  0  0
    4.3535    5.7952    2.1763 N   0  0  0  0  0  0  0  0  0  0  0  0
    6.6133    6.0281    1.7365 N   0  0  0  0  0  0  0  0  0  0  0  0
    6.5467    7.0019    2.1178 H   0  0  0  0  0  0  0  0  0  0  0  0
    2.3273    6.7661    3.7069 N   0  0  1  0  0  4  0  0  0  0  0  0
    2.4996    8.8204    1.9433 N   0  0  0  0  0  0  0  0  0  0  0  0
    2.0086    5.7348    2.7334 C   0  0  0  0  0  0  0  0  0  0  0  0
    1.5437    6.2134    1.8650 H   0  0  0  0  0  0  0  0  0  0  0  0
    1.3002    4.9930    3.1377 H   0  0  0  0  0  0  0  0  0  0  0  0
    3.2619    5.0426    2.2604 C   0  0  1  0  0  3  0  0  0  0  0  0
    3.2580    3.6970    1.9109 C   0  0  0  0  0  0  0  0  0  0  0  0
    2.3519    3.1180    1.9941 H   0  0  0  0  0  0  0  0  0  0  0  0
    4.4299    3.1225    1.4559 C   0  0  0  0  0  0  0  0  0  0  0  0
    4.4617    2.0813    1.1708 H   0  0  0  0  0  0  0  0  0  0  0  0
    5.5869    3.8936    1.3774 C   0  0  0  0  0  0  0  0  0  0  0  0
    6.8516    3.3964    0.9327 C   0  0  0  0  0  0  0  0  0  0  0  0
    6.9118    2.3599    0.6303 H   0  0  0  0  0  0  0  0  0  0  0  0
    7.9261    4.2024    0.8919 C   0  0  0  0  0  0  0  0  0  0  0  0
    8.8909    3.8551    0.5570 H   0  0  0  0  0  0  0  0  0  0  0  0
    7.8647    5.6030    1.3071 C   0  0  0  0  0  0  0  0  0  0  0  0
    5.5117    5.2562    1.7698 C   0  0  0  0  0  0  0  0  0  0  0  0
    2.6653    6.1937    4.9949 C   0  0  0  0  0  0  0  0  0  0  0  0
    3.0382    6.9752    5.6535 H   0  0  0  0  0  0  0  0  0  0  0  0
    3.4564    5.4590    4.8594 H   0  0  0  0  0  0  0  0  0  0  0  0
    1.8028    5.7027    5.4695 H   0  0  0  0  0  0  0  0  0  0  0  0
    1.3092    7.7934    3.7974 C   0  0  0  0  0  0  0  0  0  0  0  0
    1.5169    8.3912    4.6914 H   0  0  0  0  0  0  0  0  0  0  0  0
    0.2957    7.3715    3.9068 H   0  0  0  0  0  0  0  0  0  0  0  0
    1.3479    8.7275    2.6139 C   0  0  1  0  0  3  0  0  0  0  0  0
    0.2395    9.4862    2.2672 C   0  0  0  0  0  0  0  0  0  0  0  0
   -0.6782    9.3839    2.8265 H   0  0  0  0  0  0  0  0  0  0  0  0
    0.3289   10.3732    1.2061 C   0  0  0  0  0  0  0  0  0  0  0  0
   -0.5192   10.9775    0.9228 H   0  0  0  0  0  0  0  0  0  0  0  0
    1.5316   10.4651    0.5184 C   0  0  0  0  0  0  0  0  0  0  0  0
    1.6475   11.1420   -0.3124 H   0  0  0  0  0  0  0  0  0  0  0  0
    2.5859    9.6676    0.9187 C   0  0  0  0  0  0  0  0  0  0  0  0
    3.5414    9.7024    0.4157 H   0  0  0  0  0  0  0  0  0  0  0  0
  1  2  1  1  0  0  0
  1  7  1  0  0  0  0
  3 22  2  0  0  0  0
  4 12  1  0  0  0  0
  4  1  1  0  0  0  0
  5 23  1  0  0  0  0
  5  6  1  0  0  0  0
  7 28  1  0  0  0  0
  7 24  1  1  0  0  0
  8  1  1  0  0  0  0
  8 31  1  0  0  0  0
  9 11  1  0  0  0  0
  9  7  1  0  0  0  0
 10  9  1  0  0  0  0
 12 13  1  6  0  0  0
 12  9  1  0  0  0  0
 13 14  1  0  0  0  0
 15 13  2  0  0  0  0
 16 15  1  0  0  0  0
 17 15  1  0  0  0  0
 17 23  2  0  0  0  0
 18 17  1  0  0  0  0
 19 18  1  0  0  0  0
 20 18  2  0  0  0  0
 20 22  1  0  0  0  0
 21 20  1  0  0  0  0
 22  5  1  0  0  0  0
 23  4  1  0  0  0  0
 24 27  1  0  0  0  0
 24 25  1  0  0  0  0
 26 24  1  0  0  0  0
 28 30  1  0  0  0  0
 28 29  1  0  0  0  0
 31 32  1  1  0  0  0
 31 28  1  0  0  0  0
 32 33  1  0  0  0  0
 34 32  2  0  0  0  0
 35 34  1  0  0  0  0
 36 38  2  0  0  0  0
 36 34  1  0  0  0  0
 37 36  1  0  0  0  0
 38  8  1  0  0  0  0
 39 38  1  0  0  0  0
M  END
$$$$
