CSD_code = TESZEZ | q = 1 | S = 0 | Stoichiometry = C25H23ClN7Pd(1+) | MND = 4
 OpenBabel04212202103D

 57 63  0  0  0  0  0  0  0  0999 V2000
    2.7783    2.9672   11.8815 C   0  0  0  0  0  0  0  0  0  0  0  0
    2.8882    3.9583   11.4281 H   0  0  0  0  0  0  0  0  0  0  0  0
    3.1044    2.9804   12.9218 H   0  0  0  0  0  0  0  0  0  0  0  0
    1.3378    2.5104   11.7751 C   0  0  0  0  0  0  0  0  0  0  0  0
    0.7348    2.3934   10.5280 C   0  0  0  0  0  0  0  0  0  0  0  0
    1.2905    2.6475    9.6195 H   0  0  0  0  0  0  0  0  0  0  0  0
   -0.5780    1.9695   10.4313 C   0  0  0  0  0  0  0  0  0  0  0  0
   -1.0447    1.8833    9.4623 H   0  0  0  0  0  0  0  0  0  0  0  0
   -1.2969    1.6607   11.5746 C   0  0  0  0  0  0  0  0  0  0  0  0
   -2.3222    1.3337   11.4958 H   0  0  0  0  0  0  0  0  0  0  0  0
   -0.6984    1.7748   12.8169 C   0  0  0  0  0  0  0  0  0  0  0  0
   -1.2538    1.5371   13.7109 H   0  0  0  0  0  0  0  0  0  0  0  0
    0.6179    2.1929   12.9173 C   0  0  0  0  0  0  0  0  0  0  0  0
    1.0825    2.2807   13.8879 H   0  0  0  0  0  0  0  0  0  0  0  0
    5.3465   -0.9432   11.1033 C   0  0  0  0  0  0  0  0  0  0  0  0
    6.4170   -0.8734   10.9053 H   0  0  0  0  0  0  0  0  0  0  0  0
    4.9195   -1.7641   10.5264 H   0  0  0  0  0  0  0  0  0  0  0  0
    5.1891   -1.1250   12.1649 H   0  0  0  0  0  0  0  0  0  0  0  0
    3.8396    2.1013    9.8207 C   0  0  0  0  0  0  0  0  0  0  0  0
    4.5513    0.9112    9.5734 C   0  0  0  0  0  0  0  0  0  0  0  0
    4.9283    0.5733    8.2145 C   0  0  0  0  0  0  0  0  0  0  0  0
    5.7289   -0.4689    7.7553 C   0  0  0  0  0  0  0  0  0  0  0  0
    6.1522   -1.1885    8.4354 H   0  0  0  0  0  0  0  0  0  0  0  0
    5.9865   -0.5565    6.3945 C   0  0  0  0  0  0  0  0  0  0  0  0
    6.6028   -1.3566    6.0165 H   0  0  0  0  0  0  0  0  0  0  0  0
    5.4746    0.3914    5.5196 C   0  0  0  0  0  0  0  0  0  0  0  0
    5.7016    0.3387    4.4684 H   0  0  0  0  0  0  0  0  0  0  0  0
    4.6791    1.4108    6.0354 C   0  0  0  0  0  0  0  0  0  0  0  0
    4.0628    2.5304    5.3501 C   0  0  0  0  0  0  0  0  0  0  0  0
    3.4008    3.5222    6.0996 C   0  0  0  0  0  0  0  0  0  0  0  0
    4.3919    2.2194    2.8588 C   0  0  0  0  0  0  0  0  0  0  0  0
    4.0111    2.7727    2.0023 H   0  0  0  0  0  0  0  0  0  0  0  0
    4.0326    1.1907    2.8161 H   0  0  0  0  0  0  0  0  0  0  0  0
    5.4826    2.2282    2.8369 H   0  0  0  0  0  0  0  0  0  0  0  0
    1.9825    5.4218    5.3946 C   0  0  0  0  0  0  0  0  0  0  0  0
    2.0765    6.1474    4.5863 H   0  0  0  0  0  0  0  0  0  0  0  0
    2.2463    5.8754    6.3561 H   0  0  0  0  0  0  0  0  0  0  0  0
    0.5755    4.8631    5.4563 C   0  0  0  0  0  0  0  0  0  0  0  0
    0.2514    3.8973    6.4023 C   0  0  0  0  0  0  0  0  0  0  0  0
    1.0021    3.5544    7.1223 H   0  0  0  0  0  0  0  0  0  0  0  0
   -1.0281    3.3741    6.4470 C   0  0  0  0  0  0  0  0  0  0  0  0
   -1.2765    2.6242    7.1819 H   0  0  0  0  0  0  0  0  0  0  0  0
   -1.9917    3.8116    5.5529 C   0  0  0  0  0  0  0  0  0  0  0  0
   -2.9897    3.4033    5.5922 H   0  0  0  0  0  0  0  0  0  0  0  0
   -1.6719    4.7738    4.6114 C   0  0  0  0  0  0  0  0  0  0  0  0
   -2.4190    5.1196    3.9140 H   0  0  0  0  0  0  0  0  0  0  0  0
   -0.3897    5.2939    4.5582 C   0  0  0  0  0  0  0  0  0  0  0  0
   -0.1425    6.0429    3.8209 H   0  0  0  0  0  0  0  0  0  0  0  0
    2.8477    5.0302    8.8946 Cl  0  0  0  0  0  0  0  0  0  0  0  0
    3.6161    2.0543   11.1467 N   0  0  0  0  0  0  0  0  0  0  0  0
    4.1212    0.9874   11.7147 N   0  0  0  0  0  2  0  0  0  0  0  0
    4.6938    0.2898   10.7723 N   0  0  0  0  0  0  0  0  0  0  0  0
    4.4046    1.4614    7.3510 N   0  0  0  0  0  0  0  0  0  0  0  0
    3.9087    2.8665    4.0435 N   0  0  0  0  0  0  0  0  0  0  0  0
    3.2015    3.9579    3.9371 N   0  0  0  0  0  2  0  0  0  0  0  0
    2.9012    4.3386    5.1539 N   0  0  0  0  0  0  0  0  0  0  0  0
    3.4895    3.0775    8.0764 Pd  0  0  1  0  0  0  0  0  0  0  0  0
  1  3  1  0  0  0  0
  2  1  1  0  0  0  0
  4  1  1  0  0  0  0
  4 13  1  0  0  0  0
  5  4  2  0  0  0  0
  6  5  1  0  0  0  0
  7  5  1  0  0  0  0
  7  9  2  0  0  0  0
  8  7  1  0  0  0  0
  9 11  1  0  0  0  0
 10  9  1  0  0  0  0
 11 13  2  0  0  0  0
 11 12  1  0  0  0  0
 13 14  1  0  0  0  0
 15 18  1  0  0  0  0
 16 15  1  0  0  0  0
 17 15  1  0  0  0  0
 19 50  1  0  0  0  0
 20 19  1  0  0  0  0
 20 52  1  0  0  0  0
 21 20  2  0  0  0  0
 22 21  1  0  0  0  0
 22 23  1  0  0  0  0
 24 22  2  0  0  0  0
 25 24  1  0  0  0  0
 26 28  2  0  0  0  0
 26 24  1  0  0  0  0
 27 26  1  0  0  0  0
 28 53  1  0  0  0  0
 29 28  1  0  0  0  0
 29 30  2  0  0  0  0
 30 57  1  0  0  0  0
 31 54  1  0  0  0  0
 32 31  1  0  0  0  0
 33 31  1  0  0  0  0
 34 31  1  0  0  0  0
 35 38  1  0  0  0  0
 35 37  1  0  0  0  0
 36 35  1  0  0  0  0
 38 39  1  0  0  0  0
 39 41  2  0  0  0  0
 39 40  1  0  0  0  0
 41 42  1  0  0  0  0
 43 44  1  0  0  0  0
 43 41  1  0  0  0  0
 45 43  2  0  0  0  0
 46 45  1  0  0  0  0
 47 45  1  0  0  0  0
 47 38  2  0  0  0  0
 48 47  1  0  0  0  0
 50 51  1  0  0  0  0
 50  1  1  0  0  0  0
 52 15  1  0  0  0  0
 52 51  1  0  0  0  0
 53 57  1  0  0  0  0
 53 21  1  0  0  0  0
 54 29  1  0  0  0  0
 55 54  1  0  0  0  0
 55 56  1  0  0  0  0
 56 35  1  0  0  0  0
 56 30  1  0  0  0  0
 57 49  1  1  0  0  0
 57 19  2  0  0  0  0
M  END
$$$$
