CSD_code = TETGAA | q = 1 | S = 0 | Stoichiometry = C13H26BrN2NiOS2(1+) | MND = 6
 OpenBabel04212202103D

 46 50  0  0  1  0  0  0  0  0999 V2000
   14.3919    6.5530   15.4204 Ni  0  0  0  0  0  0  0  0  0  0  0  0
   15.5268    8.5118   14.5584 Br  0  0  0  0  0  0  0  0  0  0  0  0
   16.4700    5.1584   15.1335 S   0  0  2  0  0  3  0  0  0  0  0  0
   15.1011    7.2805   17.2996 S   0  0  1  0  0  3  0  0  0  0  0  0
   14.0140    4.7510   16.8408 O   0  0  0  0  0  0  0  0  0  0  0  0
   13.6376    5.9411   13.7193 N   0  0  1  0  0  4  0  0  0  0  0  0
   12.4116    7.3556   15.7672 N   0  0  2  0  0  4  0  0  0  0  0  0
   15.6177    4.3301   13.7336 C   0  0  0  0  0  0  0  0  0  0  0  0
   14.7677    5.3371   12.9719 C   0  0  0  0  0  0  0  0  0  0  0  0
   12.6379    4.8909   13.9996 C   0  0  0  0  0  0  0  0  0  0  0  0
   11.3449    5.2765   14.7398 C   0  0  0  0  0  0  0  0  0  0  0  0
   11.4393    6.2636   15.9154 C   0  0  0  0  0  0  0  0  0  0  0  0
   13.0841    6.9779   12.8142 C   0  0  0  0  0  0  0  0  0  0  0  0
   11.8831    7.7849   13.3088 C   0  0  0  0  0  0  0  0  0  0  0  0
   12.0137    8.3279   14.7284 C   0  0  0  0  0  0  0  0  0  0  0  0
   12.5101    8.1075   17.0361 C   0  0  0  0  0  0  0  0  0  0  0  0
   13.4324    7.4426   18.0424 C   0  0  0  0  0  0  0  0  0  0  0  0
   15.6781    5.7900   18.1829 C   0  0  0  0  0  0  0  0  0  0  0  0
   15.2371    4.4844   17.5093 C   0  0  2  0  0  0  0  0  0  0  0  0
   16.2835    3.9716   16.5104 C   0  0  0  0  0  0  0  0  0  0  0  0
   13.5716    3.9185   16.6364 H   0  0  0  0  0  0  0  0  0  0  0  0
   15.0501    3.4829   14.1130 H   0  0  0  0  0  0  0  0  0  0  0  0
   16.3927    3.9567   13.0633 H   0  0  0  0  0  0  0  0  0  0  0  0
   15.4263    6.1525   12.6574 H   0  0  0  0  0  0  0  0  0  0  0  0
   14.3826    4.8448   12.0668 H   0  0  0  0  0  0  0  0  0  0  0  0
   13.1364    4.1003   14.5633 H   0  0  0  0  0  0  0  0  0  0  0  0
   12.3304    4.4470   13.0413 H   0  0  0  0  0  0  0  0  0  0  0  0
   10.9280    4.3474   15.1372 H   0  0  0  0  0  0  0  0  0  0  0  0
   10.6142    5.6354   14.0207 H   0  0  0  0  0  0  0  0  0  0  0  0
   10.4339    6.6806   16.0770 H   0  0  0  0  0  0  0  0  0  0  0  0
   11.7130    5.7098   16.8159 H   0  0  0  0  0  0  0  0  0  0  0  0
   12.7969    6.4939   11.8719 H   0  0  0  0  0  0  0  0  0  0  0  0
   13.8920    7.6806   12.6035 H   0  0  0  0  0  0  0  0  0  0  0  0
   10.9536    7.2386   13.1789 H   0  0  0  0  0  0  0  0  0  0  0  0
   11.8137    8.6547   12.6526 H   0  0  0  0  0  0  0  0  0  0  0  0
   12.7809    9.1059   14.7112 H   0  0  0  0  0  0  0  0  0  0  0  0
   11.0573    8.7891   15.0096 H   0  0  0  0  0  0  0  0  0  0  0  0
   11.5153    8.2464   17.4817 H   0  0  0  0  0  0  0  0  0  0  0  0
   12.9190    9.0962   16.8127 H   0  0  0  0  0  0  0  0  0  0  0  0
   13.5363    8.0678   18.9294 H   0  0  0  0  0  0  0  0  0  0  0  0
   13.0866    6.4530   18.3310 H   0  0  0  0  0  0  0  0  0  0  0  0
   15.2849    5.8664   19.1947 H   0  0  0  0  0  0  0  0  0  0  0  0
   16.7641    5.8601   18.2158 H   0  0  0  0  0  0  0  0  0  0  0  0
   15.0844    3.7153   18.2802 H   0  0  0  0  0  0  0  0  0  0  0  0
   17.2546    3.8753   16.9924 H   0  0  0  0  0  0  0  0  0  0  0  0
   15.9967    3.0037   16.1007 H   0  0  0  0  0  0  0  0  0  0  0  0
  1  7  1  0  0  0  0
  1  4  1  0  0  0  0
  2  1  1  0  0  0  0
  3  8  1  6  0  0  0
  3  1  1  0  0  0  0
  3 20  1  0  0  0  0
  4 17  1  1  0  0  0
  4 18  1  0  0  0  0
  5 19  1  0  0  0  0
  6 13  1  6  0  0  0
  6 10  1  0  0  0  0
  6  1  1  0  0  0  0
  7 15  1  6  0  0  0
  7 12  1  0  0  0  0
  7 16  1  0  0  0  0
  8 22  1  0  0  0  0
  9  6  1  0  0  0  0
  9  8  1  0  0  0  0
 10 26  1  0  0  0  0
 10 11  1  0  0  0  0
 11 28  1  0  0  0  0
 11 12  1  0  0  0  0
 12 30  1  0  0  0  0
 12 31  1  0  0  0  0
 13 14  1  0  0  0  0
 14 15  1  0  0  0  0
 15 37  1  0  0  0  0
 16 38  1  0  0  0  0
 16 17  1  0  0  0  0
 17 41  1  0  0  0  0
 17 40  1  0  0  0  0
 18 43  1  0  0  0  0
 18 42  1  0  0  0  0
 19 18  1  0  0  0  0
 19 44  1  1  0  0  0
 20 45  1  0  0  0  0
 20 19  1  0  0  0  0
 21  5  1  0  0  0  0
 23  8  1  0  0  0  0
 24  9  1  0  0  0  0
 25  9  1  0  0  0  0
 27 10  1  0  0  0  0
 29 11  1  0  0  0  0
 32 13  1  0  0  0  0
 33 13  1  0  0  0  0
 34 14  1  0  0  0  0
 35 14  1  0  0  0  0
 36 15  1  0  0  0  0
 39 16  1  0  0  0  0
 46 20  1  0  0  0  0
M  END
$$$$
