CSD_code = TETJEK | q = 0 | S = 0 | Stoichiometry = C15H18CdCl2N4O | MND = 5
 OpenBabel04212202103D

 41 44  0  0  1  0  0  0  0  0999 V2000
    3.7497    3.5962   10.7738 Cd  0  0  0  0  0  0  0  0  0  0  0  0
    1.5786    3.1901   11.5076 Cl  0  0  0  0  0  0  0  0  0  0  0  0
    3.9839    2.6568    8.5456 Cl  0  0  0  0  0  0  0  0  0  0  0  0
    5.3769    2.6284   12.4147 N   0  0  0  0  0  0  0  0  0  0  0  0
    5.7595    4.5973   10.6253 N   0  0  0  0  0  0  0  0  0  0  0  0
    5.8700    5.4812    9.6308 N   0  0  0  0  0  0  0  0  0  0  0  0
    4.5115    5.9156    6.6824 N   0  0  0  0  0  4  0  0  0  0  0  0
    3.5870    5.7966    9.7340 O   0  0  0  0  0  0  0  0  0  0  0  0
    6.5766    3.1751   12.3062 C   0  0  0  0  0  0  0  0  0  0  0  0
    7.6714    2.7427   13.0950 C   0  0  0  0  0  0  0  0  0  0  0  0
    8.6314    3.2202   12.9690 H   0  0  0  0  0  0  0  0  0  0  0  0
    7.4909    1.7322   13.9935 C   0  0  0  0  0  0  0  0  0  0  0  0
    8.3067    1.3773   14.6080 H   0  0  0  0  0  0  0  0  0  0  0  0
    6.2175    1.1383   14.1258 C   0  0  0  0  0  0  0  0  0  0  0  0
    5.9445    0.0931   15.0281 C   0  0  0  0  0  0  0  0  0  0  0  0
    6.7468   -0.2779   15.6502 H   0  0  0  0  0  0  0  0  0  0  0  0
    4.6865   -0.4376   15.1114 C   0  0  0  0  0  0  0  0  0  0  0  0
    4.4806   -1.2396   15.8048 H   0  0  0  0  0  0  0  0  0  0  0  0
    3.6512    0.0562   14.3003 C   0  0  0  0  0  0  0  0  0  0  0  0
    2.6640   -0.3722   14.3854 H   0  0  0  0  0  0  0  0  0  0  0  0
    3.8789    1.0696   13.4109 C   0  0  0  0  0  0  0  0  0  0  0  0
    3.0849    1.4641   12.7901 H   0  0  0  0  0  0  0  0  0  0  0  0
    5.1681    1.6344   13.2982 C   0  0  1  0  0  3  0  0  0  0  0  0
    6.7578    4.2373   11.3397 C   0  0  0  0  0  3  0  0  0  0  0  0
    4.6963    5.9138    9.1960 C   0  0  0  0  0  0  0  0  0  0  0  0
    4.8110    6.7268    7.8888 C   0  0  0  0  0  0  0  0  0  0  0  0
    4.0983    7.5527    7.9409 H   0  0  0  0  0  0  0  0  0  0  0  0
    5.8285    7.1121    7.8152 H   0  0  0  0  0  0  0  0  0  0  0  0
    3.1441    5.3692    6.7546 C   0  0  0  0  0  0  0  0  0  0  0  0
    2.8936    4.8858    5.8130 H   0  0  0  0  0  0  0  0  0  0  0  0
    2.4300    6.1624    6.9639 H   0  0  0  0  0  0  0  0  0  0  0  0
    3.0902    4.6155    7.5461 H   0  0  0  0  0  0  0  0  0  0  0  0
    5.4687    4.8005    6.5687 C   0  0  0  0  0  0  0  0  0  0  0  0
    5.2551    4.0524    7.3433 H   0  0  0  0  0  0  0  0  0  0  0  0
    6.4862    5.1664    6.6805 H   0  0  0  0  0  0  0  0  0  0  0  0
    5.3537    4.3185    5.6005 H   0  0  0  0  0  0  0  0  0  0  0  0
    4.6293    6.7871    5.5020 C   0  0  0  0  0  0  0  0  0  0  0  0
    5.6388    7.1896    5.4323 H   0  0  0  0  0  0  0  0  0  0  0  0
    3.9237    7.6137    5.5711 H   0  0  0  0  0  0  0  0  0  0  0  0
    4.4147    6.2195    4.5979 H   0  0  0  0  0  0  0  0  0  0  0  0
    7.7444    4.6894   11.2353 H   0  0  0  0  0  0  0  0  0  0  0  0
  1  2  1  0  0  0  0
  1  4  1  0  0  0  0
  3  1  1  0  0  0  0
  4 23  1  0  0  0  0
  5  1  1  0  0  0  0
  5 24  1  0  0  0  0
  6  5  1  0  0  0  0
  7 29  1  0  0  0  0
  7 26  1  0  0  0  0
  8  1  1  0  0  0  0
  9  4  1  0  0  0  0
  9 10  2  0  0  0  0
 10 12  1  0  0  0  0
 11 10  1  0  0  0  0
 12 14  2  0  0  0  0
 12 13  1  0  0  0  0
 14 15  1  0  0  0  0
 15 17  2  0  0  0  0
 15 16  1  0  0  0  0
 17 18  1  0  0  0  0
 19 20  1  0  0  0  0
 19 17  1  0  0  0  0
 21 19  2  0  0  0  0
 22 21  1  0  0  0  0
 23 21  1  1  0  0  0
 23 14  1  0  0  0  0
 24  9  1  0  0  0  0
 25  6  2  0  0  0  0
 25  8  1  0  0  0  0
 26 27  1  0  0  0  0
 26 25  1  0  0  0  0
 28 26  1  0  0  0  0
 29 31  1  0  0  0  0
 29 32  1  0  0  0  0
 30 29  1  0  0  0  0
 33 35  1  0  0  0  0
 33  7  1  0  0  0  0
 33 34  1  0  0  0  0
 36 33  1  0  0  0  0
 37 39  1  0  0  0  0
 37  7  1  0  0  0  0
 38 37  1  0  0  0  0
 40 37  1  0  0  0  0
 41 24  1  0  0  0  0
M  END
$$$$
