CSD_code = TETVOD | q = 0 | S = 0 | Stoichiometry = C8H14Cl2N2Pt | MND = 5
 OpenBabel04212202103D

 27 25  0  0  1  0  0  0  0  0999 V2000
    6.8792    5.8509    1.5618 Pt  0  0  0  0  0  0  0  0  0  0  0  0
    6.1703    7.6382    2.8089 Cl  0  0  0  0  0 15  0  0  0  0  0  0
    8.9678    6.7032    1.5593 Cl  0  0  0  0  0 15  0  0  0  0  0  0
    7.9345    4.3711   -0.8665 N   0  0  0  0  0  0  0  0  0  0  0  0
    8.4671    3.3618    0.9545 N   0  0  0  0  0  0  0  0  0  0  0  0
    7.7430    4.3811    0.4626 C   0  0  1  0  0  3  0  0  0  0  0  0
    9.1074    2.7095   -0.0623 C   0  0  0  0  0  0  0  0  0  0  0  0
    9.7394    1.8618    0.1041 H   0  0  0  0  0  0  0  0  0  0  0  0
    8.7724    3.3454   -1.2105 C   0  0  0  0  0  0  0  0  0  0  0  0
    9.0563    3.1490   -2.2235 H   0  0  0  0  0  0  0  0  0  0  0  0
    8.6263    3.0890    2.3576 C   0  0  0  0  0  0  0  0  0  0  0  0
    9.1525    2.1457    2.4897 H   0  0  0  0  0  0  0  0  0  0  0  0
    7.6518    3.0346    2.8455 H   0  0  0  0  0  0  0  0  0  0  0  0
    9.2009    3.8934    2.8238 H   0  0  0  0  0  0  0  0  0  0  0  0
    7.4549    5.3851   -1.7749 C   0  0  0  0  0  0  0  0  0  0  0  0
    7.0509    4.9010   -2.6691 H   0  0  0  0  0  0  0  0  0  0  0  0
    6.6566    5.9351   -1.2627 H   0  0  0  0  0  0  0  0  0  0  0  0
    8.5766    6.3531   -2.1386 C   0  0  0  0  0  0  0  0  0  0  0  0
    8.1936    7.1333   -2.7895 H   0  0  0  0  0  0  0  0  0  0  0  0
    9.3878    5.8373   -2.6470 H   0  0  0  0  0  0  0  0  0  0  0  0
    8.9654    6.8110   -1.2316 H   0  0  0  0  0  0  0  0  0  0  0  0
    4.8198    5.4642    1.0459 C   0  0  0  0  0  3  0  0  0  0  0  0
    4.2878    6.4053    1.1195 H   0  0  0  0  0  0  0  0  0  0  0  0
    4.7228    4.9364    0.1021 H   0  0  0  0  0  0  0  0  0  0  0  0
    5.1316    4.7636    2.2001 C   0  0  0  0  0  0  0  0  0  0  0  0
    5.2767    3.6885    2.1567 H   0  0  0  0  0  0  0  0  0  0  0  0
    4.8406    5.1640    3.1642 H   0  0  0  0  0  0  0  0  0  0  0  0
  1 25  1  0  0  0  0
  4  6  1  0  0  0  0
  5 11  1  0  0  0  0
  6  5  1  0  0  0  0
  6  1  1  1  0  0  0
  7  8  1  0  0  0  0
  7  5  1  0  0  0  0
  9  4  1  0  0  0  0
  9  7  2  0  0  0  0
 10  9  1  0  0  0  0
 11 12  1  0  0  0  0
 11 14  1  0  0  0  0
 11 13  1  0  0  0  0
 15 17  1  0  0  0  0
 15  4  1  0  0  0  0
 16 15  1  0  0  0  0
 18 15  1  0  0  0  0
 18 21  1  0  0  0  0
 19 18  1  0  0  0  0
 20 18  1  0  0  0  0
 22 23  1  0  0  0  0
 22 25  1  0  0  0  0
 24 22  1  0  0  0  0
 25 27  1  0  0  0  0
 26 25  1  0  0  0  0
M  END
$$$$
