CSD_code = TEVHUA | q = 0 | S = 0 | Stoichiometry = C20H20Cl2N2Zn | MND = 4
 OpenBabel04212202103D

 45 48  0  0  1  0  0  0  0  0999 V2000
    3.8643    4.0542    5.9995 C   0  0  0  0  0  3  0  0  0  0  0  0
    4.7067    4.5125    6.5215 H   0  0  0  0  0  0  0  0  0  0  0  0
    3.4902    6.0069    4.7868 C   0  0  0  0  0  0  0  0  0  0  0  0
    2.4917    6.9863    4.9522 C   0  0  0  0  0  0  0  0  0  0  0  0
    2.7780    8.2900    4.5873 C   0  0  0  0  0  0  0  0  0  0  0  0
    2.0348    9.0596    4.7127 H   0  0  0  0  0  0  0  0  0  0  0  0
    4.0159    8.6239    4.0627 C   0  0  0  0  0  0  0  0  0  0  0  0
    4.2258    9.6470    3.7890 H   0  0  0  0  0  0  0  0  0  0  0  0
    4.9771    7.6506    3.8852 C   0  0  0  0  0  0  0  0  0  0  0  0
    5.9371    7.9126    3.4656 H   0  0  0  0  0  0  0  0  0  0  0  0
    4.7415    6.3274    4.2412 C   0  0  0  0  0  0  0  0  0  0  0  0
    5.7939    5.3051    3.9084 C   0  0  0  0  0  0  0  0  0  0  0  0
    6.7533    5.6408    4.3128 H   0  0  0  0  0  0  0  0  0  0  0  0
    5.5661    4.3306    4.3407 H   0  0  0  0  0  0  0  0  0  0  0  0
    5.9121    5.1279    2.3932 C   0  0  0  0  0  0  0  0  0  0  0  0
    6.7213    4.4393    2.1632 H   0  0  0  0  0  0  0  0  0  0  0  0
    4.9904    4.7091    1.9986 H   0  0  0  0  0  0  0  0  0  0  0  0
    6.1067    6.0765    1.8989 H   0  0  0  0  0  0  0  0  0  0  0  0
    1.1825    6.5774    5.5681 C   0  0  0  0  0  0  0  0  0  0  0  0
    0.7688    5.7551    4.9760 H   0  0  0  0  0  0  0  0  0  0  0  0
    1.3778    6.1752    6.5680 H   0  0  0  0  0  0  0  0  0  0  0  0
    0.1340    7.6768    5.6708 C   0  0  0  0  0  0  0  0  0  0  0  0
   -0.7786    7.2617    6.0914 H   0  0  0  0  0  0  0  0  0  0  0  0
    0.4692    8.4857    6.3170 H   0  0  0  0  0  0  0  0  0  0  0  0
   -0.1014    8.0785    4.6885 H   0  0  0  0  0  0  0  0  0  0  0  0
    1.9841    3.2846    4.0408 Zn  0  0  0  0  0  0  0  0  0  0  0  0
   -0.1692    3.5644    3.7233 Cl  0  0  0  0  0  0  0  0  0  0  0  0
    3.4783    2.4326    2.6510 Cl  0  0  0  0  0  0  0  0  0  0  0  0
    2.5199    2.1215    5.7298 N   0  0  0  0  0  0  0  0  0  0  0  0
    3.1658    4.7008    5.1542 N   0  0  0  0  0  0  0  0  0  0  0  0
    3.5503    2.6785    6.3386 C   0  0  0  0  0  0  0  0  0  0  0  0
    4.3335    1.9786    7.2810 C   0  0  0  0  0  0  0  0  0  0  0  0
    5.1666    2.4763    7.7528 H   0  0  0  0  0  0  0  0  0  0  0  0
    4.0246    0.6776    7.5677 C   0  0  0  0  0  0  0  0  0  0  0  0
    4.6081    0.1098    8.2779 H   0  0  0  0  0  0  0  0  0  0  0  0
    2.9315    0.0643    6.9234 C   0  0  0  0  0  0  0  0  0  0  0  0
    2.5486   -1.2717    7.1520 C   0  0  0  0  0  0  0  0  0  0  0  0
    3.1158   -1.8607    7.8578 H   0  0  0  0  0  0  0  0  0  0  0  0
    1.4808   -1.8076    6.4863 C   0  0  0  0  0  0  0  0  0  0  0  0
    1.1923   -2.8331    6.6612 H   0  0  0  0  0  0  0  0  0  0  0  0
    0.7487   -1.0341    5.5683 C   0  0  0  0  0  0  0  0  0  0  0  0
   -0.0899   -1.4787    5.0547 H   0  0  0  0  0  0  0  0  0  0  0  0
    1.0891    0.2666    5.3226 C   0  0  0  0  0  0  0  0  0  0  0  0
    0.5360    0.8754    4.6220 H   0  0  0  0  0  0  0  0  0  0  0  0
    2.1884    0.8455    5.9892 C   0  0  2  0  0  3  0  0  0  0  0  0
  1 31  1  0  0  0  0
  1  2  1  0  0  0  0
  3  4  1  0  0  0  0
  3 30  1  0  0  0  0
  4 19  1  0  0  0  0
  5  6  1  0  0  0  0
  5  4  2  0  0  0  0
  7  5  1  0  0  0  0
  8  7  1  0  0  0  0
  9  7  2  0  0  0  0
  9 11  1  0  0  0  0
 10  9  1  0  0  0  0
 11  3  2  0  0  0  0
 12 11  1  0  0  0  0
 12 13  1  0  0  0  0
 12 14  1  0  0  0  0
 15 12  1  0  0  0  0
 16 15  1  0  0  0  0
 17 15  1  0  0  0  0
 18 15  1  0  0  0  0
 19 22  1  0  0  0  0
 19 21  1  0  0  0  0
 20 19  1  0  0  0  0
 22 23  1  0  0  0  0
 22 24  1  0  0  0  0
 25 22  1  0  0  0  0
 26 30  1  0  0  0  0
 26 29  1  0  0  0  0
 27 26  1  0  0  0  0
 28 26  1  0  0  0  0
 29 45  1  0  0  0  0
 29 31  1  0  0  0  0
 30  1  1  0  0  0  0
 31 32  2  0  0  0  0
 32 34  1  0  0  0  0
 32 33  1  0  0  0  0
 34 35  1  0  0  0  0
 36 37  1  0  0  0  0
 36 34  2  0  0  0  0
 37 38  1  0  0  0  0
 39 40  1  0  0  0  0
 39 37  2  0  0  0  0
 41 39  1  0  0  0  0
 42 41  1  0  0  0  0
 43 41  2  0  0  0  0
 44 43  1  0  0  0  0
 45 43  1  6  0  0  0
 45 36  1  0  0  0  0
M  END
$$$$
