CSD_code = TEVJAI | q = 0 | S = 0 | Stoichiometry = C17H14Cl2N2Zn | MND = 4
 OpenBabel04212202103D

 36 39  0  0  1  0  0  0  0  0999 V2000
   -0.1173    5.5184   13.8426 C   0  0  0  0  0  0  0  0  0  0  0  0
   -0.5679    6.2890   14.9362 C   0  0  0  0  0  0  0  0  0  0  0  0
   -1.2364    5.8448   15.6573 H   0  0  0  0  0  0  0  0  0  0  0  0
   -0.1534    7.5866   15.0530 C   0  0  0  0  0  0  0  0  0  0  0  0
   -0.4853    8.2064   15.8735 H   0  0  0  0  0  0  0  0  0  0  0  0
    0.7152    8.1291   14.0844 C   0  0  0  0  0  0  0  0  0  0  0  0
    1.1833    9.4570   14.1219 C   0  0  0  0  0  0  0  0  0  0  0  0
    0.8685   10.0954   14.9343 H   0  0  0  0  0  0  0  0  0  0  0  0
    2.0166    9.9234   13.1427 C   0  0  0  0  0  0  0  0  0  0  0  0
    2.3708   10.9428   13.1724 H   0  0  0  0  0  0  0  0  0  0  0  0
    2.4201    9.0857   12.0881 C   0  0  0  0  0  0  0  0  0  0  0  0
    3.0778    9.4759   11.3266 H   0  0  0  0  0  0  0  0  0  0  0  0
    1.9879    7.7907   12.0200 C   0  0  0  0  0  0  0  0  0  0  0  0
    2.2904    7.1329   11.2180 H   0  0  0  0  0  0  0  0  0  0  0  0
    1.1243    7.2824   13.0120 C   0  0  2  0  0  3  0  0  0  0  0  0
   -0.5783    2.1343   12.5133 C   0  0  0  0  0  0  0  0  0  0  0  0
    0.3252    1.1059   12.1974 C   0  0  0  0  0  0  0  0  0  0  0  0
   -0.1902   -0.1502   11.9145 C   0  0  0  0  0  0  0  0  0  0  0  0
    0.4924   -0.9520   11.6740 H   0  0  0  0  0  0  0  0  0  0  0  0
   -1.5535   -0.3924   11.9252 C   0  0  0  0  0  0  0  0  0  0  0  0
   -1.9270   -1.3767   11.6868 H   0  0  0  0  0  0  0  0  0  0  0  0
   -2.4373    0.6302   12.2304 C   0  0  0  0  0  0  0  0  0  0  0  0
   -3.5017    0.4524   12.2235 H   0  0  0  0  0  0  0  0  0  0  0  0
   -1.9526    1.8861   12.5340 C   0  0  0  0  0  0  0  0  0  0  0  0
   -2.6312    2.7057   12.7194 H   0  0  0  0  0  0  0  0  0  0  0  0
    1.7970    1.3543   12.2122 C   0  0  0  0  0  0  0  0  0  0  0  0
    2.3420    0.4497   11.9572 H   0  0  0  0  0  0  0  0  0  0  0  0
    2.0587    2.1332   11.4954 H   0  0  0  0  0  0  0  0  0  0  0  0
    2.1219    1.6953   13.1944 H   0  0  0  0  0  0  0  0  0  0  0  0
    0.6985    6.0104   12.9277 N   0  0  0  0  0  0  0  0  0  0  0  0
   -0.0929    3.4149   12.7448 N   0  0  0  0  0  0  0  0  0  0  0  0
   -1.3271    5.3504   10.4414 Cl  0  0  0  0  0  0  0  0  0  0  0  0
    2.5456    4.4061   10.1722 Cl  0  0  0  0  0  0  0  0  0  0  0  0
    0.6525    4.7502   11.2313 Zn  0  0  0  0  0  0  0  0  0  0  0  0
   -0.5562    4.1470   13.6799 C   0  0  0  0  0  3  0  0  0  0  0  0
   -1.2903    3.7732   14.3959 H   0  0  0  0  0  0  0  0  0  0  0  0
  1  2  2  0  0  0  0
  2  4  1  0  0  0  0
  2  3  1  0  0  0  0
  4  5  1  0  0  0  0
  6  7  1  0  0  0  0
  6  4  2  0  0  0  0
  7  8  1  0  0  0  0
  9 10  1  0  0  0  0
  9  7  2  0  0  0  0
 11  9  1  0  0  0  0
 12 11  1  0  0  0  0
 13 11  2  0  0  0  0
 14 13  1  0  0  0  0
 15 13  1  6  0  0  0
 15  6  1  0  0  0  0
 16 24  1  0  0  0  0
 16 31  1  0  0  0  0
 17 26  1  0  0  0  0
 17 16  2  0  0  0  0
 18 20  2  0  0  0  0
 18 17  1  0  0  0  0
 19 18  1  0  0  0  0
 20 22  1  0  0  0  0
 21 20  1  0  0  0  0
 22 24  2  0  0  0  0
 23 22  1  0  0  0  0
 24 25  1  0  0  0  0
 26 29  1  0  0  0  0
 27 26  1  0  0  0  0
 28 26  1  0  0  0  0
 30 15  1  0  0  0  0
 30  1  1  0  0  0  0
 31 35  1  0  0  0  0
 32 34  1  0  0  0  0
 33 34  1  0  0  0  0
 34 31  1  0  0  0  0
 34 30  1  0  0  0  0
 35  1  1  0  0  0  0
 35 36  1  0  0  0  0
M  END
$$$$
