CSD_code = TEVJIQ | q = 0 | S = 0 | Stoichiometry = C22H24Cl2N2Zn | MND = 4
 OpenBabel04212202103D

 51 54  0  0  1  0  0  0  0  0999 V2000
    5.3319    3.6804   10.4973 Zn  0  0  0  0  0  0  0  0  0  0  0  0
    3.1423    3.7978   10.5353 Cl  0  0  0  0  0  0  0  0  0  0  0  0
    6.6770    3.0545    8.8559 Cl  0  0  0  0  0  0  0  0  0  0  0  0
    6.2048    2.5624   12.0756 N   0  0  0  0  0  0  0  0  0  0  0  0
    6.5781    5.1744   11.4236 N   0  0  0  0  0  0  0  0  0  0  0  0
    7.2646    3.1973   12.5410 C   0  0  0  0  0  0  0  0  0  0  0  0
    8.2007    2.5710   13.3918 C   0  0  0  0  0  0  0  0  0  0  0  0
    9.0524    3.1309   13.7461 H   0  0  0  0  0  0  0  0  0  0  0  0
    8.0100    1.2636   13.7431 C   0  0  0  0  0  0  0  0  0  0  0  0
    8.7095    0.7519   14.3883 H   0  0  0  0  0  0  0  0  0  0  0  0
    6.8864    0.5684   13.2523 C   0  0  0  0  0  0  0  0  0  0  0  0
    6.6180   -0.7805   13.5558 C   0  0  0  0  0  0  0  0  0  0  0  0
    7.3020   -1.3137   14.1998 H   0  0  0  0  0  0  0  0  0  0  0  0
    5.5125   -1.3981   13.0388 C   0  0  0  0  0  0  0  0  0  0  0  0
    5.3113   -2.4329   13.2712 H   0  0  0  0  0  0  0  0  0  0  0  0
    4.6279   -0.6967   12.2009 C   0  0  0  0  0  0  0  0  0  0  0  0
    3.7621   -1.2048   11.8047 H   0  0  0  0  0  0  0  0  0  0  0  0
    4.8547    0.6139   11.8860 C   0  0  0  0  0  0  0  0  0  0  0  0
    4.1833    1.1685   11.2464 H   0  0  0  0  0  0  0  0  0  0  0  0
    5.9881    1.2764   12.4000 C   0  0  2  0  0  3  0  0  0  0  0  0
    7.4476    4.5792   12.1392 C   0  0  0  0  0  3  0  0  0  0  0  0
    8.3411    5.0865   12.5061 H   0  0  0  0  0  0  0  0  0  0  0  0
    6.7648    6.4732   10.9591 C   0  0  0  0  0  0  0  0  0  0  0  0
    5.7379    7.4015   11.2124 C   0  0  0  0  0  0  0  0  0  0  0  0
    5.8814    8.6953   10.7412 C   0  0  0  0  0  0  0  0  0  0  0  0
    5.1156    9.4267   10.9407 H   0  0  0  0  0  0  0  0  0  0  0  0
    7.0009    9.0630   10.0160 C   0  0  0  0  0  0  0  0  0  0  0  0
    7.1018   10.0760    9.6561 H   0  0  0  0  0  0  0  0  0  0  0  0
    7.9871    8.1348    9.7479 C   0  0  0  0  0  0  0  0  0  0  0  0
    8.8471    8.4322    9.1681 H   0  0  0  0  0  0  0  0  0  0  0  0
    7.9019    6.8285   10.2114 C   0  0  0  0  0  0  0  0  0  0  0  0
    8.9799    5.8413    9.8285 C   0  0  0  0  0  0  0  0  0  0  0  0
    8.7093    4.8404   10.1782 H   0  0  0  0  0  0  0  0  0  0  0  0
    9.1108    5.7450    8.3071 C   0  0  0  0  0  0  0  0  0  0  0  0
    9.8735    5.0130    8.0526 H   0  0  0  0  0  0  0  0  0  0  0  0
    8.1695    5.4127    7.8780 H   0  0  0  0  0  0  0  0  0  0  0  0
    9.3848    6.6987    7.8638 H   0  0  0  0  0  0  0  0  0  0  0  0
   10.3162    6.2313   10.4679 C   0  0  0  0  0  0  0  0  0  0  0  0
   10.2249    6.3175   11.5498 H   0  0  0  0  0  0  0  0  0  0  0  0
   11.0694    5.4797   10.2432 H   0  0  0  0  0  0  0  0  0  0  0  0
   10.6616    7.1877   10.0832 H   0  0  0  0  0  0  0  0  0  0  0  0
    4.5686    6.9934   12.0737 C   0  0  0  0  0  0  0  0  0  0  0  0
    4.3754    5.9289   11.9023 H   0  0  0  0  0  0  0  0  0  0  0  0
    3.2840    7.7524   11.7510 C   0  0  0  0  0  0  0  0  0  0  0  0
    3.0919    7.7357   10.6814 H   0  0  0  0  0  0  0  0  0  0  0  0
    2.4477    7.2714   12.2519 H   0  0  0  0  0  0  0  0  0  0  0  0
    3.3317    8.7851   12.0896 H   0  0  0  0  0  0  0  0  0  0  0  0
    4.9406    7.1740   13.5498 C   0  0  0  0  0  0  0  0  0  0  0  0
    5.8164    6.5803   13.8061 H   0  0  0  0  0  0  0  0  0  0  0  0
    5.1603    8.2196   13.7584 H   0  0  0  0  0  0  0  0  0  0  0  0
    4.1149    6.8592   14.1831 H   0  0  0  0  0  0  0  0  0  0  0  0
  1  2  1  0  0  0  0
  1  5  1  0  0  0  0
  1  4  1  0  0  0  0
  3  1  1  0  0  0  0
  4 20  1  0  0  0  0
  4  6  1  0  0  0  0
  5 21  1  0  0  0  0
  6  7  2  0  0  0  0
  7  9  1  0  0  0  0
  7  8  1  0  0  0  0
  9 10  1  0  0  0  0
 11 12  1  0  0  0  0
 11  9  2  0  0  0  0
 12 13  1  0  0  0  0
 14 15  1  0  0  0  0
 14 12  2  0  0  0  0
 16 14  1  0  0  0  0
 17 16  1  0  0  0  0
 18 16  2  0  0  0  0
 19 18  1  0  0  0  0
 20 18  1  6  0  0  0
 20 11  1  0  0  0  0
 21 22  1  0  0  0  0
 21  6  1  0  0  0  0
 23 24  1  0  0  0  0
 23  5  1  0  0  0  0
 24 42  1  0  0  0  0
 25 26  1  0  0  0  0
 25 24  2  0  0  0  0
 27 25  1  0  0  0  0
 28 27  1  0  0  0  0
 29 27  2  0  0  0  0
 29 31  1  0  0  0  0
 30 29  1  0  0  0  0
 31 23  2  0  0  0  0
 32 33  1  0  0  0  0
 32 31  1  0  0  0  0
 32 38  1  0  0  0  0
 34 32  1  0  0  0  0
 35 34  1  0  0  0  0
 36 34  1  0  0  0  0
 37 34  1  0  0  0  0
 38 39  1  0  0  0  0
 40 38  1  0  0  0  0
 41 38  1  0  0  0  0
 42 48  1  0  0  0  0
 43 42  1  0  0  0  0
 44 42  1  0  0  0  0
 44 47  1  0  0  0  0
 44 46  1  0  0  0  0
 45 44  1  0  0  0  0
 48 50  1  0  0  0  0
 48 49  1  0  0  0  0
 48 51  1  0  0  0  0
M  END
$$$$
