CSD_code = TEVKEN | q = 0 | S = 0 | Stoichiometry = C22H20Cl2N4O2Zn | MND = 4
 OpenBabel04212202103D

 51 54  0  0  0  0  0  0  0  0999 V2000
    9.8896   15.0624    1.4105 Zn  0  0  0  0  0  0  0  0  0  0  0  0
   11.3294   15.0625   -0.3082 Cl  0  0  0  0  0  0  0  0  0  0  0  0
    7.7215   15.0628    1.6365 Cl  0  0  0  0  0  0  0  0  0  0  0  0
   12.8092   10.5988    2.4271 C   0  0  0  0  0  0  0  0  0  0  0  0
   13.5295    8.3058    2.4041 C   0  0  0  0  0  0  0  0  0  0  0  0
   13.2979    7.2644    2.5603 H   0  0  0  0  0  0  0  0  0  0  0  0
   15.0593   10.0585    1.8111 C   0  0  0  0  0  0  0  0  0  0  0  0
   16.0503   10.3533    1.5006 H   0  0  0  0  0  0  0  0  0  0  0  0
   12.5413    9.2467    2.6192 C   0  0  0  0  0  0  0  0  0  0  0  0
   11.5534    8.9310    2.9178 H   0  0  0  0  0  0  0  0  0  0  0  0
   11.6429   12.7114    1.9705 C   0  0  0  0  0  3  0  0  0  0  0  0
   12.2537   13.0382    1.1523 H   0  0  0  0  0  0  0  0  0  0  0  0
   14.0775   11.0037    2.0200 C   0  0  0  0  0  0  0  0  0  0  0  0
   14.2907   12.0519    1.8811 H   0  0  0  0  0  0  0  0  0  0  0  0
   15.9199    7.7439    1.7517 C   0  0  0  0  0  0  0  0  0  0  0  0
   14.8025    8.6995    1.9974 C   0  0  0  0  0  0  0  0  0  0  0  0
   10.0589   12.6279    3.4126 C   0  0  0  0  0  0  0  0  0  0  0  0
    9.1841   12.9576    3.9348 H   0  0  0  0  0  0  0  0  0  0  0  0
   10.7907   11.4914    3.5652 C   0  0  0  0  0  0  0  0  0  0  0  0
   10.6921   10.6805    4.2561 H   0  0  0  0  0  0  0  0  0  0  0  0
   15.5719    6.2781    1.7233 C   0  0  0  0  0  0  0  0  0  0  0  0
   16.4480    5.7087    1.4244 H   0  0  0  0  0  0  0  0  0  0  0  0
   14.7596    6.0926    1.0246 H   0  0  0  0  0  0  0  0  0  0  0  0
   15.2622    5.9534    2.7148 H   0  0  0  0  0  0  0  0  0  0  0  0
   11.8036   11.5543    2.6425 N   0  0  0  0  0  0  0  0  0  0  0  0
   10.6014   13.3738    2.4109 N   0  0  0  0  0  0  0  0  0  0  0  0
   17.0496    8.1391    1.5803 O   0  0  0  0  0  0  0  0  0  0  0  0
   12.8097   19.5256    2.4274 C   0  0  0  0  0  0  0  0  0  0  0  0
   13.5297   21.8186    2.4045 C   0  0  0  0  0  0  0  0  0  0  0  0
   13.2981   22.8599    2.5611 H   0  0  0  0  0  0  0  0  0  0  0  0
   15.0594   20.0662    1.8103 C   0  0  0  0  0  0  0  0  0  0  0  0
   16.0503   19.7717    1.4993 H   0  0  0  0  0  0  0  0  0  0  0  0
   12.5417   20.8776    2.6199 C   0  0  0  0  0  0  0  0  0  0  0  0
   11.5540   21.1930    2.9191 H   0  0  0  0  0  0  0  0  0  0  0  0
   11.6434   17.4130    1.9708 C   0  0  0  0  0  3  0  0  0  0  0  0
   12.2538   17.0865    1.1522 H   0  0  0  0  0  0  0  0  0  0  0  0
   14.0779   19.1209    2.0195 C   0  0  0  0  0  0  0  0  0  0  0  0
   14.2911   18.0728    1.8803 H   0  0  0  0  0  0  0  0  0  0  0  0
   15.9198   22.3810    1.7511 C   0  0  0  0  0  0  0  0  0  0  0  0
   14.8025   21.4252    1.9971 C   0  0  0  0  0  0  0  0  0  0  0  0
   10.0600   17.4961    3.4136 C   0  0  0  0  0  0  0  0  0  0  0  0
    9.1854   17.1661    3.9361 H   0  0  0  0  0  0  0  0  0  0  0  0
   10.7918   18.6325    3.5663 C   0  0  0  0  0  0  0  0  0  0  0  0
   10.6935   19.4432    4.2574 H   0  0  0  0  0  0  0  0  0  0  0  0
   15.5714   23.8467    1.7228 C   0  0  0  0  0  0  0  0  0  0  0  0
   16.4473   24.4162    1.4233 H   0  0  0  0  0  0  0  0  0  0  0  0
   14.7588   24.0320    1.0245 H   0  0  0  0  0  0  0  0  0  0  0  0
   15.2622   24.1715    2.7144 H   0  0  0  0  0  0  0  0  0  0  0  0
   11.8043   18.5699    2.6431 N   0  0  0  0  0  0  0  0  0  0  0  0
   10.6021   16.7505    2.4115 N   0  0  0  0  0  0  0  0  0  0  0  0
   17.0494   21.9860    1.5792 O   0  0  0  0  0  0  0  0  0  0  0  0
  1  3  1  0  0  0  0
  1 26  1  0  0  0  0
  1 50  1  0  0  0  0
  2  1  1  0  0  0  0
  4  9  1  0  0  0  0
  4 25  1  0  0  0  0
  5  6  1  0  0  0  0
  5  9  2  0  0  0  0
  7 16  2  0  0  0  0
  7 13  1  0  0  0  0
  8  7  1  0  0  0  0
  9 10  1  0  0  0  0
 11 26  1  0  0  0  0
 11 25  1  0  0  0  0
 12 11  1  0  0  0  0
 13  4  2  0  0  0  0
 14 13  1  0  0  0  0
 15 16  1  0  0  0  0
 16  5  1  0  0  0  0
 17 19  2  0  0  0  0
 17 18  1  0  0  0  0
 19 20  1  0  0  0  0
 21 15  1  0  0  0  0
 21 24  1  0  0  0  0
 22 21  1  0  0  0  0
 23 21  1  0  0  0  0
 25 19  1  0  0  0  0
 26 17  1  0  0  0  0
 27 15  2  0  0  0  0
 28 33  1  0  0  0  0
 28 49  1  0  0  0  0
 29 30  1  0  0  0  0
 29 33  2  0  0  0  0
 31 40  2  0  0  0  0
 31 37  1  0  0  0  0
 32 31  1  0  0  0  0
 33 34  1  0  0  0  0
 35 50  1  0  0  0  0
 35 49  1  0  0  0  0
 36 35  1  0  0  0  0
 37 28  2  0  0  0  0
 38 37  1  0  0  0  0
 39 40  1  0  0  0  0
 40 29  1  0  0  0  0
 41 43  2  0  0  0  0
 41 42  1  0  0  0  0
 43 44  1  0  0  0  0
 45 39  1  0  0  0  0
 45 48  1  0  0  0  0
 46 45  1  0  0  0  0
 47 45  1  0  0  0  0
 49 43  1  0  0  0  0
 50 41  1  0  0  0  0
 51 39  2  0  0  0  0
M  END
$$$$
