CSD_code = TEVMOY | q = 0 | S = 0 | Stoichiometry = C29H31BrN4Pd | MND = 4
 OpenBabel04212202103D

 66 70  0  0  1  0  0  0  0  0999 V2000
    3.0422    1.7548    3.6435 Pd  0  0  2  0  0  0  0  0  0  0  0  0
    1.1776    0.8195    5.0016 Br  0  0  0  0  0  0  0  0  0  0  0  0
    4.4213    0.5488    4.5103 N   0  0  0  0  0  0  0  0  0  0  0  0
    5.9514   -1.2136    4.2504 N   0  0  0  0  0  0  0  0  0  0  0  0
    5.7501   -1.5090    5.1964 H   0  0  0  0  0  0  0  0  0  0  0  0
    5.3898    0.1052    2.4499 N   0  0  0  0  0  0  0  0  0  0  0  0
    6.0001   -0.5508    1.9821 H   0  0  0  0  0  0  0  0  0  0  0  0
    1.6851    2.8460    2.7014 N   0  0  0  0  0  0  0  0  0  0  0  0
    5.2232   -0.1515    3.7792 C   0  0  1  0  0  3  0  0  0  0  0  0
    4.2845    0.3148    5.8924 C   0  0  0  0  0  0  0  0  0  0  0  0
    3.8868   -0.9290    6.3814 C   0  0  0  0  0  0  0  0  0  0  0  0
    3.6276   -1.7159    5.6856 H   0  0  0  0  0  0  0  0  0  0  0  0
    3.7392   -1.1317    7.7407 C   0  0  0  0  0  0  0  0  0  0  0  0
    3.4159   -2.0952    8.1046 H   0  0  0  0  0  0  0  0  0  0  0  0
    3.9874   -0.0965    8.6239 C   0  0  0  0  0  0  0  0  0  0  0  0
    3.8700   -0.2494    9.6861 H   0  0  0  0  0  0  0  0  0  0  0  0
    4.3592    1.1458    8.1407 C   0  0  0  0  0  0  0  0  0  0  0  0
    4.5268    1.9610    8.8302 H   0  0  0  0  0  0  0  0  0  0  0  0
    4.5121    1.3742    6.7821 C   0  0  0  0  0  0  0  0  0  0  0  0
    4.8866    2.7267    6.2549 C   0  0  0  0  0  0  0  0  0  0  0  0
    4.7833    3.4842    7.0278 H   0  0  0  0  0  0  0  0  0  0  0  0
    4.2339    2.9797    5.3990 H   0  0  0  0  0  0  0  0  0  0  0  0
    5.9167    2.7331    5.8934 H   0  0  0  0  0  0  0  0  0  0  0  0
    7.2060   -1.5810    3.6994 C   0  0  0  0  0  0  0  0  0  0  0  0
    7.3772   -2.8796    3.2364 C   0  0  0  0  0  0  0  0  0  0  0  0
    6.5559   -3.5755    3.3194 H   0  0  0  0  0  0  0  0  0  0  0  0
    8.5803   -3.2679    2.6767 C   0  0  0  0  0  0  0  0  0  0  0  0
    8.7070   -4.2774    2.3172 H   0  0  0  0  0  0  0  0  0  0  0  0
    9.6148   -2.3536    2.5753 C   0  0  0  0  0  0  0  0  0  0  0  0
   10.5547   -2.6455    2.1322 H   0  0  0  0  0  0  0  0  0  0  0  0
    9.4503   -1.0658    3.0541 C   0  0  0  0  0  0  0  0  0  0  0  0
   10.2681   -0.3624    2.9903 H   0  0  0  0  0  0  0  0  0  0  0  0
    8.2546   -0.6560    3.6301 C   0  0  0  0  0  0  0  0  0  0  0  0
    8.1034    0.7316    4.1764 C   0  0  0  0  0  0  0  0  0  0  0  0
    7.5573    1.3749    3.4846 H   0  0  0  0  0  0  0  0  0  0  0  0
    9.0802    1.1777    4.3463 H   0  0  0  0  0  0  0  0  0  0  0  0
    7.5571    0.7155    5.1191 H   0  0  0  0  0  0  0  0  0  0  0  0
    5.3699    1.4004    1.8735 C   0  0  0  0  0  0  0  0  0  0  0  0
    4.4922    2.3706    2.3681 C   0  0  0  0  0  0  0  0  0  0  0  0
    4.5645    3.6389    1.7984 C   0  0  0  0  0  3  0  0  0  0  0  0
    3.9127    4.4332    2.1447 H   0  0  0  0  0  0  0  0  0  0  0  0
    5.4515    3.9238    0.7726 C   0  0  0  0  0  0  0  0  0  0  0  0
    5.4864    4.9171    0.3483 H   0  0  0  0  0  0  0  0  0  0  0  0
    6.2767    2.9326    0.2773 C   0  0  0  0  0  0  0  0  0  0  0  0
    6.9522    3.1494   -0.5381 H   0  0  0  0  0  0  0  0  0  0  0  0
    6.2559    1.6561    0.8199 C   0  0  0  0  0  0  0  0  0  0  0  0
    7.1620    0.5901    0.2653 C   0  0  0  0  0  0  0  0  0  0  0  0
    7.7529    0.9986   -0.5508 H   0  0  0  0  0  0  0  0  0  0  0  0
    6.5874   -0.2506   -0.1273 H   0  0  0  0  0  0  0  0  0  0  0  0
    7.8527    0.2117    1.0209 H   0  0  0  0  0  0  0  0  0  0  0  0
    1.2350    3.9947    3.2109 C   0  0  1  0  0  3  0  0  0  0  0  0
    0.2094    4.6977    2.5941 C   0  0  0  0  0  0  0  0  0  0  0  0
   -0.1407    5.6229    3.0238 H   0  0  0  0  0  0  0  0  0  0  0  0
   -0.3584    4.1916    1.4379 C   0  0  0  0  0  0  0  0  0  0  0  0
   -1.1566    4.7210    0.9405 H   0  0  0  0  0  0  0  0  0  0  0  0
    0.1043    2.9849    0.9409 C   0  0  0  0  0  0  0  0  0  0  0  0
   -0.3291    2.5496    0.0544 H   0  0  0  0  0  0  0  0  0  0  0  0
    1.1308    2.3263    1.6023 C   0  0  0  0  0  0  0  0  0  0  0  0
    1.6524    1.0017    1.1357 C   0  0  0  0  0  0  0  0  0  0  0  0
    2.6676    1.1209    0.7403 H   0  0  0  0  0  0  0  0  0  0  0  0
    1.0161    0.5864    0.3578 H   0  0  0  0  0  0  0  0  0  0  0  0
    1.6869    0.2976    1.9846 H   0  0  0  0  0  0  0  0  0  0  0  0
    1.8644    4.4626    4.4842 C   0  0  0  0  0  0  0  0  0  0  0  0
    1.7488    3.6822    5.2480 H   0  0  0  0  0  0  0  0  0  0  0  0
    1.3935    5.3748    4.8413 H   0  0  0  0  0  0  0  0  0  0  0  0
    2.9331    4.6486    4.3323 H   0  0  0  0  0  0  0  0  0  0  0  0
  1  3  1  0  0  0  0
  1  2  1  6  0  0  0
  3 10  1  0  0  0  0
  4  5  1  0  0  0  0
  6  9  1  0  0  0  0
  7  6  1  0  0  0  0
  8 51  1  0  0  0  0
  8  1  1  0  0  0  0
  9  4  1  6  0  0  0
  9  3  1  0  0  0  0
 10 11  2  0  0  0  0
 10 19  1  0  0  0  0
 11 13  1  0  0  0  0
 12 11  1  0  0  0  0
 13 14  1  0  0  0  0
 13 15  2  0  0  0  0
 15 16  1  0  0  0  0
 17 15  1  0  0  0  0
 17 18  1  0  0  0  0
 19 17  2  0  0  0  0
 20 19  1  0  0  0  0
 20 21  1  0  0  0  0
 22 20  1  0  0  0  0
 23 20  1  0  0  0  0
 24  4  1  0  0  0  0
 25 26  1  0  0  0  0
 25 24  2  0  0  0  0
 27 25  1  0  0  0  0
 28 27  1  0  0  0  0
 29 27  2  0  0  0  0
 29 31  1  0  0  0  0
 30 29  1  0  0  0  0
 31 33  2  0  0  0  0
 32 31  1  0  0  0  0
 33 24  1  0  0  0  0
 33 34  1  0  0  0  0
 34 36  1  0  0  0  0
 34 37  1  0  0  0  0
 35 34  1  0  0  0  0
 38 39  1  0  0  0  0
 38  6  1  0  0  0  0
 39  1  2  0  0  0  0
 40 41  1  0  0  0  0
 40 39  1  0  0  0  0
 42 40  1  0  0  0  0
 43 42  1  0  0  0  0
 44 42  2  0  0  0  0
 44 46  1  0  0  0  0
 45 44  1  0  0  0  0
 46 38  2  0  0  0  0
 47 46  1  0  0  0  0
 47 50  1  0  0  0  0
 48 47  1  0  0  0  0
 49 47  1  0  0  0  0
 51 63  1  1  0  0  0
 52 53  1  0  0  0  0
 52 51  1  0  0  0  0
 54 52  2  0  0  0  0
 55 54  1  0  0  0  0
 56 54  1  0  0  0  0
 56 58  2  0  0  0  0
 57 56  1  0  0  0  0
 58  8  1  0  0  0  0
 59 58  1  0  0  0  0
 59 62  1  0  0  0  0
 60 59  1  0  0  0  0
 61 59  1  0  0  0  0
 63 65  1  0  0  0  0
 63 64  1  0  0  0  0
 66 63  1  0  0  0  0
M  END
$$$$
