CSD_code = TEVPUG | q = 0 | S = 0 | Stoichiometry = C10H20Cl2N4Pd | MND = 4
 OpenBabel04212202103D

 37 38  0  0  0  0  0  0  0  0999 V2000
   -1.7804    6.2449    7.2433 C   0  0  0  0  0  3  0  0  0  0  0  0
   -1.8973    6.8735    6.3632 H   0  0  0  0  0  0  0  0  0  0  0  0
   -1.3341    4.1341    8.2126 C   0  0  0  0  0  0  0  0  0  0  0  0
   -0.6183    3.3507    7.9216 H   0  0  0  0  0  0  0  0  0  0  0  0
   -2.2878    3.6453    8.4501 H   0  0  0  0  0  0  0  0  0  0  0  0
   -0.8111    4.9317    9.4044 C   0  0  0  0  0  0  0  0  0  0  0  0
   -0.7477    4.3019   10.2907 H   0  0  0  0  0  0  0  0  0  0  0  0
    0.1856    5.3097    9.1677 H   0  0  0  0  0  0  0  0  0  0  0  0
   -1.7468    6.1098    9.6561 C   0  0  0  0  0  0  0  0  0  0  0  0
   -2.7249    5.7525   10.0047 H   0  0  0  0  0  0  0  0  0  0  0  0
   -1.3331    6.7725   10.4224 H   0  0  0  0  0  0  0  0  0  0  0  0
   -2.2353    8.2571    8.5390 C   0  0  0  0  0  0  0  0  0  0  0  0
   -2.3254    8.6950    7.5478 H   0  0  0  0  0  0  0  0  0  0  0  0
   -1.4566    8.7930    9.0889 H   0  0  0  0  0  0  0  0  0  0  0  0
   -3.1842    8.3840    9.0686 H   0  0  0  0  0  0  0  0  0  0  0  0
    0.4235    5.6086    4.8584 Cl  0  0  0  0  0  0  0  0  0  0  0  0
   -1.5334    4.9996    7.0627 N   0  0  0  0  0  0  0  0  0  0  0  0
   -1.9028    6.8630    8.4295 N   0  0  0  0  0  0  0  0  0  0  0  0
   -1.3149    4.1830    5.2714 Pd  0  0  0  0  0  0  0  0  0  0  0  0
   -0.8499    2.1214    3.2993 C   0  0  0  0  0  3  0  0  0  0  0  0
   -0.7330    1.4929    4.1794 H   0  0  0  0  0  0  0  0  0  0  0  0
   -1.2961    4.2323    2.3300 C   0  0  0  0  0  0  0  0  0  0  0  0
   -2.0118    5.0157    2.6211 H   0  0  0  0  0  0  0  0  0  0  0  0
   -0.3424    4.7210    2.0926 H   0  0  0  0  0  0  0  0  0  0  0  0
   -1.8191    3.4347    1.1383 C   0  0  0  0  0  0  0  0  0  0  0  0
   -1.8825    4.0645    0.2520 H   0  0  0  0  0  0  0  0  0  0  0  0
   -2.8159    3.0567    1.3749 H   0  0  0  0  0  0  0  0  0  0  0  0
   -0.8835    2.2565    0.8865 C   0  0  0  0  0  0  0  0  0  0  0  0
    0.0946    2.6138    0.5379 H   0  0  0  0  0  0  0  0  0  0  0  0
   -1.2972    1.5939    0.1202 H   0  0  0  0  0  0  0  0  0  0  0  0
   -0.3948    0.1094    2.0036 C   0  0  0  0  0  0  0  0  0  0  0  0
   -0.3047   -0.3286    2.9949 H   0  0  0  0  0  0  0  0  0  0  0  0
   -1.1734   -0.4267    1.4538 H   0  0  0  0  0  0  0  0  0  0  0  0
    0.5541   -0.0175    1.4741 H   0  0  0  0  0  0  0  0  0  0  0  0
   -3.0531    2.7578    5.6847 Cl  0  0  0  0  0  0  0  0  0  0  0  0
   -1.0969    3.3668    3.4799 N   0  0  0  0  0  0  0  0  0  0  0  0
   -0.7275    1.5034    2.1131 N   0  0  0  0  0  0  0  0  0  0  0  0
  1 18  1  0  0  0  0
  2  1  1  0  0  0  0
  3  5  1  0  0  0  0
  3  6  1  0  0  0  0
  4  3  1  0  0  0  0
  6  9  1  0  0  0  0
  6  7  1  0  0  0  0
  8  6  1  0  0  0  0
  9 10  1  0  0  0  0
  9 11  1  0  0  0  0
 12 15  1  0  0  0  0
 12 14  1  0  0  0  0
 13 12  1  0  0  0  0
 16 19  1  0  0  0  0
 17  1  1  0  0  0  0
 17  3  1  0  0  0  0
 18 12  1  0  0  0  0
 18  9  1  0  0  0  0
 19 35  1  0  0  0  0
 19 17  1  0  0  0  0
 20 36  1  0  0  0  0
 20 21  1  0  0  0  0
 22 23  1  0  0  0  0
 22 36  1  0  0  0  0
 24 22  1  0  0  0  0
 25 27  1  0  0  0  0
 25 22  1  0  0  0  0
 26 25  1  0  0  0  0
 28 25  1  0  0  0  0
 28 37  1  0  0  0  0
 29 28  1  0  0  0  0
 30 28  1  0  0  0  0
 31 37  1  0  0  0  0
 31 32  1  0  0  0  0
 33 31  1  0  0  0  0
 34 31  1  0  0  0  0
 36 19  1  0  0  0  0
 37 20  1  0  0  0  0
M  END
$$$$
