CSD_code = TEVTUJ | q = 0 | S = 0 | Stoichiometry = C4H5AuBrNO2 | MND = 2
 OpenBabel04212202103D

 14 13  0  0  0  0  0  0  0  0999 V2000
    0.3943    6.5908   -0.1744 Au  0  0  0  0  0  0  0  0  0  0  0  0
    2.3679    7.7998   -0.0508 Br  0  0  0  0  0  0  0  0  0  0  0  0
   -1.2082    5.6001   -0.2526 C   0  0  0  0  0  0  0  0  0  0  0  0
   -3.3863    4.2863   -0.3056 C   0  0  0  0  0  0  0  0  0  0  0  0
   -4.4180    5.0892   -1.1187 C   0  0  0  0  0  0  0  0  0  0  0  0
   -6.6328    5.0376   -1.8688 C   0  0  0  0  0  0  0  0  0  0  0  0
   -2.1745    4.9580   -0.2422 N   0  0  0  0  0  2  0  0  0  0  0  0
   -4.2045    6.1449   -1.6366 O   0  0  0  0  0  0  0  0  0  0  0  0
   -5.5654    4.4238   -1.1472 O   0  0  0  0  0  0  0  0  0  0  0  0
   -3.2440    3.3101   -0.7812 H   0  0  0  0  0  0  0  0  0  0  0  0
   -3.7755    4.1313    0.7061 H   0  0  0  0  0  0  0  0  0  0  0  0
   -7.4767    4.3580   -1.7904 H   0  0  0  0  0  0  0  0  0  0  0  0
   -6.8758    6.0068   -1.4305 H   0  0  0  0  0  0  0  0  0  0  0  0
   -6.3485    5.1817   -2.9122 H   0  0  0  0  0  0  0  0  0  0  0  0
  1  2  1  0  0  0  0
  3  7  1  0  0  0  0
  3  1  3  0  0  0  0
  4  7  1  0  0  0  0
  4 11  1  0  0  0  0
  5  4  1  0  0  0  0
  6 12  1  0  0  0  0
  6 13  1  0  0  0  0
  6  9  1  0  0  0  0
  8  5  2  0  0  0  0
  9  5  1  0  0  0  0
 10  4  1  0  0  0  0
 14  6  1  0  0  0  0
M  END
$$$$
