CSD_code = TEVTIX | q = 0 | S = 0 | Stoichiometry = C10H11AuClN | MND = 2
 OpenBabel04212202103D

 24 24  0  0  0  0  0  0  0  0999 V2000
    6.3861    0.3812    0.4720 Au  0  0  0  0  0  0  0  0  0  0  0  0
    5.9643   -1.7775    0.2777 Cl  0  0  0  0  0  0  0  0  0  0  0  0
    7.0178    3.3338    0.7356 N   0  0  0  0  0  2  0  0  0  0  0  0
    6.7594    2.2036    0.6392 C   0  0  0  0  0  0  0  0  0  0  0  0
    7.3299    4.6458    0.8478 C   0  0  0  0  0  0  0  0  0  0  0  0
    8.6022    5.0023    1.3190 C   0  0  0  0  0  0  0  0  0  0  0  0
    8.8995    6.3486    1.4189 C   0  0  0  0  0  0  0  0  0  0  0  0
    7.9760    7.3290    1.0678 C   0  0  0  0  0  0  0  0  0  0  0  0
    6.7240    6.9412    0.6082 C   0  0  0  0  0  0  0  0  0  0  0  0
    6.3755    5.6065    0.4891 C   0  0  0  0  0  0  0  0  0  0  0  0
    9.5872    3.9414    1.6936 C   0  0  0  0  0  0  0  0  0  0  0  0
    8.3422    8.7742    1.1865 C   0  0  0  0  0  0  0  0  0  0  0  0
    5.0298    5.1796   -0.0040 C   0  0  0  0  0  0  0  0  0  0  0  0
    9.8736    6.6463    1.7782 H   0  0  0  0  0  0  0  0  0  0  0  0
    6.0010    7.6958    0.3353 H   0  0  0  0  0  0  0  0  0  0  0  0
   10.5121    4.3854    2.0505 H   0  0  0  0  0  0  0  0  0  0  0  0
    9.1807    3.3005    2.4760 H   0  0  0  0  0  0  0  0  0  0  0  0
    9.8111    3.3073    0.8358 H   0  0  0  0  0  0  0  0  0  0  0  0
    7.5095    9.4144    0.9091 H   0  0  0  0  0  0  0  0  0  0  0  0
    8.6376    9.0067    2.2085 H   0  0  0  0  0  0  0  0  0  0  0  0
    9.1878    9.0019    0.5387 H   0  0  0  0  0  0  0  0  0  0  0  0
    4.4145    6.0439   -0.2370 H   0  0  0  0  0  0  0  0  0  0  0  0
    5.1271    4.5667   -0.9000 H   0  0  0  0  0  0  0  0  0  0  0  0
    4.5196    4.5788    0.7488 H   0  0  0  0  0  0  0  0  0  0  0  0
  1  4  3  0  0  0  0
  2  1  1  0  0  0  0
  3  5  1  0  0  0  0
  4  3  1  0  0  0  0
  5  6  1  0  0  0  0
  6  7  2  0  0  0  0
  6 11  1  0  0  0  0
  7 14  1  0  0  0  0
  8 12  1  0  0  0  0
  8  7  1  0  0  0  0
  9  8  2  0  0  0  0
 10  9  1  0  0  0  0
 10  5  2  0  0  0  0
 11 16  1  0  0  0  0
 11 17  1  0  0  0  0
 12 20  1  0  0  0  0
 13 10  1  0  0  0  0
 13 24  1  0  0  0  0
 15  9  1  0  0  0  0
 18 11  1  0  0  0  0
 19 12  1  0  0  0  0
 21 12  1  0  0  0  0
 22 13  1  0  0  0  0
 23 13  1  0  0  0  0
M  END
$$$$
