CSD_code = TEWREU | q = 0 | S = 0 | Stoichiometry = C22H28Cl2N2Ni | MND = 4
 OpenBabel04212202103D

 55 57  0  0  0  0  0  0  0  0999 V2000
   13.8744    8.6201    4.6954 Ni  0  0  0  0  0  0  0  0  0  0  0  0
   13.5656   10.4706    5.5150 Cl  0  0  0  0  0  0  0  0  0  0  0  0
   13.6469    8.2855    7.6179 C   0  0  0  0  0  0  0  0  0  0  0  0
   12.2735    8.3214    7.8778 C   0  0  0  0  0  0  0  0  0  0  0  0
   11.8398    8.8752    9.0694 C   0  0  0  0  0  0  0  0  0  0  0  0
   10.7799    8.9084    9.2766 H   0  0  0  0  0  0  0  0  0  0  0  0
   12.7337    9.4023    9.9919 C   0  0  0  0  0  0  0  0  0  0  0  0
   14.0884    9.3864    9.6923 C   0  0  0  0  0  0  0  0  0  0  0  0
   14.7919    9.8218   10.3874 H   0  0  0  0  0  0  0  0  0  0  0  0
   14.5646    8.8399    8.5120 C   0  0  0  0  0  0  0  0  0  0  0  0
   11.3185    7.7923    6.8525 C   0  0  0  0  0  0  0  0  0  0  0  0
   10.2984    8.0826    7.0870 H   0  0  0  0  0  0  0  0  0  0  0  0
   11.3673    6.7038    6.7911 H   0  0  0  0  0  0  0  0  0  0  0  0
   11.5804    8.1987    5.8639 H   0  0  0  0  0  0  0  0  0  0  0  0
   12.2375   10.0207   11.2631 C   0  0  0  0  0  0  0  0  0  0  0  0
   11.3509    9.5052   11.6256 H   0  0  0  0  0  0  0  0  0  0  0  0
   11.9713   11.0629   11.0858 H   0  0  0  0  0  0  0  0  0  0  0  0
   13.0036    9.9945   12.0344 H   0  0  0  0  0  0  0  0  0  0  0  0
   16.0198    8.8718    8.1575 C   0  0  0  0  0  0  0  0  0  0  0  0
   16.1384    9.2727    7.1499 H   0  0  0  0  0  0  0  0  0  0  0  0
   16.4554    7.8720    8.1777 H   0  0  0  0  0  0  0  0  0  0  0  0
   16.5692    9.5009    8.8523 H   0  0  0  0  0  0  0  0  0  0  0  0
   14.0887    7.7439    6.3962 N   0  0  0  0  0  0  0  0  0  0  0  0
   14.5029    6.5235    6.3073 C   0  0  0  0  0  0  0  0  0  0  0  0
   14.5916    5.5732    7.4577 C   0  0  0  0  0  0  0  0  0  0  0  0
   14.2172    6.0381    8.3667 H   0  0  0  0  0  0  0  0  0  0  0  0
   15.6249    5.2662    7.6163 H   0  0  0  0  0  0  0  0  0  0  0  0
   14.0079    4.6771    7.2499 H   0  0  0  0  0  0  0  0  0  0  0  0
   14.8721    6.1063    4.9659 C   0  0  0  0  0  0  0  0  0  0  0  0
   15.5736    4.8071    4.7326 C   0  0  0  0  0  0  0  0  0  0  0  0
   15.8335    4.6969    3.6824 H   0  0  0  0  0  0  0  0  0  0  0  0
   14.9364    3.9745    5.0289 H   0  0  0  0  0  0  0  0  0  0  0  0
   16.4824    4.7583    5.3313 H   0  0  0  0  0  0  0  0  0  0  0  0
   14.5612    6.9477    4.0362 N   0  0  0  0  0  0  0  0  0  0  0  0
   14.8925    6.7121    2.6887 C   0  0  0  0  0  0  0  0  0  0  0  0
   16.0351    7.3239    2.1622 C   0  0  0  0  0  0  0  0  0  0  0  0
   16.3467    7.1088    0.8322 C   0  0  0  0  0  0  0  0  0  0  0  0
   17.2260    7.5789    0.4160 H   0  0  0  0  0  0  0  0  0  0  0  0
   15.5456    6.3181    0.0173 C   0  0  0  0  0  0  0  0  0  0  0  0
   14.3990    5.7541    0.5554 C   0  0  0  0  0  0  0  0  0  0  0  0
   13.7491    5.1636   -0.0743 H   0  0  0  0  0  0  0  0  0  0  0  0
   14.0513    5.9429    1.8837 C   0  0  0  0  0  0  0  0  0  0  0  0
   16.8623    8.2121    3.0398 C   0  0  0  0  0  0  0  0  0  0  0  0
   17.5742    8.7837    2.4513 H   0  0  0  0  0  0  0  0  0  0  0  0
   17.4096    7.6325    3.7852 H   0  0  0  0  0  0  0  0  0  0  0  0
   16.2048    8.9147    3.5741 H   0  0  0  0  0  0  0  0  0  0  0  0
   15.9145    6.1071   -1.4194 C   0  0  0  0  0  0  0  0  0  0  0  0
   15.1780    5.4879   -1.9246 H   0  0  0  0  0  0  0  0  0  0  0  0
   16.8880    5.6234   -1.4951 H   0  0  0  0  0  0  0  0  0  0  0  0
   15.9777    7.0636   -1.9359 H   0  0  0  0  0  0  0  0  0  0  0  0
   12.7818    5.3877    2.4532 C   0  0  0  0  0  0  0  0  0  0  0  0
   12.1590    4.9716    1.6664 H   0  0  0  0  0  0  0  0  0  0  0  0
   12.2309    6.1853    2.9538 H   0  0  0  0  0  0  0  0  0  0  0  0
   12.9833    4.6048    3.1853 H   0  0  0  0  0  0  0  0  0  0  0  0
   13.2892    9.2835    2.8488 Cl  0  0  0  0  0  0  0  0  0  0  0  0
  1  2  1  0  0  0  0
  1 23  1  0  0  0  0
  3  4  2  0  0  0  0
  3 10  1  0  0  0  0
  4  5  1  0  0  0  0
  5  6  1  0  0  0  0
  5  7  2  0  0  0  0
  7 15  1  0  0  0  0
  8  7  1  0  0  0  0
  8  9  1  0  0  0  0
 10  8  2  0  0  0  0
 11 12  1  0  0  0  0
 11  4  1  0  0  0  0
 13 11  1  0  0  0  0
 14 11  1  0  0  0  0
 15 16  1  0  0  0  0
 15 18  1  0  0  0  0
 17 15  1  0  0  0  0
 19 21  1  0  0  0  0
 19 10  1  0  0  0  0
 19 22  1  0  0  0  0
 20 19  1  0  0  0  0
 23  3  1  0  0  0  0
 24 23  1  0  0  0  0
 24 25  1  0  0  0  0
 25 27  1  0  0  0  0
 25 26  1  0  0  0  0
 28 25  1  0  0  0  0
 29 24  2  0  0  0  0
 30 29  1  0  0  0  0
 30 32  1  0  0  0  0
 30 33  1  0  0  0  0
 31 30  1  0  0  0  0
 34  1  1  0  0  0  0
 34 29  1  0  0  0  0
 35 34  1  0  0  0  0
 36 35  1  0  0  0  0
 36 43  1  0  0  0  0
 37 36  2  0  0  0  0
 38 37  1  0  0  0  0
 39 40  2  0  0  0  0
 39 37  1  0  0  0  0
 40 42  1  0  0  0  0
 41 40  1  0  0  0  0
 42 51  1  0  0  0  0
 42 35  2  0  0  0  0
 43 46  1  0  0  0  0
 43 45  1  0  0  0  0
 44 43  1  0  0  0  0
 47 39  1  0  0  0  0
 48 47  1  0  0  0  0
 49 47  1  0  0  0  0
 50 47  1  0  0  0  0
 51 53  1  0  0  0  0
 51 54  1  0  0  0  0
 52 51  1  0  0  0  0
 55  1  1  0  0  0  0
M  END
$$$$
