CSD_code = TEWSOF | q = 0 | S = 0 | Stoichiometry = C22H28Cl2N2Zn | MND = 4
 OpenBabel04212202103D

 55 57  0  0  0  0  0  0  0  0999 V2000
   11.8077   12.2799    3.0231 Zn  0  0  0  0  0  0  0  0  0  0  0  0
   12.1131   12.5603    0.8706 Cl  0  0  0  0  0  0  0  0  0  0  0  0
   11.1134   13.7135    4.5447 Cl  0  0  0  0  0  0  0  0  0  0  0  0
   10.8770   10.3941    3.4166 N   0  0  0  0  0  0  0  0  0  0  0  0
   13.3698   11.1496    3.9712 N   0  0  0  0  0  0  0  0  0  0  0  0
   11.6122    9.5852    4.0670 C   0  0  0  0  0  0  0  0  0  0  0  0
   12.9712   10.0349    4.4378 C   0  0  0  0  0  0  0  0  0  0  0  0
   11.1827    8.2059    4.4567 C   0  0  0  0  0  0  0  0  0  0  0  0
   10.1539    8.0335    4.1479 H   0  0  0  0  0  0  0  0  0  0  0  0
   11.2585    8.0711    5.5339 H   0  0  0  0  0  0  0  0  0  0  0  0
   11.8196    7.4623    3.9799 H   0  0  0  0  0  0  0  0  0  0  0  0
   13.8129    9.1381    5.2898 C   0  0  0  0  0  0  0  0  0  0  0  0
   14.7998    9.5733    5.4313 H   0  0  0  0  0  0  0  0  0  0  0  0
   13.9220    8.1618    4.8206 H   0  0  0  0  0  0  0  0  0  0  0  0
   13.3475    8.9908    6.2632 H   0  0  0  0  0  0  0  0  0  0  0  0
    9.5851   10.0693    2.9643 C   0  0  0  0  0  0  0  0  0  0  0  0
    8.4772   10.3841    3.7552 C   0  0  0  0  0  0  0  0  0  0  0  0
    7.2126   10.1201    3.2526 C   0  0  0  0  0  0  0  0  0  0  0  0
    6.3515   10.3652    3.8573 H   0  0  0  0  0  0  0  0  0  0  0  0
    7.0282    9.5587    1.9975 C   0  0  0  0  0  0  0  0  0  0  0  0
    8.1480    9.2550    1.2364 C   0  0  0  0  0  0  0  0  0  0  0  0
    8.0213    8.8205    0.2554 H   0  0  0  0  0  0  0  0  0  0  0  0
    9.4319    9.5006    1.6961 C   0  0  0  0  0  0  0  0  0  0  0  0
   14.6436   11.6883    4.2122 C   0  0  0  0  0  0  0  0  0  0  0  0
   14.9352   12.3414    5.4144 C   0  0  0  0  0  0  0  0  0  0  0  0
   16.1846   12.9270    5.5555 C   0  0  0  0  0  0  0  0  0  0  0  0
   16.4126   13.4464    6.4751 H   0  0  0  0  0  0  0  0  0  0  0  0
   17.1401   12.8705    4.5519 C   0  0  0  0  0  0  0  0  0  0  0  0
   16.8247   12.2079    3.3734 C   0  0  0  0  0  0  0  0  0  0  0  0
   17.5571   12.1533    2.5812 H   0  0  0  0  0  0  0  0  0  0  0  0
   15.5863   11.6204    3.1794 C   0  0  0  0  0  0  0  0  0  0  0  0
    8.6645   10.9863    5.1132 C   0  0  0  0  0  0  0  0  0  0  0  0
    9.1751   10.2908    5.7804 H   0  0  0  0  0  0  0  0  0  0  0  0
    7.7040   11.2421    5.5516 H   0  0  0  0  0  0  0  0  0  0  0  0
    9.2715   11.8891    5.0506 H   0  0  0  0  0  0  0  0  0  0  0  0
    5.6508    9.3106    1.4633 C   0  0  0  0  0  0  0  0  0  0  0  0
    5.6403    8.4496    0.7990 H   0  0  0  0  0  0  0  0  0  0  0  0
    5.3140   10.1777    0.8947 H   0  0  0  0  0  0  0  0  0  0  0  0
    4.9437    9.1434    2.2723 H   0  0  0  0  0  0  0  0  0  0  0  0
   10.6309    9.1903    0.8548 C   0  0  0  0  0  0  0  0  0  0  0  0
   10.3302    8.7265   -0.0804 H   0  0  0  0  0  0  0  0  0  0  0  0
   11.3142    8.5173    1.3729 H   0  0  0  0  0  0  0  0  0  0  0  0
   11.1745   10.1084    0.6294 H   0  0  0  0  0  0  0  0  0  0  0  0
   13.9106   12.4519    6.5014 C   0  0  0  0  0  0  0  0  0  0  0  0
   14.2865   13.0715    7.3109 H   0  0  0  0  0  0  0  0  0  0  0  0
   13.6549   11.4741    6.9087 H   0  0  0  0  0  0  0  0  0  0  0  0
   12.9965   12.9032    6.1156 H   0  0  0  0  0  0  0  0  0  0  0  0
   18.4730   13.5328    4.7202 C   0  0  0  0  0  0  0  0  0  0  0  0
   19.2523   12.9715    4.2096 H   0  0  0  0  0  0  0  0  0  0  0  0
   18.7331   13.6253    5.7718 H   0  0  0  0  0  0  0  0  0  0  0  0
   18.4441   14.5340    4.2896 H   0  0  0  0  0  0  0  0  0  0  0  0
   15.2542   10.9043    1.9080 C   0  0  0  0  0  0  0  0  0  0  0  0
   16.1046   10.9103    1.2321 H   0  0  0  0  0  0  0  0  0  0  0  0
   14.4116   11.3882    1.4131 H   0  0  0  0  0  0  0  0  0  0  0  0
   14.9714    9.8698    2.1049 H   0  0  0  0  0  0  0  0  0  0  0  0
  1  4  1  0  0  0  0
  1  5  1  0  0  0  0
  1  3  1  0  0  0  0
  2  1  1  0  0  0  0
  4  6  1  0  0  0  0
  5 24  1  0  0  0  0
  5  7  1  0  0  0  0
  6  7  2  0  0  0  0
  6  8  1  0  0  0  0
  7 12  1  0  0  0  0
  8 10  1  0  0  0  0
  9  8  1  0  0  0  0
 11  8  1  0  0  0  0
 12 13  1  0  0  0  0
 12 15  1  0  0  0  0
 14 12  1  0  0  0  0
 16  4  1  0  0  0  0
 16 17  1  0  0  0  0
 17 32  1  0  0  0  0
 18 17  2  0  0  0  0
 18 19  1  0  0  0  0
 20 18  1  0  0  0  0
 21 23  1  0  0  0  0
 21 20  2  0  0  0  0
 22 21  1  0  0  0  0
 23 16  2  0  0  0  0
 24 25  1  0  0  0  0
 25 26  2  0  0  0  0
 25 44  1  0  0  0  0
 26 27  1  0  0  0  0
 28 48  1  0  0  0  0
 28 26  1  0  0  0  0
 29 28  2  0  0  0  0
 30 29  1  0  0  0  0
 31 29  1  0  0  0  0
 31 24  2  0  0  0  0
 32 34  1  0  0  0  0
 32 33  1  0  0  0  0
 35 32  1  0  0  0  0
 36 20  1  0  0  0  0
 36 39  1  0  0  0  0
 37 36  1  0  0  0  0
 38 36  1  0  0  0  0
 40 42  1  0  0  0  0
 40 23  1  0  0  0  0
 41 40  1  0  0  0  0
 43 40  1  0  0  0  0
 44 46  1  0  0  0  0
 44 45  1  0  0  0  0
 47 44  1  0  0  0  0
 48 50  1  0  0  0  0
 49 48  1  0  0  0  0
 51 48  1  0  0  0  0
 52 55  1  0  0  0  0
 52 31  1  0  0  0  0
 53 52  1  0  0  0  0
 54 52  1  0  0  0  0
M  END
$$$$
