CSD_code = TEWSEV | q = 0 | S = 0 | Stoichiometry = C8H16Cl2N2Zn | MND = 4
 OpenBabel04212202103D

 29 29  0  0  0  0  0  0  0  0999 V2000
    4.2033    4.0782    2.7193 Zn  0  0  0  0  0  0  0  0  0  0  0  0
    2.8329    3.1856    4.1906 Cl  0  0  0  0  0  0  0  0  0  0  0  0
    4.7358    6.8438    3.2131 C   0  0  0  0  0  0  0  0  0  0  0  0
    5.1016    7.8167    3.5530 H   0  0  0  0  0  0  0  0  0  0  0  0
    6.2606    5.7220    4.6212 C   0  0  0  0  0  0  0  0  0  0  0  0
    6.5537    6.7469    4.9063 H   0  0  0  0  0  0  0  0  0  0  0  0
    7.4559    4.9959    4.0026 C   0  0  0  0  0  0  0  0  0  0  0  0
    8.2535    4.9136    4.7356 H   0  0  0  0  0  0  0  0  0  0  0  0
    7.1600    3.9990    3.6844 H   0  0  0  0  0  0  0  0  0  0  0  0
    7.8256    5.5375    3.1351 H   0  0  0  0  0  0  0  0  0  0  0  0
    5.7497    4.9691    5.8499 C   0  0  0  0  0  0  0  0  0  0  0  0
    6.5436    4.8901    6.5873 H   0  0  0  0  0  0  0  0  0  0  0  0
    5.4277    3.9701    5.5651 H   0  0  0  0  0  0  0  0  0  0  0  0
    4.9039    5.4890    6.2932 H   0  0  0  0  0  0  0  0  0  0  0  0
    5.2098    5.7565    3.6507 N   0  0  0  0  0  0  0  0  0  0  0  0
    3.6709    6.8438    2.2256 C   0  0  0  0  0  0  0  0  0  0  0  0
    3.3050    7.8167    1.8856 H   0  0  0  0  0  0  0  0  0  0  0  0
    2.1460    5.7220    0.8175 C   0  0  0  0  0  0  0  0  0  0  0  0
    1.8529    6.7469    0.5323 H   0  0  0  0  0  0  0  0  0  0  0  0
    0.9507    4.9960    1.4361 C   0  0  0  0  0  0  0  0  0  0  0  0
    0.1531    4.9136    0.7031 H   0  0  0  0  0  0  0  0  0  0  0  0
    1.2466    3.9990    1.7542 H   0  0  0  0  0  0  0  0  0  0  0  0
    0.5811    5.5375    2.3035 H   0  0  0  0  0  0  0  0  0  0  0  0
    2.6569    4.9691   -0.4112 C   0  0  0  0  0  0  0  0  0  0  0  0
    1.8630    4.8901   -1.1486 H   0  0  0  0  0  0  0  0  0  0  0  0
    2.9789    3.9701   -0.1265 H   0  0  0  0  0  0  0  0  0  0  0  0
    3.5028    5.4890   -0.8545 H   0  0  0  0  0  0  0  0  0  0  0  0
    3.1968    5.7565    1.7880 N   0  0  0  0  0  0  0  0  0  0  0  0
    5.5737    3.1856    1.2480 Cl  0  0  0  0  0  0  0  0  0  0  0  0
  1 15  1  0  0  0  0
  1  2  1  0  0  0  0
  3  4  1  0  0  0  0
  3 15  1  0  0  0  0
  5  6  1  0  0  0  0
  5 11  1  0  0  0  0
  7  5  1  0  0  0  0
  7  8  1  0  0  0  0
  9  7  1  0  0  0  0
 10  7  1  0  0  0  0
 11 14  1  0  0  0  0
 11 12  1  0  0  0  0
 13 11  1  0  0  0  0
 15  5  1  0  0  0  0
 16  3  2  0  0  0  0
 17 16  1  0  0  0  0
 18 20  1  0  0  0  0
 18 28  1  0  0  0  0
 19 18  1  0  0  0  0
 20 22  1  0  0  0  0
 20 23  1  0  0  0  0
 21 20  1  0  0  0  0
 24 26  1  0  0  0  0
 24 18  1  0  0  0  0
 25 24  1  0  0  0  0
 27 24  1  0  0  0  0
 28 16  1  0  0  0  0
 28  1  1  0  0  0  0
 29  1  1  0  0  0  0
M  END
$$$$
