CSD_code = TEXCAA | q = 0 | S = 0 | Stoichiometry = C22H25I2NP2Pd | MND = 4
 OpenBabel04212202103D

 53 56  0  0  0  0  0  0  0  0999 V2000
    4.0487    3.0826    5.3854 Pd  0  0  0  0  0  0  0  0  0  0  0  0
    1.9745    1.7418    6.1106 I   0  0  0  0  0  0  0  0  0  0  0  0
    4.5791    4.3451    7.5699 I   0  0  0  0  0  0  0  0  0  0  0  0
    5.8182    3.9164    4.3136 P   0  0  0  0  0  4  0  0  0  0  0  0
    3.8952    2.3532    3.2839 P   0  0  2  0  0  4  0  0  0  0  0  0
    5.3780    3.1247    2.8531 N   0  0  0  0  0  0  0  0  0  0  0  0
    2.5910    3.0335    2.2020 C   0  0  0  0  0  0  0  0  0  0  0  0
    4.0225    0.5840    2.9166 C   0  0  0  0  0  0  0  0  0  0  0  0
    4.6084   -0.1854    3.9189 C   0  0  0  0  0  0  0  0  0  0  0  0
    4.7418   -1.5505    3.7612 C   0  0  0  0  0  0  0  0  0  0  0  0
    4.2782   -2.1536    2.6020 C   0  0  0  0  0  0  0  0  0  0  0  0
    3.6754   -1.3944    1.6121 C   0  0  0  0  0  0  0  0  0  0  0  0
    3.5397   -0.0259    1.7654 C   0  0  0  0  0  0  0  0  0  0  0  0
    6.2543    5.6125    3.8831 C   0  0  0  0  0  0  0  0  0  0  0  0
    5.7904    6.2262    2.7248 C   0  0  0  0  0  0  0  0  0  0  0  0
    6.0699    7.5612    2.4985 C   0  0  0  0  0  0  0  0  0  0  0  0
    6.7849    8.2895    3.4363 C   0  0  0  0  0  0  0  0  0  0  0  0
    7.2166    7.6876    4.6085 C   0  0  0  0  0  0  0  0  0  0  0  0
    6.9499    6.3516    4.8386 C   0  0  0  0  0  0  0  0  0  0  0  0
    7.3604    3.1531    4.8978 C   0  0  0  0  0  0  0  0  0  0  0  0
    8.6206    3.5290    4.4450 C   0  0  0  0  0  0  0  0  0  0  0  0
    9.7391    2.8674    4.9180 C   0  0  0  0  0  0  0  0  0  0  0  0
    9.6059    1.8403    5.8398 C   0  0  0  0  0  0  0  0  0  0  0  0
    8.3520    1.4689    6.2988 C   0  0  0  0  0  0  0  0  0  0  0  0
    7.2305    2.1257    5.8289 C   0  0  0  0  0  0  0  0  0  0  0  0
    6.2887    2.9257    1.7289 C   0  0  0  0  0  0  0  0  0  0  0  0
    7.0373    1.5967    1.8261 C   0  0  0  0  0  0  0  0  0  0  0  0
    5.5587    3.0251    0.3944 C   0  0  0  0  0  0  0  0  0  0  0  0
    1.6516    2.5617    2.4996 H   0  0  0  0  0  0  0  0  0  0  0  0
    2.7775    2.8581    1.1445 H   0  0  0  0  0  0  0  0  0  0  0  0
    2.5198    4.1078    2.3908 H   0  0  0  0  0  0  0  0  0  0  0  0
    4.9368    0.3023    4.8372 H   0  0  0  0  0  0  0  0  0  0  0  0
    5.1903   -2.1456    4.5420 H   0  0  0  0  0  0  0  0  0  0  0  0
    4.3734   -3.2215    2.4760 H   0  0  0  0  0  0  0  0  0  0  0  0
    3.3002   -1.8710    0.7185 H   0  0  0  0  0  0  0  0  0  0  0  0
    3.0528    0.5553    0.9957 H   0  0  0  0  0  0  0  0  0  0  0  0
    5.2128    5.6568    2.0092 H   0  0  0  0  0  0  0  0  0  0  0  0
    5.7208    8.0374    1.5940 H   0  0  0  0  0  0  0  0  0  0  0  0
    6.9944    9.3335    3.2582 H   0  0  0  0  0  0  0  0  0  0  0  0
    7.7538    8.2623    5.3476 H   0  0  0  0  0  0  0  0  0  0  0  0
    7.2650    5.8754    5.7582 H   0  0  0  0  0  0  0  0  0  0  0  0
    8.7213    4.3391    3.7354 H   0  0  0  0  0  0  0  0  0  0  0  0
   10.7195    3.1579    4.5706 H   0  0  0  0  0  0  0  0  0  0  0  0
   10.4848    1.3339    6.2092 H   0  0  0  0  0  0  0  0  0  0  0  0
    8.2510    0.6795    7.0281 H   0  0  0  0  0  0  0  0  0  0  0  0
    6.2356    1.8594    6.2082 H   0  0  0  0  0  0  0  0  0  0  0  0
    7.0204    3.7444    1.8000 H   0  0  0  0  0  0  0  0  0  0  0  0
    7.5108    1.4934    2.8003 H   0  0  0  0  0  0  0  0  0  0  0  0
    7.8073    1.5507    1.0599 H   0  0  0  0  0  0  0  0  0  0  0  0
    6.3536    0.7628    1.6831 H   0  0  0  0  0  0  0  0  0  0  0  0
    6.2798    3.0090   -0.4192 H   0  0  0  0  0  0  0  0  0  0  0  0
    4.9870    3.9483    0.3291 H   0  0  0  0  0  0  0  0  0  0  0  0
    4.8881    2.1770    0.2731 H   0  0  0  0  0  0  0  0  0  0  0  0
  1  2  1  0  0  0  0
  1  3  1  0  0  0  0
  4 20  1  0  0  0  0
  4  1  1  0  0  0  0
  5  7  1  6  0  0  0
  5  1  1  0  0  0  0
  6  5  1  0  0  0  0
  6  4  1  0  0  0  0
  7 31  1  0  0  0  0
  7 29  1  0  0  0  0
  8  5  1  0  0  0  0
  8  9  1  0  0  0  0
  9 32  1  0  0  0  0
 10  9  2  0  0  0  0
 10 33  1  0  0  0  0
 11 10  1  0  0  0  0
 12 13  1  0  0  0  0
 12 11  2  0  0  0  0
 13  8  2  0  0  0  0
 14  4  1  0  0  0  0
 14 19  1  0  0  0  0
 15 14  2  0  0  0  0
 16 15  1  0  0  0  0
 16 17  2  0  0  0  0
 17 18  1  0  0  0  0
 18 19  2  0  0  0  0
 18 40  1  0  0  0  0
 19 41  1  0  0  0  0
 20 25  1  0  0  0  0
 21 20  2  0  0  0  0
 21 22  1  0  0  0  0
 22 23  2  0  0  0  0
 23 44  1  0  0  0  0
 23 24  1  0  0  0  0
 24 45  1  0  0  0  0
 25 46  1  0  0  0  0
 25 24  2  0  0  0  0
 26 47  1  0  0  0  0
 26 27  1  0  0  0  0
 26  6  1  0  0  0  0
 27 48  1  0  0  0  0
 28 26  1  0  0  0  0
 30  7  1  0  0  0  0
 34 11  1  0  0  0  0
 35 12  1  0  0  0  0
 36 13  1  0  0  0  0
 37 15  1  0  0  0  0
 38 16  1  0  0  0  0
 39 17  1  0  0  0  0
 42 21  1  0  0  0  0
 43 22  1  0  0  0  0
 49 27  1  0  0  0  0
 50 27  1  0  0  0  0
 51 28  1  0  0  0  0
 52 28  1  0  0  0  0
 53 28  1  0  0  0  0
M  END
$$$$
