CSD_code = TEXSIA | q = 0 | S = 0 | Stoichiometry = C14H20Cl2N4Pd | MND = 4
 OpenBabel04212202103D

 41 42  0  0  1  0  0  0  0  0999 V2000
   -0.0001    0.0000   -0.0000 Pd  0  0  0  0  0  0  0  0  0  0  0  0
    1.3580   -1.6953   -0.7649 Cl  0  0  0  0  0  0  0  0  0  0  0  0
    1.9156    2.2590   -0.3622 N   0  0  0  0  0  0  0  0  0  0  0  0
    2.6128    0.9714    1.2083 N   0  0  0  0  0  0  0  0  0  0  0  0
    1.6074    1.1503    0.3360 C   0  0  0  0  0  0  0  0  0  0  0  0
    3.1078    2.7711    0.0683 C   0  0  0  0  0  0  0  0  0  0  0  0
    3.5437    3.6532   -0.3544 H   0  0  0  0  0  0  0  0  0  0  0  0
    3.5475    1.9610    1.0612 C   0  0  0  0  0  0  0  0  0  0  0  0
    4.4341    2.0086    1.6595 H   0  0  0  0  0  0  0  0  0  0  0  0
    2.6715   -0.0993    2.1677 C   0  0  0  0  0  0  0  0  0  0  0  0
    2.0387   -0.9197    1.8095 H   0  0  0  0  0  0  0  0  0  0  0  0
    2.3118    0.2384    3.1438 H   0  0  0  0  0  0  0  0  0  0  0  0
    3.6971   -0.4549    2.2656 H   0  0  0  0  0  0  0  0  0  0  0  0
    1.0713    2.8244   -1.3945 C   0  0  0  0  0  0  0  0  0  0  0  0
    1.5183    3.7597   -1.7391 H   0  0  0  0  0  0  0  0  0  0  0  0
    0.0878    3.0314   -0.9438 H   0  0  0  0  0  0  0  0  0  0  0  0
    0.8790    1.8663   -2.5379 C   0  0  0  0  0  0  0  0  0  0  0  0
    0.5340    0.8634   -2.2485 H   0  0  0  0  0  0  0  0  0  0  0  0
    1.0859    2.1755   -3.8026 C   0  0  0  0  0  0  0  0  0  0  0  0
    1.4258    3.1548   -4.1018 H   0  0  0  0  0  0  0  0  0  0  0  0
    0.9188    1.4680   -4.5962 H   0  0  0  0  0  0  0  0  0  0  0  0
   -1.3581    1.6952    0.7649 Cl  0  0  0  0  0  0  0  0  0  0  0  0
   -1.9156   -2.2590    0.3622 N   0  0  0  0  0  0  0  0  0  0  0  0
   -2.6126   -0.9716   -1.2085 N   0  0  0  0  0  0  0  0  0  0  0  0
   -1.6073   -1.1506   -0.3362 C   0  0  1  0  0  3  0  0  0  0  0  0
   -3.1079   -2.7711   -0.0681 C   0  0  0  0  0  0  0  0  0  0  0  0
   -3.5439   -3.6530    0.3548 H   0  0  0  0  0  0  0  0  0  0  0  0
   -3.5475   -1.9611   -1.0612 C   0  0  0  0  0  0  0  0  0  0  0  0
   -4.4340   -2.0086   -1.6595 H   0  0  0  0  0  0  0  0  0  0  0  0
   -2.6714    0.0989   -2.1679 C   0  0  0  0  0  0  0  0  0  0  0  0
   -2.0366    0.9184   -1.8110 H   0  0  0  0  0  0  0  0  0  0  0  0
   -2.3141   -0.2395   -3.1448 H   0  0  0  0  0  0  0  0  0  0  0  0
   -3.6967    0.4564   -2.2640 H   0  0  0  0  0  0  0  0  0  0  0  0
   -1.0714   -2.8243    1.3947 C   0  0  0  0  0  0  0  0  0  0  0  0
   -1.5182   -3.7596    1.7393 H   0  0  0  0  0  0  0  0  0  0  0  0
   -0.0878   -3.0312    0.9441 H   0  0  0  0  0  0  0  0  0  0  0  0
   -0.8793   -1.8660    2.5379 C   0  0  0  0  0  0  0  0  0  0  0  0
   -0.5344   -0.8631    2.2484 H   0  0  0  0  0  0  0  0  0  0  0  0
   -1.0861   -2.1752    3.8027 C   0  0  0  0  0  0  0  0  0  0  0  0
   -1.4254   -3.1546    4.1020 H   0  0  0  0  0  0  0  0  0  0  0  0
   -0.9187   -1.4677    4.5962 H   0  0  0  0  0  0  0  0  0  0  0  0
  1  5  2  0  0  0  0
  1 22  1  0  0  0  0
  2  1  1  0  0  0  0
  3  6  1  0  0  0  0
  3  5  1  0  0  0  0
  4 10  1  0  0  0  0
  5  4  1  0  0  0  0
  6  8  2  0  0  0  0
  7  6  1  0  0  0  0
  8  4  1  0  0  0  0
  8  9  1  0  0  0  0
 10 13  1  0  0  0  0
 10 12  1  0  0  0  0
 11 10  1  0  0  0  0
 14 16  1  0  0  0  0
 14  3  1  0  0  0  0
 15 14  1  0  0  0  0
 17 18  1  0  0  0  0
 17 14  1  0  0  0  0
 19 17  2  0  0  0  0
 20 19  1  0  0  0  0
 21 19  1  0  0  0  0
 23 34  1  0  0  0  0
 24 28  1  0  0  0  0
 24 25  1  0  0  0  0
 25  1  1  1  0  0  0
 25 23  1  0  0  0  0
 26 27  1  0  0  0  0
 26 23  1  0  0  0  0
 28 26  2  0  0  0  0
 29 28  1  0  0  0  0
 30 31  1  0  0  0  0
 30 24  1  0  0  0  0
 32 30  1  0  0  0  0
 33 30  1  0  0  0  0
 34 35  1  0  0  0  0
 34 37  1  0  0  0  0
 36 34  1  0  0  0  0
 37 39  2  0  0  0  0
 38 37  1  0  0  0  0
 39 40  1  0  0  0  0
 39 41  1  0  0  0  0
M  END
$$$$
