CSD_code = TEXTAT | q = 0 | S = 0 | Stoichiometry = C16H12Cl2N4O2Ru | MND = 6
 OpenBabel04212202103D

 37 40  0  0  1  0  0  0  0  0999 V2000
    1.3261    8.4772    4.6606 Ru  0  0  0  0  0  0  0  0  0  0  0  0
   -1.8109    9.3479    4.5138 C   0  0  0  0  0  0  0  0  0  0  0  0
   -1.7440   10.3002    4.0250 H   0  0  0  0  0  0  0  0  0  0  0  0
   -2.9147    8.7168    5.0309 C   0  0  0  0  0  0  0  0  0  0  0  0
   -3.9398    9.0229    5.0684 H   0  0  0  0  0  0  0  0  0  0  0  0
   -1.1630    7.4651    5.3344 C   0  0  2  0  0  3  0  0  0  0  0  0
   -3.2937    6.5333    6.2056 C   0  0  0  0  0  0  0  0  0  0  0  0
   -2.6586    5.6778    6.4256 H   0  0  0  0  0  0  0  0  0  0  0  0
   -4.1174    6.2228    5.5613 H   0  0  0  0  0  0  0  0  0  0  0  0
   -3.7006    6.9330    7.1362 H   0  0  0  0  0  0  0  0  0  0  0  0
    1.7489    5.6283    5.5623 C   0  0  0  0  0  0  0  0  0  0  0  0
    1.5848    4.8217    6.7147 C   0  0  0  0  0  0  0  0  0  0  0  0
    0.7705    5.0489    7.3853 H   0  0  0  0  0  0  0  0  0  0  0  0
    2.4733    3.8238    6.9772 C   0  0  0  0  0  0  0  0  0  0  0  0
    2.3696    3.2232    7.8691 H   0  0  0  0  0  0  0  0  0  0  0  0
    3.5474    3.5515    6.0987 C   0  0  0  0  0  0  0  0  0  0  0  0
    4.4788    2.5254    6.3476 C   0  0  0  0  0  0  0  0  0  0  0  0
    4.3720    1.9322    7.2443 H   0  0  0  0  0  0  0  0  0  0  0  0
    5.5005    2.2825    5.4698 C   0  0  0  0  0  0  0  0  0  0  0  0
    6.2100    1.4927    5.6675 H   0  0  0  0  0  0  0  0  0  0  0  0
    5.6374    3.0534    4.3042 C   0  0  0  0  0  0  0  0  0  0  0  0
    6.4500    2.8448    3.6247 H   0  0  0  0  0  0  0  0  0  0  0  0
    4.7513    4.0576    4.0322 C   0  0  0  0  0  0  0  0  0  0  0  0
    4.8490    4.6584    3.1405 H   0  0  0  0  0  0  0  0  0  0  0  0
    3.6896    4.3368    4.9211 C   0  0  0  0  0  0  0  0  0  0  0  0
    2.7801    5.3782    4.6774 C   0  0  0  0  0  0  0  0  0  0  0  0
    2.8562    5.9496    3.7601 H   0  0  0  0  0  0  0  0  0  0  0  0
    3.1643    8.2529    4.8118 C   0  0  0  0  0  2  0  0  0  0  0  0
    1.5335   10.2725    4.1513 C   0  0  0  0  0  2  0  0  0  0  0  0
    0.8626    6.6605    5.2899 N   0  0  0  0  0  0  0  0  0  0  0  0
   -0.7308    8.5628    4.7031 N   0  0  0  0  0  0  0  0  0  0  0  0
   -0.3481    6.4430    5.6551 N   0  0  0  0  0  2  0  0  0  0  0  0
   -2.4969    7.5276    5.5447 N   0  0  0  0  0  0  0  0  0  0  0  0
    4.2896    8.1623    4.9610 O   0  0  0  0  0  1  0  0  0  0  0  0
    1.5760   11.3701    3.8643 O   0  0  0  0  0  1  0  0  0  0  0  0
    1.2060    7.7762    2.3770 Cl  0  0  0  0  0  0  0  0  0  0  0  0
    1.1571    9.1256    6.9726 Cl  0  0  0  0  0  0  0  0  0  0  0  0
  1 31  1  0  0  0  0
  1 28  1  0  0  0  0
  1 30  1  0  0  0  0
  1 37  1  0  0  0  0
  2 31  1  0  0  0  0
  2  4  2  0  0  0  0
  3  2  1  0  0  0  0
  4  5  1  0  0  0  0
  4 33  1  0  0  0  0
  6 33  1  0  0  0  0
  6 32  1  6  0  0  0
  7  8  1  0  0  0  0
  7 10  1  0  0  0  0
  9  7  1  0  0  0  0
 11 12  1  0  0  0  0
 12 14  2  0  0  0  0
 12 13  1  0  0  0  0
 14 15  1  0  0  0  0
 16 17  1  0  0  0  0
 16 14  1  0  0  0  0
 17 18  1  0  0  0  0
 19 20  1  0  0  0  0
 19 17  2  0  0  0  0
 21 19  1  0  0  0  0
 22 21  1  0  0  0  0
 23 21  2  0  0  0  0
 23 25  1  0  0  0  0
 24 23  1  0  0  0  0
 25 16  2  0  0  0  0
 26 25  1  0  0  0  0
 26 11  2  0  0  0  0
 27 26  1  0  0  0  0
 28 34  1  0  0  0  0
 29  1  1  0  0  0  0
 30 11  1  0  0  0  0
 30 32  1  0  0  0  0
 31  6  1  0  0  0  0
 33  7  1  0  0  0  0
 35 29  1  0  0  0  0
 36  1  1  0  0  0  0
M  END
$$$$
