CSD_code = TEYFEK | q = 0 | S = 0 | Stoichiometry = C25H18Br2HgN4 | MND = 4
 OpenBabel04212202103D

 50 54  0  0  1  0  0  0  0  0999 V2000
   -0.2533    8.5765   10.4578 Hg  0  0  0  0  0  0  0  0  0  0  0  0
   -2.0885    9.7116   11.6022 Br  0  0  0  0  0  0  0  0  0  0  0  0
    1.6958    8.5254    8.9856 Br  0  0  0  0  0  0  0  0  0  0  0  0
    1.6257    6.5672   12.3068 C   0  0  1  0  0  3  0  0  0  0  0  0
    2.1639    7.8923   12.6482 C   0  0  0  0  0  0  0  0  0  0  0  0
    0.4354    6.5506   11.7042 N   0  0  0  0  0  0  0  0  0  0  0  0
    3.4825    8.2201   12.3421 C   0  0  0  0  0  0  0  0  0  0  0  0
    4.1180    7.4896   11.8643 H   0  0  0  0  0  0  0  0  0  0  0  0
    0.5455    4.1754   11.5734 C   0  0  0  0  0  0  0  0  0  0  0  0
    0.1158    3.2519   11.2197 H   0  0  0  0  0  0  0  0  0  0  0  0
   -2.3322    4.4022   10.7732 C   0  0  0  0  0  0  0  0  0  0  0  0
   -2.1173    3.5460   11.3925 H   0  0  0  0  0  0  0  0  0  0  0  0
   -3.5412    4.5033   10.1081 C   0  0  0  0  0  0  0  0  0  0  0  0
   -4.2762    3.7161   10.1874 H   0  0  0  0  0  0  0  0  0  0  0  0
    1.3355    8.8522   13.2358 C   0  0  0  0  0  0  0  0  0  0  0  0
    0.3352    8.5781   13.5492 H   0  0  0  0  0  0  0  0  0  0  0  0
   -1.6684    6.5348    9.9433 N   0  0  0  0  0  0  0  0  0  0  0  0
   -1.4081    5.4389   10.6623 C   0  0  0  0  0  0  0  0  0  0  0  0
   -0.1011    5.3821   11.3450 C   0  0  0  0  0  0  0  0  0  0  0  0
    3.1287   10.4461   13.1683 C   0  0  0  0  0  0  0  0  0  0  0  0
    3.5013   11.4416   13.3577 H   0  0  0  0  0  0  0  0  0  0  0  0
   -3.7921    5.6330    9.3467 C   0  0  0  0  0  0  0  0  0  0  0  0
   -4.7179    5.7533    8.8080 H   0  0  0  0  0  0  0  0  0  0  0  0
    1.8223   10.1224   13.4974 C   0  0  0  0  0  0  0  0  0  0  0  0
    1.1774   10.8564   13.9576 H   0  0  0  0  0  0  0  0  0  0  0  0
    1.7919    4.1706   12.2016 C   0  0  0  0  0  0  0  0  0  0  0  0
    3.9568    9.4934   12.5974 C   0  0  0  0  0  0  0  0  0  0  0  0
    4.9737    9.7462   12.3380 H   0  0  0  0  0  0  0  0  0  0  0  0
   -2.8251    6.6237    9.3032 C   0  0  0  0  0  0  0  0  0  0  0  0
   -2.9845    7.5284    8.7299 H   0  0  0  0  0  0  0  0  0  0  0  0
    2.3291    5.3984   12.5760 C   0  0  0  0  0  0  0  0  0  0  0  0
    3.2749    5.4536   13.0913 H   0  0  0  0  0  0  0  0  0  0  0  0
    2.5107    2.9183   12.4526 C   0  0  0  0  0  0  0  0  0  0  0  0
    3.8975    2.8533   12.3140 C   0  0  0  0  0  0  0  0  0  0  0  0
    4.4442    3.7259   11.9907 H   0  0  0  0  0  0  0  0  0  0  0  0
    1.8258    1.7680   12.8394 C   0  0  0  0  0  0  0  0  0  0  0  0
    0.7554    1.8029   12.9778 H   0  0  0  0  0  0  0  0  0  0  0  0
    3.8820    0.5325   12.9426 C   0  0  0  0  0  0  0  0  0  0  0  0
    4.5748    1.6774   12.5489 C   0  0  0  0  0  0  0  0  0  0  0  0
    5.6450    1.6150   12.4369 H   0  0  0  0  0  0  0  0  0  0  0  0
    2.4980    0.5889   13.0894 C   0  0  0  0  0  0  0  0  0  0  0  0
    1.9397   -0.2782   13.4042 H   0  0  0  0  0  0  0  0  0  0  0  0
    4.6029   -0.6341   13.1825 N   0  0  0  0  0  0  0  0  0  0  0  0
    5.9401   -0.6191   13.1282 N   0  0  0  0  0  0  0  0  0  0  0  0
    4.1417   -1.8765   13.4861 C   0  0  0  0  0  0  0  0  0  0  0  0
    3.0995   -2.1036   13.5693 H   0  0  0  0  0  0  0  0  0  0  0  0
    5.2363   -2.6865   13.6318 C   0  0  0  0  0  0  0  0  0  0  0  0
    5.2530   -3.7296   13.8706 H   0  0  0  0  0  0  0  0  0  0  0  0
    6.3357   -1.8404   13.3966 C   0  0  0  0  0  0  0  0  0  0  0  0
    7.3800   -2.0804   13.4148 H   0  0  0  0  0  0  0  0  0  0  0  0
  1  2  1  0  0  0  0
  1  6  1  0  0  0  0
  3  1  1  0  0  0  0
  4 31  1  0  0  0  0
  4  5  1  6  0  0  0
  5 15  1  0  0  0  0
  6  4  1  0  0  0  0
  7 27  1  0  0  0  0
  7  5  2  0  0  0  0
  8  7  1  0  0  0  0
  9 26  1  0  0  0  0
 10  9  1  0  0  0  0
 11 12  1  0  0  0  0
 13 14  1  0  0  0  0
 13 11  2  0  0  0  0
 15 24  2  0  0  0  0
 15 16  1  0  0  0  0
 17 18  2  0  0  0  0
 18 11  1  0  0  0  0
 18 19  1  0  0  0  0
 19  9  2  0  0  0  0
 19  6  1  0  0  0  0
 20 21  1  0  0  0  0
 20 24  1  0  0  0  0
 22 13  1  0  0  0  0
 23 22  1  0  0  0  0
 24 25  1  0  0  0  0
 26 33  1  0  0  0  0
 26 31  2  0  0  0  0
 27 20  2  0  0  0  0
 28 27  1  0  0  0  0
 29 22  2  0  0  0  0
 29 17  1  0  0  0  0
 30 29  1  0  0  0  0
 31 32  1  0  0  0  0
 33 36  1  0  0  0  0
 34 33  2  0  0  0  0
 34 39  1  0  0  0  0
 35 34  1  0  0  0  0
 36 37  1  0  0  0  0
 36 41  2  0  0  0  0
 38 41  1  0  0  0  0
 38 43  1  0  0  0  0
 39 38  2  0  0  0  0
 40 39  1  0  0  0  0
 41 42  1  0  0  0  0
 43 45  1  0  0  0  0
 44 43  1  0  0  0  0
 44 49  2  0  0  0  0
 45 46  1  0  0  0  0
 45 47  2  0  0  0  0
 47 48  1  0  0  0  0
 49 50  1  0  0  0  0
 49 47  1  0  0  0  0
M  END
$$$$
