CSD_code = TEYXUQ | q = 0 | S = 0 | Stoichiometry = C18H20Cl2N2Pd | MND = 4
 OpenBabel04212202103D

 43 47  0  0  0  0  0  0  0  0999 V2000
    0.8465    2.4013    0.0517 Pd  0  0  0  0  0  0  0  0  0  0  0  0
   -0.9031    1.3317    0.9334 Cl  0  0  0  0  0  0  0  0  0  0  0  0
   -0.4425    3.4038   -1.4684 Cl  0  0  0  0  0  0  0  0  0  0  0  0
    2.1415    1.7526    1.6192 N   0  0  0  0  0  4  0  0  0  0  0  0
    2.6324    3.1137   -0.8777 N   0  0  0  0  0  4  0  0  0  0  0  0
    3.4047    2.4635    1.3684 C   0  0  0  0  0  0  0  0  0  0  0  0
    3.7211    2.4675   -0.1279 C   0  0  0  0  0  0  0  0  0  0  0  0
    2.2907    0.2965    1.8318 C   0  0  0  0  0  0  0  0  0  0  0  0
    2.2680    0.0609    3.3538 C   0  0  0  0  0  0  0  0  0  0  0  0
    1.5539    1.2889    3.8401 C   0  0  0  0  0  0  0  0  0  0  0  0
    0.9798    1.5768    5.0611 C   0  0  0  0  0  0  0  0  0  0  0  0
    0.3517    2.8037    5.2274 C   0  0  0  0  0  0  0  0  0  0  0  0
    0.2910    3.7228    4.1911 C   0  0  0  0  0  0  0  0  0  0  0  0
    0.8693    3.4444    2.9611 C   0  0  0  0  0  0  0  0  0  0  0  0
    1.4982    2.2213    2.8115 C   0  0  0  0  0  0  0  0  0  0  0  0
    2.7912    4.5740   -1.0489 C   0  0  0  0  0  0  0  0  0  0  0  0
    3.3739    4.7997   -2.4571 C   0  0  0  0  0  0  0  0  0  0  0  0
    2.9723    3.5343   -3.1582 C   0  0  0  0  0  0  0  0  0  0  0  0
    2.9585    3.2086   -4.4988 C   0  0  0  0  0  0  0  0  0  0  0  0
    2.5048    1.9509   -4.8728 C   0  0  0  0  0  0  0  0  0  0  0  0
    2.0644    1.0385   -3.9263 C   0  0  0  0  0  0  0  0  0  0  0  0
    2.0800    1.3543   -2.5755 C   0  0  0  0  0  0  0  0  0  0  0  0
    2.5428    2.6077   -2.2163 C   0  0  0  0  0  0  0  0  0  0  0  0
    4.2312    2.0049    1.9284 H   0  0  0  0  0  0  0  0  0  0  0  0
    3.2904    3.4961    1.7170 H   0  0  0  0  0  0  0  0  0  0  0  0
    4.6780    2.9750   -0.3102 H   0  0  0  0  0  0  0  0  0  0  0  0
    3.8130    1.4342   -0.4810 H   0  0  0  0  0  0  0  0  0  0  0  0
    3.1981   -0.0743    1.3520 H   0  0  0  0  0  0  0  0  0  0  0  0
    1.4159   -0.1862    1.3812 H   0  0  0  0  0  0  0  0  0  0  0  0
    3.2733    0.0026    3.7822 H   0  0  0  0  0  0  0  0  0  0  0  0
    1.7374   -0.8545    3.6082 H   0  0  0  0  0  0  0  0  0  0  0  0
    1.0082    0.8586    5.8663 H   0  0  0  0  0  0  0  0  0  0  0  0
   -0.1128    3.0382    6.1730 H   0  0  0  0  0  0  0  0  0  0  0  0
   -0.2244    4.6596    4.3362 H   0  0  0  0  0  0  0  0  0  0  0  0
    0.7918    4.1479    2.1257 H   0  0  0  0  0  0  0  0  0  0  0  0
    3.4111    4.9920   -0.2539 H   0  0  0  0  0  0  0  0  0  0  0  0
    1.7892    5.0149   -1.0005 H   0  0  0  0  0  0  0  0  0  0  0  0
    4.4628    4.9083   -2.4465 H   0  0  0  0  0  0  0  0  0  0  0  0
    2.9497    5.6848   -2.9272 H   0  0  0  0  0  0  0  0  0  0  0  0
    3.2829    3.9207   -5.2423 H   0  0  0  0  0  0  0  0  0  0  0  0
    2.4771    1.6858   -5.9187 H   0  0  0  0  0  0  0  0  0  0  0  0
    1.6921    0.0764   -4.2430 H   0  0  0  0  0  0  0  0  0  0  0  0
    1.6998    0.6536   -1.8247 H   0  0  0  0  0  0  0  0  0  0  0  0
  1  2  1  0  0  0  0
  1  4  1  0  0  0  0
  3  1  1  0  0  0  0
  4  8  1  0  0  0  0
  4 15  1  0  0  0  0
  5  7  1  0  0  0  0
  5  1  1  0  0  0  0
  6  4  1  0  0  0  0
  6 25  1  0  0  0  0
  6 24  1  0  0  0  0
  7  6  1  0  0  0  0
  8  9  1  0  0  0  0
  9 31  1  0  0  0  0
  9 30  1  0  0  0  0
  9 10  1  0  0  0  0
 10 11  1  0  0  0  0
 11 12  2  0  0  0  0
 11 32  1  0  0  0  0
 12 33  1  0  0  0  0
 13 34  1  0  0  0  0
 13 12  1  0  0  0  0
 14 13  2  0  0  0  0
 15 14  1  0  0  0  0
 15 10  2  0  0  0  0
 16 37  1  0  0  0  0
 16  5  1  0  0  0  0
 16 36  1  0  0  0  0
 17 38  1  0  0  0  0
 17 16  1  0  0  0  0
 18 17  1  0  0  0  0
 18 23  1  0  0  0  0
 19 18  2  0  0  0  0
 20 19  1  0  0  0  0
 20 21  2  0  0  0  0
 21 22  1  0  0  0  0
 22 23  2  0  0  0  0
 22 43  1  0  0  0  0
 23  5  1  0  0  0  0
 26  7  1  0  0  0  0
 27  7  1  0  0  0  0
 28  8  1  0  0  0  0
 29  8  1  0  0  0  0
 35 14  1  0  0  0  0
 39 17  1  0  0  0  0
 40 19  1  0  0  0  0
 41 20  1  0  0  0  0
 42 21  1  0  0  0  0
M  END
$$$$
