CSD_code = TEZGAJ | q = 1 | S = 0 | Stoichiometry = C24H24ClN2Ru(1+) | MND = 9
 OpenBabel04212202103D

 52 55  0  0  1  0  0  0  0  0999 V2000
    9.3026    8.6544    8.5644 Ru  0  0  0  0  0  0  0  0  0  0  0  0
    9.8033    8.7799    6.6703 N   0  0  0  0  0  0  0  0  0  0  0  0
    7.5344    8.4807    7.6746 N   0  0  0  0  0  0  0  0  0  0  0  0
    9.5653    6.3507    8.3135 Cl  0  0  0  0  0 15  0  0  0  0  0  0
    4.0498    7.3985    9.6571 C   0  0  0  0  0  0  0  0  0  0  0  0
    3.1561    7.1257   10.1959 H   0  0  0  0  0  0  0  0  0  0  0  0
    3.9601    7.9725    8.4177 C   0  0  0  0  0  0  0  0  0  0  0  0
    3.0001    8.1471    7.9569 H   0  0  0  0  0  0  0  0  0  0  0  0
    5.1224    8.3199    7.7024 C   0  0  0  0  0  0  0  0  0  0  0  0
    6.3938    8.1160    8.3117 C   0  0  1  0  0  3  0  0  0  0  0  0
    6.4563    7.4806    9.5673 C   0  0  0  0  0  0  0  0  0  0  0  0
    7.4270    7.2166    9.9671 H   0  0  0  0  0  0  0  0  0  0  0  0
    5.3058    7.1242   10.2194 C   0  0  0  0  0  0  0  0  0  0  0  0
    5.3608    6.6151   11.1691 H   0  0  0  0  0  0  0  0  0  0  0  0
    5.0890    8.8326    6.3880 C   0  0  0  0  0  0  0  0  0  0  0  0
    4.1371    9.0121    5.9133 H   0  0  0  0  0  0  0  0  0  0  0  0
    6.2620    9.0499    5.7204 C   0  0  0  0  0  0  0  0  0  0  0  0
    6.2638    9.3846    4.6969 H   0  0  0  0  0  0  0  0  0  0  0  0
    7.4837    8.8539    6.3903 C   0  0  0  0  0  0  0  0  0  0  0  0
    8.8015    8.9679    5.7817 C   0  0  2  0  0  3  0  0  0  0  0  0
    9.0652    9.1419    4.4247 C   0  0  0  0  0  0  0  0  0  0  0  0
    8.2544    9.2924    3.7316 H   0  0  0  0  0  0  0  0  0  0  0  0
   10.3735    9.0960    3.9794 C   0  0  0  0  0  0  0  0  0  0  0  0
   10.6002    9.2260    2.9335 H   0  0  0  0  0  0  0  0  0  0  0  0
   11.3864    8.8526    4.8993 C   0  0  0  0  0  0  0  0  0  0  0  0
   12.4151    8.7771    4.5880 H   0  0  0  0  0  0  0  0  0  0  0  0
   11.0562    8.6990    6.2328 C   0  0  0  0  0  0  0  0  0  0  0  0
   11.8133    8.4840    6.9765 H   0  0  0  0  0  0  0  0  0  0  0  0
    8.8175   10.6470    9.6302 C   0  0  1  0  0  3  0  0  0  0  0  0
   10.1073   10.7194    9.0692 C   0  0  1  0  0  0  0  0  0  0  0  0
   10.3555   11.5428    8.4066 H   0  0  0  0  0  0  0  0  0  0  0  0
   11.1242    9.8126    9.4617 C   0  0  0  0  0  0  0  0  0  0  0  0
   12.1319    9.9649    9.0944 H   0  0  0  0  0  0  0  0  0  0  0  0
   10.8598    8.7819   10.3735 C   0  0  0  0  0  0  0  0  0  0  0  0
    9.5576    8.7253   10.9576 C   0  0  0  0  0  0  0  0  0  0  0  0
    9.3681    7.9980   11.7400 H   0  0  0  0  0  0  0  0  0  0  0  0
    8.5739    9.6494   10.6157 C   0  0  0  0  0  0  0  0  0  0  0  0
    7.6220    9.6471   11.1354 H   0  0  0  0  0  0  0  0  0  0  0  0
    7.7755   11.6804    9.3261 C   0  0  0  0  0  0  0  0  0  0  0  0
    6.7757   11.2496    9.3443 H   0  0  0  0  0  0  0  0  0  0  0  0
    7.8134   12.4658   10.0826 H   0  0  0  0  0  0  0  0  0  0  0  0
    7.9462   12.1398    8.3546 H   0  0  0  0  0  0  0  0  0  0  0  0
   11.9417    7.8521   10.8655 C   0  0  0  0  0  0  0  0  0  0  0  0
   11.4597    7.0035   11.3618 H   0  0  0  0  0  0  0  0  0  0  0  0
   12.8049    7.3013    9.7303 C   0  0  0  0  0  0  0  0  0  0  0  0
   12.1740    6.8347    8.9750 H   0  0  0  0  0  0  0  0  0  0  0  0
   13.4106    8.0801    9.2722 H   0  0  0  0  0  0  0  0  0  0  0  0
   13.4781    6.5446   10.1227 H   0  0  0  0  0  0  0  0  0  0  0  0
   12.7953    8.6001   11.8974 C   0  0  0  0  0  0  0  0  0  0  0  0
   12.1818    8.9652   12.7182 H   0  0  0  0  0  0  0  0  0  0  0  0
   13.5479    7.9298   12.3024 H   0  0  0  0  0  0  0  0  0  0  0  0
   13.3000    9.4479   11.4392 H   0  0  0  0  0  0  0  0  0  0  0  0
  1 30  1  0  0  0  0
  2  1  1  0  0  0  0
  3 10  1  0  0  0  0
  3  1  1  0  0  0  0
  5  6  1  0  0  0  0
  5 13  1  0  0  0  0
  7  5  2  0  0  0  0
  8  7  1  0  0  0  0
  9  7  1  0  0  0  0
 10  9  1  6  0  0  0
 10 11  1  0  0  0  0
 11 12  1  0  0  0  0
 11 13  2  0  0  0  0
 13 14  1  0  0  0  0
 15  9  2  0  0  0  0
 16 15  1  0  0  0  0
 17 15  1  0  0  0  0
 17 19  2  0  0  0  0
 18 17  1  0  0  0  0
 19  3  1  0  0  0  0
 20 21  1  6  0  0  0
 20 19  1  0  0  0  0
 20  2  1  0  0  0  0
 22 21  1  0  0  0  0
 23 21  2  0  0  0  0
 23 25  1  0  0  0  0
 24 23  1  0  0  0  0
 25 27  2  0  0  0  0
 26 25  1  0  0  0  0
 27  2  1  0  0  0  0
 27 28  1  0  0  0  0
 29 39  1  1  0  0  0
 29 37  1  0  0  0  0
 30 31  1  6  0  0  0
 30 32  1  0  0  0  0
 30 29  1  0  0  0  0
 32 34  2  0  0  0  0
 33 32  1  0  0  0  0
 34 43  1  0  0  0  0
 34 35  1  0  0  0  0
 35 36  1  0  0  0  0
 37 35  2  0  0  0  0
 37 38  1  0  0  0  0
 39 40  1  0  0  0  0
 39 41  1  0  0  0  0
 42 39  1  0  0  0  0
 43 44  1  0  0  0  0
 43 49  1  0  0  0  0
 45 48  1  0  0  0  0
 45 43  1  0  0  0  0
 46 45  1  0  0  0  0
 47 45  1  0  0  0  0
 49 51  1  0  0  0  0
 49 50  1  0  0  0  0
 52 49  1  0  0  0  0
M  END
$$$$
