CSD_code = TEZNIW | q = 0 | S = 0 | Stoichiometry = C17H38ClN5W | MND = 5
 OpenBabel04212202103D

 62 62  0  0  0  0  0  0  0  0999 V2000
    0.5076    5.2288    3.8887 W   0  0  0  0  0  0  0  0  0  0  0  0
   -1.3069    6.6380    3.5026 Cl  0  0  0  0  0  0  0  0  0  0  0  0
    0.9103    5.9369    5.4745 N   0  0  0  0  0  2  0  0  0  0  0  0
    1.2966    5.8832    1.9396 N   0  0  0  0  0  0  0  0  0  0  0  0
    3.2944    4.9664    1.0359 N   0  0  0  0  0  0  0  0  0  0  0  0
    2.4039    4.4895    3.2361 N   0  0  0  0  0  0  0  0  0  0  0  0
   -0.5206    3.7628    3.9373 N   0  0  0  0  0  2  0  0  0  0  0  0
    1.3628    8.2978    1.9465 C   0  0  0  0  0  0  0  0  0  0  0  0
    2.2850    8.2755    2.5288 H   0  0  0  0  0  0  0  0  0  0  0  0
    0.5123    8.3340    2.6290 H   0  0  0  0  0  0  0  0  0  0  0  0
    1.3584    9.1954    1.3320 H   0  0  0  0  0  0  0  0  0  0  0  0
    1.2471    5.3132    7.8011 C   0  0  0  0  0  0  0  0  0  0  0  0
    0.5714    4.4750    7.6440 H   0  0  0  0  0  0  0  0  0  0  0  0
    1.1475    5.6699    8.8235 H   0  0  0  0  0  0  0  0  0  0  0  0
    2.2665    4.9684    7.6432 H   0  0  0  0  0  0  0  0  0  0  0  0
    2.8865    4.6929   -0.3225 C   0  0  0  0  0  0  0  0  0  0  0  0
    1.8038    4.7444   -0.4018 H   0  0  0  0  0  0  0  0  0  0  0  0
    3.2096    3.6865   -0.6175 H   0  0  0  0  0  0  0  0  0  0  0  0
    3.3339    5.4111   -1.0166 H   0  0  0  0  0  0  0  0  0  0  0  0
   -0.0259    7.0616    0.2469 C   0  0  0  0  0  0  0  0  0  0  0  0
   -0.0865    6.1894   -0.4024 H   0  0  0  0  0  0  0  0  0  0  0  0
   -0.0677    7.9562   -0.3696 H   0  0  0  0  0  0  0  0  0  0  0  0
   -0.8810    7.0549    0.9213 H   0  0  0  0  0  0  0  0  0  0  0  0
    4.6911    4.7427    1.3066 C   0  0  0  0  0  0  0  0  0  0  0  0
    4.9301    5.0982    2.3063 H   0  0  0  0  0  0  0  0  0  0  0  0
    5.2772    5.3198    0.5854 H   0  0  0  0  0  0  0  0  0  0  0  0
    4.9787    3.6876    1.2095 H   0  0  0  0  0  0  0  0  0  0  0  0
    3.0373    3.2038    3.4880 C   0  0  0  0  0  0  0  0  0  0  0  0
    4.1057    3.2160    3.2309 H   0  0  0  0  0  0  0  0  0  0  0  0
    1.2664    7.0454    1.0646 C   0  0  0  0  0  0  0  0  0  0  0  0
    2.1352    7.0311    0.3900 H   0  0  0  0  0  0  0  0  0  0  0  0
    2.3539    5.0893    2.0421 C   0  0  0  0  0  3  0  0  0  0  0  0
   -1.5760    2.9205    4.3751 C   0  0  0  0  0  0  0  0  0  0  0  0
    1.9315    7.5799    6.9486 C   0  0  0  0  0  0  0  0  0  0  0  0
    1.6859    8.3822    6.2557 H   0  0  0  0  0  0  0  0  0  0  0  0
    2.9303    7.2150    6.7160 H   0  0  0  0  0  0  0  0  0  0  0  0
    1.9250    7.9722    7.9630 H   0  0  0  0  0  0  0  0  0  0  0  0
   -2.1423    3.5044    5.6866 C   0  0  0  0  0  0  0  0  0  0  0  0
   -1.3647    3.4956    6.4490 H   0  0  0  0  0  0  0  0  0  0  0  0
   -2.9984    2.9306    6.0349 H   0  0  0  0  0  0  0  0  0  0  0  0
   -2.4447    4.5372    5.5074 H   0  0  0  0  0  0  0  0  0  0  0  0
    0.9089    6.4361    6.8002 C   0  0  0  0  0  0  0  0  0  0  0  0
   -1.0846    1.4816    4.6262 C   0  0  0  0  0  0  0  0  0  0  0  0
   -0.2673    1.4896    5.3446 H   0  0  0  0  0  0  0  0  0  0  0  0
   -0.7313    1.0344    3.6992 H   0  0  0  0  0  0  0  0  0  0  0  0
   -1.8962    0.8736    5.0185 H   0  0  0  0  0  0  0  0  0  0  0  0
   -2.6863    2.9070    3.3044 C   0  0  0  0  0  0  0  0  0  0  0  0
   -2.3104    2.4687    2.3817 H   0  0  0  0  0  0  0  0  0  0  0  0
   -2.9955    3.9313    3.1008 H   0  0  0  0  0  0  0  0  0  0  0  0
   -3.5448    2.3335    3.6458 H   0  0  0  0  0  0  0  0  0  0  0  0
    2.3270    2.1185    2.6707 C   0  0  0  0  0  0  0  0  0  0  0  0
    2.5116    2.2495    1.6058 H   0  0  0  0  0  0  0  0  0  0  0  0
    1.2535    2.2032    2.8542 H   0  0  0  0  0  0  0  0  0  0  0  0
    2.6658    1.1278    2.9636 H   0  0  0  0  0  0  0  0  0  0  0  0
   -0.5077    6.9743    7.0916 C   0  0  0  0  0  0  0  0  0  0  0  0
   -0.7691    7.7299    6.3522 H   0  0  0  0  0  0  0  0  0  0  0  0
   -0.5575    7.4108    8.0864 H   0  0  0  0  0  0  0  0  0  0  0  0
   -1.2249    6.1593    7.0142 H   0  0  0  0  0  0  0  0  0  0  0  0
    2.8960    2.9339    4.9860 C   0  0  0  0  0  0  0  0  0  0  0  0
    3.4772    3.6605    5.5503 H   0  0  0  0  0  0  0  0  0  0  0  0
    3.2391    1.9327    5.2357 H   0  0  0  0  0  0  0  0  0  0  0  0
    1.8402    3.0524    5.2577 H   0  0  0  0  0  0  0  0  0  0  0  0
  1  7  1  0  0  0  0
  1  3  1  0  0  0  0
  2  1  1  0  0  0  0
  3 42  1  0  0  0  0
  4 32  1  0  0  0  0
  4  1  1  0  0  0  0
  5 24  1  0  0  0  0
  5 32  1  0  0  0  0
  6 28  1  0  0  0  0
  6  1  1  0  0  0  0
  7 33  1  0  0  0  0
  8  9  1  0  0  0  0
  8 10  1  0  0  0  0
 11  8  1  0  0  0  0
 12 14  1  0  0  0  0
 13 12  1  0  0  0  0
 15 12  1  0  0  0  0
 16  5  1  0  0  0  0
 17 16  1  0  0  0  0
 18 16  1  0  0  0  0
 19 16  1  0  0  0  0
 20 23  1  0  0  0  0
 20 30  1  0  0  0  0
 21 20  1  0  0  0  0
 22 20  1  0  0  0  0
 24 25  1  0  0  0  0
 26 24  1  0  0  0  0
 27 24  1  0  0  0  0
 28 59  1  0  0  0  0
 29 28  1  0  0  0  0
 30  4  1  0  0  0  0
 30  8  1  0  0  0  0
 31 30  1  0  0  0  0
 32  6  1  0  0  0  0
 33 43  1  0  0  0  0
 33 38  1  0  0  0  0
 34 37  1  0  0  0  0
 35 34  1  0  0  0  0
 36 34  1  0  0  0  0
 38 40  1  0  0  0  0
 38 39  1  0  0  0  0
 41 38  1  0  0  0  0
 42 34  1  0  0  0  0
 42 55  1  0  0  0  0
 42 12  1  0  0  0  0
 43 46  1  0  0  0  0
 43 44  1  0  0  0  0
 45 43  1  0  0  0  0
 47 50  1  0  0  0  0
 47 33  1  0  0  0  0
 48 47  1  0  0  0  0
 49 47  1  0  0  0  0
 51 53  1  0  0  0  0
 51 54  1  0  0  0  0
 51 28  1  0  0  0  0
 52 51  1  0  0  0  0
 55 57  1  0  0  0  0
 56 55  1  0  0  0  0
 58 55  1  0  0  0  0
 59 61  1  0  0  0  0
 59 62  1  0  0  0  0
 59 60  1  0  0  0  0
M  END
$$$$
