CSD_code = TEZWAZ | q = 0 | S = 0 | Stoichiometry = C29H26ClN4PPdS | MND = 4
 OpenBabel04212202103D

 63 68  0  0  0  0  0  0  0  0999 V2000
   11.9661    6.4510    4.1957 Pd  0  0  2  0  0  0  0  0  0  0  0  0
   10.6104    7.5842    5.6677 Cl  0  0  0  0  0  0  0  0  0  0  0  0
   13.4635    5.4642    2.7404 S   0  0  0  0  0  0  0  0  0  0  0  0
   10.7362    7.5450    2.6863 P   0  0  0  0  0  4  0  0  0  0  0  0
   12.9904    5.4265    5.6193 N   0  0  0  0  0  0  0  0  0  0  0  0
   14.1436    4.8034    5.2732 N   0  0  0  0  0  0  0  0  0  0  0  0
   14.2180    2.8471    8.9654 N   0  0  0  0  0  0  0  0  0  0  0  0
   14.9212    2.1619    9.1860 H   0  0  0  0  0  0  0  0  0  0  0  0
   15.6429    4.3065    3.6081 N   0  0  0  0  0  0  0  0  0  0  0  0
   15.7531    4.1897    2.6132 H   0  0  0  0  0  0  0  0  0  0  0  0
   12.5056    5.2202    6.8034 C   0  0  0  0  0  3  0  0  0  0  0  0
   11.6138    5.7848    7.0558 H   0  0  0  0  0  0  0  0  0  0  0  0
   13.0231    4.3580    7.8172 C   0  0  0  0  0  0  0  0  0  0  0  0
   12.4569    4.2320    9.1360 C   0  0  0  0  0  0  0  0  0  0  0  0
   13.2375    3.2754    9.8220 C   0  0  0  0  0  0  0  0  0  0  0  0
   14.0931    3.4886    7.7742 C   0  0  0  0  0  0  0  0  0  0  0  0
   14.7574    3.2935    6.9568 H   0  0  0  0  0  0  0  0  0  0  0  0
   11.3820    4.8327    9.7854 C   0  0  0  0  0  0  0  0  0  0  0  0
   10.7734    5.5684    9.2824 H   0  0  0  0  0  0  0  0  0  0  0  0
   11.1149    4.4658   11.0870 C   0  0  0  0  0  0  0  0  0  0  0  0
   10.2855    4.9191   11.6093 H   0  0  0  0  0  0  0  0  0  0  0  0
   11.8947    3.5174   11.7526 C   0  0  0  0  0  0  0  0  0  0  0  0
   11.6526    3.2576   12.7724 H   0  0  0  0  0  0  0  0  0  0  0  0
   12.9661    2.9088   11.1327 C   0  0  0  0  0  0  0  0  0  0  0  0
   13.5717    2.1756   11.6454 H   0  0  0  0  0  0  0  0  0  0  0  0
   14.4635    4.8190    4.0178 C   0  0  0  0  0  0  0  0  0  0  0  0
   16.5448    3.6083    4.4845 C   0  0  0  0  0  0  0  0  0  0  0  0
   17.5530    3.6610    4.0767 H   0  0  0  0  0  0  0  0  0  0  0  0
   16.2648    2.5562    4.6085 H   0  0  0  0  0  0  0  0  0  0  0  0
   16.5215    4.0976    5.4570 H   0  0  0  0  0  0  0  0  0  0  0  0
   10.8400    7.2173    0.8964 C   0  0  0  0  0  0  0  0  0  0  0  0
   12.0617    7.4834    0.2828 C   0  0  0  0  0  0  0  0  0  0  0  0
   12.8782    7.8684    0.8821 H   0  0  0  0  0  0  0  0  0  0  0  0
   12.2275    7.2421   -1.0663 C   0  0  0  0  0  0  0  0  0  0  0  0
   13.1763    7.4475   -1.5397 H   0  0  0  0  0  0  0  0  0  0  0  0
   11.1757    6.7299   -1.8112 C   0  0  0  0  0  0  0  0  0  0  0  0
   11.3048    6.5386   -2.8664 H   0  0  0  0  0  0  0  0  0  0  0  0
    9.9622    6.4578   -1.2029 C   0  0  0  0  0  0  0  0  0  0  0  0
    9.1448    6.0546   -1.7832 H   0  0  0  0  0  0  0  0  0  0  0  0
    9.7905    6.6970    0.1501 C   0  0  0  0  0  0  0  0  0  0  0  0
    8.8440    6.4795    0.6257 H   0  0  0  0  0  0  0  0  0  0  0  0
   11.1224    9.3173    2.7226 C   0  0  0  0  0  0  0  0  0  0  0  0
   10.4985   10.2467    1.8963 C   0  0  0  0  0  0  0  0  0  0  0  0
    9.7338    9.9242    1.2028 H   0  0  0  0  0  0  0  0  0  0  0  0
   10.8770   11.5756    1.9525 C   0  0  0  0  0  0  0  0  0  0  0  0
   10.3869   12.3018    1.3202 H   0  0  0  0  0  0  0  0  0  0  0  0
   11.8885   11.9761    2.8116 C   0  0  0  0  0  0  0  0  0  0  0  0
   12.1780   13.0159    2.8523 H   0  0  0  0  0  0  0  0  0  0  0  0
   12.5389   11.0459    3.6065 C   0  0  0  0  0  0  0  0  0  0  0  0
   13.3397   11.3586    4.2601 H   0  0  0  0  0  0  0  0  0  0  0  0
   12.1606    9.7164    3.5606 C   0  0  0  0  0  0  0  0  0  0  0  0
   12.6683    8.9669    4.1811 H   0  0  0  0  0  0  0  0  0  0  0  0
    8.9905    7.2349    3.0705 C   0  0  0  0  0  0  0  0  0  0  0  0
    7.9557    8.1554    3.0074 C   0  0  0  0  0  0  0  0  0  0  0  0
    8.1515    9.1762    2.7150 H   0  0  0  0  0  0  0  0  0  0  0  0
    6.6730    7.7635    3.3547 C   0  0  0  0  0  0  0  0  0  0  0  0
    5.8663    8.4811    3.3171 H   0  0  0  0  0  0  0  0  0  0  0  0
    6.4232    6.4634    3.7585 C   0  0  0  0  0  0  0  0  0  0  0  0
    5.4210    6.1676    4.0318 H   0  0  0  0  0  0  0  0  0  0  0  0
    7.4594    5.5437    3.8339 C   0  0  0  0  0  0  0  0  0  0  0  0
    7.2650    4.5354    4.1684 H   0  0  0  0  0  0  0  0  0  0  0  0
    8.7410    5.9298    3.4968 C   0  0  0  0  0  0  0  0  0  0  0  0
    9.5830    5.2309    3.5831 H   0  0  0  0  0  0  0  0  0  0  0  0
  1  5  1  0  0  0  0
  1  2  1  1  0  0  0
  3 26  1  0  0  0  0
  3  1  1  0  0  0  0
  4 42  1  0  0  0  0
  4 53  1  0  0  0  0
  4  1  1  0  0  0  0
  5 11  1  0  0  0  0
  6  5  1  0  0  0  0
  7  8  1  0  0  0  0
  7 15  1  0  0  0  0
  9 26  1  0  0  0  0
  9 27  1  0  0  0  0
 10  9  1  0  0  0  0
 11 12  1  0  0  0  0
 11 13  1  0  0  0  0
 13 14  1  0  0  0  0
 14 18  2  0  0  0  0
 14 15  1  0  0  0  0
 15 24  2  0  0  0  0
 16 13  2  0  0  0  0
 16  7  1  0  0  0  0
 17 16  1  0  0  0  0
 18 20  1  0  0  0  0
 19 18  1  0  0  0  0
 20 21  1  0  0  0  0
 20 22  2  0  0  0  0
 22 23  1  0  0  0  0
 24 25  1  0  0  0  0
 24 22  1  0  0  0  0
 26  6  2  0  0  0  0
 27 29  1  0  0  0  0
 27 30  1  0  0  0  0
 28 27  1  0  0  0  0
 31  4  1  0  0  0  0
 32 33  1  0  0  0  0
 32 31  1  0  0  0  0
 34 32  2  0  0  0  0
 35 34  1  0  0  0  0
 36 38  2  0  0  0  0
 36 34  1  0  0  0  0
 37 36  1  0  0  0  0
 38 40  1  0  0  0  0
 39 38  1  0  0  0  0
 40 41  1  0  0  0  0
 40 31  2  0  0  0  0
 42 51  1  0  0  0  0
 43 45  1  0  0  0  0
 43 42  2  0  0  0  0
 44 43  1  0  0  0  0
 45 47  2  0  0  0  0
 46 45  1  0  0  0  0
 47 48  1  0  0  0  0
 47 49  1  0  0  0  0
 49 50  1  0  0  0  0
 51 49  2  0  0  0  0
 51 52  1  0  0  0  0
 53 62  1  0  0  0  0
 54 53  2  0  0  0  0
 54 56  1  0  0  0  0
 55 54  1  0  0  0  0
 56 58  2  0  0  0  0
 57 56  1  0  0  0  0
 58 60  1  0  0  0  0
 58 59  1  0  0  0  0
 60 61  1  0  0  0  0
 62 63  1  0  0  0  0
 62 60  2  0  0  0  0
M  END
$$$$
