CSD_code = TEZWEC | q = 0 | S = 0 | Stoichiometry = C7H12Cl2N4Zn | MND = 4
 OpenBabel04212202103D

 26 28  0  0  1  0  0  0  0  0999 V2000
    2.0174    6.2710    1.9940 Zn  0  0  0  0  0  0  0  0  0  0  0  0
    4.0849    7.0950    1.4757 Cl  0  0  0  0  0  0  0  0  0  0  0  0
    1.4662    4.6396    3.2901 Cl  0  0  0  0  0  0  0  0  0  0  0  0
    1.3966    6.2900    0.0281 N   0  0  1  0  0  0  0  0  0  0  0  0
    1.7708    8.6952    0.1007 N   0  0  2  0  0  0  0  0  0  0  0  0
    2.1115    7.4735   -1.7439 N   0  0  2  0  0  0  0  0  0  0  0  0
    1.1141    8.1423    2.2211 N   0  0  0  0  0  0  0  0  0  0  0  0
    1.7259    7.4384   -0.4416 C   0  0  2  0  0  3  0  0  0  0  0  0
    1.6211    5.3269   -1.0503 C   0  0  0  0  0  0  0  0  0  0  0  0
    0.6492    4.9704   -1.4026 H   0  0  0  0  0  0  0  0  0  0  0  0
    2.1847    4.4766   -0.6672 H   0  0  0  0  0  0  0  0  0  0  0  0
    2.3793    6.1104   -2.1528 C   0  0  0  0  0  0  0  0  0  0  0  0
    3.4561    5.9031   -2.1348 H   0  0  0  0  0  0  0  0  0  0  0  0
    1.9867    5.9164   -3.1517 H   0  0  0  0  0  0  0  0  0  0  0  0
    2.8995    8.6575   -1.9824 C   0  0  0  0  0  0  0  0  0  0  0  0
    2.7246    9.0548   -2.9842 H   0  0  0  0  0  0  0  0  0  0  0  0
    3.9688    8.4457   -1.8543 H   0  0  0  0  0  0  0  0  0  0  0  0
    2.3826    9.5957   -0.8764 C   0  0  0  0  0  0  0  0  0  0  0  0
    3.1960   10.1594   -0.4193 H   0  0  0  0  0  0  0  0  0  0  0  0
    1.6295   10.2884   -1.2664 H   0  0  0  0  0  0  0  0  0  0  0  0
    1.4661    9.0391    1.3777 C   0  0  2  0  0  3  0  0  0  0  0  0
    1.5587   10.4973    1.7095 C   0  0  0  0  0  0  0  0  0  0  0  0
    1.1016   10.6914    2.6764 H   0  0  0  0  0  0  0  0  0  0  0  0
    1.0710   11.1093    0.9544 H   0  0  0  0  0  0  0  0  0  0  0  0
    2.6079   10.7863    1.7652 H   0  0  0  0  0  0  0  0  0  0  0  0
    0.8728    8.5102    3.1345 H   0  0  0  0  0  0  0  0  0  0  0  0
  1  7  1  0  0  0  0
  1  3  1  0  0  0  0
  2  1  1  0  0  0  0
  4  9  1  6  0  0  0
  4  1  1  0  0  0  0
  5 18  1  1  0  0  0
  5 21  1  0  0  0  0
  6 12  1  1  0  0  0
  6  8  1  0  0  0  0
  7 26  1  0  0  0  0
  8  4  1  0  0  0  0
  8  5  1  0  0  0  0
  9 11  1  0  0  0  0
 10  9  1  0  0  0  0
 12 13  1  0  0  0  0
 12  9  1  0  0  0  0
 14 12  1  0  0  0  0
 15 17  1  0  0  0  0
 15  6  1  0  0  0  0
 15 18  1  0  0  0  0
 16 15  1  0  0  0  0
 18 19  1  0  0  0  0
 20 18  1  0  0  0  0
 21 22  1  0  0  0  0
 21  7  1  0  0  0  0
 22 25  1  0  0  0  0
 22 23  1  0  0  0  0
 24 22  1  0  0  0  0
M  END
$$$$
