CSD_code = TEZZOO | q = 0 | S = 0 | Stoichiometry = C15H23IN2OPd | MND = 4
 OpenBabel04212202103D

 43 45  0  0  0  0  0  0  0  0999 V2000
    2.1689    4.8879   12.3512 I   0  0  0  0  0  0  0  0  0  0  0  0
    2.1167    5.6314    9.8502 Pd  0  0  0  0  0  0  0  0  0  0  0  0
    1.9185    7.4211    4.0542 O   0  0  0  0  0  0  0  0  0  0  0  0
    1.2235    7.5748   10.0534 N   0  0  0  0  0  4  0  0  0  0  0  0
    2.9947    3.8944    8.9338 N   0  0  0  0  0  4  0  0  0  0  0  0
    2.0781    6.1797    7.9821 C   0  0  0  0  0  0  0  0  0  0  0  0
    1.3826    7.3273    7.6217 C   0  0  0  0  0  0  0  0  0  0  0  0
    1.3588    7.7170    6.2956 C   0  0  0  0  0  0  0  0  0  0  0  0
    0.8338    8.6033    5.9733 H   0  0  0  0  0  0  0  0  0  0  0  0
    2.0187    6.9490    5.3312 C   0  0  0  0  0  0  0  0  0  0  0  0
    2.7095    5.7970    5.6965 C   0  0  0  0  0  0  0  0  0  0  0  0
    3.2267    5.1962    4.9635 H   0  0  0  0  0  0  0  0  0  0  0  0
    2.7405    5.4190    7.0341 C   0  0  0  0  0  0  0  0  0  0  0  0
    0.6589    8.0120    8.7525 C   0  0  0  0  0  0  0  0  0  0  0  0
   -0.3957    7.7123    8.7199 H   0  0  0  0  0  0  0  0  0  0  0  0
    0.6988    9.1083    8.6743 H   0  0  0  0  0  0  0  0  0  0  0  0
    0.2277    7.7432   11.1095 C   0  0  0  0  0  0  0  0  0  0  0  0
    0.6707    7.5164   12.0792 H   0  0  0  0  0  0  0  0  0  0  0  0
   -0.6063    7.0574   10.9443 H   0  0  0  0  0  0  0  0  0  0  0  0
   -0.1517    8.7730   11.1300 H   0  0  0  0  0  0  0  0  0  0  0  0
    2.4137    8.3725   10.3708 C   0  0  0  0  0  0  0  0  0  0  0  0
    2.1446    9.4251   10.5359 H   0  0  0  0  0  0  0  0  0  0  0  0
    3.1288    8.3177    9.5428 H   0  0  0  0  0  0  0  0  0  0  0  0
    2.8861    7.9860   11.2811 H   0  0  0  0  0  0  0  0  0  0  0  0
    3.5016    4.2391    7.5828 C   0  0  0  0  0  0  0  0  0  0  0  0
    4.5581    4.5199    7.6760 H   0  0  0  0  0  0  0  0  0  0  0  0
    3.4459    3.3587    6.9247 H   0  0  0  0  0  0  0  0  0  0  0  0
    1.8063    3.0416    8.8149 C   0  0  0  0  0  0  0  0  0  0  0  0
    2.0652    2.0724    8.3658 H   0  0  0  0  0  0  0  0  0  0  0  0
    1.0577    3.5338    8.1842 H   0  0  0  0  0  0  0  0  0  0  0  0
    1.3786    2.8629    9.8080 H   0  0  0  0  0  0  0  0  0  0  0  0
    4.0280    3.1880    9.6877 C   0  0  0  0  0  0  0  0  0  0  0  0
    3.6270    2.8512   10.6437 H   0  0  0  0  0  0  0  0  0  0  0  0
    4.8666    3.8595    9.8848 H   0  0  0  0  0  0  0  0  0  0  0  0
    4.3900    2.3132    9.1319 H   0  0  0  0  0  0  0  0  0  0  0  0
    2.5302    6.6951    3.0085 C   0  0  0  0  0  0  0  0  0  0  0  0
    2.1273    5.6686    2.9807 H   0  0  0  0  0  0  0  0  0  0  0  0
    3.6178    6.6398    3.1559 H   0  0  0  0  0  0  0  0  0  0  0  0
    2.2086    7.3815    1.7169 C   0  0  0  0  0  0  0  0  0  0  0  0
    1.1865    7.7228    1.6385 H   0  0  0  0  0  0  0  0  0  0  0  0
    3.0732    7.5665    0.7387 C   0  0  0  0  0  0  0  0  0  0  0  0
    4.0964    7.2362    0.8133 H   0  0  0  0  0  0  0  0  0  0  0  0
    2.7928    8.0481   -0.1817 H   0  0  0  0  0  0  0  0  0  0  0  0
  2  4  1  0  0  0  0
  2  1  1  0  0  0  0
  3 10  1  0  0  0  0
  4 21  1  0  0  0  0
  4 17  1  0  0  0  0
  5 32  1  0  0  0  0
  5  2  1  0  0  0  0
  6  2  1  0  0  0  0
  7  6  1  0  0  0  0
  7 14  1  0  0  0  0
  8  7  2  0  0  0  0
  9  8  1  0  0  0  0
 10 11  2  0  0  0  0
 10  8  1  0  0  0  0
 11 13  1  0  0  0  0
 12 11  1  0  0  0  0
 13 25  1  0  0  0  0
 13  6  2  0  0  0  0
 14  4  1  0  0  0  0
 15 14  1  0  0  0  0
 16 14  1  0  0  0  0
 17 20  1  0  0  0  0
 17 18  1  0  0  0  0
 19 17  1  0  0  0  0
 21 22  1  0  0  0  0
 21 24  1  0  0  0  0
 23 21  1  0  0  0  0
 25 26  1  0  0  0  0
 25  5  1  0  0  0  0
 27 25  1  0  0  0  0
 28  5  1  0  0  0  0
 28 31  1  0  0  0  0
 29 28  1  0  0  0  0
 30 28  1  0  0  0  0
 32 34  1  0  0  0  0
 32 33  1  0  0  0  0
 35 32  1  0  0  0  0
 36 38  1  0  0  0  0
 36  3  1  0  0  0  0
 37 36  1  0  0  0  0
 39 36  1  0  0  0  0
 40 39  1  0  0  0  0
 41 42  1  0  0  0  0
 41 39  2  0  0  0  0
 43 41  1  0  0  0  0
M  END
$$$$
