CSD_code = THPBPD | q = 0 | S = 0 | Stoichiometry = C18H14Br2N2PdS2 | MND = 4
 OpenBabel04212202103D

 39 42  0  0  0  0  0  0  0  0999 V2000
   -0.7927    8.2680    4.5651 Pd  0  0  0  0  0  0  0  0  0  0  0  0
    0.4613    6.4979    5.7304 Br  0  0  0  0  0  0  0  0  0  0  0  0
   -2.8497    6.4178    3.5808 S   0  0  0  0  0  0  0  0  0  0  0  0
   -0.0579    7.6552    2.8450 N   0  0  0  0  0  0  0  0  0  0  0  0
    0.9046    8.4026    2.3111 C   0  0  0  0  0  3  0  0  0  0  0  0
    1.6178    8.0147    1.1947 C   0  0  0  0  0  0  0  0  0  0  0  0
    1.3124    6.7952    0.6038 C   0  0  0  0  0  0  0  0  0  0  0  0
    0.2990    6.0313    1.1432 C   0  0  0  0  0  0  0  0  0  0  0  0
   -0.3835    6.4842    2.2771 C   0  0  0  0  0  0  0  0  0  0  0  0
   -1.4526    5.6868    2.8474 C   0  0  0  0  0  0  0  0  0  0  0  0
   -1.5551    4.3192    2.8576 C   0  0  0  0  0  0  0  0  0  0  0  0
   -2.7306    3.8607    3.4763 C   0  0  0  0  0  0  0  0  0  0  0  0
   -3.5242    4.8780    3.9075 C   0  0  0  0  0  0  0  0  0  0  0  0
    1.1072    9.3550    2.7987 H   0  0  0  0  0  0  0  0  0  0  0  0
    2.3922    8.6515    0.7999 H   0  0  0  0  0  0  0  0  0  0  0  0
    1.8497    6.4556   -0.2682 H   0  0  0  0  0  0  0  0  0  0  0  0
    0.0127    5.0920    0.6989 H   0  0  0  0  0  0  0  0  0  0  0  0
   -0.7886    3.6671    2.4795 H   0  0  0  0  0  0  0  0  0  0  0  0
   -2.9713    2.8203    3.5999 H   0  0  0  0  0  0  0  0  0  0  0  0
   -4.4752    4.8151    4.3990 H   0  0  0  0  0  0  0  0  0  0  0  0
   -2.0459   10.0376    3.4001 Br  0  0  0  0  0  0  0  0  0  0  0  0
   -1.5273    8.8809    6.2854 N   0  0  0  0  0  0  0  0  0  0  0  0
   -2.4897    8.1332    6.8194 C   0  0  0  0  0  3  0  0  0  0  0  0
   -1.2018   10.0519    6.8533 C   0  0  0  0  0  0  0  0  0  0  0  0
   -3.2028    8.5211    7.9358 C   0  0  0  0  0  0  0  0  0  0  0  0
   -2.6921    7.1808    6.3318 H   0  0  0  0  0  0  0  0  0  0  0  0
   -1.8844   10.5046    7.9872 C   0  0  0  0  0  0  0  0  0  0  0  0
   -0.1328   10.8494    6.2830 C   0  0  0  0  0  0  0  0  0  0  0  0
   -2.8975    9.7405    8.5267 C   0  0  0  0  0  0  0  0  0  0  0  0
   -3.9771    7.8841    8.3306 H   0  0  0  0  0  0  0  0  0  0  0  0
   -1.5982   11.4440    8.4315 H   0  0  0  0  0  0  0  0  0  0  0  0
    1.2642   10.1185    5.5494 S   0  0  0  0  0  0  0  0  0  0  0  0
   -0.0304   12.2169    6.2728 C   0  0  0  0  0  0  0  0  0  0  0  0
   -3.4349   10.0800    9.3987 H   0  0  0  0  0  0  0  0  0  0  0  0
    1.9387   11.6584    5.2228 C   0  0  0  0  0  0  0  0  0  0  0  0
    1.1450   12.6756    5.6541 C   0  0  0  0  0  0  0  0  0  0  0  0
   -0.7970   12.8690    6.6510 H   0  0  0  0  0  0  0  0  0  0  0  0
    2.8896   11.7214    4.7312 H   0  0  0  0  0  0  0  0  0  0  0  0
    1.3856   13.7160    5.5305 H   0  0  0  0  0  0  0  0  0  0  0  0
  1  2  1  0  0  0  0
  1 22  1  0  0  0  0
  3 13  1  0  0  0  0
  4  1  1  0  0  0  0
  5 14  1  0  0  0  0
  5  4  1  0  0  0  0
  6  5  1  0  0  0  0
  7  8  1  0  0  0  0
  7  6  2  0  0  0  0
  8  9  2  0  0  0  0
  9  4  1  0  0  0  0
  9 10  1  0  0  0  0
 10 11  2  0  0  0  0
 10  3  1  0  0  0  0
 11 12  1  0  0  0  0
 12 19  1  0  0  0  0
 12 13  2  0  0  0  0
 13 20  1  0  0  0  0
 15  6  1  0  0  0  0
 16  7  1  0  0  0  0
 17  8  1  0  0  0  0
 18 11  1  0  0  0  0
 21  1  1  0  0  0  0
 22 23  1  0  0  0  0
 22 24  1  0  0  0  0
 23 25  1  0  0  0  0
 24 27  2  0  0  0  0
 25 30  1  0  0  0  0
 25 29  2  0  0  0  0
 26 23  1  0  0  0  0
 27 31  1  0  0  0  0
 27 29  1  0  0  0  0
 28 24  1  0  0  0  0
 29 34  1  0  0  0  0
 32 28  1  0  0  0  0
 33 28  2  0  0  0  0
 33 37  1  0  0  0  0
 35 32  1  0  0  0  0
 35 36  2  0  0  0  0
 36 33  1  0  0  0  0
 38 35  1  0  0  0  0
 39 36  1  0  0  0  0
M  END
$$$$
