CSD_code = TIBCEO | q = 0 | S = 0 | Stoichiometry = C26H21Cl2CuN6O4 | MND = 4
 OpenBabel04212202103D

 60 66  0  0  0  0  0  0  0  0999 V2000
    2.1385    4.7990    4.8461 Cu  0  0  0  0  0  0  0  0  0  0  0  0
    0.5824    6.3692    4.8762 Cl  0  0  0  0  0  0  0  0  0  0  0  0
    3.5907    3.2454    4.3118 Cl  0  0  0  0  0  0  0  0  0  0  0  0
    4.7752    7.4070    1.8247 O   0  0  0  0  0  0  0  0  0  0  0  0
   -2.6099    3.4627    1.7640 O   0  0  0  0  0  0  0  0  0  0  0  0
    0.8457    9.6120    2.1499 O   0  0  0  0  0  0  0  0  0  0  0  0
    1.3154    1.3037    1.1904 O   0  0  0  0  0  0  0  0  0  0  0  0
   -0.6357    2.4162    1.4572 N   0  0  0  0  0  0  0  0  0  0  0  0
    2.7928    8.4807    1.9941 N   0  0  0  0  0  0  0  0  0  0  0  0
    3.5943    6.2077    4.9143 N   0  0  0  0  0  0  0  0  0  0  0  0
    0.6709    3.3944    4.9067 N   0  0  0  0  0  0  0  0  0  0  0  0
   -1.4036    3.5545    1.6640 C   0  0  0  0  0  0  0  0  0  0  0  0
    3.5613    7.3420    1.8374 C   0  0  0  0  0  0  0  0  0  0  0  0
    0.7286    4.8402    1.6412 C   0  0  0  0  0  0  0  0  0  0  0  0
   -1.3688    6.0157    1.9128 C   0  0  0  0  0  0  0  0  0  0  0  0
   -2.4440    5.9793    2.0022 H   0  0  0  0  0  0  0  0  0  0  0  0
   -0.5022    1.6461    4.3151 N   0  0  0  0  0  0  0  0  0  0  0  0
    1.4200    6.0696    1.7359 C   0  0  0  0  0  0  0  0  0  0  0  0
    4.5259    8.1653    4.6606 N   0  0  0  0  0  0  0  0  0  0  0  0
    3.3849    7.5089    4.8717 C   0  0  0  0  0  3  0  0  0  0  0  0
    2.4295    7.9815    4.9915 H   0  0  0  0  0  0  0  0  0  0  0  0
    1.4607    3.6473    1.4694 C   0  0  0  0  0  0  0  0  0  0  0  0
    1.4055    8.5457    2.0273 C   0  0  0  0  0  0  0  0  0  0  0  0
   -0.6767    4.8308    1.7394 C   0  0  0  0  0  0  0  0  0  0  0  0
   -0.6062    3.5721    5.3469 C   0  0  0  0  0  0  0  0  0  0  0  0
   -0.9012    4.4568    5.8722 H   0  0  0  0  0  0  0  0  0  0  0  0
    2.8429    3.6767    1.4239 C   0  0  0  0  0  0  0  0  0  0  0  0
    3.3838    2.7503    1.3098 H   0  0  0  0  0  0  0  0  0  0  0  0
    3.5254    4.8878    1.5402 C   0  0  0  0  0  0  0  0  0  0  0  0
    4.6043    4.9124    1.5294 H   0  0  0  0  0  0  0  0  0  0  0  0
    0.6906    7.2626    1.8997 C   0  0  0  0  0  0  0  0  0  0  0  0
    0.7506    2.3655    1.3569 C   0  0  0  0  0  0  0  0  0  0  0  0
    5.5203    7.2345    4.5661 C   0  0  0  0  0  0  0  0  0  0  0  0
    6.5387    7.5041    4.3816 H   0  0  0  0  0  0  0  0  0  0  0  0
    0.7027    2.2248    4.2958 C   0  0  0  0  0  3  0  0  0  0  0  0
    1.5842    1.7847    3.8715 H   0  0  0  0  0  0  0  0  0  0  0  0
    2.8298    6.0718    1.6923 C   0  0  0  0  0  0  0  0  0  0  0  0
    3.5148    9.7674    2.1703 C   0  0  0  0  0  0  0  0  0  0  0  0
    2.9509   10.5114    1.6032 H   0  0  0  0  0  0  0  0  0  0  0  0
    4.5050    9.6096    1.7354 H   0  0  0  0  0  0  0  0  0  0  0  0
   -0.6886    7.2288    1.9834 C   0  0  0  0  0  0  0  0  0  0  0  0
   -1.2218    8.1552    2.1312 H   0  0  0  0  0  0  0  0  0  0  0  0
   -1.3602    1.1602    1.2939 C   0  0  0  0  0  0  0  0  0  0  0  0
   -0.6560    0.4479    0.8598 H   0  0  0  0  0  0  0  0  0  0  0  0
   -2.1842    1.3393    0.5985 H   0  0  0  0  0  0  0  0  0  0  0  0
   -1.3440    2.4893    4.9821 C   0  0  0  0  0  0  0  0  0  0  0  0
   -2.3761    2.2629    5.1497 H   0  0  0  0  0  0  0  0  0  0  0  0
    4.9350    6.0190    4.7276 C   0  0  0  0  0  0  0  0  0  0  0  0
    5.3606    5.0366    4.7137 H   0  0  0  0  0  0  0  0  0  0  0  0
   -1.9333    0.6115    2.6013 C   0  0  0  0  0  0  0  0  0  0  0  0
   -2.7064    1.2909    2.9622 H   0  0  0  0  0  0  0  0  0  0  0  0
   -2.4011   -0.3477    2.3776 H   0  0  0  0  0  0  0  0  0  0  0  0
    4.6615    9.6155    4.4615 C   0  0  0  0  0  0  0  0  0  0  0  0
    5.6491    9.7467    4.0046 H   0  0  0  0  0  0  0  0  0  0  0  0
    4.6499   10.1009    5.4420 H   0  0  0  0  0  0  0  0  0  0  0  0
    3.6043   10.1627    3.5905 C   0  0  0  0  0  3  0  0  0  0  0  0
    2.7640   10.6696    4.0303 H   0  0  0  0  0  0  0  0  0  0  0  0
   -0.8764    0.4009    3.6911 C   0  0  0  0  0  0  0  0  0  0  0  0
   -1.2763   -0.2668    4.4612 H   0  0  0  0  0  0  0  0  0  0  0  0
    0.0234   -0.0487    3.2649 H   0  0  0  0  0  0  0  0  0  0  0  0
  1  2  1  0  0  0  0
  1 11  1  0  0  0  0
  1 10  1  0  0  0  0
  3  1  1  0  0  0  0
  4 13  2  0  0  0  0
  7 32  2  0  0  0  0
  8 12  1  0  0  0  0
  9 23  1  0  0  0  0
  9 38  1  0  0  0  0
 11 25  1  0  0  0  0
 12 24  1  0  0  0  0
 12  5  2  0  0  0  0
 13  9  1  0  0  0  0
 14 18  1  0  0  0  0
 14 24  1  0  0  0  0
 15 41  1  0  0  0  0
 15 16  1  0  0  0  0
 17 46  1  0  0  0  0
 18 31  1  0  0  0  0
 19 20  1  0  0  0  0
 20 10  1  0  0  0  0
 20 21  1  0  0  0  0
 22 14  2  0  0  0  0
 23  6  2  0  0  0  0
 24 15  2  0  0  0  0
 25 26  1  0  0  0  0
 27 22  1  0  0  0  0
 27 29  2  0  0  0  0
 28 27  1  0  0  0  0
 29 37  1  0  0  0  0
 30 29  1  0  0  0  0
 31 41  2  0  0  0  0
 31 23  1  0  0  0  0
 32  8  1  0  0  0  0
 32 22  1  0  0  0  0
 33 19  1  0  0  0  0
 33 48  2  0  0  0  0
 34 33  1  0  0  0  0
 35 17  1  0  0  0  0
 35 11  1  0  0  0  0
 36 35  1  0  0  0  0
 37 18  2  0  0  0  0
 37 13  1  0  0  0  0
 38 56  1  0  0  0  0
 39 38  1  0  0  0  0
 40 38  1  0  0  0  0
 41 42  1  0  0  0  0
 43  8  1  0  0  0  0
 43 50  1  0  0  0  0
 44 43  1  0  0  0  0
 45 43  1  0  0  0  0
 46 47  1  0  0  0  0
 46 25  2  0  0  0  0
 48 10  1  0  0  0  0
 49 48  1  0  0  0  0
 50 51  1  0  0  0  0
 50 58  1  0  0  0  0
 52 50  1  0  0  0  0
 53 19  1  0  0  0  0
 53 55  1  0  0  0  0
 54 53  1  0  0  0  0
 56 57  1  0  0  0  0
 56 53  1  0  0  0  0
 58 17  1  0  0  0  0
 58 59  1  0  0  0  0
 60 58  1  0  0  0  0
M  END
$$$$
