CSD_code = TIBLAT | q = 0 | S = 0 | Stoichiometry = C20H16CdI2N4 | MND = 6
 OpenBabel04212202103D

 43 48  0  0  1  0  0  0  0  0999 V2000
    6.8805    1.2589    4.1779 Cd  0  0  0  0  0  0  0  0  0  0  0  0
    7.8835    2.5866    6.3367 I   0  0  0  0  0  0  0  0  0  0  0  0
    6.7456   -0.8115    5.7150 N   0  0  0  0  0  0  0  0  0  0  0  0
    4.6426    0.8310    5.2471 N   0  0  0  0  0  0  0  0  0  0  0  0
    7.9067   -1.3923    5.9620 C   0  0  0  0  0  3  0  0  0  0  0  0
    8.5108   -1.6184    5.0914 H   0  0  0  0  0  0  0  0  0  0  0  0
    8.3454   -1.6967    7.2416 C   0  0  0  0  0  0  0  0  0  0  0  0
    9.3073   -2.1591    7.3966 H   0  0  0  0  0  0  0  0  0  0  0  0
    7.5280   -1.3656    8.3106 C   0  0  0  0  0  0  0  0  0  0  0  0
    7.8435   -1.5552    9.3256 H   0  0  0  0  0  0  0  0  0  0  0  0
    6.3030   -0.7736    8.0590 C   0  0  0  0  0  0  0  0  0  0  0  0
    5.6622   -0.4781    8.8741 H   0  0  0  0  0  0  0  0  0  0  0  0
    5.9420   -0.5136    6.7376 C   0  0  0  0  0  0  0  0  0  0  0  0
    4.6665    0.1405    6.3900 C   0  0  2  0  0  3  0  0  0  0  0  0
    3.5398    0.0355    7.2044 C   0  0  0  0  0  0  0  0  0  0  0  0
    3.5691   -0.5546    8.1067 H   0  0  0  0  0  0  0  0  0  0  0  0
    2.3765    0.6842    6.8285 C   0  0  0  0  0  0  0  0  0  0  0  0
    1.4928    0.6212    7.4461 H   0  0  0  0  0  0  0  0  0  0  0  0
    2.3676    1.4116    5.6498 C   0  0  0  0  0  0  0  0  0  0  0  0
    1.4860    1.9383    5.3219 H   0  0  0  0  0  0  0  0  0  0  0  0
    3.5280    1.4484    4.8912 C   0  0  0  0  0  0  0  0  0  0  0  0
    3.5622    1.9995    3.9593 H   0  0  0  0  0  0  0  0  0  0  0  0
    5.8776    2.5871    2.0192 I   0  0  0  0  0  0  0  0  0  0  0  0
    7.0153   -0.8116    2.6407 N   0  0  0  0  0  0  0  0  0  0  0  0
    9.1184    0.8310    3.1086 N   0  0  0  0  0  0  0  0  0  0  0  0
    5.8543   -1.3925    2.3936 C   0  0  0  0  0  3  0  0  0  0  0  0
    5.2502   -1.6187    3.2642 H   0  0  0  0  0  0  0  0  0  0  0  0
    5.4157   -1.6969    1.1139 C   0  0  0  0  0  0  0  0  0  0  0  0
    4.4539   -2.1596    0.9590 H   0  0  0  0  0  0  0  0  0  0  0  0
    6.2330   -1.3654    0.0450 C   0  0  0  0  0  0  0  0  0  0  0  0
    5.9174   -1.5549   -0.9700 H   0  0  0  0  0  0  0  0  0  0  0  0
    7.4578   -0.7732    0.2966 C   0  0  0  0  0  0  0  0  0  0  0  0
    8.0985   -0.4774   -0.5185 H   0  0  0  0  0  0  0  0  0  0  0  0
    7.8188   -0.5134    1.6180 C   0  0  0  0  0  0  0  0  0  0  0  0
    9.0943    0.1405    1.9657 C   0  0  2  0  0  3  0  0  0  0  0  0
   10.2211    0.0352    1.1513 C   0  0  0  0  0  0  0  0  0  0  0  0
   10.1917   -0.5549    0.2492 H   0  0  0  0  0  0  0  0  0  0  0  0
   11.3845    0.6836    1.5274 C   0  0  0  0  0  0  0  0  0  0  0  0
   12.2684    0.6203    0.9100 H   0  0  0  0  0  0  0  0  0  0  0  0
   11.3935    1.4110    2.7062 C   0  0  0  0  0  0  0  0  0  0  0  0
   12.2753    1.9375    3.0341 H   0  0  0  0  0  0  0  0  0  0  0  0
   10.2331    1.4480    3.4647 C   0  0  0  0  0  0  0  0  0  0  0  0
   10.1990    1.9994    4.3964 H   0  0  0  0  0  0  0  0  0  0  0  0
  1  4  1  0  0  0  0
  1  3  1  0  0  0  0
  1  2  1  0  0  0  0
  3  5  1  0  0  0  0
  3 13  1  0  0  0  0
  4 14  1  0  0  0  0
  5  7  1  0  0  0  0
  6  5  1  0  0  0  0
  7  8  1  0  0  0  0
  7  9  2  0  0  0  0
  9 10  1  0  0  0  0
 11  9  1  0  0  0  0
 11 12  1  0  0  0  0
 13 11  2  0  0  0  0
 14 13  1  6  0  0  0
 14 15  1  0  0  0  0
 15 16  1  0  0  0  0
 17 15  2  0  0  0  0
 17 18  1  0  0  0  0
 19 17  1  0  0  0  0
 20 19  1  0  0  0  0
 21  4  1  0  0  0  0
 21 19  2  0  0  0  0
 22 21  1  0  0  0  0
 23  1  1  0  0  0  0
 24  1  1  0  0  0  0
 25 42  1  0  0  0  0
 25  1  1  0  0  0  0
 26 24  1  0  0  0  0
 26 27  1  0  0  0  0
 28 26  1  0  0  0  0
 29 28  1  0  0  0  0
 30 32  1  0  0  0  0
 30 28  2  0  0  0  0
 31 30  1  0  0  0  0
 32 34  2  0  0  0  0
 33 32  1  0  0  0  0
 34 35  1  0  0  0  0
 34 24  1  0  0  0  0
 35 36  1  1  0  0  0
 35 25  1  0  0  0  0
 36 38  2  0  0  0  0
 37 36  1  0  0  0  0
 38 40  1  0  0  0  0
 39 38  1  0  0  0  0
 40 41  1  0  0  0  0
 40 42  2  0  0  0  0
 42 43  1  0  0  0  0
M  END
$$$$
