CSD_code = TIBLIB | q = 0 | S = 0 | Stoichiometry = C20H16Br2CdN4 | MND = 6
 OpenBabel04212202103D

 43 48  0  0  1  0  0  0  0  0999 V2000
   14.7997   -0.0247    3.2193 Cd  0  0  0  0  0  0  0  0  0  0  0  0
   16.7163   -1.3964    2.2927 Br  0  0  0  0  0  0  0  0  0  0  0  0
   13.6147    0.1811    1.0185 N   0  0  0  0  0  0  0  0  0  0  0  0
   13.2060    1.8566    3.0788 N   0  0  0  0  0  0  0  0  0  0  0  0
   13.8398   -0.7813    0.1384 C   0  0  0  0  0  3  0  0  0  0  0  0
   14.8791   -1.0383   -0.0292 H   0  0  0  0  0  0  0  0  0  0  0  0
   12.8234   -1.4431   -0.5356 C   0  0  0  0  0  0  0  0  0  0  0  0
   13.0560   -2.2284   -1.2367 H   0  0  0  0  0  0  0  0  0  0  0  0
   11.5138   -1.0872   -0.2597 C   0  0  0  0  0  0  0  0  0  0  0  0
   10.6903   -1.5985   -0.7355 H   0  0  0  0  0  0  0  0  0  0  0  0
   11.2721   -0.0696    0.6474 C   0  0  0  0  0  0  0  0  0  0  0  0
   10.2599    0.2024    0.8984 H   0  0  0  0  0  0  0  0  0  0  0  0
   12.3544    0.5536    1.2663 C   0  0  0  0  0  0  0  0  0  0  0  0
   12.1795    1.6334    2.2561 C   0  0  2  0  0  3  0  0  0  0  0  0
   11.0097    2.3905    2.3353 C   0  0  0  0  0  0  0  0  0  0  0  0
   10.2009    2.2302    1.6410 H   0  0  0  0  0  0  0  0  0  0  0  0
   10.9035    3.3628    3.3133 C   0  0  0  0  0  0  0  0  0  0  0  0
   10.0039    3.9544    3.3983 H   0  0  0  0  0  0  0  0  0  0  0  0
   11.9658    3.5622    4.1810 C   0  0  0  0  0  0  0  0  0  0  0  0
   11.9171    4.3008    4.9651 H   0  0  0  0  0  0  0  0  0  0  0  0
   13.1005    2.7843    4.0130 C   0  0  0  0  0  0  0  0  0  0  0  0
   13.9642    2.9047    4.6556 H   0  0  0  0  0  0  0  0  0  0  0  0
   12.8833   -1.3968    4.1457 Br  0  0  0  0  0  0  0  0  0  0  0  0
   15.9845    0.1810    5.4203 N   0  0  0  0  0  0  0  0  0  0  0  0
   16.3934    1.8566    3.3602 N   0  0  0  0  0  0  0  0  0  0  0  0
   15.7594   -0.7813    6.3003 C   0  0  0  0  0  3  0  0  0  0  0  0
   14.7200   -1.0385    6.4677 H   0  0  0  0  0  0  0  0  0  0  0  0
   16.7757   -1.4430    6.9746 C   0  0  0  0  0  0  0  0  0  0  0  0
   16.5430   -2.2283    7.6757 H   0  0  0  0  0  0  0  0  0  0  0  0
   18.0852   -1.0871    6.6988 C   0  0  0  0  0  0  0  0  0  0  0  0
   18.9088   -1.5983    7.1748 H   0  0  0  0  0  0  0  0  0  0  0  0
   18.3271   -0.0695    5.7918 C   0  0  0  0  0  0  0  0  0  0  0  0
   19.3393    0.2026    5.5409 H   0  0  0  0  0  0  0  0  0  0  0  0
   17.2449    0.5537    5.1727 C   0  0  0  0  0  0  0  0  0  0  0  0
   17.4199    1.6334    4.1828 C   0  0  2  0  0  3  0  0  0  0  0  0
   18.5896    2.3906    4.1038 C   0  0  0  0  0  0  0  0  0  0  0  0
   19.3984    2.2303    4.7981 H   0  0  0  0  0  0  0  0  0  0  0  0
   18.6959    3.3628    3.1259 C   0  0  0  0  0  0  0  0  0  0  0  0
   19.5955    3.9545    3.0409 H   0  0  0  0  0  0  0  0  0  0  0  0
   17.6336    3.5623    2.2581 C   0  0  0  0  0  0  0  0  0  0  0  0
   17.6824    4.3009    1.4740 H   0  0  0  0  0  0  0  0  0  0  0  0
   16.4989    2.7844    2.4259 C   0  0  0  0  0  0  0  0  0  0  0  0
   15.6352    2.9048    1.7833 H   0  0  0  0  0  0  0  0  0  0  0  0
  1 25  1  0  0  0  0
  1 23  1  0  0  0  0
  1 24  1  0  0  0  0
  2  1  1  0  0  0  0
  3 13  1  0  0  0  0
  3  1  1  0  0  0  0
  4  1  1  0  0  0  0
  4 21  1  0  0  0  0
  5  3  1  0  0  0  0
  6  5  1  0  0  0  0
  7  9  2  0  0  0  0
  7  5  1  0  0  0  0
  8  7  1  0  0  0  0
  9 11  1  0  0  0  0
 10  9  1  0  0  0  0
 11 12  1  0  0  0  0
 11 13  2  0  0  0  0
 14 13  1  6  0  0  0
 14 15  1  0  0  0  0
 14  4  1  0  0  0  0
 15 17  2  0  0  0  0
 16 15  1  0  0  0  0
 17 18  1  0  0  0  0
 17 19  1  0  0  0  0
 19 20  1  0  0  0  0
 21 19  2  0  0  0  0
 21 22  1  0  0  0  0
 24 26  1  0  0  0  0
 25 35  1  0  0  0  0
 26 27  1  0  0  0  0
 26 28  1  0  0  0  0
 28 29  1  0  0  0  0
 30 28  2  0  0  0  0
 30 31  1  0  0  0  0
 32 30  1  0  0  0  0
 33 32  1  0  0  0  0
 34 24  1  0  0  0  0
 34 32  2  0  0  0  0
 35 36  1  1  0  0  0
 35 34  1  0  0  0  0
 36 37  1  0  0  0  0
 38 36  2  0  0  0  0
 39 38  1  0  0  0  0
 40 42  2  0  0  0  0
 40 38  1  0  0  0  0
 41 40  1  0  0  0  0
 42 25  1  0  0  0  0
 43 42  1  0  0  0  0
M  END
$$$$
