CSD_code = TIBPEZ | q = 1 | S = 0 | Stoichiometry = C11H23ClCoN4O(1+) | MND = 6
 OpenBabel04212202103D

 41 44  0  0  1  0  0  0  0  0999 V2000
   -2.1643    1.7522   13.9784 Co  0  0  0  0  0  0  0  0  0  0  0  0
   -3.2239    3.1481   15.2386 Cl  0  0  0  0  0  0  0  0  0  0  0  0
   -3.6840    0.7259   13.8476 O   0  0  0  0  0  0  0  0  0  0  0  0
   -0.4092    2.6533   14.1122 N   0  0  1  0  0  4  0  0  0  0  0  0
   -1.6213    0.8063   15.6978 N   0  0  0  0  0  4  0  0  0  0  0  0
   -1.1701    0.4241   12.7582 N   0  0  0  0  0  4  0  0  0  0  0  0
   -2.5256    2.8747   12.5417 N   0  0  2  0  0  0  0  0  0  0  0  0
   -0.0190    2.6217   15.5337 C   0  0  0  0  0  0  0  0  0  0  0  0
   -0.2631    1.2156   16.0878 C   0  0  0  0  0  0  0  0  0  0  0  0
    0.6154    1.9805   13.2823 C   0  0  0  0  0  0  0  0  0  0  0  0
   -0.0183    1.1258   12.1822 C   0  0  0  0  0  0  0  0  0  0  0  0
   -0.6735    4.0182   13.6333 C   0  0  0  0  0  0  0  0  0  0  0  0
   -1.5678    3.9598   12.3917 C   0  0  0  0  0  0  0  0  0  0  0  0
   -3.6310    2.8574   11.8342 C   0  0  1  0  0  3  0  0  0  0  0  0
   -4.6436    1.9085   12.0392 C   0  0  0  0  0  0  0  0  0  0  0  0
   -4.6398    0.9435   13.0321 C   0  0  0  0  0  0  0  0  0  0  0  0
   -3.8505    3.8791   10.7576 C   0  0  0  0  0  0  0  0  0  0  0  0
   -5.8477    0.0583   13.1880 C   0  0  0  0  0  0  0  0  0  0  0  0
   -0.6630    3.3179   16.0729 H   0  0  0  0  0  0  0  0  0  0  0  0
    1.0246    2.9245   15.6683 H   0  0  0  0  0  0  0  0  0  0  0  0
   -0.1358    1.2257   17.1750 H   0  0  0  0  0  0  0  0  0  0  0  0
    0.4545    0.5003   15.6772 H   0  0  0  0  0  0  0  0  0  0  0  0
   -2.2902    1.2386   16.3416 H   0  0  0  0  0  0  0  0  0  0  0  0
   -1.7426   -0.1996   15.8002 H   0  0  0  0  0  0  0  0  0  0  0  0
    1.2124    1.3297   13.9216 H   0  0  0  0  0  0  0  0  0  0  0  0
    1.2913    2.7178   12.8394 H   0  0  0  0  0  0  0  0  0  0  0  0
    0.7295    0.4322   11.7810 H   0  0  0  0  0  0  0  0  0  0  0  0
   -0.3725    1.7473   11.3609 H   0  0  0  0  0  0  0  0  0  0  0  0
   -0.8530   -0.3812   13.2955 H   0  0  0  0  0  0  0  0  0  0  0  0
   -1.7670    0.0570   12.0196 H   0  0  0  0  0  0  0  0  0  0  0  0
    0.2554    4.5579   13.4209 H   0  0  0  0  0  0  0  0  0  0  0  0
   -1.2160    4.5458   14.4181 H   0  0  0  0  0  0  0  0  0  0  0  0
   -0.9684    3.8124   11.4842 H   0  0  0  0  0  0  0  0  0  0  0  0
   -2.0847    4.9196   12.2944 H   0  0  0  0  0  0  0  0  0  0  0  0
   -2.9788    3.9659   10.1121 H   0  0  0  0  0  0  0  0  0  0  0  0
   -4.0383    4.8544   11.2061 H   0  0  0  0  0  0  0  0  0  0  0  0
   -4.7114    3.6140   10.1531 H   0  0  0  0  0  0  0  0  0  0  0  0
   -5.5183    1.9725   11.4148 H   0  0  0  0  0  0  0  0  0  0  0  0
   -6.2107   -0.2736   12.2200 H   0  0  0  0  0  0  0  0  0  0  0  0
   -5.6034   -0.7982   13.8098 H   0  0  0  0  0  0  0  0  0  0  0  0
   -6.6399    0.6243   13.6747 H   0  0  0  0  0  0  0  0  0  0  0  0
  1  4  1  0  0  0  0
  1  2  1  0  0  0  0
  1  5  1  0  0  0  0
  3  1  1  0  0  0  0
  4 10  1  6  0  0  0
  4  8  1  0  0  0  0
  5 24  1  0  0  0  0
  5  9  1  0  0  0  0
  5 23  1  0  0  0  0
  6 29  1  0  0  0  0
  6  1  1  0  0  0  0
  7 13  1  1  0  0  0
  7  1  1  0  0  0  0
  8 20  1  0  0  0  0
  8 19  1  0  0  0  0
  8  9  1  0  0  0  0
  9 21  1  0  0  0  0
 10 25  1  0  0  0  0
 11  6  1  0  0  0  0
 11 10  1  0  0  0  0
 12  4  1  0  0  0  0
 12 32  1  0  0  0  0
 13 12  1  0  0  0  0
 14 17  1  1  0  0  0
 14 15  1  0  0  0  0
 14  7  1  0  0  0  0
 15 16  2  0  0  0  0
 16 18  1  0  0  0  0
 16  3  1  0  0  0  0
 17 36  1  0  0  0  0
 18 41  1  0  0  0  0
 18 40  1  0  0  0  0
 22  9  1  0  0  0  0
 26 10  1  0  0  0  0
 27 11  1  0  0  0  0
 28 11  1  0  0  0  0
 30  6  1  0  0  0  0
 31 12  1  0  0  0  0
 33 13  1  0  0  0  0
 34 13  1  0  0  0  0
 35 17  1  0  0  0  0
 37 17  1  0  0  0  0
 38 15  1  0  0  0  0
 39 18  1  0  0  0  0
M  END
$$$$
