CSD_code = TIBTUW | q = 0 | S = 0 | Stoichiometry = C12H9BrN3O3Re | MND = 6
 OpenBabel04212202103D

 29 31  0  0  1  0  0  0  0  0999 V2000
    3.8051    5.8952    3.3460 Re  0  0  0  0  0  0  0  0  0  0  0  0
    2.9989    5.5798    0.8848 Br  0  0  0  0  0  0  0  0  0  0  0  0
    2.0379    5.2358    3.8850 C   0  0  0  0  0  2  0  0  0  0  0  0
    1.0043    4.7945    4.0872 O   0  0  0  0  0  1  0  0  0  0  0  0
    3.1474    7.7274    3.3518 C   0  0  0  0  0  2  0  0  0  0  0  0
    2.7535    8.8045    3.2864 O   0  0  0  0  0  1  0  0  0  0  0  0
    4.4950    6.0032    5.1540 C   0  0  0  0  0  2  0  0  0  0  0  0
    4.9152    6.0545    6.2231 O   0  0  0  0  0  1  0  0  0  0  0  0
    6.3743    7.2002    1.8398 N   0  0  0  0  0  0  0  0  0  0  0  0
    5.6664    6.1968    2.3726 C   0  0  2  0  0  3  0  0  0  0  0  0
    6.2845    5.0524    1.9470 N   0  0  0  0  0  0  0  0  0  0  0  0
    7.3658    5.3615    1.1546 C   0  0  0  0  0  0  0  0  0  0  0  0
    7.9979    4.6276    0.7021 H   0  0  0  0  0  0  0  0  0  0  0  0
    7.4134    6.7095    1.0896 C   0  0  0  0  0  0  0  0  0  0  0  0
    8.0966    7.3513    0.5722 H   0  0  0  0  0  0  0  0  0  0  0  0
    6.0673    8.5977    1.9833 C   0  0  0  0  0  0  0  0  0  0  0  0
    5.3379    8.9040    1.2300 H   0  0  0  0  0  0  0  0  0  0  0  0
    6.9754    9.1859    1.8626 H   0  0  0  0  0  0  0  0  0  0  0  0
    5.6419    8.7753    2.9712 H   0  0  0  0  0  0  0  0  0  0  0  0
    4.6550    3.8548    3.0384 N   0  0  0  0  0  0  0  0  0  0  0  0
    5.7633    3.8103    2.2824 C   0  0  1  0  0  3  0  0  0  0  0  0
    6.3318    2.6142    1.8575 C   0  0  0  0  0  0  0  0  0  0  0  0
    7.2174    2.6164    1.2443 H   0  0  0  0  0  0  0  0  0  0  0  0
    5.7288    1.4277    2.2272 C   0  0  0  0  0  0  0  0  0  0  0  0
    6.1416    0.4846    1.9048 H   0  0  0  0  0  0  0  0  0  0  0  0
    4.5857    1.4730    3.0135 C   0  0  0  0  0  0  0  0  0  0  0  0
    4.0840    0.5710    3.3223 H   0  0  0  0  0  0  0  0  0  0  0  0
    4.0885    2.7040    3.3937 C   0  0  0  0  0  0  0  0  0  0  0  0
    3.1985    2.7764    4.0047 H   0  0  0  0  0  0  0  0  0  0  0  0
  1  5  1  0  0  0  0
  1  3  1  0  0  0  0
  1  7  1  0  0  0  0
  2  1  1  0  0  0  0
  3  4  1  0  0  0  0
  6  5  1  0  0  0  0
  7  8  1  0  0  0  0
  9 16  1  0  0  0  0
 10  9  1  6  0  0  0
 10  1  1  0  0  0  0
 11 21  1  0  0  0  0
 11 10  1  0  0  0  0
 12 11  1  0  0  0  0
 13 12  1  0  0  0  0
 14 12  2  0  0  0  0
 14  9  1  0  0  0  0
 15 14  1  0  0  0  0
 16 19  1  0  0  0  0
 17 16  1  0  0  0  0
 18 16  1  0  0  0  0
 20  1  1  0  0  0  0
 20 28  1  0  0  0  0
 21 22  1  6  0  0  0
 21 20  1  0  0  0  0
 22 24  2  0  0  0  0
 23 22  1  0  0  0  0
 24 26  1  0  0  0  0
 25 24  1  0  0  0  0
 26 27  1  0  0  0  0
 26 28  2  0  0  0  0
 28 29  1  0  0  0  0
M  END
$$$$
