CSD_code = TICNUP | q = 0 | S = 0 | Stoichiometry = C20H30ClN2PZn | MND = 4
 OpenBabel04212202103D

 55 58  0  0  1  0  0  0  0  0999 V2000
   19.6342    2.3223    6.4839 Zn  0  0  2  0  0  0  0  0  0  0  0  0
   17.9448    4.2626    7.1938 P   0  0  0  0  0  4  0  0  0  0  0  0
   20.0330    0.2484    5.9489 Cl  0  0  0  0  0  0  0  0  0  0  0  0
   21.1281    2.9244    7.8495 N   0  0  0  0  0  0  0  0  0  0  0  0
   18.0596    2.7981    7.7927 N   0  0  0  0  0  0  0  0  0  0  0  0
   21.8237    2.2230    8.7110 C   0  0  0  0  0  0  0  0  0  0  0  0
   21.5888    1.1693    8.7692 H   0  0  0  0  0  0  0  0  0  0  0  0
   22.8353    2.7797    9.5039 C   0  0  0  0  0  0  0  0  0  0  0  0
   23.3532    2.1642   10.2222 H   0  0  0  0  0  0  0  0  0  0  0  0
   23.1797    4.0894    9.3025 C   0  0  0  0  0  0  0  0  0  0  0  0
   23.9947    4.5457    9.8464 H   0  0  0  0  0  0  0  0  0  0  0  0
   22.4803    4.8557    8.3482 C   0  0  0  0  0  0  0  0  0  0  0  0
   22.8300    6.1798    8.0249 C   0  0  0  0  0  0  0  0  0  0  0  0
   23.6457    6.6520    8.5514 H   0  0  0  0  0  0  0  0  0  0  0  0
   22.1498    6.8353    7.0326 C   0  0  0  0  0  0  0  0  0  0  0  0
   22.4400    7.8354    6.7453 H   0  0  0  0  0  0  0  0  0  0  0  0
   21.0522    6.2411    6.4060 C   0  0  0  0  0  0  0  0  0  0  0  0
   20.5273    6.7958    5.6396 H   0  0  0  0  0  0  0  0  0  0  0  0
   20.5967    4.9807    6.7546 C   0  0  0  0  0  0  0  0  0  0  0  0
   21.3874    4.2360    7.6789 C   0  0  1  0  0  3  0  0  0  0  0  0
   19.4044    4.3831    6.1389 C   0  0  1  0  0  0  0  0  0  0  0  0
   19.1218    4.9662    5.2572 H   0  0  0  0  0  0  0  0  0  0  0  0
   17.8253    5.6644    8.4366 C   0  0  0  0  0  0  0  0  0  0  0  0
   16.8738    5.5085    8.9573 H   0  0  0  0  0  0  0  0  0  0  0  0
   18.9588    5.5440    9.4507 C   0  0  0  0  0  0  0  0  0  0  0  0
   19.8659    6.0098    9.0728 H   0  0  0  0  0  0  0  0  0  0  0  0
   19.1752    4.4956    9.6569 H   0  0  0  0  0  0  0  0  0  0  0  0
   18.6908    6.0348   10.3857 H   0  0  0  0  0  0  0  0  0  0  0  0
   17.8095    7.0409    7.7839 C   0  0  0  0  0  0  0  0  0  0  0  0
   17.7720    7.8085    8.5565 H   0  0  0  0  0  0  0  0  0  0  0  0
   16.9433    7.1693    7.1394 H   0  0  0  0  0  0  0  0  0  0  0  0
   18.7107    7.1958    7.1960 H   0  0  0  0  0  0  0  0  0  0  0  0
   16.5481    4.5938    5.9775 C   0  0  0  0  0  0  0  0  0  0  0  0
   16.7663    5.5463    5.4815 H   0  0  0  0  0  0  0  0  0  0  0  0
   16.5636    3.4758    4.9415 C   0  0  0  0  0  0  0  0  0  0  0  0
   16.4687    2.5082    5.4323 H   0  0  0  0  0  0  0  0  0  0  0  0
   17.4903    3.4760    4.3705 H   0  0  0  0  0  0  0  0  0  0  0  0
   15.7340    3.5927    4.2451 H   0  0  0  0  0  0  0  0  0  0  0  0
   15.1821    4.6841    6.6467 C   0  0  0  0  0  0  0  0  0  0  0  0
   14.4157    4.8877    5.8990 H   0  0  0  0  0  0  0  0  0  0  0  0
   15.1468    5.4787    7.3898 H   0  0  0  0  0  0  0  0  0  0  0  0
   14.9335    3.7416    7.1307 H   0  0  0  0  0  0  0  0  0  0  0  0
   17.3046    2.0221    8.7636 C   0  0  0  0  0  0  0  0  0  0  0  0
   16.4746    2.8638    9.7343 C   0  0  0  0  0  0  0  0  0  0  0  0
   17.1156    3.5118   10.3270 H   0  0  0  0  0  0  0  0  0  0  0  0
   15.9301    2.2085   10.4115 H   0  0  0  0  0  0  0  0  0  0  0  0
   15.7538    3.4731    9.1936 H   0  0  0  0  0  0  0  0  0  0  0  0
   16.3839    1.0462    8.0185 C   0  0  0  0  0  0  0  0  0  0  0  0
   15.6011    1.5849    7.4879 H   0  0  0  0  0  0  0  0  0  0  0  0
   15.9167    0.3555    8.7165 H   0  0  0  0  0  0  0  0  0  0  0  0
   16.9656    0.4755    7.2971 H   0  0  0  0  0  0  0  0  0  0  0  0
   18.3323    1.2073    9.5606 C   0  0  0  0  0  0  0  0  0  0  0  0
   18.9165    0.5933    8.8782 H   0  0  0  0  0  0  0  0  0  0  0  0
   17.8337    0.5602   10.2780 H   0  0  0  0  0  0  0  0  0  0  0  0
   19.0072    1.8723   10.0966 H   0  0  0  0  0  0  0  0  0  0  0  0
  1  3  1  6  0  0  0
  1  5  1  0  0  0  0
  1  4  1  0  0  0  0
  2  5  1  0  0  0  0
  2 23  1  0  0  0  0
  4  6  1  0  0  0  0
  5 43  1  0  0  0  0
  6  7  1  0  0  0  0
  6  8  2  0  0  0  0
  8  9  1  0  0  0  0
 10  8  1  0  0  0  0
 10 11  1  0  0  0  0
 12 10  2  0  0  0  0
 13 12  1  0  0  0  0
 13 14  1  0  0  0  0
 15 13  2  0  0  0  0
 16 15  1  0  0  0  0
 17 19  2  0  0  0  0
 17 15  1  0  0  0  0
 18 17  1  0  0  0  0
 20 19  1  6  0  0  0
 20  4  1  0  0  0  0
 20 12  1  0  0  0  0
 21 22  1  6  0  0  0
 21  1  1  0  0  0  0
 21 19  1  0  0  0  0
 21  2  1  0  0  0  0
 23 24  1  0  0  0  0
 23 25  1  0  0  0  0
 25 27  1  0  0  0  0
 25 28  1  0  0  0  0
 26 25  1  0  0  0  0
 29 23  1  0  0  0  0
 29 30  1  0  0  0  0
 31 29  1  0  0  0  0
 32 29  1  0  0  0  0
 33 39  1  0  0  0  0
 33  2  1  0  0  0  0
 34 33  1  0  0  0  0
 35 36  1  0  0  0  0
 35 33  1  0  0  0  0
 37 35  1  0  0  0  0
 38 35  1  0  0  0  0
 39 42  1  0  0  0  0
 39 41  1  0  0  0  0
 40 39  1  0  0  0  0
 43 52  1  0  0  0  0
 43 44  1  0  0  0  0
 44 45  1  0  0  0  0
 44 46  1  0  0  0  0
 47 44  1  0  0  0  0
 48 50  1  0  0  0  0
 48 43  1  0  0  0  0
 49 48  1  0  0  0  0
 51 48  1  0  0  0  0
 52 55  1  0  0  0  0
 52 54  1  0  0  0  0
 53 52  1  0  0  0  0
M  END
$$$$
