CSD_code = TICQIG | q = 0 | S = 0 | Stoichiometry = C28H30Br2IrN3 | MND = 6
 OpenBabel04212202103D

 64 68  0  0  0  0  0  0  0  0999 V2000
    3.9675    4.8264    4.7716 Ir  0  0  0  0  0  0  0  0  0  0  0  0
    5.6016    6.5571    5.6338 Br  0  0  0  0  0  0  0  0  0  0  0  0
    2.4598    2.9700    3.9232 Br  0  0  0  0  0  0  0  0  0  0  0  0
    5.1705    4.6466    3.0310 N   0  0  0  0  0  0  0  0  0  0  0  0
    2.6739    6.4107    4.4217 N   0  0  0  0  0  2  0  0  0  0  0  0
    6.0072    3.6573    3.1119 C   0  0  0  0  0  3  0  0  0  0  0  0
    6.7057    3.4663    2.3012 H   0  0  0  0  0  0  0  0  0  0  0  0
    3.3411    4.4502    6.7606 N   0  0  0  0  0  0  0  0  0  0  0  0
    2.5562    5.3113    7.5483 C   0  0  0  0  0  0  0  0  0  0  0  0
    5.1086    3.3373    5.2508 C   0  0  0  0  0  0  0  0  0  0  0  0
    5.3240    5.5884    1.9973 C   0  0  0  0  0  0  0  0  0  0  0  0
    3.9743    3.4560    7.3016 C   0  0  0  0  0  3  0  0  0  0  0  0
    3.7833    3.1830    8.3370 H   0  0  0  0  0  0  0  0  0  0  0  0
    4.9399    2.7502    6.5065 C   0  0  0  0  0  0  0  0  0  0  0  0
    6.0065    2.8501    4.2998 C   0  0  0  0  0  0  0  0  0  0  0  0
    6.6458    7.2437    0.8652 C   0  0  0  0  0  0  0  0  0  0  0  0
    7.5800    7.7785    0.7688 H   0  0  0  0  0  0  0  0  0  0  0  0
    2.1465    7.3773    4.7478 C   0  0  0  0  0  2  0  0  0  0  0  0
    5.7157    1.6322    6.8193 C   0  0  0  0  0  0  0  0  0  0  0  0
    5.6157    1.1468    7.7794 H   0  0  0  0  0  0  0  0  0  0  0  0
    6.5401    6.2760    1.8556 C   0  0  0  0  0  0  0  0  0  0  0  0
    3.1601    6.0863    8.5513 C   0  0  0  0  0  0  0  0  0  0  0  0
    6.7717    1.7305    4.6292 C   0  0  0  0  0  0  0  0  0  0  0  0
    7.4761    1.3194    3.9207 H   0  0  0  0  0  0  0  0  0  0  0  0
    5.6024    7.5352    0.0045 C   0  0  0  0  0  0  0  0  0  0  0  0
    0.4530    6.3888    7.9897 C   0  0  0  0  0  0  0  0  0  0  0  0
   -0.6056    6.4812    7.7891 H   0  0  0  0  0  0  0  0  0  0  0  0
    1.0419    7.2089    8.9413 C   0  0  0  0  0  0  0  0  0  0  0  0
    1.1829    5.4407    7.2906 C   0  0  0  0  0  0  0  0  0  0  0  0
    4.2552    5.8646    1.1289 C   0  0  0  0  0  0  0  0  0  0  0  0
    6.6132    1.1447    5.8787 C   0  0  0  0  0  0  0  0  0  0  0  0
    7.2069    0.2770    6.1262 H   0  0  0  0  0  0  0  0  0  0  0  0
    2.3886    7.0303    9.2147 C   0  0  0  0  0  0  0  0  0  0  0  0
    2.8604    7.6386    9.9731 H   0  0  0  0  0  0  0  0  0  0  0  0
    2.9702    5.1076    1.2193 C   0  0  0  0  0  0  0  0  0  0  0  0
    3.1459    4.0338    1.2305 H   0  0  0  0  0  0  0  0  0  0  0  0
    2.3256    5.3465    0.3773 H   0  0  0  0  0  0  0  0  0  0  0  0
    2.4402    5.3620    2.1362 H   0  0  0  0  0  0  0  0  0  0  0  0
    4.5991    5.9545    8.9496 C   0  0  0  0  0  0  0  0  0  0  0  0
    5.1728    5.3368    8.2663 H   0  0  0  0  0  0  0  0  0  0  0  0
    4.6657    5.5183    9.9470 H   0  0  0  0  0  0  0  0  0  0  0  0
    5.0647    6.9374    8.9795 H   0  0  0  0  0  0  0  0  0  0  0  0
    4.4161    6.8282    0.1495 C   0  0  0  0  0  0  0  0  0  0  0  0
    3.5952    7.0306   -0.5239 H   0  0  0  0  0  0  0  0  0  0  0  0
    0.4890    4.5471    6.3133 C   0  0  0  0  0  0  0  0  0  0  0  0
   -0.5888    4.6053    6.4433 H   0  0  0  0  0  0  0  0  0  0  0  0
    0.8004    3.5123    6.4380 H   0  0  0  0  0  0  0  0  0  0  0  0
    0.7217    4.8317    5.2884 H   0  0  0  0  0  0  0  0  0  0  0  0
    5.7402    8.5703   -1.0694 C   0  0  0  0  0  0  0  0  0  0  0  0
    5.6633    8.1055   -2.0521 H   0  0  0  0  0  0  0  0  0  0  0  0
    6.6985    9.0785   -1.0007 H   0  0  0  0  0  0  0  0  0  0  0  0
    4.9449    9.3100   -0.9894 H   0  0  0  0  0  0  0  0  0  0  0  0
    7.7358    6.0352    2.7288 C   0  0  0  0  0  0  0  0  0  0  0  0
    8.4579    5.3989    2.2151 H   0  0  0  0  0  0  0  0  0  0  0  0
    7.4769    5.5664    3.6733 H   0  0  0  0  0  0  0  0  0  0  0  0
    8.2229    6.9826    2.9486 H   0  0  0  0  0  0  0  0  0  0  0  0
    1.4912    8.5718    5.1700 C   0  0  0  0  0  0  0  0  0  0  0  0
    0.6417    8.7840    4.5215 H   0  0  0  0  0  0  0  0  0  0  0  0
    2.1988    9.3998    5.1298 H   0  0  0  0  0  0  0  0  0  0  0  0
    1.1467    8.4397    6.1969 H   0  0  0  0  0  0  0  0  0  0  0  0
    0.2413    8.2339    9.6859 C   0  0  0  0  0  0  0  0  0  0  0  0
    0.0198    7.8748   10.6910 H   0  0  0  0  0  0  0  0  0  0  0  0
   -0.7018    8.4351    9.1830 H   0  0  0  0  0  0  0  0  0  0  0  0
    0.7986    9.1640    9.7816 H   0  0  0  0  0  0  0  0  0  0  0  0
  1 10  1  0  0  0  0
  1  2  1  0  0  0  0
  1  8  1  0  0  0  0
  3  1  1  0  0  0  0
  4  6  1  0  0  0  0
  4  1  1  0  0  0  0
  5 18  1  0  0  0  0
  5  1  1  0  0  0  0
  6 15  1  0  0  0  0
  7  6  1  0  0  0  0
  8 12  1  0  0  0  0
  8  9  1  0  0  0  0
  9 22  1  0  0  0  0
 10 14  1  0  0  0  0
 11  4  1  0  0  0  0
 12 13  1  0  0  0  0
 14 19  2  0  0  0  0
 14 12  1  0  0  0  0
 15 23  1  0  0  0  0
 15 10  2  0  0  0  0
 16 21  2  0  0  0  0
 17 16  1  0  0  0  0
 18 57  1  0  0  0  0
 19 20  1  0  0  0  0
 21 11  1  0  0  0  0
 21 53  1  0  0  0  0
 22 39  1  0  0  0  0
 22 33  2  0  0  0  0
 23 31  2  0  0  0  0
 24 23  1  0  0  0  0
 25 43  2  0  0  0  0
 25 16  1  0  0  0  0
 26 28  2  0  0  0  0
 27 26  1  0  0  0  0
 28 33  1  0  0  0  0
 28 61  1  0  0  0  0
 29  9  2  0  0  0  0
 29 26  1  0  0  0  0
 30 35  1  0  0  0  0
 30 11  2  0  0  0  0
 31 32  1  0  0  0  0
 31 19  1  0  0  0  0
 33 34  1  0  0  0  0
 35 36  1  0  0  0  0
 35 38  1  0  0  0  0
 37 35  1  0  0  0  0
 39 42  1  0  0  0  0
 39 41  1  0  0  0  0
 40 39  1  0  0  0  0
 43 30  1  0  0  0  0
 44 43  1  0  0  0  0
 45 47  1  0  0  0  0
 45 46  1  0  0  0  0
 45 29  1  0  0  0  0
 48 45  1  0  0  0  0
 49 51  1  0  0  0  0
 49 52  1  0  0  0  0
 49 25  1  0  0  0  0
 50 49  1  0  0  0  0
 53 56  1  0  0  0  0
 53 55  1  0  0  0  0
 54 53  1  0  0  0  0
 57 60  1  0  0  0  0
 58 57  1  0  0  0  0
 59 57  1  0  0  0  0
 61 64  1  0  0  0  0
 61 62  1  0  0  0  0
 63 61  1  0  0  0  0
M  END
$$$$
