CSD_code = TICXOV | q = 1 | S = 0 | Stoichiometry = C20H28ClN2Ru(1+) | MND = 9
 OpenBabel04212202103D

 52 53  0  0  1  0  0  0  0  0999 V2000
    7.1886    7.5775    3.9800 Ru  0  0  0  0  0  0  0  0  0  0  0  0
    6.1409    8.0816    5.9966 Cl  0  0  0  0  0 15  0  0  0  0  0  0
    5.3885    6.9129    3.4782 N   0  0  0  0  0  0  0  0  0  0  0  0
    6.3486    9.2233    3.3243 N   0  0  0  0  0  0  0  0  0  0  0  0
    4.9507    5.6689    3.6550 C   0  0  0  0  0  3  0  0  0  0  0  0
    5.6650    4.9461    4.0270 H   0  0  0  0  0  0  0  0  0  0  0  0
    3.6429    5.2980    3.4060 C   0  0  0  0  0  0  0  0  0  0  0  0
    3.3377    4.2765    3.5633 H   0  0  0  0  0  0  0  0  0  0  0  0
    2.7339    6.2569    2.9668 C   0  0  0  0  0  0  0  0  0  0  0  0
    1.7075    5.9909    2.7724 H   0  0  0  0  0  0  0  0  0  0  0  0
    3.1698    7.5559    2.8055 C   0  0  0  0  0  0  0  0  0  0  0  0
    2.5005    8.3412    2.4932 H   0  0  0  0  0  0  0  0  0  0  0  0
    4.5061    7.8608    3.0753 C   0  0  0  0  0  0  0  0  0  0  0  0
    5.0973    9.1643    3.0068 C   0  0  0  0  0  3  0  0  0  0  0  0
    4.5064   10.0291    2.7355 H   0  0  0  0  0  0  0  0  0  0  0  0
    7.0550   10.4753    3.4282 C   0  0  0  0  0  0  0  0  0  0  0  0
    8.0877   10.3005    3.1110 H   0  0  0  0  0  0  0  0  0  0  0  0
    7.0702   10.7234    4.4990 H   0  0  0  0  0  0  0  0  0  0  0  0
    6.4968   11.6611    2.6365 C   0  0  0  0  0  0  0  0  0  0  0  0
    7.1011   12.5322    2.8936 H   0  0  0  0  0  0  0  0  0  0  0  0
    5.4751   11.8838    2.9460 H   0  0  0  0  0  0  0  0  0  0  0  0
    6.5615   11.4431    1.1245 C   0  0  0  0  0  0  0  0  0  0  0  0
    7.6043   11.3171    0.8256 H   0  0  0  0  0  0  0  0  0  0  0  0
    6.0270   10.5298    0.8512 H   0  0  0  0  0  0  0  0  0  0  0  0
    5.9624   12.6246    0.3715 C   0  0  0  0  0  0  0  0  0  0  0  0
    4.9153   12.7574    0.6327 H   0  0  0  0  0  0  0  0  0  0  0  0
    6.0295   12.4654   -0.7010 H   0  0  0  0  0  0  0  0  0  0  0  0
    6.4937   13.5408    0.6154 H   0  0  0  0  0  0  0  0  0  0  0  0
    8.4704    6.2341    2.6316 C   0  0  2  0  0  3  0  0  0  0  0  0
    9.0294    7.5315    2.6441 C   0  0  2  0  0  0  0  0  0  0  0  0
    9.2278    8.0300    1.7001 H   0  0  0  0  0  0  0  0  0  0  0  0
    9.4938    8.1124    3.8505 C   0  0  0  0  0  0  0  0  0  0  0  0
   10.0423    9.0458    3.8121 H   0  0  0  0  0  0  0  0  0  0  0  0
    9.3132    7.4661    5.0788 C   0  0  0  0  0  0  0  0  0  0  0  0
    8.7279    6.1614    5.0669 C   0  0  0  0  0  0  0  0  0  0  0  0
    8.6619    5.6108    5.9997 H   0  0  0  0  0  0  0  0  0  0  0  0
    8.3662    5.5452    3.8717 C   0  0  0  0  0  0  0  0  0  0  0  0
    8.0501    4.5074    3.8730 H   0  0  0  0  0  0  0  0  0  0  0  0
    8.1547    5.5379    1.3431 C   0  0  0  0  0  0  0  0  0  0  0  0
    7.9280    6.2518    0.5543 H   0  0  0  0  0  0  0  0  0  0  0  0
    7.3140    4.8559    1.4544 H   0  0  0  0  0  0  0  0  0  0  0  0
    9.0202    4.9518    1.0297 H   0  0  0  0  0  0  0  0  0  0  0  0
    9.8509    8.0396    6.3659 C   0  0  0  0  0  0  0  0  0  0  0  0
    9.4238    7.4696    7.1973 H   0  0  0  0  0  0  0  0  0  0  0  0
   11.3743    7.8615    6.3844 C   0  0  0  0  0  0  0  0  0  0  0  0
   11.6444    6.8137    6.2734 H   0  0  0  0  0  0  0  0  0  0  0  0
   11.7706    8.2199    7.3300 H   0  0  0  0  0  0  0  0  0  0  0  0
   11.8402    8.4264    5.5802 H   0  0  0  0  0  0  0  0  0  0  0  0
    9.4633    9.5066    6.5551 C   0  0  0  0  0  0  0  0  0  0  0  0
    9.9413   10.1477    5.8184 H   0  0  0  0  0  0  0  0  0  0  0  0
    9.7745    9.8388    7.5412 H   0  0  0  0  0  0  0  0  0  0  0  0
    8.3826    9.6165    6.4838 H   0  0  0  0  0  0  0  0  0  0  0  0
  3  5  1  0  0  0  0
  3  1  1  0  0  0  0
  4 16  1  0  0  0  0
  4  1  1  0  0  0  0
  5  6  1  0  0  0  0
  7  8  1  0  0  0  0
  7  5  1  0  0  0  0
  9  7  2  0  0  0  0
 10  9  1  0  0  0  0
 11  9  1  0  0  0  0
 11 13  2  0  0  0  0
 12 11  1  0  0  0  0
 13  3  1  0  0  0  0
 14 13  1  0  0  0  0
 14  4  1  0  0  0  0
 15 14  1  0  0  0  0
 16 18  1  0  0  0  0
 17 16  1  0  0  0  0
 19 20  1  0  0  0  0
 19 21  1  0  0  0  0
 19 16  1  0  0  0  0
 22 19  1  0  0  0  0
 23 22  1  0  0  0  0
 24 22  1  0  0  0  0
 25 28  1  0  0  0  0
 25 26  1  0  0  0  0
 25 22  1  0  0  0  0
 27 25  1  0  0  0  0
 29 39  1  6  0  0  0
 29 30  1  0  0  0  0
 29 37  1  0  0  0  0
 30 31  1  6  0  0  0
 30 32  1  0  0  0  0
 30  1  1  0  0  0  0
 32 34  2  0  0  0  0
 33 32  1  0  0  0  0
 34 43  1  0  0  0  0
 35 34  1  0  0  0  0
 35 36  1  0  0  0  0
 37 38  1  0  0  0  0
 37 35  2  0  0  0  0
 39 41  1  0  0  0  0
 40 39  1  0  0  0  0
 42 39  1  0  0  0  0
 43 45  1  0  0  0  0
 43 49  1  0  0  0  0
 43 44  1  0  0  0  0
 45 47  1  0  0  0  0
 46 45  1  0  0  0  0
 48 45  1  0  0  0  0
 49 51  1  0  0  0  0
 50 49  1  0  0  0  0
 52 49  1  0  0  0  0
M  END
$$$$
