CSD_code = TICZOX | q = 0 | S = 0 | Stoichiometry = C29H23ClNO2PPt | MND = 4
 OpenBabel04212202103D

 58 63  0  0  0  0  0  0  0  0999 V2000
    4.3938    2.4598   25.2060 Pt  0  0  2  0  0  0  0  0  0  0  0  0
    4.1934    0.1896   25.5957 Cl  0  0  0  0  0  0  0  0  0  0  0  0
    5.4359    2.1332   23.5557 N   0  0  0  0  0  0  0  0  0  0  0  0
    5.6560    0.8322   23.1126 O   0  0  0  0  0  0  0  0  0  0  0  0
    5.2403    0.2497   23.7937 H   0  0  0  0  0  0  0  0  0  0  0  0
    5.9426    3.0345   22.7801 C   0  0  0  0  0  0  0  0  0  0  0  0
    6.4562    2.6319   21.9133 H   0  0  0  0  0  0  0  0  0  0  0  0
    5.9019    4.4480   22.9301 C   0  0  0  0  0  0  0  0  0  0  0  0
    6.5730    5.2774   21.9584 C   0  0  0  0  0  0  0  0  0  0  0  0
    7.2989    4.7704   20.8631 C   0  0  0  0  0  0  0  0  0  0  0  0
    7.3893    3.7077   20.7049 H   0  0  0  0  0  0  0  0  0  0  0  0
    7.9200    5.5969   19.9611 C   0  0  0  0  0  0  0  0  0  0  0  0
    8.4669    5.1676   19.1342 H   0  0  0  0  0  0  0  0  0  0  0  0
    7.8561    6.9845   20.0984 C   0  0  0  0  0  0  0  0  0  0  0  0
    8.3487    7.6235   19.3810 H   0  0  0  0  0  0  0  0  0  0  0  0
    7.1649    7.5158   21.1537 C   0  0  0  0  0  3  0  0  0  0  0  0
    7.1026    8.5867   21.2868 H   0  0  0  0  0  0  0  0  0  0  0  0
    6.5220    6.6889   22.0900 C   0  0  0  0  0  0  0  0  0  0  0  0
    5.8198    7.2628   23.1797 C   0  0  0  0  0  0  0  0  0  0  0  0
    5.7930    8.3400   23.2654 H   0  0  0  0  0  0  0  0  0  0  0  0
    5.1993    6.4868   24.0962 C   0  0  0  0  0  0  0  0  0  0  0  0
    4.6648    6.9060   24.9360 H   0  0  0  0  0  0  0  0  0  0  0  0
    5.2145    5.0593   24.0072 C   0  0  0  0  0  0  0  0  0  0  0  0
    4.5730    4.4557   24.9493 O   0  0  0  0  0  0  0  0  0  0  0  0
    3.2177    2.9034   27.0972 P   0  0  0  0  0  4  0  0  0  0  0  0
    3.2716    4.6310   27.6544 C   0  0  0  0  0  0  0  0  0  0  0  0
    2.5690    5.5636   26.8956 C   0  0  0  0  0  0  0  0  0  0  0  0
    1.9897    5.2248   26.0473 H   0  0  0  0  0  0  0  0  0  0  0  0
    2.6253    6.9049   27.2200 C   0  0  0  0  0  0  0  0  0  0  0  0
    2.0822    7.6271   26.6278 H   0  0  0  0  0  0  0  0  0  0  0  0
    3.3861    7.3249   28.3008 C   0  0  0  0  0  0  0  0  0  0  0  0
    3.4344    8.3743   28.5517 H   0  0  0  0  0  0  0  0  0  0  0  0
    4.0885    6.4003   29.0547 C   0  0  0  0  0  0  0  0  0  0  0  0
    4.6833    6.7280   29.8948 H   0  0  0  0  0  0  0  0  0  0  0  0
    4.0376    5.0547   28.7324 C   0  0  0  0  0  0  0  0  0  0  0  0
    4.5920    4.3349   29.3184 H   0  0  0  0  0  0  0  0  0  0  0  0
    1.4360    2.5593   27.0555 C   0  0  0  0  0  0  0  0  0  0  0  0
    0.5708    3.0823   28.0132 C   0  0  0  0  0  0  0  0  0  0  0  0
    0.9569    3.7276   28.7911 H   0  0  0  0  0  0  0  0  0  0  0  0
   -0.7781    2.7840   27.9563 C   0  0  0  0  0  0  0  0  0  0  0  0
   -1.4496    3.1871   28.7004 H   0  0  0  0  0  0  0  0  0  0  0  0
   -1.2696    1.9712   26.9462 C   0  0  0  0  0  0  0  0  0  0  0  0
   -2.3240    1.7410   26.9072 H   0  0  0  0  0  0  0  0  0  0  0  0
   -0.4133    1.4610   25.9842 C   0  0  0  0  0  0  0  0  0  0  0  0
   -0.7988    0.8352   25.1933 H   0  0  0  0  0  0  0  0  0  0  0  0
    0.9375    1.7557   26.0362 C   0  0  0  0  0  0  0  0  0  0  0  0
    1.6190    1.3679   25.2877 H   0  0  0  0  0  0  0  0  0  0  0  0
    3.8763    1.9582   28.5012 C   0  0  0  0  0  0  0  0  0  0  0  0
    3.1031    1.3928   29.5056 C   0  0  0  0  0  0  0  0  0  0  0  0
    2.0279    1.4983   29.4877 H   0  0  0  0  0  0  0  0  0  0  0  0
    3.7160    0.6770   30.5204 C   0  0  0  0  0  0  0  0  0  0  0  0
    3.1146    0.2321   31.2995 H   0  0  0  0  0  0  0  0  0  0  0  0
    5.0921    0.5227   30.5352 C   0  0  0  0  0  0  0  0  0  0  0  0
    5.5623   -0.0411   31.3272 H   0  0  0  0  0  0  0  0  0  0  0  0
    5.8664    1.0779   29.5277 C   0  0  0  0  0  0  0  0  0  0  0  0
    6.9381    0.9452   29.5319 H   0  0  0  0  0  0  0  0  0  0  0  0
    5.2598    1.7899   28.5115 C   0  0  0  0  0  0  0  0  0  0  0  0
    5.8452    2.2154   27.6996 H   0  0  0  0  0  0  0  0  0  0  0  0
  1  2  1  1  0  0  0
  1 25  1  0  0  0  0
  3  1  1  0  0  0  0
  4  3  1  0  0  0  0
  4  5  1  0  0  0  0
  6  8  2  0  0  0  0
  6  3  1  0  0  0  0
  7  6  1  0  0  0  0
  8 23  1  0  0  0  0
  9 18  1  0  0  0  0
  9  8  1  0  0  0  0
 10  9  2  0  0  0  0
 11 10  1  0  0  0  0
 12 14  2  0  0  0  0
 12 10  1  0  0  0  0
 13 12  1  0  0  0  0
 14 16  1  0  0  0  0
 15 14  1  0  0  0  0
 16 17  1  0  0  0  0
 16 18  1  0  0  0  0
 18 19  2  0  0  0  0
 19 20  1  0  0  0  0
 19 21  1  0  0  0  0
 21 22  1  0  0  0  0
 23 21  2  0  0  0  0
 23 24  1  0  0  0  0
 24  1  1  0  0  0  0
 25 26  1  0  0  0  0
 25 48  1  0  0  0  0
 26 35  1  0  0  0  0
 27 29  1  0  0  0  0
 27 26  2  0  0  0  0
 28 27  1  0  0  0  0
 29 31  2  0  0  0  0
 30 29  1  0  0  0  0
 31 32  1  0  0  0  0
 31 33  1  0  0  0  0
 33 34  1  0  0  0  0
 35 33  2  0  0  0  0
 35 36  1  0  0  0  0
 37 25  1  0  0  0  0
 37 38  1  0  0  0  0
 38 39  1  0  0  0  0
 40 38  2  0  0  0  0
 40 41  1  0  0  0  0
 42 40  1  0  0  0  0
 43 42  1  0  0  0  0
 44 46  1  0  0  0  0
 44 42  2  0  0  0  0
 45 44  1  0  0  0  0
 46 37  2  0  0  0  0
 47 46  1  0  0  0  0
 48 57  2  0  0  0  0
 48 49  1  0  0  0  0
 49 51  2  0  0  0  0
 50 49  1  0  0  0  0
 51 53  1  0  0  0  0
 51 52  1  0  0  0  0
 53 54  1  0  0  0  0
 55 56  1  0  0  0  0
 55 53  2  0  0  0  0
 57 55  1  0  0  0  0
 58 57  1  0  0  0  0
M  END
$$$$
