CSD_code = TIDCAL | q = 0 | S = 0 | Stoichiometry = C14H22ClFeN5O3 | MND = 6
 OpenBabel04212202103D

 46 48  0  0  1  0  0  0  0  0999 V2000
    6.5165    2.4018    2.2505 Fe  0  0  1  0  0  0  0  0  0  0  0  0
    7.3967    2.1400    0.2938 Cl  0  0  0  0  0  0  0  0  0  0  0  0
    4.8140    1.9763    1.5745 N   0  0  0  0  0  0  0  0  0  0  0  0
    5.3348   -1.4222    2.4033 O   0  0  0  0  0  0  0  0  0  0  0  0
    5.5789    3.0759    4.1274 O   0  0  0  0  0  0  0  0  0  0  0  0
    5.0270    3.7949    3.7666 H   0  0  0  0  0  0  0  0  0  0  0  0
    4.7245    2.1981    4.8392 C   0  0  0  0  0  0  0  0  0  0  0  0
    3.8671    1.8950    4.2362 H   0  0  0  0  0  0  0  0  0  0  0  0
    5.3013    1.3101    5.0855 H   0  0  0  0  0  0  0  0  0  0  0  0
    4.3732    2.6765    5.7582 H   0  0  0  0  0  0  0  0  0  0  0  0
    3.9312    2.8618    1.1022 C   0  0  1  0  0  3  0  0  0  0  0  0
    6.4889    0.5545    2.6471 N   0  0  0  0  0  0  0  0  0  0  0  0
    4.3414    4.8443    2.3546 O   0  0  0  0  0  0  0  0  0  0  0  0
    2.7000    2.5076    0.5885 C   0  0  0  0  0  0  0  0  0  0  0  0
    2.0259    3.2654    0.2213 H   0  0  0  0  0  0  0  0  0  0  0  0
    8.3814    2.2984    3.0906 N   0  0  2  0  0  4  0  0  0  0  0  0
    8.9857    2.0669    2.2994 H   0  0  0  0  0  0  0  0  0  0  0  0
    2.3641    1.1559    0.5600 C   0  0  0  0  0  0  0  0  0  0  0  0
    1.4180    0.8385    0.1499 H   0  0  0  0  0  0  0  0  0  0  0  0
    7.3988    4.7481    2.0752 N   0  0  0  0  0  0  0  0  0  0  0  0
    6.8147    5.2451    2.7455 H   0  0  0  0  0  0  0  0  0  0  0  0
    3.2582    0.2348    1.0818 C   0  0  0  0  0  0  0  0  0  0  0  0
    3.0462   -0.8221    1.1136 H   0  0  0  0  0  0  0  0  0  0  0  0
    4.4718    0.6726    1.5879 C   0  0  0  0  0  0  0  0  0  0  0  0
    5.1543    4.7185    0.2357 N   0  0  0  0  0  0  0  0  0  0  0  0
    5.4306    4.0480   -0.4700 H   0  0  0  0  0  0  0  0  0  0  0  0
    5.4869   -0.2117    2.2415 C   0  0  0  0  0  0  0  0  0  0  0  0
    7.6687    0.0012    3.2611 C   0  0  0  0  0  0  0  0  0  0  0  0
    8.3401   -0.3943    2.4867 H   0  0  0  0  0  0  0  0  0  0  0  0
    7.4047   -0.8221    3.9340 H   0  0  0  0  0  0  0  0  0  0  0  0
    8.3492    1.1528    4.0023 C   0  0  0  0  0  0  0  0  0  0  0  0
    7.7479    1.4376    4.8684 H   0  0  0  0  0  0  0  0  0  0  0  0
    9.3557    0.8741    4.3426 H   0  0  0  0  0  0  0  0  0  0  0  0
    8.8176    3.5483    3.6847 C   0  0  0  0  0  0  0  0  0  0  0  0
    8.1292    3.7918    4.4989 H   0  0  0  0  0  0  0  0  0  0  0  0
    9.8382    3.4864    4.0902 H   0  0  0  0  0  0  0  0  0  0  0  0
    8.7546    4.6242    2.6060 C   0  0  0  0  0  0  0  0  0  0  0  0
    9.3966    4.3206    1.7743 H   0  0  0  0  0  0  0  0  0  0  0  0
    9.1291    5.5815    2.9998 H   0  0  0  0  0  0  0  0  0  0  0  0
    7.4103    5.4756    0.8080 C   0  0  0  0  0  0  0  0  0  0  0  0
    7.8387    4.7994    0.0617 H   0  0  0  0  0  0  0  0  0  0  0  0
    8.0285    6.3845    0.8724 H   0  0  0  0  0  0  0  0  0  0  0  0
    6.0021    5.8787    0.3780 C   0  0  0  0  0  0  0  0  0  0  0  0
    6.0442    6.4101   -0.5748 H   0  0  0  0  0  0  0  0  0  0  0  0
    5.5396    6.5219    1.1319 H   0  0  0  0  0  0  0  0  0  0  0  0
    4.4742    4.2456    1.2899 C   0  0  0  0  0  0  0  0  0  0  0  0
  1  2  1  6  0  0  0
  1 12  1  0  0  0  0
  1 16  1  0  0  0  0
  3 24  1  0  0  0  0
  3  1  1  0  0  0  0
  5  7  1  0  0  0  0
  6  5  1  0  0  0  0
  7  9  1  0  0  0  0
  7 10  1  0  0  0  0
  8  7  1  0  0  0  0
 11 14  1  1  0  0  0
 11 46  1  0  0  0  0
 11  3  1  0  0  0  0
 12 28  1  0  0  0  0
 15 14  1  0  0  0  0
 16 17  1  6  0  0  0
 16 34  1  0  0  0  0
 16 31  1  0  0  0  0
 18 14  2  0  0  0  0
 18 22  1  0  0  0  0
 19 18  1  0  0  0  0
 20 37  1  0  0  0  0
 20 21  1  0  0  0  0
 22 23  1  0  0  0  0
 22 24  2  0  0  0  0
 24 27  1  0  0  0  0
 25 43  1  0  0  0  0
 25 46  1  0  0  0  0
 26 25  1  0  0  0  0
 27  4  2  0  0  0  0
 27 12  1  0  0  0  0
 28 30  1  0  0  0  0
 28 31  1  0  0  0  0
 29 28  1  0  0  0  0
 31 33  1  0  0  0  0
 31 32  1  0  0  0  0
 34 36  1  0  0  0  0
 34 35  1  0  0  0  0
 37 39  1  0  0  0  0
 37 34  1  0  0  0  0
 38 37  1  0  0  0  0
 40 42  1  0  0  0  0
 40 20  1  0  0  0  0
 41 40  1  0  0  0  0
 43 40  1  0  0  0  0
 43 45  1  0  0  0  0
 44 43  1  0  0  0  0
 46 13  2  0  0  0  0
M  END
$$$$
