CSD_code = TIFCOB | q = 0 | S = 0 | Stoichiometry = C15H21ClN2O4RuS2 | MND = 6
 OpenBabel04212202103D

 46 49  0  0  1  0  0  0  0  0999 V2000
    2.7356    6.2024    3.4990 Ru  0  0  0  0  0  0  0  0  0  0  0  0
    4.4538    5.0277    2.4212 Cl  0  0  0  0  0  0  0  0  0  0  0  0
    3.5043    8.1568    2.6535 S   0  0  0  0  0  0  0  0  0  0  0  0
    4.0345    6.3959    5.3168 S   0  0  0  0  0  0  0  0  0  0  0  0
    1.1074    7.1319    4.4480 O   0  0  0  0  0  0  0  0  0  0  0  0
   -1.1201    6.6305    4.5170 O   0  0  0  0  0  0  0  0  0  0  0  0
    2.9012    8.4722    1.3628 O   0  0  0  0  0  1  0  0  0  0  0  0
    4.7856    7.6434    5.4112 O   0  0  0  0  0  1  0  0  0  0  0  0
    1.8065    4.5781    4.2050 N   0  0  0  0  0  0  0  0  0  0  0  0
    1.4108    6.1029    2.0093 N   0  0  0  0  0  0  0  0  0  0  0  0
    0.5096    4.8422    4.4116 C   0  0  2  0  0  3  0  0  0  0  0  0
   -0.3721    3.8986    4.9061 C   0  0  0  0  0  0  0  0  0  0  0  0
    0.1072    2.6284    5.1843 C   0  0  0  0  0  0  0  0  0  0  0  0
    1.4462    2.3498    4.9391 C   0  0  0  0  0  0  0  0  0  0  0  0
    2.2647    3.3501    4.4491 C   0  0  0  0  0  0  0  0  0  0  0  0
    0.1508    6.2825    4.0233 C   0  0  2  0  0  0  0  0  0  0  0  0
    0.1683    6.2208    2.4836 C   0  0  1  0  0  3  0  0  0  0  0  0
   -0.9365    6.3050    1.6573 C   0  0  0  0  0  0  0  0  0  0  0  0
   -0.7327    6.2693    0.2867 C   0  0  0  0  0  0  0  0  0  0  0  0
    0.5609    6.1389   -0.1978 C   0  0  0  0  0  0  0  0  0  0  0  0
    1.6126    6.0609    0.6977 C   0  0  0  0  0  0  0  0  0  0  0  0
    3.1454    9.5738    3.7263 C   0  0  0  0  0  0  0  0  0  0  0  0
    5.2940    8.3954    2.4518 C   0  0  0  0  0  0  0  0  0  0  0  0
    5.2399    5.0820    5.7019 C   0  0  0  0  0  0  0  0  0  0  0  0
    3.0506    6.2929    6.8468 C   0  0  0  0  0  0  0  0  0  0  0  0
   -1.4009    4.1779    5.0643 H   0  0  0  0  0  0  0  0  0  0  0  0
   -0.5508    1.8676    5.5749 H   0  0  0  0  0  0  0  0  0  0  0  0
    1.8511    1.3672    5.1221 H   0  0  0  0  0  0  0  0  0  0  0  0
    3.3077    3.1787    4.2099 H   0  0  0  0  0  0  0  0  0  0  0  0
   -1.9164    6.4090    2.0954 H   0  0  0  0  0  0  0  0  0  0  0  0
   -1.5698    6.3438   -0.3909 H   0  0  0  0  0  0  0  0  0  0  0  0
    0.7563    6.1048   -1.2574 H   0  0  0  0  0  0  0  0  0  0  0  0
    2.6399    5.9555    0.3732 H   0  0  0  0  0  0  0  0  0  0  0  0
   -1.0218    7.5162    4.8881 H   0  0  0  0  0  0  0  0  0  0  0  0
    3.3089   10.4835    3.1609 H   0  0  0  0  0  0  0  0  0  0  0  0
    3.7874    9.5070    4.5956 H   0  0  0  0  0  0  0  0  0  0  0  0
    2.1034    9.4762    4.0137 H   0  0  0  0  0  0  0  0  0  0  0  0
    5.4617    9.3477    1.9633 H   0  0  0  0  0  0  0  0  0  0  0  0
    5.7400    8.3548    3.4383 H   0  0  0  0  0  0  0  0  0  0  0  0
    5.6564    7.5778    1.8361 H   0  0  0  0  0  0  0  0  0  0  0  0
    5.7785    4.8744    4.7815 H   0  0  0  0  0  0  0  0  0  0  0  0
    5.9110    5.4595    6.4641 H   0  0  0  0  0  0  0  0  0  0  0  0
    4.7120    4.1974    6.0363 H   0  0  0  0  0  0  0  0  0  0  0  0
    3.6691    6.5833    7.6879 H   0  0  0  0  0  0  0  0  0  0  0  0
    2.2250    6.9859    6.7142 H   0  0  0  0  0  0  0  0  0  0  0  0
    2.6747    5.2814    6.9547 H   0  0  0  0  0  0  0  0  0  0  0  0
  1  9  1  0  0  0  0
  1  5  1  0  0  0  0
  1  4  1  0  0  0  0
  2  1  1  0  0  0  0
  3  1  1  0  0  0  0
  3 22  1  0  0  0  0
  4  8  1  0  0  0  0
  4 24  1  0  0  0  0
  4 25  1  0  0  0  0
  6 34  1  0  0  0  0
  7  3  1  0  0  0  0
  9 11  1  0  0  0  0
  9 15  1  0  0  0  0
 10 17  1  0  0  0  0
 10  1  1  0  0  0  0
 11 12  1  6  0  0  0
 12 26  1  0  0  0  0
 12 13  2  0  0  0  0
 13 27  1  0  0  0  0
 14 28  1  0  0  0  0
 14 13  1  0  0  0  0
 15 14  2  0  0  0  0
 16 11  1  0  0  0  0
 16  5  1  0  0  0  0
 16  6  1  1  0  0  0
 17 18  1  6  0  0  0
 17 16  1  0  0  0  0
 18 30  1  0  0  0  0
 19 18  2  0  0  0  0
 20 19  1  0  0  0  0
 20 21  2  0  0  0  0
 21 10  1  0  0  0  0
 22 37  1  0  0  0  0
 22 36  1  0  0  0  0
 23  3  1  0  0  0  0
 23 39  1  0  0  0  0
 24 43  1  0  0  0  0
 24 42  1  0  0  0  0
 25 46  1  0  0  0  0
 25 44  1  0  0  0  0
 29 15  1  0  0  0  0
 31 19  1  0  0  0  0
 32 20  1  0  0  0  0
 33 21  1  0  0  0  0
 35 22  1  0  0  0  0
 38 23  1  0  0  0  0
 40 23  1  0  0  0  0
 41 24  1  0  0  0  0
 45 25  1  0  0  0  0
M  END
$$$$
