CSD_code = TIFCAN | q = 0 | S = 0 | Stoichiometry = C15H20Cl2N2O3RuS2 | MND = 6
 OpenBabel04212202103D

 45 47  0  0  0  0  0  0  0  0999 V2000
    4.9049    2.0443   10.2855 Ru  0  0  0  0  0  0  0  0  0  0  0  0
    6.4539    3.7662   10.5346 Cl  0  0  0  0  0  0  0  0  0  0  0  0
    3.2013    0.4750   10.0305 Cl  0  0  0  0  0  0  0  0  0  0  0  0
    4.9454    1.6636   12.5242 S   0  0  0  0  0  0  0  0  0  0  0  0
    3.2356    3.6458   10.5887 S   0  0  0  0  0  0  0  0  0  0  0  0
    6.3207    0.6888   10.0694 O   0  0  0  0  0  0  0  0  0  0  0  0
    4.0612    2.4118   13.4118 O   0  0  0  0  0  1  0  0  0  0  0  0
    2.7565    4.2982    9.3762 O   0  0  0  0  0  1  0  0  0  0  0  0
    5.1502    2.1078    8.2919 N   0  0  0  0  0  0  0  0  0  0  0  0
    8.3075   -0.6959    7.4831 N   0  0  0  0  0  0  0  0  0  0  0  0
    6.1081    1.2623    7.8339 C   0  0  0  0  0  0  0  0  0  0  0  0
    6.4096    1.1810    6.4729 C   0  0  0  0  0  0  0  0  0  0  0  0
    5.7182    1.9756    5.5801 C   0  0  0  0  0  0  0  0  0  0  0  0
    4.7405    2.8330    6.0667 C   0  0  0  0  0  0  0  0  0  0  0  0
    4.4906    2.8666    7.4286 C   0  0  0  0  0  0  0  0  0  0  0  0
    6.7352    0.4880    8.8967 C   0  0  0  0  0  0  0  0  0  0  0  0
    7.8010   -0.5024    8.7018 C   0  0  0  0  0  0  0  0  0  0  0  0
    8.2649   -1.2194    9.8136 C   0  0  0  0  0  0  0  0  0  0  0  0
    9.2735   -2.1463    9.6409 C   0  0  0  0  0  0  0  0  0  0  0  0
    9.7960   -2.3371    8.3696 C   0  0  0  0  0  0  0  0  0  0  0  0
    9.2699   -1.5822    7.3302 C   0  0  0  0  0  0  0  0  0  0  0  0
    6.6237    1.8351   13.1910 C   0  0  0  0  0  0  0  0  0  0  0  0
    4.7008   -0.0933   12.9040 C   0  0  0  0  0  0  0  0  0  0  0  0
    1.7538    3.0435   11.4427 C   0  0  0  0  0  0  0  0  0  0  0  0
    3.6686    4.9851   11.7316 C   0  0  0  0  0  0  0  0  0  0  0  0
    7.1805    0.4960    6.1614 H   0  0  0  0  0  0  0  0  0  0  0  0
    5.9360    1.9281    4.5242 H   0  0  0  0  0  0  0  0  0  0  0  0
    4.1745    3.4711    5.4077 H   0  0  0  0  0  0  0  0  0  0  0  0
    3.7364    3.5255    7.8450 H   0  0  0  0  0  0  0  0  0  0  0  0
    7.8265   -1.0381   10.7822 H   0  0  0  0  0  0  0  0  0  0  0  0
    9.6481   -2.7121   10.4815 H   0  0  0  0  0  0  0  0  0  0  0  0
   10.5857   -3.0489    8.1895 H   0  0  0  0  0  0  0  0  0  0  0  0
    9.6389   -1.6915    6.3186 H   0  0  0  0  0  0  0  0  0  0  0  0
    6.9033    2.8790   13.0876 H   0  0  0  0  0  0  0  0  0  0  0  0
    6.6285    1.5342   14.2322 H   0  0  0  0  0  0  0  0  0  0  0  0
    7.2794    1.2200   12.5846 H   0  0  0  0  0  0  0  0  0  0  0  0
    5.4318   -0.6555   12.3339 H   0  0  0  0  0  0  0  0  0  0  0  0
    4.8094   -0.2463   13.9714 H   0  0  0  0  0  0  0  0  0  0  0  0
    3.7000   -0.3553   12.5742 H   0  0  0  0  0  0  0  0  0  0  0  0
    1.3671    2.2029   10.8752 H   0  0  0  0  0  0  0  0  0  0  0  0
    2.0503    2.7313   12.4375 H   0  0  0  0  0  0  0  0  0  0  0  0
    1.0343    3.8535   11.4674 H   0  0  0  0  0  0  0  0  0  0  0  0
    3.8353    4.5446   12.7079 H   0  0  0  0  0  0  0  0  0  0  0  0
    2.8473    5.6922   11.7383 H   0  0  0  0  0  0  0  0  0  0  0  0
    4.5754    5.4526   11.3610 H   0  0  0  0  0  0  0  0  0  0  0  0
  1  2  1  0  0  0  0
  1  5  1  0  0  0  0
  1  4  1  0  0  0  0
  3  1  1  0  0  0  0
  4 23  1  0  0  0  0
  4 22  1  0  0  0  0
  4  7  1  0  0  0  0
  5 24  1  0  0  0  0
  5 25  1  0  0  0  0
  6  1  1  0  0  0  0
  8  5  1  0  0  0  0
  9  1  1  0  0  0  0
 10 17  1  0  0  0  0
 11  9  1  0  0  0  0
 11 16  2  0  0  0  0
 12 11  1  0  0  0  0
 13 14  1  0  0  0  0
 13 12  2  0  0  0  0
 14 15  2  0  0  0  0
 15 29  1  0  0  0  0
 15  9  1  0  0  0  0
 16  6  1  0  0  0  0
 17 16  1  0  0  0  0
 17 18  2  0  0  0  0
 18 30  1  0  0  0  0
 19 18  1  0  0  0  0
 19 31  1  0  0  0  0
 20 19  2  0  0  0  0
 21 10  2  0  0  0  0
 21 20  1  0  0  0  0
 22 35  1  0  0  0  0
 23 38  1  0  0  0  0
 24 42  1  0  0  0  0
 24 41  1  0  0  0  0
 25 44  1  0  0  0  0
 25 43  1  0  0  0  0
 26 12  1  0  0  0  0
 27 13  1  0  0  0  0
 28 14  1  0  0  0  0
 32 20  1  0  0  0  0
 33 21  1  0  0  0  0
 34 22  1  0  0  0  0
 36 22  1  0  0  0  0
 37 23  1  0  0  0  0
 39 23  1  0  0  0  0
 40 24  1  0  0  0  0
 45 25  1  0  0  0  0
M  END
$$$$
