CSD_code = TIFQIJ | q = 0 | S = 0 | Stoichiometry = C18H12ClN2O3ReS3 | MND = 6
 OpenBabel04212202103D

 40 43  0  0  0  0  0  0  0  0999 V2000
    1.9949    2.5602    4.0263 C   0  0  0  0  0  2  0  0  0  0  0  0
    1.1136    1.8529    4.2076 O   0  0  0  0  0  1  0  0  0  0  0  0
    4.5069    2.7338    5.0265 C   0  0  0  0  0  2  0  0  0  0  0  0
    5.1001    2.1314    5.7978 O   0  0  0  0  0  1  0  0  0  0  0  0
    4.1290    3.2596    2.2098 C   0  0  0  0  0  2  0  0  0  0  0  0
    4.5549    2.9241    1.1979 O   0  0  0  0  0  1  0  0  0  0  0  0
    2.5469    4.8282    5.9278 Cl  0  0  0  0  0  0  0  0  0  0  0  0
    4.4976    5.7413    3.9307 N   0  0  0  0  0  0  0  0  0  0  0  0
    5.5499    6.2941    4.4025 C   0  0  0  0  0  3  0  0  0  0  0  0
    5.5534    7.3719    4.5949 H   0  0  0  0  0  0  0  0  0  0  0  0
    6.7737    5.6297    4.6992 C   0  0  0  0  0  0  0  0  0  0  0  0
    7.8040    6.1476    5.4557 C   0  0  0  0  0  0  0  0  0  0  0  0
    7.7557    7.1125    5.9286 H   0  0  0  0  0  0  0  0  0  0  0  0
    8.8953    5.2766    5.5618 C   0  0  0  0  0  0  0  0  0  0  0  0
    9.7867    5.4966    6.1207 H   0  0  0  0  0  0  0  0  0  0  0  0
    8.7016    4.1167    4.8695 C   0  0  0  0  0  0  0  0  0  0  0  0
    9.3762    3.2892    4.7712 H   0  0  0  0  0  0  0  0  0  0  0  0
    7.1818    4.0544    4.0867 S   0  0  0  0  0  0  0  0  0  0  0  0
    2.3958    5.6006    3.0994 N   0  0  0  0  0  0  0  0  0  0  0  0
    1.2489    6.0066    2.7054 C   0  0  0  0  0  3  0  0  0  0  0  0
    0.9909    7.0668    2.7973 H   0  0  0  0  0  0  0  0  0  0  0  0
    0.2374    5.1942    2.1191 C   0  0  0  0  0  0  0  0  0  0  0  0
   -1.0821    5.5567    1.9474 C   0  0  0  0  0  0  0  0  0  0  0  0
   -1.4791    6.4987    2.2821 H   0  0  0  0  0  0  0  0  0  0  0  0
   -1.8448    4.5631    1.3214 C   0  0  0  0  0  0  0  0  0  0  0  0
   -2.8953    4.6547    1.1130 H   0  0  0  0  0  0  0  0  0  0  0  0
   -1.1011    3.4649    0.9997 C   0  0  0  0  0  0  0  0  0  0  0  0
   -1.4281    2.5711    0.5061 H   0  0  0  0  0  0  0  0  0  0  0  0
    3.3643    6.5759    3.5700 C   0  0  0  0  0  0  0  0  0  0  0  0
    2.9774    7.1066    4.4588 H   0  0  0  0  0  0  0  0  0  0  0  0
    0.5385    3.6116    1.4648 S   0  0  0  0  0  0  0  0  0  0  0  0
    3.7125    7.5846    2.5193 C   0  0  0  0  0  0  0  0  0  0  0  0
    3.6016    8.9397    2.5917 C   0  0  0  0  0  0  0  0  0  0  0  0
    3.2310    9.4609    3.4573 H   0  0  0  0  0  0  0  0  0  0  0  0
    4.0254    9.5838    1.4083 C   0  0  0  0  0  0  0  0  0  0  0  0
    4.0128   10.6501    1.2743 H   0  0  0  0  0  0  0  0  0  0  0  0
    4.4486    8.7074    0.4633 C   0  0  0  0  0  0  0  0  0  0  0  0
    4.8204    8.9169   -0.5197 H   0  0  0  0  0  0  0  0  0  0  0  0
    4.3437    7.0745    0.9861 S   0  0  0  0  0  0  0  0  0  0  0  0
    3.4137    3.8886    3.9022 Re  0  0  0  0  0  0  0  0  0  0  0  0
  1  2  1  0  0  0  0
  3  4  1  0  0  0  0
  5 40  1  0  0  0  0
  6  5  1  0  0  0  0
  8  9  1  0  0  0  0
  9 10  1  0  0  0  0
  9 11  1  0  0  0  0
 11 12  2  0  0  0  0
 12 14  1  0  0  0  0
 12 13  1  0  0  0  0
 14 15  1  0  0  0  0
 16 14  2  0  0  0  0
 17 16  1  0  0  0  0
 18 11  1  0  0  0  0
 18 16  1  0  0  0  0
 19 29  1  0  0  0  0
 19 40  1  0  0  0  0
 20 21  1  0  0  0  0
 20 19  1  0  0  0  0
 22 20  1  0  0  0  0
 23 22  2  0  0  0  0
 23 24  1  0  0  0  0
 25 23  1  0  0  0  0
 26 25  1  0  0  0  0
 27 25  2  0  0  0  0
 27 31  1  0  0  0  0
 28 27  1  0  0  0  0
 29  8  1  0  0  0  0
 29 30  1  0  0  0  0
 31 22  1  0  0  0  0
 32 33  2  0  0  0  0
 32 29  1  0  0  0  0
 33 34  1  0  0  0  0
 35 33  1  0  0  0  0
 36 35  1  0  0  0  0
 37 39  1  0  0  0  0
 37 35  2  0  0  0  0
 38 37  1  0  0  0  0
 39 32  1  0  0  0  0
 40  8  1  0  0  0  0
 40  1  1  0  0  0  0
 40  3  1  0  0  0  0
 40  7  1  0  0  0  0
M  END
$$$$
