CSD_code = TIFTEH | q = 0 | S = 0 | Stoichiometry = C16H24I2N8S2Zn | MND = 4
 OpenBabel04212202103D

 53 52  0  0  0  0  0  0  0  0999 V2000
    5.1037    6.4791    6.3180 I   0  0  0  0  0  0  0  0  0  0  0  0
    4.6000    6.2338    1.6716 I   0  0  0  0  0  0  0  0  0  0  0  0
    5.7699    5.9654    3.9165 Zn  0  0  0  0  0  0  0  0  0  0  0  0
    8.3419    6.8971    3.7509 S   0  0  0  0  0  0  0  0  0  0  0  0
    6.8939    3.4701    3.7627 S   0  0  0  0  0  0  0  0  0  0  0  0
    8.5741    4.2892    9.8794 N   0  0  0  0  0  0  0  0  0  0  0  0
    8.5339    5.2867    9.7560 H   0  0  0  0  0  0  0  0  0  0  0  0
    8.7017    5.0291    7.1378 N   0  0  0  0  0  0  0  0  0  0  0  0
    8.6644    5.3193    5.8149 N   0  0  0  0  0  0  0  0  0  0  0  0
    8.4812    4.5680    5.1379 H   0  0  0  0  0  0  0  0  0  0  0  0
    8.7081    7.5518    6.3019 N   0  0  0  0  0  0  0  0  0  0  0  0
    8.7602    7.2292    7.2615 H   0  0  0  0  0  0  0  0  0  0  0  0
    8.0389    5.5607   -2.4646 N   0  0  0  0  0  0  0  0  0  0  0  0
    7.3222    4.8768   -2.2895 H   0  0  0  0  0  0  0  0  0  0  0  0
    7.9916    4.7428    0.2607 N   0  0  0  0  0  0  0  0  0  0  0  0
    7.9512    4.4702    1.5876 N   0  0  0  0  0  0  0  0  0  0  0  0
    8.4606    5.0775    2.2418 H   0  0  0  0  0  0  0  0  0  0  0  0
    6.3078    2.9227    1.2268 N   0  0  0  0  0  0  0  0  0  0  0  0
    6.4371    3.1732    0.2531 H   0  0  0  0  0  0  0  0  0  0  0  0
    8.5492    3.6190   11.0482 C   0  0  0  0  0  0  0  0  0  0  0  0
    8.5264    4.1292   11.9911 H   0  0  0  0  0  0  0  0  0  0  0  0
    8.5576    2.2684   10.7782 C   0  0  0  0  0  0  0  0  0  0  0  0
    8.5478    1.4784   11.5021 H   0  0  0  0  0  0  0  0  0  0  0  0
    8.5761    2.1237    9.3887 C   0  0  0  0  0  0  0  0  0  0  0  0
    8.5856    1.2041    8.8383 H   0  0  0  0  0  0  0  0  0  0  0  0
    8.5848    3.4000    8.8406 C   0  0  0  0  0  0  0  0  0  0  0  0
    8.5975    3.7977    7.4778 C   0  0  0  0  0  0  0  0  0  0  0  0
    8.5019    3.0040    6.7324 H   0  0  0  0  0  0  0  0  0  0  0  0
    8.5769    6.5916    5.3965 C   0  0  0  0  0  0  0  0  0  0  0  0
    8.5425    8.9653    6.0691 C   0  0  0  0  0  0  0  0  0  0  0  0
    7.5534    9.2766    6.4264 H   0  0  0  0  0  0  0  0  0  0  0  0
    8.5934    9.1356    4.9911 H   0  0  0  0  0  0  0  0  0  0  0  0
    9.6291    9.7536    6.7845 C   0  0  0  0  0  0  0  0  0  0  0  0
    9.5781    9.5864    7.8580 H   0  0  0  0  0  0  0  0  0  0  0  0
    9.4973   10.8145    6.5938 H   0  0  0  0  0  0  0  0  0  0  0  0
   10.6126    9.4554    6.4296 H   0  0  0  0  0  0  0  0  0  0  0  0
    8.3279    6.1426   -3.6451 C   0  0  0  0  0  0  0  0  0  0  0  0
    7.8143    5.8745   -4.5474 H   0  0  0  0  0  0  0  0  0  0  0  0
    9.3305    7.0654   -3.4442 C   0  0  0  0  0  0  0  0  0  0  0  0
    9.7790    7.6858   -4.1939 H   0  0  0  0  0  0  0  0  0  0  0  0
    9.6462    7.0444   -2.0833 C   0  0  0  0  0  0  0  0  0  0  0  0
   10.3839    7.6415   -1.5853 H   0  0  0  0  0  0  0  0  0  0  0  0
    8.8267    6.0965   -1.4838 C   0  0  0  0  0  0  0  0  0  0  0  0
    8.7489    5.7037   -0.1219 C   0  0  0  0  0  0  0  0  0  0  0  0
    9.3561    6.2708    0.5884 H   0  0  0  0  0  0  0  0  0  0  0  0
    7.0377    3.6223    2.0853 C   0  0  0  0  0  0  0  0  0  0  0  0
    5.2115    2.0477    1.5618 C   0  0  0  0  0  0  0  0  0  0  0  0
    5.2719    1.8290    2.6306 H   0  0  0  0  0  0  0  0  0  0  0  0
    4.2643    2.5638    1.3630 H   0  0  0  0  0  0  0  0  0  0  0  0
    5.2875    0.7631    0.7506 C   0  0  0  0  0  0  0  0  0  0  0  0
    5.2237    0.9789   -0.3136 H   0  0  0  0  0  0  0  0  0  0  0  0
    4.4624    0.1108    1.0205 H   0  0  0  0  0  0  0  0  0  0  0  0
    6.2217    0.2428    0.9476 H   0  0  0  0  0  0  0  0  0  0  0  0
  2  3  1  0  0  0  0
  3  1  1  0  0  0  0
  4 29  2  0  0  0  0
  6 20  1  0  0  0  0
  7  6  1  0  0  0  0
  8 27  2  0  0  0  0
  9  8  1  0  0  0  0
 10  9  1  0  0  0  0
 11 12  1  0  0  0  0
 13 14  1  0  0  0  0
 13 43  1  0  0  0  0
 15 16  1  0  0  0  0
 16 46  1  0  0  0  0
 16 17  1  0  0  0  0
 18 47  1  0  0  0  0
 18 46  1  0  0  0  0
 19 18  1  0  0  0  0
 20 21  1  0  0  0  0
 22 20  2  0  0  0  0
 22 23  1  0  0  0  0
 24 22  1  0  0  0  0
 25 24  1  0  0  0  0
 26 24  2  0  0  0  0
 26  6  1  0  0  0  0
 27 26  1  0  0  0  0
 28 27  1  0  0  0  0
 29  9  1  0  0  0  0
 29 11  1  0  0  0  0
 30 11  1  0  0  0  0
 30 31  1  0  0  0  0
 30 33  1  0  0  0  0
 32 30  1  0  0  0  0
 33 34  1  0  0  0  0
 35 33  1  0  0  0  0
 36 33  1  0  0  0  0
 37 39  2  0  0  0  0
 37 13  1  0  0  0  0
 38 37  1  0  0  0  0
 39 41  1  0  0  0  0
 40 39  1  0  0  0  0
 41 42  1  0  0  0  0
 41 43  2  0  0  0  0
 43 44  1  0  0  0  0
 44 15  2  0  0  0  0
 44 45  1  0  0  0  0
 46  5  2  0  0  0  0
 47 48  1  0  0  0  0
 49 47  1  0  0  0  0
 50 53  1  0  0  0  0
 50 52  1  0  0  0  0
 50 47  1  0  0  0  0
 51 50  1  0  0  0  0
M  END
$$$$
