CSD_code = TIFWAJ | q = 0 | S = 0 | Stoichiometry = C14H16AuBr3N2O2 | MND = 4
 OpenBabel04212202103D

 38 39  0  0  0  0  0  0  0  0999 V2000
    7.2465    6.6381    2.3735 Au  0  0  0  0  0  0  0  0  0  0  0  0
    7.4835    6.6587   -0.0768 Br  0  0  0  0  0  0  0  0  0  0  0  0
    9.1016    8.1442    2.6519 Br  0  0  0  0  0  0  0  0  0  0  0  0
    6.7606    6.6172    4.7805 Br  0  0  0  0  0  0  0  0  0  0  0  0
    8.8006    2.2646    2.3590 O   0  0  0  0  0  0  0  0  0  0  0  0
    8.7218    4.5059    2.2658 O   0  0  0  0  0  0  0  0  0  0  0  0
    4.6238    5.4258    1.4362 N   0  0  0  0  0  0  0  0  0  0  0  0
    5.8522    3.9944    2.4779 N   0  0  0  0  0  0  0  0  0  0  0  0
    4.0641    6.6605    0.9344 C   0  0  0  0  0  0  0  0  0  0  0  0
    3.8321    6.5365   -0.1267 H   0  0  0  0  0  0  0  0  0  0  0  0
    4.8163    7.4482    1.0292 H   0  0  0  0  0  0  0  0  0  0  0  0
    2.8266    7.0253    1.7197 C   0  0  0  0  0  0  0  0  0  0  0  0
    1.6042    7.1832    1.0832 C   0  0  0  0  0  0  0  0  0  0  0  0
    1.5355    7.0572    0.0122 H   0  0  0  0  0  0  0  0  0  0  0  0
    0.4766    7.5141    1.8152 C   0  0  0  0  0  0  0  0  0  0  0  0
   -0.4698    7.6413    1.3117 H   0  0  0  0  0  0  0  0  0  0  0  0
    0.5626    7.6792    3.1868 C   0  0  0  0  0  0  0  0  0  0  0  0
   -0.3174    7.9360    3.7565 H   0  0  0  0  0  0  0  0  0  0  0  0
    1.7800    7.5173    3.8272 C   0  0  0  0  0  0  0  0  0  0  0  0
    1.8557    7.6471    4.8958 H   0  0  0  0  0  0  0  0  0  0  0  0
    2.9085    7.1928    3.0968 C   0  0  0  0  0  0  0  0  0  0  0  0
    3.8551    7.0730    3.6042 H   0  0  0  0  0  0  0  0  0  0  0  0
    3.9830    4.2219    1.3623 C   0  0  0  0  0  0  0  0  0  0  0  0
    3.0424    4.1101    0.8651 H   0  0  0  0  0  0  0  0  0  0  0  0
    4.7569    3.3197    2.0121 C   0  0  0  0  0  0  0  0  0  0  0  0
    4.6187    2.2720    2.1793 H   0  0  0  0  0  0  0  0  0  0  0  0
    5.7629    5.2852    2.1182 C   0  0  0  0  0  0  0  0  0  0  0  0
    6.8878    3.3973    3.2807 C   0  0  0  0  0  0  0  0  0  0  0  0
    6.5852    2.3825    3.5443 H   0  0  0  0  0  0  0  0  0  0  0  0
    7.0237    3.9828    4.1986 H   0  0  0  0  0  0  0  0  0  0  0  0
    8.2495    3.3041    2.5733 C   0  0  0  0  0  0  0  0  0  0  0  0
   10.0383    4.5887    1.6720 C   0  0  0  0  0  0  0  0  0  0  0  0
   10.2018    3.6827    1.0833 H   0  0  0  0  0  0  0  0  0  0  0  0
   10.0091    5.4588    1.0144 H   0  0  0  0  0  0  0  0  0  0  0  0
   11.0958    4.7507    2.7479 C   0  0  0  0  0  0  0  0  0  0  0  0
   10.9063    5.6459    3.3355 H   0  0  0  0  0  0  0  0  0  0  0  0
   12.0684    4.8466    2.2754 H   0  0  0  0  0  0  0  0  0  0  0  0
   11.1049    3.8846    3.4061 H   0  0  0  0  0  0  0  0  0  0  0  0
  1  3  1  0  0  0  0
  1  4  1  0  0  0  0
  2  1  1  0  0  0  0
  5 31  2  0  0  0  0
  6 31  1  0  0  0  0
  7 27  1  0  0  0  0
  8 28  1  0  0  0  0
  9 11  1  0  0  0  0
  9  7  1  0  0  0  0
  9 12  1  0  0  0  0
 10  9  1  0  0  0  0
 12 21  1  0  0  0  0
 13 12  2  0  0  0  0
 13 15  1  0  0  0  0
 14 13  1  0  0  0  0
 15 17  2  0  0  0  0
 16 15  1  0  0  0  0
 17 18  1  0  0  0  0
 17 19  1  0  0  0  0
 19 20  1  0  0  0  0
 21 22  1  0  0  0  0
 21 19  2  0  0  0  0
 23  7  1  0  0  0  0
 23 25  2  0  0  0  0
 24 23  1  0  0  0  0
 25 26  1  0  0  0  0
 25  8  1  0  0  0  0
 27  1  2  0  0  0  0
 27  8  1  0  0  0  0
 28 29  1  0  0  0  0
 28 30  1  0  0  0  0
 31 28  1  0  0  0  0
 32  6  1  0  0  0  0
 32 35  1  0  0  0  0
 33 32  1  0  0  0  0
 34 32  1  0  0  0  0
 35 36  1  0  0  0  0
 35 38  1  0  0  0  0
 37 35  1  0  0  0  0
M  END
$$$$
