CSD_code = TIFYOX | q = 0 | S = 0 | Stoichiometry = C12H14Cl2Hf | MND = 12
 OpenBabel04212202103D

 29 30  0  0  1  0  0  0  0  0999 V2000
    0.9879    3.8552    5.8169 Hf  0  0  0  0  0  0  0  0  0  0  0  0
    3.2551    3.8562    6.3101 Cl  0  0  0  0  0  0  0  0  0  0  0  0
    1.4714    3.8559    3.5477 Cl  0  0  0  0  0  0  0  0  0  0  0  0
   -0.1658    1.7795    5.1999 C   0  0  0  0  0  0  0  0  0  0  0  0
   -0.5022    1.5430    4.1996 H   0  0  0  0  0  0  0  0  0  0  0  0
   -0.9631    2.3168    6.2381 C   0  0  0  0  0  0  0  0  0  0  0  0
   -2.0178    2.5367    6.1677 H   0  0  0  0  0  0  0  0  0  0  0  0
   -0.1972    2.3164    7.4222 C   0  0  0  0  0  0  0  0  0  0  0  0
   -0.5652    2.5367    8.4132 H   0  0  0  0  0  0  0  0  0  0  0  0
    1.0764    1.7787    7.1206 C   0  0  0  0  0  0  0  0  0  0  0  0
    1.8509    1.5420    7.8377 H   0  0  0  0  0  0  0  0  0  0  0  0
    1.0983    1.4336    5.7443 C   0  0  2  0  0  0  0  0  0  0  0  0
    2.2246    0.7605    5.0154 C   0  0  0  0  0  0  0  0  0  0  0  0
    3.1842    1.0324    5.4546 H   0  0  0  0  0  0  0  0  0  0  0  0
    2.2269    1.0450    3.9633 H   0  0  0  0  0  0  0  0  0  0  0  0
    2.1197   -0.3245    5.0733 H   0  0  0  0  0  0  0  0  0  0  0  0
   -0.1657    5.9312    5.1999 C   0  0  0  0  0  3  0  0  0  0  0  0
   -0.5021    6.1679    4.1996 H   0  0  0  0  0  0  0  0  0  0  0  0
   -0.9630    5.3941    6.2381 C   0  0  0  0  0  0  0  0  0  0  0  0
   -2.0178    5.1743    6.1677 H   0  0  0  0  0  0  0  0  0  0  0  0
   -0.1971    5.3944    7.4222 C   0  0  0  0  0  0  0  0  0  0  0  0
   -0.5652    5.1743    8.4132 H   0  0  0  0  0  0  0  0  0  0  0  0
    1.0766    5.9320    7.1206 C   0  0  0  0  0  3  0  0  0  0  0  0
    1.8510    6.1688    7.8376 H   0  0  0  0  0  0  0  0  0  0  0  0
    1.0984    6.2772    5.7443 C   0  0  1  0  0  0  0  0  0  0  0  0
    2.2247    6.9504    5.0154 C   0  0  0  0  0  0  0  0  0  0  0  0
    3.1843    6.6785    5.4546 H   0  0  0  0  0  0  0  0  0  0  0  0
    2.2270    6.6659    3.9633 H   0  0  0  0  0  0  0  0  0  0  0  0
    2.1198    8.0353    5.0733 H   0  0  0  0  0  0  0  0  0  0  0  0
  1  2  1  0  0  0  0
  3  1  1  0  0  0  0
  4 12  1  0  0  0  0
  4  6  2  0  0  0  0
  5  4  1  0  0  0  0
  6  8  1  0  0  0  0
  7  6  1  0  0  0  0
  8  9  1  0  0  0  0
 10  8  2  0  0  0  0
 10 11  1  0  0  0  0
 12 13  1  6  0  0  0
 12  1  1  0  0  0  0
 12 10  1  0  0  0  0
 13 16  1  0  0  0  0
 13 14  1  0  0  0  0
 15 13  1  0  0  0  0
 17 25  1  0  0  0  0
 17 19  1  0  0  0  0
 18 17  1  0  0  0  0
 19 21  2  0  0  0  0
 20 19  1  0  0  0  0
 21 22  1  0  0  0  0
 23 21  1  0  0  0  0
 23 24  1  0  0  0  0
 25 26  1  6  0  0  0
 25  1  1  0  0  0  0
 25 23  1  0  0  0  0
 26 29  1  0  0  0  0
 26 27  1  0  0  0  0
 28 26  1  0  0  0  0
M  END
$$$$
