CSD_code = TIGJID | q = 0 | S = 0 | Stoichiometry = C12H12CdCl2N2O | MND = 5
 OpenBabel04212202103D

 30 32  0  0  1  0  0  0  0  0999 V2000
    1.0682    3.8050    1.6569 Cd  0  0  0  0  0  0  0  0  0  0  0  0
    0.6696    4.2427   -0.8682 O   0  0  0  0  0  0  0  0  0  0  0  0
   -0.5639    2.4191    0.7190 N   0  0  0  0  0  0  0  0  0  0  0  0
    1.7112    5.9460    0.9714 N   0  0  0  0  0  0  0  0  0  0  0  0
   -0.4588    2.1567   -0.5811 C   0  0  1  0  0  3  0  0  0  0  0  0
    2.4556    8.1552    1.4424 C   0  0  0  0  0  0  0  0  0  0  0  0
    2.5903    8.9458    2.1630 H   0  0  0  0  0  0  0  0  0  0  0  0
   -1.4527    1.7584    1.4506 C   0  0  0  0  0  0  0  0  0  0  0  0
   -1.4925    2.0260    2.5006 H   0  0  0  0  0  0  0  0  0  0  0  0
    2.8417    8.3159    0.1202 C   0  0  0  0  0  0  0  0  0  0  0  0
    3.2871    9.2406   -0.2155 H   0  0  0  0  0  0  0  0  0  0  0  0
    1.8916    6.9484    1.8224 C   0  0  0  0  0  3  0  0  0  0  0  0
    1.5699    6.7661    2.8417 H   0  0  0  0  0  0  0  0  0  0  0  0
    0.5983    2.9111   -1.3421 C   0  0  0  0  0  0  0  0  0  0  0  0
    1.5592    2.4028   -1.1572 H   0  0  0  0  0  0  0  0  0  0  0  0
    0.3820    2.9001   -2.4201 H   0  0  0  0  0  0  0  0  0  0  0  0
   -1.2546    1.1971   -1.1986 C   0  0  0  0  0  0  0  0  0  0  0  0
   -1.1475    1.0018   -2.2543 H   0  0  0  0  0  0  0  0  0  0  0  0
   -2.1760    0.4991   -0.4366 C   0  0  0  0  0  0  0  0  0  0  0  0
   -2.8021   -0.2542   -0.8911 H   0  0  0  0  0  0  0  0  0  0  0  0
    1.8766    4.9017   -1.2018 C   0  0  0  0  0  0  0  0  0  0  0  0
    1.8638    5.2122   -2.2566 H   0  0  0  0  0  0  0  0  0  0  0  0
    2.7270    4.2206   -1.0321 H   0  0  0  0  0  0  0  0  0  0  0  0
   -2.2820    0.7860    0.9161 C   0  0  0  0  0  0  0  0  0  0  0  0
   -2.9892    0.2669    1.5427 H   0  0  0  0  0  0  0  0  0  0  0  0
    2.6429    7.2716   -0.7667 C   0  0  0  0  0  0  0  0  0  0  0  0
    2.9283    7.3635   -1.8033 H   0  0  0  0  0  0  0  0  0  0  0  0
    3.0058    2.6026    0.9887 Cl  0  0  0  0  0  0  0  0  0  0  0  0
    0.3607    4.1076    3.8624 Cl  0  0  0  0  0  0  0  0  0  0  0  0
    2.0712    6.0920   -0.3010 C   0  0  0  0  0  0  0  0  0  0  0  0
  1 29  1  0  0  0  0
  3  8  1  0  0  0  0
  3  1  1  0  0  0  0
  4  1  1  0  0  0  0
  4 12  1  0  0  0  0
  5 17  1  1  0  0  0
  5  3  1  0  0  0  0
  6 12  1  0  0  0  0
  6  7  1  0  0  0  0
  8  9  1  0  0  0  0
 10  6  2  0  0  0  0
 11 10  1  0  0  0  0
 12 13  1  0  0  0  0
 14 15  1  0  0  0  0
 14  2  1  0  0  0  0
 14  5  1  0  0  0  0
 16 14  1  0  0  0  0
 17 19  2  0  0  0  0
 18 17  1  0  0  0  0
 19 24  1  0  0  0  0
 20 19  1  0  0  0  0
 21 23  1  0  0  0  0
 21  2  1  0  0  0  0
 21 30  1  0  0  0  0
 22 21  1  0  0  0  0
 24  8  2  0  0  0  0
 24 25  1  0  0  0  0
 26 30  2  0  0  0  0
 26 10  1  0  0  0  0
 27 26  1  0  0  0  0
 28  1  1  0  0  0  0
 30  4  1  0  0  0  0
M  END
$$$$
