CSD_code = TIGMON | q = 1 | S = 0 | Stoichiometry = C6H4AuCl2N2S2(1+) | MND = 4
 OpenBabel04212202103D

 17 19  0  0  0  0  0  0  0  0999 V2000
   -1.0940    3.9364    7.8440 Au  0  0  0  0  0  0  0  0  0  0  0  0
    0.3375    5.5106    8.4911 Cl  0  0  0  0  0  0  0  0  0  0  0  0
    1.8439    0.7013    9.1804 S   0  0  0  0  0  0  0  0  0  0  0  0
    0.1163    2.3588    8.3921 N   0  0  0  0  0  0  0  0  0  0  0  0
   -0.4351    1.1280    8.1437 C   0  0  0  0  0  0  0  0  0  0  0  0
    0.3820    0.0993    8.5172 C   0  0  0  0  0  0  0  0  0  0  0  0
    0.1992   -0.9533    8.4366 H   0  0  0  0  0  0  0  0  0  0  0  0
    1.3026    2.2902    8.9313 C   0  0  0  0  0  3  0  0  0  0  0  0
    1.8686    3.1679    9.1866 H   0  0  0  0  0  0  0  0  0  0  0  0
   -4.0320    0.7013    6.5080 S   0  0  0  0  0  0  0  0  0  0  0  0
   -2.3045    2.3588    7.2964 N   0  0  0  0  0  0  0  0  0  0  0  0
   -1.7530    1.1280    7.5448 C   0  0  0  0  0  0  0  0  0  0  0  0
   -2.5701    0.0993    7.1713 C   0  0  0  0  0  0  0  0  0  0  0  0
   -2.3873   -0.9533    7.2518 H   0  0  0  0  0  0  0  0  0  0  0  0
   -3.4907    2.2902    6.7572 C   0  0  0  0  0  3  0  0  0  0  0  0
   -4.0568    3.1679    6.5018 H   0  0  0  0  0  0  0  0  0  0  0  0
   -2.5257    5.5106    7.1975 Cl  0  0  0  0  0  0  0  0  0  0  0  0
  1  4  1  0  0  0  0
  1  2  1  0  0  0  0
  4  8  1  0  0  0  0
  5  4  1  0  0  0  0
  5  6  2  0  0  0  0
  6  3  1  0  0  0  0
  7  6  1  0  0  0  0
  8  3  1  0  0  0  0
  8  9  1  0  0  0  0
 10 15  1  0  0  0  0
 10 13  1  0  0  0  0
 11 12  1  0  0  0  0
 11  1  1  0  0  0  0
 12  5  1  0  0  0  0
 13 14  1  0  0  0  0
 13 12  2  0  0  0  0
 15 11  1  0  0  0  0
 16 15  1  0  0  0  0
 17  1  1  0  0  0  0
M  END
$$$$
