CSD_code = TIGMIH | q = 0 | S = 0 | Stoichiometry = C8H8AuCl3N2S2 | MND = 4
 OpenBabel04212202103D

 24 26  0  0  1  0  0  0  0  0999 V2000
    1.4171    7.4618    6.7561 Au  0  0  0  0  0  0  0  0  0  0  0  0
   -0.8747    7.5235    6.8579 Cl  0  0  0  0  0  0  0  0  0  0  0  0
    1.4085    5.3471    6.0969 Cl  0  0  0  0  0  0  0  0  0  0  0  0
    3.6730    7.6521    6.4040 Cl  0  0  0  0  0  0  0  0  0  0  0  0
    1.4020   11.9126    7.5007 S   0  0  0  0  0  0  0  0  0  0  0  0
    1.2164    7.1122   11.7261 S   0  0  0  0  0  0  0  0  0  0  0  0
    1.4192    9.3961    7.3834 N   0  0  0  0  0  0  0  0  0  0  0  0
    1.4863    7.3294    9.2091 N   0  0  0  0  0  0  0  0  0  0  0  0
    1.3425    8.6022    9.6768 C   0  0  0  0  0  0  0  0  0  0  0  0
    1.3635    9.6858    8.7202 C   0  0  0  0  0  0  0  0  0  0  0  0
    1.3444   11.0258    8.9693 C   0  0  0  0  0  0  0  0  0  0  0  0
    1.3046   11.5269    9.9137 H   0  0  0  0  0  0  0  0  0  0  0  0
    1.1877    8.6785   11.0329 C   0  0  0  0  0  0  0  0  0  0  0  0
    1.0530    9.5467   11.6441 H   0  0  0  0  0  0  0  0  0  0  0  0
    1.4493   10.4443    6.6101 C   0  0  2  0  0  3  0  0  0  0  0  0
    1.4422    6.4320   10.1271 C   0  0  1  0  0  3  0  0  0  0  0  0
    1.5284   10.3896    5.1391 C   0  0  0  0  0  0  0  0  0  0  0  0
    0.6816    9.8283    4.7413 H   0  0  0  0  0  0  0  0  0  0  0  0
    2.4394    9.8644    4.8450 H   0  0  0  0  0  0  0  0  0  0  0  0
    1.5318   11.3900    4.7150 H   0  0  0  0  0  0  0  0  0  0  0  0
    1.5702    4.9817    9.8957 C   0  0  0  0  0  0  0  0  0  0  0  0
    1.5677    4.7863    8.8253 H   0  0  0  0  0  0  0  0  0  0  0  0
    0.7471    4.4464   10.3661 H   0  0  0  0  0  0  0  0  0  0  0  0
    2.5021    4.6115   10.3226 H   0  0  0  0  0  0  0  0  0  0  0  0
  1  2  1  0  0  0  0
  1  7  1  0  0  0  0
  1  8  1  0  0  0  0
  3  1  1  0  0  0  0
  4  1  1  0  0  0  0
  5 11  1  0  0  0  0
  7 10  1  0  0  0  0
  8  9  1  0  0  0  0
  8 16  1  0  0  0  0
  9 13  2  0  0  0  0
 10 11  2  0  0  0  0
 10  9  1  0  0  0  0
 11 12  1  0  0  0  0
 13 14  1  0  0  0  0
 13  6  1  0  0  0  0
 15 17  1  1  0  0  0
 15  7  1  0  0  0  0
 15  5  1  0  0  0  0
 16 21  1  1  0  0  0
 16  6  1  0  0  0  0
 18 17  1  0  0  0  0
 19 17  1  0  0  0  0
 20 17  1  0  0  0  0
 21 24  1  0  0  0  0
 21 23  1  0  0  0  0
 22 21  1  0  0  0  0
M  END
$$$$
