CSD_code = TIGWEL | q = 0 | S = 0 | Stoichiometry = C17H32Cl2NPZr | MND = 8
 OpenBabel04212202103D

 54 54  0  0  1  0  0  0  0  0999 V2000
    2.0546    5.3433    3.1740 Zr  0  0  0  0  0  0  0  0  0  0  0  0
    0.8991    7.3332    3.5574 Cl  0  0  0  0  0  0  0  0  0  0  0  0
    1.2276    4.3328    5.1207 Cl  0  0  0  0  0  0  0  0  0  0  0  0
    5.1350    6.0616    3.7463 P   0  0  0  0  0  4  0  0  0  0  0  0
    3.8949    5.9481    2.8252 N   0  0  0  0  0  2  0  0  0  0  0  0
    2.3487    3.7754    1.2617 C   0  0  2  0  0  0  0  0  0  0  0  0
    3.2700    3.2631    1.0087 H   0  0  0  0  0  0  0  0  0  0  0  0
    1.9098    5.0037    0.7090 C   0  0  0  0  0  0  0  0  0  0  0  0
    2.4495    5.6006   -0.0164 H   0  0  0  0  0  0  0  0  0  0  0  0
    0.5863    5.2303    1.1501 C   0  0  0  0  0  0  0  0  0  0  0  0
   -0.0569    6.0441    0.8335 H   0  0  0  0  0  0  0  0  0  0  0  0
    0.2087    4.1503    1.9758 C   0  0  0  0  0  0  0  0  0  0  0  0
   -0.7731    3.9939    2.4075 H   0  0  0  0  0  0  0  0  0  0  0  0
    1.2950    3.2505    2.0465 C   0  0  0  0  0  0  0  0  0  0  0  0
    1.2816    2.2772    2.5256 H   0  0  0  0  0  0  0  0  0  0  0  0
    5.6470    4.2941    4.3830 C   0  0  0  0  0  0  0  0  0  0  0  0
    6.2567    3.5627    3.1855 C   0  0  0  0  0  0  0  0  0  0  0  0
    6.3196    2.4945    3.3958 H   0  0  0  0  0  0  0  0  0  0  0  0
    7.2610    3.9075    2.9635 H   0  0  0  0  0  0  0  0  0  0  0  0
    5.6212    3.7033    2.3115 H   0  0  0  0  0  0  0  0  0  0  0  0
    4.3627    3.5296    4.7184 C   0  0  0  0  0  0  0  0  0  0  0  0
    4.5902    2.4685    4.8326 H   0  0  0  0  0  0  0  0  0  0  0  0
    3.6366    3.6391    3.8883 H   0  0  0  0  0  0  0  0  0  0  0  0
    3.8926    3.8611    5.6418 H   0  0  0  0  0  0  0  0  0  0  0  0
    6.6131    4.2501    5.5618 C   0  0  0  0  0  0  0  0  0  0  0  0
    6.9284    3.2196    5.7291 H   0  0  0  0  0  0  0  0  0  0  0  0
    6.1465    4.6025    6.4774 H   0  0  0  0  0  0  0  0  0  0  0  0
    7.5007    4.8453    5.3701 H   0  0  0  0  0  0  0  0  0  0  0  0
    6.5794    6.7922    2.7021 C   0  0  0  0  0  0  0  0  0  0  0  0
    6.2627    8.2762    2.5128 C   0  0  0  0  0  0  0  0  0  0  0  0
    6.8992    8.6911    1.7311 H   0  0  0  0  0  0  0  0  0  0  0  0
    6.4473    8.8477    3.4168 H   0  0  0  0  0  0  0  0  0  0  0  0
    5.2252    8.3950    2.2069 H   0  0  0  0  0  0  0  0  0  0  0  0
    7.9825    6.6525    3.2825 C   0  0  0  0  0  0  0  0  0  0  0  0
    8.6824    7.1949    2.6461 H   0  0  0  0  0  0  0  0  0  0  0  0
    8.3110    5.6180    3.3213 H   0  0  0  0  0  0  0  0  0  0  0  0
    8.0450    7.0719    4.2824 H   0  0  0  0  0  0  0  0  0  0  0  0
    6.4911    6.1510    1.3148 C   0  0  0  0  0  0  0  0  0  0  0  0
    6.9353    6.8106    0.5709 H   0  0  0  0  0  0  0  0  0  0  0  0
    5.4406    6.0037    1.0604 H   0  0  0  0  0  0  0  0  0  0  0  0
    7.0106    5.2007    1.2576 H   0  0  0  0  0  0  0  0  0  0  0  0
    4.7774    7.2266    5.2583 C   0  0  0  0  0  0  0  0  0  0  0  0
    4.0076    8.4340    4.7114 C   0  0  0  0  0  0  0  0  0  0  0  0
    3.3361    8.8244    5.4755 H   0  0  0  0  0  0  0  0  0  0  0  0
    3.3958    8.1290    3.8552 H   0  0  0  0  0  0  0  0  0  0  0  0
    4.6618    9.2456    4.4104 H   0  0  0  0  0  0  0  0  0  0  0  0
    3.7993    6.4730    6.1605 C   0  0  0  0  0  0  0  0  0  0  0  0
    3.4312    7.1428    6.9391 H   0  0  0  0  0  0  0  0  0  0  0  0
    4.2640    5.6266    6.6601 H   0  0  0  0  0  0  0  0  0  0  0  0
    2.9344    6.1382    5.5672 H   0  0  0  0  0  0  0  0  0  0  0  0
    5.9806    7.6824    6.0777 C   0  0  0  0  0  0  0  0  0  0  0  0
    5.6280    8.2820    6.9174 H   0  0  0  0  0  0  0  0  0  0  0  0
    6.6550    8.3023    5.4938 H   0  0  0  0  0  0  0  0  0  0  0  0
    6.5399    6.8420    6.4770 H   0  0  0  0  0  0  0  0  0  0  0  0
  1  2  1  0  0  0  0
  1  3  1  0  0  0  0
  4 16  1  0  0  0  0
  4 42  1  0  0  0  0
  5  1  1  0  0  0  0
  5  4  1  0  0  0  0
  6  7  1  6  0  0  0
  6 14  1  0  0  0  0
  6  1  1  0  0  0  0
  8 10  2  0  0  0  0
  8  6  1  0  0  0  0
  9  8  1  0  0  0  0
 10 12  1  0  0  0  0
 11 10  1  0  0  0  0
 12 14  2  0  0  0  0
 12 13  1  0  0  0  0
 14 15  1  0  0  0  0
 16 21  1  0  0  0  0
 16 25  1  0  0  0  0
 17 18  1  0  0  0  0
 17 16  1  0  0  0  0
 19 17  1  0  0  0  0
 20 17  1  0  0  0  0
 21 22  1  0  0  0  0
 21 24  1  0  0  0  0
 23 21  1  0  0  0  0
 25 26  1  0  0  0  0
 25 27  1  0  0  0  0
 28 25  1  0  0  0  0
 29 34  1  0  0  0  0
 29  4  1  0  0  0  0
 30 29  1  0  0  0  0
 30 32  1  0  0  0  0
 31 30  1  0  0  0  0
 33 30  1  0  0  0  0
 34 36  1  0  0  0  0
 34 37  1  0  0  0  0
 35 34  1  0  0  0  0
 38 29  1  0  0  0  0
 39 38  1  0  0  0  0
 40 38  1  0  0  0  0
 41 38  1  0  0  0  0
 42 51  1  0  0  0  0
 42 47  1  0  0  0  0
 43 42  1  0  0  0  0
 43 44  1  0  0  0  0
 45 43  1  0  0  0  0
 46 43  1  0  0  0  0
 47 49  1  0  0  0  0
 47 48  1  0  0  0  0
 50 47  1  0  0  0  0
 51 54  1  0  0  0  0
 51 52  1  0  0  0  0
 53 51  1  0  0  0  0
M  END
$$$$
