CSD_code = TIHBAN | q = 0 | S = 0 | Stoichiometry = C29H30Cl2N2OP2Pt | MND = 4
 OpenBabel04212202103D

 67 71  0  0  0  0  0  0  0  0999 V2000
    3.9936    4.9229    3.5988 Pt  0  0  0  0  0  0  0  0  0  0  0  0
    4.0024    7.1808    3.9200 Cl  0  0  0  0  0  0  0  0  0  0  0  0
    1.8794    4.4321    4.2045 P   0  0  0  0  0  4  0  0  0  0  0  0
    0.6040    5.5206    4.9125 C   0  0  0  0  0  0  0  0  0  0  0  0
    1.8568    3.0992    5.2712 N   0  0  0  0  0  0  0  0  0  0  0  0
    6.1421    5.0052    2.7830 Cl  0  0  0  0  0  0  0  0  0  0  0  0
    0.9507    6.8048    5.3139 C   0  0  0  0  0  0  0  0  0  0  0  0
    1.9726    7.1406    5.2003 H   0  0  0  0  0  0  0  0  0  0  0  0
    2.9718    1.6855    3.7141 N   0  0  0  0  0  0  0  0  0  0  0  0
    4.2516    2.7138    3.1762 P   0  0  0  0  0  4  0  0  0  0  0  0
   -0.0211    7.6485    5.8266 C   0  0  0  0  0  0  0  0  0  0  0  0
    0.2484    8.6467    6.1363 H   0  0  0  0  0  0  0  0  0  0  0  0
   -1.3310    7.2155    5.9374 C   0  0  0  0  0  0  0  0  0  0  0  0
   -2.0877    7.8745    6.3367 H   0  0  0  0  0  0  0  0  0  0  0  0
   -1.6782    5.9358    5.5290 C   0  0  0  0  0  0  0  0  0  0  0  0
   -2.7020    5.6009    5.6100 H   0  0  0  0  0  0  0  0  0  0  0  0
   -0.7173    5.0885    5.0124 C   0  0  0  0  0  0  0  0  0  0  0  0
   -0.9864    4.0927    4.6906 H   0  0  0  0  0  0  0  0  0  0  0  0
    1.0318    3.8167    2.7229 C   0  0  0  0  0  0  0  0  0  0  0  0
    1.3010    4.5280    1.5565 C   0  0  0  0  0  0  0  0  0  0  0  0
    2.0134    5.3481    1.5946 H   0  0  0  0  0  0  0  0  0  0  0  0
    0.6724    4.1864    0.3736 C   0  0  0  0  0  0  0  0  0  0  0  0
    0.8825    4.7378   -0.5303 H   0  0  0  0  0  0  0  0  0  0  0  0
   -0.2233    3.1285    0.3522 C   0  0  0  0  0  0  0  0  0  0  0  0
   -0.7151    2.8564   -0.5699 H   0  0  0  0  0  0  0  0  0  0  0  0
   -0.4856    2.4122    1.5098 C   0  0  0  0  0  0  0  0  0  0  0  0
   -1.1775    1.5825    1.4860 H   0  0  0  0  0  0  0  0  0  0  0  0
    0.1358    2.7548    2.6986 C   0  0  0  0  0  0  0  0  0  0  0  0
   -0.0543    2.1854    3.5977 H   0  0  0  0  0  0  0  0  0  0  0  0
    2.4280    1.8757    4.9908 C   0  0  0  0  0  0  0  0  0  0  0  0
    2.3737    0.9692    5.7931 O   0  0  0  0  0  0  0  0  0  0  0  0
    5.7148    2.0068    3.9903 C   0  0  0  0  0  0  0  0  0  0  0  0
    6.0998    2.6299    5.1737 C   0  0  0  0  0  0  0  0  0  0  0  0
    5.5708    3.5246    5.4922 H   0  0  0  0  0  0  0  0  0  0  0  0
    7.1661    2.1414    5.9032 C   0  0  0  0  0  0  0  0  0  0  0  0
    7.4681    2.6326    6.8161 H   0  0  0  0  0  0  0  0  0  0  0  0
    7.8532    1.0253    5.4522 C   0  0  0  0  0  0  0  0  0  0  0  0
    8.6902    0.6427    6.0170 H   0  0  0  0  0  0  0  0  0  0  0  0
    7.4768    0.4061    4.2718 C   0  0  0  0  0  0  0  0  0  0  0  0
    8.0206   -0.4571    3.9171 H   0  0  0  0  0  0  0  0  0  0  0  0
    6.4079    0.8905    3.5378 C   0  0  0  0  0  0  0  0  0  0  0  0
    6.1292    0.4114    2.6094 H   0  0  0  0  0  0  0  0  0  0  0  0
    4.3711    2.3000    1.4196 C   0  0  0  0  0  0  0  0  0  0  0  0
    3.2382    1.9699    0.6807 C   0  0  0  0  0  0  0  0  0  0  0  0
    2.2870    1.8684    1.1796 H   0  0  0  0  0  0  0  0  0  0  0  0
    3.3364    1.7678   -0.6829 C   0  0  0  0  0  0  0  0  0  0  0  0
    2.4538    1.5101   -1.2499 H   0  0  0  0  0  0  0  0  0  0  0  0
    4.5597    1.9029   -1.3198 C   0  0  0  0  0  0  0  0  0  0  0  0
    4.6331    1.7489   -2.3861 H   0  0  0  0  0  0  0  0  0  0  0  0
    5.6870    2.2423   -0.5891 C   0  0  0  0  0  0  0  0  0  0  0  0
    6.6393    2.3562   -1.0849 H   0  0  0  0  0  0  0  0  0  0  0  0
    5.5975    2.4455    0.7760 C   0  0  0  0  0  0  0  0  0  0  0  0
    6.4678    2.7366    1.3454 H   0  0  0  0  0  0  0  0  0  0  0  0
    1.7061    3.4020    6.6976 C   0  0  0  0  0  0  0  0  0  0  0  0
    1.5549    2.4530    7.2163 H   0  0  0  0  0  0  0  0  0  0  0  0
    0.8198    4.0253    6.8275 H   0  0  0  0  0  0  0  0  0  0  0  0
    3.1610    0.2565    3.4149 C   0  0  0  0  0  0  0  0  0  0  0  0
    3.6658   -0.2348    4.2529 H   0  0  0  0  0  0  0  0  0  0  0  0
    3.7902    0.1831    2.5268 H   0  0  0  0  0  0  0  0  0  0  0  0
    2.9409    4.1151    7.2317 C   0  0  0  0  0  0  0  0  0  0  0  0
    2.7682    4.4570    8.2486 H   0  0  0  0  0  0  0  0  0  0  0  0
    3.1713    4.9813    6.6041 H   0  0  0  0  0  0  0  0  0  0  0  0
    3.7935    3.4394    7.2288 H   0  0  0  0  0  0  0  0  0  0  0  0
    1.8260   -0.4275    3.1546 C   0  0  0  0  0  0  0  0  0  0  0  0
    2.0014   -1.4652    2.8830 H   0  0  0  0  0  0  0  0  0  0  0  0
    1.2940    0.0629    2.3430 H   0  0  0  0  0  0  0  0  0  0  0  0
    1.2112   -0.4035    4.0498 H   0  0  0  0  0  0  0  0  0  0  0  0
  1  2  1  0  0  0  0
  1  3  1  0  0  0  0
  3  4  1  0  0  0  0
  3  5  1  0  0  0  0
  4 17  2  0  0  0  0
  4  7  1  0  0  0  0
  5 54  1  0  0  0  0
  6  1  1  0  0  0  0
  7 11  2  0  0  0  0
  8  7  1  0  0  0  0
  9 30  1  0  0  0  0
 10  1  1  0  0  0  0
 10  9  1  0  0  0  0
 10 32  1  0  0  0  0
 11 13  1  0  0  0  0
 11 12  1  0  0  0  0
 13 14  1  0  0  0  0
 15 16  1  0  0  0  0
 15 13  2  0  0  0  0
 17 15  1  0  0  0  0
 18 17  1  0  0  0  0
 19  3  1  0  0  0  0
 20 21  1  0  0  0  0
 20 19  2  0  0  0  0
 22 20  1  0  0  0  0
 23 22  1  0  0  0  0
 24 22  2  0  0  0  0
 24 26  1  0  0  0  0
 25 24  1  0  0  0  0
 26 28  2  0  0  0  0
 27 26  1  0  0  0  0
 28 19  1  0  0  0  0
 28 29  1  0  0  0  0
 30  5  1  0  0  0  0
 30 31  2  0  0  0  0
 32 33  1  0  0  0  0
 33 34  1  0  0  0  0
 33 35  2  0  0  0  0
 35 36  1  0  0  0  0
 37 35  1  0  0  0  0
 37 38  1  0  0  0  0
 39 37  2  0  0  0  0
 40 39  1  0  0  0  0
 41 32  2  0  0  0  0
 41 39  1  0  0  0  0
 42 41  1  0  0  0  0
 43 10  1  0  0  0  0
 44 45  1  0  0  0  0
 44 43  2  0  0  0  0
 46 44  1  0  0  0  0
 47 46  1  0  0  0  0
 48 46  2  0  0  0  0
 48 50  1  0  0  0  0
 49 48  1  0  0  0  0
 50 52  2  0  0  0  0
 51 50  1  0  0  0  0
 52 53  1  0  0  0  0
 52 43  1  0  0  0  0
 54 56  1  0  0  0  0
 54 55  1  0  0  0  0
 54 60  1  0  0  0  0
 57  9  1  0  0  0  0
 57 58  1  0  0  0  0
 59 57  1  0  0  0  0
 60 61  1  0  0  0  0
 62 60  1  0  0  0  0
 63 60  1  0  0  0  0
 64 57  1  0  0  0  0
 64 67  1  0  0  0  0
 65 64  1  0  0  0  0
 66 64  1  0  0  0  0
M  END
$$$$
