CSD_code = TIHBER | q = 0 | S = 0 | Stoichiometry = C29H30Cl2N2OP2Pd | MND = 4
 OpenBabel04212202103D

 67 71  0  0  0  0  0  0  0  0999 V2000
   10.7212   15.1443   -2.3940 Pd  0  0  0  0  0  0  0  0  0  0  0  0
   11.9545   13.6131   -3.5343 Cl  0  0  0  0  0  0  0  0  0  0  0  0
    9.5276   13.5897   -1.2461 Cl  0  0  0  0  0  0  0  0  0  0  0  0
   12.1142   16.6741   -3.1973 P   0  0  0  0  0  4  0  0  0  0  0  0
   13.6603   16.1495   -2.3860 C   0  0  0  0  0  0  0  0  0  0  0  0
   13.5204   15.5600   -1.1269 C   0  0  0  0  0  0  0  0  0  0  0  0
   12.5237   15.4657   -0.6685 H   0  0  0  0  0  0  0  0  0  0  0  0
   14.6324   15.0829   -0.4588 C   0  0  0  0  0  0  0  0  0  0  0  0
   14.5216   14.6217    0.5112 H   0  0  0  0  0  0  0  0  0  0  0  0
   15.8866   15.1797   -1.0433 C   0  0  0  0  0  0  0  0  0  0  0  0
   16.7523   14.7932   -0.5268 H   0  0  0  0  0  0  0  0  0  0  0  0
   16.0274   15.7568   -2.2933 C   0  0  0  0  0  0  0  0  0  0  0  0
   17.0025   15.8219   -2.7530 H   0  0  0  0  0  0  0  0  0  0  0  0
   14.9190   16.2418   -2.9669 C   0  0  0  0  0  0  0  0  0  0  0  0
   15.0324   16.6753   -3.9515 H   0  0  0  0  0  0  0  0  0  0  0  0
   12.5310   17.0104   -4.9309 C   0  0  0  0  0  0  0  0  0  0  0  0
   12.2008   18.2221   -5.5321 C   0  0  0  0  0  0  0  0  0  0  0  0
   11.7275   19.0050   -4.9560 H   0  0  0  0  0  0  0  0  0  0  0  0
   12.4816   18.4245   -6.8715 C   0  0  0  0  0  0  0  0  0  0  0  0
   12.2324   19.3682   -7.3339 H   0  0  0  0  0  0  0  0  0  0  0  0
   13.0751   17.4193   -7.6176 C   0  0  0  0  0  0  0  0  0  0  0  0
   13.2921   17.5820   -8.6629 H   0  0  0  0  0  0  0  0  0  0  0  0
   13.3789   16.2022   -7.0272 C   0  0  0  0  0  0  0  0  0  0  0  0
   13.8268   15.4134   -7.6126 H   0  0  0  0  0  0  0  0  0  0  0  0
   13.1046   15.9901   -5.6890 C   0  0  0  0  0  0  0  0  0  0  0  0
   13.3093   15.0366   -5.2222 H   0  0  0  0  0  0  0  0  0  0  0  0
   11.8706   18.2190   -2.5059 N   0  0  0  0  0  0  0  0  0  0  0  0
   13.0527   19.0863   -2.4035 C   0  0  0  0  0  0  0  0  0  0  0  0
   13.8622   18.6394   -2.9836 H   0  0  0  0  0  0  0  0  0  0  0  0
   12.8119   20.0646   -2.8268 H   0  0  0  0  0  0  0  0  0  0  0  0
   13.4640   19.2449   -0.9466 C   0  0  0  0  0  0  0  0  0  0  0  0
   14.3465   19.8753   -0.8791 H   0  0  0  0  0  0  0  0  0  0  0  0
   13.6873   18.2756   -0.5058 H   0  0  0  0  0  0  0  0  0  0  0  0
   12.6590   19.7101   -0.3832 H   0  0  0  0  0  0  0  0  0  0  0  0
   10.6670   18.9020   -2.4263 C   0  0  0  0  0  0  0  0  0  0  0  0
   10.6495   20.1156   -2.4442 O   0  0  0  0  0  0  0  0  0  0  0  0
    9.4842   18.1880   -2.3235 N   0  0  0  0  0  0  0  0  0  0  0  0
    8.2773   19.0195   -2.4339 C   0  0  0  0  0  0  0  0  0  0  0  0
    8.4932   20.0115   -2.0293 H   0  0  0  0  0  0  0  0  0  0  0  0
    7.4846   18.5601   -1.8405 H   0  0  0  0  0  0  0  0  0  0  0  0
    7.8523   19.1416   -3.8903 C   0  0  0  0  0  0  0  0  0  0  0  0
    6.9523   19.7462   -3.9623 H   0  0  0  0  0  0  0  0  0  0  0  0
    7.6529   18.1592   -4.3131 H   0  0  0  0  0  0  0  0  0  0  0  0
    8.6404   19.6192   -4.4670 H   0  0  0  0  0  0  0  0  0  0  0  0
    9.2893   16.6462   -1.6099 P   0  0  0  0  0  4  0  0  0  0  0  0
    8.8850   16.9950    0.1242 C   0  0  0  0  0  0  0  0  0  0  0  0
    9.1835   18.2251    0.7046 C   0  0  0  0  0  0  0  0  0  0  0  0
    9.6219   19.0153    0.1112 H   0  0  0  0  0  0  0  0  0  0  0  0
    8.9157   18.4362    2.0453 C   0  0  0  0  0  0  0  0  0  0  0  0
    9.1401   19.3938    2.4917 H   0  0  0  0  0  0  0  0  0  0  0  0
    8.3670   17.4221    2.8133 C   0  0  0  0  0  0  0  0  0  0  0  0
    8.1602   17.5915    3.8596 H   0  0  0  0  0  0  0  0  0  0  0  0
    8.0949   16.1878    2.2434 C   0  0  0  0  0  0  0  0  0  0  0  0
    7.6821   15.3926    2.8458 H   0  0  0  0  0  0  0  0  0  0  0  0
    8.3565   15.9668    0.9041 C   0  0  0  0  0  0  0  0  0  0  0  0
    8.1765   15.0010    0.4525 H   0  0  0  0  0  0  0  0  0  0  0  0
    7.7486   16.0697   -2.3951 C   0  0  0  0  0  0  0  0  0  0  0  0
    7.8899   15.4673   -3.6478 C   0  0  0  0  0  0  0  0  0  0  0  0
    8.8834   15.3941   -4.1168 H   0  0  0  0  0  0  0  0  0  0  0  0
    6.7839   14.9507   -4.2958 C   0  0  0  0  0  0  0  0  0  0  0  0
    6.8959   14.4793   -5.2608 H   0  0  0  0  0  0  0  0  0  0  0  0
    5.5346   15.0209   -3.6974 C   0  0  0  0  0  0  0  0  0  0  0  0
    4.6739   14.6036   -4.1981 H   0  0  0  0  0  0  0  0  0  0  0  0
    5.3925   15.6107   -2.4534 C   0  0  0  0  0  0  0  0  0  0  0  0
    4.4214   15.6550   -1.9829 H   0  0  0  0  0  0  0  0  0  0  0  0
    6.4949   16.1351   -1.7998 C   0  0  0  0  0  0  0  0  0  0  0  0
    6.3816   16.5786   -0.8197 H   0  0  0  0  0  0  0  0  0  0  0  0
  1 45  1  0  0  0  0
  1  3  1  0  0  0  0
  2  1  1  0  0  0  0
  4 27  1  0  0  0  0
  4  1  1  0  0  0  0
  4  5  1  0  0  0  0
  5  6  1  0  0  0  0
  6  7  1  0  0  0  0
  6  8  2  0  0  0  0
  8  9  1  0  0  0  0
 10 11  1  0  0  0  0
 10  8  1  0  0  0  0
 12 10  2  0  0  0  0
 13 12  1  0  0  0  0
 14  5  2  0  0  0  0
 14 12  1  0  0  0  0
 15 14  1  0  0  0  0
 16  4  1  0  0  0  0
 17 18  1  0  0  0  0
 17 16  1  0  0  0  0
 19 17  2  0  0  0  0
 20 19  1  0  0  0  0
 21 23  2  0  0  0  0
 21 19  1  0  0  0  0
 22 21  1  0  0  0  0
 23 25  1  0  0  0  0
 24 23  1  0  0  0  0
 25 26  1  0  0  0  0
 25 16  2  0  0  0  0
 27 35  1  0  0  0  0
 27 28  1  0  0  0  0
 28 31  1  0  0  0  0
 29 28  1  0  0  0  0
 30 28  1  0  0  0  0
 31 32  1  0  0  0  0
 31 33  1  0  0  0  0
 31 34  1  0  0  0  0
 35 37  1  0  0  0  0
 36 35  2  0  0  0  0
 37 45  1  0  0  0  0
 38 37  1  0  0  0  0
 38 39  1  0  0  0  0
 38 40  1  0  0  0  0
 41 38  1  0  0  0  0
 42 41  1  0  0  0  0
 43 41  1  0  0  0  0
 44 41  1  0  0  0  0
 45 46  1  0  0  0  0
 46 47  2  0  0  0  0
 46 55  1  0  0  0  0
 47 49  1  0  0  0  0
 48 47  1  0  0  0  0
 49 50  1  0  0  0  0
 49 51  2  0  0  0  0
 51 52  1  0  0  0  0
 53 51  1  0  0  0  0
 53 54  1  0  0  0  0
 55 53  2  0  0  0  0
 56 55  1  0  0  0  0
 57 66  1  0  0  0  0
 57 45  1  0  0  0  0
 58 57  2  0  0  0  0
 59 58  1  0  0  0  0
 60 62  2  0  0  0  0
 60 58  1  0  0  0  0
 61 60  1  0  0  0  0
 62 64  1  0  0  0  0
 63 62  1  0  0  0  0
 64 65  1  0  0  0  0
 64 66  2  0  0  0  0
 66 67  1  0  0  0  0
M  END
$$$$
