CSD_code = TIHCAO | q = 0 | S = 0 | Stoichiometry = C6H14Cl2N2Pt | MND = 4
 OpenBabel04212202103D

 25 26  0  0  1  0  0  0  0  0999 V2000
    1.4191    4.2487    1.4656 Pt  0  0  0  0  0  0  0  0  0  0  0  0
    3.0914    5.6156    0.8066 Cl  0  0  0  0  0  0  0  0  0  0  0  0
    0.2381    5.8411    2.5463 Cl  0  0  0  0  0  0  0  0  0  0  0  0
    2.4941    2.7109    0.4832 N   0  0  0  0  0  4  0  0  0  0  0  0
   -0.1112    2.9158    2.0721 N   0  0  0  0  0  4  0  0  0  0  0  0
    2.4467    1.3534    1.0364 C   0  0  2  0  0  0  0  0  0  0  0  0
    0.9948    0.8809    1.2044 C   0  0  0  0  0  0  0  0  0  0  0  0
    0.2436    1.5260    2.3784 C   0  0  1  0  0  0  0  0  0  0  0  0
    1.0701    1.4487    3.6648 C   0  0  0  0  0  0  0  0  0  0  0  0
    2.4703    2.0226    3.4804 C   0  0  0  0  0  0  0  0  0  0  0  0
    3.2026    1.2838    2.3660 C   0  0  0  0  0  0  0  0  0  0  0  0
    2.1818    2.7159   -0.4878 H   0  0  0  0  0  0  0  0  0  0  0  0
    3.4461    3.0879    0.4939 H   0  0  0  0  0  0  0  0  0  0  0  0
   -0.4895    3.3965    2.8932 H   0  0  0  0  0  0  0  0  0  0  0  0
   -0.8285    2.9536    1.3478 H   0  0  0  0  0  0  0  0  0  0  0  0
    2.9363    0.6628    0.3300 H   0  0  0  0  0  0  0  0  0  0  0  0
    0.4454    1.0678    0.2779 H   0  0  0  0  0  0  0  0  0  0  0  0
    1.0090   -0.1981    1.3665 H   0  0  0  0  0  0  0  0  0  0  0  0
   -0.6822    0.9476    2.5337 H   0  0  0  0  0  0  0  0  0  0  0  0
    0.5505    1.9849    4.4604 H   0  0  0  0  0  0  0  0  0  0  0  0
    1.1445    0.3997    3.9602 H   0  0  0  0  0  0  0  0  0  0  0  0
    2.4079    3.0955    3.2414 H   0  0  0  0  0  0  0  0  0  0  0  0
    3.0297    1.9286    4.4107 H   0  0  0  0  0  0  0  0  0  0  0  0
    3.3150    0.2326    2.6409 H   0  0  0  0  0  0  0  0  0  0  0  0
    4.2009    1.7043    2.2355 H   0  0  0  0  0  0  0  0  0  0  0  0
  1  5  1  0  0  0  0
  1  3  1  0  0  0  0
  2  1  1  0  0  0  0
  4 13  1  0  0  0  0
  4  6  1  0  0  0  0
  4  1  1  0  0  0  0
  5  8  1  0  0  0  0
  5 14  1  0  0  0  0
  6 16  1  6  0  0  0
  6  7  1  0  0  0  0
  6 11  1  0  0  0  0
  7 18  1  0  0  0  0
  7  8  1  0  0  0  0
  8 19  1  1  0  0  0
  8  9  1  0  0  0  0
  9 21  1  0  0  0  0
  9 20  1  0  0  0  0
 10  9  1  0  0  0  0
 10 23  1  0  0  0  0
 11 24  1  0  0  0  0
 11 10  1  0  0  0  0
 12  4  1  0  0  0  0
 15  5  1  0  0  0  0
 17  7  1  0  0  0  0
 22 10  1  0  0  0  0
 25 11  1  0  0  0  0
M  END
$$$$
