CSD_code = TIHFAT | q = 0 | S = 0 | Stoichiometry = C23H30Cl2N2Pd | MND = 4
 OpenBabel04212202103D

 58 61  0  0  0  0  0  0  0  0999 V2000
    7.7888    5.6976    3.4315 Pd  0  0  0  0  0  0  0  0  0  0  0  0
    7.7688    3.9714    4.3661 N   0  0  0  0  0  0  0  0  0  0  0  0
    7.5924    7.4336    2.0436 Cl  0  0  0  0  0  0  0  0  0  0  0  0
    9.4291    4.7848    2.5540 N   0  0  0  0  0  0  0  0  0  0  0  0
    5.9626    6.4526    4.4657 Cl  0  0  0  0  0  0  0  0  0  0  0  0
    8.3885    3.0238    3.7407 C   0  0  0  0  0  0  0  0  0  0  0  0
   11.9871    5.0602   -0.1722 C   0  0  0  0  0  0  0  0  0  0  0  0
   11.5074    5.8907   -0.6950 H   0  0  0  0  0  0  0  0  0  0  0  0
   12.2294    4.2919   -0.9093 H   0  0  0  0  0  0  0  0  0  0  0  0
    9.2628    3.4454    2.6587 C   0  0  0  0  0  0  0  0  0  0  0  0
   11.0346    4.4797    0.8253 C   0  0  0  0  0  0  0  0  0  0  0  0
   12.1596    6.9407    2.3114 C   0  0  0  0  0  0  0  0  0  0  0  0
   12.2386    7.9110    2.8045 H   0  0  0  0  0  0  0  0  0  0  0  0
   12.4508    6.1779    3.0380 H   0  0  0  0  0  0  0  0  0  0  0  0
    8.3389    1.5824    4.1494 C   0  0  0  0  0  0  0  0  0  0  0  0
    7.7886    1.4761    5.0815 H   0  0  0  0  0  0  0  0  0  0  0  0
    9.3479    1.1954    4.2861 H   0  0  0  0  0  0  0  0  0  0  0  0
    7.8499    0.9842    3.3811 H   0  0  0  0  0  0  0  0  0  0  0  0
   10.3527    5.2918    1.7396 C   0  0  0  0  0  0  0  0  0  0  0  0
   10.6902    6.7377    1.9184 C   0  0  0  0  0  0  0  0  0  0  0  0
   10.0502    7.1310    2.7196 H   0  0  0  0  0  0  0  0  0  0  0  0
   10.4626    7.3006    1.0116 H   0  0  0  0  0  0  0  0  0  0  0  0
    6.9509    3.7689    5.4827 C   0  0  0  0  0  0  0  0  0  0  0  0
    4.9271    2.9982    6.4924 C   0  0  0  0  0  0  0  0  0  0  0  0
    3.9534    2.5411    6.4173 H   0  0  0  0  0  0  0  0  0  0  0  0
   10.8012    3.1084    0.8661 C   0  0  0  0  0  0  0  0  0  0  0  0
   11.3053    2.4579    0.1664 H   0  0  0  0  0  0  0  0  0  0  0  0
    6.5936    4.0728    7.8280 C   0  0  0  0  0  0  0  0  0  0  0  0
    6.9221    4.4535    8.7844 H   0  0  0  0  0  0  0  0  0  0  0  0
   13.2847    5.5626    0.4727 C   0  0  0  0  0  0  0  0  0  0  0  0
   13.6309    4.8311    1.2069 H   0  0  0  0  0  0  0  0  0  0  0  0
   14.0487    5.6385   -0.3039 H   0  0  0  0  0  0  0  0  0  0  0  0
    7.3832    4.2821    6.7116 C   0  0  0  0  0  0  0  0  0  0  0  0
   13.1318    6.9278    1.1351 C   0  0  0  0  0  0  0  0  0  0  0  0
   14.1131    7.2504    1.4917 H   0  0  0  0  0  0  0  0  0  0  0  0
   12.7998    7.6537    0.3894 H   0  0  0  0  0  0  0  0  0  0  0  0
    8.6616    5.0695    6.7931 C   0  0  0  0  0  0  0  0  0  0  0  0
    8.6398    5.6822    7.6957 H   0  0  0  0  0  0  0  0  0  0  0  0
    8.7172    5.7513    5.9192 H   0  0  0  0  0  0  0  0  0  0  0  0
    9.9050    4.1790    6.8236 C   0  0  0  0  0  0  0  0  0  0  0  0
   10.7999    4.7872    6.9337 H   0  0  0  0  0  0  0  0  0  0  0  0
    9.9958    3.6011    5.9061 H   0  0  0  0  0  0  0  0  0  0  0  0
    9.8517    3.4875    7.6623 H   0  0  0  0  0  0  0  0  0  0  0  0
    9.9579    2.5750    1.8209 C   0  0  0  0  0  0  0  0  0  0  0  0
    9.8164    1.5095    1.8985 H   0  0  0  0  0  0  0  0  0  0  0  0
    5.6857    3.1809    5.3475 C   0  0  0  0  0  0  0  0  0  0  0  0
    5.3780    3.4075    7.7392 C   0  0  0  0  0  0  0  0  0  0  0  0
    5.1721    2.8724    3.9633 C   0  0  0  0  0  0  0  0  0  0  0  0
    5.5412    3.6638    3.2891 H   0  0  0  0  0  0  0  0  0  0  0  0
    5.5830    1.9199    3.6118 H   0  0  0  0  0  0  0  0  0  0  0  0
    3.6526    2.8291    3.8550 C   0  0  0  0  0  0  0  0  0  0  0  0
    3.3634    2.7519    2.8093 H   0  0  0  0  0  0  0  0  0  0  0  0
    3.2245    3.7407    4.2632 H   0  0  0  0  0  0  0  0  0  0  0  0
    3.2390    1.9722    4.3822 H   0  0  0  0  0  0  0  0  0  0  0  0
    4.5464    3.1949    8.9673 C   0  0  0  0  0  0  0  0  0  0  0  0
    3.6983    2.5481    8.7585 H   0  0  0  0  0  0  0  0  0  0  0  0
    4.1690    4.1499    9.3311 H   0  0  0  0  0  0  0  0  0  0  0  0
    5.1423    2.7485    9.7617 H   0  0  0  0  0  0  0  0  0  0  0  0
  1  2  1  0  0  0  0
  1  5  1  0  0  0  0
  2 23  1  0  0  0  0
  3  1  1  0  0  0  0
  4 10  1  0  0  0  0
  4  1  1  0  0  0  0
  6 15  1  0  0  0  0
  6  2  1  0  0  0  0
  7 30  1  0  0  0  0
  7 11  1  0  0  0  0
  8  7  1  0  0  0  0
  9  7  1  0  0  0  0
 10  6  2  0  0  0  0
 11 26  1  0  0  0  0
 11 19  2  0  0  0  0
 12 13  1  0  0  0  0
 12 14  1  0  0  0  0
 15 17  1  0  0  0  0
 15 16  1  0  0  0  0
 18 15  1  0  0  0  0
 19 20  1  0  0  0  0
 19  4  1  0  0  0  0
 20 12  1  0  0  0  0
 20 21  1  0  0  0  0
 22 20  1  0  0  0  0
 23 33  1  0  0  0  0
 24 47  2  0  0  0  0
 25 24  1  0  0  0  0
 26 44  2  0  0  0  0
 27 26  1  0  0  0  0
 28 29  1  0  0  0  0
 30 34  1  0  0  0  0
 30 31  1  0  0  0  0
 32 30  1  0  0  0  0
 33 37  1  0  0  0  0
 33 28  2  0  0  0  0
 34 35  1  0  0  0  0
 34 12  1  0  0  0  0
 36 34  1  0  0  0  0
 37 40  1  0  0  0  0
 37 38  1  0  0  0  0
 39 37  1  0  0  0  0
 40 41  1  0  0  0  0
 40 43  1  0  0  0  0
 42 40  1  0  0  0  0
 44 45  1  0  0  0  0
 44 10  1  0  0  0  0
 46 23  2  0  0  0  0
 46 24  1  0  0  0  0
 47 28  1  0  0  0  0
 47 55  1  0  0  0  0
 48 46  1  0  0  0  0
 49 48  1  0  0  0  0
 50 48  1  0  0  0  0
 51 48  1  0  0  0  0
 51 53  1  0  0  0  0
 51 54  1  0  0  0  0
 52 51  1  0  0  0  0
 55 57  1  0  0  0  0
 55 58  1  0  0  0  0
 56 55  1  0  0  0  0
M  END
$$$$
