CSD_code = TIHMOP | q = -1 | S = 0 | Stoichiometry = C12H10BrZn(1-) | MND = 3
 OpenBabel04212202103D

 24 25  0  0  0  0  0  0  0  0999 V2000
   10.4844    1.2805    8.1964 Zn  0  0  0  0  0  0  0  0  0  0  0  0
   10.3249    2.9204   10.0489 Br  0  0  0  0  0  0  0  0  0  0  0  0
    9.5022   -0.4780    8.5946 C   0  0  0  0  0  0  0  0  0  0  0  0
   11.9980    3.3097    6.5166 C   0  0  0  0  0  0  0  0  0  0  0  0
   11.7875    3.9878    7.3358 H   0  0  0  0  0  0  0  0  0  0  0  0
    9.2771   -1.4403    7.6065 C   0  0  0  0  0  0  0  0  0  0  0  0
    9.6298   -1.2558    6.5974 H   0  0  0  0  0  0  0  0  0  0  0  0
    8.6148   -2.6302    7.8592 C   0  0  0  0  0  0  0  0  0  0  0  0
    8.4614   -3.3477    7.0596 H   0  0  0  0  0  0  0  0  0  0  0  0
    8.3498   -1.9786   10.1372 C   0  0  0  0  0  0  0  0  0  0  0  0
    7.9873   -2.1800   11.1394 H   0  0  0  0  0  0  0  0  0  0  0  0
   11.5521    1.9869    6.5911 C   0  0  0  0  0  0  0  0  0  0  0  0
   11.8719    1.1802    5.4954 C   0  0  0  0  0  0  0  0  0  0  0  0
   11.5588    0.1415    5.4921 H   0  0  0  0  0  0  0  0  0  0  0  0
   12.5809    1.6510    4.4026 C   0  0  0  0  0  0  0  0  0  0  0  0
   12.8067    0.9879    3.5738 H   0  0  0  0  0  0  0  0  0  0  0  0
   13.0027    2.9683    4.3650 C   0  0  0  0  0  0  0  0  0  0  0  0
   13.5570    3.3437    3.5123 H   0  0  0  0  0  0  0  0  0  0  0  0
   12.7076    3.7981    5.4317 C   0  0  0  0  0  0  0  0  0  0  0  0
   13.0327    4.8327    5.4182 H   0  0  0  0  0  0  0  0  0  0  0  0
    8.1468   -2.9063    9.1315 C   0  0  0  0  0  0  0  0  0  0  0  0
    7.6275   -3.8358    9.3361 H   0  0  0  0  0  0  0  0  0  0  0  0
    9.0131   -0.7931    9.8656 C   0  0  0  0  0  0  0  0  0  0  0  0
    9.1500   -0.0875   10.6771 H   0  0  0  0  0  0  0  0  0  0  0  0
  1  3  1  0  0  0  0
  1  2  1  0  0  0  0
  3 23  1  0  0  0  0
  4 12  1  0  0  0  0
  4  5  1  0  0  0  0
  6  8  1  0  0  0  0
  6  3  2  0  0  0  0
  7  6  1  0  0  0  0
  8 21  2  0  0  0  0
  9  8  1  0  0  0  0
 10 11  1  0  0  0  0
 12  1  1  0  0  0  0
 13 12  2  0  0  0  0
 14 13  1  0  0  0  0
 15 13  1  0  0  0  0
 16 15  1  0  0  0  0
 17 15  2  0  0  0  0
 17 19  1  0  0  0  0
 18 17  1  0  0  0  0
 19  4  2  0  0  0  0
 20 19  1  0  0  0  0
 21 22  1  0  0  0  0
 21 10  1  0  0  0  0
 23 10  2  0  0  0  0
 23 24  1  0  0  0  0
M  END
$$$$
