CSD_code = TIHPOR | q = 0 | S = 0 | Stoichiometry = C28H20AsI2NO3W | MND = 7
 OpenBabel04212202103D

 56 58  0  0  0  0  0  0  0  0999 V2000
    0.6691    1.2146   18.6296 W   0  0  0  0  0  0  0  0  0  0  0  0
   -1.5224   -0.1531   18.5038 As  0  0  0  0  0  0  0  0  0  0  0  0
    0.8190   -0.2309   21.0400 I   0  0  0  0  0 15  0  0  0  0  0  0
    2.6398    2.9410   19.6348 I   0  0  0  0  0  0  0  0  0  0  0  0
    0.3380    3.2343   16.2055 O   0  0  0  0  0  0  0  0  0  0  0  0
    2.9431   -0.4584   17.2047 O   0  0  0  0  0  1  0  0  0  0  0  0
    0.3050    0.3453   15.6091 O   0  0  0  0  0  0  0  0  0  0  0  0
   -0.6871    2.4107   19.6577 N   0  0  0  0  0  2  0  0  0  0  0  0
   -2.7870   -0.8005   21.0661 C   0  0  0  0  0  0  0  0  0  0  0  0
   -2.0815   -1.6252   21.0924 H   0  0  0  0  0  0  0  0  0  0  0  0
   -3.6210   -0.5679   22.1456 C   0  0  0  0  0  0  0  0  0  0  0  0
   -3.5622   -1.2092   23.0117 H   0  0  0  0  0  0  0  0  0  0  0  0
   -4.5174    0.4880   22.1195 C   0  0  0  0  0  0  0  0  0  0  0  0
   -5.1597    0.6746   22.9667 H   0  0  0  0  0  0  0  0  0  0  0  0
   -4.5934    1.3026   21.0025 C   0  0  0  0  0  0  0  0  0  0  0  0
   -5.2983    2.1208   20.9746 H   0  0  0  0  0  0  0  0  0  0  0  0
   -3.7567    1.0775   19.9227 C   0  0  0  0  0  0  0  0  0  0  0  0
   -3.8197    1.7178   19.0474 H   0  0  0  0  0  0  0  0  0  0  0  0
   -2.8439    0.0257   19.9449 C   0  0  0  0  0  0  0  0  0  0  0  0
   -0.1848   -2.6576   17.9808 C   0  0  0  0  0  0  0  0  0  0  0  0
    0.6923   -2.0250   17.8457 H   0  0  0  0  0  0  0  0  0  0  0  0
   -0.0812   -4.0284   17.8146 C   0  0  0  0  0  0  0  0  0  0  0  0
    0.8686   -4.4686   17.5511 H   0  0  0  0  0  0  0  0  0  0  0  0
   -1.1965   -4.8296   17.9912 C   0  0  0  0  0  0  0  0  0  0  0  0
   -1.1164   -5.8985   17.8643 H   0  0  0  0  0  0  0  0  0  0  0  0
   -2.4152   -4.2644   18.3345 C   0  0  0  0  0  0  0  0  0  0  0  0
   -3.2830   -4.8923   18.4733 H   0  0  0  0  0  0  0  0  0  0  0  0
   -2.5213   -2.8954   18.5019 C   0  0  0  0  0  0  0  0  0  0  0  0
   -3.4708   -2.4402   18.7766 H   0  0  0  0  0  0  0  0  0  0  0  0
   -1.4025   -2.0836   18.3237 C   0  0  0  0  0  0  0  0  0  0  0  0
   -3.2151   -0.5242   16.1132 C   0  0  0  0  0  0  0  0  0  0  0  0
   -3.1475   -1.5892   16.3111 H   0  0  0  0  0  0  0  0  0  0  0  0
   -3.8930   -0.0637   14.9964 C   0  0  0  0  0  0  0  0  0  0  0  0
   -4.3602   -0.7693   14.3254 H   0  0  0  0  0  0  0  0  0  0  0  0
   -3.9595    1.2933   14.7313 C   0  0  0  0  0  0  0  0  0  0  0  0
   -4.4784    1.6479   13.8537 H   0  0  0  0  0  0  0  0  0  0  0  0
   -3.3470    2.1979   15.5835 C   0  0  0  0  0  0  0  0  0  0  0  0
   -3.3845    3.2566   15.3729 H   0  0  0  0  0  0  0  0  0  0  0  0
   -2.6663    1.7383   16.6952 C   0  0  0  0  0  0  0  0  0  0  0  0
   -2.1642    2.4509   17.3527 H   0  0  0  0  0  0  0  0  0  0  0  0
   -2.5987    0.3753   16.9729 C   0  0  0  0  0  0  0  0  0  0  0  0
    0.5175    2.4359   17.0552 C   0  0  0  0  0  0  0  0  0  0  0  0
    2.1384    0.1220   17.8037 C   0  0  0  0  0  2  0  0  0  0  0  0
    0.4482    0.7911   16.7016 C   0  0  0  0  0  0  0  0  0  0  0  0
   -1.2832    2.9009   20.5292 C   0  0  0  0  0  2  0  0  0  0  0  0
   -1.8296    2.7088   22.8518 C   0  0  0  0  0  0  0  0  0  0  0  0
   -1.1022    1.9153   22.9374 H   0  0  0  0  0  0  0  0  0  0  0  0
   -2.5767    3.1071   23.9400 C   0  0  0  0  0  0  0  0  0  0  0  0
   -2.4299    2.6182   24.8904 H   0  0  0  0  0  0  0  0  0  0  0  0
   -3.5085    4.1280   23.8170 C   0  0  0  0  0  0  0  0  0  0  0  0
   -4.0886    4.4332   24.6744 H   0  0  0  0  0  0  0  0  0  0  0  0
   -3.6956    4.7637   22.5975 C   0  0  0  0  0  0  0  0  0  0  0  0
   -4.4185    5.5606   22.5084 H   0  0  0  0  0  0  0  0  0  0  0  0
   -2.9582    4.3853   21.4951 C   0  0  0  0  0  0  0  0  0  0  0  0
   -3.0945    4.8752   20.5425 H   0  0  0  0  0  0  0  0  0  0  0  0
   -2.0231    3.3511   21.6194 C   0  0  0  0  0  0  0  0  0  0  0  0
  1  4  1  0  0  0  0
  1  8  1  0  0  0  0
  2 19  1  0  0  0  0
  5 42  2  0  0  0  0
  6 43  1  0  0  0  0
  7 44  2  0  0  0  0
  8 45  1  0  0  0  0
  9 10  1  0  0  0  0
  9 11  1  0  0  0  0
 11 12  1  0  0  0  0
 13 11  2  0  0  0  0
 13 14  1  0  0  0  0
 15 13  1  0  0  0  0
 16 15  1  0  0  0  0
 17 19  1  0  0  0  0
 17 15  2  0  0  0  0
 18 17  1  0  0  0  0
 19  9  2  0  0  0  0
 20 30  1  0  0  0  0
 21 20  1  0  0  0  0
 22 20  2  0  0  0  0
 22 24  1  0  0  0  0
 23 22  1  0  0  0  0
 24 26  2  0  0  0  0
 25 24  1  0  0  0  0
 26 27  1  0  0  0  0
 26 28  1  0  0  0  0
 28 29  1  0  0  0  0
 30 28  2  0  0  0  0
 30  2  1  0  0  0  0
 31 32  1  0  0  0  0
 31 41  1  0  0  0  0
 33 31  2  0  0  0  0
 34 33  1  0  0  0  0
 35 33  1  0  0  0  0
 35 37  2  0  0  0  0
 36 35  1  0  0  0  0
 37 39  1  0  0  0  0
 38 37  1  0  0  0  0
 39 41  2  0  0  0  0
 39 40  1  0  0  0  0
 41  2  1  0  0  0  0
 42  1  1  0  0  0  0
 43  1  1  0  0  0  0
 44 42  1  0  0  0  0
 44  1  1  0  0  0  0
 45 56  1  0  0  0  0
 46 47  1  0  0  0  0
 46 48  1  0  0  0  0
 48 49  1  0  0  0  0
 50 48  2  0  0  0  0
 50 51  1  0  0  0  0
 52 50  1  0  0  0  0
 53 52  1  0  0  0  0
 54 56  1  0  0  0  0
 54 52  2  0  0  0  0
 55 54  1  0  0  0  0
 56 46  2  0  0  0  0
M  END
$$$$
