CSD_code = TIHPEH | q = 0 | S = 0 | Stoichiometry = C11H15AuClNOSi | MND = 2
 OpenBabel04212202103D

 31 31  0  0  0  0  0  0  0  0999 V2000
   -0.1249    5.9803   16.7241 C   0  0  0  0  0  0  0  0  0  0  0  0
   -2.0765    7.4368   16.0775 C   0  0  0  0  0  0  0  0  0  0  0  0
   -2.5990    8.2956   17.0457 C   0  0  0  0  0  0  0  0  0  0  0  0
   -2.1727    8.2950   18.0374 H   0  0  0  0  0  0  0  0  0  0  0  0
   -3.6436    9.1353   16.7175 C   0  0  0  0  0  0  0  0  0  0  0  0
   -4.0471    9.8037   17.4621 H   0  0  0  0  0  0  0  0  0  0  0  0
   -4.1664    9.1204   15.4328 C   0  0  0  0  0  0  0  0  0  0  0  0
   -4.9790    9.7817   15.1745 H   0  0  0  0  0  0  0  0  0  0  0  0
   -3.6489    8.2595   14.4807 C   0  0  0  0  0  0  0  0  0  0  0  0
   -4.0496    8.2512   13.4787 H   0  0  0  0  0  0  0  0  0  0  0  0
   -2.6026    7.3995   14.7816 C   0  0  0  0  0  0  0  0  0  0  0  0
   -2.0202    6.5224   13.7047 C   0  0  0  0  0  0  0  0  0  0  0  0
   -1.3505    5.7692   14.1354 H   0  0  0  0  0  0  0  0  0  0  0  0
   -2.8299    6.0088   13.1732 H   0  0  0  0  0  0  0  0  0  0  0  0
    0.0149    9.5010   14.1582 C   0  0  0  0  0  0  0  0  0  0  0  0
   -0.9313   10.0325   14.0974 H   0  0  0  0  0  0  0  0  0  0  0  0
    0.8054   10.2243   13.9871 H   0  0  0  0  0  0  0  0  0  0  0  0
    0.1251    9.1442   15.1793 H   0  0  0  0  0  0  0  0  0  0  0  0
    1.4990    6.8875   13.3885 C   0  0  0  0  0  0  0  0  0  0  0  0
    1.3891    6.5364   14.4132 H   0  0  0  0  0  0  0  0  0  0  0  0
    2.4719    7.3621   13.3173 H   0  0  0  0  0  0  0  0  0  0  0  0
    1.5184    6.0113   12.7460 H   0  0  0  0  0  0  0  0  0  0  0  0
    0.3012    8.7386   11.1186 C   0  0  0  0  0  0  0  0  0  0  0  0
    0.3336    7.9321   10.3938 H   0  0  0  0  0  0  0  0  0  0  0  0
    1.2234    9.3018   11.0286 H   0  0  0  0  0  0  0  0  0  0  0  0
   -0.5168    9.3958   10.8430 H   0  0  0  0  0  0  0  0  0  0  0  0
   -1.0342    6.6395   16.4173 N   0  0  0  0  0  2  0  0  0  0  0  0
   -1.3384    7.2883   12.7525 O   0  0  0  0  0  0  0  0  0  0  0  0
    0.0983    8.0781   12.8838 Si  0  0  0  0  0  0  0  0  0  0  0  0
    3.1068    3.6786   17.6198 Cl  0  0  0  0  0  0  0  0  0  0  0  0
    1.3533    4.9245   17.1447 Au  0  0  0  0  0  0  0  0  0  0  0  0
  1 31  3  0  0  0  0
  2 27  1  0  0  0  0
  2  3  1  0  0  0  0
  3  4  1  0  0  0  0
  5  3  2  0  0  0  0
  5  6  1  0  0  0  0
  7  5  1  0  0  0  0
  8  7  1  0  0  0  0
  9 11  1  0  0  0  0
  9  7  2  0  0  0  0
 10  9  1  0  0  0  0
 11  2  2  0  0  0  0
 12 13  1  0  0  0  0
 12 11  1  0  0  0  0
 14 12  1  0  0  0  0
 15 18  1  0  0  0  0
 16 15  1  0  0  0  0
 17 15  1  0  0  0  0
 19 20  1  0  0  0  0
 21 19  1  0  0  0  0
 22 19  1  0  0  0  0
 23 29  1  0  0  0  0
 24 23  1  0  0  0  0
 25 23  1  0  0  0  0
 26 23  1  0  0  0  0
 27  1  1  0  0  0  0
 28 29  1  0  0  0  0
 28 12  1  0  0  0  0
 29 19  1  0  0  0  0
 29 15  1  0  0  0  0
 31 30  1  0  0  0  0
M  END
$$$$
