CSD_code = TIHQUY | q = 0 | S = 0 | Stoichiometry = C16H16ClN2PPdS | MND = 4
 OpenBabel04212202103D

 38 41  0  0  1  0  0  0  0  0999 V2000
    6.0960   16.8696    3.3103 C   0  0  0  0  0  0  0  0  0  0  0  0
    7.2173   17.6467    3.5985 C   0  0  0  0  0  0  0  0  0  0  0  0
    8.2095   17.1750    3.5985 H   0  0  0  0  0  0  0  0  0  0  0  0
    7.0757   18.9967    3.8596 C   0  0  0  0  0  0  0  0  0  0  0  0
    7.9441   19.5982    4.0816 H   0  0  0  0  0  0  0  0  0  0  0  0
    5.8168   19.5775    3.8265 C   0  0  0  0  0  0  0  0  0  0  0  0
    5.7050   20.6329    4.0254 H   0  0  0  0  0  0  0  0  0  0  0  0
    4.7026   18.8100    3.5293 C   0  0  0  0  0  0  0  0  0  0  0  0
    3.7246   19.2672    3.4954 H   0  0  0  0  0  0  0  0  0  0  0  0
    4.8372   17.4565    3.2711 C   0  0  0  0  0  0  0  0  0  0  0  0
    3.9685   16.8609    3.0277 H   0  0  0  0  0  0  0  0  0  0  0  0
    4.9256   14.5048    2.1909 C   0  0  0  0  0  0  0  0  0  0  0  0
    5.0401   14.3596    0.8111 C   0  0  0  0  0  0  0  0  0  0  0  0
    5.9928   14.5699    0.3427 H   0  0  0  0  0  0  0  0  0  0  0  0
    3.9579   13.9407    0.0597 C   0  0  0  0  0  0  0  0  0  0  0  0
    4.0526   13.8299   -1.0101 H   0  0  0  0  0  0  0  0  0  0  0  0
    2.7544   13.6551    0.6840 C   0  0  0  0  0  0  0  0  0  0  0  0
    1.9077   13.3234    0.1019 H   0  0  0  0  0  0  0  0  0  0  0  0
    2.6377   13.7873    2.0582 C   0  0  0  0  0  0  0  0  0  0  0  0
    1.7007   13.5594    2.5451 H   0  0  0  0  0  0  0  0  0  0  0  0
    3.7169   14.2114    2.8133 C   0  0  0  0  0  0  0  0  0  0  0  0
    3.6083   14.3074    3.8844 H   0  0  0  0  0  0  0  0  0  0  0  0
    7.2462   14.0551    5.3504 C   0  0  2  0  0  3  0  0  0  0  0  0
    8.8293   13.1797    6.9668 C   0  0  0  0  0  0  0  0  0  0  0  0
    9.3172   12.7876    7.8343 H   0  0  0  0  0  0  0  0  0  0  0  0
    9.3441   13.4811    5.7558 C   0  0  0  0  0  0  0  0  0  0  0  0
   10.3722   13.3794    5.4511 H   0  0  0  0  0  0  0  0  0  0  0  0
    8.8247   15.5950    0.8994 C   0  0  0  0  0  0  0  0  0  0  0  0
    7.9715   16.2262    0.6202 H   0  0  0  0  0  0  0  0  0  0  0  0
    8.8876   14.7314    0.2211 H   0  0  0  0  0  0  0  0  0  0  0  0
    9.7457   16.1775    0.8117 H   0  0  0  0  0  0  0  0  0  0  0  0
    6.1690   14.4867    4.6415 N   0  0  0  0  0  0  0  0  0  0  0  0
    5.3166   14.6508    5.1618 H   0  0  0  0  0  0  0  0  0  0  0  0
    8.4462   13.9726    4.8590 N   0  0  0  0  0  0  0  0  0  0  0  0
    6.4226   15.0893    3.0436 P   0  0  0  0  0  4  0  0  0  0  0  0
    7.1281   13.5208    7.0079 S   0  0  0  0  0  0  0  0  0  0  0  0
   10.8572   14.7633    2.9349 Cl  0  0  0  0  0  0  0  0  0  0  0  0
    8.6419   14.8362    2.7960 Pd  0  0  2  0  0  0  0  0  0  0  0  0
  1  2  1  0  0  0  0
  2  3  1  0  0  0  0
  2  4  2  0  0  0  0
  4  5  1  0  0  0  0
  6  4  1  0  0  0  0
  6  7  1  0  0  0  0
  8  6  2  0  0  0  0
  9  8  1  0  0  0  0
 10  1  2  0  0  0  0
 10  8  1  0  0  0  0
 11 10  1  0  0  0  0
 12 21  1  0  0  0  0
 12 35  1  0  0  0  0
 13 12  2  0  0  0  0
 14 13  1  0  0  0  0
 15 17  2  0  0  0  0
 15 13  1  0  0  0  0
 16 15  1  0  0  0  0
 17 19  1  0  0  0  0
 18 17  1  0  0  0  0
 19 20  1  0  0  0  0
 19 21  2  0  0  0  0
 21 22  1  0  0  0  0
 23 36  1  6  0  0  0
 24 36  1  0  0  0  0
 24 25  1  0  0  0  0
 26 24  2  0  0  0  0
 27 26  1  0  0  0  0
 28 38  1  0  0  0  0
 29 28  1  0  0  0  0
 30 28  1  0  0  0  0
 31 28  1  0  0  0  0
 32 33  1  0  0  0  0
 32 23  1  0  0  0  0
 34 23  1  0  0  0  0
 34 26  1  0  0  0  0
 35  1  1  0  0  0  0
 35 32  1  0  0  0  0
 38 37  1  1  0  0  0
 38 35  1  0  0  0  0
 38 34  1  0  0  0  0
M  END
$$$$
