CSD_code = TIHRUX | q = 0 | S = 0 | Stoichiometry = C20H32Cl4P4Ti | MND = 8
 OpenBabel04212202103D

 61 62  0  0  0  0  0  0  0  0999 V2000
    0.0000    4.5357   12.0778 Ti  0  0  0  0  0  0  0  0  0  0  0  0
    1.5986    6.1331   12.8299 Cl  0  0  0  0  0  0  0  0  0  0  0  0
    1.1043    3.4376   14.0550 P   0  0  0  0  0  4  0  0  0  0  0  0
    2.9180    3.6184   14.2898 C   0  0  0  0  0  0  0  0  0  0  0  0
    0.9311    1.6235   14.2927 C   0  0  0  0  0  0  0  0  0  0  0  0
    0.4960    4.0453   15.6782 C   0  0  0  0  0  0  0  0  0  0  0  0
    0.9858    3.5638   16.8874 C   0  0  0  0  0  0  0  0  0  0  0  0
    0.4940    4.0496   18.0840 C   0  0  0  0  0  0  0  0  0  0  0  0
    3.2590    2.9809   15.1048 H   0  0  0  0  0  0  0  0  0  0  0  0
    3.4165    3.3270   13.3650 H   0  0  0  0  0  0  0  0  0  0  0  0
    3.1534    4.6581   14.5123 H   0  0  0  0  0  0  0  0  0  0  0  0
    1.5379    1.2935   15.1353 H   0  0  0  0  0  0  0  0  0  0  0  0
   -0.1143    1.3783   14.4744 H   0  0  0  0  0  0  0  0  0  0  0  0
    1.2652    1.1236   13.3832 H   0  0  0  0  0  0  0  0  0  0  0  0
    1.7559    2.8056   16.8991 H   0  0  0  0  0  0  0  0  0  0  0  0
    0.8795    3.6708   19.0195 H   0  0  0  0  0  0  0  0  0  0  0  0
   -1.5980    2.9379   12.8300 Cl  0  0  0  0  0  0  0  0  0  0  0  0
    1.5989    2.9380   11.3259 Cl  0  0  0  0  0  0  0  0  0  0  0  0
   -1.5982    6.1336   11.3257 Cl  0  0  0  0  0  0  0  0  0  0  0  0
   -0.4960    5.0263   15.6782 C   0  0  0  0  0  0  0  0  0  0  0  0
   -1.1044    5.6340   14.0550 P   0  0  0  0  0  4  0  0  0  0  0  0
   -1.0988    3.4316   10.1004 P   0  0  0  0  0  0  0  0  0  0  0  0
   -0.9181    1.6179    9.8658 C   0  0  0  0  0  0  0  0  0  0  0  0
   -1.5551    1.2772    9.0501 H   0  0  0  0  0  0  0  0  0  0  0  0
   -1.2106    1.1193   10.7902 H   0  0  0  0  0  0  0  0  0  0  0  0
    0.1217    1.3821    9.6441 H   0  0  0  0  0  0  0  0  0  0  0  0
   -2.9127    3.6058    9.8629 C   0  0  0  0  0  0  0  0  0  0  0  0
   -3.2433    2.9972    9.0218 H   0  0  0  0  0  0  0  0  0  0  0  0
   -3.1571    4.6508    9.6787 H   0  0  0  0  0  0  0  0  0  0  0  0
   -3.4126    3.2741   10.7733 H   0  0  0  0  0  0  0  0  0  0  0  0
   -0.4907    4.0399    8.4774 C   0  0  0  0  0  0  0  0  0  0  0  0
    0.4907    5.0316    8.4774 C   0  0  0  0  0  0  0  0  0  0  0  0
    1.0987    5.6401   10.1004 P   0  0  0  0  0  0  0  0  0  0  0  0
    0.9180    7.4538    9.8657 C   0  0  0  0  0  0  0  0  0  0  0  0
    1.5550    7.7944    9.0501 H   0  0  0  0  0  0  0  0  0  0  0  0
    1.2104    7.9523   10.7902 H   0  0  0  0  0  0  0  0  0  0  0  0
   -0.1218    7.6895    9.6440 H   0  0  0  0  0  0  0  0  0  0  0  0
    2.9126    5.4659    9.8629 C   0  0  0  0  0  0  0  0  0  0  0  0
    3.2432    6.0744    9.0219 H   0  0  0  0  0  0  0  0  0  0  0  0
    3.1570    4.4208    9.6788 H   0  0  0  0  0  0  0  0  0  0  0  0
    3.4126    5.7976   10.7733 H   0  0  0  0  0  0  0  0  0  0  0  0
    0.9724    5.5212    7.2682 C   0  0  0  0  0  0  0  0  0  0  0  0
    0.4864    5.0296    6.0716 C   0  0  0  0  0  0  0  0  0  0  0  0
   -0.4864    4.0420    6.0716 C   0  0  0  0  0  0  0  0  0  0  0  0
   -0.9724    3.5504    7.2682 C   0  0  0  0  0  0  0  0  0  0  0  0
   -1.7309    2.7806    7.2565 H   0  0  0  0  0  0  0  0  0  0  0  0
   -0.8654    3.6567    5.1361 H   0  0  0  0  0  0  0  0  0  0  0  0
    0.8654    5.4150    5.1361 H   0  0  0  0  0  0  0  0  0  0  0  0
    1.7309    6.2910    7.2565 H   0  0  0  0  0  0  0  0  0  0  0  0
   -2.9181    5.4532   14.2898 C   0  0  0  0  0  0  0  0  0  0  0  0
   -3.2591    6.0908   15.1048 H   0  0  0  0  0  0  0  0  0  0  0  0
   -3.4166    5.7447   13.3650 H   0  0  0  0  0  0  0  0  0  0  0  0
   -3.1535    4.4135   14.5123 H   0  0  0  0  0  0  0  0  0  0  0  0
   -0.9311    7.4481   14.2927 C   0  0  0  0  0  0  0  0  0  0  0  0
   -1.5380    7.7781   15.1353 H   0  0  0  0  0  0  0  0  0  0  0  0
    0.1142    7.6933   14.4745 H   0  0  0  0  0  0  0  0  0  0  0  0
   -1.2652    7.9479   13.3832 H   0  0  0  0  0  0  0  0  0  0  0  0
   -0.9858    5.5078   16.8874 C   0  0  0  0  0  0  0  0  0  0  0  0
   -0.4940    5.0220   18.0840 C   0  0  0  0  0  0  0  0  0  0  0  0
   -0.8795    5.4008   19.0195 H   0  0  0  0  0  0  0  0  0  0  0  0
   -1.7559    6.2660   16.8990 H   0  0  0  0  0  0  0  0  0  0  0  0
  1  2  1  0  0  0  0
  1 17  1  0  0  0  0
  1  3  1  0  0  0  0
  1 21  1  0  0  0  0
  3  4  1  0  0  0  0
  3  5  1  0  0  0  0
  3  6  1  0  0  0  0
  4 11  1  0  0  0  0
  4  9  1  0  0  0  0
  5 13  1  0  0  0  0
  5 12  1  0  0  0  0
  6  7  1  0  0  0  0
  7 15  1  0  0  0  0
  7  8  2  0  0  0  0
  8 16  1  0  0  0  0
 10  4  1  0  0  0  0
 14  5  1  0  0  0  0
 18  1  1  0  0  0  0
 19  1  1  0  0  0  0
 20  6  2  0  0  0  0
 20 58  1  0  0  0  0
 21 50  1  0  0  0  0
 21 54  1  0  0  0  0
 21 20  1  0  0  0  0
 23 22  1  0  0  0  0
 23 25  1  0  0  0  0
 24 23  1  0  0  0  0
 26 23  1  0  0  0  0
 27 22  1  0  0  0  0
 27 30  1  0  0  0  0
 28 27  1  0  0  0  0
 29 27  1  0  0  0  0
 31 32  1  0  0  0  0
 31 22  1  0  0  0  0
 32 33  1  0  0  0  0
 34 33  1  0  0  0  0
 34 36  1  0  0  0  0
 35 34  1  0  0  0  0
 37 34  1  0  0  0  0
 38 33  1  0  0  0  0
 38 41  1  0  0  0  0
 39 38  1  0  0  0  0
 40 38  1  0  0  0  0
 42 32  2  0  0  0  0
 43 42  1  0  0  0  0
 44 43  2  0  0  0  0
 44 45  1  0  0  0  0
 45 31  2  0  0  0  0
 46 45  1  0  0  0  0
 47 44  1  0  0  0  0
 48 43  1  0  0  0  0
 49 42  1  0  0  0  0
 50 53  1  0  0  0  0
 50 51  1  0  0  0  0
 52 50  1  0  0  0  0
 54 56  1  0  0  0  0
 54 55  1  0  0  0  0
 57 54  1  0  0  0  0
 58 61  1  0  0  0  0
 58 59  2  0  0  0  0
 59  8  1  0  0  0  0
 59 60  1  0  0  0  0
M  END
$$$$
