CSD_code = TIHRIL | q = 0 | S = 0 | Stoichiometry = C29H28Cl2O4P2Pt | MND = 4
 OpenBabel04212202103D

 66 71  0  0  1  0  0  0  0  0999 V2000
   -2.3223    0.8078   18.2404 Pt  0  0  0  0  0  0  0  0  0  0  0  0
   -2.9783    1.0534   20.4288 Cl  0  0  0  0  0  0  0  0  0  0  0  0
   -4.4799    0.4161   17.5751 Cl  0  0  0  0  0  0  0  0  0  0  0  0
   -1.2897    0.6415   16.1994 P   0  0  0  0  0  4  0  0  0  0  0  0
   -0.2370    1.0317   19.1001 P   0  0  0  0  0  4  0  0  0  0  0  0
   -1.6078   -0.3614   14.9968 O   0  0  0  0  0  0  0  0  0  0  0  0
   -1.1795    1.9688   15.3270 O   0  0  0  0  0  0  0  0  0  0  0  0
    0.2204    2.0649   20.2278 O   0  0  0  0  0  0  0  0  0  0  0  0
    0.3122   -0.3325   19.7169 O   0  0  0  0  0  0  0  0  0  0  0  0
    0.4901    0.3123   16.6065 C   0  0  2  0  0  0  0  0  0  0  0  0
    0.5430   -0.7075   17.0124 H   0  0  0  0  0  0  0  0  0  0  0  0
    0.9198    1.2891   17.6976 C   0  0  2  0  0  0  0  0  0  0  0  0
    0.7552    2.3164   17.3437 H   0  0  0  0  0  0  0  0  0  0  0  0
    2.4137    1.0160   17.8144 C   0  0  0  0  0  0  0  0  0  0  0  0
    2.5697    0.1159   18.4107 H   0  0  0  0  0  0  0  0  0  0  0  0
    2.9524    1.8359   18.2862 H   0  0  0  0  0  0  0  0  0  0  0  0
    2.8533    0.7875   16.3526 C   0  0  0  0  0  0  0  0  0  0  0  0
    3.3562    1.6711   15.9609 H   0  0  0  0  0  0  0  0  0  0  0  0
    3.5530   -0.0448   16.2886 H   0  0  0  0  0  0  0  0  0  0  0  0
    1.5687    0.4966   15.5433 C   0  0  0  0  0  0  0  0  0  0  0  0
    1.6776   -0.3799   14.9072 H   0  0  0  0  0  0  0  0  0  0  0  0
    1.3105    1.3439   14.9062 H   0  0  0  0  0  0  0  0  0  0  0  0
   -1.8218   -1.7172   15.2403 C   0  0  0  0  0  0  0  0  0  0  0  0
   -3.0028   -2.1451   15.8253 C   0  0  0  0  0  0  0  0  0  0  0  0
   -3.7448   -1.4161   16.1197 H   0  0  0  0  0  0  0  0  0  0  0  0
   -3.2019   -3.5001   16.0302 C   0  0  0  0  0  0  0  0  0  0  0  0
   -4.1230   -3.8356   16.4816 H   0  0  0  0  0  0  0  0  0  0  0  0
   -2.2326   -4.4164   15.6576 C   0  0  0  0  0  0  0  0  0  0  0  0
   -2.3911   -5.4713   15.8227 H   0  0  0  0  0  0  0  0  0  0  0  0
   -1.0581   -3.9784   15.0690 C   0  0  0  0  0  0  0  0  0  0  0  0
   -0.3005   -4.6884   14.7734 H   0  0  0  0  0  0  0  0  0  0  0  0
   -0.8463   -2.6262   14.8603 C   0  0  0  0  0  0  0  0  0  0  0  0
    0.0619   -2.2693   14.3987 H   0  0  0  0  0  0  0  0  0  0  0  0
   -1.7422    3.1673   15.7561 C   0  0  0  0  0  0  0  0  0  0  0  0
   -3.0765    3.2375   16.1268 C   0  0  0  0  0  0  0  0  0  0  0  0
   -3.6974    2.3547   16.0596 H   0  0  0  0  0  0  0  0  0  0  0  0
   -3.6012    4.4522   16.5376 C   0  0  0  0  0  0  0  0  0  0  0  0
   -4.6381    4.5058   16.8299 H   0  0  0  0  0  0  0  0  0  0  0  0
   -2.8027    5.5833   16.5717 C   0  0  0  0  0  0  0  0  0  0  0  0
   -3.2163    6.5296   16.8864 H   0  0  0  0  0  0  0  0  0  0  0  0
   -1.4738    5.5051   16.1895 C   0  0  0  0  0  0  0  0  0  0  0  0
   -0.8490    6.3850   16.2107 H   0  0  0  0  0  0  0  0  0  0  0  0
   -0.9357    4.2954   15.7848 C   0  0  0  0  0  0  0  0  0  0  0  0
    0.0986    4.2192   15.4841 H   0  0  0  0  0  0  0  0  0  0  0  0
   -0.4891    3.2038   20.5703 C   0  0  0  0  0  0  0  0  0  0  0  0
   -1.2838    3.8740   19.6558 C   0  0  0  0  0  0  0  0  0  0  0  0
   -1.3724    3.5028   18.6410 H   0  0  0  0  0  0  0  0  0  0  0  0
   -1.9719    5.0071   20.0526 C   0  0  0  0  0  0  0  0  0  0  0  0
   -2.6033    5.5149   19.3406 H   0  0  0  0  0  0  0  0  0  0  0  0
   -1.8536    5.4764   21.3490 C   0  0  0  0  0  0  0  0  0  0  0  0
   -2.3946    6.3582   21.6560 H   0  0  0  0  0  0  0  0  0  0  0  0
   -1.0468    4.8077   22.2545 C   0  0  0  0  0  0  0  0  0  0  0  0
   -0.9562    5.1659   23.2686 H   0  0  0  0  0  0  0  0  0  0  0  0
   -0.3640    3.6678   21.8711 C   0  0  0  0  0  0  0  0  0  0  0  0
    0.2545    3.1230   22.5668 H   0  0  0  0  0  0  0  0  0  0  0  0
   -0.6275   -1.2705   20.1634 C   0  0  0  0  0  0  0  0  0  0  0  0
   -1.4248   -1.9386   19.2445 C   0  0  0  0  0  0  0  0  0  0  0  0
   -1.2824   -1.7850   18.1795 H   0  0  0  0  0  0  0  0  0  0  0  0
   -2.3710   -2.8438   19.6967 C   0  0  0  0  0  0  0  0  0  0  0  0
   -2.9975   -3.3516   18.9803 H   0  0  0  0  0  0  0  0  0  0  0  0
   -2.5167   -3.0756   21.0535 C   0  0  0  0  0  0  0  0  0  0  0  0
   -3.2685   -3.7655   21.4047 H   0  0  0  0  0  0  0  0  0  0  0  0
   -1.7061   -2.4147   21.9607 C   0  0  0  0  0  0  0  0  0  0  0  0
   -1.8226   -2.5883   23.0195 H   0  0  0  0  0  0  0  0  0  0  0  0
   -0.7597   -1.5054   21.5202 C   0  0  0  0  0  0  0  0  0  0  0  0
   -0.1401   -0.9578   22.2129 H   0  0  0  0  0  0  0  0  0  0  0  0
  1  5  1  0  0  0  0
  1  2  1  0  0  0  0
  3  1  1  0  0  0  0
  4 10  1  0  0  0  0
  4  1  1  0  0  0  0
  5  9  1  0  0  0  0
  5  8  1  0  0  0  0
  6 23  1  0  0  0  0
  6  4  1  0  0  0  0
  7 34  1  0  0  0  0
  7  4  1  0  0  0  0
  8 45  1  0  0  0  0
  9 56  1  0  0  0  0
 10 11  1  1  0  0  0
 10 12  1  0  0  0  0
 12 13  1  6  0  0  0
 12 14  1  0  0  0  0
 12  5  1  0  0  0  0
 14 16  1  0  0  0  0
 14 15  1  0  0  0  0
 17 14  1  0  0  0  0
 18 17  1  0  0  0  0
 19 17  1  0  0  0  0
 20 17  1  0  0  0  0
 20 10  1  0  0  0  0
 21 20  1  0  0  0  0
 22 20  1  0  0  0  0
 23 24  1  0  0  0  0
 24 26  2  0  0  0  0
 24 25  1  0  0  0  0
 26 27  1  0  0  0  0
 28 29  1  0  0  0  0
 28 26  1  0  0  0  0
 30 28  2  0  0  0  0
 31 30  1  0  0  0  0
 32 30  1  0  0  0  0
 32 23  2  0  0  0  0
 33 32  1  0  0  0  0
 34 43  2  0  0  0  0
 34 35  1  0  0  0  0
 35 37  2  0  0  0  0
 36 35  1  0  0  0  0
 37 39  1  0  0  0  0
 37 38  1  0  0  0  0
 39 40  1  0  0  0  0
 41 42  1  0  0  0  0
 41 39  2  0  0  0  0
 43 41  1  0  0  0  0
 44 43  1  0  0  0  0
 45 54  1  0  0  0  0
 46 48  1  0  0  0  0
 46 45  2  0  0  0  0
 47 46  1  0  0  0  0
 48 50  2  0  0  0  0
 49 48  1  0  0  0  0
 50 51  1  0  0  0  0
 50 52  1  0  0  0  0
 52 53  1  0  0  0  0
 54 52  2  0  0  0  0
 54 55  1  0  0  0  0
 56 65  1  0  0  0  0
 57 59  1  0  0  0  0
 57 56  2  0  0  0  0
 58 57  1  0  0  0  0
 59 61  2  0  0  0  0
 60 59  1  0  0  0  0
 61 62  1  0  0  0  0
 61 63  1  0  0  0  0
 63 64  1  0  0  0  0
 65 63  2  0  0  0  0
 65 66  1  0  0  0  0
M  END
$$$$
