CSD_code = TIHREH | q = 0 | S = 0 | Stoichiometry = C29H28Cl2O4P2Pt | MND = 4
 OpenBabel04212202103D

 66 71  0  0  1  0  0  0  0  0999 V2000
    8.7816   14.0782    0.1045 Pt  0  0  0  0  0  0  0  0  0  0  0  0
    9.4392   13.8381   -2.0839 Cl  0  0  0  0  0  0  0  0  0  0  0  0
   10.9387   14.4704    0.7730 Cl  0  0  0  0  0  0  0  0  0  0  0  0
    7.7497   14.2393    2.1464 P   0  0  0  0  0  4  0  0  0  0  0  0
    6.6974   13.8561   -0.7552 P   0  0  0  0  0  4  0  0  0  0  0  0
    8.0671   15.2412    3.3499 O   0  0  0  0  0  0  0  0  0  0  0  0
    7.6419   12.9105    3.0167 O   0  0  0  0  0  0  0  0  0  0  0  0
    6.2411   12.8272   -1.8868 O   0  0  0  0  0  0  0  0  0  0  0  0
    6.1470   15.2220   -1.3672 O   0  0  0  0  0  0  0  0  0  0  0  0
    5.9692   14.5672    1.7404 C   0  0  1  0  0  0  0  0  0  0  0  0
    5.9154   15.5881    1.3372 H   0  0  0  0  0  0  0  0  0  0  0  0
    5.5407   13.5930    0.6465 C   0  0  1  0  0  0  0  0  0  0  0  0
    5.7065   12.5650    0.9974 H   0  0  0  0  0  0  0  0  0  0  0  0
    4.0464   13.8646    0.5299 C   0  0  0  0  0  0  0  0  0  0  0  0
    3.5089   13.0448    0.0566 H   0  0  0  0  0  0  0  0  0  0  0  0
    3.8894   14.7655   -0.0648 H   0  0  0  0  0  0  0  0  0  0  0  0
    3.6061   14.0899    1.9920 C   0  0  0  0  0  0  0  0  0  0  0  0
    2.9064   14.9221    2.0574 H   0  0  0  0  0  0  0  0  0  0  0  0
    3.1029   13.2055    2.3816 H   0  0  0  0  0  0  0  0  0  0  0  0
    4.8903   14.3791    2.8026 C   0  0  0  0  0  0  0  0  0  0  0  0
    5.1487   13.5301    3.4374 H   0  0  0  0  0  0  0  0  0  0  0  0
    4.7806   15.2537    3.4413 H   0  0  0  0  0  0  0  0  0  0  0  0
    8.2811   16.5973    3.1078 C   0  0  0  0  0  0  0  0  0  0  0  0
    9.4640   17.0262    2.5273 C   0  0  0  0  0  0  0  0  0  0  0  0
   10.2072   16.2977    2.2346 H   0  0  0  0  0  0  0  0  0  0  0  0
    9.6633   18.3814    2.3242 C   0  0  0  0  0  0  0  0  0  0  0  0
   10.5858   18.7176    1.8762 H   0  0  0  0  0  0  0  0  0  0  0  0
    8.6924   19.2971    2.6943 C   0  0  0  0  0  0  0  0  0  0  0  0
    8.8512   20.3522    2.5308 H   0  0  0  0  0  0  0  0  0  0  0  0
    7.5159   18.8581    3.2780 C   0  0  0  0  0  0  0  0  0  0  0  0
    6.7570   19.5676    3.5715 H   0  0  0  0  0  0  0  0  0  0  0  0
    7.3038   17.5057    3.4848 C   0  0  0  0  0  0  0  0  0  0  0  0
    6.3939   17.1480    3.9426 H   0  0  0  0  0  0  0  0  0  0  0  0
    8.2044   11.7130    2.5843 C   0  0  0  0  0  0  0  0  0  0  0  0
    9.5382   11.6438    2.2117 C   0  0  0  0  0  0  0  0  0  0  0  0
   10.1592   12.5264    2.2800 H   0  0  0  0  0  0  0  0  0  0  0  0
   10.0626   10.4301    1.7974 C   0  0  0  0  0  0  0  0  0  0  0  0
   11.0990   10.3776    1.5033 H   0  0  0  0  0  0  0  0  0  0  0  0
    9.2643    9.2989    1.7619 C   0  0  0  0  0  0  0  0  0  0  0  0
    9.6778    8.3533    1.4446 H   0  0  0  0  0  0  0  0  0  0  0  0
    7.9360    9.3759    2.1463 C   0  0  0  0  0  0  0  0  0  0  0  0
    7.3114    8.4959    2.1244 H   0  0  0  0  0  0  0  0  0  0  0  0
    7.3982   10.5847    2.5543 C   0  0  0  0  0  0  0  0  0  0  0  0
    6.3643   10.6598    2.8566 H   0  0  0  0  0  0  0  0  0  0  0  0
    6.9480   11.6871   -2.2305 C   0  0  0  0  0  0  0  0  0  0  0  0
    7.7422   11.0148   -1.3171 C   0  0  0  0  0  0  0  0  0  0  0  0
    7.8329   11.3856   -0.3023 H   0  0  0  0  0  0  0  0  0  0  0  0
    8.4274    9.8804   -1.7150 C   0  0  0  0  0  0  0  0  0  0  0  0
    9.0584    9.3709   -1.0038 H   0  0  0  0  0  0  0  0  0  0  0  0
    8.3067    9.4119   -3.0115 C   0  0  0  0  0  0  0  0  0  0  0  0
    8.8451    8.5288   -3.3192 H   0  0  0  0  0  0  0  0  0  0  0  0
    7.5005   10.0828   -3.9159 C   0  0  0  0  0  0  0  0  0  0  0  0
    7.4080    9.7251   -4.9301 H   0  0  0  0  0  0  0  0  0  0  0  0
    6.8206   11.2240   -3.5314 C   0  0  0  0  0  0  0  0  0  0  0  0
    6.2026   11.7705   -4.2263 H   0  0  0  0  0  0  0  0  0  0  0  0
    7.0863   16.1607   -1.8131 C   0  0  0  0  0  0  0  0  0  0  0  0
    7.8843   16.8273   -0.8936 C   0  0  0  0  0  0  0  0  0  0  0  0
    7.7428   16.6713    0.1712 H   0  0  0  0  0  0  0  0  0  0  0  0
    8.8298   17.7336   -1.3449 C   0  0  0  0  0  0  0  0  0  0  0  0
    9.4568   18.2403   -0.6281 H   0  0  0  0  0  0  0  0  0  0  0  0
    8.9741   17.9681   -2.7014 C   0  0  0  0  0  0  0  0  0  0  0  0
    9.7252   18.6591   -3.0520 H   0  0  0  0  0  0  0  0  0  0  0  0
    8.1631   17.3085   -3.6092 C   0  0  0  0  0  0  0  0  0  0  0  0
    8.2786   17.4841   -4.6678 H   0  0  0  0  0  0  0  0  0  0  0  0
    7.2174   16.3980   -3.1695 C   0  0  0  0  0  0  0  0  0  0  0  0
    6.5975   15.8514   -3.8628 H   0  0  0  0  0  0  0  0  0  0  0  0
  1  3  1  0  0  0  0
  1  4  1  0  0  0  0
  2  1  1  0  0  0  0
  4  7  1  0  0  0  0
  4  6  1  0  0  0  0
  5  1  1  0  0  0  0
  5 12  1  0  0  0  0
  8  5  1  0  0  0  0
  9  5  1  0  0  0  0
 10 11  1  6  0  0  0
 10  4  1  0  0  0  0
 10 20  1  0  0  0  0
 12 13  1  1  0  0  0
 12 10  1  0  0  0  0
 14 12  1  0  0  0  0
 14 17  1  0  0  0  0
 15 14  1  0  0  0  0
 16 14  1  0  0  0  0
 17 18  1  0  0  0  0
 17 19  1  0  0  0  0
 17 20  1  0  0  0  0
 20 21  1  0  0  0  0
 20 22  1  0  0  0  0
 23  6  1  0  0  0  0
 23 32  1  0  0  0  0
 24 23  2  0  0  0  0
 25 24  1  0  0  0  0
 26 24  1  0  0  0  0
 26 28  2  0  0  0  0
 27 26  1  0  0  0  0
 28 30  1  0  0  0  0
 29 28  1  0  0  0  0
 30 32  2  0  0  0  0
 30 31  1  0  0  0  0
 32 33  1  0  0  0  0
 34  7  1  0  0  0  0
 35 36  1  0  0  0  0
 35 34  2  0  0  0  0
 37 35  1  0  0  0  0
 38 37  1  0  0  0  0
 39 37  2  0  0  0  0
 39 41  1  0  0  0  0
 40 39  1  0  0  0  0
 41 43  2  0  0  0  0
 42 41  1  0  0  0  0
 43 34  1  0  0  0  0
 43 44  1  0  0  0  0
 45  8  1  0  0  0  0
 45 46  1  0  0  0  0
 46 47  1  0  0  0  0
 48 46  2  0  0  0  0
 48 49  1  0  0  0  0
 50 48  1  0  0  0  0
 51 50  1  0  0  0  0
 52 54  1  0  0  0  0
 52 50  2  0  0  0  0
 53 52  1  0  0  0  0
 54 45  2  0  0  0  0
 55 54  1  0  0  0  0
 56  9  1  0  0  0  0
 56 57  1  0  0  0  0
 57 58  1  0  0  0  0
 59 57  2  0  0  0  0
 59 60  1  0  0  0  0
 61 59  1  0  0  0  0
 62 61  1  0  0  0  0
 63 65  1  0  0  0  0
 63 61  2  0  0  0  0
 64 63  1  0  0  0  0
 65 56  2  0  0  0  0
 66 65  1  0  0  0  0
M  END
$$$$
