CSD_code = TIHSIM | q = 0 | S = 0 | Stoichiometry = C11H27As3Br4Ti | MND = 6
 OpenBabel04212202103D

 46 44  0  0  0  0  0  0  0  0999 V2000
    1.5823    6.8532    5.0816 Br  0  0  0  0  0  0  0  0  0  0  0  0
    5.2306    9.9339    3.9153 Br  0  0  0  0  0  0  0  0  0  0  0  0
    4.7328    7.7193    6.7548 Br  0  0  0  0  0  0  0  0  0  0  0  0
    2.2193   10.3722    5.8963 Br  0  0  0  0  0  0  0  0  0  0  0  0
    2.1180    9.0796    2.7027 As  0  0  0  0  0  0  0  0  0  0  0  0
    4.4805    6.5921    3.5046 As  0  0  0  0  0  0  0  0  0  0  0  0
    1.1968    4.8317   -0.1919 As  0  0  0  0  0  0  0  0  0  0  0  0
    3.4244    8.5373    4.9023 Ti  0  0  0  0  0  0  0  0  0  0  0  0
    4.2311    7.8743    0.4668 C   0  0  0  0  0  0  0  0  0  0  0  0
    3.0978    6.9060    0.8131 C   0  0  0  0  0  0  0  0  0  0  0  0
    1.8688    7.6891    1.2933 C   0  0  0  0  0  0  0  0  0  0  0  0
    0.2047    9.4410    2.9465 C   0  0  0  0  0  0  0  0  0  0  0  0
    2.4935   10.6909    1.6271 C   0  0  0  0  0  0  0  0  0  0  0  0
    3.5758    5.8974    1.8674 C   0  0  0  0  0  0  0  0  0  0  0  0
    6.3742    6.6081    2.9511 C   0  0  0  0  0  0  0  0  0  0  0  0
    4.5511    4.8628    4.4272 C   0  0  0  0  0  0  0  0  0  0  0  0
    2.6994    6.1244   -0.4465 C   0  0  0  0  0  0  0  0  0  0  0  0
    1.5998    3.7884   -1.8163 C   0  0  0  0  0  0  0  0  0  0  0  0
   -0.2454    5.9052   -1.0107 C   0  0  0  0  0  0  0  0  0  0  0  0
    4.5334    8.4405    1.3561 H   0  0  0  0  0  0  0  0  0  0  0  0
    5.0944    7.3252    0.0922 H   0  0  0  0  0  0  0  0  0  0  0  0
    3.9061    8.5770   -0.2999 H   0  0  0  0  0  0  0  0  0  0  0  0
    1.1290    6.9817    1.6980 H   0  0  0  0  0  0  0  0  0  0  0  0
    1.4130    8.2046    0.4363 H   0  0  0  0  0  0  0  0  0  0  0  0
    0.0835   10.3286    3.5721 H   0  0  0  0  0  0  0  0  0  0  0  0
   -0.2683    9.6211    1.9763 H   0  0  0  0  0  0  0  0  0  0  0  0
   -0.2878    8.5992    3.4366 H   0  0  0  0  0  0  0  0  0  0  0  0
    2.2859   11.5568    2.2635 H   0  0  0  0  0  0  0  0  0  0  0  0
    3.5379   10.7408    1.3190 H   0  0  0  0  0  0  0  0  0  0  0  0
    1.8426   10.7304    0.7493 H   0  0  0  0  0  0  0  0  0  0  0  0
    4.2814    5.1945    1.4018 H   0  0  0  0  0  0  0  0  0  0  0  0
    2.7140    5.3153    2.2267 H   0  0  0  0  0  0  0  0  0  0  0  0
    6.9766    6.6436    3.8642 H   0  0  0  0  0  0  0  0  0  0  0  0
    6.6201    5.6977    2.3978 H   0  0  0  0  0  0  0  0  0  0  0  0
    6.6174    7.4856    2.3518 H   0  0  0  0  0  0  0  0  0  0  0  0
    5.2098    4.9451    5.2955 H   0  0  0  0  0  0  0  0  0  0  0  0
    3.5573    4.5675    4.7689 H   0  0  0  0  0  0  0  0  0  0  0  0
    4.9417    4.0959    3.7512 H   0  0  0  0  0  0  0  0  0  0  0  0
    3.5635    5.5525   -0.7958 H   0  0  0  0  0  0  0  0  0  0  0  0
    2.4298    6.8240   -1.2424 H   0  0  0  0  0  0  0  0  0  0  0  0
    2.4876    3.1764   -1.6634 H   0  0  0  0  0  0  0  0  0  0  0  0
    0.7701    3.1230   -2.0515 H   0  0  0  0  0  0  0  0  0  0  0  0
    1.7698    4.4482   -2.6658 H   0  0  0  0  0  0  0  0  0  0  0  0
   -0.6109    6.6679   -0.3256 H   0  0  0  0  0  0  0  0  0  0  0  0
    0.0989    6.3836   -1.9263 H   0  0  0  0  0  0  0  0  0  0  0  0
   -1.0798    5.2494   -1.2565 H   0  0  0  0  0  0  0  0  0  0  0  0
  2  8  1  0  0  0  0
  5 12  1  0  0  0  0
  6 16  1  0  0  0  0
  8  1  1  0  0  0  0
  8  4  1  0  0  0  0
  8  3  1  0  0  0  0
  9 10  1  0  0  0  0
  9 20  1  0  0  0  0
 10 11  1  0  0  0  0
 10 14  1  0  0  0  0
 11 23  1  0  0  0  0
 11  5  1  0  0  0  0
 12 27  1  0  0  0  0
 12 25  1  0  0  0  0
 13 28  1  0  0  0  0
 13  5  1  0  0  0  0
 14 32  1  0  0  0  0
 14  6  1  0  0  0  0
 15  6  1  0  0  0  0
 15 33  1  0  0  0  0
 16 37  1  0  0  0  0
 16 36  1  0  0  0  0
 17  7  1  0  0  0  0
 17 10  1  0  0  0  0
 18 41  1  0  0  0  0
 18  7  1  0  0  0  0
 19 44  1  0  0  0  0
 19  7  1  0  0  0  0
 21  9  1  0  0  0  0
 22  9  1  0  0  0  0
 24 11  1  0  0  0  0
 26 12  1  0  0  0  0
 29 13  1  0  0  0  0
 30 13  1  0  0  0  0
 31 14  1  0  0  0  0
 34 15  1  0  0  0  0
 35 15  1  0  0  0  0
 38 16  1  0  0  0  0
 39 17  1  0  0  0  0
 40 17  1  0  0  0  0
 42 18  1  0  0  0  0
 43 18  1  0  0  0  0
 45 19  1  0  0  0  0
 46 19  1  0  0  0  0
M  END
$$$$
