CSD_code = TIJDOF | q = 0 | S = 0 | Stoichiometry = C14H9ClN3O4Re | MND = 6
 OpenBabel04212202103D

 32 34  0  0  0  0  0  0  0  0999 V2000
    3.6504    5.5552    7.5844 Re  0  0  0  0  0  0  0  0  0  0  0  0
    3.0568    7.3777    8.9574 Cl  0  0  0  0  0  0  0  0  0  0  0  0
    3.6701    6.6594    5.9819 C   0  0  0  0  0  2  0  0  0  0  0  0
    1.7926    5.0929    7.2371 C   0  0  0  0  0  2  0  0  0  0  0  0
    4.3377    3.9857    6.6688 C   0  0  0  0  0  2  0  0  0  0  0  0
    3.6842    4.5198    9.5294 N   0  0  0  0  0  0  0  0  0  0  0  0
    5.6848    6.1824    8.1910 N   0  0  0  0  0  0  0  0  0  0  0  0
    3.6826    7.3676    5.0813 O   0  0  0  0  0  1  0  0  0  0  0  0
    0.6798    4.8632    7.0890 O   0  0  0  0  0  1  0  0  0  0  0  0
    4.7572    3.0497    6.1493 O   0  0  0  0  0  1  0  0  0  0  0  0
    6.7767    3.0152    8.8709 N   0  0  0  0  0  0  0  0  0  0  0  0
    6.3641    1.7594    9.2651 O   0  0  0  0  0  0  0  0  0  0  0  0
    6.9704    1.1526    8.8142 H   0  0  0  0  0  0  0  0  0  0  0  0
    2.6030    4.5123   10.3049 C   0  0  0  0  0  3  0  0  0  0  0  0
    1.7208    4.9977    9.9088 H   0  0  0  0  0  0  0  0  0  0  0  0
    2.5783    3.9345   11.5617 C   0  0  0  0  0  0  0  0  0  0  0  0
    1.6731    3.9630   12.1465 H   0  0  0  0  0  0  0  0  0  0  0  0
    3.7266    3.3262   12.0420 C   0  0  0  0  0  0  0  0  0  0  0  0
    3.7457    2.8606   13.0154 H   0  0  0  0  0  0  0  0  0  0  0  0
    4.8558    3.3330   11.2435 C   0  0  0  0  0  0  0  0  0  0  0  0
    5.7770    2.8785   11.5723 H   0  0  0  0  0  0  0  0  0  0  0  0
    4.7961    3.9432    9.9947 C   0  0  0  0  0  0  0  0  0  0  0  0
    6.0335    3.9999    9.1761 C   0  0  0  0  0  0  0  0  0  0  0  0
    6.1036    7.4210    7.9433 C   0  0  0  0  0  3  0  0  0  0  0  0
    5.3951    8.0829    7.4629 H   0  0  0  0  0  0  0  0  0  0  0  0
    7.3670    7.8727    8.2806 C   0  0  0  0  0  0  0  0  0  0  0  0
    7.6487    8.8897    8.0603 H   0  0  0  0  0  0  0  0  0  0  0  0
    8.2506    6.9973    8.8917 C   0  0  0  0  0  0  0  0  0  0  0  0
    9.2494    7.3091    9.1565 H   0  0  0  0  0  0  0  0  0  0  0  0
    7.8174    5.7123    9.1645 C   0  0  0  0  0  0  0  0  0  0  0  0
    8.4545    4.9895    9.6481 H   0  0  0  0  0  0  0  0  0  0  0  0
    6.5235    5.3461    8.8087 C   0  0  0  0  0  0  0  0  0  0  0  0
  1  7  1  0  0  0  0
  1  2  1  0  0  0  0
  1  6  1  0  0  0  0
  3  1  1  0  0  0  0
  4  1  1  0  0  0  0
  5  1  1  0  0  0  0
  6 22  1  0  0  0  0
  6 14  1  0  0  0  0
  7 32  1  0  0  0  0
  8  3  1  0  0  0  0
  9  4  1  0  0  0  0
 10  5  1  0  0  0  0
 11 23  2  0  0  0  0
 11 12  1  0  0  0  0
 13 12  1  0  0  0  0
 14 16  1  0  0  0  0
 15 14  1  0  0  0  0
 16 18  2  0  0  0  0
 16 17  1  0  0  0  0
 18 19  1  0  0  0  0
 20 21  1  0  0  0  0
 20 18  1  0  0  0  0
 22 20  2  0  0  0  0
 23 22  1  0  0  0  0
 24  7  1  0  0  0  0
 24 26  1  0  0  0  0
 25 24  1  0  0  0  0
 26 28  2  0  0  0  0
 27 26  1  0  0  0  0
 28 29  1  0  0  0  0
 28 30  1  0  0  0  0
 30 31  1  0  0  0  0
 32 30  2  0  0  0  0
 32 23  1  0  0  0  0
M  END
$$$$
