CSD_code = TIJROT | q = 0 | S = 0 | Stoichiometry = C31H32Br2NNiP | MND = 4
 OpenBabel04212202103D

 68 72  0  0  0  0  0  0  0  0999 V2000
    2.2098   12.9736    4.4108 Ni  0  0  0  0  0  0  0  0  0  0  0  0
    3.7952   11.9557    5.5975 Br  0  0  0  0  0  0  0  0  0  0  0  0
    0.5668   13.1206    2.8401 Br  0  0  0  0  0  0  0  0  0  0  0  0
    2.8109   15.2283    4.8520 N   0  0  0  0  0  0  0  0  0  0  0  0
    2.7123   15.3316    6.2598 C   0  0  0  0  0  0  0  0  0  0  0  0
    1.4689   15.2325    6.9048 C   0  0  0  0  0  0  0  0  0  0  0  0
    1.4358   15.3262    8.2890 C   0  0  0  0  0  0  0  0  0  0  0  0
    0.4920   15.2332    8.8027 H   0  0  0  0  0  0  0  0  0  0  0  0
    2.5867   15.5367    9.0220 C   0  0  0  0  0  0  0  0  0  0  0  0
    2.5342   15.6217   10.0970 H   0  0  0  0  0  0  0  0  0  0  0  0
    3.8051   15.6181    8.3767 C   0  0  0  0  0  0  0  0  0  0  0  0
    4.7043   15.7685    8.9524 H   0  0  0  0  0  0  0  0  0  0  0  0
    3.8901   15.5021    6.9988 C   0  0  0  0  0  0  0  0  0  0  0  0
    0.2073   14.8826    6.1472 C   0  0  0  0  0  0  0  0  0  0  0  0
    0.3211   15.1466    5.0893 H   0  0  0  0  0  0  0  0  0  0  0  0
   -1.0311   15.6187    6.6569 C   0  0  0  0  0  0  0  0  0  0  0  0
   -1.3407   15.2528    7.6325 H   0  0  0  0  0  0  0  0  0  0  0  0
   -1.8554   15.4636    5.9641 H   0  0  0  0  0  0  0  0  0  0  0  0
   -0.8379   16.6871    6.7312 H   0  0  0  0  0  0  0  0  0  0  0  0
    0.0070   13.3657    6.2453 C   0  0  0  0  0  0  0  0  0  0  0  0
    0.8830   12.8258    5.8267 H   0  0  0  0  0  0  0  0  0  0  0  0
   -0.8788   13.0574    5.6929 H   0  0  0  0  0  0  0  0  0  0  0  0
   -0.0863   13.0526    7.2840 H   0  0  0  0  0  0  0  0  0  0  0  0
    5.2192   15.5992    6.2944 C   0  0  0  0  0  0  0  0  0  0  0  0
    5.0793   15.2284    5.2770 H   0  0  0  0  0  0  0  0  0  0  0  0
    5.6665   17.0604    6.2129 C   0  0  0  0  0  0  0  0  0  0  0  0
    4.9245   17.6623    5.6903 H   0  0  0  0  0  0  0  0  0  0  0  0
    6.6095   17.1317    5.6752 H   0  0  0  0  0  0  0  0  0  0  0  0
    5.8022   17.4738    7.2099 H   0  0  0  0  0  0  0  0  0  0  0  0
    6.2901   14.7337    6.9559 C   0  0  0  0  0  0  0  0  0  0  0  0
    7.1843   14.7251    6.3362 H   0  0  0  0  0  0  0  0  0  0  0  0
    5.9328   13.7124    7.0587 H   0  0  0  0  0  0  0  0  0  0  0  0
    6.5605   15.1130    7.9377 H   0  0  0  0  0  0  0  0  0  0  0  0
    2.3991   16.1795    4.1080 C   0  0  0  0  0  3  0  0  0  0  0  0
    1.9753   17.0913    4.5395 H   0  0  0  0  0  0  0  0  0  0  0  0
    2.4327   16.1128    2.6651 C   0  0  0  0  0  0  0  0  0  0  0  0
    2.9004   14.9731    1.9831 C   0  0  0  0  0  0  0  0  0  0  0  0
    2.8083   14.9267    0.5988 C   0  0  0  0  0  0  0  0  0  0  0  0
    3.1139   14.0359    0.0710 H   0  0  0  0  0  0  0  0  0  0  0  0
    2.2984   15.9992   -0.1115 C   0  0  0  0  0  0  0  0  0  0  0  0
    2.2315   15.9419   -1.1873 H   0  0  0  0  0  0  0  0  0  0  0  0
    1.8673   17.1371    0.5533 C   0  0  0  0  0  0  0  0  0  0  0  0
    1.4699   17.9728   -0.0018 H   0  0  0  0  0  0  0  0  0  0  0  0
    1.9254   17.1868    1.9307 C   0  0  0  0  0  0  0  0  0  0  0  0
    1.5652   18.0583    2.4586 H   0  0  0  0  0  0  0  0  0  0  0  0
    3.5667   13.5624    2.9254 P   0  0  0  0  0  4  0  0  0  0  0  0
    3.8301   12.1799    1.7665 C   0  0  0  0  0  0  0  0  0  0  0  0
    4.7446   12.2863    0.7205 C   0  0  0  0  0  0  0  0  0  0  0  0
    5.2963   13.2059    0.5757 H   0  0  0  0  0  0  0  0  0  0  0  0
    4.9508   11.2103   -0.1215 C   0  0  0  0  0  0  0  0  0  0  0  0
    5.6526   11.2972   -0.9379 H   0  0  0  0  0  0  0  0  0  0  0  0
    4.2677   10.0211    0.0841 C   0  0  0  0  0  0  0  0  0  0  0  0
    4.4361    9.1838   -0.5765 H   0  0  0  0  0  0  0  0  0  0  0  0
    3.3829    9.9017    1.1419 C   0  0  0  0  0  0  0  0  0  0  0  0
    2.8635    8.9716    1.3151 H   0  0  0  0  0  0  0  0  0  0  0  0
    3.1674   10.9784    1.9828 C   0  0  0  0  0  0  0  0  0  0  0  0
    2.4822   10.8796    2.8225 H   0  0  0  0  0  0  0  0  0  0  0  0
    5.3083   14.0691    3.1516 C   0  0  0  0  0  0  0  0  0  0  0  0
    5.7330   15.3662    2.8809 C   0  0  0  0  0  0  0  0  0  0  0  0
    5.0204   16.1286    2.6013 H   0  0  0  0  0  0  0  0  0  0  0  0
    7.0750   15.6889    2.9765 C   0  0  0  0  0  0  0  0  0  0  0  0
    7.3959   16.6985    2.7648 H   0  0  0  0  0  0  0  0  0  0  0  0
    8.0004   14.7252    3.3402 C   0  0  0  0  0  0  0  0  0  0  0  0
    9.0461   14.9833    3.4183 H   0  0  0  0  0  0  0  0  0  0  0  0
    7.5815   13.4310    3.6037 C   0  0  0  0  0  0  0  0  0  0  0  0
    8.2977   12.6753    3.8881 H   0  0  0  0  0  0  0  0  0  0  0  0
    6.2430   13.1013    3.5069 C   0  0  0  0  0  0  0  0  0  0  0  0
    5.9196   12.0932    3.7204 H   0  0  0  0  0  0  0  0  0  0  0  0
  1  4  1  0  0  0  0
  1  2  1  0  0  0  0
  3  1  1  0  0  0  0
  4  5  1  0  0  0  0
  5  6  2  0  0  0  0
  5 13  1  0  0  0  0
  6  7  1  0  0  0  0
  7  8  1  0  0  0  0
  7  9  2  0  0  0  0
  9 10  1  0  0  0  0
 11 12  1  0  0  0  0
 11  9  1  0  0  0  0
 13 11  2  0  0  0  0
 14 20  1  0  0  0  0
 14 16  1  0  0  0  0
 14  6  1  0  0  0  0
 15 14  1  0  0  0  0
 16 19  1  0  0  0  0
 16 17  1  0  0  0  0
 18 16  1  0  0  0  0
 20 23  1  0  0  0  0
 21 20  1  0  0  0  0
 22 20  1  0  0  0  0
 24 30  1  0  0  0  0
 24 13  1  0  0  0  0
 25 24  1  0  0  0  0
 26 24  1  0  0  0  0
 26 29  1  0  0  0  0
 27 26  1  0  0  0  0
 28 26  1  0  0  0  0
 30 32  1  0  0  0  0
 30 33  1  0  0  0  0
 31 30  1  0  0  0  0
 34 35  1  0  0  0  0
 34  4  1  0  0  0  0
 36 34  1  0  0  0  0
 37 36  1  0  0  0  0
 37 46  1  0  0  0  0
 38 37  2  0  0  0  0
 39 38  1  0  0  0  0
 40 42  2  0  0  0  0
 40 38  1  0  0  0  0
 41 40  1  0  0  0  0
 42 44  1  0  0  0  0
 43 42  1  0  0  0  0
 44 45  1  0  0  0  0
 44 36  2  0  0  0  0
 46 58  1  0  0  0  0
 46  1  1  0  0  0  0
 47 56  1  0  0  0  0
 47 46  1  0  0  0  0
 48 47  2  0  0  0  0
 49 48  1  0  0  0  0
 50 52  2  0  0  0  0
 50 48  1  0  0  0  0
 51 50  1  0  0  0  0
 52 54  1  0  0  0  0
 53 52  1  0  0  0  0
 54 55  1  0  0  0  0
 54 56  2  0  0  0  0
 56 57  1  0  0  0  0
 58 67  1  0  0  0  0
 59 61  1  0  0  0  0
 59 58  2  0  0  0  0
 60 59  1  0  0  0  0
 61 63  2  0  0  0  0
 62 61  1  0  0  0  0
 63 64  1  0  0  0  0
 63 65  1  0  0  0  0
 65 66  1  0  0  0  0
 67 65  2  0  0  0  0
 67 68  1  0  0  0  0
M  END
$$$$
