CSD_code = TIJWIT | q = 0 | S = 0 | Stoichiometry = C4H12Cl10N4P4Ru | MND = 6
 OpenBabel04212202103D

 35 36  0  0  0  0  0  0  0  0999 V2000
    6.6702    4.8017    4.2650 Ru  0  0  0  0  0  0  0  0  0  0  0  0
    4.8659    3.4524    3.4670 Cl  0  0  0  0  0  0  0  0  0  0  0  0
    3.4795    5.7218    5.8323 Cl  0  0  0  0  0  0  0  0  0  0  0  0
    5.9487    7.0490    7.0308 Cl  0  0  0  0  0  0  0  0  0  0  0  0
    7.4437    1.2828    4.9640 Cl  0  0  0  0  0  0  0  0  0  0  0  0
    8.6961    3.3448    6.8834 Cl  0  0  0  0  0  0  0  0  0  0  0  0
    5.4398    5.4379    6.0409 P   0  0  0  0  0  4  0  0  0  0  0  0
    7.1950    3.0970    5.6459 P   0  0  0  0  0  4  0  0  0  0  0  0
    5.6661    4.2487    7.2300 N   0  0  0  0  0  0  0  0  0  0  0  0
    5.9431    2.9271    6.7960 N   0  0  0  0  0  0  0  0  0  0  0  0
    4.9903    4.3224    8.5121 C   0  0  0  0  0  0  0  0  0  0  0  0
    3.9335    4.0485    8.4467 H   0  0  0  0  0  0  0  0  0  0  0  0
    5.0675    5.3422    8.8864 H   0  0  0  0  0  0  0  0  0  0  0  0
    5.4989    3.6513    9.2042 H   0  0  0  0  0  0  0  0  0  0  0  0
    4.7519    2.1483    6.4749 C   0  0  0  0  0  0  0  0  0  0  0  0
    4.2357    1.9073    7.4043 H   0  0  0  0  0  0  0  0  0  0  0  0
    5.0581    1.2211    5.9966 H   0  0  0  0  0  0  0  0  0  0  0  0
    4.0770    2.6860    5.8027 H   0  0  0  0  0  0  0  0  0  0  0  0
    8.4749    6.1512    5.0631 Cl  0  0  0  0  0  0  0  0  0  0  0  0
    9.8616    3.8820    2.6978 Cl  0  0  0  0  0  0  0  0  0  0  0  0
    7.3920    2.5546    1.4991 Cl  0  0  0  0  0  0  0  0  0  0  0  0
    5.8970    8.3206    3.5657 Cl  0  0  0  0  0  0  0  0  0  0  0  0
    4.6447    6.2588    1.6467 Cl  0  0  0  0  0  0  0  0  0  0  0  0
    7.9012    4.1657    2.4890 P   0  0  0  0  0  4  0  0  0  0  0  0
    6.1459    6.5064    2.8841 P   0  0  0  0  0  4  0  0  0  0  0  0
    7.6748    5.3548    1.2999 N   0  0  0  0  0  0  0  0  0  0  0  0
    7.3978    6.6765    1.7339 N   0  0  0  0  0  0  0  0  0  0  0  0
    8.3506    5.2811    0.0178 C   0  0  0  0  0  0  0  0  0  0  0  0
    9.4074    5.5551    0.0831 H   0  0  0  0  0  0  0  0  0  0  0  0
    8.2733    4.2614   -0.3565 H   0  0  0  0  0  0  0  0  0  0  0  0
    7.8419    5.9522   -0.6742 H   0  0  0  0  0  0  0  0  0  0  0  0
    8.5890    7.4552    2.0551 C   0  0  0  0  0  0  0  0  0  0  0  0
    9.1052    7.6962    1.1257 H   0  0  0  0  0  0  0  0  0  0  0  0
    8.2827    8.3825    2.5333 H   0  0  0  0  0  0  0  0  0  0  0  0
    9.2639    6.9176    2.7273 H   0  0  0  0  0  0  0  0  0  0  0  0
  1 19  1  0  0  0  0
  1  8  1  0  0  0  0
  1  7  1  0  0  0  0
  2  1  1  0  0  0  0
  3  7  1  0  0  0  0
  5  8  1  0  0  0  0
  7  4  1  0  0  0  0
  7  9  1  0  0  0  0
  8 10  1  0  0  0  0
  8  6  1  0  0  0  0
  9 11  1  0  0  0  0
 10  9  1  0  0  0  0
 11 13  1  0  0  0  0
 11 14  1  0  0  0  0
 12 11  1  0  0  0  0
 15 10  1  0  0  0  0
 15 16  1  0  0  0  0
 17 15  1  0  0  0  0
 18 15  1  0  0  0  0
 21 24  1  0  0  0  0
 23 25  1  0  0  0  0
 24 20  1  0  0  0  0
 24  1  1  0  0  0  0
 25 22  1  0  0  0  0
 25  1  1  0  0  0  0
 26 27  1  0  0  0  0
 26 24  1  0  0  0  0
 27 32  1  0  0  0  0
 27 25  1  0  0  0  0
 28 29  1  0  0  0  0
 28 26  1  0  0  0  0
 30 28  1  0  0  0  0
 31 28  1  0  0  0  0
 32 34  1  0  0  0  0
 32 35  1  0  0  0  0
 33 32  1  0  0  0  0
M  END
$$$$
