CSD_code = TIKKIH | q = 0 | S = 0 | Stoichiometry = C28H23ClN6OPRe | MND = 6
 OpenBabel04212202103D

 61 67  0  0  0  0  0  0  0  0999 V2000
    1.7009    7.2834    5.9122 Re  0  0  0  0  0  0  0  0  0  0  0  0
    0.5359    8.5190    7.4707 Cl  0  0  0  0  0  0  0  0  0  0  0  0
    0.2759    6.6203    5.0807 N   0  0  0  0  0  2  0  0  0  0  0  0
   -0.6410    6.3054    4.3822 N   0  0  0  0  0  2  0  0  0  0  0  0
   -0.1405    7.6787    2.5861 N   0  0  0  0  0  0  0  0  0  0  0  0
    1.8957    8.6444    4.5074 N   0  0  0  0  0  0  0  0  0  0  0  0
    1.3072    8.7160    3.6618 H   0  0  0  0  0  0  0  0  0  0  0  0
    2.8555    9.5076    4.4923 N   0  0  0  0  0  0  0  0  0  0  0  0
    3.3768    8.4174    6.4578 N   0  0  0  0  0  0  0  0  0  0  0  0
   -0.9342    6.7389    3.1175 C   0  0  0  0  0  0  0  0  0  0  0  0
   -2.0374    6.2035    2.4447 C   0  0  0  0  0  0  0  0  0  0  0  0
   -2.6396    5.4503    2.9249 H   0  0  0  0  0  0  0  0  0  0  0  0
   -2.3185    6.6742    1.1790 C   0  0  0  0  0  0  0  0  0  0  0  0
   -3.1648    6.2914    0.6277 H   0  0  0  0  0  0  0  0  0  0  0  0
   -1.4993    7.6512    0.6238 C   0  0  0  0  0  0  0  0  0  0  0  0
   -1.6913    8.0462   -0.3607 H   0  0  0  0  0  0  0  0  0  0  0  0
   -0.4284    8.1124    1.3724 C   0  0  0  0  0  0  0  0  0  0  0  0
    0.2360    8.8742    0.9845 H   0  0  0  0  0  0  0  0  0  0  0  0
    3.6581    9.4136    5.5763 C   0  0  0  0  0  0  0  0  0  0  0  0
    4.7451   10.2798    5.7690 C   0  0  0  0  0  0  0  0  0  0  0  0
    4.9248   11.0462    5.0344 H   0  0  0  0  0  0  0  0  0  0  0  0
    5.5260   10.1198    6.8856 C   0  0  0  0  0  0  0  0  0  0  0  0
    6.3684   10.7703    7.0657 H   0  0  0  0  0  0  0  0  0  0  0  0
    5.2133    9.1076    7.7963 C   0  0  0  0  0  0  0  0  0  0  0  0
    5.7976    8.9643    8.6905 H   0  0  0  0  0  0  0  0  0  0  0  0
    4.1347    8.2896    7.5412 C   0  0  0  0  0  0  0  0  0  0  0  0
    3.8549    7.5003    8.2276 H   0  0  0  0  0  0  0  0  0  0  0  0
    3.3490    5.7285    4.9572 P   0  0  0  0  0  4  0  0  0  0  0  0
    2.0300    5.8704    7.5361 O   0  0  0  0  0  0  0  0  0  0  0  0
    2.9647    4.6014    3.5888 C   0  0  0  0  0  0  0  0  0  0  0  0
    1.7379    3.9456    3.6631 C   0  0  0  0  0  0  0  0  0  0  0  0
    1.0797    4.1582    4.4959 H   0  0  0  0  0  0  0  0  0  0  0  0
    1.3788    3.0380    2.6864 C   0  0  0  0  0  0  0  0  0  0  0  0
    0.4267    2.5320    2.7432 H   0  0  0  0  0  0  0  0  0  0  0  0
    2.2438    2.7770    1.6342 C   0  0  0  0  0  0  0  0  0  0  0  0
    1.9645    2.0679    0.8691 H   0  0  0  0  0  0  0  0  0  0  0  0
    3.4681    3.4202    1.5651 C   0  0  0  0  0  0  0  0  0  0  0  0
    4.1442    3.2092    0.7494 H   0  0  0  0  0  0  0  0  0  0  0  0
    3.8341    4.3330    2.5393 C   0  0  0  0  0  0  0  0  0  0  0  0
    4.7920    4.8307    2.4850 H   0  0  0  0  0  0  0  0  0  0  0  0
    4.8810    6.5794    4.4886 C   0  0  0  0  0  0  0  0  0  0  0  0
    4.8617    7.3701    3.3401 C   0  0  0  0  0  0  0  0  0  0  0  0
    3.9819    7.3655    2.7096 H   0  0  0  0  0  0  0  0  0  0  0  0
    5.9529    8.1553    3.0240 C   0  0  0  0  0  0  0  0  0  0  0  0
    5.9357    8.7675    2.1350 H   0  0  0  0  0  0  0  0  0  0  0  0
    7.0609    8.1697    3.8575 C   0  0  0  0  0  0  0  0  0  0  0  0
    7.9097    8.7916    3.6150 H   0  0  0  0  0  0  0  0  0  0  0  0
    7.0794    7.3930    5.0039 C   0  0  0  0  0  0  0  0  0  0  0  0
    7.9412    7.4085    5.6548 H   0  0  0  0  0  0  0  0  0  0  0  0
    5.9908    6.6015    5.3254 C   0  0  0  0  0  0  0  0  0  0  0  0
    5.9963    6.0006    6.2249 H   0  0  0  0  0  0  0  0  0  0  0  0
    3.6930    4.6569    6.3506 C   0  0  0  0  0  0  0  0  0  0  0  0
    4.6187    3.6183    6.3161 C   0  0  0  0  0  0  0  0  0  0  0  0
    5.1768    3.4367    5.4060 H   0  0  0  0  0  0  0  0  0  0  0  0
    4.8175    2.8419    7.4367 C   0  0  0  0  0  0  0  0  0  0  0  0
    5.5382    2.0388    7.4244 H   0  0  0  0  0  0  0  0  0  0  0  0
    4.0754    3.1016    8.5880 C   0  0  0  0  0  0  0  0  0  0  0  0
    4.2325    2.4917    9.4664 H   0  0  0  0  0  0  0  0  0  0  0  0
    3.1457    4.1118    8.6313 C   0  0  0  0  0  0  0  0  0  0  0  0
    2.5659    4.3009    9.5222 H   0  0  0  0  0  0  0  0  0  0  0  0
    2.9072    4.9283    7.5031 C   0  0  0  0  0  0  0  0  0  0  0  0
  1  9  1  0  0  0  0
  1  2  1  0  0  0  0
  1 29  1  0  0  0  0
  3  1  1  0  0  0  0
  4  3  1  0  0  0  0
  5 10  2  0  0  0  0
  6  1  1  0  0  0  0
  7  6  1  0  0  0  0
  8  6  1  0  0  0  0
  8 19  2  0  0  0  0
  9 26  1  0  0  0  0
 10  4  1  0  0  0  0
 11 12  1  0  0  0  0
 11 10  1  0  0  0  0
 13 11  2  0  0  0  0
 14 13  1  0  0  0  0
 15 13  1  0  0  0  0
 15 17  2  0  0  0  0
 16 15  1  0  0  0  0
 17  5  1  0  0  0  0
 18 17  1  0  0  0  0
 19 20  1  0  0  0  0
 19  9  1  0  0  0  0
 20 22  2  0  0  0  0
 21 20  1  0  0  0  0
 22 23  1  0  0  0  0
 22 24  1  0  0  0  0
 24 25  1  0  0  0  0
 26 24  2  0  0  0  0
 26 27  1  0  0  0  0
 28  1  1  0  0  0  0
 28 52  1  0  0  0  0
 30 31  1  0  0  0  0
 30 28  1  0  0  0  0
 31 32  1  0  0  0  0
 33 34  1  0  0  0  0
 33 31  2  0  0  0  0
 35 33  1  0  0  0  0
 36 35  1  0  0  0  0
 37 35  2  0  0  0  0
 37 39  1  0  0  0  0
 38 37  1  0  0  0  0
 39 30  2  0  0  0  0
 40 39  1  0  0  0  0
 41 28  1  0  0  0  0
 41 50  1  0  0  0  0
 42 41  2  0  0  0  0
 43 42  1  0  0  0  0
 44 42  1  0  0  0  0
 44 46  2  0  0  0  0
 45 44  1  0  0  0  0
 46 48  1  0  0  0  0
 47 46  1  0  0  0  0
 48 50  2  0  0  0  0
 48 49  1  0  0  0  0
 50 51  1  0  0  0  0
 52 61  1  0  0  0  0
 53 52  2  0  0  0  0
 53 55  1  0  0  0  0
 54 53  1  0  0  0  0
 55 57  2  0  0  0  0
 56 55  1  0  0  0  0
 57 59  1  0  0  0  0
 57 58  1  0  0  0  0
 59 60  1  0  0  0  0
 61 29  1  0  0  0  0
 61 59  2  0  0  0  0
M  END
$$$$
