CSD_code = TIKLOR | q = 0 | S = 0 | Stoichiometry = C12H26Cl2N2O4Pd | MND = 4
 OpenBabel04212202103D

 47 48  0  0  1  0  0  0  0  0999 V2000
    4.1992    8.2367    3.8698 Pd  0  0  0  0  0  0  0  0  0  0  0  0
    2.5245    6.8707    3.0596 Cl  0  0  0  0  0  0  0  0  0  0  0  0
    5.0668    6.4952    5.9295 O   0  0  0  0  0  0  0  0  0  0  0  0
    2.4702    7.5110    6.5031 O   0  0  0  0  0  0  0  0  0  0  0  0
    3.9467    5.6250    6.0283 C   0  0  0  0  0  0  0  0  0  0  0  0
    4.2597    4.6478    6.4252 H   0  0  0  0  0  0  0  0  0  0  0  0
    3.4640    5.4961    5.0506 H   0  0  0  0  0  0  0  0  0  0  0  0
    6.0228    5.7212    3.8050 C   0  0  0  0  0  0  0  0  0  0  0  0
    6.9530    5.2823    3.4126 H   0  0  0  0  0  0  0  0  0  0  0  0
    5.2115    5.0027    3.6440 H   0  0  0  0  0  0  0  0  0  0  0  0
    2.8124    9.8310    6.0946 C   0  0  0  0  0  0  0  0  0  0  0  0
    1.8344   10.1669    6.4695 H   0  0  0  0  0  0  0  0  0  0  0  0
    3.5436   10.6327    6.2341 H   0  0  0  0  0  0  0  0  0  0  0  0
    2.9312    6.2698    6.9780 C   0  0  0  0  0  0  0  0  0  0  0  0
    2.0532    5.6204    7.0394 H   0  0  0  0  0  0  0  0  0  0  0  0
    3.3713    6.3851    7.9773 H   0  0  0  0  0  0  0  0  0  0  0  0
    3.2787    8.6145    6.8835 C   0  0  0  0  0  0  0  0  0  0  0  0
    4.3348    8.4211    6.6609 H   0  0  0  0  0  0  0  0  0  0  0  0
    3.1666    8.8073    7.9625 H   0  0  0  0  0  0  0  0  0  0  0  0
    6.2035    5.9618    5.3064 C   0  0  0  0  0  0  0  0  0  0  0  0
    6.4934    5.0127    5.7851 H   0  0  0  0  0  0  0  0  0  0  0  0
    6.9883    6.7069    5.4735 H   0  0  0  0  0  0  0  0  0  0  0  0
    2.7087    9.5277    4.6650 N   0  0  1  0  0  4  0  0  0  0  0  0
    1.9495    8.8441    4.5464 H   0  0  0  0  0  0  0  0  0  0  0  0
    3.3324    9.9778    1.8126 O   0  0  0  0  0  0  0  0  0  0  0  0
    5.9290    8.9623    1.2386 O   0  0  0  0  0  0  0  0  0  0  0  0
    4.4524   10.8482    1.7135 C   0  0  0  0  0  0  0  0  0  0  0  0
    4.1392   11.8253    1.3166 H   0  0  0  0  0  0  0  0  0  0  0  0
    4.9351   10.9772    2.6912 H   0  0  0  0  0  0  0  0  0  0  0  0
    2.3763   10.7519    3.9369 C   0  0  0  0  0  0  0  0  0  0  0  0
    1.4459   11.1906    4.3292 H   0  0  0  0  0  0  0  0  0  0  0  0
    3.1874   11.4707    4.0978 H   0  0  0  0  0  0  0  0  0  0  0  0
    5.5869    6.6422    1.6474 C   0  0  0  0  0  0  0  0  0  0  0  0
    6.5649    6.3063    1.2723 H   0  0  0  0  0  0  0  0  0  0  0  0
    4.8557    5.8406    1.5080 H   0  0  0  0  0  0  0  0  0  0  0  0
    5.4678   10.2034    0.7638 C   0  0  0  0  0  0  0  0  0  0  0  0
    6.3457   10.8528    0.7022 H   0  0  0  0  0  0  0  0  0  0  0  0
    5.0276   10.0879   -0.2355 H   0  0  0  0  0  0  0  0  0  0  0  0
    5.1204    7.8587    0.8584 C   0  0  0  0  0  0  0  0  0  0  0  0
    4.0644    8.0521    1.0811 H   0  0  0  0  0  0  0  0  0  0  0  0
    5.2323    7.6658   -0.2206 H   0  0  0  0  0  0  0  0  0  0  0  0
    2.1955   10.5111    2.4355 C   0  0  0  0  0  0  0  0  0  0  0  0
    1.9055   11.4601    1.9567 H   0  0  0  0  0  0  0  0  0  0  0  0
    1.4109    9.7658    2.2686 H   0  0  0  0  0  0  0  0  0  0  0  0
    5.6908    6.9455    3.0769 N   0  0  1  0  0  4  0  0  0  0  0  0
    6.4503    7.6290    3.1954 H   0  0  0  0  0  0  0  0  0  0  0  0
    5.8732    9.6025    4.6831 Cl  0  0  0  0  0  0  0  0  0  0  0  0
  1 23  1  0  0  0  0
  1 47  1  0  0  0  0
  2  1  1  0  0  0  0
  3  5  1  0  0  0  0
  4 17  1  0  0  0  0
  4 14  1  0  0  0  0
  5  6  1  0  0  0  0
  5 14  1  0  0  0  0
  7  5  1  0  0  0  0
  8 20  1  0  0  0  0
  9  8  1  0  0  0  0
 10  8  1  0  0  0  0
 11 13  1  0  0  0  0
 11 12  1  0  0  0  0
 11 17  1  0  0  0  0
 14 15  1  0  0  0  0
 14 16  1  0  0  0  0
 17 19  1  0  0  0  0
 18 17  1  0  0  0  0
 20 22  1  0  0  0  0
 20 21  1  0  0  0  0
 20  3  1  0  0  0  0
 23 24  1  6  0  0  0
 23 11  1  0  0  0  0
 25 42  1  0  0  0  0
 27 25  1  0  0  0  0
 27 29  1  0  0  0  0
 28 27  1  0  0  0  0
 30 32  1  0  0  0  0
 30 31  1  0  0  0  0
 30 23  1  0  0  0  0
 33 45  1  0  0  0  0
 34 33  1  0  0  0  0
 35 33  1  0  0  0  0
 36 26  1  0  0  0  0
 36 27  1  0  0  0  0
 37 36  1  0  0  0  0
 38 36  1  0  0  0  0
 39 40  1  0  0  0  0
 39 26  1  0  0  0  0
 39 33  1  0  0  0  0
 41 39  1  0  0  0  0
 42 30  1  0  0  0  0
 43 42  1  0  0  0  0
 44 42  1  0  0  0  0
 45 46  1  1  0  0  0
 45  8  1  0  0  0  0
 45  1  1  0  0  0  0
M  END
$$$$
