CSD_code = TIKLIL | q = 0 | S = 0 | Stoichiometry = C12H26Cl2N2O4Pd | MND = 4
 OpenBabel04212202103D

 47 48  0  0  1  0  0  0  0  0999 V2000
    7.8240    2.7770    2.4574 Pd  0  0  0  0  0  0  0  0  0  0  0  0
    7.8253    5.1100    2.4592 Cl  0  0  0  0  0  0  0  0  0  0  0  0
    7.8235    0.4727    2.4586 Cl  0  0  0  0  0  0  0  0  0  0  0  0
   10.2544    3.3124    3.7511 O   0  0  0  0  0  0  0  0  0  0  0  0
   10.9329    3.4193    0.8962 O   0  0  0  0  0  0  0  0  0  0  0  0
    7.4072    2.8227    4.4928 N   0  0  2  0  0  4  0  0  0  0  0  0
    7.0428    3.7818    4.5662 H   0  0  0  0  0  0  0  0  0  0  0  0
    8.5904    2.6881    5.3420 C   0  0  0  0  0  0  0  0  0  0  0  0
    8.9980    1.6804    5.1997 H   0  0  0  0  0  0  0  0  0  0  0  0
    8.3205    2.8209    6.4003 H   0  0  0  0  0  0  0  0  0  0  0  0
    6.3351    1.9222    4.9189 C   0  0  0  0  0  0  0  0  0  0  0  0
    6.0289    2.1624    5.9471 H   0  0  0  0  0  0  0  0  0  0  0  0
    6.6959    0.8910    4.8766 H   0  0  0  0  0  0  0  0  0  0  0  0
   11.0557    4.3287    3.1739 C   0  0  0  0  0  0  0  0  0  0  0  0
   11.7984    4.6794    3.9070 H   0  0  0  0  0  0  0  0  0  0  0  0
   10.4207    5.1722    2.8712 H   0  0  0  0  0  0  0  0  0  0  0  0
    9.6667    3.7057    4.9725 C   0  0  0  0  0  0  0  0  0  0  0  0
    9.2213    4.7074    4.8759 H   0  0  0  0  0  0  0  0  0  0  0  0
   10.4372    3.7398    5.7595 H   0  0  0  0  0  0  0  0  0  0  0  0
   10.5080    2.0645    0.9307 C   0  0  0  0  0  0  0  0  0  0  0  0
   10.2105    1.7732    1.9495 H   0  0  0  0  0  0  0  0  0  0  0  0
   11.3249    1.4083    0.5922 H   0  0  0  0  0  0  0  0  0  0  0  0
   11.7944    3.7825    1.9480 C   0  0  0  0  0  0  0  0  0  0  0  0
   12.4346    4.5799    1.5580 H   0  0  0  0  0  0  0  0  0  0  0  0
   12.4198    2.9303    2.2411 H   0  0  0  0  0  0  0  0  0  0  0  0
    5.3930    3.3123    1.1639 O   0  0  0  0  0  0  0  0  0  0  0  0
    4.7147    3.4192    4.0188 O   0  0  0  0  0  0  0  0  0  0  0  0
    8.2404    2.8227    0.4219 N   0  0  2  0  0  4  0  0  0  0  0  0
    8.6048    3.7818    0.3485 H   0  0  0  0  0  0  0  0  0  0  0  0
    7.0571    2.6881   -0.4271 C   0  0  0  0  0  0  0  0  0  0  0  0
    6.6496    1.6804   -0.2847 H   0  0  0  0  0  0  0  0  0  0  0  0
    7.3269    2.8209   -1.4854 H   0  0  0  0  0  0  0  0  0  0  0  0
    9.3125    1.9223   -0.0040 C   0  0  0  0  0  0  0  0  0  0  0  0
    9.6188    2.1624   -1.0322 H   0  0  0  0  0  0  0  0  0  0  0  0
    8.9518    0.8910    0.0384 H   0  0  0  0  0  0  0  0  0  0  0  0
    4.5917    4.3286    1.7411 C   0  0  0  0  0  0  0  0  0  0  0  0
    3.8490    4.6793    1.0080 H   0  0  0  0  0  0  0  0  0  0  0  0
    5.2268    5.1721    2.0438 H   0  0  0  0  0  0  0  0  0  0  0  0
    5.9807    3.7056   -0.0575 C   0  0  0  0  0  0  0  0  0  0  0  0
    6.4261    4.7073    0.0391 H   0  0  0  0  0  0  0  0  0  0  0  0
    5.2102    3.7397   -0.8446 H   0  0  0  0  0  0  0  0  0  0  0  0
    5.1395    2.0644    3.9843 C   0  0  0  0  0  0  0  0  0  0  0  0
    5.4370    1.7731    2.9655 H   0  0  0  0  0  0  0  0  0  0  0  0
    4.3227    1.4083    4.3228 H   0  0  0  0  0  0  0  0  0  0  0  0
    3.8531    3.7825    2.9671 C   0  0  0  0  0  0  0  0  0  0  0  0
    3.2130    4.5799    3.3570 H   0  0  0  0  0  0  0  0  0  0  0  0
    3.2277    2.9303    2.6740 H   0  0  0  0  0  0  0  0  0  0  0  0
  1  3  1  0  0  0  0
  1  2  1  0  0  0  0
  1  6  1  0  0  0  0
  4 17  1  0  0  0  0
  5 20  1  0  0  0  0
  5 23  1  0  0  0  0
  6  7  1  1  0  0  0
  6 11  1  0  0  0  0
  6  8  1  0  0  0  0
  8 10  1  0  0  0  0
  9  8  1  0  0  0  0
 11 12  1  0  0  0  0
 13 11  1  0  0  0  0
 14  4  1  0  0  0  0
 14 15  1  0  0  0  0
 16 14  1  0  0  0  0
 17  8  1  0  0  0  0
 17 19  1  0  0  0  0
 18 17  1  0  0  0  0
 20 21  1  0  0  0  0
 22 20  1  0  0  0  0
 23 25  1  0  0  0  0
 23 14  1  0  0  0  0
 24 23  1  0  0  0  0
 26 36  1  0  0  0  0
 28 29  1  6  0  0  0
 28  1  1  0  0  0  0
 30 31  1  0  0  0  0
 30 39  1  0  0  0  0
 30 28  1  0  0  0  0
 32 30  1  0  0  0  0
 33 35  1  0  0  0  0
 33 28  1  0  0  0  0
 33 20  1  0  0  0  0
 34 33  1  0  0  0  0
 36 38  1  0  0  0  0
 36 45  1  0  0  0  0
 37 36  1  0  0  0  0
 39 40  1  0  0  0  0
 39 26  1  0  0  0  0
 41 39  1  0  0  0  0
 42 27  1  0  0  0  0
 42 44  1  0  0  0  0
 42 11  1  0  0  0  0
 43 42  1  0  0  0  0
 45 46  1  0  0  0  0
 45 27  1  0  0  0  0
 47 45  1  0  0  0  0
M  END
$$$$
