CSD_code = TILFAW | q = 1 | S = 0 | Stoichiometry = C16H36ClN4Ni(1+) | MND = 5
 OpenBabel04212202103D

 58 61  0  0  1  0  0  0  0  0999 V2000
    2.7650    8.1144    2.2639 Ni  0  0  0  0  0  0  0  0  0  0  0  0
    4.8069    7.7319    1.7514 Cl  0  0  0  0  0  0  0  0  0  0  0  0
    1.4269    9.4693    3.2029 N   0  0  1  0  0  4  0  0  0  0  0  0
    0.5015    9.0419    3.1230 H   0  0  0  0  0  0  0  0  0  0  0  0
    2.9062    7.1496    4.0087 N   0  0  1  0  0  4  0  0  0  0  0  0
    3.8589    7.4157    4.2800 H   0  0  0  0  0  0  0  0  0  0  0  0
    1.3833    6.5073    1.4151 N   0  0  2  0  0  4  0  0  0  0  0  0
    0.3957    6.6849    1.6075 H   0  0  0  0  0  0  0  0  0  0  0  0
    2.5401    8.9781    0.5216 N   0  0  1  0  0  4  0  0  0  0  0  0
    3.4479    8.7359    0.1067 H   0  0  0  0  0  0  0  0  0  0  0  0
    1.8732    9.3158    4.5936 C   0  0  0  0  0  0  0  0  0  0  0  0
    1.1876    9.7941    5.3048 H   0  0  0  0  0  0  0  0  0  0  0  0
    2.8547    9.7913    4.6953 H   0  0  0  0  0  0  0  0  0  0  0  0
    1.9749    7.8325    4.9259 C   0  0  0  0  0  0  0  0  0  0  0  0
    2.2932    7.7289    5.9678 H   0  0  0  0  0  0  0  0  0  0  0  0
    0.9861    7.3782    4.8213 H   0  0  0  0  0  0  0  0  0  0  0  0
    2.8677    5.6575    4.1174 C   0  0  0  0  0  0  0  0  0  0  0  0
    2.7741    5.2296    5.5929 C   0  0  0  0  0  0  0  0  0  0  0  0
    3.5290    5.7325    6.1932 H   0  0  0  0  0  0  0  0  0  0  0  0
    2.9624    4.1620    5.6613 H   0  0  0  0  0  0  0  0  0  0  0  0
    1.7936    5.4183    6.0217 H   0  0  0  0  0  0  0  0  0  0  0  0
    4.1778    5.0884    3.5716 C   0  0  0  0  0  0  0  0  0  0  0  0
    4.4060    5.4774    2.5851 H   0  0  0  0  0  0  0  0  0  0  0  0
    4.1155    4.0058    3.5126 H   0  0  0  0  0  0  0  0  0  0  0  0
    5.0039    5.3432    4.2319 H   0  0  0  0  0  0  0  0  0  0  0  0
    1.6537    5.0611    3.3774 C   0  0  0  0  0  0  0  0  0  0  0  0
    1.6056    4.0096    3.6594 H   0  0  0  0  0  0  0  0  0  0  0  0
    0.7342    5.5276    3.7393 H   0  0  0  0  0  0  0  0  0  0  0  0
    1.6630    5.1293    1.8437 C   0  0  1  0  0  0  0  0  0  0  0  0
    2.6561    4.8701    1.4692 H   0  0  0  0  0  0  0  0  0  0  0  0
    0.6447    4.1334    1.2834 C   0  0  0  0  0  0  0  0  0  0  0  0
   -0.3576    4.3614    1.6428 H   0  0  0  0  0  0  0  0  0  0  0  0
    0.8964    3.1242    1.5949 H   0  0  0  0  0  0  0  0  0  0  0  0
    0.6377    4.1499    0.1970 H   0  0  0  0  0  0  0  0  0  0  0  0
    1.6131    6.7638   -0.0120 C   0  0  0  0  0  0  0  0  0  0  0  0
    0.8921    6.2476   -0.6581 H   0  0  0  0  0  0  0  0  0  0  0  0
    2.6185    6.4113   -0.2604 H   0  0  0  0  0  0  0  0  0  0  0  0
    1.5187    8.2682   -0.2658 C   0  0  0  0  0  0  0  0  0  0  0  0
    1.6533    8.4566   -1.3353 H   0  0  0  0  0  0  0  0  0  0  0  0
    0.5246    8.6168    0.0246 H   0  0  0  0  0  0  0  0  0  0  0  0
    2.4788   10.4614    0.4994 C   0  0  0  0  0  0  0  0  0  0  0  0
    2.4090   10.9665   -0.9490 C   0  0  0  0  0  0  0  0  0  0  0  0
    3.1631   10.4804   -1.5641 H   0  0  0  0  0  0  0  0  0  0  0  0
    2.6038   12.0350   -0.9686 H   0  0  0  0  0  0  0  0  0  0  0  0
    1.4297   10.7971   -1.3890 H   0  0  0  0  0  0  0  0  0  0  0  0
    3.7803   10.9641    1.1306 C   0  0  0  0  0  0  0  0  0  0  0  0
    3.9815   10.4391    2.0679 H   0  0  0  0  0  0  0  0  0  0  0  0
    3.7259   12.0311    1.3254 H   0  0  0  0  0  0  0  0  0  0  0  0
    4.6183   10.7827    0.4619 H   0  0  0  0  0  0  0  0  0  0  0  0
    1.2497   10.9926    1.2588 C   0  0  0  0  0  0  0  0  0  0  0  0
    1.1536   12.0514    1.0184 H   0  0  0  0  0  0  0  0  0  0  0  0
    0.3474   10.5014    0.8903 H   0  0  0  0  0  0  0  0  0  0  0  0
    1.2906   10.8748    2.7873 C   0  0  1  0  0  0  0  0  0  0  0  0
    2.1654   11.4115    3.1645 H   0  0  0  0  0  0  0  0  0  0  0  0
    0.0286   11.5130    3.3718 C   0  0  0  0  0  0  0  0  0  0  0  0
   -0.8643   11.0014    3.0161 H   0  0  0  0  0  0  0  0  0  0  0  0
   -0.0366   12.5540    3.0698 H   0  0  0  0  0  0  0  0  0  0  0  0
    0.0353   11.4861    4.4582 H   0  0  0  0  0  0  0  0  0  0  0  0
  1  3  1  0  0  0  0
  1  5  1  0  0  0  0
  2  1  1  0  0  0  0
  3  4  1  6  0  0  0
  3 11  1  0  0  0  0
  5 17  1  0  0  0  0
  5  6  1  1  0  0  0
  5 14  1  0  0  0  0
  7  8  1  1  0  0  0
  7 29  1  0  0  0  0
  7  1  1  0  0  0  0
  9 10  1  6  0  0  0
  9  1  1  0  0  0  0
 11 13  1  0  0  0  0
 11 14  1  0  0  0  0
 11 12  1  0  0  0  0
 14 15  1  0  0  0  0
 16 14  1  0  0  0  0
 17 18  1  0  0  0  0
 18 20  1  0  0  0  0
 18 21  1  0  0  0  0
 18 19  1  0  0  0  0
 22 17  1  0  0  0  0
 22 25  1  0  0  0  0
 23 22  1  0  0  0  0
 24 22  1  0  0  0  0
 26 27  1  0  0  0  0
 26 28  1  0  0  0  0
 26 17  1  0  0  0  0
 29 30  1  6  0  0  0
 29 26  1  0  0  0  0
 31 33  1  0  0  0  0
 31 32  1  0  0  0  0
 31 29  1  0  0  0  0
 34 31  1  0  0  0  0
 35  7  1  0  0  0  0
 36 35  1  0  0  0  0
 37 35  1  0  0  0  0
 38 35  1  0  0  0  0
 38 40  1  0  0  0  0
 38  9  1  0  0  0  0
 39 38  1  0  0  0  0
 41  9  1  0  0  0  0
 41 46  1  0  0  0  0
 41 50  1  0  0  0  0
 42 41  1  0  0  0  0
 43 42  1  0  0  0  0
 44 42  1  0  0  0  0
 45 42  1  0  0  0  0
 46 48  1  0  0  0  0
 46 47  1  0  0  0  0
 49 46  1  0  0  0  0
 50 53  1  0  0  0  0
 51 50  1  0  0  0  0
 52 50  1  0  0  0  0
 53 54  1  1  0  0  0
 53  3  1  0  0  0  0
 53 55  1  0  0  0  0
 55 58  1  0  0  0  0
 56 55  1  0  0  0  0
 57 55  1  0  0  0  0
M  END
$$$$
