CSD_code = TIMDEZ | q = -1 | S = 0 | Stoichiometry = C13H16Cl3NO2Re(1-) | MND = 6
 OpenBabel04212202103D

 36 37  0  0  1  0  0  0  0  0999 V2000
    5.4660    1.5247   10.5289 Re  0  0  0  0  0  0  0  0  0  0  0  0
    4.8738    3.7697   10.1316 Cl  0  0  0  0  0  0  0  0  0  0  0  0
    5.8750   -0.6930   11.3254 Cl  0  0  0  0  0  0  0  0  0  0  0  0
    3.3722    0.8924    9.7479 Cl  0  0  0  0  0  0  0  0  0  0  0  0
    6.2407    1.2932    9.0907 O   0  0  0  0  0  1  0  0  0  0  0  0
    4.6962    1.7509   12.2519 O   0  0  0  0  0  0  0  0  0  0  0  0
    7.3061    2.1237   11.6627 N   0  0  0  0  0  0  0  0  0  0  0  0
    8.8222    2.1357   13.5707 C   0  0  0  0  0  0  0  0  0  0  0  0
    9.6074    1.8511   12.8743 H   0  0  0  0  0  0  0  0  0  0  0  0
    8.8966    1.5286   14.4696 H   0  0  0  0  0  0  0  0  0  0  0  0
    8.9792    3.1788   13.8459 H   0  0  0  0  0  0  0  0  0  0  0  0
    7.4599    1.9641   12.9419 C   0  0  1  0  0  3  0  0  0  0  0  0
    6.3957    1.6758   13.8358 C   0  0  0  0  0  0  0  0  0  0  0  0
    6.6462    1.5426   14.8766 H   0  0  0  0  0  0  0  0  0  0  0  0
    5.0718    1.6168   13.4664 C   0  0  0  0  0  0  0  0  0  0  0  0
    3.9860    1.3959   14.4880 C   0  0  0  0  0  0  0  0  0  0  0  0
    3.4885    0.4523   14.2662 H   0  0  0  0  0  0  0  0  0  0  0  0
    3.2446    2.1895   14.4035 H   0  0  0  0  0  0  0  0  0  0  0  0
    4.3877    1.3684   15.4967 H   0  0  0  0  0  0  0  0  0  0  0  0
    8.3818    2.6047   10.8833 C   0  0  0  0  0  0  0  0  0  0  0  0
    9.2021    1.7147   10.1799 C   0  0  0  0  0  0  0  0  0  0  0  0
   10.2360    2.2282    9.4096 C   0  0  0  0  0  0  0  0  0  0  0  0
   10.8691    1.5448    8.8608 H   0  0  0  0  0  0  0  0  0  0  0  0
   10.4603    3.5895    9.3326 C   0  0  0  0  0  0  0  0  0  0  0  0
   11.2679    3.9735    8.7246 H   0  0  0  0  0  0  0  0  0  0  0  0
    9.6459    4.4584   10.0342 C   0  0  0  0  0  0  0  0  0  0  0  0
    9.8153    5.5245    9.9726 H   0  0  0  0  0  0  0  0  0  0  0  0
    8.6037    3.9863   10.8184 C   0  0  0  0  0  0  0  0  0  0  0  0
    7.7136    4.9412   11.5501 C   0  0  0  0  0  0  0  0  0  0  0  0
    8.0802    5.9606   11.4508 H   0  0  0  0  0  0  0  0  0  0  0  0
    7.6421    4.6949   12.6089 H   0  0  0  0  0  0  0  0  0  0  0  0
    6.7070    4.8819   11.1305 H   0  0  0  0  0  0  0  0  0  0  0  0
    8.9583    0.2414   10.2343 C   0  0  0  0  0  0  0  0  0  0  0  0
    9.7998   -0.3090    9.8190 H   0  0  0  0  0  0  0  0  0  0  0  0
    8.0644    0.0104    9.6511 H   0  0  0  0  0  0  0  0  0  0  0  0
    8.7639   -0.1010   11.2488 H   0  0  0  0  0  0  0  0  0  0  0  0
  1  3  1  0  0  0  0
  1  7  1  0  0  0  0
  1  6  1  0  0  0  0
  2  1  1  0  0  0  0
  4  1  1  0  0  0  0
  5  1  1  0  0  0  0
  6 15  1  0  0  0  0
  7 12  1  0  0  0  0
  8 11  1  0  0  0  0
  8 10  1  0  0  0  0
  9  8  1  0  0  0  0
 12  8  1  1  0  0  0
 12 13  1  0  0  0  0
 13 14  1  0  0  0  0
 15 13  2  0  0  0  0
 15 16  1  0  0  0  0
 16 19  1  0  0  0  0
 17 16  1  0  0  0  0
 18 16  1  0  0  0  0
 20  7  1  0  0  0  0
 21 33  1  0  0  0  0
 21 20  2  0  0  0  0
 22 21  1  0  0  0  0
 23 22  1  0  0  0  0
 24 22  2  0  0  0  0
 24 26  1  0  0  0  0
 25 24  1  0  0  0  0
 26 28  2  0  0  0  0
 27 26  1  0  0  0  0
 28 20  1  0  0  0  0
 28 29  1  0  0  0  0
 29 31  1  0  0  0  0
 30 29  1  0  0  0  0
 32 29  1  0  0  0  0
 33 36  1  0  0  0  0
 34 33  1  0  0  0  0
 35 33  1  0  0  0  0
M  END
$$$$
