CSD_code = TIMMUX | q = 0 | S = 0 | Stoichiometry = C22H21ClPdS2 | MND = 4
 OpenBabel04212202103D

 47 51  0  0  0  0  0  0  0  0999 V2000
    0.0000    0.9700    2.2556 Pd  0  0  1  0  0  0  0  0  0  0  0  0
   -0.0002   -1.3443    2.2554 Cl  0  0  0  0  0  0  0  0  0  0  0  0
    1.5768    1.1105    3.9002 S   0  0  2  0  0  3  0  0  0  0  0  0
    0.0001    2.9656    2.2554 C   0  0  0  0  0  0  0  0  0  0  0  0
    0.8394    3.6789    3.1173 C   0  0  0  0  0  0  0  0  0  0  0  0
    0.8408    5.0685    3.1096 C   0  0  0  0  0  0  0  0  0  0  0  0
   -0.0002    5.7593    2.2555 C   0  0  0  0  0  0  0  0  0  0  0  0
    1.7222    2.9325    4.0769 C   0  0  0  0  0  0  0  0  0  0  0  0
    2.8648    0.7883    2.6061 C   0  0  0  0  0  0  0  0  0  0  0  0
    4.2174    1.1334    3.1281 C   0  0  0  0  0  0  0  0  0  0  0  0
    4.8859    2.2632    2.6710 C   0  0  0  0  0  0  0  0  0  0  0  0
    6.1264    2.5982    3.1871 C   0  0  0  0  0  0  0  0  0  0  0  0
    6.7045    1.8126    4.1687 C   0  0  0  0  0  0  0  0  0  0  0  0
    6.0407    0.6879    4.6330 C   0  0  0  0  0  0  0  0  0  0  0  0
    4.8033    0.3511    4.1181 C   0  0  0  0  0  0  0  0  0  0  0  0
   -0.0003    6.8390    2.2556 H   0  0  0  0  0  0  0  0  0  0  0  0
    1.4984    5.6067    3.7779 H   0  0  0  0  0  0  0  0  0  0  0  0
    1.4349    3.1433    5.1100 H   0  0  0  0  0  0  0  0  0  0  0  0
    2.7794    3.1817    3.9591 H   0  0  0  0  0  0  0  0  0  0  0  0
    2.7589   -0.2828    2.4049 H   0  0  0  0  0  0  0  0  0  0  0  0
    2.6092    1.3698    1.7069 H   0  0  0  0  0  0  0  0  0  0  0  0
    4.4394    2.8764    1.9000 H   0  0  0  0  0  0  0  0  0  0  0  0
    6.6396    3.4757    2.8225 H   0  0  0  0  0  0  0  0  0  0  0  0
    7.6709    2.0754    4.5721 H   0  0  0  0  0  0  0  0  0  0  0  0
    6.4896    0.0730    5.3986 H   0  0  0  0  0  0  0  0  0  0  0  0
    4.2787   -0.5205    4.4808 H   0  0  0  0  0  0  0  0  0  0  0  0
   -1.5766    1.1104    0.6108 S   0  0  2  0  0  3  0  0  0  0  0  0
   -1.7220    2.9324    0.4338 C   0  0  0  0  0  0  0  0  0  0  0  0
   -0.8394    3.6788    1.3936 C   0  0  0  0  0  0  0  0  0  0  0  0
   -0.8410    5.0684    1.4013 C   0  0  0  0  0  0  0  0  0  0  0  0
   -1.4987    5.6065    0.7331 H   0  0  0  0  0  0  0  0  0  0  0  0
   -1.4345    3.1430   -0.5992 H   0  0  0  0  0  0  0  0  0  0  0  0
   -2.7793    3.1816    0.5514 H   0  0  0  0  0  0  0  0  0  0  0  0
   -2.8648    0.7884    1.9049 C   0  0  0  0  0  0  0  0  0  0  0  0
   -4.2174    1.1335    1.3829 C   0  0  0  0  0  0  0  0  0  0  0  0
   -4.8859    2.2633    1.8401 C   0  0  0  0  0  0  0  0  0  0  0  0
   -6.1265    2.5982    1.3241 C   0  0  0  0  0  0  0  0  0  0  0  0
   -6.7045    1.8126    0.3424 C   0  0  0  0  0  0  0  0  0  0  0  0
   -6.0407    0.6880   -0.1219 C   0  0  0  0  0  0  0  0  0  0  0  0
   -4.8033    0.3513    0.3928 C   0  0  0  0  0  0  0  0  0  0  0  0
   -4.2786   -0.5203    0.0301 H   0  0  0  0  0  0  0  0  0  0  0  0
   -6.4897    0.0732   -0.8875 H   0  0  0  0  0  0  0  0  0  0  0  0
   -7.6710    2.0753   -0.0608 H   0  0  0  0  0  0  0  0  0  0  0  0
   -6.6397    3.4756    1.6888 H   0  0  0  0  0  0  0  0  0  0  0  0
   -4.4393    2.8764    2.6111 H   0  0  0  0  0  0  0  0  0  0  0  0
   -2.7590   -0.2827    2.1062 H   0  0  0  0  0  0  0  0  0  0  0  0
   -2.6091    1.3699    2.8041 H   0  0  0  0  0  0  0  0  0  0  0  0
  1  2  1  6  0  0  0
  1  3  1  0  0  0  0
  3  9  1  6  0  0  0
  3  8  1  0  0  0  0
  4  1  1  0  0  0  0
  4  5  1  0  0  0  0
  5  8  1  0  0  0  0
  6  5  2  0  0  0  0
  6 17  1  0  0  0  0
  7 16  1  0  0  0  0
  7  6  1  0  0  0  0
  8 18  1  0  0  0  0
  9 10  1  0  0  0  0
 10 15  1  0  0  0  0
 11 10  2  0  0  0  0
 11 12  1  0  0  0  0
 12 13  2  0  0  0  0
 13 24  1  0  0  0  0
 13 14  1  0  0  0  0
 14 25  1  0  0  0  0
 15 26  1  0  0  0  0
 15 14  2  0  0  0  0
 19  8  1  0  0  0  0
 20  9  1  0  0  0  0
 21  9  1  0  0  0  0
 22 11  1  0  0  0  0
 23 12  1  0  0  0  0
 27 34  1  1  0  0  0
 27  1  1  0  0  0  0
 28 33  1  0  0  0  0
 28 27  1  0  0  0  0
 28 29  1  0  0  0  0
 29 30  1  0  0  0  0
 29  4  2  0  0  0  0
 30  7  2  0  0  0  0
 31 30  1  0  0  0  0
 32 28  1  0  0  0  0
 34 46  1  0  0  0  0
 34 47  1  0  0  0  0
 35 36  1  0  0  0  0
 35 34  1  0  0  0  0
 36 45  1  0  0  0  0
 37 44  1  0  0  0  0
 37 36  2  0  0  0  0
 38 37  1  0  0  0  0
 39 38  2  0  0  0  0
 39 40  1  0  0  0  0
 40 35  2  0  0  0  0
 41 40  1  0  0  0  0
 42 39  1  0  0  0  0
 43 38  1  0  0  0  0
M  END
$$$$
