CSD_code = TIMMOR | q = 0 | S = 0 | Stoichiometry = C12H17ClPdS2 | MND = 4
 OpenBabel04212202103D

 33 35  0  0  0  0  0  0  0  0999 V2000
    9.1616    3.1444    5.2487 Pd  0  0  2  0  0  0  0  0  0  0  0  0
    9.0919    4.6064    3.4566 Cl  0  0  0  0  0  0  0  0  0  0  0  0
   11.4029    2.7471    5.0161 S   0  0  2  0  0  3  0  0  0  0  0  0
    6.9270    3.3601    5.6948 S   0  0  2  0  0  3  0  0  0  0  0  0
    9.2214    1.8807    6.7907 C   0  0  0  0  0  0  0  0  0  0  0  0
   10.4131    1.2382    7.1411 C   0  0  0  0  0  0  0  0  0  0  0  0
   10.4530    0.3638    8.2203 C   0  0  0  0  0  0  0  0  0  0  0  0
    9.3069    0.1119    8.9530 C   0  0  0  0  0  0  0  0  0  0  0  0
    8.1186    0.7351    8.6165 C   0  0  0  0  0  0  0  0  0  0  0  0
    8.0734    1.6196    7.5456 C   0  0  0  0  0  0  0  0  0  0  0  0
   11.6504    1.4762    6.3223 C   0  0  0  0  0  0  0  0  0  0  0  0
    6.7907    2.3264    7.2098 C   0  0  0  0  0  0  0  0  0  0  0  0
   11.7154    4.2936    5.9657 C   0  0  0  0  0  0  0  0  0  0  0  0
   13.1996    4.5533    6.1376 C   0  0  0  0  0  0  0  0  0  0  0  0
    6.6024    2.1070    4.3850 C   0  0  0  0  0  0  0  0  0  0  0  0
    5.1188    1.8336    4.2295 C   0  0  0  0  0  0  0  0  0  0  0  0
   11.3821   -0.1231    8.4818 H   0  0  0  0  0  0  0  0  0  0  0  0
    9.3400   -0.5711    9.7885 H   0  0  0  0  0  0  0  0  0  0  0  0
    7.2226    0.5402    9.1889 H   0  0  0  0  0  0  0  0  0  0  0  0
   11.9357    0.5694    5.7832 H   0  0  0  0  0  0  0  0  0  0  0  0
   12.4985    1.7906    6.9327 H   0  0  0  0  0  0  0  0  0  0  0  0
    5.9603    1.6338    7.0641 H   0  0  0  0  0  0  0  0  0  0  0  0
    6.5168    3.0250    8.0044 H   0  0  0  0  0  0  0  0  0  0  0  0
   11.2507    5.0837    5.3632 H   0  0  0  0  0  0  0  0  0  0  0  0
   11.2008    4.2096    6.9319 H   0  0  0  0  0  0  0  0  0  0  0  0
   13.6880    4.6040    5.1675 H   0  0  0  0  0  0  0  0  0  0  0  0
   13.3512    5.4999    6.6520 H   0  0  0  0  0  0  0  0  0  0  0  0
   13.6744    3.7685    6.7235 H   0  0  0  0  0  0  0  0  0  0  0  0
    7.0127    2.5530    3.4706 H   0  0  0  0  0  0  0  0  0  0  0  0
    7.1611    1.1968    4.6396 H   0  0  0  0  0  0  0  0  0  0  0  0
    4.5880    2.7545    4.0006 H   0  0  0  0  0  0  0  0  0  0  0  0
    4.6967    1.4073    5.1376 H   0  0  0  0  0  0  0  0  0  0  0  0
    4.9572    1.1291    3.4165 H   0  0  0  0  0  0  0  0  0  0  0  0
  1  2  1  1  0  0  0
  1  4  1  0  0  0  0
  1  5  1  0  0  0  0
  3  1  1  0  0  0  0
  3 13  1  1  0  0  0
  3 11  1  0  0  0  0
  4 15  1  6  0  0  0
  4 12  1  0  0  0  0
  5  6  2  0  0  0  0
  5 10  1  0  0  0  0
  6  7  1  0  0  0  0
  7 17  1  0  0  0  0
  7  8  2  0  0  0  0
  8 18  1  0  0  0  0
  9  8  1  0  0  0  0
  9 19  1  0  0  0  0
 10  9  2  0  0  0  0
 11 21  1  0  0  0  0
 11  6  1  0  0  0  0
 12 10  1  0  0  0  0
 12 23  1  0  0  0  0
 13 14  1  0  0  0  0
 13 25  1  0  0  0  0
 14 27  1  0  0  0  0
 14 28  1  0  0  0  0
 15 30  1  0  0  0  0
 16 15  1  0  0  0  0
 16 32  1  0  0  0  0
 20 11  1  0  0  0  0
 22 12  1  0  0  0  0
 24 13  1  0  0  0  0
 26 14  1  0  0  0  0
 29 15  1  0  0  0  0
 31 16  1  0  0  0  0
 33 16  1  0  0  0  0
M  END
$$$$
