CSD_code = TIMNAE | q = 0 | S = 0 | Stoichiometry = C24H21ClO4PdS2 | MND = 4
 OpenBabel04212202103D

 53 57  0  0  0  0  0  0  0  0999 V2000
    4.3456    8.6325    3.9865 Pd  0  0  2  0  0  0  0  0  0  0  0  0
    4.3456   10.9622    3.9866 Cl  0  0  0  0  0  0  0  0  0  0  0  0
    6.5308    8.4932    4.6270 S   0  0  2  0  0  3  0  0  0  0  0  0
    9.0716    8.2099    5.6001 O   0  0  0  0  0  0  0  0  0  0  0  0
    9.7618    9.4105    7.3593 O   0  0  0  0  0  0  0  0  0  0  0  0
    4.3456    6.6374    3.9866 C   0  0  0  0  0  0  0  0  0  0  0  0
    5.4985    5.9278    4.3309 C   0  0  0  0  0  0  0  0  0  0  0  0
    5.4935    4.5377    4.3311 C   0  0  0  0  0  0  0  0  0  0  0  0
    4.3456    3.8470    3.9866 C   0  0  0  0  0  0  0  0  0  0  0  0
    6.7550    6.6657    4.6841 C   0  0  0  0  0  0  0  0  0  0  0  0
    6.3329    8.8354    6.3715 C   0  0  0  0  0  0  0  0  0  0  0  0
    5.0653    9.0057    6.9154 C   0  0  0  0  0  0  0  0  0  0  0  0
    4.9214    9.3182    8.2566 C   0  0  0  0  0  0  0  0  0  0  0  0
    6.0389    9.4683    9.0633 C   0  0  0  0  0  0  0  0  0  0  0  0
    7.3020    9.3081    8.5275 C   0  0  0  0  0  0  0  0  0  0  0  0
    7.4633    8.9923    7.1798 C   0  0  0  0  0  0  0  0  0  0  0  0
    8.8232    8.8193    6.6133 C   0  0  0  0  0  0  0  0  0  0  0  0
   11.0933    9.3009    6.8781 C   0  0  0  0  0  0  0  0  0  0  0  0
    6.3919    3.9996    4.5991 H   0  0  0  0  0  0  0  0  0  0  0  0
    4.3456    2.7671    3.9866 H   0  0  0  0  0  0  0  0  0  0  0  0
    7.1159    6.4193    5.6825 H   0  0  0  0  0  0  0  0  0  0  0  0
    7.5570    6.4582    3.9730 H   0  0  0  0  0  0  0  0  0  0  0  0
    4.1727    8.9056    6.2750 H   0  0  0  0  0  0  0  0  0  0  0  0
    3.9328    9.4494    8.6694 H   0  0  0  0  0  0  0  0  0  0  0  0
    5.9247    9.7153   10.1077 H   0  0  0  0  0  0  0  0  0  0  0  0
    8.1799    9.4260    9.1429 H   0  0  0  0  0  0  0  0  0  0  0  0
   11.1606    9.6885    5.8597 H   0  0  0  0  0  0  0  0  0  0  0  0
   11.7094    9.8883    7.5536 H   0  0  0  0  0  0  0  0  0  0  0  0
   11.4117    8.2561    6.8778 H   0  0  0  0  0  0  0  0  0  0  0  0
    2.1605    8.4933    3.3462 S   0  0  2  0  0  3  0  0  0  0  0  0
    1.9363    6.6658    3.2891 C   0  0  0  0  0  0  0  0  0  0  0  0
    3.1927    5.9278    3.6424 C   0  0  0  0  0  0  0  0  0  0  0  0
    3.1977    4.5377    3.6422 C   0  0  0  0  0  0  0  0  0  0  0  0
    2.2993    3.9996    3.3742 H   0  0  0  0  0  0  0  0  0  0  0  0
    1.5754    6.4194    2.2907 H   0  0  0  0  0  0  0  0  0  0  0  0
    1.1343    6.4583    4.0002 H   0  0  0  0  0  0  0  0  0  0  0  0
    2.3583    8.8354    1.6016 C   0  0  0  0  0  0  0  0  0  0  0  0
    3.6259    9.0057    1.0577 C   0  0  0  0  0  0  0  0  0  0  0  0
    3.7697    9.3182   -0.2835 C   0  0  0  0  0  0  0  0  0  0  0  0
    2.6521    9.4683   -1.0901 C   0  0  0  0  0  0  0  0  0  0  0  0
    1.3891    9.3080   -0.5543 C   0  0  0  0  0  0  0  0  0  0  0  0
    1.2278    8.9923    0.7935 C   0  0  0  0  0  0  0  0  0  0  0  0
   -0.1321    8.8193    1.3600 C   0  0  0  0  0  0  0  0  0  0  0  0
   -0.3803    8.2100    2.3733 O   0  0  0  0  0  0  0  0  0  0  0  0
   -1.0707    9.4106    0.6141 O   0  0  0  0  0  0  0  0  0  0  0  0
   -2.4021    9.3010    1.0954 C   0  0  0  0  0  0  0  0  0  0  0  0
   -2.4694    9.6886    2.1138 H   0  0  0  0  0  0  0  0  0  0  0  0
   -3.0183    9.8883    0.4198 H   0  0  0  0  0  0  0  0  0  0  0  0
   -2.7205    8.2562    1.0957 H   0  0  0  0  0  0  0  0  0  0  0  0
    0.5111    9.4260   -1.1697 H   0  0  0  0  0  0  0  0  0  0  0  0
    2.7662    9.7153   -2.1346 H   0  0  0  0  0  0  0  0  0  0  0  0
    4.7583    9.4493   -0.6964 H   0  0  0  0  0  0  0  0  0  0  0  0
    4.5184    8.9055    1.6981 H   0  0  0  0  0  0  0  0  0  0  0  0
  1  2  1  6  0  0  0
  1  6  1  0  0  0  0
  1  3  1  0  0  0  0
  3 10  1  0  0  0  0
  3 11  1  1  0  0  0
  4 17  2  0  0  0  0
  6  7  1  0  0  0  0
  7  8  2  0  0  0  0
  7 10  1  0  0  0  0
  8 19  1  0  0  0  0
  9 20  1  0  0  0  0
  9  8  1  0  0  0  0
 10 21  1  0  0  0  0
 11 12  2  0  0  0  0
 11 16  1  0  0  0  0
 12 13  1  0  0  0  0
 13 24  1  0  0  0  0
 13 14  2  0  0  0  0
 14 25  1  0  0  0  0
 15 14  1  0  0  0  0
 15 26  1  0  0  0  0
 16 15  2  0  0  0  0
 17 16  1  0  0  0  0
 17  5  1  0  0  0  0
 18  5  1  0  0  0  0
 18 28  1  0  0  0  0
 22 10  1  0  0  0  0
 23 12  1  0  0  0  0
 27 18  1  0  0  0  0
 29 18  1  0  0  0  0
 30 37  1  6  0  0  0
 30  1  1  0  0  0  0
 31 30  1  0  0  0  0
 31 32  1  0  0  0  0
 31 36  1  0  0  0  0
 32  6  2  0  0  0  0
 33 32  1  0  0  0  0
 33  9  2  0  0  0  0
 34 33  1  0  0  0  0
 35 31  1  0  0  0  0
 38 37  1  0  0  0  0
 38 53  1  0  0  0  0
 39 38  2  0  0  0  0
 40 41  2  0  0  0  0
 40 39  1  0  0  0  0
 41 42  1  0  0  0  0
 42 43  1  0  0  0  0
 42 37  2  0  0  0  0
 43 44  2  0  0  0  0
 45 46  1  0  0  0  0
 45 43  1  0  0  0  0
 46 49  1  0  0  0  0
 46 47  1  0  0  0  0
 48 46  1  0  0  0  0
 50 41  1  0  0  0  0
 51 40  1  0  0  0  0
 52 39  1  0  0  0  0
M  END
$$$$
