CSD_code = TIMWOC | q = 0 | S = 0 | Stoichiometry = C27H24ClN3O3PRe | MND = 6
 OpenBabel04212202103D

 60 65  0  0  1  0  0  0  0  0999 V2000
    4.1424    2.0609   10.1454 Re  0  0  0  0  0  0  0  0  0  0  0  0
    2.8672    1.0843   10.5615 O   0  0  0  0  0  1  0  0  0  0  0  0
    4.3122    3.0712   12.2514 Cl  0  0  0  0  0  0  0  0  0  0  0  0
    2.6327    3.8099    9.4020 P   0  0  0  0  0  4  0  0  0  0  0  0
    1.8084    3.2885    7.8581 C   0  0  0  0  0  0  0  0  0  0  0  0
    0.6401    3.9811    7.5445 C   0  0  0  0  0  0  0  0  0  0  0  0
    0.2824    4.7312    8.2354 H   0  0  0  0  0  0  0  0  0  0  0  0
   -0.0688    3.7366    6.3846 C   0  0  0  0  0  0  0  0  0  0  0  0
   -0.9720    4.2880    6.1735 H   0  0  0  0  0  0  0  0  0  0  0  0
    0.3993    2.7805    5.4977 C   0  0  0  0  0  0  0  0  0  0  0  0
   -0.1343    2.5751    4.5823 H   0  0  0  0  0  0  0  0  0  0  0  0
    1.5549    2.0888    5.7892 C   0  0  0  0  0  0  0  0  0  0  0  0
    1.9063    1.3441    5.0893 H   0  0  0  0  0  0  0  0  0  0  0  0
    2.2873    2.3021    6.9695 C   0  0  0  0  0  0  0  0  0  0  0  0
    3.4641    1.4622    7.0916 C   0  0  0  0  0  3  0  0  0  0  0  0
    3.7208    0.9315    6.1695 H   0  0  0  0  0  0  0  0  0  0  0  0
    4.1947    1.2290    8.1196 N   0  0  1  0  0  0  0  0  0  0  0  0
    5.2384    0.4248    8.0589 N   0  0  0  0  0  0  0  0  0  0  0  0
    5.4505   -0.0741    7.1950 H   0  0  0  0  0  0  0  0  0  0  0  0
    5.9872   -0.0354    9.2041 C   0  0  0  0  0  0  0  0  0  0  0  0
    6.8449   -0.8609    8.9589 O   0  0  0  0  0  0  0  0  0  0  0  0
    5.6062    0.5094   10.3514 N   0  0  0  0  0  0  0  0  0  0  0  0
    6.2333    0.1416   11.5497 C   0  0  0  0  0  0  0  0  0  0  0  0
    7.6096   -0.0481   11.6481 C   0  0  0  0  0  0  0  0  0  0  0  0
    8.2284    0.0494   10.7698 H   0  0  0  0  0  0  0  0  0  0  0  0
    8.1743   -0.3725   12.8676 C   0  0  0  0  0  0  0  0  0  0  0  0
    9.2430   -0.5182   12.9354 H   0  0  0  0  0  0  0  0  0  0  0  0
    7.3838   -0.5041   13.9962 C   0  0  0  0  0  0  0  0  0  0  0  0
    7.8332   -0.7525   14.9466 H   0  0  0  0  0  0  0  0  0  0  0  0
    6.0142   -0.3144   13.9008 C   0  0  0  0  0  0  0  0  0  0  0  0
    5.3912   -0.4145   14.7772 H   0  0  0  0  0  0  0  0  0  0  0  0
    5.4387    0.0032   12.6872 C   0  0  0  0  0  0  0  0  0  0  0  0
    4.3714    0.1542   12.5966 H   0  0  0  0  0  0  0  0  0  0  0  0
    1.2983    4.3118   10.5202 C   0  0  0  0  0  0  0  0  0  0  0  0
    0.8395    5.6237   10.6018 C   0  0  0  0  0  0  0  0  0  0  0  0
    1.2803    6.3946    9.9837 H   0  0  0  0  0  0  0  0  0  0  0  0
   -0.1758    5.9385   11.4870 C   0  0  0  0  0  0  0  0  0  0  0  0
   -0.5321    6.9561   11.5529 H   0  0  0  0  0  0  0  0  0  0  0  0
   -0.7297    4.9551   12.2906 C   0  0  0  0  0  0  0  0  0  0  0  0
   -1.5190    5.2093   12.9822 H   0  0  0  0  0  0  0  0  0  0  0  0
   -0.2638    3.6516   12.2186 C   0  0  0  0  0  0  0  0  0  0  0  0
   -0.6855    2.8905   12.8571 H   0  0  0  0  0  0  0  0  0  0  0  0
    0.7512    3.3267   11.3382 C   0  0  0  0  0  0  0  0  0  0  0  0
    1.1495    2.3210   11.2878 H   0  0  0  0  0  0  0  0  0  0  0  0
    3.4976    5.3402    8.9825 C   0  0  0  0  0  0  0  0  0  0  0  0
    4.1354    5.9863   10.0419 C   0  0  0  0  0  0  0  0  0  0  0  0
    4.0526    5.5710   11.0394 H   0  0  0  0  0  0  0  0  0  0  0  0
    4.8790    7.1255    9.8015 C   0  0  0  0  0  0  0  0  0  0  0  0
    5.3746    7.6271   10.6191 H   0  0  0  0  0  0  0  0  0  0  0  0
    4.9965    7.6182    8.5095 C   0  0  0  0  0  0  0  0  0  0  0  0
    5.5810    8.5066    8.3220 H   0  0  0  0  0  0  0  0  0  0  0  0
    4.3731    6.9687    7.4568 C   0  0  0  0  0  0  0  0  0  0  0  0
    4.4723    7.3500    6.4509 H   0  0  0  0  0  0  0  0  0  0  0  0
    3.6255    5.8258    7.6869 C   0  0  0  0  0  0  0  0  0  0  0  0
    3.1427    5.3148    6.8649 H   0  0  0  0  0  0  0  0  0  0  0  0
    5.4918    3.0778    9.5859 O   0  0  0  0  0  0  0  0  0  0  0  0
    6.6895    3.7185    9.5078 C   0  0  0  0  0  0  0  0  0  0  0  0
    6.8997    4.2243   10.4612 H   0  0  0  0  0  0  0  0  0  0  0  0
    6.6837    4.4683    8.7024 H   0  0  0  0  0  0  0  0  0  0  0  0
    7.4948    2.9946    9.3124 H   0  0  0  0  0  0  0  0  0  0  0  0
  1 22  1  0  0  0  0
  1  2  1  0  0  0  0
  1  3  1  0  0  0  0
  4  1  1  0  0  0  0
  4 34  1  0  0  0  0
  5  4  1  0  0  0  0
  6  5  1  0  0  0  0
  6  7  1  0  0  0  0
  8  6  2  0  0  0  0
  9  8  1  0  0  0  0
 10 12  2  0  0  0  0
 10  8  1  0  0  0  0
 11 10  1  0  0  0  0
 12 14  1  0  0  0  0
 13 12  1  0  0  0  0
 14 15  1  0  0  0  0
 14  5  2  0  0  0  0
 16 15  1  0  0  0  0
 17 15  1  6  0  0  0
 17  1  1  0  0  0  0
 18 17  1  0  0  0  0
 18 20  1  0  0  0  0
 19 18  1  0  0  0  0
 20 22  1  0  0  0  0
 21 20  2  0  0  0  0
 22 23  1  0  0  0  0
 23 24  2  0  0  0  0
 23 32  1  0  0  0  0
 24 26  1  0  0  0  0
 25 24  1  0  0  0  0
 26 27  1  0  0  0  0
 26 28  2  0  0  0  0
 28 29  1  0  0  0  0
 30 28  1  0  0  0  0
 30 31  1  0  0  0  0
 32 30  2  0  0  0  0
 33 32  1  0  0  0  0
 34 35  2  0  0  0  0
 34 43  1  0  0  0  0
 35 37  1  0  0  0  0
 36 35  1  0  0  0  0
 37 38  1  0  0  0  0
 37 39  2  0  0  0  0
 39 40  1  0  0  0  0
 41 39  1  0  0  0  0
 41 42  1  0  0  0  0
 43 41  2  0  0  0  0
 44 43  1  0  0  0  0
 45  4  1  0  0  0  0
 45 46  1  0  0  0  0
 46 47  1  0  0  0  0
 48 46  2  0  0  0  0
 48 49  1  0  0  0  0
 50 48  1  0  0  0  0
 51 50  1  0  0  0  0
 52 54  1  0  0  0  0
 52 50  2  0  0  0  0
 53 52  1  0  0  0  0
 54 45  2  0  0  0  0
 55 54  1  0  0  0  0
 56  1  1  0  0  0  0
 57 56  1  0  0  0  0
 57 58  1  0  0  0  0
 59 57  1  0  0  0  0
 60 57  1  0  0  0  0
M  END
$$$$
