CSD_code = TINTUG | q = 0 | S = 0 | Stoichiometry = C17H13ClN2NiOS | MND = 4
 OpenBabel04212202103D

 36 40  0  0  0  0  0  0  0  0999 V2000
   16.1037    0.0702    1.4064 Ni  0  0  2  0  0  0  0  0  0  0  0  0
   15.6392    2.1983    1.3987 S   0  0  1  0  0  3  0  0  0  0  0  0
   16.5700   -1.7362    1.5754 O   0  0  0  0  0  0  0  0  0  0  0  0
   16.7770    2.6471    0.0945 C   0  0  0  0  0  0  0  0  0  0  0  0
   17.5198   -2.3635    1.0288 C   0  0  0  0  0  0  0  0  0  0  0  0
   18.4526   -1.7501    0.1093 C   0  0  0  0  0  0  0  0  0  0  0  0
   17.6438    1.6469   -0.3543 C   0  0  0  0  0  0  0  0  0  0  0  0
   18.3771   -0.4813   -0.2402 N   0  0  0  0  0  0  0  0  0  0  0  0
   20.4354   -1.9756   -1.3674 C   0  0  0  0  0  0  0  0  0  0  0  0
   20.3534   -0.9277   -1.6085 H   0  0  0  0  0  0  0  0  0  0  0  0
   17.6894   -3.7592    1.3138 C   0  0  0  0  0  0  0  0  0  0  0  0
   16.9822   -4.1954    2.0025 H   0  0  0  0  0  0  0  0  0  0  0  0
   18.5822    1.9683   -1.3404 C   0  0  0  0  0  0  0  0  0  0  0  0
   19.2519    1.2012   -1.6936 H   0  0  0  0  0  0  0  0  0  0  0  0
   18.6835   -4.4827    0.7526 C   0  0  0  0  0  0  0  0  0  0  0  0
   18.7885   -5.5325    0.9885 H   0  0  0  0  0  0  0  0  0  0  0  0
   17.7638    4.2314   -1.3980 C   0  0  0  0  0  0  0  0  0  0  0  0
   17.8123    5.2294   -1.8046 H   0  0  0  0  0  0  0  0  0  0  0  0
   19.5092   -2.5362   -0.4805 C   0  0  0  0  0  0  0  0  0  0  0  0
   18.6320    3.2479   -1.8531 C   0  0  0  0  0  0  0  0  0  0  0  0
   19.3558    3.4853   -2.6180 H   0  0  0  0  0  0  0  0  0  0  0  0
   19.6191   -3.9049   -0.1560 C   0  0  0  0  0  0  0  0  0  0  0  0
   17.5135    0.3641    0.1897 N   0  0  0  0  0  0  0  0  0  0  0  0
   14.0627    2.3161    0.4970 C   0  0  0  0  0  0  0  0  0  0  0  0
   13.8341    3.3648    0.3302 H   0  0  0  0  0  0  0  0  0  0  0  0
   13.3196    1.8551    1.1419 H   0  0  0  0  0  0  0  0  0  0  0  0
   14.1303    1.7806   -0.4452 H   0  0  0  0  0  0  0  0  0  0  0  0
   20.6451   -4.6677   -0.7310 C   0  0  0  0  0  3  0  0  0  0  0  0
   20.7205   -5.7151   -0.4766 H   0  0  0  0  0  0  0  0  0  0  0  0
   16.8389    3.9317   -0.4127 C   0  0  0  0  0  0  0  0  0  0  0  0
   16.1678    4.6881   -0.0361 H   0  0  0  0  0  0  0  0  0  0  0  0
   21.4336   -2.7431   -1.9204 C   0  0  0  0  0  0  0  0  0  0  0  0
   22.1407   -2.2972   -2.6043 H   0  0  0  0  0  0  0  0  0  0  0  0
   21.5406   -4.0966   -1.6029 C   0  0  0  0  0  0  0  0  0  0  0  0
   22.3275   -4.6913   -2.0421 H   0  0  0  0  0  0  0  0  0  0  0  0
   14.4298   -0.2202    2.6080 Cl  0  0  0  0  0  0  0  0  0  0  0  0
  1  3  1  0  0  0  0
  1 36  1  6  0  0  0
  2 24  1  6  0  0  0
  2  1  1  0  0  0  0
  4  2  1  0  0  0  0
  5 11  2  0  0  0  0
  5  3  1  0  0  0  0
  6  5  1  0  0  0  0
  7  4  1  0  0  0  0
  7 23  1  0  0  0  0
  8  6  2  0  0  0  0
  8 23  1  0  0  0  0
  9 19  2  0  0  0  0
 10  9  1  0  0  0  0
 11 12  1  0  0  0  0
 13  7  2  0  0  0  0
 14 13  1  0  0  0  0
 15 16  1  0  0  0  0
 15 11  1  0  0  0  0
 17 30  1  0  0  0  0
 18 17  1  0  0  0  0
 19 22  1  0  0  0  0
 19  6  1  0  0  0  0
 20 17  2  0  0  0  0
 20 13  1  0  0  0  0
 21 20  1  0  0  0  0
 22 15  2  0  0  0  0
 23  1  1  0  0  0  0
 24 26  1  0  0  0  0
 25 24  1  0  0  0  0
 27 24  1  0  0  0  0
 28 29  1  0  0  0  0
 28 22  1  0  0  0  0
 30 31  1  0  0  0  0
 30  4  2  0  0  0  0
 32 34  2  0  0  0  0
 32  9  1  0  0  0  0
 33 32  1  0  0  0  0
 34 28  1  0  0  0  0
 35 34  1  0  0  0  0
M  END
$$$$
