CSD_code = TINTOB | q = 0 | S = 0 | Stoichiometry = C25H33Cl2N3OPd | MND = 4
 OpenBabel04212202103D

 65 69  0  0  0  0  0  0  0  0999 V2000
    5.9034    7.1354    0.7827 Pd  0  0  0  0  0  0  0  0  0  0  0  0
    5.9647    5.6014    2.4474 Cl  0  0  0  0  0  0  0  0  0  0  0  0
    5.4657    5.4775   -0.6426 Cl  0  0  0  0  0  0  0  0  0  0  0  0
    7.0300    9.2677   -0.7386 N   0  0  0  0  0  0  0  0  0  0  0  0
    5.1779    8.6748   -1.7186 N   0  0  0  0  0  0  0  0  0  0  0  0
    4.6872    9.7791    3.8569 O   0  0  0  0  0  0  0  0  0  0  0  0
    8.1660    9.1075    0.0779 C   0  0  0  0  0  0  0  0  0  0  0  0
    8.0242    8.7768    1.4470 C   0  0  0  0  0  0  0  0  0  0  0  0
    6.7251    8.8325    2.0635 N   0  0  0  0  0  4  0  0  0  0  0  0
    9.1784    8.4959    2.1731 C   0  0  0  0  0  0  0  0  0  0  0  0
    9.1116    8.2061    3.2080 H   0  0  0  0  0  0  0  0  0  0  0  0
   10.4335    8.5707    1.5920 C   0  0  0  0  0  0  0  0  0  0  0  0
   11.3050    8.3368    2.1829 H   0  0  0  0  0  0  0  0  0  0  0  0
   10.5668    8.9660    0.2761 C   0  0  0  0  0  0  0  0  0  0  0  0
   11.5417    9.0548   -0.1766 H   0  0  0  0  0  0  0  0  0  0  0  0
    9.4345    9.2236   -0.4757 C   0  0  0  0  0  0  0  0  0  0  0  0
    9.5425    9.4939   -1.5140 H   0  0  0  0  0  0  0  0  0  0  0  0
    6.6911    8.4551    3.4831 C   0  0  0  0  0  0  0  0  0  0  0  0
    7.2855    9.1613    4.0802 H   0  0  0  0  0  0  0  0  0  0  0  0
    7.0613    7.4344    3.5985 H   0  0  0  0  0  0  0  0  0  0  0  0
    5.2437    8.4873    3.9708 C   0  0  0  0  0  0  0  0  0  0  0  0
    4.6575    7.7623    3.3791 H   0  0  0  0  0  0  0  0  0  0  0  0
    5.1949    8.2168    5.0253 H   0  0  0  0  0  0  0  0  0  0  0  0
    6.1666   10.1925    1.9824 C   0  0  0  0  0  0  0  0  0  0  0  0
    6.7824   10.8705    2.5924 H   0  0  0  0  0  0  0  0  0  0  0  0
    6.1621   10.5566    0.9552 H   0  0  0  0  0  0  0  0  0  0  0  0
    4.7348   10.1920    2.5193 C   0  0  0  0  0  0  0  0  0  0  0  0
    4.3113   11.1979    2.4817 H   0  0  0  0  0  0  0  0  0  0  0  0
    4.1347    9.5075    1.8977 H   0  0  0  0  0  0  0  0  0  0  0  0
    5.9852    8.4120   -0.7018 C   0  0  0  0  0  0  0  0  0  0  0  0
    5.5802    9.8832   -2.4405 C   0  0  0  0  0  0  0  0  0  0  0  0
    4.9069   10.7040   -2.1622 H   0  0  0  0  0  0  0  0  0  0  0  0
    5.5216    9.7419   -3.5184 H   0  0  0  0  0  0  0  0  0  0  0  0
    7.0041   10.1102   -1.9334 C   0  0  0  0  0  0  0  0  0  0  0  0
    7.7451    9.7746   -2.6674 H   0  0  0  0  0  0  0  0  0  0  0  0
    7.2119   11.1507   -1.6745 H   0  0  0  0  0  0  0  0  0  0  0  0
    4.1312    7.8500   -2.2261 C   0  0  0  0  0  0  0  0  0  0  0  0
    4.3786    7.0982   -3.3815 C   0  0  0  0  0  0  0  0  0  0  0  0
    3.3371    6.3528   -3.9144 C   0  0  0  0  0  0  0  0  0  0  0  0
    3.5040    5.7681   -4.8052 H   0  0  0  0  0  0  0  0  0  0  0  0
    2.0956    6.3275   -3.3109 C   0  0  0  0  0  0  0  0  0  0  0  0
    1.3007    5.7329   -3.7352 H   0  0  0  0  0  0  0  0  0  0  0  0
    1.8791    7.0445   -2.1524 C   0  0  0  0  0  0  0  0  0  0  0  0
    0.9148    6.9971   -1.6715 H   0  0  0  0  0  0  0  0  0  0  0  0
    2.8861    7.8223   -1.5960 C   0  0  0  0  0  0  0  0  0  0  0  0
    5.7400    7.0339   -4.0356 C   0  0  0  0  0  0  0  0  0  0  0  0
    6.4580    7.5966   -3.4330 H   0  0  0  0  0  0  0  0  0  0  0  0
    6.2422    5.5887   -4.0751 C   0  0  0  0  0  0  0  0  0  0  0  0
    6.2116    5.1667   -3.0740 H   0  0  0  0  0  0  0  0  0  0  0  0
    7.2668    5.5620   -4.4404 H   0  0  0  0  0  0  0  0  0  0  0  0
    5.6295    4.9751   -4.7292 H   0  0  0  0  0  0  0  0  0  0  0  0
    5.7020    7.6272   -5.4477 C   0  0  0  0  0  0  0  0  0  0  0  0
    5.0633    7.0306   -6.0936 H   0  0  0  0  0  0  0  0  0  0  0  0
    6.7020    7.6392   -5.8763 H   0  0  0  0  0  0  0  0  0  0  0  0
    5.3147    8.6456   -5.4455 H   0  0  0  0  0  0  0  0  0  0  0  0
    2.6280    8.5731   -0.3124 C   0  0  0  0  0  0  0  0  0  0  0  0
    3.4783    9.2394   -0.1222 H   0  0  0  0  0  0  0  0  0  0  0  0
    1.3693    9.4397   -0.3964 C   0  0  0  0  0  0  0  0  0  0  0  0
    1.4100   10.0928   -1.2659 H   0  0  0  0  0  0  0  0  0  0  0  0
    1.2835   10.0561    0.4962 H   0  0  0  0  0  0  0  0  0  0  0  0
    0.4751    8.8277   -0.4693 H   0  0  0  0  0  0  0  0  0  0  0  0
    2.5219    7.5678    0.8419 C   0  0  0  0  0  0  0  0  0  0  0  0
    1.7479    6.8337    0.6334 H   0  0  0  0  0  0  0  0  0  0  0  0
    2.2707    8.0753    1.7722 H   0  0  0  0  0  0  0  0  0  0  0  0
    3.4783    7.0245    0.9658 H   0  0  0  0  0  0  0  0  0  0  0  0
  1  9  1  0  0  0  0
  1  2  1  0  0  0  0
  3  1  1  0  0  0  0
  4 30  1  0  0  0  0
  4  7  1  0  0  0  0
  5 30  1  0  0  0  0
  6 21  1  0  0  0  0
  7  8  1  0  0  0  0
  8  9  1  0  0  0  0
  8 10  2  0  0  0  0
  9 18  1  0  0  0  0
 10 11  1  0  0  0  0
 12 10  1  0  0  0  0
 12 13  1  0  0  0  0
 14 12  2  0  0  0  0
 15 14  1  0  0  0  0
 16  7  2  0  0  0  0
 16 14  1  0  0  0  0
 17 16  1  0  0  0  0
 18 20  1  0  0  0  0
 18 21  1  0  0  0  0
 18 19  1  0  0  0  0
 21 23  1  0  0  0  0
 22 21  1  0  0  0  0
 24  9  1  0  0  0  0
 24 27  1  0  0  0  0
 24 25  1  0  0  0  0
 26 24  1  0  0  0  0
 27  6  1  0  0  0  0
 28 27  1  0  0  0  0
 29 27  1  0  0  0  0
 30  1  2  0  0  0  0
 31 32  1  0  0  0  0
 31 34  1  0  0  0  0
 31  5  1  0  0  0  0
 33 31  1  0  0  0  0
 34 36  1  0  0  0  0
 34  4  1  0  0  0  0
 35 34  1  0  0  0  0
 37  5  1  0  0  0  0
 37 45  1  0  0  0  0
 38 37  2  0  0  0  0
 39 38  1  0  0  0  0
 39 41  2  0  0  0  0
 40 39  1  0  0  0  0
 41 43  1  0  0  0  0
 42 41  1  0  0  0  0
 43 44  1  0  0  0  0
 43 45  2  0  0  0  0
 45 56  1  0  0  0  0
 46 47  1  0  0  0  0
 46 38  1  0  0  0  0
 48 46  1  0  0  0  0
 48 49  1  0  0  0  0
 50 48  1  0  0  0  0
 51 48  1  0  0  0  0
 52 55  1  0  0  0  0
 52 46  1  0  0  0  0
 53 52  1  0  0  0  0
 54 52  1  0  0  0  0
 56 57  1  0  0  0  0
 56 62  1  0  0  0  0
 58 56  1  0  0  0  0
 58 60  1  0  0  0  0
 59 58  1  0  0  0  0
 61 58  1  0  0  0  0
 62 65  1  0  0  0  0
 62 64  1  0  0  0  0
 63 62  1  0  0  0  0
M  END
$$$$
