CSD_code = TIQGUY | q = 1 | S = 0 | Stoichiometry = C21H19ClN5Ru(1+) | MND = 6
 OpenBabel04212202103D

 47 53  0  0  1  0  0  0  0  0999 V2000
   -3.2412    2.9210    2.8279 Ru  0  0  0  0  0  0  0  0  0  0  0  0
   -5.3481    2.1383    2.1939 Cl  0  0  0  0  0  0  0  0  0  0  0  0
   -2.7555    1.0109    3.2228 N   0  0  0  0  0  0  0  0  0  0  0  0
   -2.9305    0.3236    4.3488 C   0  0  0  0  0  3  0  0  0  0  0  0
   -3.2853    0.8866    5.2044 H   0  0  0  0  0  0  0  0  0  0  0  0
   -2.6970   -1.0353    4.4519 C   0  0  0  0  0  0  0  0  0  0  0  0
   -2.8647   -1.5418    5.3881 H   0  0  0  0  0  0  0  0  0  0  0  0
   -2.2564   -1.7252    3.3300 C   0  0  0  0  0  0  0  0  0  0  0  0
   -2.0644   -2.7853    3.3736 H   0  0  0  0  0  0  0  0  0  0  0  0
   -2.0874   -1.0268    2.1493 C   0  0  0  0  0  0  0  0  0  0  0  0
   -1.7677   -1.5362    1.2554 H   0  0  0  0  0  0  0  0  0  0  0  0
   -2.3545    0.3404    2.1121 C   0  0  0  0  0  0  0  0  0  0  0  0
   -2.2903    1.1498    0.8948 C   0  0  1  0  0  3  0  0  0  0  0  0
   -1.9434    0.7257   -0.3849 C   0  0  0  0  0  0  0  0  0  0  0  0
   -1.6220   -0.2863   -0.5652 H   0  0  0  0  0  0  0  0  0  0  0  0
   -2.0371    1.6273   -1.4355 C   0  0  0  0  0  0  0  0  0  0  0  0
   -1.7719    1.3196   -2.4341 H   0  0  0  0  0  0  0  0  0  0  0  0
   -2.5057    2.9134   -1.2081 C   0  0  0  0  0  0  0  0  0  0  0  0
   -2.6212    3.6017   -2.0284 H   0  0  0  0  0  0  0  0  0  0  0  0
   -2.8382    3.2856    0.0914 C   0  0  0  0  0  0  0  0  0  0  0  0
   -2.6807    2.4180    1.1047 N   0  0  0  0  0  0  0  0  0  0  0  0
   -3.4279    4.5511    0.5288 C   0  0  1  0  0  3  0  0  0  0  0  0
   -3.7768    5.5835   -0.3398 C   0  0  0  0  0  0  0  0  0  0  0  0
   -3.5822    5.4867   -1.3950 H   0  0  0  0  0  0  0  0  0  0  0  0
   -4.3903    6.7183    0.1567 C   0  0  0  0  0  0  0  0  0  0  0  0
   -4.6775    7.5208   -0.5036 H   0  0  0  0  0  0  0  0  0  0  0  0
   -4.6387    6.7957    1.5207 C   0  0  0  0  0  0  0  0  0  0  0  0
   -5.1252    7.6553    1.9514 H   0  0  0  0  0  0  0  0  0  0  0  0
   -4.2579    5.7393    2.3273 C   0  0  0  0  0  0  0  0  0  0  0  0
   -4.4423    5.7703    3.3951 H   0  0  0  0  0  0  0  0  0  0  0  0
   -3.6632    4.6430    1.8630 N   0  0  0  0  0  0  0  0  0  0  0  0
   -3.8141    3.4851    4.6852 N   0  0  0  0  0  0  0  0  0  0  0  0
   -5.0825    3.6300    5.0811 C   0  0  0  0  0  3  0  0  0  0  0  0
   -5.8352    3.3580    4.3502 H   0  0  0  0  0  0  0  0  0  0  0  0
   -5.4265    4.0818    6.3423 C   0  0  0  0  0  0  0  0  0  0  0  0
   -6.4654    4.1723    6.6135 H   0  0  0  0  0  0  0  0  0  0  0  0
   -4.4210    4.4137    7.2379 C   0  0  0  0  0  0  0  0  0  0  0  0
   -4.6523    4.7752    8.2267 H   0  0  0  0  0  0  0  0  0  0  0  0
   -3.1029    4.2670    6.8304 C   0  0  0  0  0  0  0  0  0  0  0  0
   -2.2889    4.5084    7.4957 H   0  0  0  0  0  0  0  0  0  0  0  0
   -2.8367    3.7948    5.5561 C   0  0  0  0  0  0  0  0  0  0  0  0
   -1.4255    3.5522    5.0729 C   0  0  0  0  0  0  0  0  0  0  0  0
   -1.1536    2.5138    5.3017 H   0  0  0  0  0  0  0  0  0  0  0  0
   -0.7253    4.2109    5.6012 H   0  0  0  0  0  0  0  0  0  0  0  0
   -1.3567    3.7302    3.6141 N   0  0  0  0  0  4  0  0  0  0  0  0
   -0.5020    3.3091    3.2512 H   0  0  0  0  0  0  0  0  0  0  0  0
   -1.3157    4.7283    3.3960 H   0  0  0  0  0  0  0  0  0  0  0  0
  1  3  1  0  0  0  0
  1 45  1  0  0  0  0
  1 32  1  0  0  0  0
  2  1  1  0  0  0  0
  3  4  1  0  0  0  0
  4  6  1  0  0  0  0
  4  5  1  0  0  0  0
  6  7  1  0  0  0  0
  8  9  1  0  0  0  0
  8  6  2  0  0  0  0
 10  8  1  0  0  0  0
 11 10  1  0  0  0  0
 12 10  2  0  0  0  0
 12  3  1  0  0  0  0
 13 14  1  6  0  0  0
 13 21  1  0  0  0  0
 13 12  1  0  0  0  0
 15 14  1  0  0  0  0
 16 18  1  0  0  0  0
 16 14  2  0  0  0  0
 17 16  1  0  0  0  0
 18 20  2  0  0  0  0
 19 18  1  0  0  0  0
 20 22  1  0  0  0  0
 20 21  1  0  0  0  0
 21  1  1  0  0  0  0
 22 23  1  6  0  0  0
 22 31  1  0  0  0  0
 23 25  2  0  0  0  0
 24 23  1  0  0  0  0
 25 27  1  0  0  0  0
 26 25  1  0  0  0  0
 27 28  1  0  0  0  0
 27 29  2  0  0  0  0
 29 30  1  0  0  0  0
 31 29  1  0  0  0  0
 31  1  1  0  0  0  0
 32 33  1  0  0  0  0
 32 41  1  0  0  0  0
 33 35  1  0  0  0  0
 34 33  1  0  0  0  0
 35 36  1  0  0  0  0
 35 37  2  0  0  0  0
 37 38  1  0  0  0  0
 39 37  1  0  0  0  0
 39 40  1  0  0  0  0
 41 39  2  0  0  0  0
 42 43  1  0  0  0  0
 42 41  1  0  0  0  0
 42 44  1  0  0  0  0
 45 42  1  0  0  0  0
 46 45  1  0  0  0  0
 47 45  1  0  0  0  0
M  END
$$$$
