CSD_code = TIQXAS | q = 0 | S = 0 | Stoichiometry = C12H14CdCl4N8 | MND = 6
 OpenBabel04212202103D

 39 40  0  0  1  0  0  0  0  0999 V2000
   -0.0039   -0.0008    0.0035 Cd  0  0  0  0  0  0  0  0  0  0  0  0
    0.1069    0.1871   -2.4349 Cl  0  0  0  0  0  0  0  0  0  0  0  0
    0.2080   -2.6388   -0.2015 Cl  0  0  0  0  0  0  0  0  0  0  0  0
    2.0900   -2.4970    1.9230 N   0  0  0  0  0  0  0  0  0  0  0  0
    1.1941   -2.6684    0.7906 H   0  0  0  0  0  0  0  0  0  0  0  0
    2.6695   -1.3364    3.6942 N   0  0  0  0  0  0  0  0  0  0  0  0
    2.8249   -0.5348    4.2824 H   0  0  0  0  0  0  0  0  0  0  0  0
    3.6991    0.7942    1.8781 N   0  0  0  0  0  0  0  0  0  0  0  0
    4.2078    0.8637    2.7442 H   0  0  0  0  0  0  0  0  0  0  0  0
    2.3483    0.0534    0.3105 N   0  0  0  0  0  0  0  0  0  0  0  0
    2.5034   -1.3156    2.3473 C   0  0  0  0  0  0  0  0  0  0  0  0
    1.9370   -3.2761    3.0239 C   0  0  0  0  0  0  0  0  0  0  0  0
    1.5902   -4.2846    2.9348 H   0  0  0  0  0  0  0  0  0  0  0  0
    2.2826   -2.5690    4.1358 C   0  0  0  0  0  0  0  0  0  0  0  0
    2.2889   -2.8323    5.1725 H   0  0  0  0  0  0  0  0  0  0  0  0
    2.8268   -0.1842    1.5163 C   0  0  1  0  0  3  0  0  0  0  0  0
    3.7668    1.6836    0.8450 C   0  0  0  0  0  0  0  0  0  0  0  0
    4.3841    2.5570    0.8816 H   0  0  0  0  0  0  0  0  0  0  0  0
    2.9216    1.2078   -0.1151 C   0  0  0  0  0  0  0  0  0  0  0  0
    2.6892    1.6118   -1.0825 H   0  0  0  0  0  0  0  0  0  0  0  0
   -0.1070   -0.1882    2.4416 Cl  0  0  0  0  0  0  0  0  0  0  0  0
   -0.2157    2.6365    0.2105 Cl  0  0  0  0  0  0  0  0  0  0  0  0
   -2.3549   -0.0556   -0.3109 N   0  0  0  0  0  0  0  0  0  0  0  0
   -2.8283    0.1837   -1.5183 C   0  0  1  0  0  3  0  0  0  0  0  0
   -3.6985   -0.7944   -1.8854 N   0  0  0  0  0  0  0  0  0  0  0  0
   -4.2034   -0.8624   -2.7537 H   0  0  0  0  0  0  0  0  0  0  0  0
   -3.7704   -1.6854   -0.8540 C   0  0  0  0  0  0  0  0  0  0  0  0
   -4.3873   -2.5589   -0.8946 H   0  0  0  0  0  0  0  0  0  0  0  0
   -2.9297   -1.2109    0.1105 C   0  0  0  0  0  0  0  0  0  0  0  0
   -2.7014   -1.6164    1.0782 H   0  0  0  0  0  0  0  0  0  0  0  0
   -2.5017    1.3164   -2.3464 C   0  0  0  0  0  0  0  0  0  0  0  0
   -2.0921    2.4979   -1.9189 N   0  0  0  0  0  0  0  0  0  0  0  0
   -1.1987    2.6685   -0.7838 H   0  0  0  0  0  0  0  0  0  0  0  0
   -1.9346    3.2783   -3.0183 C   0  0  0  0  0  0  0  0  0  0  0  0
   -1.5895    4.2871   -2.9266 H   0  0  0  0  0  0  0  0  0  0  0  0
   -2.2737    2.5717   -4.1325 C   0  0  0  0  0  0  0  0  0  0  0  0
   -2.6615    1.3384   -3.6941 N   0  0  0  0  0  0  0  0  0  0  0  0
   -2.8116    0.5367   -4.2837 H   0  0  0  0  0  0  0  0  0  0  0  0
   -2.2750    2.8359   -5.1690 H   0  0  0  0  0  0  0  0  0  0  0  0
  1 10  1  0  0  0  0
  1 21  1  0  0  0  0
  2  1  1  0  0  0  0
  3  5  1  0  0  0  0
  4 11  2  0  0  0  0
  4 12  1  0  0  0  0
  6 14  1  0  0  0  0
  6  7  1  0  0  0  0
  8  9  1  0  0  0  0
 10 16  1  0  0  0  0
 11  6  1  0  0  0  0
 12 14  2  0  0  0  0
 13 12  1  0  0  0  0
 14 15  1  0  0  0  0
 16  8  1  0  0  0  0
 16 11  1  6  0  0  0
 17 18  1  0  0  0  0
 17  8  1  0  0  0  0
 19 10  1  0  0  0  0
 19 17  2  0  0  0  0
 20 19  1  0  0  0  0
 23  1  1  0  0  0  0
 23 29  1  0  0  0  0
 24 31  1  1  0  0  0
 24 23  1  0  0  0  0
 25 24  1  0  0  0  0
 25 27  1  0  0  0  0
 26 25  1  0  0  0  0
 27 29  2  0  0  0  0
 28 27  1  0  0  0  0
 29 30  1  0  0  0  0
 31 32  2  0  0  0  0
 33 22  1  0  0  0  0
 34 35  1  0  0  0  0
 34 32  1  0  0  0  0
 36 37  1  0  0  0  0
 36 34  2  0  0  0  0
 37 31  1  0  0  0  0
 38 37  1  0  0  0  0
 39 36  1  0  0  0  0
M  END
$$$$
