CSD_code = TIRCEF | q = 1 | S = 0 | Stoichiometry = C28H26IN3PPdS(1+) | MND = 4
 OpenBabel04212202103D

 61 65  0  0  1  0  0  0  0  0999 V2000
    7.6201    5.0445    9.9320 I   0  0  0  0  0  0  0  0  0  0  0  0
    9.5937    3.6850   10.8808 Pd  0  0  2  0  0  0  0  0  0  0  0  0
   11.2826    2.3556   11.7837 S   0  0  0  0  0  0  0  0  0  0  0  0
    9.4938    5.0351   12.6640 P   0  0  0  0  0  4  0  0  0  0  0  0
   12.3274    0.2437   10.6473 N   0  0  0  0  0  0  0  0  0  0  0  0
   12.4751   -0.4450    9.9290 H   0  0  0  0  0  0  0  0  0  0  0  0
   12.8501    0.1591   11.5027 H   0  0  0  0  0  0  0  0  0  0  0  0
   10.7623    1.3622    9.3756 N   0  0  0  0  0  0  0  0  0  0  0  0
   10.9120    0.6853    8.6301 H   0  0  0  0  0  0  0  0  0  0  0  0
    9.8519    2.3650    9.1649 N   0  0  0  0  0  0  0  0  0  0  0  0
   11.4587    1.2580   10.5208 C   0  0  2  0  0  3  0  0  0  0  0  0
    9.2819    2.4736    8.0053 C   0  0  0  0  0  0  0  0  0  0  0  0
    8.5616    3.2817    7.9345 H   0  0  0  0  0  0  0  0  0  0  0  0
    9.4623    1.6953    6.8320 C   0  0  0  0  0  0  0  0  0  0  0  0
   10.1767    0.8834    6.8076 H   0  0  0  0  0  0  0  0  0  0  0  0
    8.7399    1.9836    5.7195 C   0  0  0  0  0  3  0  0  0  0  0  0
    8.0379    2.8066    5.7844 H   0  0  0  0  0  0  0  0  0  0  0  0
    8.7919    1.3243    4.4453 C   0  0  0  0  0  0  0  0  0  0  0  0
    7.9648    1.8034    3.4170 C   0  0  0  0  0  0  0  0  0  0  0  0
    7.3168    2.6451    3.6123 H   0  0  0  0  0  0  0  0  0  0  0  0
    7.9732    1.2151    2.1697 C   0  0  0  0  0  0  0  0  0  0  0  0
    7.3320    1.5965    1.3902 H   0  0  0  0  0  0  0  0  0  0  0  0
    8.8049    0.1340    1.9176 C   0  0  0  0  0  0  0  0  0  0  0  0
    8.8124   -0.3279    0.9425 H   0  0  0  0  0  0  0  0  0  0  0  0
    9.6285   -0.3550    2.9224 C   0  0  0  0  0  0  0  0  0  0  0  0
   10.2745   -1.1971    2.7254 H   0  0  0  0  0  0  0  0  0  0  0  0
    9.6252    0.2296    4.1709 C   0  0  0  0  0  0  0  0  0  0  0  0
   10.2732   -0.1676    4.9372 H   0  0  0  0  0  0  0  0  0  0  0  0
   10.8093    4.7903   13.8936 C   0  0  0  0  0  0  0  0  0  0  0  0
   11.8810    5.6674   14.0197 C   0  0  0  0  0  0  0  0  0  0  0  0
   11.9445    6.5426   13.3882 H   0  0  0  0  0  0  0  0  0  0  0  0
   12.8603    5.4185   14.9656 C   0  0  0  0  0  0  0  0  0  0  0  0
   13.6892    6.1022   15.0684 H   0  0  0  0  0  0  0  0  0  0  0  0
   12.7790    4.2990   15.7771 C   0  0  0  0  0  0  0  0  0  0  0  0
   13.5459    4.1103   16.5125 H   0  0  0  0  0  0  0  0  0  0  0  0
   11.7146    3.4195   15.6472 C   0  0  0  0  0  0  0  0  0  0  0  0
   11.6515    2.5478   16.2806 H   0  0  0  0  0  0  0  0  0  0  0  0
   10.7320    3.6605   14.7070 C   0  0  0  0  0  0  0  0  0  0  0  0
    9.8961    2.9799   14.5978 H   0  0  0  0  0  0  0  0  0  0  0  0
    9.7227    6.7282   12.0688 C   0  0  0  0  0  0  0  0  0  0  0  0
    9.0923    7.8597   12.5638 C   0  0  0  0  0  0  0  0  0  0  0  0
    8.3754    7.7816   13.3666 H   0  0  0  0  0  0  0  0  0  0  0  0
    9.3672    9.0915   11.9913 C   0  0  0  0  0  0  0  0  0  0  0  0
    8.8711    9.9741   12.3644 H   0  0  0  0  0  0  0  0  0  0  0  0
   10.2623    9.1924   10.9402 C   0  0  0  0  0  0  0  0  0  0  0  0
   10.4660   10.1551   10.4978 H   0  0  0  0  0  0  0  0  0  0  0  0
   10.8849    8.0584   10.4368 C   0  0  0  0  0  0  0  0  0  0  0  0
   11.5678    8.1394    9.6048 H   0  0  0  0  0  0  0  0  0  0  0  0
   10.6112    6.8264   10.9948 C   0  0  0  0  0  0  0  0  0  0  0  0
   11.0684    5.9109   10.5900 H   0  0  0  0  0  0  0  0  0  0  0  0
    7.9907    4.7169   13.6149 C   0  0  0  0  0  0  0  0  0  0  0  0
    7.2310    3.6048   13.2559 C   0  0  0  0  0  0  0  0  0  0  0  0
    7.5332    2.9937   12.3953 H   0  0  0  0  0  0  0  0  0  0  0  0
    6.1037    3.2776   13.9858 C   0  0  0  0  0  0  0  0  0  0  0  0
    5.5079    2.4221   13.7069 H   0  0  0  0  0  0  0  0  0  0  0  0
    5.7387    4.0546   15.0744 C   0  0  0  0  0  0  0  0  0  0  0  0
    4.8521    3.8066   15.6371 H   0  0  0  0  0  0  0  0  0  0  0  0
    6.5138    5.1399   15.4527 C   0  0  0  0  0  0  0  0  0  0  0  0
    6.2352    5.7289   16.3130 H   0  0  0  0  0  0  0  0  0  0  0  0
    7.6496    5.4685   14.7350 C   0  0  0  0  0  0  0  0  0  0  0  0
    8.2757    6.2926   15.0466 H   0  0  0  0  0  0  0  0  0  0  0  0
  2  1  1  1  0  0  0
  2  3  1  0  0  0  0
  2  4  1  0  0  0  0
  4 51  1  0  0  0  0
  4 29  1  0  0  0  0
  5  7  1  0  0  0  0
  6  5  1  0  0  0  0
  8 11  1  0  0  0  0
  9  8  1  0  0  0  0
 10  8  1  0  0  0  0
 10  2  1  0  0  0  0
 11  5  1  6  0  0  0
 11  3  1  0  0  0  0
 12 10  1  0  0  0  0
 13 12  1  0  0  0  0
 14 12  2  0  0  0  0
 15 14  1  0  0  0  0
 16 17  1  0  0  0  0
 16 14  1  0  0  0  0
 18 16  1  0  0  0  0
 19 20  1  0  0  0  0
 19 18  2  0  0  0  0
 21 19  1  0  0  0  0
 22 21  1  0  0  0  0
 23 21  2  0  0  0  0
 23 25  1  0  0  0  0
 24 23  1  0  0  0  0
 25 27  2  0  0  0  0
 26 25  1  0  0  0  0
 27 18  1  0  0  0  0
 27 28  1  0  0  0  0
 29 30  2  0  0  0  0
 29 38  1  0  0  0  0
 30 32  1  0  0  0  0
 31 30  1  0  0  0  0
 32 33  1  0  0  0  0
 32 34  2  0  0  0  0
 34 35  1  0  0  0  0
 36 34  1  0  0  0  0
 36 37  1  0  0  0  0
 38 36  2  0  0  0  0
 39 38  1  0  0  0  0
 40 41  1  0  0  0  0
 40  4  1  0  0  0  0
 41 42  1  0  0  0  0
 43 44  1  0  0  0  0
 43 41  2  0  0  0  0
 45 43  1  0  0  0  0
 46 45  1  0  0  0  0
 47 45  2  0  0  0  0
 47 49  1  0  0  0  0
 48 47  1  0  0  0  0
 49 40  2  0  0  0  0
 50 49  1  0  0  0  0
 51 60  1  0  0  0  0
 52 51  2  0  0  0  0
 52 54  1  0  0  0  0
 53 52  1  0  0  0  0
 54 56  2  0  0  0  0
 55 54  1  0  0  0  0
 56 58  1  0  0  0  0
 56 57  1  0  0  0  0
 58 59  1  0  0  0  0
 60 61  1  0  0  0  0
 60 58  2  0  0  0  0
M  END
$$$$
