CSD_code = TIRFUV | q = 0 | S = 0 | Stoichiometry = C13H26Cl3N3SiZr | MND = 6
 OpenBabel04212202103D

 47 48  0  0  1  0  0  0  0  0999 V2000
   -0.8654    9.4581   11.8025 Zr  0  0  0  0  0  0  0  0  0  0  0  0
   -1.7937   10.5372   14.9011 Si  0  0  0  0  0  0  0  0  0  0  0  0
   -0.3038   11.7298   11.8993 Cl  0  0  0  0  0  0  0  0  0  0  0  0
   -2.9645    9.6731   10.8308 Cl  0  0  0  0  0  0  0  0  0  0  0  0
    0.2809    9.3720    9.7256 Cl  0  0  0  0  0  0  0  0  0  0  0  0
   -0.9041    9.4270   13.8999 N   0  0  0  0  0  0  0  0  0  0  0  0
    0.9458    8.6833   12.8598 N   0  0  0  0  0  0  0  0  0  0  0  0
   -1.0718    7.2139   11.3951 N   0  0  0  0  0  4  0  0  0  0  0  0
   -0.0720    7.0116   11.2817 H   0  0  0  0  0  0  0  0  0  0  0  0
    0.4018    9.1659   14.0168 C   0  0  2  0  0  3  0  0  0  0  0  0
    1.2029    9.3159   15.1690 C   0  0  0  0  0  0  0  0  0  0  0  0
    0.7495    9.6806   16.0745 H   0  0  0  0  0  0  0  0  0  0  0  0
    2.5332    8.9935   15.0999 C   0  0  0  0  0  0  0  0  0  0  0  0
    3.1656    9.1076   15.9683 H   0  0  0  0  0  0  0  0  0  0  0  0
    3.0739    8.5121   13.9061 C   0  0  0  0  0  0  0  0  0  0  0  0
    4.1181    8.2541   13.8395 H   0  0  0  0  0  0  0  0  0  0  0  0
    2.7557    7.8110   11.5095 C   0  0  0  0  0  0  0  0  0  0  0  0
    2.2283    8.2693   10.6715 H   0  0  0  0  0  0  0  0  0  0  0  0
    2.5932    6.7318   11.4791 H   0  0  0  0  0  0  0  0  0  0  0  0
    3.8223    7.9926   11.4101 H   0  0  0  0  0  0  0  0  0  0  0  0
    2.2493    8.3675   12.8063 C   0  0  0  0  0  0  0  0  0  0  0  0
   -0.7938   12.0666   15.4667 C   0  0  0  0  0  0  0  0  0  0  0  0
   -0.1892   11.8721   16.3474 H   0  0  0  0  0  0  0  0  0  0  0  0
   -1.4584   12.8910   15.7055 H   0  0  0  0  0  0  0  0  0  0  0  0
   -0.1321   12.3987   14.6710 H   0  0  0  0  0  0  0  0  0  0  0  0
   -3.2361   11.0946   13.7843 C   0  0  0  0  0  0  0  0  0  0  0  0
   -3.8382   10.2620   13.4236 H   0  0  0  0  0  0  0  0  0  0  0  0
   -2.8606   11.6407   12.9173 H   0  0  0  0  0  0  0  0  0  0  0  0
   -3.8996   11.7621   14.3250 H   0  0  0  0  0  0  0  0  0  0  0  0
   -2.4775    9.6025   16.4283 C   0  0  0  0  0  0  0  0  0  0  0  0
   -1.6847    9.1716   17.0311 H   0  0  0  0  0  0  0  0  0  0  0  0
   -3.1469    8.7970   16.1436 H   0  0  0  0  0  0  0  0  0  0  0  0
   -3.0359   10.2835   17.0598 H   0  0  0  0  0  0  0  0  0  0  0  0
   -2.9107    7.0437   13.0264 C   0  0  0  0  0  0  0  0  0  0  0  0
   -3.3349    6.4175   13.8084 H   0  0  0  0  0  0  0  0  0  0  0  0
   -3.6350    7.1244   12.2175 H   0  0  0  0  0  0  0  0  0  0  0  0
   -2.7256    8.0420   13.4313 H   0  0  0  0  0  0  0  0  0  0  0  0
   -1.5980    6.4410   12.5311 C   0  0  0  0  0  0  0  0  0  0  0  0
   -0.8619    6.4686   13.3444 H   0  0  0  0  0  0  0  0  0  0  0  0
   -1.7577    5.3908   12.2472 H   0  0  0  0  0  0  0  0  0  0  0  0
   -1.6976    6.8373   10.1081 C   0  0  0  0  0  0  0  0  0  0  0  0
   -2.7689    6.6944   10.2640 H   0  0  0  0  0  0  0  0  0  0  0  0
   -1.5621    7.6657    9.4045 H   0  0  0  0  0  0  0  0  0  0  0  0
   -1.0622    5.5828    9.5154 C   0  0  0  0  0  0  0  0  0  0  0  0
   -1.5548    5.3232    8.5827 H   0  0  0  0  0  0  0  0  0  0  0  0
   -1.1434    4.7303   10.1878 H   0  0  0  0  0  0  0  0  0  0  0  0
   -0.0106    5.7673    9.3014 H   0  0  0  0  0  0  0  0  0  0  0  0
  1  3  1  0  0  0  0
  1  7  1  0  0  0  0
  1  6  1  0  0  0  0
  2 22  1  0  0  0  0
  2 30  1  0  0  0  0
  4  1  1  0  0  0  0
  5  1  1  0  0  0  0
  6 10  1  0  0  0  0
  6  2  1  0  0  0  0
  7 10  1  0  0  0  0
  8  1  1  0  0  0  0
  8 38  1  0  0  0  0
  9  8  1  0  0  0  0
 10 11  1  1  0  0  0
 11 12  1  0  0  0  0
 13 11  2  0  0  0  0
 13 14  1  0  0  0  0
 15 13  1  0  0  0  0
 16 15  1  0  0  0  0
 17 21  1  0  0  0  0
 18 17  1  0  0  0  0
 19 17  1  0  0  0  0
 20 17  1  0  0  0  0
 21  7  1  0  0  0  0
 21 15  2  0  0  0  0
 22 24  1  0  0  0  0
 22 23  1  0  0  0  0
 25 22  1  0  0  0  0
 26 29  1  0  0  0  0
 26  2  1  0  0  0  0
 27 26  1  0  0  0  0
 28 26  1  0  0  0  0
 30 31  1  0  0  0  0
 30 33  1  0  0  0  0
 32 30  1  0  0  0  0
 34 37  1  0  0  0  0
 34 35  1  0  0  0  0
 36 34  1  0  0  0  0
 38 34  1  0  0  0  0
 38 39  1  0  0  0  0
 40 38  1  0  0  0  0
 41 42  1  0  0  0  0
 41  8  1  0  0  0  0
 43 41  1  0  0  0  0
 44 41  1  0  0  0  0
 44 46  1  0  0  0  0
 45 44  1  0  0  0  0
 47 44  1  0  0  0  0
M  END
$$$$
