CSD_code = TIRLEL | q = 0 | S = 0 | Stoichiometry = C4H6I2N2Zn | MND = 4
 OpenBabel04212202103D

 15 14  0  0  0  0  0  0  0  0999 V2000
    6.5054    2.6258    0.6835 Zn  0  0  0  0  0  0  0  0  0  0  0  0
    5.0633    2.6252   -1.3814 I   0  0  0  0  0  0  0  0  0  0  0  0
    8.8600    2.6265    1.4934 I   0  0  0  0  0  0  0  0  0  0  0  0
    5.5783    1.0362    1.7565 N   0  0  0  0  0  2  0  0  0  0  0  0
    5.1177   -0.0088    1.8282 C   0  0  0  0  0  2  0  0  0  0  0  0
    4.5400   -1.3062    1.9133 C   0  0  0  0  0  0  0  0  0  0  0  0
    5.3277   -2.0577    1.8581 H   0  0  0  0  0  0  0  0  0  0  0  0
    3.8479   -1.4444    1.0819 H   0  0  0  0  0  0  0  0  0  0  0  0
    4.0038   -1.4093    2.8562 H   0  0  0  0  0  0  0  0  0  0  0  0
    5.5776    4.2151    1.7563 N   0  0  0  0  0  2  0  0  0  0  0  0
    5.1174    5.2602    1.8283 C   0  0  0  0  0  2  0  0  0  0  0  0
    4.5401    6.5577    1.9134 C   0  0  0  0  0  0  0  0  0  0  0  0
    5.3281    7.3089    1.8584 H   0  0  0  0  0  0  0  0  0  0  0  0
    3.8482    6.6962    1.0819 H   0  0  0  0  0  0  0  0  0  0  0  0
    4.0038    6.6610    2.8563 H   0  0  0  0  0  0  0  0  0  0  0  0
  1  3  1  0  0  0  0
  1 10  1  0  0  0  0
  1  4  1  0  0  0  0
  2  1  1  0  0  0  0
  4  5  1  0  0  0  0
  5  6  1  0  0  0  0
  6  9  1  0  0  0  0
  7  6  1  0  0  0  0
  8  6  1  0  0  0  0
 10 11  1  0  0  0  0
 11 12  1  0  0  0  0
 12 15  1  0  0  0  0
 13 12  1  0  0  0  0
 14 12  1  0  0  0  0
M  END
$$$$
