CSD_code = TIRMEP | q = 1 | S = 0 | Stoichiometry = C17H16AuCl3N3(1+) | MND = 4
 OpenBabel04212202103D

 40 43  0  0  1  0  0  0  0  0999 V2000
   11.8628    0.5089    0.4939 N   0  0  0  0  0  0  0  0  0  0  0  0
   12.3965    2.3644   -0.1831 Au  0  0  0  0  0  0  0  0  0  0  0  0
   13.0317    4.3790   -0.9100 Cl  0  0  0  0  0  0  0  0  0  0  0  0
   13.4085    2.7112    1.8338 Cl  0  0  0  0  0  0  0  0  0  0  0  0
   11.3665    1.8991   -2.2014 Cl  0  0  0  0  0  0  0  0  0  0  0  0
   10.6499    0.2990    1.0080 C   0  0  1  0  0  3  0  0  0  0  0  0
    9.7238    1.4527    1.1435 C   0  0  0  0  0  0  0  0  0  0  0  0
    8.8367    1.1744    1.7054 H   0  0  0  0  0  0  0  0  0  0  0  0
    9.4092    1.8020    0.1589 H   0  0  0  0  0  0  0  0  0  0  0  0
   10.2185    2.2811    1.6518 H   0  0  0  0  0  0  0  0  0  0  0  0
   10.2723   -0.9833    1.4028 C   0  0  0  0  0  0  0  0  0  0  0  0
    9.2894   -1.1401    1.8169 H   0  0  0  0  0  0  0  0  0  0  0  0
   11.1576   -2.0325    1.2530 C   0  0  0  0  0  0  0  0  0  0  0  0
   10.8764   -3.0339    1.5401 H   0  0  0  0  0  0  0  0  0  0  0  0
   12.4178   -1.7813    0.7322 C   0  0  0  0  0  0  0  0  0  0  0  0
   13.1228   -2.5835    0.5911 H   0  0  0  0  0  0  0  0  0  0  0  0
   12.7549   -0.4844    0.3663 C   0  0  0  0  0  0  0  0  0  0  0  0
   14.0920   -0.1729   -0.1704 C   0  0  1  0  0  3  0  0  0  0  0  0
   14.1761    0.8462   -1.0207 N   0  0  0  0  0  0  0  0  0  0  0  0
   15.3517    1.1872   -1.5450 C   0  0  0  0  0  0  0  0  0  0  0  0
   16.5203    0.4906   -1.2375 C   0  0  0  0  0  0  0  0  0  0  0  0
   17.4595    0.7524   -1.6957 H   0  0  0  0  0  0  0  0  0  0  0  0
   16.4441   -0.5615   -0.3389 C   0  0  0  0  0  0  0  0  0  0  0  0
   17.3331   -1.1083   -0.0650 H   0  0  0  0  0  0  0  0  0  0  0  0
   15.2189   -0.9032    0.2091 C   0  0  0  0  0  0  0  0  0  0  0  0
   15.1471   -1.6956    0.9354 H   0  0  0  0  0  0  0  0  0  0  0  0
   15.3505    2.3458   -2.4533 C   0  0  1  0  0  3  0  0  0  0  0  0
   14.2230    2.6353   -3.1287 N   0  0  0  0  0  0  0  0  0  0  0  0
   13.3671    2.0854   -2.9371 H   0  0  0  0  0  0  0  0  0  0  0  0
   14.0866    3.6947   -3.9343 C   0  0  0  0  0  0  0  0  0  0  0  0
   12.7680    3.9370   -4.5511 C   0  0  0  0  0  0  0  0  0  0  0  0
   12.1384    4.4419   -3.8151 H   0  0  0  0  0  0  0  0  0  0  0  0
   12.2680    3.0068   -4.8099 H   0  0  0  0  0  0  0  0  0  0  0  0
   12.8486    4.5749   -5.4258 H   0  0  0  0  0  0  0  0  0  0  0  0
   15.1817    4.5343   -4.1198 C   0  0  0  0  0  0  0  0  0  0  0  0
   15.0898    5.3933   -4.7646 H   0  0  0  0  0  0  0  0  0  0  0  0
   16.3629    4.2730   -3.4517 C   0  0  0  0  0  0  0  0  0  0  0  0
   17.2117    4.9291   -3.5692 H   0  0  0  0  0  0  0  0  0  0  0  0
   16.4539    3.1687   -2.6114 C   0  0  0  0  0  0  0  0  0  0  0  0
   17.3604    2.9790   -2.0615 H   0  0  0  0  0  0  0  0  0  0  0  0
  1  6  1  0  0  0  0
  2  1  1  0  0  0  0
  2  4  1  0  0  0  0
  3  2  1  0  0  0  0
  5  2  1  0  0  0  0
  6  7  1  6  0  0  0
  6 11  1  0  0  0  0
  7 10  1  0  0  0  0
  7  8  1  0  0  0  0
  9  7  1  0  0  0  0
 11 12  1  0  0  0  0
 13 11  2  0  0  0  0
 13 14  1  0  0  0  0
 15 13  1  0  0  0  0
 16 15  1  0  0  0  0
 17  1  1  0  0  0  0
 17 15  2  0  0  0  0
 18 25  1  1  0  0  0
 18 17  1  0  0  0  0
 19  2  1  0  0  0  0
 19 18  1  0  0  0  0
 20 21  2  0  0  0  0
 20 19  1  0  0  0  0
 21 23  1  0  0  0  0
 22 21  1  0  0  0  0
 23 24  1  0  0  0  0
 23 25  2  0  0  0  0
 25 26  1  0  0  0  0
 27 20  1  1  0  0  0
 28 29  1  0  0  0  0
 28 27  1  0  0  0  0
 30 28  1  0  0  0  0
 31 30  1  0  0  0  0
 31 32  1  0  0  0  0
 33 31  1  0  0  0  0
 34 31  1  0  0  0  0
 35 30  2  0  0  0  0
 35 37  1  0  0  0  0
 36 35  1  0  0  0  0
 37 39  2  0  0  0  0
 38 37  1  0  0  0  0
 39 27  1  0  0  0  0
 39 40  1  0  0  0  0
M  END
$$$$
