CSD_code = TIRSIX | q = 0 | S = 0 | Stoichiometry = C21H29Cl3N4OTi | MND = 6
 OpenBabel04212202103D

 59 64  0  0  1  0  0  0  0  0999 V2000
    8.0469    2.9793    4.0098 Ti  0  0  0  0  0  0  0  0  0  0  0  0
    7.4930    5.0537    3.5036 Cl  0  0  0  0  0  0  0  0  0  0  0  0
    9.3419    3.5245    5.7091 Cl  0  0  0  0  0  0  0  0  0  0  0  0
    9.7148    2.8474    2.5517 Cl  0  0  0  0  0  0  0  0  0  0  0  0
    6.6019    2.6799    4.9098 O   0  0  0  0  0  0  0  0  0  0  0  0
    6.8061    2.0942    2.4106 N   0  0  0  0  0  0  0  0  0  0  0  0
    5.9721    1.0863    2.7373 N   0  0  2  0  0  0  0  0  0  0  0  0
    8.4007    0.8164    4.2910 N   0  0  0  0  0  0  0  0  0  0  0  0
    7.3293   -0.0010    4.3191 N   0  0  1  0  0  0  0  0  0  0  0  0
    5.1263    0.8018    1.7173 C   0  0  1  0  0  3  0  0  0  0  0  0
    5.4482    1.6673    0.6958 C   0  0  0  0  0  0  0  0  0  0  0  0
    4.9852    1.7248   -0.2677 H   0  0  0  0  0  0  0  0  0  0  0  0
    6.5061    2.4622    1.1711 C   0  0  0  0  0  0  0  0  0  0  0  0
    7.2185    3.5499    0.4629 C   0  0  0  0  0  0  0  0  0  0  0  0
    7.1382    4.4764    1.0352 H   0  0  0  0  0  0  0  0  0  0  0  0
    6.8014    3.6914   -0.5302 H   0  0  0  0  0  0  0  0  0  0  0  0
    8.2800    3.3108    0.3884 H   0  0  0  0  0  0  0  0  0  0  0  0
    4.0905   -0.2605    1.7862 C   0  0  0  0  0  0  0  0  0  0  0  0
    4.5404   -1.2361    1.9706 H   0  0  0  0  0  0  0  0  0  0  0  0
    3.5586   -0.3015    0.8402 H   0  0  0  0  0  0  0  0  0  0  0  0
    3.3702   -0.0557    2.5781 H   0  0  0  0  0  0  0  0  0  0  0  0
    7.6814   -1.2602    4.6700 C   0  0  2  0  0  3  0  0  0  0  0  0
    9.0438   -1.2388    4.8682 C   0  0  0  0  0  0  0  0  0  0  0  0
    9.6646   -2.0628    5.1535 H   0  0  0  0  0  0  0  0  0  0  0  0
    9.4574    0.0812    4.6219 C   0  0  0  0  0  0  0  0  0  0  0  0
    6.7128   -2.3806    4.7799 C   0  0  0  0  0  0  0  0  0  0  0  0
    5.9104   -2.1397    5.4766 H   0  0  0  0  0  0  0  0  0  0  0  0
    7.2299   -3.2651    5.1402 H   0  0  0  0  0  0  0  0  0  0  0  0
    6.2719   -2.6127    3.8101 H   0  0  0  0  0  0  0  0  0  0  0  0
   10.8277    0.6342    4.7146 C   0  0  0  0  0  0  0  0  0  0  0  0
   11.1356    1.0273    3.7449 H   0  0  0  0  0  0  0  0  0  0  0  0
   11.5230   -0.1355    5.0379 H   0  0  0  0  0  0  0  0  0  0  0  0
   10.8422    1.4692    5.4185 H   0  0  0  0  0  0  0  0  0  0  0  0
    6.0168    0.5267    4.0646 C   0  0  1  0  0  0  0  0  0  0  0  0
    5.2806   -0.2773    4.1465 H   0  0  0  0  0  0  0  0  0  0  0  0
    5.7039    1.6775    5.0963 C   0  0  1  0  0  0  0  0  0  0  0  0
    4.6781    2.0332    4.8617 H   0  0  0  0  0  0  0  0  0  0  0  0
    5.7429    1.1636    6.5206 C   0  0  0  0  0  0  0  0  0  0  0  0
    7.0613    1.1073    7.2335 C   0  0  2  0  0  0  0  0  0  0  0  0
    7.9187    1.3469    6.6062 H   0  0  0  0  0  0  0  0  0  0  0  0
    7.0633   -0.1735    8.0876 C   0  0  0  0  0  0  0  0  0  0  0  0
    6.5675   -1.0438    7.6589 H   0  0  0  0  0  0  0  0  0  0  0  0
    8.0522   -0.4580    8.4322 H   0  0  0  0  0  0  0  0  0  0  0  0
    6.2512    0.6300    9.1158 C   0  0  2  0  0  0  0  0  0  0  0  0
    6.3821    0.4051   10.1747 H   0  0  0  0  0  0  0  0  0  0  0  0
    4.7847    0.5509    8.6948 C   0  0  0  0  0  0  0  0  0  0  0  0
    4.3919   -0.4515    8.8954 H   0  0  0  0  0  0  0  0  0  0  0  0
    4.1760    1.2525    9.2714 H   0  0  0  0  0  0  0  0  0  0  0  0
    4.6574    0.8742    7.2329 C   0  0  0  0  0  0  0  0  0  0  0  0
    3.6617    0.9057    6.8117 H   0  0  0  0  0  0  0  0  0  0  0  0
    6.9307    1.9091    8.5584 C   0  0  0  0  0  0  0  0  0  0  0  0
    8.2981    2.1811    9.1764 C   0  0  0  0  0  0  0  0  0  0  0  0
    8.8492    2.8645    8.5331 H   0  0  0  0  0  0  0  0  0  0  0  0
    8.8875    1.2773    9.2955 H   0  0  0  0  0  0  0  0  0  0  0  0
    8.1816    2.6411   10.1558 H   0  0  0  0  0  0  0  0  0  0  0  0
    6.1724    3.2267    8.4998 C   0  0  0  0  0  0  0  0  0  0  0  0
    6.1374    3.6862    9.4855 H   0  0  0  0  0  0  0  0  0  0  0  0
    5.1564    3.1159    8.1350 H   0  0  0  0  0  0  0  0  0  0  0  0
    6.7005    3.8961    7.8204 H   0  0  0  0  0  0  0  0  0  0  0  0
  1  8  1  0  0  0  0
  1  5  1  0  0  0  0
  1  3  1  0  0  0  0
  2  1  1  0  0  0  0
  4  1  1  0  0  0  0
  5 36  1  0  0  0  0
  6  1  1  0  0  0  0
  7  6  1  1  0  0  0
  7 34  1  0  0  0  0
  8 25  1  0  0  0  0
  9  8  1  1  0  0  0
  9 22  1  0  0  0  0
 10 18  1  6  0  0  0
 10  7  1  0  0  0  0
 11 13  2  0  0  0  0
 11 10  1  0  0  0  0
 12 11  1  0  0  0  0
 13  6  1  0  0  0  0
 14 15  1  0  0  0  0
 14 13  1  0  0  0  0
 16 14  1  0  0  0  0
 17 14  1  0  0  0  0
 18 19  1  0  0  0  0
 18 21  1  0  0  0  0
 20 18  1  0  0  0  0
 22 26  1  6  0  0  0
 22 23  1  0  0  0  0
 23 24  1  0  0  0  0
 25 30  1  0  0  0  0
 25 23  2  0  0  0  0
 26 28  1  0  0  0  0
 26 27  1  0  0  0  0
 29 26  1  0  0  0  0
 30 32  1  0  0  0  0
 30 33  1  0  0  0  0
 31 30  1  0  0  0  0
 34 35  1  1  0  0  0
 34  9  1  0  0  0  0
 34 36  1  0  0  0  0
 36 37  1  6  0  0  0
 36 38  1  0  0  0  0
 38 49  2  0  0  0  0
 38 39  1  0  0  0  0
 39 40  1  6  0  0  0
 39 41  1  0  0  0  0
 39 51  1  0  0  0  0
 41 43  1  0  0  0  0
 41 44  1  0  0  0  0
 42 41  1  0  0  0  0
 44 45  1  1  0  0  0
 46 47  1  0  0  0  0
 46 44  1  0  0  0  0
 46 48  1  0  0  0  0
 49 46  1  0  0  0  0
 50 49  1  0  0  0  0
 51 44  1  0  0  0  0
 51 52  1  0  0  0  0
 52 54  1  0  0  0  0
 52 55  1  0  0  0  0
 53 52  1  0  0  0  0
 56 51  1  0  0  0  0
 56 57  1  0  0  0  0
 58 56  1  0  0  0  0
 59 56  1  0  0  0  0
M  END
$$$$
