CSD_code = TIRVOG | q = 0 | S = 0 | Stoichiometry = C14H22Cl2FeN4S2 | MND = 4
 OpenBabel04212202103D

 45 47  0  0  1  0  0  0  0  0999 V2000
    5.9228    1.8455    8.1048 Fe  0  0  0  0  0  0  0  0  0  0  0  0
    4.8809    2.4670    6.5473 Cl  0  0  0  0  0  0  0  0  0  0  0  0
    8.4183   -0.4459    6.0218 S   0  0  0  0  0  0  0  0  0  0  0  0
    6.5047   -0.9484    6.7536 S   0  0  0  0  0  0  0  0  0  0  0  0
    6.4121    3.0234    9.7746 Cl  0  0  0  0  0  0  0  0  0  0  0  0
    8.4032    1.2973    5.9154 C   0  0  1  0  0  3  0  0  0  0  0  0
    7.8635    2.0590    6.8454 N   0  0  0  0  0  0  0  0  0  0  0  0
    9.0162    2.0278    4.9487 N   0  0  0  0  0  0  0  0  0  0  0  0
    8.1318    3.3404    6.4745 C   0  0  0  0  0  0  0  0  0  0  0  0
    7.8005    4.1635    7.0751 H   0  0  0  0  0  0  0  0  0  0  0  0
    8.8441    3.3360    5.3149 C   0  0  0  0  0  0  0  0  0  0  0  0
    9.2220    4.1570    4.7465 H   0  0  0  0  0  0  0  0  0  0  0  0
    9.7092    1.5289    3.7596 C   0  0  0  0  0  0  0  0  0  0  0  0
   10.8933    0.6634    4.2003 C   0  0  0  0  0  0  0  0  0  0  0  0
   11.5762    1.2441    4.8168 H   0  0  0  0  0  0  0  0  0  0  0  0
   11.4309    0.3043    3.3273 H   0  0  0  0  0  0  0  0  0  0  0  0
   10.5533   -0.1956    4.7742 H   0  0  0  0  0  0  0  0  0  0  0  0
    8.7194    0.7228    2.9124 C   0  0  0  0  0  0  0  0  0  0  0  0
    8.3846   -0.1653    3.4396 H   0  0  0  0  0  0  0  0  0  0  0  0
    9.1970    0.4117    1.9874 H   0  0  0  0  0  0  0  0  0  0  0  0
    7.8515    1.3318    2.6682 H   0  0  0  0  0  0  0  0  0  0  0  0
   10.2329    2.7027    2.9307 C   0  0  0  0  0  0  0  0  0  0  0  0
   10.9456    3.2978    3.4967 H   0  0  0  0  0  0  0  0  0  0  0  0
    9.4183    3.3383    2.5923 H   0  0  0  0  0  0  0  0  0  0  0  0
   10.7425    2.3128    2.0534 H   0  0  0  0  0  0  0  0  0  0  0  0
    6.5575    0.3047    9.1173 N   0  0  0  0  0  0  0  0  0  0  0  0
    6.7015   -0.8606    8.4749 C   0  0  1  0  0  3  0  0  0  0  0  0
    6.9925   -1.8721    9.3429 N   0  0  0  0  0  0  0  0  0  0  0  0
    6.7800    0.0345   10.4303 C   0  0  0  0  0  0  0  0  0  0  0  0
    6.7453    0.8179   11.1601 H   0  0  0  0  0  0  0  0  0  0  0  0
    7.0406   -1.2956   10.5775 C   0  0  0  0  0  0  0  0  0  0  0  0
    7.2531   -1.8421   11.4703 H   0  0  0  0  0  0  0  0  0  0  0  0
    7.1678   -3.2907    9.0212 C   0  0  0  0  0  0  0  0  0  0  0  0
    5.8753   -3.8141    8.3869 C   0  0  0  0  0  0  0  0  0  0  0  0
    5.0375   -3.6721    9.0663 H   0  0  0  0  0  0  0  0  0  0  0  0
    5.9752   -4.8751    8.1764 H   0  0  0  0  0  0  0  0  0  0  0  0
    5.6597   -3.2966    7.4566 H   0  0  0  0  0  0  0  0  0  0  0  0
    8.3540   -3.4493    8.0656 C   0  0  0  0  0  0  0  0  0  0  0  0
    8.1457   -3.0059    7.0973 H   0  0  0  0  0  0  0  0  0  0  0  0
    8.5638   -4.5048    7.9172 H   0  0  0  0  0  0  0  0  0  0  0  0
    9.2402   -2.9747    8.4812 H   0  0  0  0  0  0  0  0  0  0  0  0
    7.4518   -4.0792   10.3005 C   0  0  0  0  0  0  0  0  0  0  0  0
    6.6273   -3.9990   11.0048 H   0  0  0  0  0  0  0  0  0  0  0  0
    8.3693   -3.7404   10.7755 H   0  0  0  0  0  0  0  0  0  0  0  0
    7.5732   -5.1285   10.0450 H   0  0  0  0  0  0  0  0  0  0  0  0
  1 26  1  0  0  0  0
  1  5  1  0  0  0  0
  2  1  1  0  0  0  0
  3  4  1  0  0  0  0
  6  3  1  1  0  0  0
  6  7  1  0  0  0  0
  7  1  1  0  0  0  0
  8 11  1  0  0  0  0
  8  6  1  0  0  0  0
  9  7  1  0  0  0  0
  9 10  1  0  0  0  0
 11  9  2  0  0  0  0
 12 11  1  0  0  0  0
 13 14  1  0  0  0  0
 13  8  1  0  0  0  0
 14 17  1  0  0  0  0
 14 15  1  0  0  0  0
 16 14  1  0  0  0  0
 18 19  1  0  0  0  0
 18 13  1  0  0  0  0
 20 18  1  0  0  0  0
 21 18  1  0  0  0  0
 22 23  1  0  0  0  0
 22 13  1  0  0  0  0
 24 22  1  0  0  0  0
 25 22  1  0  0  0  0
 26 29  1  0  0  0  0
 27  4  1  1  0  0  0
 27 26  1  0  0  0  0
 27 28  1  0  0  0  0
 28 31  1  0  0  0  0
 29 31  2  0  0  0  0
 29 30  1  0  0  0  0
 31 32  1  0  0  0  0
 33 28  1  0  0  0  0
 33 42  1  0  0  0  0
 34 33  1  0  0  0  0
 34 35  1  0  0  0  0
 36 34  1  0  0  0  0
 37 34  1  0  0  0  0
 38 41  1  0  0  0  0
 38 33  1  0  0  0  0
 39 38  1  0  0  0  0
 40 38  1  0  0  0  0
 42 44  1  0  0  0  0
 42 43  1  0  0  0  0
 45 42  1  0  0  0  0
M  END
$$$$
