CSD_code = TIRVIA | q = 0 | S = 0 | Stoichiometry = C14H22Cl2N4S2Zn | MND = 4
 OpenBabel04212202103D

 45 47  0  0  1  0  0  0  0  0999 V2000
    3.9816   -5.4611    3.9691 Zn  0  0  0  0  0  0  0  0  0  0  0  0
    5.1796   -5.8772    2.2086 Cl  0  0  0  0  0  0  0  0  0  0  0  0
    2.0273   -4.3777    4.0313 Cl  0  0  0  0  0  0  0  0  0  0  0  0
    4.6468   -6.4812    7.3534 S   0  0  0  0  0  0  0  0  0  0  0  0
    3.2572   -4.9951    7.2164 S   0  0  0  0  0  0  0  0  0  0  0  0
    3.7579   -7.2933    4.9339 N   0  0  0  0  0  0  0  0  0  0  0  0
    4.0046   -8.9819    6.3334 N   0  0  0  0  0  0  0  0  0  0  0  0
    4.9196   -4.1327    5.2850 N   0  0  0  0  0  0  0  0  0  0  0  0
    4.0616   -2.4621    6.4537 N   0  0  0  0  0  0  0  0  0  0  0  0
    4.1131   -7.6466    6.1524 C   0  0  2  0  0  3  0  0  0  0  0  0
    3.3977   -8.4328    4.2927 C   0  0  0  0  0  0  0  0  0  0  0  0
    3.0640   -8.4128    3.2752 H   0  0  0  0  0  0  0  0  0  0  0  0
    3.5513   -9.4839    5.1441 C   0  0  0  0  0  0  0  0  0  0  0  0
    3.3715  -10.5231    4.9777 H   0  0  0  0  0  0  0  0  0  0  0  0
    4.3320   -9.7434    7.5440 C   0  0  0  0  0  0  0  0  0  0  0  0
    3.4007   -9.2985    8.6753 C   0  0  0  0  0  0  0  0  0  0  0  0
    3.5723   -8.2601    8.9408 H   0  0  0  0  0  0  0  0  0  0  0  0
    3.5788   -9.9104    9.5547 H   0  0  0  0  0  0  0  0  0  0  0  0
    2.3615   -9.4166    8.3763 H   0  0  0  0  0  0  0  0  0  0  0  0
    5.7994   -9.4906    7.8980 C   0  0  0  0  0  0  0  0  0  0  0  0
    6.4428   -9.7849    7.0717 H   0  0  0  0  0  0  0  0  0  0  0  0
    6.0705  -10.0733    8.7738 H   0  0  0  0  0  0  0  0  0  0  0  0
    5.9741   -8.4400    8.1158 H   0  0  0  0  0  0  0  0  0  0  0  0
    4.1310  -11.2370    7.2872 C   0  0  0  0  0  0  0  0  0  0  0  0
    4.7682  -11.5871    6.4788 H   0  0  0  0  0  0  0  0  0  0  0  0
    3.0928  -11.4615    7.0549 H   0  0  0  0  0  0  0  0  0  0  0  0
    4.3987  -11.7854    8.1865 H   0  0  0  0  0  0  0  0  0  0  0  0
    4.1050   -3.7947    6.2664 C   0  0  2  0  0  3  0  0  0  0  0  0
    5.4389   -2.9655    4.8155 C   0  0  0  0  0  0  0  0  0  0  0  0
    6.1464   -2.9656    4.0112 H   0  0  0  0  0  0  0  0  0  0  0  0
    4.9141   -1.9290    5.5235 C   0  0  0  0  0  0  0  0  0  0  0  0
    5.0812   -0.8795    5.4199 H   0  0  0  0  0  0  0  0  0  0  0  0
    3.1824   -1.7359    7.3747 C   0  0  0  0  0  0  0  0  0  0  0  0
    3.2672   -0.2363    7.0926 C   0  0  0  0  0  0  0  0  0  0  0  0
    2.9676   -0.0179    6.0706 H   0  0  0  0  0  0  0  0  0  0  0  0
    4.2705    0.1452    7.2680 H   0  0  0  0  0  0  0  0  0  0  0  0
    2.5897    0.2862    7.7628 H   0  0  0  0  0  0  0  0  0  0  0  0
    3.6375   -2.0126    8.8107 C   0  0  0  0  0  0  0  0  0  0  0  0
    3.5719   -3.0715    9.0443 H   0  0  0  0  0  0  0  0  0  0  0  0
    3.0024   -1.4691    9.5043 H   0  0  0  0  0  0  0  0  0  0  0  0
    4.6658   -1.6861    8.9524 H   0  0  0  0  0  0  0  0  0  0  0  0
    1.7462   -2.2110    7.1401 C   0  0  0  0  0  0  0  0  0  0  0  0
    1.5160   -2.2129    6.0769 H   0  0  0  0  0  0  0  0  0  0  0  0
    1.0484   -1.5548    7.6523 H   0  0  0  0  0  0  0  0  0  0  0  0
    1.5994   -3.2222    7.5128 H   0  0  0  0  0  0  0  0  0  0  0  0
  1  3  1  0  0  0  0
  1  6  1  0  0  0  0
  1  8  1  0  0  0  0
  2  1  1  0  0  0  0
  5  4  1  0  0  0  0
  6 10  1  0  0  0  0
  7 15  1  0  0  0  0
  8 28  1  0  0  0  0
  9 33  1  0  0  0  0
 10  7  1  0  0  0  0
 10  4  1  1  0  0  0
 11  6  1  0  0  0  0
 11 13  2  0  0  0  0
 12 11  1  0  0  0  0
 13  7  1  0  0  0  0
 14 13  1  0  0  0  0
 15 20  1  0  0  0  0
 15 16  1  0  0  0  0
 16 17  1  0  0  0  0
 16 18  1  0  0  0  0
 19 16  1  0  0  0  0
 20 23  1  0  0  0  0
 20 22  1  0  0  0  0
 21 20  1  0  0  0  0
 24 15  1  0  0  0  0
 24 27  1  0  0  0  0
 25 24  1  0  0  0  0
 26 24  1  0  0  0  0
 28  9  1  0  0  0  0
 28  5  1  1  0  0  0
 29  8  1  0  0  0  0
 29 31  2  0  0  0  0
 30 29  1  0  0  0  0
 31  9  1  0  0  0  0
 32 31  1  0  0  0  0
 33 38  1  0  0  0  0
 34 36  1  0  0  0  0
 34 33  1  0  0  0  0
 34 37  1  0  0  0  0
 35 34  1  0  0  0  0
 38 41  1  0  0  0  0
 38 39  1  0  0  0  0
 38 40  1  0  0  0  0
 42 33  1  0  0  0  0
 42 45  1  0  0  0  0
 42 44  1  0  0  0  0
 43 42  1  0  0  0  0
M  END
$$$$
