CSD_code = TIRWUN | q = 0 | S = 0 | Stoichiometry = C14H22CuIN4S2 | MND = 3
 OpenBabel04212202103D

 44 46  0  0  1  0  0  0  0  0999 V2000
    7.4358    2.8287    8.9752 I   0  0  0  0  0  0  0  0  0  0  0  0
    6.3452    1.5013    7.1968 Cu  0  0  0  0  0  0  0  0  0  0  0  0
    7.8832   -0.5019    5.0395 S   0  0  0  0  0  0  0  0  0  0  0  0
    6.0968   -1.5365    5.4705 S   0  0  0  0  0  0  0  0  0  0  0  0
    6.5131    1.7989    5.2929 N   0  0  0  0  0  0  0  0  0  0  0  0
    7.2478    1.0297    4.5046 C   0  0  2  0  0  3  0  0  0  0  0  0
    7.3898    1.5831    3.2728 N   0  0  0  0  0  0  0  0  0  0  0  0
    6.1600    2.8799    4.5565 C   0  0  0  0  0  0  0  0  0  0  0  0
    5.5570    3.6639    4.9674 H   0  0  0  0  0  0  0  0  0  0  0  0
    6.7009    2.7614    3.3112 C   0  0  0  0  0  0  0  0  0  0  0  0
    6.6388    3.4319    2.4825 H   0  0  0  0  0  0  0  0  0  0  0  0
    8.1537    1.0412    2.1459 C   0  0  0  0  0  0  0  0  0  0  0  0
    7.5267   -0.2892    1.7167 C   0  0  0  0  0  0  0  0  0  0  0  0
    8.0374   -0.6658    0.8351 H   0  0  0  0  0  0  0  0  0  0  0  0
    6.4747   -0.1503    1.4752 H   0  0  0  0  0  0  0  0  0  0  0  0
    7.6074   -1.0357    2.5010 H   0  0  0  0  0  0  0  0  0  0  0  0
    8.1079    2.0174    0.9699 C   0  0  0  0  0  0  0  0  0  0  0  0
    8.6937    1.6070    0.1518 H   0  0  0  0  0  0  0  0  0  0  0  0
    8.5368    2.9794    1.2403 H   0  0  0  0  0  0  0  0  0  0  0  0
    7.0899    2.1607    0.6147 H   0  0  0  0  0  0  0  0  0  0  0  0
    9.6099    0.8559    2.5823 C   0  0  0  0  0  0  0  0  0  0  0  0
   10.1985    0.4855    1.7477 H   0  0  0  0  0  0  0  0  0  0  0  0
    9.6885    0.1441    3.4003 H   0  0  0  0  0  0  0  0  0  0  0  0
   10.0293    1.8049    2.9100 H   0  0  0  0  0  0  0  0  0  0  0  0
    5.5434   -0.1894    7.7387 N   0  0  0  0  0  0  0  0  0  0  0  0
    5.8832   -1.3461    7.1855 C   0  0  1  0  0  3  0  0  0  0  0  0
    5.9201   -2.3468    8.1094 N   0  0  0  0  0  0  0  0  0  0  0  0
    5.3590   -0.4433    9.0596 C   0  0  0  0  0  0  0  0  0  0  0  0
    5.0913    0.3352    9.7448 H   0  0  0  0  0  0  0  0  0  0  0  0
    5.5814   -1.7662    9.2970 C   0  0  0  0  0  0  0  0  0  0  0  0
    5.5206   -2.3033   10.2177 H   0  0  0  0  0  0  0  0  0  0  0  0
    6.2702   -3.7518    7.8858 C   0  0  0  0  0  0  0  0  0  0  0  0
    7.6786   -3.8255    7.2865 C   0  0  0  0  0  0  0  0  0  0  0  0
    7.7113   -3.3998    6.2884 H   0  0  0  0  0  0  0  0  0  0  0  0
    7.9938   -4.8630    7.2215 H   0  0  0  0  0  0  0  0  0  0  0  0
    8.3845   -3.2880    7.9168 H   0  0  0  0  0  0  0  0  0  0  0  0
    5.2325   -4.3800    6.9500 C   0  0  0  0  0  0  0  0  0  0  0  0
    5.2262   -3.8866    5.9816 H   0  0  0  0  0  0  0  0  0  0  0  0
    4.2377   -4.3020    7.3842 H   0  0  0  0  0  0  0  0  0  0  0  0
    5.4644   -5.4306    6.7998 H   0  0  0  0  0  0  0  0  0  0  0  0
    6.2615   -4.5063    9.2162 C   0  0  0  0  0  0  0  0  0  0  0  0
    5.2729   -4.4981    9.6692 H   0  0  0  0  0  0  0  0  0  0  0  0
    6.9829   -4.0835    9.9115 H   0  0  0  0  0  0  0  0  0  0  0  0
    6.5370   -5.5415    9.0332 H   0  0  0  0  0  0  0  0  0  0  0  0
  2 25  1  0  0  0  0
  2  1  1  0  0  0  0
  3  4  1  0  0  0  0
  5  2  1  0  0  0  0
  6  3  1  6  0  0  0
  6  5  1  0  0  0  0
  7 10  1  0  0  0  0
  7  6  1  0  0  0  0
  8  9  1  0  0  0  0
  8  5  1  0  0  0  0
 10  8  2  0  0  0  0
 11 10  1  0  0  0  0
 12 21  1  0  0  0  0
 12  7  1  0  0  0  0
 13 12  1  0  0  0  0
 13 16  1  0  0  0  0
 14 13  1  0  0  0  0
 15 13  1  0  0  0  0
 17 19  1  0  0  0  0
 17 12  1  0  0  0  0
 18 17  1  0  0  0  0
 20 17  1  0  0  0  0
 21 24  1  0  0  0  0
 21 23  1  0  0  0  0
 22 21  1  0  0  0  0
 25 28  1  0  0  0  0
 26  4  1  6  0  0  0
 26 25  1  0  0  0  0
 26 27  1  0  0  0  0
 27 30  1  0  0  0  0
 28 30  2  0  0  0  0
 28 29  1  0  0  0  0
 30 31  1  0  0  0  0
 32 27  1  0  0  0  0
 32 41  1  0  0  0  0
 33 32  1  0  0  0  0
 33 36  1  0  0  0  0
 34 33  1  0  0  0  0
 35 33  1  0  0  0  0
 37 39  1  0  0  0  0
 37 32  1  0  0  0  0
 38 37  1  0  0  0  0
 40 37  1  0  0  0  0
 41 42  1  0  0  0  0
 41 43  1  0  0  0  0
 44 41  1  0  0  0  0
M  END
$$$$
