CSD_code = TIRXOI | q = 0 | S = 0 | Stoichiometry = C14H22Cl2N4NiS2 | MND = 4
 OpenBabel04212202103D

 45 47  0  0  1  0  0  0  0  0999 V2000
    1.6614   -7.8025    8.7727 Ni  0  0  0  0  0  0  0  0  0  0  0  0
   -0.0152   -9.7672    7.2070 S   0  0  0  0  0  0  0  0  0  0  0  0
   -0.8660   -9.3640    9.0386 S   0  0  0  0  0  0  0  0  0  0  0  0
    1.9917   -8.5547   10.7206 Cl  0  0  0  0  0  0  0  0  0  0  0  0
    1.6154   -6.8128    6.8966 Cl  0  0  0  0  0  0  0  0  0  0  0  0
    2.5398   -9.2841    8.0379 N   0  0  0  0  0  0  0  0  0  0  0  0
    1.6847  -10.1417    7.4980 C   0  0  2  0  0  3  0  0  0  0  0  0
    3.7463   -9.8898    8.0602 C   0  0  0  0  0  0  0  0  0  0  0  0
    4.6117   -9.4082    8.4693 H   0  0  0  0  0  0  0  0  0  0  0  0
    2.3114  -11.2920    7.1510 N   0  0  0  0  0  0  0  0  0  0  0  0
    3.6192  -11.1293    7.5034 C   0  0  0  0  0  0  0  0  0  0  0  0
    4.3663  -11.8759    7.3462 H   0  0  0  0  0  0  0  0  0  0  0  0
    1.7117  -12.4680    6.5132 C   0  0  0  0  0  0  0  0  0  0  0  0
    0.6264  -13.0304    7.4363 C   0  0  0  0  0  0  0  0  0  0  0  0
   -0.1998  -12.3349    7.5453 H   0  0  0  0  0  0  0  0  0  0  0  0
    1.0403  -13.2363    8.4211 H   0  0  0  0  0  0  0  0  0  0  0  0
    0.2403  -13.9573    7.0224 H   0  0  0  0  0  0  0  0  0  0  0  0
    1.1345  -12.0518    5.1576 C   0  0  0  0  0  0  0  0  0  0  0  0
    1.9172  -11.6362    4.5267 H   0  0  0  0  0  0  0  0  0  0  0  0
    0.3547  -11.3040    5.2754 H   0  0  0  0  0  0  0  0  0  0  0  0
    0.7095  -12.9183    4.6590 H   0  0  0  0  0  0  0  0  0  0  0  0
    2.7804  -13.5389    6.2908 C   0  0  0  0  0  0  0  0  0  0  0  0
    3.5711  -13.1779    5.6376 H   0  0  0  0  0  0  0  0  0  0  0  0
    2.3189  -14.3990    5.8132 H   0  0  0  0  0  0  0  0  0  0  0  0
    3.2098  -13.8689    7.2337 H   0  0  0  0  0  0  0  0  0  0  0  0
    0.1411   -6.8465    9.3102 N   0  0  0  0  0  0  0  0  0  0  0  0
   -0.9392   -7.6086    9.2034 C   0  0  2  0  0  3  0  0  0  0  0  0
   -2.0662   -6.8652    9.3237 N   0  0  0  0  0  0  0  0  0  0  0  0
   -0.2856   -5.5790    9.4889 C   0  0  0  0  0  0  0  0  0  0  0  0
    0.3998   -4.7609    9.5862 H   0  0  0  0  0  0  0  0  0  0  0  0
   -1.6511   -5.5802    9.5097 C   0  0  0  0  0  0  0  0  0  0  0  0
   -2.3217   -4.7594    9.6401 H   0  0  0  0  0  0  0  0  0  0  0  0
   -3.4509   -7.3444    9.2712 C   0  0  0  0  0  0  0  0  0  0  0  0
   -3.6769   -8.3209   10.4286 C   0  0  0  0  0  0  0  0  0  0  0  0
   -3.0153   -9.1796   10.3521 H   0  0  0  0  0  0  0  0  0  0  0  0
   -4.7042   -8.6736   10.4144 H   0  0  0  0  0  0  0  0  0  0  0  0
   -3.4918   -7.8268   11.3799 H   0  0  0  0  0  0  0  0  0  0  0  0
   -3.6904   -8.0162    7.9155 C   0  0  0  0  0  0  0  0  0  0  0  0
   -3.1093   -8.9275    7.8162 H   0  0  0  0  0  0  0  0  0  0  0  0
   -3.4182   -7.3403    7.1077 H   0  0  0  0  0  0  0  0  0  0  0  0
   -4.7418   -8.2696    7.8151 H   0  0  0  0  0  0  0  0  0  0  0  0
   -4.4133   -6.1650    9.4175 C   0  0  0  0  0  0  0  0  0  0  0  0
   -4.2823   -5.6638   10.3735 H   0  0  0  0  0  0  0  0  0  0  0  0
   -5.4329   -6.5383    9.3731 H   0  0  0  0  0  0  0  0  0  0  0  0
   -4.2820   -5.4486    8.6101 H   0  0  0  0  0  0  0  0  0  0  0  0
  1 26  1  0  0  0  0
  1  4  1  0  0  0  0
  2  3  1  0  0  0  0
  5  1  1  0  0  0  0
  6  8  1  0  0  0  0
  6  1  1  0  0  0  0
  7  2  1  6  0  0  0
  7  6  1  0  0  0  0
  8  9  1  0  0  0  0
 10  7  1  0  0  0  0
 10 11  1  0  0  0  0
 11  8  2  0  0  0  0
 12 11  1  0  0  0  0
 13 10  1  0  0  0  0
 13 14  1  0  0  0  0
 14 15  1  0  0  0  0
 14 16  1  0  0  0  0
 17 14  1  0  0  0  0
 18 20  1  0  0  0  0
 18 13  1  0  0  0  0
 19 18  1  0  0  0  0
 21 18  1  0  0  0  0
 22 13  1  0  0  0  0
 22 25  1  0  0  0  0
 23 22  1  0  0  0  0
 24 22  1  0  0  0  0
 26 29  1  0  0  0  0
 27  3  1  1  0  0  0
 27 26  1  0  0  0  0
 27 28  1  0  0  0  0
 28 31  1  0  0  0  0
 29 31  2  0  0  0  0
 29 30  1  0  0  0  0
 31 32  1  0  0  0  0
 33 28  1  0  0  0  0
 33 42  1  0  0  0  0
 33 34  1  0  0  0  0
 34 37  1  0  0  0  0
 35 34  1  0  0  0  0
 36 34  1  0  0  0  0
 38 33  1  0  0  0  0
 39 38  1  0  0  0  0
 40 38  1  0  0  0  0
 41 38  1  0  0  0  0
 42 43  1  0  0  0  0
 44 42  1  0  0  0  0
 45 42  1  0  0  0  0
M  END
$$$$
