CSD_code = TISGAE | q = 0 | S = 0 | Stoichiometry = C26H26AsCl2PPd | MND = 4
 OpenBabel04212202103D

 57 61  0  0  1  0  0  0  0  0999 V2000
    9.8585    1.4250   17.8177 Pd  0  0  0  0  0  0  0  0  0  0  0  0
    8.9434    0.2514   19.5972 As  0  0  1  0  0  0  0  0  0  0  0  0
    7.7447    2.0272   17.3195 P   0  0  0  0  0  4  0  0  0  0  0  0
   11.8701    0.8590   18.7114 Cl  0  0  0  0  0  0  0  0  0  0  0  0
   10.7501    2.6011   16.1150 Cl  0  0  0  0  0  0  0  0  0  0  0  0
    9.5870   -0.2228   21.3667 C   0  0  0  0  0  0  0  0  0  0  0  0
   10.0537   -1.5084   21.6206 C   0  0  0  0  0  0  0  0  0  0  0  0
   10.0326   -2.2460   20.8219 H   0  0  0  0  0  0  0  0  0  0  0  0
   10.5462   -1.8303   22.8736 C   0  0  0  0  0  0  0  0  0  0  0  0
   10.9089   -2.8282   23.0727 H   0  0  0  0  0  0  0  0  0  0  0  0
   10.5826   -0.8690   23.8707 C   0  0  0  0  0  0  0  0  0  0  0  0
   10.9710   -1.1208   24.8463 H   0  0  0  0  0  0  0  0  0  0  0  0
   10.1350    0.4176   23.6171 C   0  0  0  0  0  0  0  0  0  0  0  0
   10.1770    1.1664   24.3946 H   0  0  0  0  0  0  0  0  0  0  0  0
    9.6439    0.7439   22.3650 C   0  0  0  0  0  0  0  0  0  0  0  0
    9.3039    1.7529   22.1441 H   0  0  0  0  0  0  0  0  0  0  0  0
    7.6150   -1.1765   19.1575 C   0  0  1  0  0  0  0  0  0  0  0  0
    7.9780   -2.1727   18.8905 H   0  0  0  0  0  0  0  0  0  0  0  0
    6.6870   -1.1483   20.3458 C   0  0  0  0  0  0  0  0  0  0  0  0
    6.1202   -2.4276   20.8623 C   0  0  0  0  0  0  0  0  0  0  0  0
    5.4748   -2.2611   21.7195 H   0  0  0  0  0  0  0  0  0  0  0  0
    6.9271   -3.0979   21.1579 H   0  0  0  0  0  0  0  0  0  0  0  0
    5.5420   -2.9252   20.0826 H   0  0  0  0  0  0  0  0  0  0  0  0
    5.4844    0.5974   21.7734 C   0  0  0  0  0  0  0  0  0  0  0  0
    4.6966    1.2047   21.3261 H   0  0  0  0  0  0  0  0  0  0  0  0
    6.0239    1.2236   22.4845 H   0  0  0  0  0  0  0  0  0  0  0  0
    5.0247   -0.2248   22.3138 H   0  0  0  0  0  0  0  0  0  0  0  0
    6.4188    0.1067   20.7194 C   0  0  0  0  0  0  0  0  0  0  0  0
    7.1615    1.1034   19.8684 C   0  0  2  0  0  0  0  0  0  0  0  0
    7.1094    2.1332   20.2383 H   0  0  0  0  0  0  0  0  0  0  0  0
    6.8749   -0.4896   17.9937 C   0  0  0  0  0  0  0  0  0  0  0  0
    5.9296   -0.9994   17.7889 H   0  0  0  0  0  0  0  0  0  0  0  0
    7.4928   -0.5374   17.0803 H   0  0  0  0  0  0  0  0  0  0  0  0
    6.6563    0.9824   18.4123 C   0  0  2  0  0  0  0  0  0  0  0  0
    5.6089    1.2985   18.3360 H   0  0  0  0  0  0  0  0  0  0  0  0
    6.9262    2.1299   15.7064 C   0  0  0  0  0  0  0  0  0  0  0  0
    5.7543    1.4634   15.3665 C   0  0  0  0  0  0  0  0  0  0  0  0
    5.2548    0.8251   16.0810 H   0  0  0  0  0  0  0  0  0  0  0  0
    5.2237    1.6175   14.0971 C   0  0  0  0  0  0  0  0  0  0  0  0
    4.3122    1.1007   13.8330 H   0  0  0  0  0  0  0  0  0  0  0  0
    5.8583    2.4245   13.1674 C   0  0  0  0  0  0  0  0  0  0  0  0
    5.4391    2.5364   12.1784 H   0  0  0  0  0  0  0  0  0  0  0  0
    7.0349    3.0782   13.5010 C   0  0  0  0  0  0  0  0  0  0  0  0
    7.5367    3.6966   12.7722 H   0  0  0  0  0  0  0  0  0  0  0  0
    7.5722    2.9316   14.7653 C   0  0  0  0  0  0  0  0  0  0  0  0
    8.5061    3.4086   15.0357 H   0  0  0  0  0  0  0  0  0  0  0  0
    7.5241    3.6980   18.0032 C   0  0  0  0  0  0  0  0  0  0  0  0
    6.3514    4.4224   17.8137 C   0  0  0  0  0  0  0  0  0  0  0  0
    5.5537    4.0032   17.2153 H   0  0  0  0  0  0  0  0  0  0  0  0
    6.2204    5.6776   18.3792 C   0  0  0  0  0  0  0  0  0  0  0  0
    5.3123    6.2429   18.2294 H   0  0  0  0  0  0  0  0  0  0  0  0
    7.2541    6.2122   19.1324 C   0  0  0  0  0  0  0  0  0  0  0  0
    7.1485    7.1944   19.5685 H   0  0  0  0  0  0  0  0  0  0  0  0
    8.4258    5.4957   19.3199 C   0  0  0  0  0  0  0  0  0  0  0  0
    9.2329    5.9199   19.8983 H   0  0  0  0  0  0  0  0  0  0  0  0
    8.5643    4.2399   18.7562 C   0  0  0  0  0  0  0  0  0  0  0  0
    9.5001    3.6747   18.8779 H   0  0  0  0  0  0  0  0  0  0  0  0
  1  4  1  0  0  0  0
  2 29  1  0  0  0  0
  2  6  1  1  0  0  0
  3  1  1  0  0  0  0
  3 47  1  0  0  0  0
  3 34  1  0  0  0  0
  5  1  1  0  0  0  0
  6  7  2  0  0  0  0
  6 15  1  0  0  0  0
  7  9  1  0  0  0  0
  8  7  1  0  0  0  0
  9 10  1  0  0  0  0
  9 11  2  0  0  0  0
 11 12  1  0  0  0  0
 13 11  1  0  0  0  0
 13 14  1  0  0  0  0
 15 13  2  0  0  0  0
 16 15  1  0  0  0  0
 17 18  1  6  0  0  0
 17  2  1  0  0  0  0
 17 19  1  0  0  0  0
 19 28  2  0  0  0  0
 19 20  1  0  0  0  0
 20 22  1  0  0  0  0
 20 21  1  0  0  0  0
 23 20  1  0  0  0  0
 24 27  1  0  0  0  0
 24 26  1  0  0  0  0
 25 24  1  0  0  0  0
 28 24  1  0  0  0  0
 29 30  1  1  0  0  0
 29 28  1  0  0  0  0
 31 34  1  0  0  0  0
 31 17  1  0  0  0  0
 32 31  1  0  0  0  0
 33 31  1  0  0  0  0
 34 35  1  6  0  0  0
 34 29  1  0  0  0  0
 36  3  1  0  0  0  0
 37 36  1  0  0  0  0
 37 38  1  0  0  0  0
 39 37  2  0  0  0  0
 40 39  1  0  0  0  0
 41 43  2  0  0  0  0
 41 39  1  0  0  0  0
 42 41  1  0  0  0  0
 43 45  1  0  0  0  0
 44 43  1  0  0  0  0
 45 46  1  0  0  0  0
 45 36  2  0  0  0  0
 47 56  1  0  0  0  0
 48 47  2  0  0  0  0
 48 50  1  0  0  0  0
 49 48  1  0  0  0  0
 50 52  2  0  0  0  0
 51 50  1  0  0  0  0
 52 54  1  0  0  0  0
 52 53  1  0  0  0  0
 54 55  1  0  0  0  0
 56 57  1  0  0  0  0
 56 54  2  0  0  0  0
M  END
$$$$
