CSD_code = TISHIM | q = 0 | S = 0 | Stoichiometry = C18H23ClSiTi | MND = 12
 OpenBabel04212202103D

 44 45  0  0  1  0  0  0  0  0999 V2000
    3.8971    0.0011    1.4336 Ti  0  0  0  0  0  0  0  0  0  0  0  0
    4.1195   -1.4552    3.0865 Cl  0  0  0  0  0  0  0  0  0  0  0  0
    3.2419   -1.4629   -1.7425 Si  0  0  0  0  0  0  0  0  0  0  0  0
    5.9518    0.8797    2.2573 C   0  0  0  0  0  0  0  0  0  0  0  0
    6.2217   -0.1766    1.3615 C   0  0  0  0  0  0  0  0  0  0  0  0
    5.8011    0.2275    0.0737 C   0  0  0  0  0  0  0  0  0  0  0  0
    5.2793    1.5330    0.1798 C   0  0  0  0  0  0  0  0  0  0  0  0
    5.3881    1.9368    1.5239 C   0  0  0  0  0  3  0  0  0  0  0  0
    1.4408   -0.1726    1.9738 C   0  0  0  0  0  0  0  0  0  0  0  0
    1.7662    0.5111    0.7555 C   0  0  1  0  0  0  0  0  0  0  0  0
    2.3842    1.7335    1.1132 C   0  0  0  0  0  0  0  0  0  0  0  0
    2.5865    1.7577    2.5041 C   0  0  0  0  0  0  0  0  0  0  0  0
    1.9527    0.6106    3.0625 C   0  0  0  0  0  0  0  0  0  0  0  0
    1.7384    0.1972    4.3851 C   0  0  0  0  0  0  0  0  0  0  0  0
    1.0404   -0.9644    4.6078 C   0  0  0  0  0  0  0  0  0  0  0  0
    0.5443   -1.7343    3.5441 C   0  0  0  0  0  0  0  0  0  0  0  0
    0.7338   -1.3555    2.2366 C   0  0  0  0  0  0  0  0  0  0  0  0
    3.5964   -1.6165    0.1156 C   0  0  0  0  0  0  0  0  0  0  0  0
    1.4794   -2.1120   -2.1322 C   0  0  0  0  0  0  0  0  0  0  0  0
    4.4718   -2.5308   -2.7538 C   0  0  0  0  0  0  0  0  0  0  0  0
    3.3651    0.3174   -2.4603 C   0  0  0  0  0  0  0  0  0  0  0  0
    6.2256    0.9025    3.3044 H   0  0  0  0  0  0  0  0  0  0  0  0
    6.7514   -1.0907    1.6026 H   0  0  0  0  0  0  0  0  0  0  0  0
    5.9957   -0.3030   -0.8471 H   0  0  0  0  0  0  0  0  0  0  0  0
    4.9973    2.1675   -0.6490 H   0  0  0  0  0  0  0  0  0  0  0  0
    5.1828    2.9301    1.9006 H   0  0  0  0  0  0  0  0  0  0  0  0
    1.3174    0.2958   -0.2039 H   0  0  0  0  0  0  0  0  0  0  0  0
    2.5759    2.5604    0.4376 H   0  0  0  0  0  0  0  0  0  0  0  0
    2.9493    2.6001    3.0794 H   0  0  0  0  0  0  0  0  0  0  0  0
    2.1165    0.7870    5.2092 H   0  0  0  0  0  0  0  0  0  0  0  0
    0.8629   -1.2983    5.6194 H   0  0  0  0  0  0  0  0  0  0  0  0
   -0.0033   -2.6383    3.7668 H   0  0  0  0  0  0  0  0  0  0  0  0
    0.3299   -1.9433    1.4221 H   0  0  0  0  0  0  0  0  0  0  0  0
    4.4982   -2.2301    0.2515 H   0  0  0  0  0  0  0  0  0  0  0  0
    2.7779   -2.1854    0.5753 H   0  0  0  0  0  0  0  0  0  0  0  0
    0.7074   -1.5435   -1.6220 H   0  0  0  0  0  0  0  0  0  0  0  0
    1.3725   -3.1485   -1.8273 H   0  0  0  0  0  0  0  0  0  0  0  0
    1.2697   -2.0635   -3.1962 H   0  0  0  0  0  0  0  0  0  0  0  0
    5.5039   -2.2601   -2.5503 H   0  0  0  0  0  0  0  0  0  0  0  0
    4.3086   -2.4138   -3.8206 H   0  0  0  0  0  0  0  0  0  0  0  0
    4.3608   -3.5847   -2.5195 H   0  0  0  0  0  0  0  0  0  0  0  0
    2.9745    1.0697   -1.7801 H   0  0  0  0  0  0  0  0  0  0  0  0
    2.8009    0.3901   -3.3855 H   0  0  0  0  0  0  0  0  0  0  0  0
    4.3923    0.5819   -2.6923 H   0  0  0  0  0  0  0  0  0  0  0  0
  1  2  1  0  0  0  0
  3 18  1  0  0  0  0
  4 22  1  0  0  0  0
  5 23  1  0  0  0  0
  5  4  2  0  0  0  0
  6  7  2  0  0  0  0
  6  5  1  0  0  0  0
  7  8  1  0  0  0  0
  8 26  1  0  0  0  0
  8  4  1  0  0  0  0
  9 17  2  0  0  0  0
  9 13  1  0  0  0  0
 10 27  1  6  0  0  0
 10 11  1  0  0  0  0
 10  1  1  0  0  0  0
 10  9  1  0  0  0  0
 11 12  2  0  0  0  0
 12 13  1  0  0  0  0
 12 29  1  0  0  0  0
 13 14  2  0  0  0  0
 14 15  1  0  0  0  0
 14 30  1  0  0  0  0
 15 31  1  0  0  0  0
 16 32  1  0  0  0  0
 16 15  2  0  0  0  0
 17 16  1  0  0  0  0
 18 34  1  0  0  0  0
 18 35  1  0  0  0  0
 18  1  1  0  0  0  0
 19 37  1  0  0  0  0
 19  3  1  0  0  0  0
 19 36  1  0  0  0  0
 20 39  1  0  0  0  0
 20 41  1  0  0  0  0
 20  3  1  0  0  0  0
 21 42  1  0  0  0  0
 21  3  1  0  0  0  0
 24  6  1  0  0  0  0
 25  7  1  0  0  0  0
 28 11  1  0  0  0  0
 33 17  1  0  0  0  0
 38 19  1  0  0  0  0
 40 20  1  0  0  0  0
 43 21  1  0  0  0  0
 44 21  1  0  0  0  0
M  END
$$$$
