CSD_code = TITXUR | q = 0 | S = 0 | Stoichiometry = C11H14Cl2N4OSZn | MND = 4
 OpenBabel04212202103D

 34 35  0  0  1  0  0  0  0  0999 V2000
   10.5849    8.0484    8.6510 Zn  0  0  0  0  0  0  0  0  0  0  0  0
   10.5062   10.2442    8.5228 Cl  0  0  0  0  0  0  0  0  0  0  0  0
   11.7930    7.5944   10.3924 N   0  0  0  0  0  0  0  0  0  0  0  0
   11.8880    6.6432    7.8940 N   0  0  0  0  0  0  0  0  0  0  0  0
   12.3337    6.4347   10.2360 N   0  0  0  0  0  2  0  0  0  0  0  0
   11.3281    7.8420   11.6380 C   0  0  0  0  0  0  0  0  0  0  0  0
   13.7553    3.9977    9.4426 C   0  0  0  0  0  0  0  0  0  0  0  0
   13.5935    4.3254   10.4674 H   0  0  0  0  0  0  0  0  0  0  0  0
   14.8240    3.9926    9.2211 H   0  0  0  0  0  0  0  0  0  0  0  0
   13.3609    2.9891    9.3151 H   0  0  0  0  0  0  0  0  0  0  0  0
   12.4264    6.0355    8.9462 C   0  0  1  0  0  3  0  0  0  0  0  0
   13.0702    4.9075    8.5694 N   0  0  0  0  0  0  0  0  0  0  0  0
   12.9275    4.8080    7.2201 C   0  0  0  0  0  0  0  0  0  0  0  0
   13.3432    3.9939    6.6626 H   0  0  0  0  0  0  0  0  0  0  0  0
   12.1902    5.8914    6.8175 C   0  0  0  0  0  0  0  0  0  0  0  0
   11.8585    6.1708    5.8386 H   0  0  0  0  0  0  0  0  0  0  0  0
   10.8600    6.7563   12.4173 C   0  0  0  0  0  0  0  0  0  0  0  0
   11.0985    9.1582   12.0677 C   0  0  0  0  0  0  0  0  0  0  0  0
   11.4490    9.9660   11.4446 H   0  0  0  0  0  0  0  0  0  0  0  0
   10.4413    9.3900   13.2485 C   0  0  0  0  0  0  0  0  0  0  0  0
   10.2696   10.4015   13.5822 H   0  0  0  0  0  0  0  0  0  0  0  0
   10.1757    7.0208   13.5989 C   0  0  0  0  0  0  0  0  0  0  0  0
    9.8095    6.2037   14.2013 H   0  0  0  0  0  0  0  0  0  0  0  0
    9.9809    8.3187   14.0162 C   0  0  0  0  0  0  0  0  0  0  0  0
    9.4612    8.5064   14.9435 H   0  0  0  0  0  0  0  0  0  0  0  0
   11.0768    5.1426   11.7922 S   0  0  0  0  0  0  0  0  0  0  0  0
    9.4329    4.4183   12.0991 C   0  0  0  0  0  0  0  0  0  0  0  0
    9.2270    4.3600   13.1619 H   0  0  0  0  0  0  0  0  0  0  0  0
    9.4581    3.4223   11.6698 H   0  0  0  0  0  0  0  0  0  0  0  0
    8.7039    5.0344   11.5794 H   0  0  0  0  0  0  0  0  0  0  0  0
    8.9446    6.7748    9.5934 Cl  0  0  0  0  0  0  0  0  0  0  0  0
    9.3687    8.0388    6.6491 O   0  0  0  0  0  0  0  0  0  0  0  0
    9.2745    8.9919    6.5262 H   0  0  0  0  0  0  0  0  0  0  0  0
    8.5023    7.7034    6.9055 H   0  0  0  0  0  0  0  0  0  0  0  0
  1 31  1  0  0  0  0
  1  3  1  0  0  0  0
  2  1  1  0  0  0  0
  3  6  1  0  0  0  0
  4  1  1  0  0  0  0
  4 11  1  0  0  0  0
  5  3  1  0  0  0  0
  6 18  2  0  0  0  0
  6 17  1  0  0  0  0
  7  8  1  0  0  0  0
  9  7  1  0  0  0  0
 10  7  1  0  0  0  0
 11  5  1  1  0  0  0
 12 11  1  0  0  0  0
 12  7  1  0  0  0  0
 13 12  1  0  0  0  0
 14 13  1  0  0  0  0
 15 13  2  0  0  0  0
 15  4  1  0  0  0  0
 16 15  1  0  0  0  0
 17 22  2  0  0  0  0
 18 20  1  0  0  0  0
 19 18  1  0  0  0  0
 20 21  1  0  0  0  0
 20 24  2  0  0  0  0
 22 24  1  0  0  0  0
 22 23  1  0  0  0  0
 24 25  1  0  0  0  0
 26 27  1  0  0  0  0
 26 17  1  0  0  0  0
 27 28  1  0  0  0  0
 29 27  1  0  0  0  0
 30 27  1  0  0  0  0
 32 34  1  0  0  0  0
 33 32  1  0  0  0  0
M  END
$$$$
