CSD_code = TIVLOZ | q = 0 | S = 0 | Stoichiometry = C10H17ClPtS2 | MND = 4
 OpenBabel04212202103D

 31 31  0  0  0  0  0  0  0  0999 V2000
    0.8600    0.7200    2.1398 Pt  0  0  0  0  0  0  0  0  0  0  0  0
   -0.4384    2.6832    1.5753 Cl  0  0  0  0  0  0  0  0  0  0  0  0
    2.7674    1.9886    2.6146 S   0  0  0  0  0  3  0  0  0  0  0  0
   -1.1021   -0.4208    1.6118 S   0  0  0  0  0  3  0  0  0  0  0  0
    1.8470   -0.9493    2.6297 C   0  0  0  0  0  0  0  0  0  0  0  0
    2.4720   -1.7295    1.6651 C   0  0  0  0  0  0  0  0  0  0  0  0
    3.1057   -2.9126    2.0092 C   0  0  0  0  0  0  0  0  0  0  0  0
    3.1225   -3.3328    3.3279 C   0  0  0  0  0  0  0  0  0  0  0  0
    2.5103   -2.5621    4.3009 C   0  0  0  0  0  0  0  0  0  0  0  0
    1.8798   -1.3785    3.9514 C   0  0  0  0  0  0  0  0  0  0  0  0
    2.0624    3.2884    3.6719 C   0  0  0  0  0  0  0  0  0  0  0  0
    2.8691    2.9173    1.0563 C   0  0  0  0  0  0  0  0  0  0  0  0
   -0.9715   -2.2055    1.9491 C   0  0  0  0  0  0  0  0  0  0  0  0
   -2.0109    0.0583    3.1130 C   0  0  0  0  0  0  0  0  0  0  0  0
    2.4650   -1.4127    0.6283 H   0  0  0  0  0  0  0  0  0  0  0  0
    3.5875   -3.5084    1.2462 H   0  0  0  0  0  0  0  0  0  0  0  0
    3.6148   -4.2561    3.5978 H   0  0  0  0  0  0  0  0  0  0  0  0
    2.5256   -2.8818    5.3339 H   0  0  0  0  0  0  0  0  0  0  0  0
    1.4112   -0.7804    4.7269 H   0  0  0  0  0  0  0  0  0  0  0  0
    2.7805    4.1007    3.7460 H   0  0  0  0  0  0  0  0  0  0  0  0
    1.1237    3.6261    3.2357 H   0  0  0  0  0  0  0  0  0  0  0  0
    1.8919    2.8522    4.6519 H   0  0  0  0  0  0  0  0  0  0  0  0
    3.6023    3.7112    1.1721 H   0  0  0  0  0  0  0  0  0  0  0  0
    3.1904    2.2221    0.2857 H   0  0  0  0  0  0  0  0  0  0  0  0
    1.8864    3.3196    0.8195 H   0  0  0  0  0  0  0  0  0  0  0  0
   -1.9739   -2.6247    1.9312 H   0  0  0  0  0  0  0  0  0  0  0  0
   -0.3717   -2.6449    1.1593 H   0  0  0  0  0  0  0  0  0  0  0  0
   -0.4939   -2.3799    2.9079 H   0  0  0  0  0  0  0  0  0  0  0  0
   -2.1117    1.1405    3.0899 H   0  0  0  0  0  0  0  0  0  0  0  0
   -2.9925   -0.4077    3.0885 H   0  0  0  0  0  0  0  0  0  0  0  0
   -1.4598   -0.2521    3.9976 H   0  0  0  0  0  0  0  0  0  0  0  0
  1  3  1  0  0  0  0
  1  5  1  0  0  0  0
  2  1  1  0  0  0  0
  3 11  1  0  0  0  0
  4 13  1  0  0  0  0
  4  1  1  0  0  0  0
  4 14  1  0  0  0  0
  5 10  1  0  0  0  0
  6  7  1  0  0  0  0
  6  5  2  0  0  0  0
  7  8  2  0  0  0  0
  8 17  1  0  0  0  0
  8  9  1  0  0  0  0
  9 18  1  0  0  0  0
 10  9  2  0  0  0  0
 10 19  1  0  0  0  0
 11 20  1  0  0  0  0
 11 22  1  0  0  0  0
 12 23  1  0  0  0  0
 12  3  1  0  0  0  0
 13 28  1  0  0  0  0
 14 31  1  0  0  0  0
 15  6  1  0  0  0  0
 16  7  1  0  0  0  0
 21 11  1  0  0  0  0
 24 12  1  0  0  0  0
 25 12  1  0  0  0  0
 26 13  1  0  0  0  0
 27 13  1  0  0  0  0
 29 14  1  0  0  0  0
 30 14  1  0  0  0  0
M  END
$$$$
