CSD_code = TIVNUJ | q = 1 | S = 0 | Stoichiometry = C12H30ClN4Ni(1+) | MND = 5
 OpenBabel04212202103D

 48 50  0  0  0  0  0  0  0  0999 V2000
    0.4082   -1.3375    9.2886 C   0  0  0  0  0  0  0  0  0  0  0  0
    1.4969   -1.3947    9.3095 H   0  0  0  0  0  0  0  0  0  0  0  0
    0.0891   -1.4910    8.2498 H   0  0  0  0  0  0  0  0  0  0  0  0
   -0.1673   -2.4410   10.1777 C   0  0  0  0  0  0  0  0  0  0  0  0
   -1.2523   -2.4880   10.0579 H   0  0  0  0  0  0  0  0  0  0  0  0
    0.2407   -3.4115    9.8637 H   0  0  0  0  0  0  0  0  0  0  0  0
    1.4975   -2.6096   11.9185 C   0  0  0  0  0  0  0  0  0  0  0  0
    1.5997   -3.6944   11.7971 H   0  0  0  0  0  0  0  0  0  0  0  0
    1.7221   -2.3496   12.9514 H   0  0  0  0  0  0  0  0  0  0  0  0
    2.2189   -2.1217   11.2666 H   0  0  0  0  0  0  0  0  0  0  0  0
   -0.7811   -2.9598   12.4461 C   0  0  0  0  0  0  0  0  0  0  0  0
   -1.8150   -2.6859   12.2492 H   0  0  0  0  0  0  0  0  0  0  0  0
   -0.5646   -2.7525   13.4916 H   0  0  0  0  0  0  0  0  0  0  0  0
   -0.6574   -4.0329   12.2634 H   0  0  0  0  0  0  0  0  0  0  0  0
    0.0000   -0.0000    9.7612 N   0  0  0  0  0  4  0  0  0  0  0  0
    0.1296   -2.1814   11.5987 N   0  0  0  0  0  4  0  0  0  0  0  0
    0.0020   -0.0004   13.7412 Cl  0  0  0  0  0  0  0  0  0  0  0  0
   -0.0004    0.0000   11.7297 Ni  0  0  0  0  0  0  0  0  0  0  0  0
    0.9542    1.0222    9.2886 C   0  0  0  0  0  0  0  0  0  0  0  0
    0.4594    1.9937    9.3095 H   0  0  0  0  0  0  0  0  0  0  0  0
    1.2468    0.8226    8.2499 H   0  0  0  0  0  0  0  0  0  0  0  0
    2.1975    1.0755   10.1778 C   0  0  0  0  0  0  0  0  0  0  0  0
    2.7808    0.1594   10.0580 H   0  0  0  0  0  0  0  0  0  0  0  0
    2.8340    1.9142    9.8639 H   0  0  0  0  0  0  0  0  0  0  0  0
    1.5112    2.6016   11.9187 C   0  0  0  0  0  0  0  0  0  0  0  0
    2.3997    3.2324   11.7973 H   0  0  0  0  0  0  0  0  0  0  0  0
    1.1738    2.6661   12.9515 H   0  0  0  0  0  0  0  0  0  0  0  0
    0.7280    2.9824   11.2667 H   0  0  0  0  0  0  0  0  0  0  0  0
    2.9536    0.8033   12.4461 C   0  0  0  0  0  0  0  0  0  0  0  0
    3.2333   -0.2291   12.2493 H   0  0  0  0  0  0  0  0  0  0  0  0
    2.6659    0.8872   13.4917 H   0  0  0  0  0  0  0  0  0  0  0  0
    3.8212    1.4469   12.2635 H   0  0  0  0  0  0  0  0  0  0  0  0
    1.8242    1.2029   11.5989 N   0  0  0  0  0  4  0  0  0  0  0  0
   -1.3623    0.3153    9.2886 C   0  0  0  0  0  0  0  0  0  0  0  0
   -1.9563   -0.5990    9.3095 H   0  0  0  0  0  0  0  0  0  0  0  0
   -1.3358    0.6683    8.2498 H   0  0  0  0  0  0  0  0  0  0  0  0
   -2.0303    1.3654   10.1776 C   0  0  0  0  0  0  0  0  0  0  0  0
   -1.5285    2.3286   10.0578 H   0  0  0  0  0  0  0  0  0  0  0  0
   -3.0748    1.4973    9.8635 H   0  0  0  0  0  0  0  0  0  0  0  0
   -3.0088    0.0081   11.9186 C   0  0  0  0  0  0  0  0  0  0  0  0
   -3.9994    0.4620   11.7972 H   0  0  0  0  0  0  0  0  0  0  0  0
   -2.8959   -0.3164   12.9515 H   0  0  0  0  0  0  0  0  0  0  0  0
   -2.9470   -0.8606   11.2667 H   0  0  0  0  0  0  0  0  0  0  0  0
   -2.1727    2.1565   12.4460 C   0  0  0  0  0  0  0  0  0  0  0  0
   -1.4186    2.9149   12.2491 H   0  0  0  0  0  0  0  0  0  0  0  0
   -2.1015    1.8654   13.4915 H   0  0  0  0  0  0  0  0  0  0  0  0
   -3.1639    2.5860   12.2633 H   0  0  0  0  0  0  0  0  0  0  0  0
   -1.9542    0.9786   11.5987 N   0  0  0  0  0  4  0  0  0  0  0  0
  1  2  1  0  0  0  0
  1 15  1  0  0  0  0
  1  4  1  0  0  0  0
  3  1  1  0  0  0  0
  4 16  1  0  0  0  0
  5  4  1  0  0  0  0
  6  4  1  0  0  0  0
  7  9  1  0  0  0  0
  8  7  1  0  0  0  0
 10  7  1  0  0  0  0
 11 13  1  0  0  0  0
 12 11  1  0  0  0  0
 14 11  1  0  0  0  0
 15 18  1  0  0  0  0
 16 18  1  0  0  0  0
 16  7  1  0  0  0  0
 16 11  1  0  0  0  0
 18 17  1  0  0  0  0
 19 20  1  0  0  0  0
 19 15  1  0  0  0  0
 19 22  1  0  0  0  0
 21 19  1  0  0  0  0
 22 33  1  0  0  0  0
 23 22  1  0  0  0  0
 24 22  1  0  0  0  0
 25 27  1  0  0  0  0
 26 25  1  0  0  0  0
 28 25  1  0  0  0  0
 29 31  1  0  0  0  0
 30 29  1  0  0  0  0
 32 29  1  0  0  0  0
 33 18  1  0  0  0  0
 33 25  1  0  0  0  0
 33 29  1  0  0  0  0
 34 35  1  0  0  0  0
 34 15  1  0  0  0  0
 34 37  1  0  0  0  0
 36 34  1  0  0  0  0
 37 48  1  0  0  0  0
 38 37  1  0  0  0  0
 39 37  1  0  0  0  0
 40 42  1  0  0  0  0
 41 40  1  0  0  0  0
 43 40  1  0  0  0  0
 44 46  1  0  0  0  0
 45 44  1  0  0  0  0
 47 44  1  0  0  0  0
 48 18  1  0  0  0  0
 48 40  1  0  0  0  0
 48 44  1  0  0  0  0
M  END
$$$$
