CSD_code = TIWHEN | q = 0 | S = 0 | Stoichiometry = C29H22IN3O2PdS | MND = 4
 OpenBabel04212202103D

 59 65  0  0  1  0  0  0  0  0999 V2000
    4.4296    4.2151   17.1488 Pd  0  0  0  0  0  0  0  0  0  0  0  0
    5.4906    4.8885   19.2978 S   0  0  2  0  0  0  0  0  0  0  0  0
    5.3845    3.2360   15.0198 I   0  0  0  0  0 15  0  0  0  0  0  0
    5.8817    3.6574   18.6133 O   0  0  0  0  0  0  0  0  0  0  0  0
    5.8073    5.0124   20.6880 O   0  0  0  0  0  1  0  0  0  0  0  0
    1.6608    3.8227   16.3273 N   0  0  0  0  0  0  0  0  0  0  0  0
    2.2800    5.9122   16.3178 N   0  0  0  0  0  0  0  0  0  0  0  0
    3.9526    5.0657   18.9364 N   0  0  0  0  0  0  0  0  0  0  0  0
    2.7128    4.6489   16.4423 C   0  0  1  0  0  3  0  0  0  0  0  0
    0.9167    5.9212   16.1223 C   0  0  0  0  0  0  0  0  0  0  0  0
    0.0022    6.9470   15.9557 C   0  0  0  0  0  0  0  0  0  0  0  0
    0.3112    7.9795   15.9678 H   0  0  0  0  0  0  0  0  0  0  0  0
   -1.3204    6.5845   15.7797 C   0  0  0  0  0  0  0  0  0  0  0  0
   -2.0651    7.3541   15.6495 H   0  0  0  0  0  0  0  0  0  0  0  0
   -1.7162    5.2487   15.7650 C   0  0  0  0  0  0  0  0  0  0  0  0
   -2.7589    5.0124   15.6203 H   0  0  0  0  0  0  0  0  0  0  0  0
   -0.8083    4.2186   15.9318 C   0  0  0  0  0  0  0  0  0  0  0  0
   -1.1214    3.1871   15.9175 H   0  0  0  0  0  0  0  0  0  0  0  0
    0.5194    4.5695   16.1163 C   0  0  0  0  0  0  0  0  0  0  0  0
    1.7650    2.3894   16.4536 C   0  0  0  0  0  0  0  0  0  0  0  0
    1.7465    1.9144   15.4695 H   0  0  0  0  0  0  0  0  0  0  0  0
    0.9420    2.0089   17.0586 H   0  0  0  0  0  0  0  0  0  0  0  0
    2.7271    2.1542   16.9485 H   0  0  0  0  0  0  0  0  0  0  0  0
    3.2081    6.9852   16.4340 C   0  0  0  0  0  0  0  0  0  0  0  0
    3.9559    7.3377   15.2919 C   0  0  0  0  0  0  0  0  0  0  0  0
    3.7890    6.7959   14.3722 H   0  0  0  0  0  0  0  0  0  0  0  0
    4.8659    8.3522   15.3671 C   0  0  0  0  0  0  0  0  0  0  0  0
    5.4468    8.6309   14.5012 H   0  0  0  0  0  0  0  0  0  0  0  0
    5.0693    9.0469   16.5796 C   0  0  0  0  0  0  0  0  0  0  0  0
    6.0057   10.0975   16.6756 C   0  0  0  0  0  0  0  0  0  0  0  0
    6.5540   10.3805   15.7891 H   0  0  0  0  0  0  0  0  0  0  0  0
    6.2189   10.7406   17.8624 C   0  0  0  0  0  0  0  0  0  0  0  0
    6.9382   11.5431   17.9274 H   0  0  0  0  0  0  0  0  0  0  0  0
    5.5082   10.3562   19.0093 C   0  0  0  0  0  0  0  0  0  0  0  0
    5.6926   10.8643   19.9438 H   0  0  0  0  0  0  0  0  0  0  0  0
    4.5903    9.3443   18.9507 C   0  0  0  0  0  0  0  0  0  0  0  0
    4.0498    9.0486   19.8372 H   0  0  0  0  0  0  0  0  0  0  0  0
    4.3366    8.6690   17.7368 C   0  0  0  0  0  0  0  0  0  0  0  0
    3.3950    7.6031   17.6518 C   0  0  0  0  0  0  0  0  0  0  0  0
    2.6929    7.1504   18.8759 C   0  0  0  0  0  0  0  0  0  0  0  0
    1.6810    7.9652   19.4439 C   0  0  0  0  0  0  0  0  0  0  0  0
    1.2131    9.1305   18.7978 C   0  0  0  0  0  0  0  0  0  0  0  0
    1.6448    9.4116   17.8477 H   0  0  0  0  0  0  0  0  0  0  0  0
    0.2323    9.8979   19.3609 C   0  0  0  0  0  0  0  0  0  0  0  0
   -0.1169   10.7866   18.8558 H   0  0  0  0  0  0  0  0  0  0  0  0
   -0.3293    9.5420   20.5959 C   0  0  0  0  0  0  0  0  0  0  0  0
   -1.1023   10.1606   21.0268 H   0  0  0  0  0  0  0  0  0  0  0  0
    0.1032    8.4201   21.2465 C   0  0  0  0  0  0  0  0  0  0  0  0
   -0.3226    8.1373   22.1985 H   0  0  0  0  0  0  0  0  0  0  0  0
    1.1114    7.6062   20.6928 C   0  0  0  0  0  0  0  0  0  0  0  0
    1.5836    6.4494   21.3499 C   0  0  0  0  0  0  0  0  0  0  0  0
    1.1749    6.1977   22.3179 H   0  0  0  0  0  0  0  0  0  0  0  0
    2.5248    5.6532   20.7715 C   0  0  0  0  0  0  0  0  0  0  0  0
    2.8871    4.7596   21.2567 H   0  0  0  0  0  0  0  0  0  0  0  0
    3.0746    5.9728   19.5083 C   0  0  0  0  0  0  0  0  0  0  0  0
    6.4227    6.1862   18.3984 C   0  0  0  0  0  0  0  0  0  0  0  0
    6.2065    7.1505   18.8431 H   0  0  0  0  0  0  0  0  0  0  0  0
    6.1507    6.1649   17.3312 H   0  0  0  0  0  0  0  0  0  0  0  0
    7.4718    5.9418   18.5257 H   0  0  0  0  0  0  0  0  0  0  0  0
  1  4  1  0  0  0  0
  1  8  1  0  0  0  0
  2  5  1  1  0  0  0
  4  2  1  0  0  0  0
  6  9  1  0  0  0  0
  6 20  1  0  0  0  0
  7 24  1  0  0  0  0
  8  2  1  0  0  0  0
  8 55  1  0  0  0  0
  9  7  1  1  0  0  0
  9  1  1  0  0  0  0
 10  7  1  0  0  0  0
 11 12  1  0  0  0  0
 11 10  2  0  0  0  0
 13 11  1  0  0  0  0
 14 13  1  0  0  0  0
 15 13  2  0  0  0  0
 15 17  1  0  0  0  0
 16 15  1  0  0  0  0
 17 19  2  0  0  0  0
 18 17  1  0  0  0  0
 19 10  1  0  0  0  0
 19  6  1  0  0  0  0
 20 23  1  0  0  0  0
 20 22  1  0  0  0  0
 21 20  1  0  0  0  0
 24 39  1  0  0  0  0
 25 27  1  0  0  0  0
 25 24  2  0  0  0  0
 26 25  1  0  0  0  0
 27 29  2  0  0  0  0
 28 27  1  0  0  0  0
 29 30  1  0  0  0  0
 29 38  1  0  0  0  0
 30 32  2  0  0  0  0
 31 30  1  0  0  0  0
 32 33  1  0  0  0  0
 32 34  1  0  0  0  0
 34 35  1  0  0  0  0
 36 34  2  0  0  0  0
 36 37  1  0  0  0  0
 38 36  1  0  0  0  0
 39 38  2  0  0  0  0
 39 40  1  0  0  0  0
 40 41  2  0  0  0  0
 40 55  1  0  0  0  0
 41 50  1  0  0  0  0
 42 44  2  0  0  0  0
 42 41  1  0  0  0  0
 43 42  1  0  0  0  0
 44 46  1  0  0  0  0
 45 44  1  0  0  0  0
 46 47  1  0  0  0  0
 46 48  2  0  0  0  0
 48 49  1  0  0  0  0
 50 48  1  0  0  0  0
 50 51  2  0  0  0  0
 51 52  1  0  0  0  0
 53 54  1  0  0  0  0
 53 51  1  0  0  0  0
 55 53  2  0  0  0  0
 56 59  1  0  0  0  0
 56 57  1  0  0  0  0
 56  2  1  0  0  0  0
 58 56  1  0  0  0  0
M  END
$$$$
