CSD_code = TIWHAJ | q = 0 | S = 0 | Stoichiometry = C35H26IN3O2PdS | MND = 4
 OpenBabel04212202103D

 69 76  0  0  1  0  0  0  0  0999 V2000
    0.9025    7.3046    2.8661 Pd  0  0  0  0  0  0  0  0  0  0  0  0
   -0.3636    7.0823    5.0600 I   0  0  0  0  0 15  0  0  0  0  0  0
    2.2013    5.7268    1.3860 S   0  0  1  0  0  0  0  0  0  0  0  0
    1.0932    5.2847    2.2344 O   0  0  0  0  0  0  0  0  0  0  0  0
    2.4966    4.9452    0.2223 O   0  0  0  0  0  1  0  0  0  0  0  0
   -0.4097    9.8355    2.2928 N   0  0  0  0  0  0  0  0  0  0  0  0
    1.7210   10.0591    2.6894 N   0  0  0  0  0  0  0  0  0  0  0  0
    1.8724    7.2581    1.0926 N   0  0  0  0  0  0  0  0  0  0  0  0
    0.6938    9.1963    2.7159 C   0  0  2  0  0  3  0  0  0  0  0  0
    1.2866   11.2881    2.2430 C   0  0  0  0  0  0  0  0  0  0  0  0
    1.9419   12.4881    2.0272 C   0  0  0  0  0  0  0  0  0  0  0  0
    2.9997   12.5881    2.2088 H   0  0  0  0  0  0  0  0  0  0  0  0
    1.1782   13.5443    1.5658 C   0  0  0  0  0  0  0  0  0  0  0  0
    1.6510   14.4965    1.3828 H   0  0  0  0  0  0  0  0  0  0  0  0
   -0.1889   13.4100    1.3327 C   0  0  0  0  0  0  0  0  0  0  0  0
   -0.7464   14.2628    0.9777 H   0  0  0  0  0  0  0  0  0  0  0  0
   -0.8493   12.2134    1.5438 C   0  0  0  0  0  0  0  0  0  0  0  0
   -1.9080   12.1181    1.3633 H   0  0  0  0  0  0  0  0  0  0  0  0
   -0.0929   11.1454    1.9994 C   0  0  0  0  0  0  0  0  0  0  0  0
   -1.6910    9.1896    2.1380 C   0  0  0  0  0  0  0  0  0  0  0  0
   -1.5252    8.0992    2.0460 H   0  0  0  0  0  0  0  0  0  0  0  0
   -2.1831    9.5592    1.2388 H   0  0  0  0  0  0  0  0  0  0  0  0
   -2.3250    9.3789    3.0082 H   0  0  0  0  0  0  0  0  0  0  0  0
    3.0385    9.6373    3.0246 C   0  0  0  0  0  0  0  0  0  0  0  0
    3.4480    9.7344    4.3688 C   0  0  0  0  0  0  0  0  0  0  0  0
    2.7420   10.0968    5.1016 H   0  0  0  0  0  0  0  0  0  0  0  0
    4.7246    9.3970    4.7125 C   0  0  0  0  0  0  0  0  0  0  0  0
    5.0582    9.4905    5.7349 H   0  0  0  0  0  0  0  0  0  0  0  0
    5.6310    8.9254    3.7383 C   0  0  0  0  0  0  0  0  0  0  0  0
    6.9647    8.6078    4.0669 C   0  0  0  0  0  0  0  0  0  0  0  0
    7.2924    8.7524    5.0861 H   0  0  0  0  0  0  0  0  0  0  0  0
    7.8260    8.1324    3.1191 C   0  0  0  0  0  0  0  0  0  0  0  0
    8.8491    7.9019    3.3771 H   0  0  0  0  0  0  0  0  0  0  0  0
    7.3836    7.9327    1.8038 C   0  0  0  0  0  0  0  0  0  0  0  0
    8.0664    7.5357    1.0677 H   0  0  0  0  0  0  0  0  0  0  0  0
    6.0998    8.2408    1.4496 C   0  0  0  0  0  0  0  0  0  0  0  0
    5.7641    8.0867    0.4354 H   0  0  0  0  0  0  0  0  0  0  0  0
    5.1967    8.7677    2.3960 C   0  0  0  0  0  0  0  0  0  0  0  0
    3.8723    9.1531    2.0391 C   0  0  0  0  0  0  0  0  0  0  0  0
    3.4477    9.0503    0.6235 C   0  0  0  0  0  0  0  0  0  0  0  0
    4.0162    9.9372   -0.3280 C   0  0  0  0  0  0  0  0  0  0  0  0
    4.8467   11.0129    0.0558 C   0  0  0  0  0  0  0  0  0  0  0  0
    5.0607   11.1625    1.1044 H   0  0  0  0  0  0  0  0  0  0  0  0
    5.3772   11.8583   -0.8781 C   0  0  0  0  0  0  0  0  0  0  0  0
    6.0093   12.6778   -0.5686 H   0  0  0  0  0  0  0  0  0  0  0  0
    5.1077   11.6732   -2.2417 C   0  0  0  0  0  0  0  0  0  0  0  0
    5.5367   12.3493   -2.9661 H   0  0  0  0  0  0  0  0  0  0  0  0
    4.3060   10.6421   -2.6454 C   0  0  0  0  0  0  0  0  0  0  0  0
    4.0896   10.4908   -3.6933 H   0  0  0  0  0  0  0  0  0  0  0  0
    3.7409    9.7550   -1.7081 C   0  0  0  0  0  0  0  0  0  0  0  0
    2.9165    8.6789   -2.1034 C   0  0  0  0  0  0  0  0  0  0  0  0
    2.7399    8.5184   -3.1573 H   0  0  0  0  0  0  0  0  0  0  0  0
    2.3373    7.8675   -1.1767 C   0  0  0  0  0  0  0  0  0  0  0  0
    1.6950    7.0480   -1.4616 H   0  0  0  0  0  0  0  0  0  0  0  0
    2.5659    8.0612    0.2062 C   0  0  0  0  0  0  0  0  0  0  0  0
    3.6512    5.6972    2.4585 C   0  0  0  0  0  0  0  0  0  0  0  0
    3.5940    6.1436    3.7693 C   0  0  0  0  0  0  0  0  0  0  0  0
    2.6719    6.5713    4.1971 H   0  0  0  0  0  0  0  0  0  0  0  0
    4.7083    6.0182    4.5810 C   0  0  0  0  0  0  0  0  0  0  0  0
    4.6550    6.3463    5.6086 H   0  0  0  0  0  0  0  0  0  0  0  0
    5.8850    5.4584    4.0957 C   0  0  0  0  0  0  0  0  0  0  0  0
    5.9303    5.0408    2.7700 C   0  0  0  0  0  0  0  0  0  0  0  0
    6.8388    4.6086    2.3772 H   0  0  0  0  0  0  0  0  0  0  0  0
    4.8183    5.1546    1.9558 C   0  0  0  0  0  0  0  0  0  0  0  0
    4.8263    4.8109    0.9332 H   0  0  0  0  0  0  0  0  0  0  0  0
    7.0669    5.2693    4.9939 C   0  0  0  0  0  0  0  0  0  0  0  0
    7.0555    5.9874    5.8092 H   0  0  0  0  0  0  0  0  0  0  0  0
    7.9959    5.3725    4.4391 H   0  0  0  0  0  0  0  0  0  0  0  0
    7.0420    4.2683    5.4253 H   0  0  0  0  0  0  0  0  0  0  0  0
  3  5  1  6  0  0  0
  3  4  1  0  0  0  0
  3 56  1  0  0  0  0
  4  1  1  0  0  0  0
  7  9  1  0  0  0  0
  7 24  1  0  0  0  0
  8  3  1  0  0  0  0
  8  1  1  0  0  0  0
  9  6  1  6  0  0  0
  9  1  1  0  0  0  0
 10  7  1  0  0  0  0
 11 12  1  0  0  0  0
 11 10  1  0  0  0  0
 13 11  2  0  0  0  0
 14 13  1  0  0  0  0
 15 17  2  0  0  0  0
 15 13  1  0  0  0  0
 16 15  1  0  0  0  0
 17 19  1  0  0  0  0
 18 17  1  0  0  0  0
 19 10  2  0  0  0  0
 19  6  1  0  0  0  0
 20  6  1  0  0  0  0
 20 23  1  0  0  0  0
 21 20  1  0  0  0  0
 22 20  1  0  0  0  0
 24 25  1  0  0  0  0
 25 27  2  0  0  0  0
 25 26  1  0  0  0  0
 27 28  1  0  0  0  0
 29 30  1  0  0  0  0
 29 27  1  0  0  0  0
 30 31  1  0  0  0  0
 32 33  1  0  0  0  0
 32 30  2  0  0  0  0
 34 32  1  0  0  0  0
 35 34  1  0  0  0  0
 36 34  2  0  0  0  0
 36 38  1  0  0  0  0
 37 36  1  0  0  0  0
 38 29  2  0  0  0  0
 39 38  1  0  0  0  0
 39 24  2  0  0  0  0
 40 39  1  0  0  0  0
 41 42  1  0  0  0  0
 41 40  2  0  0  0  0
 42 43  1  0  0  0  0
 44 45  1  0  0  0  0
 44 42  2  0  0  0  0
 46 44  1  0  0  0  0
 47 46  1  0  0  0  0
 48 46  2  0  0  0  0
 48 50  1  0  0  0  0
 49 48  1  0  0  0  0
 50 41  1  0  0  0  0
 51 50  2  0  0  0  0
 51 53  1  0  0  0  0
 52 51  1  0  0  0  0
 53 55  2  0  0  0  0
 54 53  1  0  0  0  0
 55 40  1  0  0  0  0
 55  8  1  0  0  0  0
 56 57  1  0  0  0  0
 57 58  1  0  0  0  0
 57 59  2  0  0  0  0
 59 60  1  0  0  0  0
 61 59  1  0  0  0  0
 61 66  1  0  0  0  0
 62 61  2  0  0  0  0
 63 62  1  0  0  0  0
 64 56  2  0  0  0  0
 64 62  1  0  0  0  0
 65 64  1  0  0  0  0
 66 69  1  0  0  0  0
 66 67  1  0  0  0  0
 68 66  1  0  0  0  0
M  END
$$$$
