CSD_code = TIWYUT | q = 0 | S = 0 | Stoichiometry = C12H39F3MoP4 | MND = 8
 OpenBabel04212202103D

 59 55  0  0  0  0  0  0  0  0999 V2000
   -0.0002   -3.2005   -0.5310 Mo  0  0  0  0  0  0  0  0  0  0  0  0
    0.0002   -3.9374    1.4924 F   0  0  0  0  0  0  0  0  0  0  0  0
   -0.0002   -1.4380    0.8256 F   0  0  0  0  0  0  0  0  0  0  0  0
    0.0001   -2.9591    3.7937 F   0  0  0  0  0  0  0  0  0  0  0  0
    0.0003   -0.9609   -1.4449 P   0  0  0  0  0  4  0  0  0  0  0  0
   -0.0001   -5.6307   -0.8487 P   0  0  0  0  0  4  0  0  0  0  0  0
   -2.2889   -3.1527    0.4169 P   0  0  0  0  0  0  0  0  0  0  0  0
    0.0000   -0.8724   -3.2852 C   0  0  0  0  0  0  0  0  0  0  0  0
   -1.3841    0.1928   -1.1044 C   0  0  0  0  0  0  0  0  0  0  0  0
   -1.3780   -6.3123   -1.8589 C   0  0  0  0  0  0  0  0  0  0  0  0
   -0.0000   -6.8197    0.5477 C   0  0  0  0  0  0  0  0  0  0  0  0
   -3.7160   -2.9808   -0.7258 C   0  0  0  0  0  0  0  0  0  0  0  0
   -2.8753   -4.6198    1.3633 C   0  0  0  0  0  0  0  0  0  0  0  0
   -2.6919   -1.8809    1.6707 C   0  0  0  0  0  0  0  0  0  0  0  0
   -0.9561   -3.3720   -1.8212 H   0  0  0  0  0  0  0  0  0  0  0  0
   -0.0002   -3.2363    2.8723 H   0  0  0  0  0  0  0  0  0  0  0  0
   -0.0000    0.1551   -3.6485 H   0  0  0  0  0  0  0  0  0  0  0  0
   -0.8813   -1.3923   -3.6560 H   0  0  0  0  0  0  0  0  0  0  0  0
   -1.2557    1.0992   -1.6962 H   0  0  0  0  0  0  0  0  0  0  0  0
   -2.3298   -0.2778   -1.3644 H   0  0  0  0  0  0  0  0  0  0  0  0
   -1.3753    0.4446   -0.0471 H   0  0  0  0  0  0  0  0  0  0  0  0
   -1.2649   -7.3867   -2.0047 H   0  0  0  0  0  0  0  0  0  0  0  0
   -2.3311   -6.1065   -1.3763 H   0  0  0  0  0  0  0  0  0  0  0  0
   -1.3632   -5.8036   -2.8216 H   0  0  0  0  0  0  0  0  0  0  0  0
   -0.0000   -7.8406    0.1662 H   0  0  0  0  0  0  0  0  0  0  0  0
   -0.8803   -6.6550    1.1639 H   0  0  0  0  0  0  0  0  0  0  0  0
   -4.6551   -2.9487   -0.1739 H   0  0  0  0  0  0  0  0  0  0  0  0
   -3.6103   -2.0727   -1.3136 H   0  0  0  0  0  0  0  0  0  0  0  0
   -3.7220   -3.8266   -1.4104 H   0  0  0  0  0  0  0  0  0  0  0  0
   -3.8926   -4.4453    1.7135 H   0  0  0  0  0  0  0  0  0  0  0  0
   -2.8615   -5.5061    0.7323 H   0  0  0  0  0  0  0  0  0  0  0  0
   -2.2249   -4.7776    2.2212 H   0  0  0  0  0  0  0  0  0  0  0  0
   -3.7051   -2.0364    2.0423 H   0  0  0  0  0  0  0  0  0  0  0  0
   -1.9816   -1.9559    2.4925 H   0  0  0  0  0  0  0  0  0  0  0  0
   -2.6047   -0.8901    1.2336 H   0  0  0  0  0  0  0  0  0  0  0  0
    0.8813   -1.3923   -3.6561 H   0  0  0  0  0  0  0  0  0  0  0  0
    1.3844    0.1931   -1.1044 C   0  0  0  0  0  0  0  0  0  0  0  0
    1.2558    1.0994   -1.6962 H   0  0  0  0  0  0  0  0  0  0  0  0
    2.3300   -0.2776   -1.3644 H   0  0  0  0  0  0  0  0  0  0  0  0
    1.3754    0.4447   -0.0470 H   0  0  0  0  0  0  0  0  0  0  0  0
    1.3780   -6.3122   -1.8588 C   0  0  0  0  0  0  0  0  0  0  0  0
    1.2648   -7.3867   -2.0047 H   0  0  0  0  0  0  0  0  0  0  0  0
    2.3311   -6.1064   -1.3762 H   0  0  0  0  0  0  0  0  0  0  0  0
    1.3632   -5.8036   -2.8215 H   0  0  0  0  0  0  0  0  0  0  0  0
    0.8802   -6.6550    1.1639 H   0  0  0  0  0  0  0  0  0  0  0  0
    2.2889   -3.1527    0.4169 P   0  0  0  0  0  0  0  0  0  0  0  0
    3.7160   -2.9808   -0.7258 C   0  0  0  0  0  0  0  0  0  0  0  0
    4.6550   -2.9487   -0.1739 H   0  0  0  0  0  0  0  0  0  0  0  0
    3.6103   -2.0728   -1.3136 H   0  0  0  0  0  0  0  0  0  0  0  0
    3.7219   -3.8267   -1.4104 H   0  0  0  0  0  0  0  0  0  0  0  0
    2.8753   -4.6198    1.3633 C   0  0  0  0  0  0  0  0  0  0  0  0
    3.8926   -4.4453    1.7135 H   0  0  0  0  0  0  0  0  0  0  0  0
    2.8615   -5.5061    0.7324 H   0  0  0  0  0  0  0  0  0  0  0  0
    2.2249   -4.7776    2.2213 H   0  0  0  0  0  0  0  0  0  0  0  0
    2.6919   -1.8809    1.6707 C   0  0  0  0  0  0  0  0  0  0  0  0
    3.7051   -2.0364    2.0423 H   0  0  0  0  0  0  0  0  0  0  0  0
    1.9816   -1.9559    2.4925 H   0  0  0  0  0  0  0  0  0  0  0  0
    2.6047   -0.8901    1.2336 H   0  0  0  0  0  0  0  0  0  0  0  0
    0.9555   -3.3689   -1.8218 H   0  0  0  0  0  0  0  0  0  0  0  0
  1  3  1  0  0  0  0
  1  2  1  0  0  0  0
  5  9  1  0  0  0  0
  5 37  1  0  0  0  0
  5  1  1  0  0  0  0
  6  1  1  0  0  0  0
  6 11  1  0  0  0  0
  7 13  1  0  0  0  0
  7 14  1  0  0  0  0
  8  5  1  0  0  0  0
  9 21  1  0  0  0  0
 10 23  1  0  0  0  0
 10  6  1  0  0  0  0
 11 26  1  0  0  0  0
 11 45  1  0  0  0  0
 12 27  1  0  0  0  0
 12  7  1  0  0  0  0
 13 30  1  0  0  0  0
 13 32  1  0  0  0  0
 14 33  1  0  0  0  0
 14 34  1  0  0  0  0
 15  1  1  0  0  0  0
 16  4  1  0  0  0  0
 17  8  1  0  0  0  0
 18  8  1  0  0  0  0
 19  9  1  0  0  0  0
 20  9  1  0  0  0  0
 22 10  1  0  0  0  0
 24 10  1  0  0  0  0
 25 11  1  0  0  0  0
 28 12  1  0  0  0  0
 29 12  1  0  0  0  0
 31 13  1  0  0  0  0
 35 14  1  0  0  0  0
 36  8  1  0  0  0  0
 37 40  1  0  0  0  0
 38 37  1  0  0  0  0
 39 37  1  0  0  0  0
 41 43  1  0  0  0  0
 41  6  1  0  0  0  0
 42 41  1  0  0  0  0
 44 41  1  0  0  0  0
 46 51  1  0  0  0  0
 46 55  1  0  0  0  0
 47 48  1  0  0  0  0
 47 46  1  0  0  0  0
 49 47  1  0  0  0  0
 50 47  1  0  0  0  0
 51 52  1  0  0  0  0
 51 54  1  0  0  0  0
 53 51  1  0  0  0  0
 55 56  1  0  0  0  0
 55 57  1  0  0  0  0
 58 55  1  0  0  0  0
 59  1  1  0  0  0  0
M  END
$$$$
