CSD_code = TIXROI | q = 0 | S = 0 | Stoichiometry = C14H12Cl2N4O2Pd | MND = 4
 OpenBabel04212202103D

 35 39  0  0  1  0  0  0  0  0999 V2000
    5.3725    4.0457    9.4570 Pd  0  0  0  0  0  0  0  0  0  0  0  0
    5.3087    3.2327    7.3919 Cl  0  0  0  0  0  0  0  0  0  0  0  0
    4.4117    5.9191    8.7626 Cl  0  0  0  0  0  0  0  0  0  0  0  0
    7.5629    3.6012   11.3736 C   0  0  2  0  0  0  0  0  0  0  0  0
    8.8503    3.5404   12.1826 C   0  0  0  0  0  0  0  0  0  0  0  0
    8.6842    3.1035   13.1646 H   0  0  0  0  0  0  0  0  0  0  0  0
    9.2397    4.5493   12.2975 H   0  0  0  0  0  0  0  0  0  0  0  0
    9.5882    2.9488   11.6468 H   0  0  0  0  0  0  0  0  0  0  0  0
    6.5472    4.3883   12.0586 N   0  0  0  0  0  0  0  0  0  0  0  0
    5.4053    4.6646   11.4193 N   0  0  1  0  0  0  0  0  0  0  0  0
    4.6666    5.4030   12.2218 C   0  0  0  0  0  3  0  0  0  0  0  0
    3.7035    5.7581   11.9069 H   0  0  0  0  0  0  0  0  0  0  0  0
    5.3450    5.6057   13.4277 C   0  0  0  0  0  0  0  0  0  0  0  0
    5.0090    6.1637   14.2761 H   0  0  0  0  0  0  0  0  0  0  0  0
    6.5421    4.9464   13.2859 C   0  0  0  0  0  0  0  0  0  0  0  0
    7.3630    4.8617   13.9660 H   0  0  0  0  0  0  0  0  0  0  0  0
    6.9860    2.2777   11.1537 N   0  0  0  0  0  0  0  0  0  0  0  0
    6.0069    2.1866   10.2469 N   0  0  1  0  0  0  0  0  0  0  0  0
    5.6520    0.9196   10.1732 C   0  0  0  0  0  3  0  0  0  0  0  0
    4.8805    0.6054    9.4960 H   0  0  0  0  0  0  0  0  0  0  0  0
    6.4271    0.1629   11.0603 C   0  0  0  0  0  0  0  0  0  0  0  0
    6.3790   -0.8927   11.2267 H   0  0  0  0  0  0  0  0  0  0  0  0
    7.2685    1.0647   11.6688 C   0  0  0  0  0  0  0  0  0  0  0  0
    8.0276    0.9141   12.4079 H   0  0  0  0  0  0  0  0  0  0  0  0
    7.8251    4.1708    9.9684 C   0  0  2  0  0  0  0  0  0  0  0  0
    7.4821    5.6048    9.6941 C   0  0  0  0  0  0  0  0  0  0  0  0
    7.5173    5.9708    8.2655 C   0  0  0  0  0  0  0  0  0  0  0  0
    7.0882    6.9317    8.0174 H   0  0  0  0  0  0  0  0  0  0  0  0
    8.1665    5.2211    7.3647 C   0  0  0  0  0  0  0  0  0  0  0  0
    8.2508    5.5239    6.3312 H   0  0  0  0  0  0  0  0  0  0  0  0
    8.8405    3.9646    7.7245 C   0  0  0  0  0  0  0  0  0  0  0  0
    8.5397    3.4579    9.0680 C   0  0  0  0  0  3  0  0  0  0  0  0
    8.8836    2.4520    9.2759 H   0  0  0  0  0  0  0  0  0  0  0  0
    7.3516    6.4201   10.5939 O   0  0  0  0  0  0  0  0  0  0  0  0
    9.5996    3.3787    6.9734 O   0  0  0  0  0  0  0  0  0  0  0  0
  1 25  1  0  0  0  0
  1 18  1  0  0  0  0
  1 10  1  0  0  0  0
  2  1  1  0  0  0  0
  3  1  1  0  0  0  0
  4  9  1  0  0  0  0
  4  5  1  1  0  0  0
  5  7  1  0  0  0  0
  5  6  1  0  0  0  0
  8  5  1  0  0  0  0
  9 15  1  0  0  0  0
 10  9  1  0  0  0  0
 10 11  1  6  0  0  0
 11 13  1  0  0  0  0
 12 11  1  0  0  0  0
 13 14  1  0  0  0  0
 15 13  2  0  0  0  0
 15 16  1  0  0  0  0
 17  4  1  0  0  0  0
 17 23  1  0  0  0  0
 18 19  1  1  0  0  0
 18 17  1  0  0  0  0
 19 21  1  0  0  0  0
 20 19  1  0  0  0  0
 21 22  1  0  0  0  0
 21 23  2  0  0  0  0
 23 24  1  0  0  0  0
 25 32  1  6  0  0  0
 25  4  1  0  0  0  0
 26 25  1  0  0  0  0
 26 34  2  0  0  0  0
 27 26  1  0  0  0  0
 28 27  1  0  0  0  0
 29 31  1  0  0  0  0
 29 27  2  0  0  0  0
 30 29  1  0  0  0  0
 31 32  1  0  0  0  0
 32 33  1  0  0  0  0
 35 31  2  0  0  0  0
M  END
$$$$
