CSD_code = TIXXEG | q = 0 | S = 0 | Stoichiometry = C18H16Cl2N4Zn | MND = 4
 OpenBabel04212202103D

 41 45  0  0  1  0  0  0  0  0999 V2000
    7.9952    1.7873    2.9307 Zn  0  0  0  0  0  0  0  0  0  0  0  0
    6.4819    0.4981    1.9323 Cl  0  0  0  0  0  0  0  0  0  0  0  0
   10.1783    1.6410    2.8518 Cl  0  0  0  0  0  0  0  0  0  0  0  0
    7.2758    1.8750    4.8471 N   0  0  0  0  0  0  0  0  0  0  0  0
    5.6613    1.4296    6.3068 N   0  0  0  0  0  0  0  0  0  0  0  0
    7.3144    3.6782    2.5411 N   0  0  0  0  0  0  0  0  0  0  0  0
    5.7469    5.0655    1.7977 N   0  0  0  0  0  0  0  0  0  0  0  0
    7.1432    0.5624    8.1672 C   0  0  0  0  0  0  0  0  0  0  0  0
    6.3785    0.3382    8.8955 H   0  0  0  0  0  0  0  0  0  0  0  0
    8.4745    0.3316    8.4427 C   0  0  0  0  0  0  0  0  0  0  0  0
    8.7487   -0.0785    9.4030 H   0  0  0  0  0  0  0  0  0  0  0  0
    9.4813    0.6104    7.5115 C   0  0  0  0  0  0  0  0  0  0  0  0
   10.5068    0.4066    7.7780 H   0  0  0  0  0  0  0  0  0  0  0  0
    9.1952    1.1315    6.2697 C   0  0  0  0  0  0  0  0  0  0  0  0
    9.9596    1.3443    5.5399 H   0  0  0  0  0  0  0  0  0  0  0  0
    7.8548    1.3700    5.9758 C   0  0  0  0  0  0  0  0  0  0  0  0
    6.8404    1.0863    6.9170 C   0  0  0  0  0  0  0  0  0  0  0  0
    5.9730    1.9044    5.0620 C   0  0  2  0  0  3  0  0  0  0  0  0
    4.9383    2.3269    4.1589 C   0  0  0  0  0  0  0  0  0  0  0  0
    3.9735    1.8965    4.3947 H   0  0  0  0  0  0  0  0  0  0  0  0
    4.9567    3.1696    3.1104 C   0  0  0  0  0  0  0  0  0  0  0  0
    4.0044    3.3251    2.6194 H   0  0  0  0  0  0  0  0  0  0  0  0
    6.0195    3.9364    2.5207 C   0  0  1  0  0  3  0  0  0  0  0  0
    7.9285    4.6590    1.8163 C   0  0  0  0  0  0  0  0  0  0  0  0
    9.2770    4.8548    1.5288 C   0  0  0  0  0  0  0  0  0  0  0  0
   10.0184    4.1616    1.8926 H   0  0  0  0  0  0  0  0  0  0  0  0
    9.6019    5.9537    0.7655 C   0  0  0  0  0  0  0  0  0  0  0  0
   10.6352    6.1412    0.5182 H   0  0  0  0  0  0  0  0  0  0  0  0
    8.6251    6.8396    0.2971 C   0  0  0  0  0  0  0  0  0  0  0  0
    8.9291    7.6862   -0.2996 H   0  0  0  0  0  0  0  0  0  0  0  0
    7.2859    6.6595    0.5728 C   0  0  0  0  0  0  0  0  0  0  0  0
    6.5442    7.3493    0.1994 H   0  0  0  0  0  0  0  0  0  0  0  0
    6.9443    5.5537    1.3407 C   0  0  0  0  0  0  0  0  0  0  0  0
    4.4535    5.6419    1.5552 C   0  0  0  0  0  0  0  0  0  0  0  0
    3.8526    4.9901    0.9163 H   0  0  0  0  0  0  0  0  0  0  0  0
    4.5847    6.5967    1.0511 H   0  0  0  0  0  0  0  0  0  0  0  0
    3.9237    5.8103    2.4943 H   0  0  0  0  0  0  0  0  0  0  0  0
    4.3490    1.3006    6.8772 C   0  0  0  0  0  0  0  0  0  0  0  0
    3.8210    2.2555    6.8534 H   0  0  0  0  0  0  0  0  0  0  0  0
    4.4475    0.9807    7.9119 H   0  0  0  0  0  0  0  0  0  0  0  0
    3.7639    0.5535    6.3356 H   0  0  0  0  0  0  0  0  0  0  0  0
  1  4  1  0  0  0  0
  2  1  1  0  0  0  0
  3  1  1  0  0  0  0
  4 18  1  0  0  0  0
  4 16  1  0  0  0  0
  5 38  1  0  0  0  0
  5 17  1  0  0  0  0
  6  1  1  0  0  0  0
  7 23  1  0  0  0  0
  8 10  1  0  0  0  0
  8  9  1  0  0  0  0
 10 11  1  0  0  0  0
 12 13  1  0  0  0  0
 12 10  2  0  0  0  0
 14 12  1  0  0  0  0
 15 14  1  0  0  0  0
 16 14  2  0  0  0  0
 16 17  1  0  0  0  0
 17  8  2  0  0  0  0
 18 19  1  6  0  0  0
 18  5  1  0  0  0  0
 19 20  1  0  0  0  0
 21 19  2  0  0  0  0
 22 21  1  0  0  0  0
 23  6  1  0  0  0  0
 23 21  1  6  0  0  0
 24  6  1  0  0  0  0
 25 24  1  0  0  0  0
 25 26  1  0  0  0  0
 27 25  2  0  0  0  0
 28 27  1  0  0  0  0
 29 31  2  0  0  0  0
 29 27  1  0  0  0  0
 30 29  1  0  0  0  0
 31 33  1  0  0  0  0
 32 31  1  0  0  0  0
 33  7  1  0  0  0  0
 33 24  2  0  0  0  0
 34  7  1  0  0  0  0
 34 37  1  0  0  0  0
 35 34  1  0  0  0  0
 36 34  1  0  0  0  0
 38 40  1  0  0  0  0
 39 38  1  0  0  0  0
 41 38  1  0  0  0  0
M  END
$$$$
