CSD_code = TIYMOG | q = 0 | S = 0 | Stoichiometry = C18H26FN2NiP | MND = 4
 OpenBabel04212202103D

 49 52  0  0  1  0  0  0  0  0999 V2000
   -6.1678   -0.0951   10.3105 C   0  0  0  0  0  0  0  0  0  0  0  0
   -6.1548   -0.8939    9.1574 C   0  0  2  0  0  3  0  0  0  0  0  0
   -7.3181   -1.3134    8.5327 C   0  0  0  0  0  0  0  0  0  0  0  0
   -7.2828   -1.9260    7.6442 H   0  0  0  0  0  0  0  0  0  0  0  0
   -8.5340   -0.9276    9.0722 C   0  0  0  0  0  0  0  0  0  0  0  0
   -9.4515   -1.2399    8.5962 H   0  0  0  0  0  0  0  0  0  0  0  0
   -8.5815   -0.1527   10.2200 C   0  0  0  0  0  0  0  0  0  0  0  0
   -9.5389    0.1311   10.6352 H   0  0  0  0  0  0  0  0  0  0  0  0
   -7.4092    0.2600   10.8400 C   0  0  0  0  0  0  0  0  0  0  0  0
   -4.3677   -1.9411    7.7135 C   0  0  0  0  0  3  0  0  0  0  0  0
   -4.9983   -2.4245    6.9952 H   0  0  0  0  0  0  0  0  0  0  0  0
   -2.9939   -1.9067    7.8186 C   0  0  0  0  0  0  0  0  0  0  0  0
   -2.2823   -2.3789    7.1733 H   0  0  0  0  0  0  0  0  0  0  0  0
   -2.7295   -1.1252    8.9475 C   0  0  0  0  0  0  0  0  0  0  0  0
   -1.7888   -0.8486    9.3815 H   0  0  0  0  0  0  0  0  0  0  0  0
   -7.3817    1.0566   12.1150 C   0  0  0  0  0  0  0  0  0  0  0  0
   -7.6188    0.3939   12.9519 H   0  0  0  0  0  0  0  0  0  0  0  0
   -8.1057    1.8743   12.1237 H   0  0  0  0  0  0  0  0  0  0  0  0
   -5.6733    3.4215   11.6725 C   0  0  0  0  0  0  0  0  0  0  0  0
   -6.2845    3.3450   10.2698 C   0  0  0  0  0  0  0  0  0  0  0  0
   -6.2124    4.3139    9.7774 H   0  0  0  0  0  0  0  0  0  0  0  0
   -7.3322    3.0541   10.2925 H   0  0  0  0  0  0  0  0  0  0  0  0
   -5.7356    2.6150    9.6697 H   0  0  0  0  0  0  0  0  0  0  0  0
   -4.2312    3.9111   11.5313 C   0  0  0  0  0  0  0  0  0  0  0  0
   -4.1973    4.8075   10.9133 H   0  0  0  0  0  0  0  0  0  0  0  0
   -3.6236    3.1399   11.0557 H   0  0  0  0  0  0  0  0  0  0  0  0
   -3.7886    4.1480   12.4937 H   0  0  0  0  0  0  0  0  0  0  0  0
   -6.4846    4.3640   12.5543 C   0  0  0  0  0  0  0  0  0  0  0  0
   -5.9838    4.5414   13.5027 H   0  0  0  0  0  0  0  0  0  0  0  0
   -7.4812    3.9735   12.7514 H   0  0  0  0  0  0  0  0  0  0  0  0
   -6.5938    5.3248   12.0519 H   0  0  0  0  0  0  0  0  0  0  0  0
   -5.2374    1.4563   14.1089 C   0  0  0  0  0  0  0  0  0  0  0  0
   -5.0102   -0.0526   14.2563 C   0  0  0  0  0  0  0  0  0  0  0  0
   -4.6581   -0.2920   15.2584 H   0  0  0  0  0  0  0  0  0  0  0  0
   -4.2522   -0.3780   13.5376 H   0  0  0  0  0  0  0  0  0  0  0  0
   -5.9237   -0.6172   14.0727 H   0  0  0  0  0  0  0  0  0  0  0  0
   -3.9271    2.1754   14.4202 C   0  0  0  0  0  0  0  0  0  0  0  0
   -4.0673    3.2527   14.4661 H   0  0  0  0  0  0  0  0  0  0  0  0
   -3.1867    1.9395   13.6584 H   0  0  0  0  0  0  0  0  0  0  0  0
   -3.5429    1.8469   15.3849 H   0  0  0  0  0  0  0  0  0  0  0  0
   -6.3447    1.9210   15.0509 C   0  0  0  0  0  0  0  0  0  0  0  0
   -7.2864    1.4147   14.8528 H   0  0  0  0  0  0  0  0  0  0  0  0
   -6.5087    2.9922   14.9808 H   0  0  0  0  0  0  0  0  0  0  0  0
   -6.0547    1.6932   16.0764 H   0  0  0  0  0  0  0  0  0  0  0  0
   -4.8588   -1.2142    8.7312 N   0  0  2  0  0  0  0  0  0  0  0  0
   -3.8669   -0.7193    9.4814 N   0  0  0  0  0  0  0  0  0  0  0  0
   -2.8461    0.7902   11.5260 F   0  0  0  0  0  0  0  0  0  0  0  0
   -5.6229    1.6366   12.2754 P   0  0  0  0  0  4  0  0  0  0  0  0
   -4.4890    0.3968   10.9546 Ni  0  0  2  0  0  0  0  0  0  0  0  0
  1  9  1  0  0  0  0
  1 49  2  0  0  0  0
  2  3  1  1  0  0  0
  2  1  1  0  0  0  0
  3  5  2  0  0  0  0
  4  3  1  0  0  0  0
  5  7  1  0  0  0  0
  6  5  1  0  0  0  0
  7  8  1  0  0  0  0
  7  9  2  0  0  0  0
  9 16  1  0  0  0  0
 10 12  1  0  0  0  0
 11 10  1  0  0  0  0
 12 14  2  0  0  0  0
 13 12  1  0  0  0  0
 14 15  1  0  0  0  0
 14 46  1  0  0  0  0
 16 18  1  0  0  0  0
 16 48  1  0  0  0  0
 16 17  1  0  0  0  0
 19 48  1  0  0  0  0
 19 28  1  0  0  0  0
 20 22  1  0  0  0  0
 20 19  1  0  0  0  0
 21 20  1  0  0  0  0
 23 20  1  0  0  0  0
 24 19  1  0  0  0  0
 24 27  1  0  0  0  0
 25 24  1  0  0  0  0
 26 24  1  0  0  0  0
 28 30  1  0  0  0  0
 28 29  1  0  0  0  0
 31 28  1  0  0  0  0
 32 33  1  0  0  0  0
 32 37  1  0  0  0  0
 32 41  1  0  0  0  0
 33 34  1  0  0  0  0
 35 33  1  0  0  0  0
 36 33  1  0  0  0  0
 37 38  1  0  0  0  0
 37 40  1  0  0  0  0
 39 37  1  0  0  0  0
 41 44  1  0  0  0  0
 42 41  1  0  0  0  0
 43 41  1  0  0  0  0
 45 10  1  1  0  0  0
 45  2  1  0  0  0  0
 45 46  1  0  0  0  0
 46 49  1  0  0  0  0
 48 32  1  0  0  0  0
 49 47  1  1  0  0  0
 49 48  1  0  0  0  0
M  END
$$$$
