CSD_code = TIYMUM | q = 0 | S = 0 | Stoichiometry = C18H26ClN2NiP | MND = 4
 OpenBabel04212202103D

 49 52  0  0  1  0  0  0  0  0999 V2000
    3.1605    3.5303    6.3164 C   0  0  0  0  0  0  0  0  0  0  0  0
    3.3050    3.1038    4.9893 C   0  0  2  0  0  3  0  0  0  0  0  0
    2.3560    3.3817    4.0183 C   0  0  0  0  0  0  0  0  0  0  0  0
    2.4882    3.0467    3.0006 H   0  0  0  0  0  0  0  0  0  0  0  0
    1.2312    4.1041    4.3802 C   0  0  0  0  0  0  0  0  0  0  0  0
    0.4842    4.3349    3.6358 H   0  0  0  0  0  0  0  0  0  0  0  0
    1.0538    4.5254    5.6883 C   0  0  0  0  0  0  0  0  0  0  0  0
    0.1651    5.0796    5.9574 H   0  0  0  0  0  0  0  0  0  0  0  0
    2.0095    4.2397    6.6549 C   0  0  0  0  0  0  0  0  0  0  0  0
    5.0191    1.7839    3.6917 C   0  0  0  0  0  3  0  0  0  0  0  0
    4.5451    1.7980    2.7314 H   0  0  0  0  0  0  0  0  0  0  0  0
    6.2063    1.2106    4.0935 C   0  0  0  0  0  0  0  0  0  0  0  0
    6.8956    0.6545    3.4926 H   0  0  0  0  0  0  0  0  0  0  0  0
    6.3198    1.5101    5.4536 C   0  0  0  0  0  0  0  0  0  0  0  0
    7.0984    1.2480    6.1439 H   0  0  0  0  0  0  0  0  0  0  0  0
    1.8682    4.6128    8.1026 C   0  0  0  0  0  0  0  0  0  0  0  0
    1.1677    3.9191    8.5755 H   0  0  0  0  0  0  0  0  0  0  0  0
    1.4845    5.6246    8.2484 H   0  0  0  0  0  0  0  0  0  0  0  0
    4.3004    6.0903    8.8536 C   0  0  0  0  0  0  0  0  0  0  0  0
    5.7671    6.0055    9.2757 C   0  0  0  0  0  0  0  0  0  0  0  0
    6.2720    6.9445    9.0523 H   0  0  0  0  0  0  0  0  0  0  0  0
    6.2695    5.2058    8.7317 H   0  0  0  0  0  0  0  0  0  0  0  0
    5.8728    5.8087   10.3377 H   0  0  0  0  0  0  0  0  0  0  0  0
    4.2552    6.5426    7.3905 C   0  0  0  0  0  0  0  0  0  0  0  0
    3.2365    6.6771    7.0330 H   0  0  0  0  0  0  0  0  0  0  0  0
    4.7465    5.7958    6.7597 H   0  0  0  0  0  0  0  0  0  0  0  0
    4.7855    7.4869    7.2743 H   0  0  0  0  0  0  0  0  0  0  0  0
    3.5529    7.0829    9.7382 C   0  0  0  0  0  0  0  0  0  0  0  0
    3.7037    6.8596   10.7912 H   0  0  0  0  0  0  0  0  0  0  0  0
    2.4852    7.0928    9.5293 H   0  0  0  0  0  0  0  0  0  0  0  0
    3.9379    8.0855    9.5544 H   0  0  0  0  0  0  0  0  0  0  0  0
    3.1883    3.6753   10.5596 C   0  0  0  0  0  0  0  0  0  0  0  0
    2.0053    4.3456   11.2567 C   0  0  0  0  0  0  0  0  0  0  0  0
    1.0818    4.2384   10.6935 H   0  0  0  0  0  0  0  0  0  0  0  0
    2.1841    5.4025   11.4294 H   0  0  0  0  0  0  0  0  0  0  0  0
    1.8572    3.8693   12.2255 H   0  0  0  0  0  0  0  0  0  0  0  0
    4.4317    3.7588   11.4419 C   0  0  0  0  0  0  0  0  0  0  0  0
    4.6019    4.7756   11.7881 H   0  0  0  0  0  0  0  0  0  0  0  0
    5.3056    3.4097   10.8940 H   0  0  0  0  0  0  0  0  0  0  0  0
    4.3028    3.1251   12.3183 H   0  0  0  0  0  0  0  0  0  0  0  0
    2.8705    2.2009   10.2883 C   0  0  0  0  0  0  0  0  0  0  0  0
    2.6903    1.6699   11.2212 H   0  0  0  0  0  0  0  0  0  0  0  0
    3.7168    1.7295    9.7835 H   0  0  0  0  0  0  0  0  0  0  0  0
    1.9886    2.0908    9.6571 H   0  0  0  0  0  0  0  0  0  0  0  0
    5.2711    2.2157    5.8417 N   0  0  0  0  0  0  0  0  0  0  0  0
    4.4843    2.3804    4.7695 N   0  0  2  0  0  0  0  0  0  0  0  0
    3.5580    4.3549    8.8413 P   0  0  0  0  0  4  0  0  0  0  0  0
    6.1843    2.5449    8.6737 Cl  0  0  0  0  0  0  0  0  0  0  0  0
    4.5886    3.1013    7.4557 Ni  0  0  1  0  0  0  0  0  0  0  0  0
  1  9  1  0  0  0  0
  1 49  2  0  0  0  0
  2  3  1  1  0  0  0
  2  1  1  0  0  0  0
  3  5  2  0  0  0  0
  4  3  1  0  0  0  0
  5  7  1  0  0  0  0
  6  5  1  0  0  0  0
  7  8  1  0  0  0  0
  7  9  2  0  0  0  0
  9 16  1  0  0  0  0
 10 12  1  0  0  0  0
 11 10  1  0  0  0  0
 12 14  2  0  0  0  0
 13 12  1  0  0  0  0
 14 45  1  0  0  0  0
 14 15  1  0  0  0  0
 16 18  1  0  0  0  0
 16 17  1  0  0  0  0
 16 47  1  0  0  0  0
 19 20  1  0  0  0  0
 19 28  1  0  0  0  0
 20 23  1  0  0  0  0
 21 20  1  0  0  0  0
 22 20  1  0  0  0  0
 24 19  1  0  0  0  0
 25 24  1  0  0  0  0
 26 24  1  0  0  0  0
 27 24  1  0  0  0  0
 28 29  1  0  0  0  0
 30 28  1  0  0  0  0
 31 28  1  0  0  0  0
 32 33  1  0  0  0  0
 32 37  1  0  0  0  0
 33 35  1  0  0  0  0
 33 36  1  0  0  0  0
 34 33  1  0  0  0  0
 37 38  1  0  0  0  0
 37 40  1  0  0  0  0
 39 37  1  0  0  0  0
 41 32  1  0  0  0  0
 41 42  1  0  0  0  0
 43 41  1  0  0  0  0
 44 41  1  0  0  0  0
 45 49  1  0  0  0  0
 46 10  1  1  0  0  0
 46  2  1  0  0  0  0
 46 45  1  0  0  0  0
 47 19  1  0  0  0  0
 47 32  1  0  0  0  0
 49 48  1  1  0  0  0
 49 47  1  0  0  0  0
M  END
$$$$
