CSD_code = TIYNAT | q = 0 | S = 0 | Stoichiometry = C18H26BrN2NiP | MND = 4
 OpenBabel04212202103D

 49 52  0  0  1  0  0  0  0  0999 V2000
    3.2505    3.4376    6.3946 C   0  0  0  0  0  0  0  0  0  0  0  0
    3.3887    3.0364    5.0600 C   0  0  2  0  0  3  0  0  0  0  0  0
    2.4386    3.3407    4.0980 C   0  0  0  0  0  0  0  0  0  0  0  0
    2.5668    3.0236    3.0740 H   0  0  0  0  0  0  0  0  0  0  0  0
    1.3198    4.0630    4.4770 C   0  0  0  0  0  0  0  0  0  0  0  0
    0.5724    4.3136    3.7394 H   0  0  0  0  0  0  0  0  0  0  0  0
    1.1489    4.4578    5.7937 C   0  0  0  0  0  0  0  0  0  0  0  0
    0.2650    5.0112    6.0794 H   0  0  0  0  0  0  0  0  0  0  0  0
    2.1059    4.1458    6.7511 C   0  0  0  0  0  0  0  0  0  0  0  0
    5.0822    1.7255    3.7282 C   0  0  0  0  0  3  0  0  0  0  0  0
    4.6032    1.7674    2.7712 H   0  0  0  0  0  0  0  0  0  0  0  0
    6.2626    1.1297    4.1155 C   0  0  0  0  0  0  0  0  0  0  0  0
    6.9429    0.5763    3.5023 H   0  0  0  0  0  0  0  0  0  0  0  0
    6.3841    1.3992    5.4810 C   0  0  0  0  0  0  0  0  0  0  0  0
    7.1623    1.1112    6.1617 H   0  0  0  0  0  0  0  0  0  0  0  0
    1.9695    4.4849    8.2056 C   0  0  0  0  0  0  0  0  0  0  0  0
    1.2769    3.7736    8.6648 H   0  0  0  0  0  0  0  0  0  0  0  0
    1.5812    5.4904    8.3819 H   0  0  0  0  0  0  0  0  0  0  0  0
    3.2807    3.6150   10.6770 C   0  0  0  0  0  0  0  0  0  0  0  0
    2.9679    2.1270   10.4843 C   0  0  0  0  0  0  0  0  0  0  0  0
    2.7021    1.6698   11.4357 H   0  0  0  0  0  0  0  0  0  0  0  0
    3.8391    1.6029   10.0915 H   0  0  0  0  0  0  0  0  0  0  0  0
    2.1367    1.9796    9.7936 H   0  0  0  0  0  0  0  0  0  0  0  0
    2.0735    4.3110   11.3084 C   0  0  0  0  0  0  0  0  0  0  0  0
    1.1553    4.1265   10.7570 H   0  0  0  0  0  0  0  0  0  0  0  0
    2.2178    5.3833   11.3929 H   0  0  0  0  0  0  0  0  0  0  0  0
    1.9354    3.9142   12.3137 H   0  0  0  0  0  0  0  0  0  0  0  0
    4.4871    3.7547   11.6033 C   0  0  0  0  0  0  0  0  0  0  0  0
    4.2987    3.2027   12.5231 H   0  0  0  0  0  0  0  0  0  0  0  0
    4.6647    4.7937   11.8707 H   0  0  0  0  0  0  0  0  0  0  0  0
    5.3830    3.3413   11.1466 H   0  0  0  0  0  0  0  0  0  0  0  0
    4.4217    5.9516    8.8897 C   0  0  0  0  0  0  0  0  0  0  0  0
    4.3024    6.4374    7.4418 C   0  0  0  0  0  0  0  0  0  0  0  0
    3.2697    6.6150    7.1501 H   0  0  0  0  0  0  0  0  0  0  0  0
    4.7312    5.6997    6.7595 H   0  0  0  0  0  0  0  0  0  0  0  0
    4.8550    7.3679    7.3187 H   0  0  0  0  0  0  0  0  0  0  0  0
    3.7391    6.9453    9.8242 C   0  0  0  0  0  0  0  0  0  0  0  0
    4.1413    7.9410    9.6382 H   0  0  0  0  0  0  0  0  0  0  0  0
    3.9297    6.7029   10.8663 H   0  0  0  0  0  0  0  0  0  0  0  0
    2.6643    6.9867    9.6582 H   0  0  0  0  0  0  0  0  0  0  0  0
    5.9086    5.8450    9.2292 C   0  0  0  0  0  0  0  0  0  0  0  0
    6.4070    5.1694    8.5342 H   0  0  0  0  0  0  0  0  0  0  0  0
    6.0732    5.4736   10.2359 H   0  0  0  0  0  0  0  0  0  0  0  0
    6.3788    6.8239    9.1435 H   0  0  0  0  0  0  0  0  0  0  0  0
    5.3451    2.1111    5.8857 N   0  0  0  0  0  0  0  0  0  0  0  0
    4.5585    2.3072    4.8196 N   0  0  2  0  0  0  0  0  0  0  0  0
    3.6623    4.2202    8.9256 P   0  0  0  0  0  4  0  0  0  0  0  0
    4.6838    2.9576    7.5282 Ni  0  0  1  0  0  0  0  0  0  0  0  0
    6.3600    2.2746    8.8273 Br  0  0  0  0  0  0  0  0  0  0  0  0
  1  9  1  0  0  0  0
  1 48  2  0  0  0  0
  2  3  1  1  0  0  0
  2  1  1  0  0  0  0
  3  5  2  0  0  0  0
  4  3  1  0  0  0  0
  5  7  1  0  0  0  0
  6  5  1  0  0  0  0
  7  8  1  0  0  0  0
  7  9  2  0  0  0  0
  9 16  1  0  0  0  0
 10 12  1  0  0  0  0
 11 10  1  0  0  0  0
 12 14  2  0  0  0  0
 13 12  1  0  0  0  0
 14 45  1  0  0  0  0
 14 15  1  0  0  0  0
 16 18  1  0  0  0  0
 16 17  1  0  0  0  0
 16 47  1  0  0  0  0
 19 24  1  0  0  0  0
 19 28  1  0  0  0  0
 20 19  1  0  0  0  0
 20 21  1  0  0  0  0
 22 20  1  0  0  0  0
 23 20  1  0  0  0  0
 24 26  1  0  0  0  0
 24 27  1  0  0  0  0
 25 24  1  0  0  0  0
 28 30  1  0  0  0  0
 28 29  1  0  0  0  0
 31 28  1  0  0  0  0
 32 47  1  0  0  0  0
 32 41  1  0  0  0  0
 32 37  1  0  0  0  0
 33 32  1  0  0  0  0
 34 33  1  0  0  0  0
 35 33  1  0  0  0  0
 36 33  1  0  0  0  0
 37 39  1  0  0  0  0
 38 37  1  0  0  0  0
 40 37  1  0  0  0  0
 41 43  1  0  0  0  0
 42 41  1  0  0  0  0
 44 41  1  0  0  0  0
 45 48  1  0  0  0  0
 46 10  1  1  0  0  0
 46  2  1  0  0  0  0
 46 45  1  0  0  0  0
 47 19  1  0  0  0  0
 48 49  1  1  0  0  0
 48 47  1  0  0  0  0
M  END
$$$$
