CSD_code = TIYWEF | q = 0 | S = 0 | Stoichiometry = C14H16Cl2N2NiO6 | MND = 6
 OpenBabel04212202103D

 41 40  0  0  0  0  0  0  0  0999 V2000
    3.0735    6.7110    0.0086 Ni  0  0  0  0  0  0  0  0  0  0  0  0
    1.7862    8.0566    1.1166 Cl  0  0  0  0  0  0  0  0  0  0  0  0
    2.6566    4.5310    2.3964 O   0  0  0  0  0  0  0  0  0  0  0  0
    3.9513    6.1842    1.6425 O   0  0  0  0  0  0  0  0  0  0  0  0
    1.6847    5.3361    0.2115 O   0  0  0  0  0  0  0  0  0  0  0  0
    1.9609    4.8515    1.0993 H   0  0  0  0  0  0  0  0  0  0  0  0
    5.1582    4.0363    5.6325 N   0  0  0  0  0  0  0  0  0  0  0  0
    6.9239    4.7301    7.1107 C   0  0  0  0  0  0  0  0  0  0  0  0
    6.5776    3.8480    7.6399 H   0  0  0  0  0  0  0  0  0  0  0  0
    6.8500    5.5969    7.7647 H   0  0  0  0  0  0  0  0  0  0  0  0
    7.9710    4.6003    6.8427 H   0  0  0  0  0  0  0  0  0  0  0  0
    6.0995    4.9362    5.8827 C   0  0  0  0  0  0  0  0  0  0  0  0
    6.3104    6.0272    5.0380 C   0  0  0  0  0  0  0  0  0  0  0  0
    7.0811    6.7477    5.2657 H   0  0  0  0  0  0  0  0  0  0  0  0
    5.5178    6.1666    3.9164 C   0  0  0  0  0  0  0  0  0  0  0  0
    5.6412    6.9981    3.2396 H   0  0  0  0  0  0  0  0  0  0  0  0
    4.5337    5.2120    3.6689 C   0  0  0  0  0  0  0  0  0  0  0  0
    4.3957    4.1578    4.5685 C   0  0  0  0  0  0  0  0  0  0  0  0
    3.6433    3.3974    4.4135 H   0  0  0  0  0  0  0  0  0  0  0  0
    3.6245    5.2957    2.4838 C   0  0  0  0  0  0  0  0  0  0  0  0
    0.8313    5.7630    0.3916 H   0  0  0  0  0  0  0  0  0  0  0  0
    4.3611    5.3658   -1.1001 Cl  0  0  0  0  0  0  0  0  0  0  0  0
    3.5049    8.8853   -2.3781 O   0  0  0  0  0  0  0  0  0  0  0  0
    2.1982    7.2396   -1.6283 O   0  0  0  0  0  0  0  0  0  0  0  0
    4.4630    8.0842   -0.1896 O   0  0  0  0  0  0  0  0  0  0  0  0
    4.1910    8.5671   -1.0813 H   0  0  0  0  0  0  0  0  0  0  0  0
    1.0367    9.3904   -5.6321 N   0  0  0  0  0  0  0  0  0  0  0  0
   -0.7110    8.7013   -7.1331 C   0  0  0  0  0  0  0  0  0  0  0  0
   -0.3494    9.5780   -7.6616 H   0  0  0  0  0  0  0  0  0  0  0  0
   -0.6403    7.8311   -7.7831 H   0  0  0  0  0  0  0  0  0  0  0  0
   -1.7594    8.8444   -6.8762 H   0  0  0  0  0  0  0  0  0  0  0  0
    0.0980    8.4914   -5.8954 C   0  0  0  0  0  0  0  0  0  0  0  0
   -0.1240    7.3989   -5.0555 C   0  0  0  0  0  0  0  0  0  0  0  0
   -0.8924    6.6793   -5.2940 H   0  0  0  0  0  0  0  0  0  0  0  0
    0.6547    7.2566   -3.9244 C   0  0  0  0  0  0  0  0  0  0  0  0
    0.5224    6.4239   -3.2508 H   0  0  0  0  0  0  0  0  0  0  0  0
    1.6364    8.2100   -3.6633 C   0  0  0  0  0  0  0  0  0  0  0  0
    1.7859    9.2660   -4.5591 C   0  0  0  0  0  0  0  0  0  0  0  0
    2.5374   10.0252   -4.3936 H   0  0  0  0  0  0  0  0  0  0  0  0
    2.5342    8.1239   -2.4700 C   0  0  0  0  0  0  0  0  0  0  0  0
    5.3168    7.6562   -0.3645 H   0  0  0  0  0  0  0  0  0  0  0  0
  1  2  1  0  0  0  0
  1  4  1  0  0  0  0
  3 20  2  0  0  0  0
  4 20  1  0  0  0  0
  5 21  1  0  0  0  0
  5  6  1  0  0  0  0
  7 12  1  0  0  0  0
  8  9  1  0  0  0  0
  8 10  1  0  0  0  0
 11  8  1  0  0  0  0
 12  8  1  0  0  0  0
 13 14  1  0  0  0  0
 13 12  2  0  0  0  0
 15 13  1  0  0  0  0
 16 15  1  0  0  0  0
 17 15  2  0  0  0  0
 17 18  1  0  0  0  0
 18  7  2  0  0  0  0
 19 18  1  0  0  0  0
 20 17  1  0  0  0  0
 22  1  1  0  0  0  0
 24  1  1  0  0  0  0
 26 25  1  0  0  0  0
 27 38  1  0  0  0  0
 28 31  1  0  0  0  0
 28 32  1  0  0  0  0
 29 28  1  0  0  0  0
 30 28  1  0  0  0  0
 32 27  2  0  0  0  0
 32 33  1  0  0  0  0
 33 35  2  0  0  0  0
 34 33  1  0  0  0  0
 35 37  1  0  0  0  0
 35 36  1  0  0  0  0
 37 40  1  0  0  0  0
 38 39  1  0  0  0  0
 38 37  2  0  0  0  0
 40 23  2  0  0  0  0
 40 24  1  0  0  0  0
 41 25  1  0  0  0  0
M  END
$$$$
