CSD_code = TIYZAF | q = 0 | S = 0 | Stoichiometry = C21H21CuIN3S3 | MND = 4
 OpenBabel04212202103D

 50 52  0  0  1  0  0  0  0  0999 V2000
    1.6789    5.1171    2.8827 C   0  0  1  0  0  3  0  0  0  0  0  0
    1.2298    4.8471    1.5158 C   0  0  0  0  0  0  0  0  0  0  0  0
    2.1631    4.7230    0.4876 C   0  0  0  0  0  0  0  0  0  0  0  0
    3.2120    4.8391    0.7149 H   0  0  0  0  0  0  0  0  0  0  0  0
    1.7495    4.4664   -0.8046 C   0  0  0  0  0  0  0  0  0  0  0  0
    2.4808    4.3799   -1.5942 H   0  0  0  0  0  0  0  0  0  0  0  0
    0.4012    4.3172   -1.0869 C   0  0  0  0  0  0  0  0  0  0  0  0
    0.0784    4.1115   -2.0965 H   0  0  0  0  0  0  0  0  0  0  0  0
   -0.5329    4.4247   -0.0690 C   0  0  0  0  0  0  0  0  0  0  0  0
   -1.5834    4.2956   -0.2833 H   0  0  0  0  0  0  0  0  0  0  0  0
   -0.1267    4.6934    1.2240 C   0  0  0  0  0  0  0  0  0  0  0  0
   -0.8625    4.7441    2.0138 H   0  0  0  0  0  0  0  0  0  0  0  0
    4.0056    8.9937    5.6320 C   0  0  1  0  0  3  0  0  0  0  0  0
    4.8355   10.1715    5.3715 C   0  0  0  0  0  0  0  0  0  0  0  0
    4.6243   10.9360    4.2250 C   0  0  0  0  0  0  0  0  0  0  0  0
    3.8384   10.6486    3.5429 H   0  0  0  0  0  0  0  0  0  0  0  0
    5.4030   12.0483    3.9737 C   0  0  0  0  0  0  0  0  0  0  0  0
    5.2245   12.6385    3.0873 H   0  0  0  0  0  0  0  0  0  0  0  0
    6.4119   12.4048    4.8541 C   0  0  0  0  0  0  0  0  0  0  0  0
    7.0221   13.2735    4.6562 H   0  0  0  0  0  0  0  0  0  0  0  0
    6.6437   11.6381    5.9845 C   0  0  0  0  0  0  0  0  0  0  0  0
    7.4407   11.9025    6.6638 H   0  0  0  0  0  0  0  0  0  0  0  0
    5.8603   10.5308    6.2481 C   0  0  0  0  0  0  0  0  0  0  0  0
    6.0746    9.9216    7.1148 H   0  0  0  0  0  0  0  0  0  0  0  0
    7.0311    3.7640    7.2993 C   0  0  0  0  0  0  0  0  0  0  0  0
    6.9326    2.8785    8.3740 C   0  0  0  0  0  0  0  0  0  0  0  0
    5.9641    2.5492    8.7220 H   0  0  0  0  0  0  0  0  0  0  0  0
    8.0714    2.4585    9.0345 C   0  0  0  0  0  0  0  0  0  0  0  0
    7.9845    1.7815    9.8713 H   0  0  0  0  0  0  0  0  0  0  0  0
    9.3189    2.9044    8.6289 C   0  0  0  0  0  0  0  0  0  0  0  0
   10.2064    2.5666    9.1427 H   0  0  0  0  0  0  0  0  0  0  0  0
    9.4238    3.7909    7.5688 C   0  0  0  0  0  0  0  0  0  0  0  0
   10.3937    4.1455    7.2535 H   0  0  0  0  0  0  0  0  0  0  0  0
    8.2890    4.2245    6.9123 C   0  0  0  0  0  0  0  0  0  0  0  0
    8.3616    4.9164    6.0870 H   0  0  0  0  0  0  0  0  0  0  0  0
    5.8352    4.2204    6.5898 C   0  0  1  0  0  3  0  0  0  0  0  0
    3.5016    5.8628    5.3357 Cu  0  0  0  0  0  0  0  0  0  0  0  0
    1.8538    5.5927    7.2700 I   0  0  0  0  0  0  0  0  0  0  0  0
    0.8773    5.7916    3.6994 N   0  0  0  0  0  0  0  0  0  0  0  0
    0.0288    6.2203    3.3689 H   0  0  0  0  0  0  0  0  0  0  0  0
    1.1716    5.9726    4.6552 H   0  0  0  0  0  0  0  0  0  0  0  0
    3.7594    8.6523    6.8932 N   0  0  0  0  0  0  0  0  0  0  0  0
    4.1151    9.1957    7.6619 H   0  0  0  0  0  0  0  0  0  0  0  0
    3.2178    7.8162    7.0994 H   0  0  0  0  0  0  0  0  0  0  0  0
    4.7920    3.3989    6.5031 N   0  0  0  0  0  0  0  0  0  0  0  0
    4.8159    2.4652    6.8780 H   0  0  0  0  0  0  0  0  0  0  0  0
    3.9512    3.7180    6.0318 H   0  0  0  0  0  0  0  0  0  0  0  0
    3.1485    4.5292    3.3933 S   0  0  0  0  0  0  0  0  0  0  0  0
    3.3807    8.1190    4.3622 S   0  0  0  0  0  0  0  0  0  0  0  0
    5.7885    5.7432    5.9238 S   0  0  0  0  0  0  0  0  0  0  0  0
  1 48  1  1  0  0  0
  1 39  1  0  0  0  0
  2  1  1  0  0  0  0
  3  4  1  0  0  0  0
  3  2  2  0  0  0  0
  5  3  1  0  0  0  0
  6  5  1  0  0  0  0
  7  5  2  0  0  0  0
  7  9  1  0  0  0  0
  8  7  1  0  0  0  0
  9 11  2  0  0  0  0
 10  9  1  0  0  0  0
 11  2  1  0  0  0  0
 11 12  1  0  0  0  0
 13 49  1  6  0  0  0
 13 42  1  0  0  0  0
 14 13  1  0  0  0  0
 14 23  1  0  0  0  0
 15 14  2  0  0  0  0
 16 15  1  0  0  0  0
 17 15  1  0  0  0  0
 17 19  2  0  0  0  0
 18 17  1  0  0  0  0
 19 21  1  0  0  0  0
 20 19  1  0  0  0  0
 21 23  2  0  0  0  0
 21 22  1  0  0  0  0
 23 24  1  0  0  0  0
 25 26  1  0  0  0  0
 26 27  1  0  0  0  0
 26 28  2  0  0  0  0
 28 29  1  0  0  0  0
 30 28  1  0  0  0  0
 30 31  1  0  0  0  0
 32 30  2  0  0  0  0
 33 32  1  0  0  0  0
 34 25  2  0  0  0  0
 34 32  1  0  0  0  0
 35 34  1  0  0  0  0
 36 50  1  1  0  0  0
 36 25  1  0  0  0  0
 37 50  1  0  0  0  0
 37 38  1  0  0  0  0
 39 41  1  0  0  0  0
 40 39  1  0  0  0  0
 42 44  1  0  0  0  0
 42 43  1  0  0  0  0
 45 36  1  0  0  0  0
 45 46  1  0  0  0  0
 47 45  1  0  0  0  0
 48 37  1  0  0  0  0
 49 37  1  0  0  0  0
M  END
$$$$
