CSD_code = TIZWEE | q = 0 | S = 0 | Stoichiometry = C4H10Cl2N2O4Pt | MND = 4
 OpenBabel04212202103D

 23 22  0  0  0  0  0  0  0  0999 V2000
   -0.0000   -0.0000    0.0000 Pt  0  0  0  0  0  0  0  0  0  0  0  0
    0.2986   -2.2195    0.5436 Cl  0  0  0  0  0  0  0  0  0  0  0  0
    0.6049    0.5290    1.8730 N   0  0  0  0  0  4  0  0  0  0  0  0
    3.6831    1.8314    3.3037 O   0  0  0  0  0  0  0  0  0  0  0  0
    1.6774    1.4421    4.2145 O   0  0  0  0  0  0  0  0  0  0  0  0
    1.9922    0.9962    1.8755 C   0  0  0  0  0  0  0  0  0  0  0  0
    2.4132    1.4414    3.2654 C   0  0  0  0  0  0  0  0  0  0  0  0
    0.5157   -0.2775    2.5019 H   0  0  0  0  0  0  0  0  0  0  0  0
    0.0063    1.2754    2.2444 H   0  0  0  0  0  0  0  0  0  0  0  0
    3.9346    2.1210    4.1956 H   0  0  0  0  0  0  0  0  0  0  0  0
    2.6584    0.1974    1.5346 H   0  0  0  0  0  0  0  0  0  0  0  0
    2.0946    1.8431    1.1872 H   0  0  0  0  0  0  0  0  0  0  0  0
   -0.2986    2.2195   -0.5436 Cl  0  0  0  0  0  0  0  0  0  0  0  0
   -0.6049   -0.5290   -1.8730 N   0  0  0  0  0  4  0  0  0  0  0  0
   -1.9922   -0.9962   -1.8755 C   0  0  0  0  0  0  0  0  0  0  0  0
   -2.4132   -1.4414   -3.2654 C   0  0  0  0  0  0  0  0  0  0  0  0
   -3.6831   -1.8314   -3.3037 O   0  0  0  0  0  0  0  0  0  0  0  0
   -3.9346   -2.1210   -4.1956 H   0  0  0  0  0  0  0  0  0  0  0  0
   -1.6774   -1.4421   -4.2145 O   0  0  0  0  0  0  0  0  0  0  0  0
   -2.6584   -0.1974   -1.5346 H   0  0  0  0  0  0  0  0  0  0  0  0
   -2.0946   -1.8431   -1.1872 H   0  0  0  0  0  0  0  0  0  0  0  0
   -0.5157    0.2775   -2.5019 H   0  0  0  0  0  0  0  0  0  0  0  0
   -0.0063   -1.2754   -2.2444 H   0  0  0  0  0  0  0  0  0  0  0  0
  1  2  1  0  0  0  0
  1  3  1  0  0  0  0
  3  6  1  0  0  0  0
  3  9  1  0  0  0  0
  3  8  1  0  0  0  0
  4 10  1  0  0  0  0
  6  7  1  0  0  0  0
  7  4  1  0  0  0  0
  7  5  2  0  0  0  0
 11  6  1  0  0  0  0
 12  6  1  0  0  0  0
 13  1  1  0  0  0  0
 14  1  1  0  0  0  0
 15 14  1  0  0  0  0
 15 20  1  0  0  0  0
 15 21  1  0  0  0  0
 16 15  1  0  0  0  0
 17 16  1  0  0  0  0
 18 17  1  0  0  0  0
 19 16  2  0  0  0  0
 22 14  1  0  0  0  0
 23 14  1  0  0  0  0
M  END
$$$$
