CSD_code = TOBBIY | q = 0 | S = 0 | Stoichiometry = C13H18Cl3N3O2Zn | MND = 4
 OpenBabel04212202103D

 40 41  0  0  1  0  0  0  0  0999 V2000
    5.5292    3.7324    4.5814 Zn  0  0  0  0  0  0  0  0  0  0  0  0
    5.5417    5.3601    2.1443 C   0  0  0  0  0  3  0  0  0  0  0  0
    5.2718    5.2808    5.8849 O   0  0  0  0  0  0  0  0  0  0  0  0
    4.7583    5.0661    3.1735 N   0  0  0  0  0  0  0  0  0  0  0  0
    3.9142    2.5004    5.4287 Cl  0  0  0  0  0  0  0  0  0  0  0  0
    7.6365    3.3788    4.0598 Cl  0  0  0  0  0  0  0  0  0  0  0  0
    5.3815    3.0786    1.3576 C   0  0  0  0  0  0  0  0  0  0  0  0
    4.3404    3.1657    1.6609 H   0  0  0  0  0  0  0  0  0  0  0  0
    5.8945    2.3881    2.0322 H   0  0  0  0  0  0  0  0  0  0  0  0
    5.4295    2.6740    0.3452 H   0  0  0  0  0  0  0  0  0  0  0  0
    3.4439    5.5481    7.1242 O   0  0  0  0  0  0  0  0  0  0  0  0
    6.0094    4.3819    1.3521 N   0  0  0  0  0  0  0  0  0  0  0  0
   -0.1380    8.1038    4.4373 Cl  0  0  0  0  0  0  0  0  0  0  0  0
    6.1652    7.1344    0.5508 C   0  0  0  0  0  0  0  0  0  0  0  0
    5.9646    6.3609   -0.1849 H   0  0  0  0  0  0  0  0  0  0  0  0
    7.1984    7.4750    0.4455 H   0  0  0  0  0  0  0  0  0  0  0  0
    5.5051    7.9843    0.3533 H   0  0  0  0  0  0  0  0  0  0  0  0
    5.8785    7.6506    2.9147 C   0  0  0  0  0  0  0  0  0  0  0  0
    6.7424    8.3032    2.7780 H   0  0  0  0  0  0  0  0  0  0  0  0
    5.9517    7.1778    3.8919 H   0  0  0  0  0  0  0  0  0  0  0  0
    4.9679    8.2574    2.8769 H   0  0  0  0  0  0  0  0  0  0  0  0
    3.6847    5.8528    3.5135 C   0  0  0  0  0  0  0  0  0  0  0  0
    2.8773    6.3868    2.4931 C   0  0  0  0  0  0  0  0  0  0  0  0
    3.1718    6.2238    1.4662 H   0  0  0  0  0  0  0  0  0  0  0  0
    1.7211    7.0771    2.7674 C   0  0  0  0  0  0  0  0  0  0  0  0
    1.1191    7.4767    1.9663 H   0  0  0  0  0  0  0  0  0  0  0  0
    1.3191    7.2452    4.0893 C   0  0  0  0  0  0  0  0  0  0  0  0
    2.0796    6.7320    5.1168 C   0  0  0  0  0  0  0  0  0  0  0  0
    1.7729    6.8603    6.1419 H   0  0  0  0  0  0  0  0  0  0  0  0
    3.2702    6.0525    4.8467 C   0  0  0  0  0  0  0  0  0  0  0  0
    4.0801    5.5754    5.9720 C   0  0  1  0  0  3  0  0  0  0  0  0
    4.1514    4.9956    8.2293 C   0  0  0  0  0  0  0  0  0  0  0  0
    4.3699    3.9434    8.0329 H   0  0  0  0  0  0  0  0  0  0  0  0
    3.4917    5.0948    9.0871 H   0  0  0  0  0  0  0  0  0  0  0  0
    5.0875    5.5327    8.3926 H   0  0  0  0  0  0  0  0  0  0  0  0
    7.3694    4.3692    0.8520 C   0  0  0  0  0  0  0  0  0  0  0  0
    7.3778    4.2033   -0.2270 H   0  0  0  0  0  0  0  0  0  0  0  0
    7.9146    3.5630    1.3482 H   0  0  0  0  0  0  0  0  0  0  0  0
    7.8738    5.2992    1.0889 H   0  0  0  0  0  0  0  0  0  0  0  0
    5.9017    6.6417    1.8823 N   0  0  0  0  0  0  0  0  0  0  0  0
  1  5  1  0  0  0  0
  1  3  1  0  0  0  0
  2  4  1  0  0  0  0
  3 31  1  0  0  0  0
  4 22  1  0  0  0  0
  4  1  1  0  0  0  0
  6  1  1  0  0  0  0
  7  8  1  0  0  0  0
  7  9  1  0  0  0  0
 10  7  1  0  0  0  0
 11 32  1  0  0  0  0
 12  7  1  0  0  0  0
 12  2  1  0  0  0  0
 14 40  1  0  0  0  0
 15 14  1  0  0  0  0
 16 14  1  0  0  0  0
 17 14  1  0  0  0  0
 18 20  1  0  0  0  0
 19 18  1  0  0  0  0
 21 18  1  0  0  0  0
 22 30  1  0  0  0  0
 23 25  1  0  0  0  0
 23 22  2  0  0  0  0
 24 23  1  0  0  0  0
 25 27  2  0  0  0  0
 26 25  1  0  0  0  0
 27 13  1  0  0  0  0
 27 28  1  0  0  0  0
 28 29  1  0  0  0  0
 30 28  2  0  0  0  0
 30 31  1  0  0  0  0
 31 11  1  1  0  0  0
 32 35  1  0  0  0  0
 32 34  1  0  0  0  0
 33 32  1  0  0  0  0
 36 39  1  0  0  0  0
 36 38  1  0  0  0  0
 36 12  1  0  0  0  0
 37 36  1  0  0  0  0
 40  2  1  0  0  0  0
 40 18  1  0  0  0  0
M  END
$$$$
