CSD_code = TOBBEU | q = 0 | S = 0 | Stoichiometry = C15H24Cl2N4O2Zn | MND = 4
 OpenBabel04212202103D

 48 49  0  0  1  0  0  0  0  0999 V2000
    0.0953    1.8671    6.3190 Zn  0  0  0  0  0  0  0  0  0  0  0  0
   -1.3361    0.9629    7.4127 O   0  0  0  0  0  0  0  0  0  0  0  0
   -1.4775    4.2565    5.6815 C   0  0  0  0  0  3  0  0  0  0  0  0
   -0.9578    3.6148    6.7091 N   0  0  0  0  0  0  0  0  0  0  0  0
   -0.0993    1.4253    4.1665 Cl  0  0  0  0  0  0  0  0  0  0  0  0
    1.7594    1.6112    7.7351 Cl  0  0  0  0  0  0  0  0  0  0  0  0
   -1.3427    0.5445    9.5983 O   0  0  0  0  0  0  0  0  0  0  0  0
   -3.7698    3.7267    6.3347 C   0  0  0  0  0  0  0  0  0  0  0  0
   -4.6583    3.6044    5.7124 H   0  0  0  0  0  0  0  0  0  0  0  0
   -4.0622    4.1915    7.2824 H   0  0  0  0  0  0  0  0  0  0  0  0
   -3.3486    2.7443    6.5367 H   0  0  0  0  0  0  0  0  0  0  0  0
   -0.6961    4.6646    4.6633 N   0  0  0  0  0  0  0  0  0  0  0  0
   -3.3431    5.7071    4.9788 C   0  0  0  0  0  0  0  0  0  0  0  0
   -2.5343    6.3386    4.6217 H   0  0  0  0  0  0  0  0  0  0  0  0
   -3.9301    6.2688    5.7129 H   0  0  0  0  0  0  0  0  0  0  0  0
   -3.9998    5.4548    4.1418 H   0  0  0  0  0  0  0  0  0  0  0  0
   -2.1969    6.7598   10.0935 N   0  0  0  0  0  0  0  0  0  0  0  0
   -1.1022    4.5246    3.2791 C   0  0  0  0  0  0  0  0  0  0  0  0
   -0.9152    5.4527    2.7352 H   0  0  0  0  0  0  0  0  0  0  0  0
   -2.1525    4.2627    3.2130 H   0  0  0  0  0  0  0  0  0  0  0  0
   -0.5273    3.7131    2.8258 H   0  0  0  0  0  0  0  0  0  0  0  0
   -1.4153    3.8216    7.9977 C   0  0  0  0  0  0  0  0  0  0  0  0
   -1.5504    2.7771    8.9388 C   0  0  0  0  0  0  0  0  0  0  0  0
   -1.8588    3.1172   10.2638 C   0  0  0  0  0  0  0  0  0  0  0  0
   -1.9400    2.3200   10.9851 H   0  0  0  0  0  0  0  0  0  0  0  0
   -2.0713    4.4102   10.6556 C   0  0  0  0  0  0  0  0  0  0  0  0
   -2.3077    4.6081   11.6867 H   0  0  0  0  0  0  0  0  0  0  0  0
   -1.9676    5.4672    9.7261 C   0  0  0  0  0  0  0  0  0  0  0  0
   -1.6304    5.1343    8.4109 C   0  0  0  0  0  0  0  0  0  0  0  0
   -1.4849    5.9056    7.6714 H   0  0  0  0  0  0  0  0  0  0  0  0
   -1.3850    1.3875    8.5729 C   0  0  2  0  0  3  0  0  0  0  0  0
   -1.9814    7.8329    9.1539 C   0  0  0  0  0  0  0  0  0  0  0  0
   -0.9428    7.8653    8.8087 H   0  0  0  0  0  0  0  0  0  0  0  0
   -2.2129    8.7833    9.6279 H   0  0  0  0  0  0  0  0  0  0  0  0
   -2.6352    7.7218    8.2847 H   0  0  0  0  0  0  0  0  0  0  0  0
   -1.0771   -0.8150    9.2796 C   0  0  0  0  0  0  0  0  0  0  0  0
   -1.8520   -1.2135    8.6214 H   0  0  0  0  0  0  0  0  0  0  0  0
   -1.0647   -1.3476   10.2271 H   0  0  0  0  0  0  0  0  0  0  0  0
   -0.1092   -0.8972    8.7801 H   0  0  0  0  0  0  0  0  0  0  0  0
   -2.4269    7.0940   11.4790 C   0  0  0  0  0  0  0  0  0  0  0  0
   -2.5842    8.1656   11.5723 H   0  0  0  0  0  0  0  0  0  0  0  0
   -1.5753    6.8161   12.1081 H   0  0  0  0  0  0  0  0  0  0  0  0
   -3.3200    6.5886   11.8545 H   0  0  0  0  0  0  0  0  0  0  0  0
    0.7376    4.7481    4.8386 C   0  0  0  0  0  0  0  0  0  0  0  0
    1.2398    3.8425    4.4895 H   0  0  0  0  0  0  0  0  0  0  0  0
    0.9755    4.9044    5.8885 H   0  0  0  0  0  0  0  0  0  0  0  0
    1.1021    5.5951    4.2542 H   0  0  0  0  0  0  0  0  0  0  0  0
   -2.8105    4.5240    5.6096 N   0  0  0  0  0  0  0  0  0  0  0  0
  1  4  1  0  0  0  0
  1  2  1  0  0  0  0
  1  6  1  0  0  0  0
  2 31  1  0  0  0  0
  3  4  1  0  0  0  0
  4 22  1  0  0  0  0
  5  1  1  0  0  0  0
  8 11  1  0  0  0  0
  8 10  1  0  0  0  0
  9  8  1  0  0  0  0
 12 44  1  0  0  0  0
 12  3  1  0  0  0  0
 13 48  1  0  0  0  0
 13 15  1  0  0  0  0
 14 13  1  0  0  0  0
 16 13  1  0  0  0  0
 17 40  1  0  0  0  0
 18 12  1  0  0  0  0
 19 18  1  0  0  0  0
 20 18  1  0  0  0  0
 21 18  1  0  0  0  0
 22 29  2  0  0  0  0
 22 23  1  0  0  0  0
 23 24  2  0  0  0  0
 24 26  1  0  0  0  0
 24 25  1  0  0  0  0
 26 27  1  0  0  0  0
 28 17  1  0  0  0  0
 28 26  2  0  0  0  0
 29 28  1  0  0  0  0
 30 29  1  0  0  0  0
 31 23  1  0  0  0  0
 31  7  1  1  0  0  0
 32 34  1  0  0  0  0
 32 17  1  0  0  0  0
 33 32  1  0  0  0  0
 35 32  1  0  0  0  0
 36  7  1  0  0  0  0
 36 38  1  0  0  0  0
 37 36  1  0  0  0  0
 39 36  1  0  0  0  0
 40 41  1  0  0  0  0
 40 43  1  0  0  0  0
 40 42  1  0  0  0  0
 44 46  1  0  0  0  0
 45 44  1  0  0  0  0
 47 44  1  0  0  0  0
 48  3  1  0  0  0  0
 48  8  1  0  0  0  0
M  END
$$$$
