CSD_code = TOCFOI | q = 0 | S = 0 | Stoichiometry = C22H16AuCl2P | MND = 4
 OpenBabel04212202103D

 42 46  0  0  0  0  0  0  0  0999 V2000
   -0.3530    8.3092    9.1317 C   0  0  0  0  0  0  0  0  0  0  0  0
   -0.7607    7.0965    9.6063 C   0  0  0  0  0  0  0  0  0  0  0  0
   -1.3864    7.0418   10.4828 H   0  0  0  0  0  0  0  0  0  0  0  0
   -0.3700    5.9091    8.9598 C   0  0  0  0  0  0  0  0  0  0  0  0
   -0.7093    4.9660    9.3608 H   0  0  0  0  0  0  0  0  0  0  0  0
    0.4217    5.9472    7.8484 C   0  0  0  0  0  0  0  0  0  0  0  0
    0.7229    5.0369    7.3509 H   0  0  0  0  0  0  0  0  0  0  0  0
    0.8632    7.1816    7.3277 C   0  0  0  0  0  0  0  0  0  0  0  0
    1.6852    7.2719    6.1856 C   0  0  0  0  0  0  0  0  0  0  0  0
    1.9828    6.3565    5.6951 H   0  0  0  0  0  0  0  0  0  0  0  0
    2.1040    8.4823    5.7015 C   0  0  0  0  0  0  0  0  0  0  0  0
    2.7346    8.5322    4.8265 H   0  0  0  0  0  0  0  0  0  0  0  0
    1.7179    9.6680    6.3372 C   0  0  0  0  0  0  0  0  0  0  0  0
    2.0524   10.6222    5.9541 H   0  0  0  0  0  0  0  0  0  0  0  0
    0.9185    9.6132    7.4532 C   0  0  0  0  0  0  0  0  0  0  0  0
    0.4666    8.3812    7.9805 C   0  0  0  0  0  0  0  0  0  0  0  0
    1.8055   12.0012    8.7776 C   0  0  0  0  0  0  0  0  0  0  0  0
    1.7899   13.3915    8.8615 C   0  0  0  0  0  0  0  0  0  0  0  0
    0.8817   13.9318    8.6361 H   0  0  0  0  0  0  0  0  0  0  0  0
    2.9344   14.0574    9.2569 C   0  0  0  0  0  0  0  0  0  0  0  0
    2.9306   15.1351    9.3221 H   0  0  0  0  0  0  0  0  0  0  0  0
    4.0798   13.3463    9.5815 C   0  0  0  0  0  0  0  0  0  0  0  0
    4.9683   13.8731    9.8962 H   0  0  0  0  0  0  0  0  0  0  0  0
    4.0868   11.9618    9.5154 C   0  0  0  0  0  0  0  0  0  0  0  0
    4.9764   11.4105    9.7810 H   0  0  0  0  0  0  0  0  0  0  0  0
    2.9504   11.2831    9.1163 C   0  0  0  0  0  0  0  0  0  0  0  0
    2.9404   10.2016    9.0670 H   0  0  0  0  0  0  0  0  0  0  0  0
   -0.6041   11.9934    7.1063 C   0  0  0  0  0  0  0  0  0  0  0  0
    0.0440   12.8030    6.1777 C   0  0  0  0  0  0  0  0  0  0  0  0
    1.1154   12.9410    6.2301 H   0  0  0  0  0  0  0  0  0  0  0  0
   -0.6978   13.4406    5.2001 C   0  0  0  0  0  0  0  0  0  0  0  0
   -0.2021   14.0771    4.4821 H   0  0  0  0  0  0  0  0  0  0  0  0
   -2.0718   13.2686    5.1435 C   0  0  0  0  0  0  0  0  0  0  0  0
   -2.6453   13.7747    4.3815 H   0  0  0  0  0  0  0  0  0  0  0  0
   -2.7130   12.4534    6.0630 C   0  0  0  0  0  0  0  0  0  0  0  0
   -3.7836   12.3223    6.0181 H   0  0  0  0  0  0  0  0  0  0  0  0
   -1.9816   11.8103    7.0437 C   0  0  0  0  0  0  0  0  0  0  0  0
   -2.4701   11.1806    7.7768 H   0  0  0  0  0  0  0  0  0  0  0  0
    0.3240   11.0833    8.3496 P   0  0  0  0  0  4  0  0  0  0  0  0
   -0.9652   12.4553   10.2230 Cl  0  0  0  0  0  0  0  0  0  0  0  0
   -2.1127    9.2099   11.6621 Cl  0  0  0  0  0  0  0  0  0  0  0  0
   -0.8525   10.0761    9.9630 Au  0  0  0  0  0  0  0  0  0  0  0  0
  1  2  1  0  0  0  0
  1 42  1  0  0  0  0
  2  3  1  0  0  0  0
  4  5  1  0  0  0  0
  4  2  2  0  0  0  0
  6  4  1  0  0  0  0
  7  6  1  0  0  0  0
  8  6  2  0  0  0  0
  8 16  1  0  0  0  0
  9  8  1  0  0  0  0
 10  9  1  0  0  0  0
 11  9  2  0  0  0  0
 11 13  1  0  0  0  0
 12 11  1  0  0  0  0
 13 15  2  0  0  0  0
 14 13  1  0  0  0  0
 15 16  1  0  0  0  0
 15 39  1  0  0  0  0
 16  1  2  0  0  0  0
 17 18  2  0  0  0  0
 17 26  1  0  0  0  0
 18 20  1  0  0  0  0
 19 18  1  0  0  0  0
 20 21  1  0  0  0  0
 20 22  2  0  0  0  0
 22 23  1  0  0  0  0
 24 22  1  0  0  0  0
 24 25  1  0  0  0  0
 26 24  2  0  0  0  0
 27 26  1  0  0  0  0
 28 39  1  0  0  0  0
 29 30  1  0  0  0  0
 29 28  2  0  0  0  0
 31 29  1  0  0  0  0
 32 31  1  0  0  0  0
 33 31  2  0  0  0  0
 33 35  1  0  0  0  0
 34 33  1  0  0  0  0
 35 37  2  0  0  0  0
 36 35  1  0  0  0  0
 37 28  1  0  0  0  0
 37 38  1  0  0  0  0
 39 17  1  0  0  0  0
 39 42  1  0  0  0  0
 42 40  1  0  0  0  0
 42 41  1  0  0  0  0
M  END
$$$$
