CSD_code = TOCHAU | q = 0 | S = 0 | Stoichiometry = C16H13ClN2OPd | MND = 4
 OpenBabel04212202103D

 34 37  0  0  1  0  0  0  0  0999 V2000
    1.6247    5.2105    5.3182 Pd  0  0  1  0  0  0  0  0  0  0  0  0
    3.2895    9.2576    4.8481 C   0  0  0  0  0  0  0  0  0  0  0  0
    1.9118    7.7315    6.6437 C   0  0  0  0  0  0  0  0  0  0  0  0
    2.2837    9.0237    6.9996 C   0  0  0  0  0  0  0  0  0  0  0  0
    2.1978    7.2324    5.4346 N   0  0  0  0  0  0  0  0  0  0  0  0
    0.0330    7.2820    8.2083 C   0  0  0  0  0  0  0  0  0  0  0  0
    2.8703    5.1565    7.3099 N   0  0  2  0  0  0  0  0  0  0  0  0
    1.0047    4.7311    8.8164 C   0  0  0  0  0  0  0  0  0  0  0  0
    2.7302    3.0897    8.5145 C   0  0  0  0  0  0  0  0  0  0  0  0
    1.5556    3.4650    9.1080 C   0  0  0  0  0  0  0  0  0  0  0  0
    3.3545    3.9761    7.6215 C   0  0  0  0  0  3  0  0  0  0  0  0
   -0.1870    5.2056    9.4022 C   0  0  0  0  0  0  0  0  0  0  0  0
    2.8740    7.9675    4.5622 C   0  0  0  0  0  0  0  0  0  0  0  0
    1.1829    6.8528    7.5859 C   0  0  0  0  0  0  0  0  0  0  0  0
    2.9820    9.7977    6.0877 C   0  0  0  0  0  0  0  0  0  0  0  0
   -0.6579    6.4540    9.1045 C   0  0  0  0  0  0  0  0  0  0  0  0
    0.9235    3.0786    5.4955 Cl  0  0  0  0  0  0  0  0  0  0  0  0
    1.2720    5.2162    3.4130 C   0  0  0  0  0  0  0  0  0  0  0  0
    2.1923    5.5293    2.7078 O   0  0  0  0  0  0  0  0  0  0  0  0
   -0.1055    4.8456    2.9501 C   0  0  0  0  0  0  0  0  0  0  0  0
    1.6970    5.5496    7.8811 C   0  0  1  0  0  3  0  0  0  0  0  0
    3.1749    2.1269    8.7089 H   0  0  0  0  0  0  0  0  0  0  0  0
    4.2924    3.7095    7.1469 H   0  0  0  0  0  0  0  0  0  0  0  0
    3.0816    7.5023    3.6058 H   0  0  0  0  0  0  0  0  0  0  0  0
    2.0387    9.4009    7.9805 H   0  0  0  0  0  0  0  0  0  0  0  0
    3.2850   10.8021    6.3428 H   0  0  0  0  0  0  0  0  0  0  0  0
    3.8394    9.8246    4.1144 H   0  0  0  0  0  0  0  0  0  0  0  0
   -0.3582    8.2639    7.9824 H   0  0  0  0  0  0  0  0  0  0  0  0
   -1.5705    6.8150    9.5542 H   0  0  0  0  0  0  0  0  0  0  0  0
    1.0377    2.8116    9.7948 H   0  0  0  0  0  0  0  0  0  0  0  0
   -0.2054    3.7636    3.0631 H   0  0  0  0  0  0  0  0  0  0  0  0
   -0.7168    4.5621   10.0889 H   0  0  0  0  0  0  0  0  0  0  0  0
   -0.8608    5.3137    3.5872 H   0  0  0  0  0  0  0  0  0  0  0  0
   -0.2483    5.1248    1.9057 H   0  0  0  0  0  0  0  0  0  0  0  0
  1  5  1  0  0  0  0
  1 17  1  1  0  0  0
  1  7  1  0  0  0  0
  2 15  1  0  0  0  0
  3  4  1  0  0  0  0
  3 14  2  0  0  0  0
  4 25  1  0  0  0  0
  5  3  1  0  0  0  0
  6 16  2  0  0  0  0
  7 11  1  1  0  0  0
  7 21  1  0  0  0  0
  8 10  1  0  0  0  0
  8 12  2  0  0  0  0
  9 22  1  0  0  0  0
  9 10  2  0  0  0  0
 10 30  1  0  0  0  0
 11  9  1  0  0  0  0
 12 32  1  0  0  0  0
 13  2  2  0  0  0  0
 13  5  1  0  0  0  0
 14  6  1  0  0  0  0
 15 26  1  0  0  0  0
 15  4  2  0  0  0  0
 16 12  1  0  0  0  0
 16 29  1  0  0  0  0
 18  1  1  0  0  0  0
 19 18  2  0  0  0  0
 20 31  1  0  0  0  0
 20 18  1  0  0  0  0
 20 33  1  0  0  0  0
 21 14  1  1  0  0  0
 21  8  1  0  0  0  0
 23 11  1  0  0  0  0
 24 13  1  0  0  0  0
 27  2  1  0  0  0  0
 28  6  1  0  0  0  0
 34 20  1  0  0  0  0
M  END
$$$$
