CSD_code = TOCQUZ | q = 0 | S = 0 | Stoichiometry = C14H12Cl2N4PdS2 | MND = 4
 OpenBabel04212202103D

 35 38  0  0  1  0  0  0  0  0999 V2000
   -0.2305    5.7088   15.2585 Pd  0  0  0  0  0  0  0  0  0  0  0  0
    0.1201    3.8381   19.3146 S   0  0  0  0  0  0  0  0  0  0  0  0
    0.7447    8.4456   11.8503 S   0  0  0  0  0  0  0  0  0  0  0  0
    1.3379    4.2395   14.4487 Cl  0  0  0  0  0  0  0  0  0  0  0  0
   -1.4718    7.3793   16.2251 Cl  0  0  0  0  0  0  0  0  0  0  0  0
   -0.3597    4.6612   16.9226 N   0  0  0  0  0  0  0  0  0  0  0  0
   -0.1145    6.7529   13.5902 N   0  0  0  0  0  0  0  0  0  0  0  0
    0.9247    6.1703   18.1264 N   0  0  0  0  0  0  0  0  0  0  0  0
    2.0827    7.3777   13.9885 N   0  0  0  0  0  0  0  0  0  0  0  0
    0.2407    5.0156   18.0193 C   0  0  2  0  0  3  0  0  0  0  0  0
   -0.8227    2.8101   18.2515 C   0  0  0  0  0  0  0  0  0  0  0  0
   -0.9716    3.4423   17.0072 C   0  0  0  0  0  0  0  0  0  0  0  0
   -1.6987    2.8388   15.9866 C   0  0  0  0  0  0  0  0  0  0  0  0
   -2.2574    1.6006   16.2291 C   0  0  0  0  0  0  0  0  0  0  0  0
   -2.0998    0.9752   17.4639 C   0  0  0  0  0  0  0  0  0  0  0  0
   -1.3837    1.5691   18.4887 C   0  0  0  0  0  0  0  0  0  0  0  0
    0.9465    7.4310   13.2680 C   0  0  2  0  0  3  0  0  0  0  0  0
   -1.1713    6.9653   12.7502 C   0  0  0  0  0  0  0  0  0  0  0  0
   -0.9090    7.8776   11.7163 C   0  0  0  0  0  0  0  0  0  0  0  0
   -1.8822    8.1983   10.7885 C   0  0  0  0  0  0  0  0  0  0  0  0
   -3.1182    7.5871   10.9083 C   0  0  0  0  0  0  0  0  0  0  0  0
   -3.3825    6.6748   11.9274 C   0  0  0  0  0  0  0  0  0  0  0  0
   -2.4151    6.3521   12.8569 C   0  0  0  0  0  0  0  0  0  0  0  0
   -1.7941    3.3556   15.0297 H   0  0  0  0  0  0  0  0  0  0  0  0
   -2.8233    1.1068   15.4543 H   0  0  0  0  0  0  0  0  0  0  0  0
   -2.5456    0.0064   17.6277 H   0  0  0  0  0  0  0  0  0  0  0  0
   -1.2655    1.0835   19.4442 H   0  0  0  0  0  0  0  0  0  0  0  0
   -1.6798    8.9023    9.9973 H   0  0  0  0  0  0  0  0  0  0  0  0
   -3.8925    7.8238   10.1951 H   0  0  0  0  0  0  0  0  0  0  0  0
   -4.3582    6.2178   11.9885 H   0  0  0  0  0  0  0  0  0  0  0  0
   -2.5885    5.6490   13.6734 H   0  0  0  0  0  0  0  0  0  0  0  0
    1.1997    6.4831   19.0431 H   0  0  0  0  0  0  0  0  0  0  0  0
    0.6389    6.8903   17.4525 H   0  0  0  0  0  0  0  0  0  0  0  0
    2.9209    7.7687   13.5903 H   0  0  0  0  0  0  0  0  0  0  0  0
    2.1853    6.5175   14.5411 H   0  0  0  0  0  0  0  0  0  0  0  0
  1  5  1  0  0  0  0
  1  6  1  0  0  0  0
  3 17  1  0  0  0  0
  4  1  1  0  0  0  0
  6 12  1  0  0  0  0
  6 10  1  0  0  0  0
  7  1  1  0  0  0  0
  8 32  1  0  0  0  0
  9 35  1  0  0  0  0
 10  8  1  6  0  0  0
 10  2  1  0  0  0  0
 11 16  1  0  0  0  0
 11  2  1  0  0  0  0
 12 11  2  0  0  0  0
 13 14  2  0  0  0  0
 13 12  1  0  0  0  0
 14 15  1  0  0  0  0
 15 26  1  0  0  0  0
 15 16  2  0  0  0  0
 16 27  1  0  0  0  0
 17  7  1  0  0  0  0
 17  9  1  1  0  0  0
 18 23  1  0  0  0  0
 18  7  1  0  0  0  0
 19  3  1  0  0  0  0
 19 18  2  0  0  0  0
 20 21  2  0  0  0  0
 20 19  1  0  0  0  0
 21 22  1  0  0  0  0
 22 30  1  0  0  0  0
 22 23  2  0  0  0  0
 23 31  1  0  0  0  0
 24 13  1  0  0  0  0
 25 14  1  0  0  0  0
 28 20  1  0  0  0  0
 29 21  1  0  0  0  0
 33  8  1  0  0  0  0
 34  9  1  0  0  0  0
M  END
$$$$
