CSD_code = TOCVUC | q = 0 | S = 0 | Stoichiometry = C21H19F5N4OW | MND = 7
 OpenBabel04212202103D

 51 51  0  0  0  0  0  0  0  0999 V2000
    3.3388    5.9782    0.3508 W   0  0  0  0  0  0  0  0  0  0  0  0
    2.4367    4.7182   -0.8370 F   0  0  0  0  0  0  0  0  0  0  0  0
    7.1764    6.9845   -0.2474 F   0  0  0  0  0  0  0  0  0  0  0  0
    9.6494    6.7550    0.8858 F   0  0  0  0  0  0  0  0  0  0  0  0
    7.6730    6.8701    5.1804 F   0  0  0  0  0  0  0  0  0  0  0  0
    5.2096    7.0933    4.0340 F   0  0  0  0  0  0  0  0  0  0  0  0
    6.0018    4.3511    0.3634 O   0  0  0  0  0  1  0  0  0  0  0  0
    3.8137    7.7252    1.2433 N   0  0  0  0  0  2  0  0  0  0  0  0
    1.2922    6.8595    0.2737 N   0  0  0  0  0  0  0  0  0  0  0  0
    3.4374    7.1437   -1.7836 N   0  0  0  0  0  0  0  0  0  0  0  0
   11.0248    6.6055    4.1259 N   0  0  0  0  0  0  0  0  0  0  0  0
    4.9731    4.8839    0.3031 C   0  0  0  0  0  2  0  0  0  0  0  0
    4.8467    7.0361    1.2876 C   0  0  0  0  0  2  0  0  0  0  0  0
    6.1528    7.0547    1.8728 C   0  0  0  0  0  0  0  0  0  0  0  0
    7.3141    6.9433    1.0914 C   0  0  0  0  0  0  0  0  0  0  0  0
    8.5642    6.8283    1.6616 C   0  0  0  0  0  0  0  0  0  0  0  0
    8.7106    6.7998    3.0568 C   0  0  0  0  0  0  0  0  0  0  0  0
    7.5546    6.8924    3.8491 C   0  0  0  0  0  0  0  0  0  0  0  0
    6.3086    7.0205    3.2703 C   0  0  0  0  0  0  0  0  0  0  0  0
    2.4213    5.0625    2.0604 C   0  0  0  0  0  3  0  0  0  0  0  0
    2.9737    4.5238    3.2240 C   0  0  0  0  0  0  0  0  0  0  0  0
    2.1832    4.1246    4.2905 C   0  0  0  0  0  0  0  0  0  0  0  0
    0.8062    4.2489    4.2214 C   0  0  0  0  0  0  0  0  0  0  0  0
    0.2216    4.7853    3.0862 C   0  0  0  0  0  0  0  0  0  0  0  0
    1.0193    5.1898    2.0275 C   0  0  0  0  0  0  0  0  0  0  0  0
    0.4198    5.7724    0.7675 C   0  0  0  0  0  0  0  0  0  0  0  0
    1.0243    7.1861   -1.1312 C   0  0  0  0  0  0  0  0  0  0  0  0
    2.2002    7.9436   -1.7578 C   0  0  0  0  0  0  0  0  0  0  0  0
    3.4594    6.2581   -2.9512 C   0  0  0  0  0  0  0  0  0  0  0  0
    4.5953    8.0382   -1.8752 C   0  0  0  0  0  0  0  0  0  0  0  0
    1.0358    8.0259    1.1210 C   0  0  0  0  0  0  0  0  0  0  0  0
    9.9870    6.6887    3.6475 C   0  0  0  0  0  0  0  0  0  0  0  0
    4.0491    4.4047    3.2951 H   0  0  0  0  0  0  0  0  0  0  0  0
    2.6418    3.7126    5.1775 H   0  0  0  0  0  0  0  0  0  0  0  0
    0.1880    3.9331    5.0487 H   0  0  0  0  0  0  0  0  0  0  0  0
   -0.8538    4.8899    3.0282 H   0  0  0  0  0  0  0  0  0  0  0  0
    0.3587    4.9797    0.0111 H   0  0  0  0  0  0  0  0  0  0  0  0
   -0.6006    6.1445    0.9463 H   0  0  0  0  0  0  0  0  0  0  0  0
    0.1159    7.8015   -1.2273 H   0  0  0  0  0  0  0  0  0  0  0  0
    0.8561    6.2570   -1.6850 H   0  0  0  0  0  0  0  0  0  0  0  0
    1.9246    8.2573   -2.7764 H   0  0  0  0  0  0  0  0  0  0  0  0
    2.3932    8.8463   -1.1714 H   0  0  0  0  0  0  0  0  0  0  0  0
    2.5803    5.6159   -2.9700 H   0  0  0  0  0  0  0  0  0  0  0  0
    3.4907    6.8388   -3.8834 H   0  0  0  0  0  0  0  0  0  0  0  0
    4.3420    5.6196   -2.8982 H   0  0  0  0  0  0  0  0  0  0  0  0
    5.5086    7.4470   -1.9273 H   0  0  0  0  0  0  0  0  0  0  0  0
    4.5355    8.6666   -2.7746 H   0  0  0  0  0  0  0  0  0  0  0  0
    4.6474    8.6850   -0.9972 H   0  0  0  0  0  0  0  0  0  0  0  0
    1.6807    8.8593    0.8527 H   0  0  0  0  0  0  0  0  0  0  0  0
   -0.0120    8.3452    1.0343 H   0  0  0  0  0  0  0  0  0  0  0  0
    1.2400    7.7670    2.1603 H   0  0  0  0  0  0  0  0  0  0  0  0
  1  8  1  0  0  0  0
  2  1  1  0  0  0  0
  3 15  1  0  0  0  0
  4 16  1  0  0  0  0
  8 13  1  0  0  0  0
  9 26  1  0  0  0  0
  9 31  1  0  0  0  0
 10 28  1  0  0  0  0
 12  1  1  0  0  0  0
 12  7  1  0  0  0  0
 13 14  1  0  0  0  0
 14 19  1  0  0  0  0
 15 16  1  0  0  0  0
 15 14  2  0  0  0  0
 16 17  2  0  0  0  0
 17 32  1  0  0  0  0
 17 18  1  0  0  0  0
 18  5  1  0  0  0  0
 19 18  2  0  0  0  0
 19  6  1  0  0  0  0
 20 21  1  0  0  0  0
 21 33  1  0  0  0  0
 21 22  2  0  0  0  0
 22 34  1  0  0  0  0
 23 22  1  0  0  0  0
 23 35  1  0  0  0  0
 24 23  2  0  0  0  0
 25 20  2  0  0  0  0
 25 24  1  0  0  0  0
 26 38  1  0  0  0  0
 26 25  1  0  0  0  0
 27  9  1  0  0  0  0
 28 42  1  0  0  0  0
 28 27  1  0  0  0  0
 29 45  1  0  0  0  0
 29 10  1  0  0  0  0
 30 10  1  0  0  0  0
 30 48  1  0  0  0  0
 31 51  1  0  0  0  0
 32 11  3  0  0  0  0
 36 24  1  0  0  0  0
 37 26  1  0  0  0  0
 39 27  1  0  0  0  0
 40 27  1  0  0  0  0
 41 28  1  0  0  0  0
 43 29  1  0  0  0  0
 44 29  1  0  0  0  0
 46 30  1  0  0  0  0
 47 30  1  0  0  0  0
 49 31  1  0  0  0  0
 50 31  1  0  0  0  0
M  END
$$$$
