CSD_code = TODNOS | q = 0 | S = 0 | Stoichiometry = C14H19Cl3N2OZn | MND = 4
 OpenBabel04212202103D

 40 41  0  0  0  0  0  0  0  0999 V2000
    1.8256    5.5113    8.0625 C   0  0  0  0  0  0  0  0  0  0  0  0
    1.7682    5.2276    9.4264 C   0  0  0  0  0  0  0  0  0  0  0  0
    2.4545    5.7280   10.0943 H   0  0  0  0  0  0  0  0  0  0  0  0
    0.8861    4.2884    9.9316 C   0  0  0  0  0  0  0  0  0  0  0  0
   -0.0685    3.6512    9.0611 C   0  0  0  0  0  0  0  0  0  0  0  0
    0.0959    3.8856    7.6442 C   0  0  0  0  0  0  0  0  0  0  0  0
    1.0342    4.8218    7.1779 C   0  0  0  0  0  0  0  0  0  0  0  0
    1.1312    4.9896    6.1159 H   0  0  0  0  0  0  0  0  0  0  0  0
    0.9850    3.9552   11.3321 C   0  0  0  0  0  3  0  0  0  0  0  0
    1.5538    4.6679   11.9422 H   0  0  0  0  0  0  0  0  0  0  0  0
    0.7266    2.6586   13.2719 C   0  0  0  0  0  0  0  0  0  0  0  0
   -0.2608    2.5495   13.7307 H   0  0  0  0  0  0  0  0  0  0  0  0
    1.2570    3.4979   13.7441 H   0  0  0  0  0  0  0  0  0  0  0  0
    1.5078    1.3580   13.4799 C   0  0  0  0  0  0  0  0  0  0  0  0
    0.9679    0.5420   12.9908 H   0  0  0  0  0  0  0  0  0  0  0  0
    1.5385    1.1472   14.5503 H   0  0  0  0  0  0  0  0  0  0  0  0
    2.9238    1.4431   12.9245 C   0  0  0  0  0  0  0  0  0  0  0  0
    2.9059    1.6034   11.8483 H   0  0  0  0  0  0  0  0  0  0  0  0
    3.4574    0.5163   13.1181 H   0  0  0  0  0  0  0  0  0  0  0  0
    3.4731    2.2596   13.3904 H   0  0  0  0  0  0  0  0  0  0  0  0
   -0.5917    3.0760    6.7145 C   0  0  0  0  0  0  0  0  0  0  0  0
   -0.3344    3.1734    5.6630 H   0  0  0  0  0  0  0  0  0  0  0  0
   -2.0662    1.2157    6.1692 C   0  0  0  0  0  0  0  0  0  0  0  0
   -1.6733    1.3580    5.1586 H   0  0  0  0  0  0  0  0  0  0  0  0
   -3.1519    1.3609    6.1528 H   0  0  0  0  0  0  0  0  0  0  0  0
   -1.7538   -0.1985    6.6771 C   0  0  0  0  0  0  0  0  0  0  0  0
   -0.6918   -0.2610    6.9204 H   0  0  0  0  0  0  0  0  0  0  0  0
   -1.9636   -0.9011    5.8690 H   0  0  0  0  0  0  0  0  0  0  0  0
   -2.5769   -0.5699    7.9028 C   0  0  0  0  0  0  0  0  0  0  0  0
   -2.3338    0.0632    8.7544 H   0  0  0  0  0  0  0  0  0  0  0  0
   -2.3633   -1.5945    8.1932 H   0  0  0  0  0  0  0  0  0  0  0  0
   -3.6427   -0.4859    7.6993 H   0  0  0  0  0  0  0  0  0  0  0  0
    0.9520    0.6366    9.0910 Cl  0  0  0  0  0  0  0  0  0  0  0  0
   -2.0558    0.4050   11.6836 Cl  0  0  0  0  0  0  0  0  0  0  0  0
    2.9462    6.6965    7.4907 Cl  0  0  0  0  0  0  0  0  0  0  0  0
    0.5165    2.9052   11.8744 N   0  0  0  0  0  0  0  0  0  0  0  0
   -1.4865    2.1979    7.0390 N   0  0  0  0  0  4  0  0  0  0  0  0
   -1.0118    2.9300    9.4938 O   0  0  0  0  0  0  0  0  0  0  0  0
   -0.3910    1.4225   10.7203 Zn  0  0  0  0  0  0  0  0  0  0  0  0
   -1.6540    2.1100    8.0538 H   0  0  0  0  0  0  0  0  0  0  0  0
  1  2  1  0  0  0  0
  2  4  2  0  0  0  0
  2  3  1  0  0  0  0
  4  9  1  0  0  0  0
  5 38  1  0  0  0  0
  5  4  1  0  0  0  0
  6  5  2  0  0  0  0
  7  6  1  0  0  0  0
  7  1  2  0  0  0  0
  8  7  1  0  0  0  0
  9 36  1  0  0  0  0
  9 10  1  0  0  0  0
 11 14  1  0  0  0  0
 11 12  1  0  0  0  0
 11 13  1  0  0  0  0
 14 16  1  0  0  0  0
 15 14  1  0  0  0  0
 17 19  1  0  0  0  0
 17 20  1  0  0  0  0
 17 14  1  0  0  0  0
 18 17  1  0  0  0  0
 21 37  2  0  0  0  0
 21  6  1  0  0  0  0
 22 21  1  0  0  0  0
 23 26  1  0  0  0  0
 23 37  1  0  0  0  0
 24 23  1  0  0  0  0
 25 23  1  0  0  0  0
 26 27  1  0  0  0  0
 26 29  1  0  0  0  0
 28 26  1  0  0  0  0
 29 31  1  0  0  0  0
 29 30  1  0  0  0  0
 32 29  1  0  0  0  0
 33 39  1  0  0  0  0
 35  1  1  0  0  0  0
 36 11  1  0  0  0  0
 37 40  1  0  0  0  0
 38 39  1  0  0  0  0
 39 34  1  0  0  0  0
 39 36  1  0  0  0  0
M  END
$$$$
