CSD_code = TOFCEY | q = 1 | S = 0 | Stoichiometry = C22H25ClN5Ru(1+) | MND = 6
 OpenBabel04212202103D

 54 59  0  0  1  0  0  0  0  0999 V2000
    7.7930    9.9349   -0.9094 C   0  0  2  0  0  3  0  0  0  0  0  0
    7.1595   10.3848   -2.0540 C   0  0  0  0  0  0  0  0  0  0  0  0
    6.8081   11.4017   -2.1161 H   0  0  0  0  0  0  0  0  0  0  0  0
    6.9878    9.4986   -3.1057 C   0  0  0  0  0  0  0  0  0  0  0  0
    6.4722    9.8033   -4.0019 H   0  0  0  0  0  0  0  0  0  0  0  0
    7.5276    8.2247   -3.0117 C   0  0  0  0  0  0  0  0  0  0  0  0
    7.4457    7.5592   -3.8522 H   0  0  0  0  0  0  0  0  0  0  0  0
    8.1576    7.8382   -1.8359 C   0  0  0  0  0  0  0  0  0  0  0  0
    8.8947    6.5080   -1.6554 C   0  0  2  0  0  0  0  0  0  0  0  0
    8.8181    5.6836   -2.9426 C   0  0  0  0  0  0  0  0  0  0  0  0
    7.7812    5.4956   -3.2069 H   0  0  0  0  0  0  0  0  0  0  0  0
    9.3191    4.7274   -2.8166 H   0  0  0  0  0  0  0  0  0  0  0  0
    9.2861    6.2208   -3.7636 H   0  0  0  0  0  0  0  0  0  0  0  0
    7.8691    5.6719    1.7922 C   0  0  0  0  0  3  0  0  0  0  0  0
    7.9825    6.1615    2.7504 H   0  0  0  0  0  0  0  0  0  0  0  0
    7.2103    4.4622    1.6989 C   0  0  0  0  0  0  0  0  0  0  0  0
    6.8065    3.9976    2.5830 H   0  0  0  0  0  0  0  0  0  0  0  0
    7.0788    3.8799    0.4499 C   0  0  0  0  0  0  0  0  0  0  0  0
    6.5634    2.9414    0.3235 H   0  0  0  0  0  0  0  0  0  0  0  0
    7.6256    4.5287   -0.6453 C   0  0  0  0  0  0  0  0  0  0  0  0
    7.5288    4.0764   -1.6160 H   0  0  0  0  0  0  0  0  0  0  0  0
    8.2724    5.7471   -0.4783 C   0  0  0  0  0  0  0  0  0  0  0  0
   11.8521    7.7920    0.1877 C   0  0  0  0  0  3  0  0  0  0  0  0
   11.9752    8.3673    1.0974 H   0  0  0  0  0  0  0  0  0  0  0  0
   12.9477    7.3212   -0.5026 C   0  0  0  0  0  0  0  0  0  0  0  0
   13.9446    7.5291   -0.1508 H   0  0  0  0  0  0  0  0  0  0  0  0
   12.7255    6.5798   -1.6529 C   0  0  0  0  0  0  0  0  0  0  0  0
   13.5466    6.1961   -2.2361 H   0  0  0  0  0  0  0  0  0  0  0  0
   11.4180    6.3266   -2.0350 C   0  0  0  0  0  0  0  0  0  0  0  0
   11.2474    5.7361   -2.9171 H   0  0  0  0  0  0  0  0  0  0  0  0
   10.3570    6.8225   -1.2863 C   0  0  0  0  0  0  0  0  0  0  0  0
    8.1078   10.8026    0.2717 C   0  0  0  0  0  0  0  0  0  0  0  0
    8.1689   11.8587   -0.0211 H   0  0  0  0  0  0  0  0  0  0  0  0
    7.3071   10.6836    1.0125 H   0  0  0  0  0  0  0  0  0  0  0  0
    9.4834   10.9420    2.2284 C   0  0  0  0  0  0  0  0  0  0  0  0
   10.4375   10.6633    2.6753 H   0  0  0  0  0  0  0  0  0  0  0  0
    8.6733   10.5673    2.8548 H   0  0  0  0  0  0  0  0  0  0  0  0
    9.4250   12.0346    2.1774 H   0  0  0  0  0  0  0  0  0  0  0  0
   10.4867   10.8252    0.0696 C   0  0  0  0  0  0  0  0  0  0  0  0
   10.4668   11.9187   -0.0121 H   0  0  0  0  0  0  0  0  0  0  0  0
   10.4290   10.4033   -0.9354 H   0  0  0  0  0  0  0  0  0  0  0  0
   11.4364   10.5375    0.5174 H   0  0  0  0  0  0  0  0  0  0  0  0
   10.1049    7.7765    3.7469 C   0  0  0  0  0  2  0  0  0  0  0  0
   10.3959    7.6910    5.1434 C   0  0  0  0  0  0  0  0  0  0  0  0
    9.5687    8.1217    5.7082 H   0  0  0  0  0  0  0  0  0  0  0  0
   11.3085    8.2411    5.3723 H   0  0  0  0  0  0  0  0  0  0  0  0
   10.5242    6.6490    5.4366 H   0  0  0  0  0  0  0  0  0  0  0  0
    8.2148    8.6683   -0.7928 N   0  0  0  0  0  0  0  0  0  0  0  0
    8.3784    6.3058    0.7341 N   0  0  0  0  0  0  0  0  0  0  0  0
   10.5892    7.5707   -0.1913 N   0  0  0  0  0  0  0  0  0  0  0  0
    9.3718   10.3486    0.8929 N   0  0  0  0  0  4  0  0  0  0  0  0
    9.8767    7.8422    2.6189 N   0  0  0  0  0  2  0  0  0  0  0  0
    9.0414    8.1804    0.8982 Ru  0  0  0  0  0  0  0  0  0  0  0  0
    7.0590    8.6205    2.1526 Cl  0  0  0  0  0  0  0  0  0  0  0  0
  1  2  1  6  0  0  0
  1 48  1  0  0  0  0
  1 32  1  0  0  0  0
  3  2  1  0  0  0  0
  4  6  1  0  0  0  0
  4  2  2  0  0  0  0
  5  4  1  0  0  0  0
  6  8  2  0  0  0  0
  7  6  1  0  0  0  0
  8  9  1  0  0  0  0
  8 48  1  0  0  0  0
  9 10  1  6  0  0  0
  9 31  1  0  0  0  0
  9 22  1  0  0  0  0
 10 12  1  0  0  0  0
 11 10  1  0  0  0  0
 13 10  1  0  0  0  0
 14 15  1  0  0  0  0
 16 14  1  0  0  0  0
 16 17  1  0  0  0  0
 18 16  2  0  0  0  0
 19 18  1  0  0  0  0
 20 22  2  0  0  0  0
 20 18  1  0  0  0  0
 21 20  1  0  0  0  0
 22 49  1  0  0  0  0
 23 24  1  0  0  0  0
 25 26  1  0  0  0  0
 25 23  1  0  0  0  0
 27 25  2  0  0  0  0
 28 27  1  0  0  0  0
 29 27  1  0  0  0  0
 29 31  2  0  0  0  0
 30 29  1  0  0  0  0
 31 50  1  0  0  0  0
 32 51  1  0  0  0  0
 32 34  1  0  0  0  0
 33 32  1  0  0  0  0
 35 36  1  0  0  0  0
 35 37  1  0  0  0  0
 38 35  1  0  0  0  0
 39 42  1  0  0  0  0
 39 51  1  0  0  0  0
 40 39  1  0  0  0  0
 41 39  1  0  0  0  0
 43 44  1  0  0  0  0
 44 46  1  0  0  0  0
 44 47  1  0  0  0  0
 44 45  1  0  0  0  0
 48 53  1  0  0  0  0
 49 53  1  0  0  0  0
 49 14  1  0  0  0  0
 50 23  1  0  0  0  0
 50 53  1  0  0  0  0
 51 53  1  0  0  0  0
 51 35  1  0  0  0  0
 52 43  1  0  0  0  0
 53 54  1  0  0  0  0
 53 52  1  0  0  0  0
M  END
$$$$
