CSD_code = TOFHEE | q = 0 | S = 0 | Stoichiometry = C24H25ClN4O3W | MND = 6
 OpenBabel04212202103D

 58 63  0  0  1  0  0  0  0  0999 V2000
    8.9453    7.7608   13.1235 W   0  0  0  0  0  0  0  0  0  0  0  0
    8.6129    5.6217   12.2938 Cl  0  0  0  0  0  0  0  0  0  0  0  0
    8.6633    9.0501   14.5157 O   0  0  0  0  0  0  0  0  0  0  0  0
    8.0740    8.5356   11.8956 O   0  0  0  0  0  1  0  0  0  0  0  0
   10.6075    7.8139   12.7987 O   0  0  0  0  0  1  0  0  0  0  0  0
    8.8936    6.7761   16.3011 N   0  0  1  0  0  0  0  0  0  0  0  0
    9.4330    6.5168   15.0883 N   0  0  0  0  0  0  0  0  0  0  0  0
    9.1247    6.1151   18.7043 C   0  0  0  0  0  0  0  0  0  0  0  0
    9.3915    7.0812   19.1316 H   0  0  0  0  0  0  0  0  0  0  0  0
    9.6606    5.3422   19.2474 H   0  0  0  0  0  0  0  0  0  0  0  0
    8.0553    5.9536   18.8381 H   0  0  0  0  0  0  0  0  0  0  0  0
    9.5018    6.0512   17.2701 C   0  0  1  0  0  3  0  0  0  0  0  0
   10.4664    5.2949   16.6418 C   0  0  0  0  0  0  0  0  0  0  0  0
   11.1371    4.5992   17.1018 H   0  0  0  0  0  0  0  0  0  0  0  0
   10.3929    5.6170   15.2774 C   0  0  0  0  0  0  0  0  0  0  0  0
   11.2122    5.1111   14.1533 C   0  0  0  0  0  0  0  0  0  0  0  0
   10.6821    4.3165   13.6266 H   0  0  0  0  0  0  0  0  0  0  0  0
   12.1647    4.7332   14.5153 H   0  0  0  0  0  0  0  0  0  0  0  0
   11.3713    5.9303   13.4420 H   0  0  0  0  0  0  0  0  0  0  0  0
    6.7664    7.5015   15.6140 N   0  0  2  0  0  0  0  0  0  0  0  0
    6.9487    7.1834   14.3100 N   0  0  0  0  0  0  0  0  0  0  0  0
    4.9278    7.9330   17.2602 C   0  0  0  0  0  0  0  0  0  0  0  0
    5.3526    7.2770   18.0200 H   0  0  0  0  0  0  0  0  0  0  0  0
    3.8485    7.8117   17.2649 H   0  0  0  0  0  0  0  0  0  0  0  0
    5.1608    8.9658   17.5192 H   0  0  0  0  0  0  0  0  0  0  0  0
    5.4480    7.6008   15.9104 C   0  0  2  0  0  3  0  0  0  0  0  0
    4.7654    7.3262   14.7453 C   0  0  0  0  0  0  0  0  0  0  0  0
    3.7033    7.3091   14.6136 H   0  0  0  0  0  0  0  0  0  0  0  0
    5.7399    7.0771   13.7664 C   0  0  0  0  0  0  0  0  0  0  0  0
    5.5691    6.7751   12.3271 C   0  0  0  0  0  0  0  0  0  0  0  0
    6.2592    7.4131   11.7595 H   0  0  0  0  0  0  0  0  0  0  0  0
    4.5450    6.9616   12.0161 H   0  0  0  0  0  0  0  0  0  0  0  0
    5.8353    5.7387   12.1174 H   0  0  0  0  0  0  0  0  0  0  0  0
    7.9140    7.8228   16.4244 C   0  0  2  0  0  0  0  0  0  0  0  0
    7.6073    7.9085   17.4684 H   0  0  0  0  0  0  0  0  0  0  0  0
    8.5584    9.1798   15.8737 C   0  0  0  0  0  0  0  0  0  0  0  0
    9.9487    9.3372   16.5057 C   0  0  0  0  0  0  0  0  0  0  0  0
   10.1554    9.4385   17.8756 C   0  0  0  0  0  0  0  0  0  0  0  0
    9.3229    9.4567   18.5618 H   0  0  0  0  0  0  0  0  0  0  0  0
   11.4394    9.5343   18.3838 C   0  0  0  0  0  0  0  0  0  0  0  0
   11.5857    9.6141   19.4512 H   0  0  0  0  0  0  0  0  0  0  0  0
   12.5299    9.5267   17.5317 C   0  0  0  0  0  0  0  0  0  0  0  0
   13.5296    9.5975   17.9331 H   0  0  0  0  0  0  0  0  0  0  0  0
   12.3294    9.4328   16.1653 C   0  0  0  0  0  0  0  0  0  0  0  0
   13.1713    9.4291   15.4906 H   0  0  0  0  0  0  0  0  0  0  0  0
   11.0475    9.3404   15.6517 C   0  0  0  0  0  0  0  0  0  0  0  0
   10.8897    9.2617   14.5750 H   0  0  0  0  0  0  0  0  0  0  0  0
    7.6337   10.3568   16.2025 C   0  0  0  0  0  0  0  0  0  0  0  0
    7.2986   11.2075   15.1543 C   0  0  0  0  0  0  0  0  0  0  0  0
    7.6970   10.9911   14.1698 H   0  0  0  0  0  0  0  0  0  0  0  0
    6.4662   12.2914   15.3642 C   0  0  0  0  0  0  0  0  0  0  0  0
    6.2153   12.9397   14.5385 H   0  0  0  0  0  0  0  0  0  0  0  0
    5.9574   12.5431   16.6268 C   0  0  0  0  0  0  0  0  0  0  0  0
    5.3087   13.3894   16.7957 H   0  0  0  0  0  0  0  0  0  0  0  0
    6.2835   11.7000   17.6744 C   0  0  0  0  0  0  0  0  0  0  0  0
    5.8885   11.8861   18.6628 H   0  0  0  0  0  0  0  0  0  0  0  0
    7.1131   10.6105   17.4655 C   0  0  0  0  0  0  0  0  0  0  0  0
    7.3408    9.9715   18.3063 H   0  0  0  0  0  0  0  0  0  0  0  0
  1 21  1  0  0  0  0
  1  3  1  0  0  0  0
  1  7  1  0  0  0  0
  2  1  1  0  0  0  0
  3 36  1  0  0  0  0
  4  1  1  0  0  0  0
  5  1  1  0  0  0  0
  6  7  1  1  0  0  0
  6 34  1  0  0  0  0
  6 12  1  0  0  0  0
  7 15  1  0  0  0  0
  8 11  1  0  0  0  0
  8  9  1  0  0  0  0
  8 10  1  0  0  0  0
 12  8  1  6  0  0  0
 13 14  1  0  0  0  0
 13 12  1  0  0  0  0
 15 13  2  0  0  0  0
 16 18  1  0  0  0  0
 16 15  1  0  0  0  0
 17 16  1  0  0  0  0
 19 16  1  0  0  0  0
 20 21  1  6  0  0  0
 20 26  1  0  0  0  0
 20 34  1  0  0  0  0
 22 24  1  0  0  0  0
 22 25  1  0  0  0  0
 22 23  1  0  0  0  0
 26 22  1  1  0  0  0
 27 26  1  0  0  0  0
 28 27  1  0  0  0  0
 29 21  1  0  0  0  0
 29 27  2  0  0  0  0
 30 29  1  0  0  0  0
 31 30  1  0  0  0  0
 32 30  1  0  0  0  0
 33 30  1  0  0  0  0
 34 35  1  1  0  0  0
 36 48  1  0  0  0  0
 36 34  1  0  0  0  0
 36 37  1  0  0  0  0
 37 38  1  0  0  0  0
 38 40  2  0  0  0  0
 38 39  1  0  0  0  0
 40 41  1  0  0  0  0
 42 43  1  0  0  0  0
 42 40  1  0  0  0  0
 44 42  2  0  0  0  0
 45 44  1  0  0  0  0
 46 44  1  0  0  0  0
 46 37  2  0  0  0  0
 47 46  1  0  0  0  0
 48 57  1  0  0  0  0
 49 51  1  0  0  0  0
 49 48  2  0  0  0  0
 50 49  1  0  0  0  0
 51 53  2  0  0  0  0
 52 51  1  0  0  0  0
 53 54  1  0  0  0  0
 53 55  1  0  0  0  0
 55 56  1  0  0  0  0
 57 55  2  0  0  0  0
 57 58  1  0  0  0  0
M  END
$$$$
