CSD_code = TOFRAH | q = 0 | S = 0 | Stoichiometry = C16H14ClMnN4O7 | MND = 6
 OpenBabel04212202103D

 43 46  0  0  1  0  0  0  0  0999 V2000
    6.6384    0.8415    6.2088 Mn  0  0  0  0  0  0  0  0  0  0  0  0
    5.5247    1.1031    4.3096 Cl  0  0  0  0  0  0  0  0  0  0  0  0
    7.6307   -0.4614    5.4909 O   0  0  0  0  0  0  0  0  0  0  0  0
    5.3392   -0.0468    7.0421 O   0  0  0  0  0  0  0  0  0  0  0  0
   13.4167   -2.1768    4.2339 O   0  0  0  0  0  0  0  0  0  0  0  0
   13.6715   -0.0395    4.2920 O   0  0  0  0  0  0  0  0  0  0  0  0
   -0.7632   -0.0428    7.9437 O   0  0  0  0  0  0  0  0  0  0  0  0
   -0.3813    2.0745    7.9790 O   0  0  0  0  0  0  0  0  0  0  0  0
    7.8046    0.4870    8.1588 O   0  0  0  0  0  0  0  0  0  0  0  0
    7.9796    2.1328    5.6756 N   0  0  1  0  0  0  0  0  0  0  0  0
    5.7515    2.5008    6.8557 N   0  0  1  0  0  0  0  0  0  0  0  0
   12.9899   -1.0457    4.3706 N   0  0  0  0  0  0  0  0  0  0  0  0
   -0.0243    0.9181    7.8593 N   0  0  0  0  0  0  0  0  0  0  0  0
    9.7311    0.5599    5.1360 C   0  0  0  0  0  0  0  0  0  0  0  0
    8.8750   -0.5963    5.2478 C   0  0  0  0  0  0  0  0  0  0  0  0
    9.4502   -1.8797    5.0359 C   0  0  0  0  0  0  0  0  0  0  0  0
   10.7760   -2.0222    4.7513 C   0  0  0  0  0  0  0  0  0  0  0  0
   11.5999   -0.8865    4.6499 C   0  0  0  0  0  0  0  0  0  0  0  0
   11.0777    0.3811    4.8228 C   0  0  0  0  0  0  0  0  0  0  0  0
    9.1880    1.8699    5.2857 C   0  0  0  0  0  3  0  0  0  0  0  0
    7.5306    3.5093    5.6345 C   0  0  0  0  0  0  0  0  0  0  0  0
    6.5718    3.6937    6.8125 C   0  0  0  0  0  0  0  0  0  0  0  0
    4.5011    2.6192    7.1468 C   0  0  0  0  0  3  0  0  0  0  0  0
    3.5911    1.5209    7.2655 C   0  0  0  0  0  0  0  0  0  0  0  0
    4.0790    0.1756    7.1668 C   0  0  0  0  0  0  0  0  0  0  0  0
    3.1551   -0.8891    7.2910 C   0  0  0  0  0  0  0  0  0  0  0  0
    1.8253   -0.6458    7.4974 C   0  0  0  0  0  0  0  0  0  0  0  0
    1.3643    0.6732    7.6146 C   0  0  0  0  0  0  0  0  0  0  0  0
    2.2368    1.7408    7.4998 C   0  0  0  0  0  0  0  0  0  0  0  0
    8.7981   -2.7363    5.1106 H   0  0  0  0  0  0  0  0  0  0  0  0
   11.2176   -2.9948    4.5970 H   0  0  0  0  0  0  0  0  0  0  0  0
   11.7354    1.2335    4.7333 H   0  0  0  0  0  0  0  0  0  0  0  0
    9.8465    2.6957    5.0156 H   0  0  0  0  0  0  0  0  0  0  0  0
    7.2553   -0.0107    8.7762 H   0  0  0  0  0  0  0  0  0  0  0  0
    8.5883   -0.0490    7.9917 H   0  0  0  0  0  0  0  0  0  0  0  0
    8.3650    4.2178    5.6750 H   0  0  0  0  0  0  0  0  0  0  0  0
    6.9725    3.6455    4.6983 H   0  0  0  0  0  0  0  0  0  0  0  0
    5.9691    4.6014    6.6994 H   0  0  0  0  0  0  0  0  0  0  0  0
    7.1463    3.7534    7.7455 H   0  0  0  0  0  0  0  0  0  0  0  0
    4.0874    3.6102    7.3385 H   0  0  0  0  0  0  0  0  0  0  0  0
    3.5293   -1.8963    7.1918 H   0  0  0  0  0  0  0  0  0  0  0  0
    1.1121   -1.4523    7.5766 H   0  0  0  0  0  0  0  0  0  0  0  0
    1.8484    2.7457    7.5791 H   0  0  0  0  0  0  0  0  0  0  0  0
  1 11  1  0  0  0  0
  1  4  1  0  0  0  0
  2  1  1  0  0  0  0
  3  1  1  0  0  0  0
  4 25  1  0  0  0  0
  5 12  2  0  0  0  0
  6 12  2  0  0  0  0
  9 34  1  0  0  0  0
 10 20  1  6  0  0  0
 10  1  1  0  0  0  0
 11 23  1  6  0  0  0
 12 18  1  0  0  0  0
 13  7  2  0  0  0  0
 13  8  2  0  0  0  0
 14 15  1  0  0  0  0
 14 20  1  0  0  0  0
 15  3  1  0  0  0  0
 16 30  1  0  0  0  0
 16 15  2  0  0  0  0
 17 16  1  0  0  0  0
 18 17  2  0  0  0  0
 18 19  1  0  0  0  0
 19 14  2  0  0  0  0
 21 36  1  0  0  0  0
 21 10  1  0  0  0  0
 21 22  1  0  0  0  0
 22 11  1  0  0  0  0
 22 39  1  0  0  0  0
 23 24  1  0  0  0  0
 23 40  1  0  0  0  0
 24 29  1  0  0  0  0
 25 24  2  0  0  0  0
 25 26  1  0  0  0  0
 26 27  2  0  0  0  0
 27 42  1  0  0  0  0
 27 28  1  0  0  0  0
 28 13  1  0  0  0  0
 29 43  1  0  0  0  0
 29 28  2  0  0  0  0
 31 17  1  0  0  0  0
 32 19  1  0  0  0  0
 33 20  1  0  0  0  0
 35  9  1  0  0  0  0
 37 21  1  0  0  0  0
 38 22  1  0  0  0  0
 41 26  1  0  0  0  0
M  END
$$$$
