CSD_code = TOFWES | q = 0 | S = 0 | Stoichiometry = C29H20ClN2O5Re | MND = 6
 OpenBabel04212202103D

 58 63  0  0  0  0  0  0  0  0999 V2000
    3.1114    4.4362    2.2696 Re  0  0  0  0  0  0  0  0  0  0  0  0
    2.3442    4.4801    4.5178 Cl  0  0  0  0  0  0  0  0  0  0  0  0
    4.3294    4.5835   -0.5680 O   0  0  0  0  0  1  0  0  0  0  0  0
    2.9864    1.3463    2.3470 O   0  0  0  0  0  1  0  0  0  0  0  0
    8.3017    0.1490    4.0524 O   0  0  0  0  0  0  0  0  0  0  0  0
   -0.1672   10.4460    0.8529 O   0  0  0  0  0  0  0  0  0  0  0  0
    0.1856    4.6773    1.2943 O   0  0  0  0  0  1  0  0  0  0  0  0
    3.8568    4.5097    0.4767 C   0  0  0  0  0  2  0  0  0  0  0  0
    3.3741    6.5536    2.5956 N   0  0  0  0  0  0  0  0  0  0  0  0
    3.0233    2.4865    2.2714 C   0  0  0  0  0  2  0  0  0  0  0  0
    5.0511    4.5574    3.1991 N   0  0  0  0  0  0  0  0  0  0  0  0
    5.9117    3.4740    3.4285 C   0  0  0  0  0  0  0  0  0  0  0  0
    5.4825    2.3972    4.2051 C   0  0  0  0  0  0  0  0  0  0  0  0
    4.5073    2.4337    4.6675 H   0  0  0  0  0  0  0  0  0  0  0  0
    6.3098    1.3172    4.4007 C   0  0  0  0  0  0  0  0  0  0  0  0
    5.9976    0.4840    5.0092 H   0  0  0  0  0  0  0  0  0  0  0  0
    7.5737    1.2679    3.8043 C   0  0  0  0  0  0  0  0  0  0  0  0
    7.9945    2.3363    3.0182 C   0  0  0  0  0  0  0  0  0  0  0  0
    8.9579    2.3279    2.5336 H   0  0  0  0  0  0  0  0  0  0  0  0
    7.1722    3.4351    2.8443 C   0  0  0  0  0  0  0  0  0  0  0  0
    7.4984    4.2583    2.2242 H   0  0  0  0  0  0  0  0  0  0  0  0
    9.5679    0.0172    3.4528 C   0  0  0  0  0  0  0  0  0  0  0  0
    9.4986    0.0329    2.3605 H   0  0  0  0  0  0  0  0  0  0  0  0
    9.9462   -0.9514    3.7751 H   0  0  0  0  0  0  0  0  0  0  0  0
   10.2553    0.8017    3.7860 H   0  0  0  0  0  0  0  0  0  0  0  0
    5.3631    5.7462    3.5921 C   0  0  0  0  0  0  0  0  0  0  0  0
    6.4475    6.2998    4.3934 C   0  0  0  0  0  0  0  0  0  0  0  0
    7.5505    5.7914    5.0374 C   0  0  0  0  0  0  0  0  0  0  0  0
    7.8050    4.7437    4.9910 H   0  0  0  0  0  0  0  0  0  0  0  0
    8.3577    6.6703    5.7816 C   0  0  0  0  0  0  0  0  0  0  0  0
    9.2246    6.2629    6.2811 H   0  0  0  0  0  0  0  0  0  0  0  0
    8.0843    8.0110    5.9004 C   0  0  0  0  0  0  0  0  0  0  0  0
    8.7304    8.6495    6.4850 H   0  0  0  0  0  0  0  0  0  0  0  0
    6.9466    8.5645    5.2722 C   0  0  0  0  0  0  0  0  0  0  0  0
    6.4998    9.9034    5.3302 C   0  0  0  0  0  0  0  0  0  0  0  0
    7.0728   10.6301    5.8872 H   0  0  0  0  0  0  0  0  0  0  0  0
    5.3393   10.2737    4.6959 C   0  0  0  0  0  0  0  0  0  0  0  0
    5.0064   11.2992    4.7620 H   0  0  0  0  0  0  0  0  0  0  0  0
    4.5514    9.3708    3.9599 C   0  0  0  0  0  0  0  0  0  0  0  0
    3.6415    9.7162    3.4938 H   0  0  0  0  0  0  0  0  0  0  0  0
    4.9678    8.0642    3.8620 C   0  0  0  0  0  0  0  0  0  0  0  0
    6.1599    7.6811    4.5265 C   0  0  0  0  0  0  0  0  0  0  0  0
    4.4416    6.8447    3.2604 C   0  0  0  0  0  0  0  0  0  0  0  0
    2.4764    7.5531    2.1962 C   0  0  0  0  0  0  0  0  0  0  0  0
    1.1519    7.5002    2.6162 C   0  0  0  0  0  0  0  0  0  0  0  0
    0.8440    6.7185    3.2951 H   0  0  0  0  0  0  0  0  0  0  0  0
    0.2436    8.4541    2.2010 C   0  0  0  0  0  0  0  0  0  0  0  0
   -0.7719    8.3916    2.5568 H   0  0  0  0  0  0  0  0  0  0  0  0
    0.6421    9.4678    1.3334 C   0  0  0  0  0  0  0  0  0  0  0  0
   -1.5320   10.4237    1.2000 C   0  0  0  0  0  0  0  0  0  0  0  0
   -2.0139    9.4983    0.8705 H   0  0  0  0  0  0  0  0  0  0  0  0
   -1.9807   11.2689    0.6807 H   0  0  0  0  0  0  0  0  0  0  0  0
   -1.6746   10.5456    2.2785 H   0  0  0  0  0  0  0  0  0  0  0  0
    1.9716    9.5127    0.9044 C   0  0  0  0  0  0  0  0  0  0  0  0
    2.2653   10.2972    0.2253 H   0  0  0  0  0  0  0  0  0  0  0  0
    2.8814    8.5752    1.3371 C   0  0  0  0  0  0  0  0  0  0  0  0
    3.9041    8.6065    0.9891 H   0  0  0  0  0  0  0  0  0  0  0  0
    1.2764    4.5648    1.6204 C   0  0  0  0  0  2  0  0  0  0  0  0
  1 10  1  0  0  0  0
  1  9  1  0  0  0  0
  1 11  1  0  0  0  0
  1  2  1  0  0  0  0
  3  8  1  0  0  0  0
  6 50  1  0  0  0  0
  6 49  1  0  0  0  0
  7 58  1  0  0  0  0
  8  1  1  0  0  0  0
  9 43  1  0  0  0  0
 10  4  1  0  0  0  0
 11 12  1  0  0  0  0
 11 26  1  0  0  0  0
 12 13  1  0  0  0  0
 13 15  2  0  0  0  0
 13 14  1  0  0  0  0
 15 16  1  0  0  0  0
 17  5  1  0  0  0  0
 17 15  1  0  0  0  0
 18 17  2  0  0  0  0
 19 18  1  0  0  0  0
 20 18  1  0  0  0  0
 20 12  2  0  0  0  0
 21 20  1  0  0  0  0
 22 24  1  0  0  0  0
 22 25  1  0  0  0  0
 22  5  1  0  0  0  0
 23 22  1  0  0  0  0
 26 27  1  0  0  0  0
 27 42  2  0  0  0  0
 27 28  1  0  0  0  0
 28 30  2  0  0  0  0
 29 28  1  0  0  0  0
 30 32  1  0  0  0  0
 30 31  1  0  0  0  0
 32 33  1  0  0  0  0
 34 35  1  0  0  0  0
 34 32  2  0  0  0  0
 35 36  1  0  0  0  0
 37 38  1  0  0  0  0
 37 35  2  0  0  0  0
 39 37  1  0  0  0  0
 40 39  1  0  0  0  0
 41 39  2  0  0  0  0
 41 42  1  0  0  0  0
 42 34  1  0  0  0  0
 43 26  2  0  0  0  0
 43 41  1  0  0  0  0
 44  9  1  0  0  0  0
 44 45  1  0  0  0  0
 45 46  1  0  0  0  0
 47 48  1  0  0  0  0
 47 45  2  0  0  0  0
 49 47  1  0  0  0  0
 50 53  1  0  0  0  0
 51 50  1  0  0  0  0
 52 50  1  0  0  0  0
 54 49  2  0  0  0  0
 54 56  1  0  0  0  0
 55 54  1  0  0  0  0
 56 44  2  0  0  0  0
 57 56  1  0  0  0  0
 58  1  1  0  0  0  0
M  END
$$$$
