CSD_code = TOFWIW | q = 0 | S = 0 | Stoichiometry = C27H14Br2ClN2O3Re | MND = 6
 OpenBabel04212202103D

 50 55  0  0  0  0  0  0  0  0999 V2000
    3.5726    4.5906    2.0291 Re  0  0  0  0  0  0  0  0  0  0  0  0
    8.5224   -0.2715    4.5536 Br  0  0  0  0  0  0  0  0  0  0  0  0
   -0.3144   10.8360    0.7123 Br  0  0  0  0  0  0  0  0  0  0  0  0
    2.7862    4.5305    4.2718 Cl  0  0  0  0  0  0  0  0  0  0  0  0
    0.6226    4.8195    1.1361 O   0  0  0  0  0  1  0  0  0  0  0  0
    3.6128    1.5068    2.2040 O   0  0  0  0  0  1  0  0  0  0  0  0
    5.4724    4.7360    3.0338 N   0  0  0  0  0  0  0  0  0  0  0  0
    6.2211    3.6143    3.3971 C   0  0  0  0  0  0  0  0  0  0  0  0
    6.7584    2.7967    2.4020 C   0  0  0  0  0  0  0  0  0  0  0  0
    6.6320    3.0717    1.3647 H   0  0  0  0  0  0  0  0  0  0  0  0
    7.4491    1.6528    2.7441 C   0  0  0  0  0  0  0  0  0  0  0  0
    7.8771    1.0249    1.9784 H   0  0  0  0  0  0  0  0  0  0  0  0
    7.5757    1.3088    4.0816 C   0  0  0  0  0  0  0  0  0  0  0  0
    7.0192    2.0923    5.0797 C   0  0  0  0  0  0  0  0  0  0  0  0
    7.1050    1.7988    6.1145 H   0  0  0  0  0  0  0  0  0  0  0  0
    6.3512    3.2512    4.7378 C   0  0  0  0  0  0  0  0  0  0  0  0
    5.8861    3.8562    5.5021 H   0  0  0  0  0  0  0  0  0  0  0  0
    5.7009    5.9063    3.5336 C   0  0  0  0  0  0  0  0  0  0  0  0
    6.7435    6.4852    4.3705 C   0  0  0  0  0  0  0  0  0  0  0  0
    6.3913    7.8493    4.5333 C   0  0  0  0  0  0  0  0  0  0  0  0
    5.1997    8.1979    3.8500 C   0  0  0  0  0  0  0  0  0  0  0  0
    4.7322    9.4866    3.9493 C   0  0  0  0  0  0  0  0  0  0  0  0
    3.8237    9.8043    3.4609 H   0  0  0  0  0  0  0  0  0  0  0  0
    5.4683   10.4082    4.7155 C   0  0  0  0  0  0  0  0  0  0  0  0
    5.0947   11.4187    4.7901 H   0  0  0  0  0  0  0  0  0  0  0  0
    6.6345   10.0748    5.3605 C   0  0  0  0  0  0  0  0  0  0  0  0
    7.1715   10.8172    5.9320 H   0  0  0  0  0  0  0  0  0  0  0  0
    7.1412    8.7578    5.2860 C   0  0  0  0  0  0  0  0  0  0  0  0
    8.3185    8.2532    5.8819 C   0  0  0  0  0  0  0  0  0  0  0  0
    8.9361    8.9100    6.4763 H   0  0  0  0  0  0  0  0  0  0  0  0
    8.6766    6.9389    5.7032 C   0  0  0  0  0  0  0  0  0  0  0  0
    9.5846    6.5732    6.1594 H   0  0  0  0  0  0  0  0  0  0  0  0
    7.9049    6.0341    4.9528 C   0  0  0  0  0  0  0  0  0  0  0  0
    8.2370    5.0122    4.8492 H   0  0  0  0  0  0  0  0  0  0  0  0
    4.7565    6.9799    3.1887 C   0  0  0  0  0  0  0  0  0  0  0  0
    3.7528    6.6814    2.4349 N   0  0  0  0  0  0  0  0  0  0  0  0
    2.8247    7.6658    2.0562 C   0  0  0  0  0  0  0  0  0  0  0  0
    1.5456    7.6532    2.6070 C   0  0  0  0  0  0  0  0  0  0  0  0
    1.2936    6.9083    3.3474 H   0  0  0  0  0  0  0  0  0  0  0  0
    0.6153    8.5937    2.2124 C   0  0  0  0  0  0  0  0  0  0  0  0
   -0.3749    8.5924    2.6405 H   0  0  0  0  0  0  0  0  0  0  0  0
    0.9650    9.5362    1.2587 C   0  0  0  0  0  0  0  0  0  0  0  0
    2.2306    9.5536    0.6956 C   0  0  0  0  0  0  0  0  0  0  0  0
    2.4850   10.2905   -0.0502 H   0  0  0  0  0  0  0  0  0  0  0  0
    3.1647    8.6196    1.1004 C   0  0  0  0  0  0  0  0  0  0  0  0
    4.1541    8.6149    0.6669 H   0  0  0  0  0  0  0  0  0  0  0  0
    1.7255    4.6963    1.4035 C   0  0  0  0  0  2  0  0  0  0  0  0
    4.3035    4.7196    0.2326 C   0  0  0  0  0  2  0  0  0  0  0  0
    4.7685    4.8235   -0.8121 O   0  0  0  0  0  1  0  0  0  0  0  0
    3.5702    2.6370    2.0509 C   0  0  0  0  0  2  0  0  0  0  0  0
  1 50  1  0  0  0  0
  1 36  1  0  0  0  0
  1  7  1  0  0  0  0
  1  4  1  0  0  0  0
  3 42  1  0  0  0  0
  5 47  1  0  0  0  0
  7  8  1  0  0  0  0
  7 18  1  0  0  0  0
  8 16  1  0  0  0  0
  9 11  1  0  0  0  0
  9  8  2  0  0  0  0
 10  9  1  0  0  0  0
 11 13  2  0  0  0  0
 12 11  1  0  0  0  0
 13  2  1  0  0  0  0
 13 14  1  0  0  0  0
 14 15  1  0  0  0  0
 16 14  2  0  0  0  0
 16 17  1  0  0  0  0
 18 19  1  0  0  0  0
 19 20  2  0  0  0  0
 19 33  1  0  0  0  0
 20 28  1  0  0  0  0
 21 22  2  0  0  0  0
 21 20  1  0  0  0  0
 22 24  1  0  0  0  0
 23 22  1  0  0  0  0
 24 25  1  0  0  0  0
 24 26  2  0  0  0  0
 26 27  1  0  0  0  0
 28 26  1  0  0  0  0
 28 29  2  0  0  0  0
 29 30  1  0  0  0  0
 31 29  1  0  0  0  0
 31 32  1  0  0  0  0
 33 31  2  0  0  0  0
 34 33  1  0  0  0  0
 35 18  2  0  0  0  0
 35 21  1  0  0  0  0
 36 35  1  0  0  0  0
 37 36  1  0  0  0  0
 37 38  1  0  0  0  0
 38 39  1  0  0  0  0
 40 38  2  0  0  0  0
 40 41  1  0  0  0  0
 42 40  1  0  0  0  0
 43 45  1  0  0  0  0
 43 42  2  0  0  0  0
 44 43  1  0  0  0  0
 45 37  2  0  0  0  0
 46 45  1  0  0  0  0
 47  1  1  0  0  0  0
 48  1  1  0  0  0  0
 49 48  1  0  0  0  0
 50  6  1  0  0  0  0
M  END
$$$$
