CSD_code = TOGMAD | q = 0 | S = 0 | Stoichiometry = C11H12AuCl2NO | MND = 4
 OpenBabel04212202103D

 28 30  0  0  0  0  0  0  0  0999 V2000
    1.4770    2.6773    3.1929 Au  0  0  0  0  0  0  0  0  0  0  0  0
    3.3116    2.3530    1.8335 Cl  0  0  0  0  0  0  0  0  0  0  0  0
    0.9933    0.5182    3.1323 Cl  0  0  0  0  0  0  0  0  0  0  0  0
    1.0041    6.5335    4.3096 O   0  0  0  0  0  0  0  0  0  0  0  0
    1.7600    4.6620    3.3963 N   0  0  0  0  0  0  0  0  0  0  0  0
   -0.1854    4.4350    4.6990 C   0  0  0  0  0  0  0  0  0  0  0  0
   -0.1082    3.0757    4.3655 C   0  0  0  0  0  0  0  0  0  0  0  0
   -1.0746    2.2190    4.8498 C   0  0  0  0  0  0  0  0  0  0  0  0
   -2.0962    2.7105    5.6552 C   0  0  0  0  0  0  0  0  0  0  0  0
   -2.1629    4.0557    5.9841 C   0  0  0  0  0  0  0  0  0  0  0  0
   -1.2065    4.9309    5.5067 C   0  0  0  0  0  0  0  0  0  0  0  0
    0.8679    5.2376    4.1353 C   0  0  0  0  0  0  0  0  0  0  0  0
    2.1709    6.9418    3.5838 C   0  0  0  0  0  0  0  0  0  0  0  0
    2.7355    5.6487    2.9316 C   0  0  0  0  0  0  0  0  0  0  0  0
    2.7261    5.7143    1.4079 C   0  0  0  0  0  0  0  0  0  0  0  0
    4.1238    5.2934    3.4538 C   0  0  0  0  0  0  0  0  0  0  0  0
   -2.9623    4.4185    6.6121 H   0  0  0  0  0  0  0  0  0  0  0  0
   -1.2318    5.9837    5.7434 H   0  0  0  0  0  0  0  0  0  0  0  0
    2.8686    7.3964    4.2912 H   0  0  0  0  0  0  0  0  0  0  0  0
    1.8671    7.6864    2.8439 H   0  0  0  0  0  0  0  0  0  0  0  0
    3.0489    4.7559    1.0086 H   0  0  0  0  0  0  0  0  0  0  0  0
    3.4097    6.4881    1.0690 H   0  0  0  0  0  0  0  0  0  0  0  0
    1.7258    5.9325    1.0381 H   0  0  0  0  0  0  0  0  0  0  0  0
    4.4311    4.3400    3.0315 H   0  0  0  0  0  0  0  0  0  0  0  0
    4.8347    6.0587    3.1539 H   0  0  0  0  0  0  0  0  0  0  0  0
    4.1189    5.2133    4.5393 H   0  0  0  0  0  0  0  0  0  0  0  0
   -1.0355    1.1695    4.6029 H   0  0  0  0  0  0  0  0  0  0  0  0
   -2.8458    2.0286    6.0283 H   0  0  0  0  0  0  0  0  0  0  0  0
  1  5  1  0  0  0  0
  1  7  2  0  0  0  0
  2  1  1  0  0  0  0
  3  1  1  0  0  0  0
  5 12  1  0  0  0  0
  6 11  1  0  0  0  0
  7  6  1  0  0  0  0
  7  8  1  0  0  0  0
  8  9  2  0  0  0  0
  9 10  1  0  0  0  0
  9 28  1  0  0  0  0
 10 17  1  0  0  0  0
 11 18  1  0  0  0  0
 11 10  2  0  0  0  0
 12  4  1  0  0  0  0
 12  6  2  0  0  0  0
 13 19  1  0  0  0  0
 13  4  1  0  0  0  0
 14  5  1  0  0  0  0
 14 16  1  0  0  0  0
 14 13  1  0  0  0  0
 15 14  1  0  0  0  0
 16 26  1  0  0  0  0
 20 13  1  0  0  0  0
 21 15  1  0  0  0  0
 22 15  1  0  0  0  0
 23 15  1  0  0  0  0
 24 16  1  0  0  0  0
 25 16  1  0  0  0  0
 27  8  1  0  0  0  0
M  END
$$$$
