CSD_code = TOGQEO | q = 0 | S = 0 | Stoichiometry = C17H18Cl2N2O2Pd | MND = 4
 OpenBabel04212202103D

 42 44  0  0  1  0  0  0  0  0999 V2000
   13.2156    7.9603    3.4975 Pd  0  0  0  0  0  0  0  0  0  0  0  0
   11.8922    7.2148    1.8827 Cl  0  0  0  0  0  0  0  0  0  0  0  0
   14.0855    9.3834    1.9981 Cl  0  0  0  0  0  0  0  0  0  0  0  0
   13.5699   10.8211    4.4918 O   0  0  0  0  0  0  0  0  0  0  0  0
   15.6229   11.6013    3.9646 O   0  0  0  0  0  0  0  0  0  0  0  0
   12.4114    6.7382    4.8886 N   0  0  0  0  0  0  0  0  0  0  0  0
   14.2880    8.5106    5.0495 N   0  0  0  0  0  0  0  0  0  0  0  0
   11.4799    5.8040    4.7319 C   0  0  0  0  0  0  0  0  0  0  0  0
   11.0179    5.0362    5.7868 C   0  0  0  0  0  0  0  0  0  0  0  0
   11.5419    5.2439    7.0591 C   0  0  0  0  0  0  0  0  0  0  0  0
   12.5117    6.2110    7.2274 C   0  0  0  0  0  0  0  0  0  0  0  0
   12.9336    6.9485    6.1179 C   0  0  0  0  0  0  0  0  0  0  0  0
   13.9676    7.9417    6.1570 C   0  0  0  0  0  0  0  0  0  0  0  0
   15.3913    9.4123    4.9756 C   0  0  2  0  0  0  0  0  0  0  0  0
   14.8965   10.7423    4.3741 C   0  0  0  0  0  0  0  0  0  0  0  0
   12.9385   11.9603    3.8882 C   0  0  0  0  0  0  0  0  0  0  0  0
   12.9949   13.1780    4.7963 C   0  0  0  0  0  0  0  0  0  0  0  0
   16.5267    8.7768    4.1145 C   0  0  0  0  0  0  0  0  0  0  0  0
   16.3765    7.2783    4.1753 C   0  0  0  0  0  0  0  0  0  0  0  0
   15.7206    6.5951    3.1455 C   0  0  0  0  0  0  0  0  0  0  0  0
   15.3887    5.2538    3.2975 C   0  0  0  0  0  0  0  0  0  0  0  0
   15.7193    4.5816    4.4643 C   0  0  0  0  0  0  0  0  0  0  0  0
   16.4161    5.2394    5.4634 C   0  0  0  0  0  0  0  0  0  0  0  0
   16.7338    6.5802    5.3224 C   0  0  0  0  0  0  0  0  0  0  0  0
   14.0279   13.4777    4.9536 H   0  0  0  0  0  0  0  0  0  0  0  0
   12.4590   13.9996    4.3304 H   0  0  0  0  0  0  0  0  0  0  0  0
   12.5370   12.9574    5.7581 H   0  0  0  0  0  0  0  0  0  0  0  0
   11.9095   11.6412    3.7069 H   0  0  0  0  0  0  0  0  0  0  0  0
   13.4379   12.1624    2.9360 H   0  0  0  0  0  0  0  0  0  0  0  0
   17.4882    9.1041    4.5087 H   0  0  0  0  0  0  0  0  0  0  0  0
   16.4234    9.1286    3.0877 H   0  0  0  0  0  0  0  0  0  0  0  0
   17.2608    7.0920    6.1160 H   0  0  0  0  0  0  0  0  0  0  0  0
   16.7025    4.7113    6.3613 H   0  0  0  0  0  0  0  0  0  0  0  0
   15.4508    3.5427    4.5868 H   0  0  0  0  0  0  0  0  0  0  0  0
   14.8832    4.7351    2.4949 H   0  0  0  0  0  0  0  0  0  0  0  0
   15.5396    7.0887    2.1927 H   0  0  0  0  0  0  0  0  0  0  0  0
   12.9497    6.4071    8.1934 H   0  0  0  0  0  0  0  0  0  0  0  0
   11.1968    4.6597    7.8982 H   0  0  0  0  0  0  0  0  0  0  0  0
   10.2596    4.2898    5.6151 H   0  0  0  0  0  0  0  0  0  0  0  0
   11.0989    5.6801    3.7243 H   0  0  0  0  0  0  0  0  0  0  0  0
   14.4802    8.1626    7.0922 H   0  0  0  0  0  0  0  0  0  0  0  0
   15.7757    9.6376    5.9845 H   0  0  0  0  0  0  0  0  0  0  0  0
  1  6  1  0  0  0  0
  1  7  1  0  0  0  0
  2  1  1  0  0  0  0
  3  1  1  0  0  0  0
  5 15  2  0  0  0  0
  6 12  1  0  0  0  0
  7 13  1  0  0  0  0
  8  6  1  0  0  0  0
  8  9  2  0  0  0  0
  9 10  1  0  0  0  0
 10 11  2  0  0  0  0
 10 38  1  0  0  0  0
 11 37  1  0  0  0  0
 12 13  2  0  0  0  0
 12 11  1  0  0  0  0
 13 41  1  0  0  0  0
 14  7  1  0  0  0  0
 14 42  1  1  0  0  0
 15  4  1  0  0  0  0
 15 14  1  0  0  0  0
 16  4  1  0  0  0  0
 16 17  1  0  0  0  0
 17 25  1  0  0  0  0
 17 27  1  0  0  0  0
 18 19  1  0  0  0  0
 18 30  1  0  0  0  0
 18 14  1  0  0  0  0
 19 24  1  0  0  0  0
 20 21  1  0  0  0  0
 20 19  2  0  0  0  0
 21 22  2  0  0  0  0
 22 34  1  0  0  0  0
 22 23  1  0  0  0  0
 23 33  1  0  0  0  0
 24 23  2  0  0  0  0
 24 32  1  0  0  0  0
 26 17  1  0  0  0  0
 28 16  1  0  0  0  0
 29 16  1  0  0  0  0
 31 18  1  0  0  0  0
 35 21  1  0  0  0  0
 36 20  1  0  0  0  0
 39  9  1  0  0  0  0
 40  8  1  0  0  0  0
M  END
$$$$
