CSD_code = TOGTEO | q = 0 | S = 0 | Stoichiometry = C6H18As2I2Zn | MND = 4
 OpenBabel04212202103D

 29 26  0  0  0  0  0  0  0  0999 V2000
    6.5836    5.7126    0.9368 I   0  0  0  0  0  0  0  0  0  0  0  0
   10.6772    5.5841    3.5115 I   0  0  0  0  0  0  0  0  0  0  0  0
   10.0873    5.6578   -0.6833 As  0  0  0  0  0  0  0  0  0  0  0  0
    9.2729    2.5439    1.5858 As  0  0  0  0  0  0  0  0  0  0  0  0
    8.9147    5.2612    1.7542 Zn  0  0  0  0  0  0  0  0  0  0  0  0
    9.3482    4.3279   -1.9201 C   0  0  0  0  0  0  0  0  0  0  0  0
   11.9643    5.6302   -1.2629 C   0  0  0  0  0  0  0  0  0  0  0  0
    9.5014    7.2771   -1.6157 C   0  0  0  0  0  0  0  0  0  0  0  0
   11.1364    2.0911    1.1723 C   0  0  0  0  0  0  0  0  0  0  0  0
    8.3556    1.1329    0.5706 C   0  0  0  0  0  0  0  0  0  0  0  0
    9.1709    1.7327    3.3639 C   0  0  0  0  0  0  0  0  0  0  0  0
    8.2613    4.2994   -1.8273 H   0  0  0  0  0  0  0  0  0  0  0  0
    9.6059    4.5853   -2.9486 H   0  0  0  0  0  0  0  0  0  0  0  0
    9.7433    3.3359   -1.6917 H   0  0  0  0  0  0  0  0  0  0  0  0
   12.4487    4.7070   -0.9446 H   0  0  0  0  0  0  0  0  0  0  0  0
   12.0302    5.7128   -2.3484 H   0  0  0  0  0  0  0  0  0  0  0  0
   12.4980    6.4665   -0.8099 H   0  0  0  0  0  0  0  0  0  0  0  0
    9.9420    8.1597   -1.1492 H   0  0  0  0  0  0  0  0  0  0  0  0
    9.8049    7.2401   -2.6634 H   0  0  0  0  0  0  0  0  0  0  0  0
    8.4156    7.3647   -1.5630 H   0  0  0  0  0  0  0  0  0  0  0  0
   11.3190    1.0341    1.3707 H   0  0  0  0  0  0  0  0  0  0  0  0
   11.3606    2.3005    0.1248 H   0  0  0  0  0  0  0  0  0  0  0  0
   11.8055    2.6858    1.7957 H   0  0  0  0  0  0  0  0  0  0  0  0
    7.2962    1.1293    0.8299 H   0  0  0  0  0  0  0  0  0  0  0  0
    8.4418    1.3081   -0.5016 H   0  0  0  0  0  0  0  0  0  0  0  0
    8.7818    0.1574    0.8077 H   0  0  0  0  0  0  0  0  0  0  0  0
    8.1451    1.7677    3.7351 H   0  0  0  0  0  0  0  0  0  0  0  0
    9.4971    0.6919    3.3230 H   0  0  0  0  0  0  0  0  0  0  0  0
    9.8090    2.2768    4.0611 H   0  0  0  0  0  0  0  0  0  0  0  0
  1  5  1  0  0  0  0
  4 11  1  0  0  0  0
  5  2  1  0  0  0  0
  6 12  1  0  0  0  0
  6 14  1  0  0  0  0
  6  3  1  0  0  0  0
  7 15  1  0  0  0  0
  7 17  1  0  0  0  0
  7  3  1  0  0  0  0
  8 20  1  0  0  0  0
  8 18  1  0  0  0  0
  8  3  1  0  0  0  0
  9 21  1  0  0  0  0
  9  4  1  0  0  0  0
  9 23  1  0  0  0  0
 10 26  1  0  0  0  0
 10 24  1  0  0  0  0
 10  4  1  0  0  0  0
 11 27  1  0  0  0  0
 11 29  1  0  0  0  0
 13  6  1  0  0  0  0
 16  7  1  0  0  0  0
 19  8  1  0  0  0  0
 22  9  1  0  0  0  0
 25 10  1  0  0  0  0
 28 11  1  0  0  0  0
M  END
$$$$
