CSD_code = TOJLIP | q = 0 | S = 0 | Stoichiometry = C21H31ClCrN2 | MND = 8
 OpenBabel04212202103D

 56 58  0  0  1  0  0  0  0  0999 V2000
    1.6431    1.8809   14.3806 C   0  0  0  0  0  0  0  0  0  0  0  0
    1.2246    3.1077   14.9084 C   0  0  0  0  0  0  0  0  0  0  0  0
    0.7361    3.8442   14.2901 H   0  0  0  0  0  0  0  0  0  0  0  0
    1.4254    3.3881   16.2445 C   0  0  0  0  0  0  0  0  0  0  0  0
    1.0947    4.3343   16.6462 H   0  0  0  0  0  0  0  0  0  0  0  0
    2.0487    2.4654   17.0751 C   0  0  0  0  0  0  0  0  0  0  0  0
    2.1991    2.6988   18.1187 H   0  0  0  0  0  0  0  0  0  0  0  0
    2.4796    1.2518   16.5796 C   0  0  0  0  0  0  0  0  0  0  0  0
    2.9585    0.5567   17.2511 H   0  0  0  0  0  0  0  0  0  0  0  0
    2.2824    0.9373   15.2302 C   0  0  0  0  0  0  0  0  0  0  0  0
    3.4309   -1.1608   15.2497 C   0  0  0  0  0  0  0  0  0  0  0  0
    4.0186   -0.6766   16.0362 H   0  0  0  0  0  0  0  0  0  0  0  0
    4.1386   -1.5999   14.5441 H   0  0  0  0  0  0  0  0  0  0  0  0
    2.6153   -2.3304   15.8775 C   0  0  0  0  0  0  0  0  0  0  0  0
    2.4855   -3.4673   14.8616 C   0  0  0  0  0  0  0  0  0  0  0  0
    3.4654   -3.8617   14.5990 H   0  0  0  0  0  0  0  0  0  0  0  0
    1.9920   -3.1176   13.9588 H   0  0  0  0  0  0  0  0  0  0  0  0
    1.8948   -4.2794   15.2792 H   0  0  0  0  0  0  0  0  0  0  0  0
    3.3818   -2.8470   17.0995 C   0  0  0  0  0  0  0  0  0  0  0  0
    4.3954   -3.1331   16.8256 H   0  0  0  0  0  0  0  0  0  0  0  0
    2.8816   -3.7188   17.5147 H   0  0  0  0  0  0  0  0  0  0  0  0
    3.4361   -2.0870   17.8761 H   0  0  0  0  0  0  0  0  0  0  0  0
    1.2191   -1.8766   16.3051 C   0  0  0  0  0  0  0  0  0  0  0  0
    1.2700   -1.0916   17.0545 H   0  0  0  0  0  0  0  0  0  0  0  0
    0.6737   -2.7177   16.7272 H   0  0  0  0  0  0  0  0  0  0  0  0
    0.6611   -1.4992   15.4508 H   0  0  0  0  0  0  0  0  0  0  0  0
    1.0575    2.3302   12.1055 C   0  0  0  0  0  0  0  0  0  0  0  0
    1.5868    2.1340   11.1713 H   0  0  0  0  0  0  0  0  0  0  0  0
    1.2812    3.3627   12.3923 H   0  0  0  0  0  0  0  0  0  0  0  0
   -0.4672    2.2075   11.8084 C   0  0  0  0  0  0  0  0  0  0  0  0
   -1.2486    1.7619   13.0450 C   0  0  0  0  0  0  0  0  0  0  0  0
   -1.1419    2.4733   13.8592 H   0  0  0  0  0  0  0  0  0  0  0  0
   -0.8985    0.7914   13.3898 H   0  0  0  0  0  0  0  0  0  0  0  0
   -2.3051    1.6788   12.7997 H   0  0  0  0  0  0  0  0  0  0  0  0
   -0.6881    1.1943   10.6831 C   0  0  0  0  0  0  0  0  0  0  0  0
   -0.2127    1.5313    9.7637 H   0  0  0  0  0  0  0  0  0  0  0  0
   -1.7514    1.0731   10.4895 H   0  0  0  0  0  0  0  0  0  0  0  0
   -0.2802    0.2251   10.9572 H   0  0  0  0  0  0  0  0  0  0  0  0
   -0.9767    3.5768   11.3469 C   0  0  0  0  0  0  0  0  0  0  0  0
   -0.9003    4.3112   12.1459 H   0  0  0  0  0  0  0  0  0  0  0  0
   -2.0207    3.5079   11.0503 H   0  0  0  0  0  0  0  0  0  0  0  0
   -0.4024    3.9340   10.4943 H   0  0  0  0  0  0  0  0  0  0  0  0
    4.4634   -0.3169   12.1688 C   0  0  1  0  0  0  0  0  0  0  0  0
    5.3079   -0.1016   12.8073 H   0  0  0  0  0  0  0  0  0  0  0  0
    3.9307   -1.5944   11.8988 C   0  0  0  0  0  0  0  0  0  0  0  0
    4.2933   -2.5327   12.2881 H   0  0  0  0  0  0  0  0  0  0  0  0
    2.9584   -1.4472   10.8891 C   0  0  0  0  0  0  0  0  0  0  0  0
    2.4374   -2.2547   10.3937 H   0  0  0  0  0  0  0  0  0  0  0  0
    2.8943   -0.0858   10.5298 C   0  0  0  0  0  0  0  0  0  0  0  0
    2.3333    0.3184    9.7018 H   0  0  0  0  0  0  0  0  0  0  0  0
    3.8262    0.6109   11.3262 C   0  0  0  0  0  0  0  0  0  0  0  0
    4.1049    1.6491   11.2186 H   0  0  0  0  0  0  0  0  0  0  0  0
    1.5756    1.4312   13.1034 N   0  0  0  0  0  0  0  0  0  0  0  0
    2.6622   -0.1689   14.5442 N   0  0  0  0  0  0  0  0  0  0  0  0
    0.4792   -1.4405   12.7536 Cl  0  0  0  0  0  0  0  0  0  0  0  0
    2.2418   -0.2758   12.7233 Cr  0  0  0  0  0  0  0  0  0  0  0  0
  1  2  2  0  0  0  0
  1 10  1  0  0  0  0
  2  4  1  0  0  0  0
  3  2  1  0  0  0  0
  4  5  1  0  0  0  0
  4  6  2  0  0  0  0
  6  7  1  0  0  0  0
  8  6  1  0  0  0  0
  8  9  1  0  0  0  0
 10  8  2  0  0  0  0
 11 14  1  0  0  0  0
 11 12  1  0  0  0  0
 13 11  1  0  0  0  0
 14 23  1  0  0  0  0
 14 19  1  0  0  0  0
 15 18  1  0  0  0  0
 15 14  1  0  0  0  0
 16 15  1  0  0  0  0
 17 15  1  0  0  0  0
 19 21  1  0  0  0  0
 19 22  1  0  0  0  0
 20 19  1  0  0  0  0
 23 25  1  0  0  0  0
 23 24  1  0  0  0  0
 26 23  1  0  0  0  0
 27 29  1  0  0  0  0
 27 53  1  0  0  0  0
 28 27  1  0  0  0  0
 30 27  1  0  0  0  0
 30 31  1  0  0  0  0
 31 33  1  0  0  0  0
 31 32  1  0  0  0  0
 34 31  1  0  0  0  0
 35 38  1  0  0  0  0
 35 30  1  0  0  0  0
 36 35  1  0  0  0  0
 37 35  1  0  0  0  0
 39 30  1  0  0  0  0
 39 40  1  0  0  0  0
 41 39  1  0  0  0  0
 42 39  1  0  0  0  0
 43 56  1  0  0  0  0
 43 44  1  1  0  0  0
 45 43  1  0  0  0  0
 45 46  1  0  0  0  0
 47 45  2  0  0  0  0
 48 47  1  0  0  0  0
 49 47  1  0  0  0  0
 49 51  2  0  0  0  0
 50 49  1  0  0  0  0
 51 43  1  0  0  0  0
 52 51  1  0  0  0  0
 53  1  1  0  0  0  0
 54 10  1  0  0  0  0
 54 11  1  0  0  0  0
 56 55  1  0  0  0  0
 56 53  1  0  0  0  0
 56 54  1  0  0  0  0
M  END
$$$$
