CSD_code = TOKLUA | q = 0 | S = 0 | Stoichiometry = C13H37ClNiP2Si2 | MND = 4
 OpenBabel04212202103D

 56 55  0  0  0  0  0  0  0  0999 V2000
    2.2958    7.0499    1.6987 Ni  0  0  0  0  0  0  0  0  0  0  0  0
    3.7912    5.3610    1.4908 P   0  0  0  0  0  4  0  0  0  0  0  0
    3.5996    8.7047    2.3206 P   0  0  0  0  0  4  0  0  0  0  0  0
    1.3133    6.0748    0.0638 Cl  0  0  0  0  0  0  0  0  0  0  0  0
    0.0010    6.6675    3.2279 Si  0  0  0  0  0  0  0  0  0  0  0  0
   -0.2965    8.7793    0.6341 Si  0  0  0  0  0  0  0  0  0  0  0  0
    0.6786    8.0554    2.1010 C   0  0  0  0  0  0  0  0  0  0  0  0
    1.4295    6.1381    4.4123 C   0  0  0  0  0  0  0  0  0  0  0  0
   -1.3483    7.4699    4.3208 C   0  0  0  0  0  0  0  0  0  0  0  0
   -0.7944    5.0971    2.4869 C   0  0  0  0  0  0  0  0  0  0  0  0
   -1.1026   10.3860    1.3008 C   0  0  0  0  0  0  0  0  0  0  0  0
   -1.7117    7.6924   -0.0338 C   0  0  0  0  0  0  0  0  0  0  0  0
    0.9373    9.2845   -0.7475 C   0  0  0  0  0  0  0  0  0  0  0  0
    4.5565    5.1497   -0.1634 C   0  0  0  0  0  0  0  0  0  0  0  0
    2.9946    3.7182    1.6783 C   0  0  0  0  0  0  0  0  0  0  0  0
    5.2770    5.0665    2.5594 C   0  0  0  0  0  0  0  0  0  0  0  0
    5.0653    8.8536    1.2186 C   0  0  0  0  0  0  0  0  0  0  0  0
    4.4213    8.6377    3.9640 C   0  0  0  0  0  0  0  0  0  0  0  0
    3.0615   10.4618    2.3242 C   0  0  0  0  0  0  0  0  0  0  0  0
    0.9516    8.8876    2.7598 H   0  0  0  0  0  0  0  0  0  0  0  0
    1.5747    6.8714    5.2000 H   0  0  0  0  0  0  0  0  0  0  0  0
    2.3767    6.0420    3.8730 H   0  0  0  0  0  0  0  0  0  0  0  0
    1.2223    5.1824    4.8839 H   0  0  0  0  0  0  0  0  0  0  0  0
   -2.2052    7.7632    3.7258 H   0  0  0  0  0  0  0  0  0  0  0  0
   -0.9872    8.3532    4.8359 H   0  0  0  0  0  0  0  0  0  0  0  0
   -1.6930    6.7681    5.0717 H   0  0  0  0  0  0  0  0  0  0  0  0
   -0.1344    4.5856    1.7966 H   0  0  0  0  0  0  0  0  0  0  0  0
   -1.6978    5.3499    1.9438 H   0  0  0  0  0  0  0  0  0  0  0  0
   -1.0643    4.4048    3.2798 H   0  0  0  0  0  0  0  0  0  0  0  0
   -0.3663   11.1107    1.6333 H   0  0  0  0  0  0  0  0  0  0  0  0
   -1.7587   10.1764    2.1386 H   0  0  0  0  0  0  0  0  0  0  0  0
   -1.6994   10.8577    0.5278 H   0  0  0  0  0  0  0  0  0  0  0  0
   -2.4530    7.5052    0.7367 H   0  0  0  0  0  0  0  0  0  0  0  0
   -1.3440    6.7378   -0.3904 H   0  0  0  0  0  0  0  0  0  0  0  0
   -2.2119    8.1910   -0.8587 H   0  0  0  0  0  0  0  0  0  0  0  0
    1.9294    8.8944   -0.5201 H   0  0  0  0  0  0  0  0  0  0  0  0
    1.0104   10.3624   -0.8622 H   0  0  0  0  0  0  0  0  0  0  0  0
    0.6420    8.8677   -1.7044 H   0  0  0  0  0  0  0  0  0  0  0  0
    5.2376    5.9729   -0.3728 H   0  0  0  0  0  0  0  0  0  0  0  0
    3.7616    5.1547   -0.9064 H   0  0  0  0  0  0  0  0  0  0  0  0
    5.1008    4.2072   -0.2084 H   0  0  0  0  0  0  0  0  0  0  0  0
    2.1987    3.6362    0.9415 H   0  0  0  0  0  0  0  0  0  0  0  0
    2.5630    3.6298    2.6739 H   0  0  0  0  0  0  0  0  0  0  0  0
    3.7267    2.9258    1.5252 H   0  0  0  0  0  0  0  0  0  0  0  0
    4.9655    4.9809    3.5994 H   0  0  0  0  0  0  0  0  0  0  0  0
    5.9807    5.8930    2.4762 H   0  0  0  0  0  0  0  0  0  0  0  0
    5.7801    4.1464    2.2663 H   0  0  0  0  0  0  0  0  0  0  0  0
    4.7235    9.0569    0.2050 H   0  0  0  0  0  0  0  0  0  0  0  0
    5.6214    7.9185    1.2121 H   0  0  0  0  0  0  0  0  0  0  0  0
    5.7176    9.6609    1.5498 H   0  0  0  0  0  0  0  0  0  0  0  0
    4.9607    7.6994    4.0710 H   0  0  0  0  0  0  0  0  0  0  0  0
    3.6610    8.6883    4.7409 H   0  0  0  0  0  0  0  0  0  0  0  0
    5.1128    9.4709    4.0799 H   0  0  0  0  0  0  0  0  0  0  0  0
    2.3717   10.6378    3.1468 H   0  0  0  0  0  0  0  0  0  0  0  0
    2.5497   10.6833    1.3904 H   0  0  0  0  0  0  0  0  0  0  0  0
    3.9245   11.1170    2.4358 H   0  0  0  0  0  0  0  0  0  0  0  0
  1  7  1  0  0  0  0
  1  3  1  0  0  0  0
  2 15  1  0  0  0  0
  2  1  1  0  0  0  0
  2 16  1  0  0  0  0
  3 19  1  0  0  0  0
  3 18  1  0  0  0  0
  4  1  1  0  0  0  0
  5  9  1  0  0  0  0
  5  8  1  0  0  0  0
  6 11  1  0  0  0  0
  6  7  1  0  0  0  0
  7 20  1  0  0  0  0
  7  5  1  0  0  0  0
  8 23  1  0  0  0  0
  8 21  1  0  0  0  0
  9 25  1  0  0  0  0
  9 26  1  0  0  0  0
 10  5  1  0  0  0  0
 10 29  1  0  0  0  0
 11 30  1  0  0  0  0
 11 31  1  0  0  0  0
 12  6  1  0  0  0  0
 12 33  1  0  0  0  0
 13 36  1  0  0  0  0
 13  6  1  0  0  0  0
 14  2  1  0  0  0  0
 15 43  1  0  0  0  0
 16 45  1  0  0  0  0
 17 50  1  0  0  0  0
 17  3  1  0  0  0  0
 18 51  1  0  0  0  0
 18 53  1  0  0  0  0
 18 52  1  0  0  0  0
 19 56  1  0  0  0  0
 19 54  1  0  0  0  0
 22  8  1  0  0  0  0
 24  9  1  0  0  0  0
 27 10  1  0  0  0  0
 28 10  1  0  0  0  0
 32 11  1  0  0  0  0
 34 12  1  0  0  0  0
 35 12  1  0  0  0  0
 37 13  1  0  0  0  0
 38 13  1  0  0  0  0
 39 14  1  0  0  0  0
 40 14  1  0  0  0  0
 41 14  1  0  0  0  0
 42 15  1  0  0  0  0
 44 15  1  0  0  0  0
 46 16  1  0  0  0  0
 47 16  1  0  0  0  0
 48 17  1  0  0  0  0
 49 17  1  0  0  0  0
 55 19  1  0  0  0  0
M  END
$$$$
