CSD_code = TOLKEN | q = 0 | S = 0 | Stoichiometry = C23H17Cl2N7Ni | MND = 6
 OpenBabel04212202103D

 50 56  0  0  1  0  0  0  0  0999 V2000
    1.6177    2.5775    6.6789 Ni  0  0  0  0  0  0  0  0  0  0  0  0
    2.5114    3.1398    8.6112 Cl  0  0  0  0  0  0  0  0  0  0  0  0
    0.6706    1.8381    4.8357 Cl  0  0  0  0  0  0  0  0  0  0  0  0
    1.4089    0.9380    7.3514 N   0  0  0  0  0  0  0  0  0  0  0  0
    2.2056   -1.2446    7.6408 N   0  0  0  0  0  0  0  0  0  0  0  0
    0.1690   -0.6031    8.6057 N   0  0  0  0  0  0  0  0  0  0  0  0
    3.5856    1.5614    5.9154 N   0  0  0  0  0  0  0  0  0  0  0  0
    1.9365   -3.7190    8.6865 N   0  0  0  0  0  0  0  0  0  0  0  0
   -0.4583    2.8097    7.7475 N   0  0  0  0  0  0  0  0  0  0  0  0
    1.8403    4.2696    5.9916 N   0  0  0  0  0  0  0  0  0  0  0  0
    2.3155   -0.0271    7.1477 C   0  0  0  0  0  0  0  0  0  0  0  0
    3.4744    0.2894    6.3111 C   0  0  0  0  0  0  0  0  0  0  0  0
    4.3725   -0.7079    5.9403 C   0  0  0  0  0  0  0  0  0  0  0  0
    4.2177   -1.7103    6.3050 H   0  0  0  0  0  0  0  0  0  0  0  0
    5.4245   -0.3657    5.1103 C   0  0  0  0  0  0  0  0  0  0  0  0
    6.1432   -1.1087    4.7976 H   0  0  0  0  0  0  0  0  0  0  0  0
    5.5319    0.9489    4.6827 C   0  0  0  0  0  0  0  0  0  0  0  0
    6.3317    1.2572    4.0274 H   0  0  0  0  0  0  0  0  0  0  0  0
    4.5902    1.8729    5.1154 C   0  0  0  0  0  0  0  0  0  0  0  0
    4.6464    2.9064    4.7988 H   0  0  0  0  0  0  0  0  0  0  0  0
    1.1221   -1.5020    8.3622 C   0  0  0  0  0  0  0  0  0  0  0  0
    0.9620   -2.8454    8.9239 C   0  0  0  0  0  0  0  0  0  0  0  0
   -0.1725   -3.1654    9.6719 C   0  0  0  0  0  0  0  0  0  0  0  0
   -0.9319   -2.4176    9.8300 H   0  0  0  0  0  0  0  0  0  0  0  0
   -0.2825   -4.4446   10.1874 C   0  0  0  0  0  0  0  0  0  0  0  0
   -1.1460   -4.7290   10.7714 H   0  0  0  0  0  0  0  0  0  0  0  0
    0.7351   -5.3531    9.9408 C   0  0  0  0  0  0  0  0  0  0  0  0
    0.6895   -6.3604   10.3247 H   0  0  0  0  0  0  0  0  0  0  0  0
    1.8214   -4.9325    9.1819 C   0  0  0  0  0  0  0  0  0  0  0  0
    2.6407   -5.6044    8.9610 H   0  0  0  0  0  0  0  0  0  0  0  0
    0.3479    0.6008    8.0941 C   0  0  0  0  0  0  0  0  0  0  0  0
   -0.6484    1.6403    8.3661 C   0  0  1  0  0  3  0  0  0  0  0  0
   -1.7027    1.4099    9.2456 C   0  0  0  0  0  0  0  0  0  0  0  0
   -1.7969    0.4426    9.7106 H   0  0  0  0  0  0  0  0  0  0  0  0
   -2.5887    2.4415    9.4969 C   0  0  0  0  0  0  0  0  0  0  0  0
   -3.4188    2.3016   10.1735 H   0  0  0  0  0  0  0  0  0  0  0  0
   -2.3834    3.6594    8.8677 C   0  0  0  0  0  0  0  0  0  0  0  0
   -3.0452    4.4935    9.0409 H   0  0  0  0  0  0  0  0  0  0  0  0
   -1.3057    3.7906    8.0022 C   0  0  0  0  0  0  0  0  0  0  0  0
   -1.1160    4.7289    7.4974 H   0  0  0  0  0  0  0  0  0  0  0  0
    0.8368    4.8990    5.3818 C   0  0  0  0  0  3  0  0  0  0  0  0
   -0.0887    4.3497    5.2712 H   0  0  0  0  0  0  0  0  0  0  0  0
    0.9593    6.1810    4.8740 C   0  0  0  0  0  0  0  0  0  0  0  0
    0.1144    6.6479    4.3927 H   0  0  0  0  0  0  0  0  0  0  0  0
    2.1722    6.8395    4.9885 C   0  0  0  0  0  0  0  0  0  0  0  0
    2.3007    7.8389    4.6005 H   0  0  0  0  0  0  0  0  0  0  0  0
    3.2158    6.1786    5.6148 C   0  0  0  0  0  0  0  0  0  0  0  0
    4.1816    6.6449    5.7310 H   0  0  0  0  0  0  0  0  0  0  0  0
    3.0080    4.9012    6.1056 C   0  0  0  0  0  0  0  0  0  0  0  0
    3.7970    4.3794    6.6307 H   0  0  0  0  0  0  0  0  0  0  0  0
  1  4  1  0  0  0  0
  1  9  1  0  0  0  0
  1  2  1  0  0  0  0
  3  1  1  0  0  0  0
  4 31  1  0  0  0  0
  5 21  2  0  0  0  0
  7 12  1  0  0  0  0
  7  1  1  0  0  0  0
  8 22  2  0  0  0  0
  8 29  1  0  0  0  0
  9 39  1  0  0  0  0
  9 32  1  0  0  0  0
 10 49  1  0  0  0  0
 10  1  1  0  0  0  0
 11  4  1  0  0  0  0
 11  5  1  0  0  0  0
 12 11  2  0  0  0  0
 13 14  1  0  0  0  0
 13 12  1  0  0  0  0
 15 13  2  0  0  0  0
 16 15  1  0  0  0  0
 17 15  1  0  0  0  0
 17 19  2  0  0  0  0
 18 17  1  0  0  0  0
 19  7  1  0  0  0  0
 20 19  1  0  0  0  0
 21  6  1  0  0  0  0
 21 22  1  0  0  0  0
 22 23  1  0  0  0  0
 23 24  1  0  0  0  0
 23 25  2  0  0  0  0
 25 26  1  0  0  0  0
 27 25  1  0  0  0  0
 27 28  1  0  0  0  0
 29 27  2  0  0  0  0
 30 29  1  0  0  0  0
 31  6  2  0  0  0  0
 32 31  1  1  0  0  0
 32 33  1  0  0  0  0
 33 35  2  0  0  0  0
 33 34  1  0  0  0  0
 35 36  1  0  0  0  0
 37 38  1  0  0  0  0
 37 35  1  0  0  0  0
 39 37  2  0  0  0  0
 40 39  1  0  0  0  0
 41 10  1  0  0  0  0
 42 41  1  0  0  0  0
 43 45  2  0  0  0  0
 43 41  1  0  0  0  0
 44 43  1  0  0  0  0
 45 47  1  0  0  0  0
 46 45  1  0  0  0  0
 47 48  1  0  0  0  0
 47 49  2  0  0  0  0
 49 50  1  0  0  0  0
M  END
$$$$
