CSD_code = TOLTIX | q = 1 | S = 0 | Stoichiometry = C12H24Br2IrSe4(1+) | MND = 6
 OpenBabel04212202103D

 43 42  0  0  0  0  0  0  0  0999 V2000
    2.8257    2.3264   -0.0299 Ir  0  0  0  0  0  0  0  0  0  0  0  0
    2.4114    4.7895   -0.1037 Br  0  0  0  0  0  0  0  0  0  0  0  0
    3.2451   -0.1357    0.0405 Br  0  0  0  0  0  0  0  0  0  0  0  0
    3.7969    2.6005   -2.3390 Se  0  0  0  0  0  0  0  0  0  0  0  0
    0.5662    1.7397   -0.9780 Se  0  0  0  0  0  0  0  0  0  0  0  0
    1.8499    2.0540    2.2775 Se  0  0  0  0  0  0  0  0  0  0  0  0
    5.0835    2.9121    0.9239 Se  0  0  0  0  0  0  0  0  0  0  0  0
    2.6751    1.3538   -3.3730 C   0  0  0  0  0  0  0  0  0  0  0  0
    1.3379    1.9507   -3.7984 C   0  0  0  0  0  0  0  0  0  0  0  0
    0.6098    2.7080   -2.6932 C   0  0  0  0  0  0  0  0  0  0  0  0
   -0.7073    2.9272   -0.0767 C   0  0  0  0  0  0  0  0  0  0  0  0
   -0.8835    2.6172    1.4053 C   0  0  0  0  0  0  0  0  0  0  0  0
    0.2293    3.1573    2.2960 C   0  0  0  0  0  0  0  0  0  0  0  0
    2.9804    3.2878    3.3176 C   0  0  0  0  0  0  0  0  0  0  0  0
    4.3117    2.6776    3.7421 C   0  0  0  0  0  0  0  0  0  0  0  0
    5.0400    1.9293    2.6309 C   0  0  0  0  0  0  0  0  0  0  0  0
    6.3617    1.7370    0.0137 C   0  0  0  0  0  0  0  0  0  0  0  0
    6.5341    2.0600   -1.4661 C   0  0  0  0  0  0  0  0  0  0  0  0
    5.4272    1.5119   -2.3594 C   0  0  0  0  0  0  0  0  0  0  0  0
    3.2593    1.0665   -4.2491 H   0  0  0  0  0  0  0  0  0  0  0  0
    2.5275    0.4717   -2.7406 H   0  0  0  0  0  0  0  0  0  0  0  0
    1.4879    2.6463   -4.6283 H   0  0  0  0  0  0  0  0  0  0  0  0
    0.7129    1.1301   -4.1610 H   0  0  0  0  0  0  0  0  0  0  0  0
   -0.4299    2.8850   -2.9748 H   0  0  0  0  0  0  0  0  0  0  0  0
    1.0924    3.6711   -2.4943 H   0  0  0  0  0  0  0  0  0  0  0  0
   -0.3700    3.9540   -0.2316 H   0  0  0  0  0  0  0  0  0  0  0  0
   -1.6530    2.7739   -0.6014 H   0  0  0  0  0  0  0  0  0  0  0  0
   -1.8166    3.0865    1.7280 H   0  0  0  0  0  0  0  0  0  0  0  0
   -0.9959    1.5363    1.5545 H   0  0  0  0  0  0  0  0  0  0  0  0
   -0.0983    3.1571    3.3381 H   0  0  0  0  0  0  0  0  0  0  0  0
    0.5146    4.1707    2.0068 H   0  0  0  0  0  0  0  0  0  0  0  0
    3.1365    4.1710    2.6886 H   0  0  0  0  0  0  0  0  0  0  0  0
    2.3975    3.5766    4.1942 H   0  0  0  0  0  0  0  0  0  0  0  0
    4.9398    3.4899    4.1175 H   0  0  0  0  0  0  0  0  0  0  0  0
    4.1532    1.9731    4.5630 H   0  0  0  0  0  0  0  0  0  0  0  0
    4.5575    0.9679    2.4237 H   0  0  0  0  0  0  0  0  0  0  0  0
    6.0797    1.7496    2.9110 H   0  0  0  0  0  0  0  0  0  0  0  0
    7.3072    1.8903    0.5388 H   0  0  0  0  0  0  0  0  0  0  0  0
    6.0292    0.7075    0.1610 H   0  0  0  0  0  0  0  0  0  0  0  0
    6.6317    3.1437   -1.6072 H   0  0  0  0  0  0  0  0  0  0  0  0
    7.4732    1.6063   -1.7930 H   0  0  0  0  0  0  0  0  0  0  0  0
    5.1508    0.4952   -2.0731 H   0  0  0  0  0  0  0  0  0  0  0  0
    5.7554    1.5178   -3.4013 H   0  0  0  0  0  0  0  0  0  0  0  0
  1  3  1  0  0  0  0
  2  1  1  0  0  0  0
  5 11  1  0  0  0  0
  6 13  1  0  0  0  0
  6 14  1  0  0  0  0
  7 16  1  0  0  0  0
  8 21  1  0  0  0  0
  8  4  1  0  0  0  0
  9  8  1  0  0  0  0
  9 10  1  0  0  0  0
 10 25  1  0  0  0  0
 10  5  1  0  0  0  0
 11 12  1  0  0  0  0
 12 29  1  0  0  0  0
 12 28  1  0  0  0  0
 12 13  1  0  0  0  0
 13 30  1  0  0  0  0
 14 15  1  0  0  0  0
 14 33  1  0  0  0  0
 15 34  1  0  0  0  0
 15 35  1  0  0  0  0
 16 37  1  0  0  0  0
 16 15  1  0  0  0  0
 17 39  1  0  0  0  0
 17 38  1  0  0  0  0
 17  7  1  0  0  0  0
 18 17  1  0  0  0  0
 19  4  1  0  0  0  0
 19 42  1  0  0  0  0
 19 18  1  0  0  0  0
 20  8  1  0  0  0  0
 22  9  1  0  0  0  0
 23  9  1  0  0  0  0
 24 10  1  0  0  0  0
 26 11  1  0  0  0  0
 27 11  1  0  0  0  0
 31 13  1  0  0  0  0
 32 14  1  0  0  0  0
 36 16  1  0  0  0  0
 40 18  1  0  0  0  0
 41 18  1  0  0  0  0
 43 19  1  0  0  0  0
M  END
$$$$
