CSD_code = TOMFIK | q = 0 | S = 0 | Stoichiometry = C22H24Cl2N2Zr | MND = 12
 OpenBabel04212202103D

 51 56  0  0  1  0  0  0  0  0999 V2000
    2.2190    2.1360    7.0486 Zr  0  0  0  0  0  0  0  0  0  0  0  0
    0.7671    0.4527    6.2842 Cl  0  0  0  0  0  0  0  0  0  0  0  0
    3.6442    0.4281    7.8095 Cl  0  0  0  0  0  0  0  0  0  0  0  0
    5.4774    2.0686    5.6792 N   0  0  0  0  0  0  0  0  0  0  0  0
   -1.0340    2.0933    8.4350 N   0  0  0  0  0  0  0  0  0  0  0  0
    3.6951    3.7681    5.9984 C   0  0  1  0  0  0  0  0  0  0  0  0
    4.1883    2.5179    5.5117 C   0  0  1  0  0  3  0  0  0  0  0  0
    3.1480    1.8770    4.7821 C   0  0  2  0  0  0  0  0  0  0  0  0
    2.0556    2.7975    4.6680 C   0  0  0  0  0  0  0  0  0  0  0  0
    2.4077    3.9911    5.4055 C   0  0  0  0  0  0  0  0  0  0  0  0
    1.5400    5.0957    5.3864 C   0  0  0  0  0  0  0  0  0  0  0  0
    0.3425    4.9954    4.7135 C   0  0  0  0  0  0  0  0  0  0  0  0
   -0.0230    3.8172    4.0477 C   0  0  0  0  0  0  0  0  0  0  0  0
    0.8176    2.7267    4.0073 C   0  0  0  0  0  0  0  0  0  0  0  0
    5.7867    0.7273    5.2281 C   0  0  0  0  0  0  0  0  0  0  0  0
    6.1698    2.5212    6.8688 C   0  0  0  0  0  0  0  0  0  0  0  0
    0.7560    3.7817    8.1010 C   0  0  1  0  0  0  0  0  0  0  0  0
    0.2584    2.5354    8.5934 C   0  0  1  0  0  3  0  0  0  0  0  0
    1.2994    1.8898    9.3180 C   0  0  2  0  0  0  0  0  0  0  0  0
    2.3977    2.8045    9.4240 C   0  0  0  0  0  0  0  0  0  0  0  0
    2.0472    3.9993    8.6874 C   0  0  0  0  0  0  0  0  0  0  0  0
    2.9189    5.1007    8.7032 C   0  0  0  0  0  0  0  0  0  0  0  0
    4.1192    4.9956    9.3704 C   0  0  0  0  0  0  0  0  0  0  0  0
    4.4840    3.8154   10.0329 C   0  0  0  0  0  0  0  0  0  0  0  0
    3.6394    2.7280   10.0771 C   0  0  0  0  0  0  0  0  0  0  0  0
   -1.3475    0.7530    8.8857 C   0  0  0  0  0  0  0  0  0  0  0  0
   -1.7354    2.5564    7.2548 C   0  0  0  0  0  0  0  0  0  0  0  0
    4.3090    4.5464    6.4308 H   0  0  0  0  0  0  0  0  0  0  0  0
    3.2206    0.9419    4.2407 H   0  0  0  0  0  0  0  0  0  0  0  0
    1.8246    6.0216    5.8685 H   0  0  0  0  0  0  0  0  0  0  0  0
   -0.3270    5.8425    4.6840 H   0  0  0  0  0  0  0  0  0  0  0  0
   -0.9725    3.7799    3.5347 H   0  0  0  0  0  0  0  0  0  0  0  0
    0.5470    1.8382    3.4525 H   0  0  0  0  0  0  0  0  0  0  0  0
    6.8608    0.5703    5.3066 H   0  0  0  0  0  0  0  0  0  0  0  0
    5.5046    0.6295    4.1801 H   0  0  0  0  0  0  0  0  0  0  0  0
    5.2709   -0.0403    5.8164 H   0  0  0  0  0  0  0  0  0  0  0  0
    7.1460    2.0442    6.9145 H   0  0  0  0  0  0  0  0  0  0  0  0
    5.6110    2.2757    7.7860 H   0  0  0  0  0  0  0  0  0  0  0  0
    6.3213    3.6004    6.8238 H   0  0  0  0  0  0  0  0  0  0  0  0
    0.1443    4.5623    7.6697 H   0  0  0  0  0  0  0  0  0  0  0  0
    1.2243    0.9565    9.8621 H   0  0  0  0  0  0  0  0  0  0  0  0
    2.6355    6.0278    8.2229 H   0  0  0  0  0  0  0  0  0  0  0  0
    4.7918    5.8404    9.3975 H   0  0  0  0  0  0  0  0  0  0  0  0
    5.4362    3.7739   10.5405 H   0  0  0  0  0  0  0  0  0  0  0  0
    3.9095    1.8380   10.6300 H   0  0  0  0  0  0  0  0  0  0  0  0
   -2.4228    0.6015    8.8136 H   0  0  0  0  0  0  0  0  0  0  0  0
   -1.0595    0.6517    9.9318 H   0  0  0  0  0  0  0  0  0  0  0  0
   -0.8392   -0.0162    8.2930 H   0  0  0  0  0  0  0  0  0  0  0  0
   -2.7113    2.0788    7.2113 H   0  0  0  0  0  0  0  0  0  0  0  0
   -1.1829    2.3207    6.3313 H   0  0  0  0  0  0  0  0  0  0  0  0
   -1.8877    3.6351    7.3117 H   0  0  0  0  0  0  0  0  0  0  0  0
  1  3  1  0  0  0  0
  1 17  1  0  0  0  0
  1 19  1  0  0  0  0
  2  1  1  0  0  0  0
  4 16  1  0  0  0  0
  5 26  1  0  0  0  0
  6 28  1  1  0  0  0
  6  1  1  0  0  0  0
  7  4  1  6  0  0  0
  7  6  1  0  0  0  0
  8 29  1  6  0  0  0
  8  7  1  0  0  0  0
  8  1  1  0  0  0  0
  9  8  1  0  0  0  0
  9 10  1  0  0  0  0
 10  6  1  0  0  0  0
 11 10  2  0  0  0  0
 11 30  1  0  0  0  0
 12 11  1  0  0  0  0
 13 12  2  0  0  0  0
 14 13  1  0  0  0  0
 14  9  2  0  0  0  0
 15 34  1  0  0  0  0
 15  4  1  0  0  0  0
 15 36  1  0  0  0  0
 16 37  1  0  0  0  0
 16 38  1  0  0  0  0
 17 40  1  6  0  0  0
 17 18  1  0  0  0  0
 17 21  1  0  0  0  0
 18  5  1  1  0  0  0
 18 19  1  0  0  0  0
 19 20  1  0  0  0  0
 19 41  1  1  0  0  0
 20 25  1  0  0  0  0
 21 22  1  0  0  0  0
 21 20  2  0  0  0  0
 22 23  2  0  0  0  0
 23 43  1  0  0  0  0
 23 24  1  0  0  0  0
 24 25  2  0  0  0  0
 24 44  1  0  0  0  0
 25 45  1  0  0  0  0
 26 47  1  0  0  0  0
 27 51  1  0  0  0  0
 27  5  1  0  0  0  0
 31 12  1  0  0  0  0
 32 13  1  0  0  0  0
 33 14  1  0  0  0  0
 35 15  1  0  0  0  0
 39 16  1  0  0  0  0
 42 22  1  0  0  0  0
 46 26  1  0  0  0  0
 48 26  1  0  0  0  0
 49 27  1  0  0  0  0
 50 27  1  0  0  0  0
M  END
$$$$
