CSD_code = TOMHEI | q = 0 | S = 0 | Stoichiometry = C13H23Cl2O3OsP | MND = 9
 OpenBabel04212202103D

 43 43  0  0  1  0  0  0  0  0999 V2000
    3.9669    1.2788    3.6085 Os  0  0  0  0  0  0  0  0  0  0  0  0
    4.4607    2.7185    1.8399 Cl  0  0  0  0  0  0  0  0  0  0  0  0
    3.3546    3.1074    4.9031 Cl  0  0  0  0  0  0  0  0  0  0  0  0
    1.8835    1.2974    2.7490 P   0  0  0  0  0  4  0  0  0  0  0  0
    1.6845    1.0392    1.1581 O   0  0  0  0  0  0  0  0  0  0  0  0
    0.8628    2.5040    2.8847 O   0  0  0  0  0  0  0  0  0  0  0  0
    1.0278    0.1241    3.4358 O   0  0  0  0  0  0  0  0  0  0  0  0
    4.3726   -0.1725    5.4510 C   0  0  2  0  0  3  0  0  0  0  0  0
    3.9812   -0.9639    4.3619 C   0  0  0  0  0  0  0  0  0  0  0  0
    4.7141   -0.9654    3.1503 C   0  0  0  0  0  0  0  0  0  0  0  0
    5.8198   -0.1267    2.9814 C   0  0  0  0  0  0  0  0  0  0  0  0
    6.1963    0.7142    4.0630 C   0  0  0  0  0  0  0  0  0  0  0  0
    5.4849    0.6882    5.2647 C   0  0  1  0  0  0  0  0  0  0  0  0
    3.6806   -0.2587    6.7893 C   0  0  0  0  0  0  0  0  0  0  0  0
    3.8985   -1.6451    7.4041 C   0  0  0  0  0  0  0  0  0  0  0  0
    2.1899    0.0626    6.6680 C   0  0  0  0  0  0  0  0  0  0  0  0
    6.6130   -0.1084    1.7126 C   0  0  0  0  0  0  0  0  0  0  0  0
    2.5972    0.2933    0.3730 C   0  0  0  0  0  0  0  0  0  0  0  0
    1.2158    3.8089    2.4196 C   0  0  0  0  0  0  0  0  0  0  0  0
   -0.3618   -0.0175    3.1474 C   0  0  0  0  0  0  0  0  0  0  0  0
    3.1576   -1.6571    4.4703 H   0  0  0  0  0  0  0  0  0  0  0  0
    4.4404   -1.6588    2.3650 H   0  0  0  0  0  0  0  0  0  0  0  0
    7.0778    1.3359    3.9666 H   0  0  0  0  0  0  0  0  0  0  0  0
    5.8258    1.2929    6.0978 H   0  0  0  0  0  0  0  0  0  0  0  0
    4.1327    0.4874    7.4523 H   0  0  0  0  0  0  0  0  0  0  0  0
    4.9609   -1.8685    7.4854 H   0  0  0  0  0  0  0  0  0  0  0  0
    3.4625   -1.6816    8.3994 H   0  0  0  0  0  0  0  0  0  0  0  0
    3.4293   -2.4161    6.7969 H   0  0  0  0  0  0  0  0  0  0  0  0
    1.6798   -0.6628    6.0395 H   0  0  0  0  0  0  0  0  0  0  0  0
    1.7280    0.0555    7.6523 H   0  0  0  0  0  0  0  0  0  0  0  0
    2.0566    1.0493    6.2280 H   0  0  0  0  0  0  0  0  0  0  0  0
    6.4663    0.8498    1.2095 H   0  0  0  0  0  0  0  0  0  0  0  0
    7.6759   -0.2154    1.9242 H   0  0  0  0  0  0  0  0  0  0  0  0
    6.3006   -0.9045    1.0405 H   0  0  0  0  0  0  0  0  0  0  0  0
    2.5567   -0.7671    0.6320 H   0  0  0  0  0  0  0  0  0  0  0  0
    2.2906    0.4284   -0.6636 H   0  0  0  0  0  0  0  0  0  0  0  0
    3.6112    0.6772    0.5062 H   0  0  0  0  0  0  0  0  0  0  0  0
    1.4881    3.7770    1.3649 H   0  0  0  0  0  0  0  0  0  0  0  0
    0.3335    4.4288    2.5671 H   0  0  0  0  0  0  0  0  0  0  0  0
    2.0515    4.1998    3.0024 H   0  0  0  0  0  0  0  0  0  0  0  0
   -0.9370    0.7107    3.7173 H   0  0  0  0  0  0  0  0  0  0  0  0
   -0.6400   -1.0284    3.4438 H   0  0  0  0  0  0  0  0  0  0  0  0
   -0.5498    0.1269    2.0832 H   0  0  0  0  0  0  0  0  0  0  0  0
  1  3  1  0  0  0  0
  1 13  1  0  0  0  0
  2  1  1  0  0  0  0
  4  6  1  0  0  0  0
  4  7  1  0  0  0  0
  4  1  1  0  0  0  0
  5  4  1  0  0  0  0
  8 14  1  1  0  0  0
  9 21  1  0  0  0  0
  9  8  1  0  0  0  0
 10  9  2  0  0  0  0
 11 10  1  0  0  0  0
 11 12  2  0  0  0  0
 12 13  1  0  0  0  0
 13  8  1  0  0  0  0
 13 24  1  1  0  0  0
 14 15  1  0  0  0  0
 14 25  1  0  0  0  0
 15 26  1  0  0  0  0
 15 27  1  0  0  0  0
 16 14  1  0  0  0  0
 16 30  1  0  0  0  0
 17 33  1  0  0  0  0
 17 11  1  0  0  0  0
 18 37  1  0  0  0  0
 18 35  1  0  0  0  0
 18  5  1  0  0  0  0
 19 39  1  0  0  0  0
 19  6  1  0  0  0  0
 19 40  1  0  0  0  0
 20  7  1  0  0  0  0
 20 42  1  0  0  0  0
 20 41  1  0  0  0  0
 22 10  1  0  0  0  0
 23 12  1  0  0  0  0
 28 15  1  0  0  0  0
 29 16  1  0  0  0  0
 31 16  1  0  0  0  0
 32 17  1  0  0  0  0
 34 17  1  0  0  0  0
 36 18  1  0  0  0  0
 38 19  1  0  0  0  0
 43 20  1  0  0  0  0
M  END
$$$$
