CSD_code = TONPIW | q = 0 | S = 0 | Stoichiometry = C29H27ClNO2RhS | MND = 4
 OpenBabel04212202103D

 62 65  0  0  0  0  0  0  0  0999 V2000
    2.7956    1.9954    3.7009 C   0  0  0  0  0  0  0  0  0  0  0  0
    4.2847    2.0485    2.3156 Rh  0  0  0  0  0  0  0  0  0  0  0  0
    2.9008    3.3275    1.0662 Cl  0  0  0  0  0  0  0  0  0  0  0  0
    5.5028    2.1611    0.9142 C   0  0  0  0  0  2  0  0  0  0  0  0
    6.1672    2.2423   -0.0146 O   0  0  0  0  0  1  0  0  0  0  0  0
    5.3239    0.9317    3.3351 C   0  0  0  0  0  2  0  0  0  0  0  0
    5.9915    0.2074    3.9281 O   0  0  0  0  0  1  0  0  0  0  0  0
    2.9329    2.2178    5.0425 N   0  0  0  0  0  0  0  0  0  0  0  0
    1.7186    2.2962    5.6673 C   0  0  0  0  0  0  0  0  0  0  0  0
    1.6472    2.4987    6.7185 H   0  0  0  0  0  0  0  0  0  0  0  0
    0.7361    2.1219    4.7404 C   0  0  0  0  0  0  0  0  0  0  0  0
   -0.3231    2.1368    4.9051 H   0  0  0  0  0  0  0  0  0  0  0  0
    1.4120    1.9225    3.5114 C   0  0  0  0  0  0  0  0  0  0  0  0
    0.6884    1.6765    1.9347 S   0  0  0  0  0  3  0  0  0  0  0  0
    4.1681    2.3326    5.7282 C   0  0  0  0  0  0  0  0  0  0  0  0
    4.5493    1.3213    6.6130 C   0  0  0  0  0  0  0  0  0  0  0  0
    5.7486    1.4491    7.2943 C   0  0  0  0  0  0  0  0  0  0  0  0
    6.0532    0.6671    7.9753 H   0  0  0  0  0  0  0  0  0  0  0  0
    6.5740    2.5497    7.1099 C   0  0  0  0  0  0  0  0  0  0  0  0
    6.1802    3.5338    6.2164 C   0  0  0  0  0  0  0  0  0  0  0  0
    6.8192    4.3902    6.0546 H   0  0  0  0  0  0  0  0  0  0  0  0
    4.9862    3.4449    5.5159 C   0  0  0  0  0  0  0  0  0  0  0  0
    3.6932    0.1036    6.7964 C   0  0  0  0  0  0  0  0  0  0  0  0
    2.8246    0.3270    7.4160 H   0  0  0  0  0  0  0  0  0  0  0  0
    4.2610   -0.6890    7.2768 H   0  0  0  0  0  0  0  0  0  0  0  0
    3.3350   -0.2562    5.8327 H   0  0  0  0  0  0  0  0  0  0  0  0
    7.8589    2.6678    7.8719 C   0  0  0  0  0  0  0  0  0  0  0  0
    8.3660    1.7066    7.9209 H   0  0  0  0  0  0  0  0  0  0  0  0
    7.6592    2.9937    8.8932 H   0  0  0  0  0  0  0  0  0  0  0  0
    8.5217    3.3927    7.4063 H   0  0  0  0  0  0  0  0  0  0  0  0
    4.5944    4.5067    4.5348 C   0  0  0  0  0  0  0  0  0  0  0  0
    5.2419    5.3749    4.6240 H   0  0  0  0  0  0  0  0  0  0  0  0
    3.5594    4.8134    4.6816 H   0  0  0  0  0  0  0  0  0  0  0  0
    4.6831    4.1089    3.5028 H   0  0  0  0  0  0  0  0  0  0  0  0
   -0.3429    0.2110    2.1993 C   0  0  0  0  0  0  0  0  0  0  0  0
   -0.1070   -0.6626    3.2442 C   0  0  0  0  0  0  0  0  0  0  0  0
    0.6638   -0.4446    3.9674 H   0  0  0  0  0  0  0  0  0  0  0  0
   -0.8706   -1.8123    3.3586 C   0  0  0  0  0  0  0  0  0  0  0  0
   -0.6876   -2.4880    4.1811 H   0  0  0  0  0  0  0  0  0  0  0  0
   -1.8603   -2.1085    2.4312 C   0  0  0  0  0  0  0  0  0  0  0  0
   -2.0669   -1.2279    1.3719 C   0  0  0  0  0  0  0  0  0  0  0  0
   -2.8261   -1.4499    0.6363 H   0  0  0  0  0  0  0  0  0  0  0  0
   -1.3097   -0.0804    1.2469 C   0  0  0  0  0  0  0  0  0  0  0  0
   -1.4709    0.5971    0.4215 H   0  0  0  0  0  0  0  0  0  0  0  0
   -2.6915   -3.3475    2.5497 C   0  0  0  0  0  0  0  0  0  0  0  0
   -2.3954   -3.9364    3.4135 H   0  0  0  0  0  0  0  0  0  0  0  0
   -2.5846   -3.9604    1.6559 H   0  0  0  0  0  0  0  0  0  0  0  0
   -3.7450   -3.0882    2.6485 H   0  0  0  0  0  0  0  0  0  0  0  0
   -0.5964    2.9467    1.9759 C   0  0  0  0  0  0  0  0  0  0  0  0
   -0.3040    4.1537    1.3628 C   0  0  0  0  0  0  0  0  0  0  0  0
    0.6545    4.2836    0.8836 H   0  0  0  0  0  0  0  0  0  0  0  0
   -1.2354    5.1745    1.3972 C   0  0  0  0  0  0  0  0  0  0  0  0
   -1.0073    6.1158    0.9201 H   0  0  0  0  0  0  0  0  0  0  0  0
   -2.4590    5.0065    2.0367 C   0  0  0  0  0  0  0  0  0  0  0  0
   -2.7290    3.7862    2.6446 C   0  0  0  0  0  0  0  0  0  0  0  0
   -3.6732    3.6363    3.1481 H   0  0  0  0  0  0  0  0  0  0  0  0
   -1.8074    2.7547    2.6187 C   0  0  0  0  0  0  0  0  0  0  0  0
   -2.0425    1.8128    3.0913 H   0  0  0  0  0  0  0  0  0  0  0  0
   -3.4518    6.1254    2.0885 C   0  0  0  0  0  0  0  0  0  0  0  0
   -4.4600    5.7475    2.2392 H   0  0  0  0  0  0  0  0  0  0  0  0
   -3.4237    6.7092    1.1715 H   0  0  0  0  0  0  0  0  0  0  0  0
   -3.2123    6.7926    2.9169 H   0  0  0  0  0  0  0  0  0  0  0  0
  1  8  1  0  0  0  0
  2  6  1  0  0  0  0
  2  1  1  0  0  0  0
  3  2  1  0  0  0  0
  4  2  1  0  0  0  0
  5  4  1  0  0  0  0
  6  7  1  0  0  0  0
  8  9  1  0  0  0  0
  8 15  1  0  0  0  0
  9 10  1  0  0  0  0
 11 12  1  0  0  0  0
 11  9  2  0  0  0  0
 13  1  2  0  0  0  0
 13 11  1  0  0  0  0
 14 49  1  0  0  0  0
 14 35  1  0  0  0  0
 14 13  1  0  0  0  0
 15 16  1  0  0  0  0
 16 23  1  0  0  0  0
 16 17  2  0  0  0  0
 17 18  1  0  0  0  0
 19 17  1  0  0  0  0
 19 27  1  0  0  0  0
 20 19  2  0  0  0  0
 21 20  1  0  0  0  0
 22 15  2  0  0  0  0
 22 20  1  0  0  0  0
 23 25  1  0  0  0  0
 23 24  1  0  0  0  0
 26 23  1  0  0  0  0
 27 28  1  0  0  0  0
 27 29  1  0  0  0  0
 30 27  1  0  0  0  0
 31 32  1  0  0  0  0
 31 33  1  0  0  0  0
 31 22  1  0  0  0  0
 34 31  1  0  0  0  0
 35 36  1  0  0  0  0
 36 38  2  0  0  0  0
 36 37  1  0  0  0  0
 38 39  1  0  0  0  0
 40 45  1  0  0  0  0
 40 38  1  0  0  0  0
 41 40  2  0  0  0  0
 42 41  1  0  0  0  0
 43 41  1  0  0  0  0
 43 35  2  0  0  0  0
 44 43  1  0  0  0  0
 45 48  1  0  0  0  0
 45 46  1  0  0  0  0
 47 45  1  0  0  0  0
 49 57  1  0  0  0  0
 50 52  1  0  0  0  0
 50 49  2  0  0  0  0
 51 50  1  0  0  0  0
 52 54  2  0  0  0  0
 53 52  1  0  0  0  0
 54 59  1  0  0  0  0
 54 55  1  0  0  0  0
 55 56  1  0  0  0  0
 57 55  2  0  0  0  0
 57 58  1  0  0  0  0
 59 60  1  0  0  0  0
 59 62  1  0  0  0  0
 61 59  1  0  0  0  0
M  END
$$$$
