CSD_code = TONRUJ | q = 0 | S = 0 | Stoichiometry = C20H30Cl2N4O8P2PdS2 | MND = 4
 OpenBabel04212202103D

 69 70  0  0  0  0  0  0  0  0999 V2000
    3.5616   -0.0011    6.8187 Pd  0  0  0  0  0  0  0  0  0  0  0  0
    3.7561    1.5375    5.1109 Cl  0  0  0  0  0  0  0  0  0  0  0  0
    2.8070    1.6519    8.3276 S   0  0  0  0  0  0  0  0  0  0  0  0
    4.6143    2.4529    8.1644 P   0  0  0  0  0  4  0  0  0  0  0  0
    4.7031    3.6169    6.9791 N   0  0  0  0  0  0  0  0  0  0  0  0
    5.8315    4.3460    6.6250 C   0  0  0  0  0  0  0  0  0  0  0  0
    6.9310    4.4694    7.4739 C   0  0  0  0  0  0  0  0  0  0  0  0
    8.0065    5.2465    7.1038 C   0  0  0  0  0  0  0  0  0  0  0  0
    7.9919    5.9076    5.8799 C   0  0  0  0  0  0  0  0  0  0  0  0
    9.1099    6.7208    5.4993 N   0  0  0  0  0  0  0  0  0  0  0  0
   10.0415    6.7997    6.2747 O   0  0  0  0  0  0  0  0  0  0  0  0
    9.0591    7.2868    4.4264 O   0  0  0  0  0  0  0  0  0  0  0  0
    6.9044    5.7819    5.0194 C   0  0  0  0  0  0  0  0  0  0  0  0
    5.8320    5.0043    5.3913 C   0  0  0  0  0  0  0  0  0  0  0  0
    5.0178    3.1558    9.5349 O   0  0  0  0  0  0  0  0  0  0  0  0
    4.0694    3.8143   10.3836 C   0  0  0  0  0  0  0  0  0  0  0  0
    3.7141    2.9297   11.5644 C   0  0  0  0  0  0  0  0  0  0  0  0
    5.8532    1.5075    7.9138 O   0  0  0  0  0  0  0  0  0  0  0  0
    6.2250    0.4557    8.8357 C   0  0  0  0  0  0  0  0  0  0  0  0
    6.7903   -0.6842    8.0125 C   0  0  0  0  0  0  0  0  0  0  0  0
    4.1021    3.3808    6.1801 H   0  0  0  0  0  0  0  0  0  0  0  0
    6.9387    3.9474    8.4164 H   0  0  0  0  0  0  0  0  0  0  0  0
    8.8668    5.3522    7.7467 H   0  0  0  0  0  0  0  0  0  0  0  0
    6.9225    6.2953    4.0704 H   0  0  0  0  0  0  0  0  0  0  0  0
    4.9875    4.8864    4.7301 H   0  0  0  0  0  0  0  0  0  0  0  0
    3.1746    4.0681    9.8095 H   0  0  0  0  0  0  0  0  0  0  0  0
    4.5596    4.7338   10.7125 H   0  0  0  0  0  0  0  0  0  0  0  0
    3.0441    3.4652   12.2304 H   0  0  0  0  0  0  0  0  0  0  0  0
    3.2181    2.0260   11.2185 H   0  0  0  0  0  0  0  0  0  0  0  0
    4.6125    2.6532   12.1098 H   0  0  0  0  0  0  0  0  0  0  0  0
    5.3407    0.1236    9.3961 H   0  0  0  0  0  0  0  0  0  0  0  0
    6.9611    0.8688    9.5308 H   0  0  0  0  0  0  0  0  0  0  0  0
    7.0371   -1.5199    8.6605 H   0  0  0  0  0  0  0  0  0  0  0  0
    6.0351   -1.0088    7.2846 H   0  0  0  0  0  0  0  0  0  0  0  0
    7.6774   -0.3606    7.4746 H   0  0  0  0  0  0  0  0  0  0  0  0
    3.3688   -1.5381    8.5271 Cl  0  0  0  0  0  0  0  0  0  0  0  0
    4.3150   -1.6544    5.3097 S   0  0  0  0  0  0  0  0  0  0  0  0
    2.5071   -2.4536    5.4727 P   0  0  0  0  0  4  0  0  0  0  0  0
    2.4174   -3.6156    6.6598 N   0  0  0  0  0  0  0  0  0  0  0  0
    1.2894   -4.3447    7.0148 C   0  0  0  0  0  0  0  0  0  0  0  0
    0.1890   -4.4681    6.1671 C   0  0  0  0  0  0  0  0  0  0  0  0
   -0.8860   -5.2455    6.5383 C   0  0  0  0  0  0  0  0  0  0  0  0
   -0.8698   -5.9068    7.7621 C   0  0  0  0  0  0  0  0  0  0  0  0
   -1.9870   -6.7208    8.1436 N   0  0  0  0  0  0  0  0  0  0  0  0
   -2.9198   -6.7993    7.3695 O   0  0  0  0  0  0  0  0  0  0  0  0
   -1.9348   -7.2870    9.2164 O   0  0  0  0  0  0  0  0  0  0  0  0
    0.2184   -5.7809    8.6215 C   0  0  0  0  0  0  0  0  0  0  0  0
    1.2903   -5.0031    8.2486 C   0  0  0  0  0  0  0  0  0  0  0  0
    2.1354   -4.8850    8.9089 H   0  0  0  0  0  0  0  0  0  0  0  0
    0.2015   -6.2944    9.5705 H   0  0  0  0  0  0  0  0  0  0  0  0
   -1.7470   -5.3512    5.8963 H   0  0  0  0  0  0  0  0  0  0  0  0
    0.1803   -3.9460    5.2248 H   0  0  0  0  0  0  0  0  0  0  0  0
    3.0186   -3.3783    7.4586 H   0  0  0  0  0  0  0  0  0  0  0  0
    2.1030   -3.1578    4.1032 O   0  0  0  0  0  0  0  0  0  0  0  0
    3.0506   -3.8175    3.2545 C   0  0  0  0  0  0  0  0  0  0  0  0
    3.4118   -2.9317    2.0766 C   0  0  0  0  0  0  0  0  0  0  0  0
    4.0804   -3.4686    1.4102 H   0  0  0  0  0  0  0  0  0  0  0  0
    3.9112   -2.0313    2.4255 H   0  0  0  0  0  0  0  0  0  0  0  0
    2.5157   -2.6498    1.5307 H   0  0  0  0  0  0  0  0  0  0  0  0
    3.9430   -4.0764    3.8295 H   0  0  0  0  0  0  0  0  0  0  0  0
    2.5574   -4.7340    2.9222 H   0  0  0  0  0  0  0  0  0  0  0  0
    1.2692   -1.5064    5.7219 O   0  0  0  0  0  0  0  0  0  0  0  0
    0.8996   -0.4552    4.7984 C   0  0  0  0  0  0  0  0  0  0  0  0
    0.3345    0.6863    5.6196 C   0  0  0  0  0  0  0  0  0  0  0  0
    0.0912    1.5222    4.9706 H   0  0  0  0  0  0  0  0  0  0  0  0
    1.0883    1.0095    6.3494 H   0  0  0  0  0  0  0  0  0  0  0  0
   -0.5548    0.3649    6.1553 H   0  0  0  0  0  0  0  0  0  0  0  0
    1.7850   -0.1246    4.2388 H   0  0  0  0  0  0  0  0  0  0  0  0
    0.1640   -0.8683    4.1028 H   0  0  0  0  0  0  0  0  0  0  0  0
  1  3  1  0  0  0  0
  1 36  1  0  0  0  0
  2  1  1  0  0  0  0
  4  3  1  0  0  0  0
  4 15  1  0  0  0  0
  5  4  1  0  0  0  0
  6  5  1  0  0  0  0
  6  7  1  0  0  0  0
  7 22  1  0  0  0  0
  8  7  2  0  0  0  0
  8 23  1  0  0  0  0
  9  8  1  0  0  0  0
 10  9  1  0  0  0  0
 10 11  2  0  0  0  0
 12 10  2  0  0  0  0
 13 14  1  0  0  0  0
 13  9  2  0  0  0  0
 14  6  2  0  0  0  0
 15 16  1  0  0  0  0
 16 27  1  0  0  0  0
 16 17  1  0  0  0  0
 17 30  1  0  0  0  0
 17 28  1  0  0  0  0
 18  4  1  0  0  0  0
 18 19  1  0  0  0  0
 19 31  1  0  0  0  0
 19 32  1  0  0  0  0
 20 33  1  0  0  0  0
 20 19  1  0  0  0  0
 21  5  1  0  0  0  0
 24 13  1  0  0  0  0
 25 14  1  0  0  0  0
 26 16  1  0  0  0  0
 29 17  1  0  0  0  0
 34 20  1  0  0  0  0
 35 20  1  0  0  0  0
 37 38  1  0  0  0  0
 37  1  1  0  0  0  0
 38 62  1  0  0  0  0
 38 39  1  0  0  0  0
 39 40  1  0  0  0  0
 39 53  1  0  0  0  0
 40 48  1  0  0  0  0
 41 42  1  0  0  0  0
 41 40  2  0  0  0  0
 42 43  2  0  0  0  0
 43 44  1  0  0  0  0
 43 47  1  0  0  0  0
 44 46  2  0  0  0  0
 45 44  2  0  0  0  0
 47 50  1  0  0  0  0
 48 47  2  0  0  0  0
 48 49  1  0  0  0  0
 51 42  1  0  0  0  0
 52 41  1  0  0  0  0
 54 38  1  0  0  0  0
 55 60  1  0  0  0  0
 55 54  1  0  0  0  0
 56 58  1  0  0  0  0
 56 55  1  0  0  0  0
 57 56  1  0  0  0  0
 59 56  1  0  0  0  0
 61 55  1  0  0  0  0
 63 64  1  0  0  0  0
 63 62  1  0  0  0  0
 64 67  1  0  0  0  0
 64 66  1  0  0  0  0
 65 64  1  0  0  0  0
 68 63  1  0  0  0  0
 69 63  1  0  0  0  0
M  END
$$$$
