CSD_code = TOPVUP | q = 0 | S = 0 | Stoichiometry = C14H20Cl2Si2Zr | MND = 12
 OpenBabel04212202103D

 39 41  0  0  1  0  0  0  0  0999 V2000
   -1.1101    4.2366   14.7497 Zr  0  0  0  0  0  0  0  0  0  0  0  0
   -0.3973    5.2413   16.7470 Cl  0  0  0  0  0  0  0  0  0  0  0  0
   -0.8756    2.0866   15.6432 Cl  0  0  0  0  0  0  0  0  0  0  0  0
   -3.1006    2.1884   12.8156 Si  0  0  0  0  0  0  0  0  0  0  0  0
   -0.8225    2.1041   12.0521 Si  0  0  0  0  0  0  0  0  0  0  0  0
   -3.6376    0.6543   13.8175 C   0  0  0  0  0  0  0  0  0  0  0  0
   -4.3077    2.4080   11.3412 C   0  0  0  0  0  0  0  0  0  0  0  0
    0.1163    0.5242   12.5699 C   0  0  0  0  0  0  0  0  0  0  0  0
   -0.7348    2.2612   10.1425 C   0  0  0  0  0  0  0  0  0  0  0  0
   -3.2841    3.7103   13.9192 C   0  0  1  0  0  0  0  0  0  0  0  0
   -3.4392    3.7261   15.3365 C   0  0  0  0  0  0  0  0  0  0  0  0
   -3.3082    5.0493   15.7922 C   0  0  0  0  0  0  0  0  0  0  0  0
   -3.0535    5.8776   14.6744 C   0  0  0  0  0  0  0  0  0  0  0  0
   -3.0602    5.0620   13.5231 C   0  0  0  0  0  0  0  0  0  0  0  0
    0.0755    3.5981   12.7792 C   0  0  1  0  0  0  0  0  0  0  0  0
   -0.2755    4.9635   12.5656 C   0  0  0  0  0  0  0  0  0  0  0  0
    0.4618    5.7676   13.4605 C   0  0  0  0  0  0  0  0  0  0  0  0
    1.3028    4.9160   14.2139 C   0  0  0  0  0  0  0  0  0  0  0  0
    1.0625    3.5916   13.8082 C   0  0  0  0  0  0  0  0  0  0  0  0
   -2.9810    0.5027   14.6686 H   0  0  0  0  0  0  0  0  0  0  0  0
   -3.5983   -0.2406   13.2054 H   0  0  0  0  0  0  0  0  0  0  0  0
   -4.6543    0.7532   14.1873 H   0  0  0  0  0  0  0  0  0  0  0  0
   -4.0836    3.2969   10.7607 H   0  0  0  0  0  0  0  0  0  0  0  0
   -5.3370    2.4873   11.6766 H   0  0  0  0  0  0  0  0  0  0  0  0
   -4.2456    1.5582   10.6708 H   0  0  0  0  0  0  0  0  0  0  0  0
    0.0966    0.4010   13.6483 H   0  0  0  0  0  0  0  0  0  0  0  0
    1.1545    0.5533   12.2514 H   0  0  0  0  0  0  0  0  0  0  0  0
   -0.3364   -0.3569   12.1275 H   0  0  0  0  0  0  0  0  0  0  0  0
   -1.2339    1.4225    9.6702 H   0  0  0  0  0  0  0  0  0  0  0  0
    0.2918    2.2732    9.7901 H   0  0  0  0  0  0  0  0  0  0  0  0
   -1.2137    3.1671    9.7859 H   0  0  0  0  0  0  0  0  0  0  0  0
   -3.7104    2.8716   15.9465 H   0  0  0  0  0  0  0  0  0  0  0  0
   -3.4499    5.3900   16.8107 H   0  0  0  0  0  0  0  0  0  0  0  0
   -3.0004    6.9603   14.6922 H   0  0  0  0  0  0  0  0  0  0  0  0
   -3.0829    5.4219   12.5016 H   0  0  0  0  0  0  0  0  0  0  0  0
   -0.8629    5.3301   11.7326 H   0  0  0  0  0  0  0  0  0  0  0  0
    0.4849    6.8514   13.4776 H   0  0  0  0  0  0  0  0  0  0  0  0
    2.0530    5.2388   14.9255 H   0  0  0  0  0  0  0  0  0  0  0  0
    1.6058    2.7174   14.1497 H   0  0  0  0  0  0  0  0  0  0  0  0
  1  3  1  0  0  0  0
  1  2  1  0  0  0  0
  4  6  1  0  0  0  0
  4 10  1  0  0  0  0
  5  8  1  0  0  0  0
  5 15  1  0  0  0  0
  5  4  1  0  0  0  0
  6 22  1  0  0  0  0
  6 20  1  0  0  0  0
  7 24  1  0  0  0  0
  7  4  1  0  0  0  0
  8 26  1  0  0  0  0
  9  5  1  0  0  0  0
 10 14  1  6  0  0  0
 10  1  1  0  0  0  0
 10 11  1  0  0  0  0
 11 12  2  0  0  0  0
 11 32  1  0  0  0  0
 12 33  1  0  0  0  0
 13 34  1  0  0  0  0
 13 12  1  0  0  0  0
 14 13  2  0  0  0  0
 15 16  1  6  0  0  0
 15 19  1  0  0  0  0
 15  1  1  0  0  0  0
 16 17  2  0  0  0  0
 17 37  1  0  0  0  0
 17 18  1  0  0  0  0
 18 38  1  0  0  0  0
 19 39  1  0  0  0  0
 19 18  2  0  0  0  0
 21  6  1  0  0  0  0
 23  7  1  0  0  0  0
 25  7  1  0  0  0  0
 27  8  1  0  0  0  0
 28  8  1  0  0  0  0
 29  9  1  0  0  0  0
 30  9  1  0  0  0  0
 31  9  1  0  0  0  0
 35 14  1  0  0  0  0
 36 16  1  0  0  0  0
M  END
$$$$
