CSD_code = TOPVIE | q = 0 | S = 0 | Stoichiometry = C6H8Cl2N2O2Pt | MND = 4
 OpenBabel04212202103D

 21 21  0  0  0  0  0  0  0  0999 V2000
    3.3434    3.3627    4.3537 C   0  0  0  0  0  3  0  0  0  0  0  0
    4.3786    3.0456    4.4100 H   0  0  0  0  0  0  0  0  0  0  0  0
    2.9258    4.5295    4.9800 C   0  0  0  0  0  0  0  0  0  0  0  0
    1.5838    4.8996    4.9039 C   0  0  0  0  0  0  0  0  0  0  0  0
    1.2544    5.8033    5.3926 H   0  0  0  0  0  0  0  0  0  0  0  0
    0.7185    4.0827    4.1963 C   0  0  0  0  0  0  0  0  0  0  0  0
   -0.3279    4.3264    4.1076 H   0  0  0  0  0  0  0  0  0  0  0  0
    1.2120    2.9389    3.5954 C   0  0  0  0  0  0  0  0  0  0  0  0
    0.5663    2.2821    3.0233 H   0  0  0  0  0  0  0  0  0  0  0  0
    3.8739    5.3905    5.7391 C   0  0  0  0  0  0  0  0  0  0  0  0
    3.7868   -0.7723    1.9415 N   0  0  0  0  0  4  0  0  0  0  0  0
    4.7510   -0.6510    1.6263 H   0  0  0  0  0  0  0  0  0  0  0  0
    3.2070   -0.9946    1.1301 H   0  0  0  0  0  0  0  0  0  0  0  0
    3.7573   -1.5356    2.6209 H   0  0  0  0  0  0  0  0  0  0  0  0
    2.4999    2.5840    3.6749 N   0  0  0  0  0  0  0  0  0  0  0  0
    5.1297    4.9422    5.7014 O   0  0  0  0  0  0  0  0  0  0  0  0
    5.7121    5.5240    6.2155 H   0  0  0  0  0  0  0  0  0  0  0  0
    3.5484    6.3883    6.3267 O   0  0  0  0  0  0  0  0  0  0  0  0
    3.1212    0.9657    2.8345 Pt  0  0  0  0  0  0  0  0  0  0  0  0
    2.6052    1.7910    0.7458 Cl  0  0  0  0  0  0  0  0  0  0  0  0
    3.6445    0.0451    4.8815 Cl  0  0  0  0  0  0  0  0  0  0  0  0
  1  2  1  0  0  0  0
  1  3  1  0  0  0  0
  3 10  1  0  0  0  0
  4  3  2  0  0  0  0
  4  5  1  0  0  0  0
  6  4  1  0  0  0  0
  7  6  1  0  0  0  0
  8 15  1  0  0  0  0
  8  6  2  0  0  0  0
  9  8  1  0  0  0  0
 10 18  2  0  0  0  0
 11 14  1  0  0  0  0
 11 19  1  0  0  0  0
 12 11  1  0  0  0  0
 13 11  1  0  0  0  0
 15  1  1  0  0  0  0
 16 10  1  0  0  0  0
 16 17  1  0  0  0  0
 19 15  1  0  0  0  0
 19 21  1  0  0  0  0
 20 19  1  0  0  0  0
M  END
$$$$
