CSD_code = TOPYED | q = 0 | S = 0 | Stoichiometry = C10H17ClN2Pd | MND = 5
 OpenBabel04212202103D

 31 30  0  0  1  0  0  0  0  0999 V2000
    5.3177    6.7382    8.5398 Pd  0  0  0  0  0  0  0  0  0  0  0  0
    5.8929    6.4726    6.3474 Cl  0  0  0  0  0 15  0  0  0  0  0  0
    7.9859    5.3903    8.9016 N   0  0  0  0  0  0  0  0  0  0  0  0
    4.4077    7.1211   10.3951 C   0  0  0  0  0  3  0  0  0  0  0  0
    3.5742    6.4154   10.4174 H   0  0  0  0  0  0  0  0  0  0  0  0
    4.9163    7.2298   11.3471 H   0  0  0  0  0  0  0  0  0  0  0  0
    6.4165    3.9462    8.6677 N   0  0  0  0  0  0  0  0  0  0  0  0
    4.2966    8.2594    9.5637 C   0  0  0  0  0  0  0  0  0  0  0  0
    4.8548    9.1631    9.8150 H   0  0  0  0  0  0  0  0  0  0  0  0
    3.7202    8.1340    8.2967 C   0  0  0  0  0  3  0  0  0  0  0  0
    2.8976    7.4230    8.1487 H   0  0  0  0  0  0  0  0  0  0  0  0
    3.7011    8.9963    7.6369 H   0  0  0  0  0  0  0  0  0  0  0  0
    6.6509    5.2558    8.8509 C   0  0  2  0  0  3  0  0  0  0  0  0
    8.6006    4.1634    8.7605 C   0  0  0  0  0  0  0  0  0  0  0  0
    7.6040    3.2464    8.6123 C   0  0  0  0  0  0  0  0  0  0  0  0
    8.6443    6.6644    8.9989 C   0  0  0  0  0  0  0  0  0  0  0  0
    7.8626    7.4430    8.9823 H   0  0  0  0  0  0  0  0  0  0  0  0
    9.3058    6.8142    8.1444 H   0  0  0  0  0  0  0  0  0  0  0  0
    9.2222    6.7392    9.9229 H   0  0  0  0  0  0  0  0  0  0  0  0
   10.0783    4.0163    8.7755 C   0  0  0  0  0  0  0  0  0  0  0  0
   10.3525    2.9684    8.7001 H   0  0  0  0  0  0  0  0  0  0  0  0
   10.4972    4.4215    9.6964 H   0  0  0  0  0  0  0  0  0  0  0  0
   10.5226    4.5515    7.9366 H   0  0  0  0  0  0  0  0  0  0  0  0
    7.6432    1.7754    8.4120 C   0  0  0  0  0  0  0  0  0  0  0  0
    8.6674    1.4176    8.4542 H   0  0  0  0  0  0  0  0  0  0  0  0
    7.2249    1.5122    7.4406 H   0  0  0  0  0  0  0  0  0  0  0  0
    7.0628    1.2656    9.1805 H   0  0  0  0  0  0  0  0  0  0  0  0
    5.1004    3.4026    8.4711 C   0  0  0  0  0  0  0  0  0  0  0  0
    4.3959    4.2501    8.4237 H   0  0  0  0  0  0  0  0  0  0  0  0
    4.8235    2.7355    9.2908 H   0  0  0  0  0  0  0  0  0  0  0  0
    5.0543    2.8564    7.5281 H   0  0  0  0  0  0  0  0  0  0  0  0
  1  8  1  0  0  0  0
  3 16  1  0  0  0  0
  4  5  1  0  0  0  0
  4  6  1  0  0  0  0
  7 13  1  0  0  0  0
  8  9  1  0  0  0  0
  8  4  1  0  0  0  0
 10  8  1  0  0  0  0
 11 10  1  0  0  0  0
 12 10  1  0  0  0  0
 13  1  1  6  0  0  0
 13  3  1  0  0  0  0
 14 20  1  0  0  0  0
 14  3  1  0  0  0  0
 15  7  1  0  0  0  0
 15 14  2  0  0  0  0
 16 19  1  0  0  0  0
 17 16  1  0  0  0  0
 18 16  1  0  0  0  0
 20 22  1  0  0  0  0
 21 20  1  0  0  0  0
 23 20  1  0  0  0  0
 24 25  1  0  0  0  0
 24 15  1  0  0  0  0
 24 27  1  0  0  0  0
 26 24  1  0  0  0  0
 28  7  1  0  0  0  0
 28 30  1  0  0  0  0
 29 28  1  0  0  0  0
 31 28  1  0  0  0  0
M  END
$$$$
