CSD_code = TOQPEW | q = 0 | S = 0 | Stoichiometry = C12H17ClN2OPt | MND = 4
 OpenBabel04212202103D

 34 36  0  0  1  0  0  0  0  0999 V2000
    7.6522    8.5773    7.7922 Pt  0  0  2  0  0  0  0  0  0  0  0  0
    9.5327    8.2091    6.5957 Cl  0  0  0  0  0  0  0  0  0  0  0  0
    8.4085    7.1343    8.9483 O   0  0  0  0  0  0  0  0  0  0  0  0
    6.0034    8.7479    8.9835 N   0  0  0  0  0  0  0  0  0  0  0  0
    7.1228   10.1148    6.4150 N   0  0  0  0  0  4  0  0  0  0  0  0
    7.9918    6.7523   10.0965 C   0  0  1  0  0  3  0  0  0  0  0  0
    6.7845    7.1936   10.7162 C   0  0  0  0  0  0  0  0  0  0  0  0
    6.4395    6.6828   11.9869 C   0  0  0  0  0  0  0  0  0  0  0  0
    5.5218    7.0280   12.4439 H   0  0  0  0  0  0  0  0  0  0  0  0
    7.2322    5.7830   12.6413 C   0  0  0  0  0  0  0  0  0  0  0  0
    6.9537    5.4111   13.6153 H   0  0  0  0  0  0  0  0  0  0  0  0
    8.4153    5.3408   12.0334 C   0  0  0  0  0  0  0  0  0  0  0  0
    9.0424    4.6261   12.5467 H   0  0  0  0  0  0  0  0  0  0  0  0
    8.7810    5.8042   10.8025 C   0  0  0  0  0  0  0  0  0  0  0  0
    9.6885    5.4729   10.3216 H   0  0  0  0  0  0  0  0  0  0  0  0
    5.8910    8.1041   10.1057 C   0  0  0  0  0  0  0  0  0  0  0  0
    4.9745    8.2706   10.6794 H   0  0  0  0  0  0  0  0  0  0  0  0
    4.8719    9.5987    8.6582 C   0  0  0  0  0  0  0  0  0  0  0  0
    4.9693   10.5467    9.2052 H   0  0  0  0  0  0  0  0  0  0  0  0
    3.9444    9.1181    8.9961 H   0  0  0  0  0  0  0  0  0  0  0  0
    4.7515    9.8948    7.1689 C   0  0  0  0  0  0  0  0  0  0  0  0
    4.7681    8.9546    6.6150 H   0  0  0  0  0  0  0  0  0  0  0  0
    3.7871   10.3746    6.9927 H   0  0  0  0  0  0  0  0  0  0  0  0
    5.8634   10.8214    6.6903 C   0  0  0  0  0  0  0  0  0  0  0  0
    6.0461   11.5707    7.4659 H   0  0  0  0  0  0  0  0  0  0  0  0
    5.5446   11.3519    5.7821 H   0  0  0  0  0  0  0  0  0  0  0  0
    7.0496    9.5125    5.0748 C   0  0  0  0  0  0  0  0  0  0  0  0
    6.8659   10.2863    4.3209 H   0  0  0  0  0  0  0  0  0  0  0  0
    6.2476    8.7772    5.0297 H   0  0  0  0  0  0  0  0  0  0  0  0
    7.9930    9.0130    4.8583 H   0  0  0  0  0  0  0  0  0  0  0  0
    8.2112   11.1048    6.4129 C   0  0  0  0  0  0  0  0  0  0  0  0
    7.9907   11.9121    5.7054 H   0  0  0  0  0  0  0  0  0  0  0  0
    9.1399   10.6136    6.1259 H   0  0  0  0  0  0  0  0  0  0  0  0
    8.3316   11.5261    7.4119 H   0  0  0  0  0  0  0  0  0  0  0  0
  1  2  1  6  0  0  0
  1  3  1  0  0  0  0
  1  4  1  0  0  0  0
  4 16  1  0  0  0  0
  5 24  1  0  0  0  0
  5  1  1  0  0  0  0
  6  3  1  6  0  0  0
  6  7  1  0  0  0  0
  6 14  1  0  0  0  0
  7  8  1  0  0  0  0
  8  9  1  0  0  0  0
  8 10  2  0  0  0  0
 10 11  1  0  0  0  0
 12 13  1  0  0  0  0
 12 10  1  0  0  0  0
 14 12  2  0  0  0  0
 15 14  1  0  0  0  0
 16 17  1  0  0  0  0
 16  7  2  0  0  0  0
 18  4  1  0  0  0  0
 18 20  1  0  0  0  0
 18 19  1  0  0  0  0
 21 18  1  0  0  0  0
 22 21  1  0  0  0  0
 23 21  1  0  0  0  0
 24 21  1  0  0  0  0
 24 25  1  0  0  0  0
 26 24  1  0  0  0  0
 27  5  1  0  0  0  0
 28 27  1  0  0  0  0
 29 27  1  0  0  0  0
 30 27  1  0  0  0  0
 31  5  1  0  0  0  0
 31 34  1  0  0  0  0
 32 31  1  0  0  0  0
 33 31  1  0  0  0  0
M  END
$$$$
