CSD_code = TOQQEW | q = 0 | S = 0 | Stoichiometry = C21H20ClNOPdS | MND = 4
 OpenBabel04212202103D

 46 50  0  0  1  0  0  0  0  0999 V2000
    3.6146    2.5365    2.3806 Pd  0  0  1  0  0  0  0  0  0  0  0  0
    4.2059    1.1034    0.7546 Cl  0  0  0  0  0  0  0  0  0  0  0  0
    2.9653    3.8464    3.8678 N   0  0  1  0  0  0  0  0  0  0  0  0
    1.7180    1.8781    2.3641 O   0  0  0  0  0  0  0  0  0  0  0  0
    5.8178    3.1572    2.7614 S   0  0  1  0  0  3  0  0  0  0  0  0
    3.3111    5.2442    3.7973 C   0  0  0  0  0  0  0  0  0  0  0  0
    2.4051    5.8521    3.6588 H   0  0  0  0  0  0  0  0  0  0  0  0
    3.7898    5.5648    4.7343 H   0  0  0  0  0  0  0  0  0  0  0  0
    4.2551    5.4998    2.6179 C   0  0  0  0  0  0  0  0  0  0  0  0
    4.3068    6.5761    2.4331 H   0  0  0  0  0  0  0  0  0  0  0  0
    3.8340    5.0126    1.7150 H   0  0  0  0  0  0  0  0  0  0  0  0
    5.6712    4.9858    2.8554 C   0  0  0  0  0  0  0  0  0  0  0  0
    6.0696    5.3262    3.8095 H   0  0  0  0  0  0  0  0  0  0  0  0
    6.3314    5.3311    2.0584 H   0  0  0  0  0  0  0  0  0  0  0  0
    5.5220    2.5306    4.4201 C   0  0  0  0  0  0  0  0  0  0  0  0
    5.7776    3.2444    5.5782 C   0  0  0  0  0  0  0  0  0  0  0  0
    6.2000    4.2372    5.5413 H   0  0  0  0  0  0  0  0  0  0  0  0
    5.4819    2.6804    6.8109 C   0  0  0  0  0  0  0  0  0  0  0  0
    5.6684    3.2496    7.7097 H   0  0  0  0  0  0  0  0  0  0  0  0
    4.9587    1.4038    6.8910 C   0  0  0  0  0  0  0  0  0  0  0  0
    4.7207    0.9756    7.8523 H   0  0  0  0  0  0  0  0  0  0  0  0
    4.7497    0.6695    5.7320 C   0  0  0  0  0  0  0  0  0  0  0  0
    4.3557   -0.3334    5.7883 H   0  0  0  0  0  0  0  0  0  0  0  0
    5.0302    1.2223    4.4962 C   0  0  0  0  0  0  0  0  0  0  0  0
    4.8935    0.6294    3.5861 H   0  0  0  0  0  0  0  0  0  0  0  0
    1.7786    1.9889    4.7535 C   0  0  0  0  0  0  0  0  0  0  0  0
    1.6005    1.3097    3.5131 C   0  0  0  0  0  0  0  0  0  0  0  0
    1.1440   -0.0630    3.5620 C   0  0  0  0  0  0  0  0  0  0  0  0
    0.9740   -0.7787    2.3655 C   0  0  0  0  0  0  0  0  0  0  0  0
    1.1912   -0.2718    1.4371 H   0  0  0  0  0  0  0  0  0  0  0  0
    0.5620   -2.0859    2.3876 C   0  0  0  0  0  0  0  0  0  0  0  0
    0.4384   -2.6333    1.4651 H   0  0  0  0  0  0  0  0  0  0  0  0
    0.3028   -2.7182    3.6083 C   0  0  0  0  0  0  0  0  0  0  0  0
   -0.0283   -3.7471    3.6161 H   0  0  0  0  0  0  0  0  0  0  0  0
    0.4745   -2.0433    4.7889 C   0  0  0  0  0  0  0  0  0  0  0  0
    0.2820   -2.5323    5.7338 H   0  0  0  0  0  0  0  0  0  0  0  0
    0.9030   -0.7038    4.7976 C   0  0  0  0  0  0  0  0  0  0  0  0
    1.1084    0.0151    6.0007 C   0  0  0  0  0  0  0  0  0  0  0  0
    0.9409   -0.4852    6.9432 H   0  0  0  0  0  0  0  0  0  0  0  0
    1.5172    1.3112    5.9676 C   0  0  0  0  0  0  0  0  0  0  0  0
    1.6987    1.8334    6.8965 H   0  0  0  0  0  0  0  0  0  0  0  0
    2.1624    3.3830    4.7667 C   0  0  2  0  0  3  0  0  0  0  0  0
    1.5932    4.2824    5.8268 C   0  0  0  0  0  0  0  0  0  0  0  0
    2.3887    4.6292    6.4880 H   0  0  0  0  0  0  0  0  0  0  0  0
    0.8363    3.7729    6.4125 H   0  0  0  0  0  0  0  0  0  0  0  0
    1.1393    5.1581    5.3629 H   0  0  0  0  0  0  0  0  0  0  0  0
  1  2  1  6  0  0  0
  1  5  1  0  0  0  0
  1  3  1  0  0  0  0
  3  6  1  6  0  0  0
  3 42  1  0  0  0  0
  4  1  1  0  0  0  0
  4 27  1  0  0  0  0
  5 12  1  0  0  0  0
  5 15  1  1  0  0  0
  6  8  1  0  0  0  0
  7  6  1  0  0  0  0
  9 12  1  0  0  0  0
  9  6  1  0  0  0  0
 10  9  1  0  0  0  0
 11  9  1  0  0  0  0
 12 13  1  0  0  0  0
 14 12  1  0  0  0  0
 15 24  2  0  0  0  0
 15 16  1  0  0  0  0
 16 18  2  0  0  0  0
 17 16  1  0  0  0  0
 18 20  1  0  0  0  0
 18 19  1  0  0  0  0
 20 21  1  0  0  0  0
 22 23  1  0  0  0  0
 22 20  2  0  0  0  0
 24 22  1  0  0  0  0
 25 24  1  0  0  0  0
 26 42  1  0  0  0  0
 26 40  1  0  0  0  0
 27 28  1  0  0  0  0
 27 26  2  0  0  0  0
 28 37  1  0  0  0  0
 29 31  1  0  0  0  0
 29 28  2  0  0  0  0
 30 29  1  0  0  0  0
 31 33  2  0  0  0  0
 32 31  1  0  0  0  0
 33 34  1  0  0  0  0
 33 35  1  0  0  0  0
 35 37  2  0  0  0  0
 35 36  1  0  0  0  0
 37 38  1  0  0  0  0
 38 39  1  0  0  0  0
 40 38  2  0  0  0  0
 40 41  1  0  0  0  0
 42 43  1  6  0  0  0
 43 45  1  0  0  0  0
 43 44  1  0  0  0  0
 46 43  1  0  0  0  0
M  END
$$$$
