CSD_code = TORBEJ | q = 0 | S = 0 | Stoichiometry = C24H38Br2NiO2P2 | MND = 4
 OpenBabel04212202103D

 69 70  0  0  0  0  0  0  0  0999 V2000
   -0.2078    4.1776    3.5066 Br  0  0  0  0  0  0  0  0  0  0  0  0
   -1.9734    6.1111    8.0931 C   0  0  0  0  0  0  0  0  0  0  0  0
   -2.5757    6.6991    6.9906 C   0  0  0  0  0  0  0  0  0  0  0  0
   -2.3030    6.3673    5.9918 H   0  0  0  0  0  0  0  0  0  0  0  0
   -3.4993    7.7123    7.1631 C   0  0  0  0  0  0  0  0  0  0  0  0
   -3.9568    8.1700    6.2986 H   0  0  0  0  0  0  0  0  0  0  0  0
   -3.8352    8.1365    8.4370 C   0  0  0  0  0  0  0  0  0  0  0  0
   -4.5581    8.9265    8.5701 H   0  0  0  0  0  0  0  0  0  0  0  0
   -3.2360    7.5475    9.5374 C   0  0  0  0  0  0  0  0  0  0  0  0
   -3.4897    7.8772   10.5334 H   0  0  0  0  0  0  0  0  0  0  0  0
   -2.3049    6.5391    9.3719 C   0  0  0  0  0  0  0  0  0  0  0  0
   -1.8223    6.0775   10.2191 H   0  0  0  0  0  0  0  0  0  0  0  0
    1.0196    3.6429    7.3873 C   0  0  0  0  0  0  0  0  0  0  0  0
    0.6482    3.1761    8.3062 H   0  0  0  0  0  0  0  0  0  0  0  0
    1.5920    2.5939    6.4410 C   0  0  0  0  0  0  0  0  0  0  0  0
    1.8564    3.0418    5.4833 H   0  0  0  0  0  0  0  0  0  0  0  0
    0.8866    1.7884    6.2521 H   0  0  0  0  0  0  0  0  0  0  0  0
    2.4949    2.1616    6.8701 H   0  0  0  0  0  0  0  0  0  0  0  0
    2.0861    4.6672    7.7585 C   0  0  0  0  0  0  0  0  0  0  0  0
    2.9116    4.1812    8.2764 H   0  0  0  0  0  0  0  0  0  0  0  0
    1.6778    5.4400    8.4069 H   0  0  0  0  0  0  0  0  0  0  0  0
    2.4863    5.1447    6.8623 H   0  0  0  0  0  0  0  0  0  0  0  0
   -1.6398    3.0745    6.3197 C   0  0  0  0  0  0  0  0  0  0  0  0
   -1.1913    2.4505    5.5431 H   0  0  0  0  0  0  0  0  0  0  0  0
   -1.8632    2.2504    7.5818 C   0  0  0  0  0  0  0  0  0  0  0  0
   -2.1717    2.8848    8.4111 H   0  0  0  0  0  0  0  0  0  0  0  0
   -0.9707    1.7029    7.8735 H   0  0  0  0  0  0  0  0  0  0  0  0
   -2.6548    1.5249    7.4005 H   0  0  0  0  0  0  0  0  0  0  0  0
   -2.9708    3.6043    5.7926 C   0  0  0  0  0  0  0  0  0  0  0  0
   -3.6173    2.7713    5.5219 H   0  0  0  0  0  0  0  0  0  0  0  0
   -2.8242    4.2073    4.8978 H   0  0  0  0  0  0  0  0  0  0  0  0
   -3.4820    4.2007    6.5476 H   0  0  0  0  0  0  0  0  0  0  0  0
    0.1869    5.8477    5.0131 Ni  0  0  0  0  0  0  0  0  0  0  0  0
   -1.0487    5.1000    7.9969 O   0  0  0  0  0  0  0  0  0  0  0  0
   -0.4458    4.4920    6.6235 P   0  0  0  0  0  4  0  0  0  0  0  0
    0.5800    7.5187    6.5191 Br  0  0  0  0  0  0  0  0  0  0  0  0
    2.3494    5.5846    1.9331 C   0  0  0  0  0  0  0  0  0  0  0  0
    2.9495    4.9943    3.0356 C   0  0  0  0  0  0  0  0  0  0  0  0
    2.6746    5.3238    4.0346 H   0  0  0  0  0  0  0  0  0  0  0  0
    3.8739    3.9819    2.8627 C   0  0  0  0  0  0  0  0  0  0  0  0
    4.3296    3.5224    3.7271 H   0  0  0  0  0  0  0  0  0  0  0  0
    4.2129    3.5609    1.5886 C   0  0  0  0  0  0  0  0  0  0  0  0
    4.9365    2.7717    1.4552 H   0  0  0  0  0  0  0  0  0  0  0  0
    3.6160    4.1523    0.4882 C   0  0  0  0  0  0  0  0  0  0  0  0
    3.8722    3.8254   -0.5080 H   0  0  0  0  0  0  0  0  0  0  0  0
    2.6840    5.1598    0.6541 C   0  0  0  0  0  0  0  0  0  0  0  0
    2.2032    5.6234   -0.1931 H   0  0  0  0  0  0  0  0  0  0  0  0
   -0.6428    8.0539    2.6384 C   0  0  0  0  0  0  0  0  0  0  0  0
   -0.2695    8.5226    1.7213 H   0  0  0  0  0  0  0  0  0  0  0  0
   -1.2166    9.1012    3.5857 C   0  0  0  0  0  0  0  0  0  0  0  0
   -1.4852    8.6509    4.5411 H   0  0  0  0  0  0  0  0  0  0  0  0
   -0.5105    9.9049    3.7794 H   0  0  0  0  0  0  0  0  0  0  0  0
   -2.1173    9.5363    3.1547 H   0  0  0  0  0  0  0  0  0  0  0  0
   -1.7088    7.0307    2.2629 C   0  0  0  0  0  0  0  0  0  0  0  0
   -2.5327    7.5180    1.7436 H   0  0  0  0  0  0  0  0  0  0  0  0
   -1.2992    6.2587    1.6144 H   0  0  0  0  0  0  0  0  0  0  0  0
   -2.1116    6.5520    3.1573 H   0  0  0  0  0  0  0  0  0  0  0  0
    2.0165    8.6189    3.7083 C   0  0  0  0  0  0  0  0  0  0  0  0
    1.5683    9.2432    4.4849 H   0  0  0  0  0  0  0  0  0  0  0  0
    2.2419    9.4436    2.4470 C   0  0  0  0  0  0  0  0  0  0  0  0
    2.5490    8.8093    1.6171 H   0  0  0  0  0  0  0  0  0  0  0  0
    1.3506    9.9934    2.1558 H   0  0  0  0  0  0  0  0  0  0  0  0
    3.0352   10.1671    2.6289 H   0  0  0  0  0  0  0  0  0  0  0  0
    3.3464    8.0871    4.2362 C   0  0  0  0  0  0  0  0  0  0  0  0
    3.9939    8.9190    4.5080 H   0  0  0  0  0  0  0  0  0  0  0  0
    3.1981    7.4838    5.1305 H   0  0  0  0  0  0  0  0  0  0  0  0
    3.8575    7.4904    3.4813 H   0  0  0  0  0  0  0  0  0  0  0  0
    1.4241    6.5951    2.0296 O   0  0  0  0  0  0  0  0  0  0  0  0
    0.8210    7.2030    3.4031 P   0  0  0  0  0  4  0  0  0  0  0  0
  1 33  1  0  0  0  0
  2 11  1  0  0  0  0
  3  5  1  0  0  0  0
  3  2  2  0  0  0  0
  4  3  1  0  0  0  0
  5  7  2  0  0  0  0
  6  5  1  0  0  0  0
  7  8  1  0  0  0  0
  7  9  1  0  0  0  0
  9 10  1  0  0  0  0
 11  9  2  0  0  0  0
 11 12  1  0  0  0  0
 13 19  1  0  0  0  0
 13 14  1  0  0  0  0
 15 18  1  0  0  0  0
 15 13  1  0  0  0  0
 16 15  1  0  0  0  0
 17 15  1  0  0  0  0
 19 20  1  0  0  0  0
 19 21  1  0  0  0  0
 22 19  1  0  0  0  0
 23 35  1  0  0  0  0
 23 25  1  0  0  0  0
 24 23  1  0  0  0  0
 25 27  1  0  0  0  0
 25 26  1  0  0  0  0
 28 25  1  0  0  0  0
 29 23  1  0  0  0  0
 29 32  1  0  0  0  0
 30 29  1  0  0  0  0
 31 29  1  0  0  0  0
 33 36  1  0  0  0  0
 33 35  1  0  0  0  0
 34  2  1  0  0  0  0
 35 13  1  0  0  0  0
 35 34  1  0  0  0  0
 37 68  1  0  0  0  0
 37 38  1  0  0  0  0
 38 39  1  0  0  0  0
 40 38  2  0  0  0  0
 40 41  1  0  0  0  0
 42 40  1  0  0  0  0
 43 42  1  0  0  0  0
 44 46  1  0  0  0  0
 44 42  2  0  0  0  0
 45 44  1  0  0  0  0
 46 37  2  0  0  0  0
 47 46  1  0  0  0  0
 48 69  1  0  0  0  0
 48 50  1  0  0  0  0
 49 48  1  0  0  0  0
 50 52  1  0  0  0  0
 50 51  1  0  0  0  0
 53 50  1  0  0  0  0
 54 48  1  0  0  0  0
 54 57  1  0  0  0  0
 55 54  1  0  0  0  0
 56 54  1  0  0  0  0
 58 64  1  0  0  0  0
 58 59  1  0  0  0  0
 60 63  1  0  0  0  0
 60 58  1  0  0  0  0
 61 60  1  0  0  0  0
 62 60  1  0  0  0  0
 64 65  1  0  0  0  0
 64 66  1  0  0  0  0
 67 64  1  0  0  0  0
 68 69  1  0  0  0  0
 69 58  1  0  0  0  0
 69 33  1  0  0  0  0
M  END
$$$$
