CSD_code = TORBOT | q = 0 | S = 0 | Stoichiometry = C11H12Br2N2Pd | MND = 5
 OpenBabel04212202103D

 28 27  0  0  1  0  0  0  0  0999 V2000
    2.7806    8.3995    2.7610 Pd  0  0  0  0  0  0  0  0  0  0  0  0
    2.1761    6.0527    3.0479 Br  0  0  0  0  0 15  0  0  0  0  0  0
    0.7192    9.2088    1.9071 Br  0  0  0  0  0 15  0  0  0  0  0  0
    5.9446    6.5917    1.4406 N   0  0  0  0  0  0  0  0  0  0  0  0
    7.1312    4.9755    0.5598 N   0  0  0  0  0  0  0  0  0  0  0  0
    4.4166    9.1590    3.7140 C   0  0  2  0  0  0  0  0  0  0  0  0
    3.8486   10.2715    3.0100 C   0  0  0  0  0  3  0  0  0  0  0  0
    4.1741   10.7170    1.7080 C   0  0  0  0  0  0  0  0  0  0  0  0
    4.9786   10.1278    0.7565 C   0  0  0  0  0  0  0  0  0  0  0  0
    5.5385    8.8419    0.7696 C   0  0  0  0  0  0  0  0  0  0  0  0
    5.4337    7.8686    1.7460 C   0  0  0  0  0  0  0  0  0  0  0  0
    4.8849    7.9911    3.0843 C   0  0  0  0  0  3  0  0  0  0  0  0
    6.9723    6.3070    0.6295 C   0  0  0  0  0  3  0  0  0  0  0  0
    5.4492    5.4006    1.9100 C   0  0  0  0  0  0  0  0  0  0  0  0
    6.1877    4.4034    1.3555 C   0  0  0  0  0  0  0  0  0  0  0  0
    8.1363    4.2811   -0.1947 C   0  0  0  0  0  0  0  0  0  0  0  0
    4.4225    9.1881    4.8029 H   0  0  0  0  0  0  0  0  0  0  0  0
    3.3415   11.0045    3.6385 H   0  0  0  0  0  0  0  0  0  0  0  0
    3.7123   11.6547    1.4195 H   0  0  0  0  0  0  0  0  0  0  0  0
    5.1119   10.6776   -0.1648 H   0  0  0  0  0  0  0  0  0  0  0  0
    6.0141    8.5431   -0.1558 H   0  0  0  0  0  0  0  0  0  0  0  0
    5.1916    7.1936    3.7609 H   0  0  0  0  0  0  0  0  0  0  0  0
    7.5893    7.0186    0.1222 H   0  0  0  0  0  0  0  0  0  0  0  0
    4.5712    5.3338    2.5285 H   0  0  0  0  0  0  0  0  0  0  0  0
    6.0953    3.3438    1.4696 H   0  0  0  0  0  0  0  0  0  0  0  0
    7.7175    3.3628   -0.6036 H   0  0  0  0  0  0  0  0  0  0  0  0
    8.9859    4.0247    0.4422 H   0  0  0  0  0  0  0  0  0  0  0  0
    8.4860    4.9092   -1.0117 H   0  0  0  0  0  0  0  0  0  0  0  0
  1  6  1  0  0  0  0
  4 11  1  0  0  0  0
  4 14  1  0  0  0  0
  5 13  1  0  0  0  0
  5 15  1  0  0  0  0
  6 17  1  1  0  0  0
  7 18  1  0  0  0  0
  7  6  1  0  0  0  0
  8  7  1  0  0  0  0
  9 10  1  0  0  0  0
  9  8  2  0  0  0  0
 10 11  2  0  0  0  0
 11 12  1  0  0  0  0
 12  6  1  0  0  0  0
 12 22  1  0  0  0  0
 13  4  1  0  0  0  0
 14 24  1  0  0  0  0
 15 25  1  0  0  0  0
 15 14  2  0  0  0  0
 16 27  1  0  0  0  0
 16  5  1  0  0  0  0
 19  8  1  0  0  0  0
 20  9  1  0  0  0  0
 21 10  1  0  0  0  0
 23 13  1  0  0  0  0
 26 16  1  0  0  0  0
 28 16  1  0  0  0  0
M  END
$$$$
