CSD_code = TORCEK | q = 0 | S = 0 | Stoichiometry = C19H20Br2N2Pd | MND = 5
 OpenBabel04212202103D

 44 44  0  0  1  0  0  0  0  0999 V2000
    3.6388   -0.5352    3.2261 Pd  0  0  0  0  0  0  0  0  0  0  0  0
    3.1909    1.3328    1.7215 Br  0  0  0  0  0 15  0  0  0  0  0  0
    1.8286   -0.1954    4.7414 Br  0  0  0  0  0 15  0  0  0  0  0  0
    7.1248    0.7825    2.2396 N   0  0  0  0  0  0  0  0  0  0  0  0
    7.4396    2.3167    0.7225 N   0  0  0  0  0  0  0  0  0  0  0  0
    4.8213   -2.1387    2.7841 C   0  0  2  0  0  0  0  0  0  0  0  0
    4.4461   -2.3133    4.1498 C   0  0  0  0  0  3  0  0  0  0  0  0
    5.1639   -1.8733    5.2984 C   0  0  0  0  0  0  0  0  0  0  0  0
    6.2553   -1.0490    5.3780 C   0  0  0  0  0  0  0  0  0  0  0  0
    6.8492   -0.2820    4.3517 C   0  0  0  0  0  0  0  0  0  0  0  0
    6.4903   -0.2075    3.0272 C   0  0  0  0  0  0  0  0  0  0  0  0
    5.5276   -1.0172    2.3016 C   0  0  0  0  0  3  0  0  0  0  0  0
    6.5711    1.4239    1.2042 C   0  0  0  0  0  3  0  0  0  0  0  0
    8.3918    1.2792    2.4033 C   0  0  0  0  0  0  0  0  0  0  0  0
    8.5828    2.2361    1.4558 C   0  0  0  0  0  0  0  0  0  0  0  0
    7.1881    3.2068   -0.3585 C   0  0  0  0  0  0  0  0  0  0  0  0
    7.8946    3.0397   -1.5509 C   0  0  0  0  0  0  0  0  0  0  0  0
    7.6377    3.9165   -2.5915 C   0  0  0  0  0  0  0  0  0  0  0  0
    6.7011    4.9357   -2.4671 C   0  0  0  0  0  0  0  0  0  0  0  0
    6.0156    5.0702   -1.2699 C   0  0  0  0  0  0  0  0  0  0  0  0
    6.2387    4.2167   -0.1977 C   0  0  0  0  0  0  0  0  0  0  0  0
    8.8965    1.9352   -1.7124 C   0  0  0  0  0  0  0  0  0  0  0  0
    6.4295    5.8513   -3.6187 C   0  0  0  0  0  0  0  0  0  0  0  0
    5.4793    4.3861    1.0765 C   0  0  0  0  0  0  0  0  0  0  0  0
    4.4654   -2.8660    2.0551 H   0  0  0  0  0  0  0  0  0  0  0  0
    3.7362   -3.1196    4.3354 H   0  0  0  0  0  0  0  0  0  0  0  0
    4.7795   -2.2472    6.2407 H   0  0  0  0  0  0  0  0  0  0  0  0
    6.6597   -0.8757    6.3658 H   0  0  0  0  0  0  0  0  0  0  0  0
    7.6064    0.4135    4.6888 H   0  0  0  0  0  0  0  0  0  0  0  0
    5.6481   -0.9784    1.2181 H   0  0  0  0  0  0  0  0  0  0  0  0
    5.5516    1.3269    0.8701 H   0  0  0  0  0  0  0  0  0  0  0  0
    9.0674    0.9142    3.1477 H   0  0  0  0  0  0  0  0  0  0  0  0
    9.4314    2.8595    1.2656 H   0  0  0  0  0  0  0  0  0  0  0  0
    8.1731    3.7993   -3.5220 H   0  0  0  0  0  0  0  0  0  0  0  0
    5.2828    5.8551   -1.1616 H   0  0  0  0  0  0  0  0  0  0  0  0
    9.1178    1.7820   -2.7649 H   0  0  0  0  0  0  0  0  0  0  0  0
    8.5227    1.0000   -1.2986 H   0  0  0  0  0  0  0  0  0  0  0  0
    9.8304    2.1801   -1.2065 H   0  0  0  0  0  0  0  0  0  0  0  0
    7.3573    6.1516   -4.1009 H   0  0  0  0  0  0  0  0  0  0  0  0
    5.8944    6.7391   -3.2934 H   0  0  0  0  0  0  0  0  0  0  0  0
    5.8188    5.3380   -4.3611 H   0  0  0  0  0  0  0  0  0  0  0  0
    5.0913    5.3974    1.1509 H   0  0  0  0  0  0  0  0  0  0  0  0
    6.1000    4.1870    1.9475 H   0  0  0  0  0  0  0  0  0  0  0  0
    4.6294    3.7021    1.1055 H   0  0  0  0  0  0  0  0  0  0  0  0
  4 14  1  0  0  0  0
  4 11  1  0  0  0  0
  5 13  1  0  0  0  0
  5 15  1  0  0  0  0
  6 25  1  6  0  0  0
  6  1  1  0  0  0  0
  6  7  1  0  0  0  0
  7 26  1  0  0  0  0
  7  8  1  0  0  0  0
  8  9  2  0  0  0  0
  8 27  1  0  0  0  0
  9 28  1  0  0  0  0
 10 29  1  0  0  0  0
 10  9  1  0  0  0  0
 11 10  2  0  0  0  0
 12  6  1  0  0  0  0
 12 11  1  0  0  0  0
 13  4  1  0  0  0  0
 14 32  1  0  0  0  0
 15 14  2  0  0  0  0
 16 21  1  0  0  0  0
 16  5  1  0  0  0  0
 17 16  2  0  0  0  0
 18 19  2  0  0  0  0
 18 17  1  0  0  0  0
 19 20  1  0  0  0  0
 20 35  1  0  0  0  0
 20 21  2  0  0  0  0
 21 24  1  0  0  0  0
 22 17  1  0  0  0  0
 22 37  1  0  0  0  0
 22 38  1  0  0  0  0
 23 40  1  0  0  0  0
 23 19  1  0  0  0  0
 24 44  1  0  0  0  0
 24 42  1  0  0  0  0
 24 43  1  0  0  0  0
 30 12  1  0  0  0  0
 31 13  1  0  0  0  0
 33 15  1  0  0  0  0
 34 18  1  0  0  0  0
 36 22  1  0  0  0  0
 39 23  1  0  0  0  0
 41 23  1  0  0  0  0
M  END
$$$$
