CSD_code = TORNIY | q = 0 | S = 0 | Stoichiometry = C16H24CdI2O6 | MND = 6
 OpenBabel04212202103D

 49 49  0  0  0  0  0  0  0  0999 V2000
    1.4893    2.1879    4.1194 Cd  0  0  0  0  0  0  0  0  0  0  0  0
   -1.1342    2.3976    4.6587 I   0  0  0  0  0  0  0  0  0  0  0  0
    4.0760    2.0054    3.4591 I   0  0  0  0  0  0  0  0  0  0  0  0
    1.5034    0.1779    1.1381 C   0  0  0  0  0  0  0  0  0  0  0  0
    0.8932    1.3457    1.5214 O   0  0  0  0  0  0  0  0  0  0  0  0
    0.8034    2.3730    0.5563 C   0  0  0  0  0  0  0  0  0  0  0  0
    0.1498    2.0625   -0.2700 H   0  0  0  0  0  0  0  0  0  0  0  0
    1.8040    2.6143    0.1724 H   0  0  0  0  0  0  0  0  0  0  0  0
    0.2188    3.6189    1.2113 C   0  0  0  0  0  0  0  0  0  0  0  0
    0.0590    4.3855    0.4386 H   0  0  0  0  0  0  0  0  0  0  0  0
   -0.7446    3.3831    1.6842 H   0  0  0  0  0  0  0  0  0  0  0  0
    1.1472    4.0838    2.1669 O   0  0  0  0  0  0  0  0  0  0  0  0
    0.8242    5.3437    2.7129 C   0  0  0  0  0  0  0  0  0  0  0  0
   -0.1464    5.3080    3.2272 H   0  0  0  0  0  0  0  0  0  0  0  0
    0.7815    6.0980    1.9132 H   0  0  0  0  0  0  0  0  0  0  0  0
    1.9164    5.7092    3.7100 C   0  0  0  0  0  0  0  0  0  0  0  0
    2.8984    5.5413    3.2438 H   0  0  0  0  0  0  0  0  0  0  0  0
    1.8282    6.7690    3.9929 H   0  0  0  0  0  0  0  0  0  0  0  0
    1.7673    4.8924    4.8495 O   0  0  0  0  0  0  0  0  0  0  0  0
    2.8337    5.0147    5.7647 C   0  0  0  0  0  0  0  0  0  0  0  0
    2.9832    6.0701    6.0373 H   0  0  0  0  0  0  0  0  0  0  0  0
    3.7609    4.6277    5.3179 H   0  0  0  0  0  0  0  0  0  0  0  0
    2.4930    4.2174    7.0214 C   0  0  0  0  0  0  0  0  0  0  0  0
    3.3684    4.2168    7.6854 H   0  0  0  0  0  0  0  0  0  0  0  0
    1.6428    4.6837    7.5420 H   0  0  0  0  0  0  0  0  0  0  0  0
    2.1514    2.9022    6.6469 O   0  0  0  0  0  0  0  0  0  0  0  0
    2.1539    1.9731    7.7084 C   0  0  0  0  0  0  0  0  0  0  0  0
    1.7863    2.4396    8.6319 H   0  0  0  0  0  0  0  0  0  0  0  0
    3.1768    1.6024    7.8703 H   0  0  0  0  0  0  0  0  0  0  0  0
    1.2289    0.8128    7.3513 C   0  0  0  0  0  0  0  0  0  0  0  0
    1.2735    0.0530    8.1465 H   0  0  0  0  0  0  0  0  0  0  0  0
    0.1953    1.1775    7.2678 H   0  0  0  0  0  0  0  0  0  0  0  0
    1.6497    0.2551    6.1257 O   0  0  0  0  0  0  0  0  0  0  0  0
    0.8617   -0.8447    5.7250 C   0  0  0  0  0  0  0  0  0  0  0  0
   -0.1829   -0.5393    5.5696 H   0  0  0  0  0  0  0  0  0  0  0  0
    0.8912   -1.6274    6.4982 H   0  0  0  0  0  0  0  0  0  0  0  0
    1.4354   -1.4041    4.4296 C   0  0  0  0  0  0  0  0  0  0  0  0
    2.5120   -1.5776    4.5627 H   0  0  0  0  0  0  0  0  0  0  0  0
    0.9291   -2.3506    4.1970 H   0  0  0  0  0  0  0  0  0  0  0  0
    1.2187   -0.4684    3.3944 O   0  0  0  0  0  0  0  0  0  0  0  0
    1.6832   -0.7942    2.1444 C   0  0  0  0  0  0  0  0  0  0  0  0
    2.3005   -1.9928    1.8278 C   0  0  0  0  0  0  0  0  0  0  0  0
    2.4595   -2.7453    2.5822 H   0  0  0  0  0  0  0  0  0  0  0  0
    2.7357   -2.2433    0.5346 C   0  0  0  0  0  0  0  0  0  0  0  0
    3.2178   -3.1819    0.3114 H   0  0  0  0  0  0  0  0  0  0  0  0
    2.5546   -1.2972   -0.4494 C   0  0  0  0  0  0  0  0  0  0  0  0
    2.8909   -1.4826   -1.4573 H   0  0  0  0  0  0  0  0  0  0  0  0
    1.9407   -0.0902   -0.1485 C   0  0  0  0  0  0  0  0  0  0  0  0
    1.8150    0.6364   -0.9341 H   0  0  0  0  0  0  0  0  0  0  0  0
  1  2  1  0  0  0  0
  3  1  1  0  0  0  0
  4  5  1  0  0  0  0
  4 41  1  0  0  0  0
  6  9  1  0  0  0  0
  6  5  1  0  0  0  0
  7  6  1  0  0  0  0
  8  6  1  0  0  0  0
  9 11  1  0  0  0  0
  9 12  1  0  0  0  0
 10  9  1  0  0  0  0
 12 13  1  0  0  0  0
 13 14  1  0  0  0  0
 13 16  1  0  0  0  0
 15 13  1  0  0  0  0
 16 18  1  0  0  0  0
 16 19  1  0  0  0  0
 17 16  1  0  0  0  0
 19 20  1  0  0  0  0
 20 21  1  0  0  0  0
 20 23  1  0  0  0  0
 22 20  1  0  0  0  0
 23 25  1  0  0  0  0
 23 24  1  0  0  0  0
 26 23  1  0  0  0  0
 26 27  1  0  0  0  0
 27 29  1  0  0  0  0
 27 28  1  0  0  0  0
 30 27  1  0  0  0  0
 30 31  1  0  0  0  0
 32 30  1  0  0  0  0
 33 30  1  0  0  0  0
 34 33  1  0  0  0  0
 34 36  1  0  0  0  0
 35 34  1  0  0  0  0
 37 38  1  0  0  0  0
 37 34  1  0  0  0  0
 39 37  1  0  0  0  0
 40 37  1  0  0  0  0
 41 40  1  0  0  0  0
 42 41  2  0  0  0  0
 42 43  1  0  0  0  0
 44 42  1  0  0  0  0
 45 44  1  0  0  0  0
 46 48  1  0  0  0  0
 46 44  2  0  0  0  0
 47 46  1  0  0  0  0
 48  4  2  0  0  0  0
 49 48  1  0  0  0  0
M  END
$$$$
