CSD_code = TORNOE | q = 0 | S = 0 | Stoichiometry = C16H24CdI2O6 | MND = 6
 OpenBabel04212202103D

 49 49  0  0  0  0  0  0  0  0999 V2000
    4.0510    7.4030   11.4282 I   0  0  0  0  0  0  0  0  0  0  0  0
   -0.3022    4.5799   12.7847 I   0  0  0  0  0  0  0  0  0  0  0  0
    1.8719    5.9943   12.0829 Cd  0  0  0  0  0  0  0  0  0  0  0  0
    2.3974    2.6183   11.1660 C   0  0  0  0  0  0  0  0  0  0  0  0
    2.4530    3.7730   10.4285 O   0  0  0  0  0  0  0  0  0  0  0  0
    1.7916    3.7946    9.1828 C   0  0  0  0  0  0  0  0  0  0  0  0
    0.7447    3.4846    9.3022 H   0  0  0  0  0  0  0  0  0  0  0  0
    2.2990    3.1312    8.4694 H   0  0  0  0  0  0  0  0  0  0  0  0
    1.8194    5.2265    8.6594 C   0  0  0  0  0  0  0  0  0  0  0  0
    2.8466    5.6178    8.6880 H   0  0  0  0  0  0  0  0  0  0  0  0
    1.4571    5.2417    7.6210 H   0  0  0  0  0  0  0  0  0  0  0  0
    0.9681    5.9988    9.4783 O   0  0  0  0  0  0  0  0  0  0  0  0
    0.7655    7.3150    9.0136 C   0  0  0  0  0  0  0  0  0  0  0  0
    0.3228    7.2931    8.0066 H   0  0  0  0  0  0  0  0  0  0  0  0
    1.7172    7.8640    8.9781 H   0  0  0  0  0  0  0  0  0  0  0  0
   -0.1865    8.0104    9.9794 C   0  0  0  0  0  0  0  0  0  0  0  0
   -0.5036    8.9761    9.5578 H   0  0  0  0  0  0  0  0  0  0  0  0
   -1.0722    7.3777   10.1389 H   0  0  0  0  0  0  0  0  0  0  0  0
    0.4961    8.2151   11.1948 O   0  0  0  0  0  0  0  0  0  0  0  0
   -0.2825    8.8458   12.1857 C   0  0  0  0  0  0  0  0  0  0  0  0
   -1.1397    8.2133   12.4595 H   0  0  0  0  0  0  0  0  0  0  0  0
   -0.6510    9.8144   11.8160 H   0  0  0  0  0  0  0  0  0  0  0  0
    0.5971    9.0686   13.4103 C   0  0  0  0  0  0  0  0  0  0  0  0
    1.5158    9.5946   13.1115 H   0  0  0  0  0  0  0  0  0  0  0  0
    0.0542    9.6795   14.1471 H   0  0  0  0  0  0  0  0  0  0  0  0
    0.9097    7.8103   13.9622 O   0  0  0  0  0  0  0  0  0  0  0  0
    1.6698    7.8840   15.1462 C   0  0  0  0  0  0  0  0  0  0  0  0
    1.1129    8.4356   15.9186 H   0  0  0  0  0  0  0  0  0  0  0  0
    2.6253    8.3950   14.9558 H   0  0  0  0  0  0  0  0  0  0  0  0
    1.9432    6.4634   15.6258 C   0  0  0  0  0  0  0  0  0  0  0  0
    2.4168    6.4933   16.6183 H   0  0  0  0  0  0  0  0  0  0  0  0
    0.9970    5.9074   15.6925 H   0  0  0  0  0  0  0  0  0  0  0  0
    2.8102    5.8561   14.6951 O   0  0  0  0  0  0  0  0  0  0  0  0
    3.2363    4.5597   15.0543 C   0  0  0  0  0  0  0  0  0  0  0  0
    2.3759    3.8761   15.1192 H   0  0  0  0  0  0  0  0  0  0  0  0
    3.7471    4.5864   16.0287 H   0  0  0  0  0  0  0  0  0  0  0  0
    4.2122    4.1035   13.9666 C   0  0  0  0  0  0  0  0  0  0  0  0
    4.9247    4.9149   13.7853 H   0  0  0  0  0  0  0  0  0  0  0  0
    4.7578    3.2078   14.2787 H   0  0  0  0  0  0  0  0  0  0  0  0
    3.5603    3.9081   12.7335 O   0  0  0  0  0  0  0  0  0  0  0  0
    2.9839    2.6964   12.4471 C   0  0  0  0  0  0  0  0  0  0  0  0
    2.9419    1.5968   13.2847 C   0  0  0  0  0  0  0  0  0  0  0  0
    3.3545    1.6432   14.2802 H   0  0  0  0  0  0  0  0  0  0  0  0
    2.3495    0.4163   12.8573 C   0  0  0  0  0  0  0  0  0  0  0  0
    2.3217   -0.4314   13.5238 H   0  0  0  0  0  0  0  0  0  0  0  0
    1.7979    0.3329   11.5980 C   0  0  0  0  0  0  0  0  0  0  0  0
    1.3372   -0.5830   11.2631 H   0  0  0  0  0  0  0  0  0  0  0  0
    1.8176    1.4330   10.7516 C   0  0  0  0  0  0  0  0  0  0  0  0
    1.3699    1.3512    9.7747 H   0  0  0  0  0  0  0  0  0  0  0  0
  1  3  1  0  0  0  0
  3  2  1  0  0  0  0
  4 41  1  0  0  0  0
  5  4  1  0  0  0  0
  6  7  1  0  0  0  0
  6  5  1  0  0  0  0
  8  6  1  0  0  0  0
  9 10  1  0  0  0  0
  9  6  1  0  0  0  0
  9 12  1  0  0  0  0
 11  9  1  0  0  0  0
 13 12  1  0  0  0  0
 13 16  1  0  0  0  0
 14 13  1  0  0  0  0
 15 13  1  0  0  0  0
 16 18  1  0  0  0  0
 16 19  1  0  0  0  0
 17 16  1  0  0  0  0
 19 20  1  0  0  0  0
 20 21  1  0  0  0  0
 20 23  1  0  0  0  0
 22 20  1  0  0  0  0
 23 26  1  0  0  0  0
 23 25  1  0  0  0  0
 24 23  1  0  0  0  0
 26 27  1  0  0  0  0
 27 30  1  0  0  0  0
 27 28  1  0  0  0  0
 29 27  1  0  0  0  0
 30 32  1  0  0  0  0
 30 31  1  0  0  0  0
 33 34  1  0  0  0  0
 33 30  1  0  0  0  0
 34 35  1  0  0  0  0
 34 36  1  0  0  0  0
 37 39  1  0  0  0  0
 37 34  1  0  0  0  0
 38 37  1  0  0  0  0
 40 37  1  0  0  0  0
 41 40  1  0  0  0  0
 41 42  2  0  0  0  0
 42 43  1  0  0  0  0
 44 42  1  0  0  0  0
 44 45  1  0  0  0  0
 46 44  2  0  0  0  0
 47 46  1  0  0  0  0
 48  4  2  0  0  0  0
 48 46  1  0  0  0  0
 49 48  1  0  0  0  0
M  END
$$$$
