CSD_code = TORWEC | q = 0 | S = 0 | Stoichiometry = C11H15Cl2NO2PdS2 | MND = 4
 OpenBabel04212202103D

 34 36  0  0  1  0  0  0  0  0999 V2000
    1.3297    7.4147   12.2619 Pd  0  0  0  0  0  0  0  0  0  0  0  0
    0.5437    8.4591   14.0722 Cl  0  0  0  0  0  0  0  0  0  0  0  0
    1.7509    9.3993   11.2479 Cl  0  0  0  0  0  0  0  0  0  0  0  0
    1.0528    5.3314   13.2744 S   0  0  2  0  0  3  0  0  0  0  0  0
   -0.9149    7.3907   10.4839 S   0  0  2  0  0  3  0  0  0  0  0  0
    2.1289    5.6310   14.7061 C   0  0  0  0  0  0  0  0  0  0  0  0
    2.1244    4.2629   12.2281 C   0  0  0  0  0  0  0  0  0  0  0  0
    3.4664    4.8488   11.8015 C   0  0  0  0  0  0  0  0  0  0  0  0
    3.3966    6.0307   10.8012 C   0  0  2  0  0  0  0  0  0  0  0  0
    4.1185    7.2575   11.4038 C   0  0  0  0  0  0  0  0  0  0  0  0
    5.2303    9.2395   10.9107 C   0  0  0  0  0  0  0  0  0  0  0  0
    1.5454    6.6309    9.4422 C   0  0  0  0  0  0  0  0  0  0  0  0
    0.2204    7.0772    9.2026 C   0  0  0  0  0  0  0  0  0  0  0  0
   -0.3546    7.3024    7.9651 C   0  0  0  0  0  3  0  0  0  0  0  0
   -1.6824    7.7285    8.0527 C   0  0  0  0  0  0  0  0  0  0  0  0
   -2.1182    7.8083    9.3462 C   0  0  0  0  0  0  0  0  0  0  0  0
    2.0513    6.5016   10.6154 N   0  0  0  0  0  0  0  0  0  0  0  0
    4.0630    7.5045   12.5853 O   0  0  0  0  0  0  0  0  0  0  0  0
    4.7434    7.9606   10.4920 O   0  0  0  0  0  0  0  0  0  0  0  0
    3.8636    5.7732    9.8399 H   0  0  0  0  0  0  0  0  0  0  0  0
    2.1378    6.3762    8.5589 H   0  0  0  0  0  0  0  0  0  0  0  0
    0.1794    7.1772    7.0401 H   0  0  0  0  0  0  0  0  0  0  0  0
   -2.2924    7.9697    7.2010 H   0  0  0  0  0  0  0  0  0  0  0  0
    2.9631    6.2757   14.4287 H   0  0  0  0  0  0  0  0  0  0  0  0
    1.5053    6.1541   15.4277 H   0  0  0  0  0  0  0  0  0  0  0  0
    2.4615    4.6769   15.1076 H   0  0  0  0  0  0  0  0  0  0  0  0
    1.5062    4.0126   11.3646 H   0  0  0  0  0  0  0  0  0  0  0  0
    2.2983    3.3557   12.8089 H   0  0  0  0  0  0  0  0  0  0  0  0
    4.0474    4.0444   11.3458 H   0  0  0  0  0  0  0  0  0  0  0  0
    4.0041    5.1805   12.6937 H   0  0  0  0  0  0  0  0  0  0  0  0
    4.3749    9.8696   11.1668 H   0  0  0  0  0  0  0  0  0  0  0  0
    5.8790    9.1302   11.7806 H   0  0  0  0  0  0  0  0  0  0  0  0
    5.7743    9.6474   10.0640 H   0  0  0  0  0  0  0  0  0  0  0  0
   -3.0893    8.1049    9.6907 H   0  0  0  0  0  0  0  0  0  0  0  0
  1  4  1  0  0  0  0
  1  2  1  0  0  0  0
  3  1  1  0  0  0  0
  4  6  1  1  0  0  0
  5 13  1  6  0  0  0
  5  1  1  0  0  0  0
  6 26  1  0  0  0  0
  6 25  1  0  0  0  0
  7 28  1  0  0  0  0
  7  4  1  0  0  0  0
  8  7  1  0  0  0  0
  8 30  1  0  0  0  0
  9 20  1  6  0  0  0
  9 10  1  0  0  0  0
  9  8  1  0  0  0  0
 10 18  2  0  0  0  0
 11 31  1  0  0  0  0
 11 32  1  0  0  0  0
 12 17  1  0  0  0  0
 13 12  2  0  0  0  0
 14 15  1  0  0  0  0
 14 13  1  0  0  0  0
 15 16  2  0  0  0  0
 16 34  1  0  0  0  0
 16  5  1  0  0  0  0
 17  9  1  0  0  0  0
 17  1  1  0  0  0  0
 19 11  1  0  0  0  0
 19 10  1  0  0  0  0
 21 12  1  0  0  0  0
 22 14  1  0  0  0  0
 23 15  1  0  0  0  0
 24  6  1  0  0  0  0
 27  7  1  0  0  0  0
 29  8  1  0  0  0  0
 33 11  1  0  0  0  0
M  END
$$$$
