CSD_code = TOSYEF | q = 1 | S = 0 | Stoichiometry = C21H36Cl2NSiTi(1+) | MND = 12
 OpenBabel04212202103D

 62 62  0  0  1  0  0  0  0  0999 V2000
    0.8061    7.1377    3.0514 Ti  0  0  0  0  0  0  0  0  0  0  0  0
    3.0241    6.7719    2.8634 Cl  0  0  0  0  0  0  0  0  0  0  0  0
    0.7081    5.3930    4.4715 Cl  0  0  0  0  0  0  0  0  0  0  0  0
   -1.6219    7.6494    5.8643 Si  0  0  0  0  0  0  0  0  0  0  0  0
    2.6282    2.3078    2.0754 N   0  0  0  0  0  4  0  0  0  0  0  0
    3.4020    2.7418    1.5587 H   0  0  0  0  0  0  0  0  0  0  0  0
   -0.4828    5.5259    1.7943 C   0  0  0  0  0  0  0  0  0  0  0  0
   -0.9877    4.6567    2.1933 H   0  0  0  0  0  0  0  0  0  0  0  0
   -1.0562    6.8091    1.6727 C   0  0  0  0  0  3  0  0  0  0  0  0
   -2.0816    7.0566    1.9077 H   0  0  0  0  0  0  0  0  0  0  0  0
   -0.1436    7.6288    0.9659 C   0  0  0  0  0  0  0  0  0  0  0  0
   -0.3491    8.6160    0.5765 H   0  0  0  0  0  0  0  0  0  0  0  0
    1.0032    6.8644    0.6955 C   0  0  0  0  0  0  0  0  0  0  0  0
    1.8557    7.1805    0.1084 H   0  0  0  0  0  0  0  0  0  0  0  0
    0.7987    5.5560    1.2035 C   0  0  0  0  0  0  0  0  0  0  0  0
    1.7680    4.4169    1.0212 C   0  0  0  0  0  0  0  0  0  0  0  0
    2.7722    4.8128    1.2083 H   0  0  0  0  0  0  0  0  0  0  0  0
    1.7222    4.0838   -0.0212 H   0  0  0  0  0  0  0  0  0  0  0  0
    1.4807    3.2602    1.9786 C   0  0  0  0  0  0  0  0  0  0  0  0
    1.2734    3.6737    2.9694 H   0  0  0  0  0  0  0  0  0  0  0  0
    0.5978    2.7152    1.6519 H   0  0  0  0  0  0  0  0  0  0  0  0
    2.3644    0.9961    1.3823 C   0  0  0  0  0  0  0  0  0  0  0  0
    3.2842    0.4149    1.4760 H   0  0  0  0  0  0  0  0  0  0  0  0
    2.1174    1.2264   -0.1035 C   0  0  0  0  0  0  0  0  0  0  0  0
    1.1733    1.7288   -0.2921 H   0  0  0  0  0  0  0  0  0  0  0  0
    2.0798    0.2636   -0.6057 H   0  0  0  0  0  0  0  0  0  0  0  0
    2.9235    1.8011   -0.5548 H   0  0  0  0  0  0  0  0  0  0  0  0
    1.2252    0.2192    2.0276 C   0  0  0  0  0  0  0  0  0  0  0  0
    1.1961   -0.7770    1.5948 H   0  0  0  0  0  0  0  0  0  0  0  0
    0.2578    0.6792    1.8483 H   0  0  0  0  0  0  0  0  0  0  0  0
    1.3636    0.1119    3.0988 H   0  0  0  0  0  0  0  0  0  0  0  0
    3.1354    2.1921    3.4964 C   0  0  0  0  0  0  0  0  0  0  0  0
    2.2653    2.0048    4.1301 H   0  0  0  0  0  0  0  0  0  0  0  0
    3.7863    3.5113    3.8885 C   0  0  0  0  0  0  0  0  0  0  0  0
    3.1154    4.3617    3.8040 H   0  0  0  0  0  0  0  0  0  0  0  0
    4.6710    3.7012    3.2840 H   0  0  0  0  0  0  0  0  0  0  0  0
    4.1002    3.4580    4.9265 H   0  0  0  0  0  0  0  0  0  0  0  0
    4.1504    1.0670    3.6611 C   0  0  0  0  0  0  0  0  0  0  0  0
    3.7132    0.0776    3.5667 H   0  0  0  0  0  0  0  0  0  0  0  0
    4.5706    1.1349    4.6608 H   0  0  0  0  0  0  0  0  0  0  0  0
    4.9728    1.1698    2.9560 H   0  0  0  0  0  0  0  0  0  0  0  0
    1.1444    8.3229    4.9912 C   0  0  0  0  0  0  0  0  0  0  0  0
    1.6182    7.9248    5.8818 H   0  0  0  0  0  0  0  0  0  0  0  0
    1.7850    9.1033    4.0063 C   0  0  0  0  0  0  0  0  0  0  0  0
    2.8287    9.3929    4.0026 H   0  0  0  0  0  0  0  0  0  0  0  0
    0.8105    9.5156    3.0786 C   0  0  0  0  0  0  0  0  0  0  0  0
    0.9802   10.1986    2.2562 H   0  0  0  0  0  0  0  0  0  0  0  0
   -0.4418    9.0360    3.5264 C   0  0  0  0  0  0  0  0  0  0  0  0
   -1.4014    9.3081    3.1087 H   0  0  0  0  0  0  0  0  0  0  0  0
   -0.2534    8.2811    4.7081 C   0  0  1  0  0  0  0  0  0  0  0  0
   -2.7024    6.3900    4.9114 C   0  0  0  0  0  0  0  0  0  0  0  0
   -3.2797    6.8699    4.1256 H   0  0  0  0  0  0  0  0  0  0  0  0
   -3.4126    5.9215    5.5850 H   0  0  0  0  0  0  0  0  0  0  0  0
   -2.1057    5.5982    4.4628 H   0  0  0  0  0  0  0  0  0  0  0  0
   -0.8180    6.8572    7.3983 C   0  0  0  0  0  0  0  0  0  0  0  0
   -0.2217    7.5783    7.9501 H   0  0  0  0  0  0  0  0  0  0  0  0
   -0.1764    6.0199    7.1387 H   0  0  0  0  0  0  0  0  0  0  0  0
   -1.5815    6.4857    8.0742 H   0  0  0  0  0  0  0  0  0  0  0  0
   -2.6575    9.1767    6.3334 C   0  0  0  0  0  0  0  0  0  0  0  0
   -2.0557    9.9307    6.8304 H   0  0  0  0  0  0  0  0  0  0  0  0
   -3.4544    8.8942    7.0123 H   0  0  0  0  0  0  0  0  0  0  0  0
   -3.1163    9.6419    5.4668 H   0  0  0  0  0  0  0  0  0  0  0  0
  1  3  1  0  0  0  0
  2  1  1  0  0  0  0
  4 59  1  0  0  0  0
  4 55  1  0  0  0  0
  5 32  1  0  0  0  0
  6  5  1  0  0  0  0
  7  8  1  0  0  0  0
  9  7  1  0  0  0  0
  9 10  1  0  0  0  0
 11  9  1  0  0  0  0
 12 11  1  0  0  0  0
 13 11  2  0  0  0  0
 13 15  1  0  0  0  0
 14 13  1  0  0  0  0
 15  7  2  0  0  0  0
 16 15  1  0  0  0  0
 16 17  1  0  0  0  0
 16 19  1  0  0  0  0
 18 16  1  0  0  0  0
 19  5  1  0  0  0  0
 19 20  1  0  0  0  0
 21 19  1  0  0  0  0
 22 23  1  0  0  0  0
 22 28  1  0  0  0  0
 22  5  1  0  0  0  0
 24 22  1  0  0  0  0
 25 24  1  0  0  0  0
 26 24  1  0  0  0  0
 27 24  1  0  0  0  0
 28 31  1  0  0  0  0
 29 28  1  0  0  0  0
 30 28  1  0  0  0  0
 32 38  1  0  0  0  0
 32 34  1  0  0  0  0
 32 33  1  0  0  0  0
 34 37  1  0  0  0  0
 35 34  1  0  0  0  0
 36 34  1  0  0  0  0
 38 40  1  0  0  0  0
 39 38  1  0  0  0  0
 41 38  1  0  0  0  0
 42 43  1  0  0  0  0
 44 42  2  0  0  0  0
 45 44  1  0  0  0  0
 46 48  2  0  0  0  0
 46 44  1  0  0  0  0
 47 46  1  0  0  0  0
 48 50  1  0  0  0  0
 49 48  1  0  0  0  0
 50  1  1  6  0  0  0
 50 42  1  0  0  0  0
 50  4  1  0  0  0  0
 51 53  1  0  0  0  0
 51  4  1  0  0  0  0
 52 51  1  0  0  0  0
 54 51  1  0  0  0  0
 55 56  1  0  0  0  0
 55 58  1  0  0  0  0
 57 55  1  0  0  0  0
 59 60  1  0  0  0  0
 59 61  1  0  0  0  0
 62 59  1  0  0  0  0
M  END
$$$$
