CSD_code = TOTKUI | q = 0 | S = 0 | Stoichiometry = C26H24Cl2N4O2Pd | MND = 4
 OpenBabel04212202103D

 59 62  0  0  0  0  0  0  0  0999 V2000
    6.7863    0.3913    7.7567 Pd  0  0  0  0  0  0  0  0  0  0  0  0
    6.8208    2.4812    8.7558 Cl  0  0  0  0  0  0  0  0  0  0  0  0
    4.8381    3.1532    2.0182 O   0  0  0  0  0  0  0  0  0  0  0  0
    5.0477    0.6551    6.9457 N   0  0  0  0  0  0  0  0  0  0  0  0
    4.0204    0.0318    7.3112 N   0  0  0  0  0  2  0  0  0  0  0  0
    4.9803    1.3056    5.7184 C   0  0  0  0  0  0  0  0  0  0  0  0
    3.9286    1.0783    4.8183 C   0  0  0  0  0  0  0  0  0  0  0  0
    3.9177    1.7074    3.5999 C   0  0  0  0  0  0  0  0  0  0  0  0
    4.9438    2.5939    3.2423 C   0  0  0  0  0  0  0  0  0  0  0  0
    5.9791    2.8366    4.1456 C   0  0  0  0  0  0  0  0  0  0  0  0
    5.9989    2.1954    5.3667 C   0  0  0  0  0  0  0  0  0  0  0  0
    5.8454    4.0374    1.5814 C   0  0  0  0  0  0  0  0  0  0  0  0
    4.0293   -0.6381    8.5187 C   0  0  0  0  0  0  0  0  0  0  0  0
    4.5250   -0.0606    9.6998 C   0  0  0  0  0  0  0  0  0  0  0  0
    4.4297   -0.7595   10.8908 C   0  0  0  0  0  0  0  0  0  0  0  0
    3.8811   -2.0323   10.9180 C   0  0  0  0  0  0  0  0  0  0  0  0
    3.3892   -2.6007    9.7521 C   0  0  0  0  0  0  0  0  0  0  0  0
    3.4399   -1.9049    8.5614 C   0  0  0  0  0  0  0  0  0  0  0  0
    3.1481    0.3872    5.0958 H   0  0  0  0  0  0  0  0  0  0  0  0
    3.1255    1.5330    2.8892 H   0  0  0  0  0  0  0  0  0  0  0  0
    6.7744    3.5247    3.9091 H   0  0  0  0  0  0  0  0  0  0  0  0
    6.7949    2.4177    6.0756 H   0  0  0  0  0  0  0  0  0  0  0  0
    5.5516    4.3444    0.5791 H   0  0  0  0  0  0  0  0  0  0  0  0
    6.8200    3.5419    1.5380 H   0  0  0  0  0  0  0  0  0  0  0  0
    5.9114    4.9193    2.2258 H   0  0  0  0  0  0  0  0  0  0  0  0
    4.8872    0.9645    9.7002 H   0  0  0  0  0  0  0  0  0  0  0  0
    4.7887   -0.3020   11.8012 H   0  0  0  0  0  0  0  0  0  0  0  0
    3.8190   -2.5756   11.8497 H   0  0  0  0  0  0  0  0  0  0  0  0
    2.9550   -3.5892    9.7744 H   0  0  0  0  0  0  0  0  0  0  0  0
    3.0679   -2.3368    7.6457 H   0  0  0  0  0  0  0  0  0  0  0  0
    6.7520   -1.6985    6.7579 Cl  0  0  0  0  0  0  0  0  0  0  0  0
    8.5249    0.1275    8.5676 N   0  0  0  0  0  0  0  0  0  0  0  0
    9.5521    0.7508    8.2022 N   0  0  0  0  0  2  0  0  0  0  0  0
    9.5432    1.4207    6.9947 C   0  0  0  0  0  0  0  0  0  0  0  0
    9.0475    0.8433    5.8135 C   0  0  0  0  0  0  0  0  0  0  0  0
    9.1427    1.5422    4.6226 C   0  0  0  0  0  0  0  0  0  0  0  0
    9.6913    2.8150    4.5954 C   0  0  0  0  0  0  0  0  0  0  0  0
   10.1833    3.3834    5.7613 C   0  0  0  0  0  0  0  0  0  0  0  0
   10.1326    2.6876    6.9520 C   0  0  0  0  0  0  0  0  0  0  0  0
   10.5046    3.1194    7.8677 H   0  0  0  0  0  0  0  0  0  0  0  0
   10.6174    4.3718    5.7390 H   0  0  0  0  0  0  0  0  0  0  0  0
    9.7534    3.3584    3.6637 H   0  0  0  0  0  0  0  0  0  0  0  0
    8.7837    1.0848    3.7121 H   0  0  0  0  0  0  0  0  0  0  0  0
    8.6853   -0.1819    5.8131 H   0  0  0  0  0  0  0  0  0  0  0  0
    8.5923   -0.5231    9.7949 C   0  0  0  0  0  0  0  0  0  0  0  0
    9.6443   -0.2959   10.6949 C   0  0  0  0  0  0  0  0  0  0  0  0
    9.6552   -0.9250   11.9133 C   0  0  0  0  0  0  0  0  0  0  0  0
    8.6290   -1.8113   12.2710 C   0  0  0  0  0  0  0  0  0  0  0  0
    8.7348   -2.3706   13.4951 O   0  0  0  0  0  0  0  0  0  0  0  0
    7.7274   -3.2547   13.9320 C   0  0  0  0  0  0  0  0  0  0  0  0
    8.0213   -3.5617   14.9344 H   0  0  0  0  0  0  0  0  0  0  0  0
    6.7528   -2.7590   13.9756 H   0  0  0  0  0  0  0  0  0  0  0  0
    7.6612   -4.1366   13.2877 H   0  0  0  0  0  0  0  0  0  0  0  0
    7.5935   -2.0539   11.3678 C   0  0  0  0  0  0  0  0  0  0  0  0
    7.5736   -1.4127   10.1467 C   0  0  0  0  0  0  0  0  0  0  0  0
    6.7776   -1.6349    9.4379 H   0  0  0  0  0  0  0  0  0  0  0  0
    6.7982   -2.7420   11.6045 H   0  0  0  0  0  0  0  0  0  0  0  0
   10.4475   -0.7507   12.6239 H   0  0  0  0  0  0  0  0  0  0  0  0
   10.4248    0.3951   10.4173 H   0  0  0  0  0  0  0  0  0  0  0  0
  1 32  1  0  0  0  0
  1  2  1  0  0  0  0
  3  9  1  0  0  0  0
  4  5  1  0  0  0  0
  4  1  1  0  0  0  0
  5 13  1  0  0  0  0
  6  4  1  0  0  0  0
  7 19  1  0  0  0  0
  7  6  2  0  0  0  0
  8  7  1  0  0  0  0
  9  8  2  0  0  0  0
  9 10  1  0  0  0  0
 10 11  2  0  0  0  0
 11  6  1  0  0  0  0
 11 22  1  0  0  0  0
 12  3  1  0  0  0  0
 12 25  1  0  0  0  0
 13 18  2  0  0  0  0
 13 14  1  0  0  0  0
 14 26  1  0  0  0  0
 14 15  2  0  0  0  0
 15 16  1  0  0  0  0
 15 27  1  0  0  0  0
 16 28  1  0  0  0  0
 17 29  1  0  0  0  0
 17 16  2  0  0  0  0
 18 17  1  0  0  0  0
 20  8  1  0  0  0  0
 21 10  1  0  0  0  0
 23 12  1  0  0  0  0
 24 12  1  0  0  0  0
 30 18  1  0  0  0  0
 31  1  1  0  0  0  0
 32 45  1  0  0  0  0
 33 32  1  0  0  0  0
 34 33  1  0  0  0  0
 35 34  2  0  0  0  0
 36 35  1  0  0  0  0
 37 36  2  0  0  0  0
 37 38  1  0  0  0  0
 38 39  2  0  0  0  0
 39 34  1  0  0  0  0
 39 40  1  0  0  0  0
 41 38  1  0  0  0  0
 42 37  1  0  0  0  0
 43 36  1  0  0  0  0
 44 35  1  0  0  0  0
 45 55  2  0  0  0  0
 45 46  1  0  0  0  0
 46 47  2  0  0  0  0
 47 48  1  0  0  0  0
 47 58  1  0  0  0  0
 48 49  1  0  0  0  0
 49 50  1  0  0  0  0
 50 52  1  0  0  0  0
 50 51  1  0  0  0  0
 53 50  1  0  0  0  0
 54 57  1  0  0  0  0
 54 48  2  0  0  0  0
 55 54  1  0  0  0  0
 56 55  1  0  0  0  0
 59 46  1  0  0  0  0
M  END
$$$$
