CSD_code = TOWFUG | q = 0 | S = 0 | Stoichiometry = C11H14Cl2N2Ni | MND = 4
 OpenBabel04212202103D

 30 32  0  0  0  0  0  0  0  0999 V2000
    1.2574    2.4704    2.0743 Ni  0  0  2  0  0  0  0  0  0  0  0  0
    2.0618    2.2996    3.8959 Cl  0  0  0  0  0  0  0  0  0  0  0  0
   -2.9665    0.0852   -0.3019 Cl  0  0  0  0  0  0  0  0  0  0  0  0
    2.6925    3.8532    1.3093 N   0  0  0  0  0  4  0  0  0  0  0  0
    0.5045    2.6880    0.3764 N   0  0  0  0  0  0  0  0  0  0  0  0
    4.0907    3.6160    1.6712 C   0  0  0  0  0  0  0  0  0  0  0  0
    2.2986    5.1704    1.8177 C   0  0  0  0  0  0  0  0  0  0  0  0
    2.5517    3.8020   -0.1565 C   0  0  0  0  0  0  0  0  0  0  0  0
    1.0781    3.6297   -0.5486 C   0  0  0  0  0  0  0  0  0  0  0  0
   -0.5063    1.9479    0.1035 C   0  0  0  0  0  0  0  0  0  0  0  0
   -0.9335    1.0991    1.1829 C   0  0  0  0  0  0  0  0  0  0  0  0
   -0.1427    1.2221    2.3657 C   0  0  0  0  0  0  0  0  0  0  0  0
   -0.4982    0.4374    3.4576 C   0  0  0  0  0  0  0  0  0  0  0  0
   -1.5816   -0.4307    3.3906 C   0  0  0  0  0  0  0  0  0  0  0  0
   -2.3447   -0.5468    2.2413 C   0  0  0  0  0  0  0  0  0  0  0  0
   -2.0154    0.2214    1.1405 C   0  0  0  0  0  0  0  0  0  0  0  0
    4.4031    2.6315    1.3236 H   0  0  0  0  0  0  0  0  0  0  0  0
    4.1898    3.6377    2.7555 H   0  0  0  0  0  0  0  0  0  0  0  0
    4.7462    4.3787    1.2306 H   0  0  0  0  0  0  0  0  0  0  0  0
    1.2519    5.3747    1.5917 H   0  0  0  0  0  0  0  0  0  0  0  0
    2.9188    5.9627    1.3754 H   0  0  0  0  0  0  0  0  0  0  0  0
    2.4226    5.1870    2.9003 H   0  0  0  0  0  0  0  0  0  0  0  0
    2.9784    4.7018   -0.6248 H   0  0  0  0  0  0  0  0  0  0  0  0
    3.1059    2.9297   -0.5152 H   0  0  0  0  0  0  0  0  0  0  0  0
    0.5448    4.5850   -0.4592 H   0  0  0  0  0  0  0  0  0  0  0  0
    0.9875    3.2902   -1.5885 H   0  0  0  0  0  0  0  0  0  0  0  0
   -1.0047    1.9643   -0.8641 H   0  0  0  0  0  0  0  0  0  0  0  0
    0.0666    0.4935    4.3770 H   0  0  0  0  0  0  0  0  0  0  0  0
   -1.8352   -1.0289    4.2534 H   0  0  0  0  0  0  0  0  0  0  0  0
   -3.1842   -1.2233    2.1983 H   0  0  0  0  0  0  0  0  0  0  0  0
  1 12  2  0  0  0  0
  1  2  1  1  0  0  0
  3 16  1  0  0  0  0
  4  6  1  0  0  0  0
  4  7  1  0  0  0  0
  4  1  1  0  0  0  0
  5  1  1  0  0  0  0
  6 18  1  0  0  0  0
  7 22  1  0  0  0  0
  8  4  1  0  0  0  0
  9 25  1  0  0  0  0
  9  8  1  0  0  0  0
  9  5  1  0  0  0  0
 10  5  1  0  0  0  0
 10 11  2  0  0  0  0
 11 12  1  0  0  0  0
 12 13  1  0  0  0  0
 13 28  1  0  0  0  0
 14 13  2  0  0  0  0
 14 29  1  0  0  0  0
 15 14  1  0  0  0  0
 16 11  1  0  0  0  0
 16 15  2  0  0  0  0
 17  6  1  0  0  0  0
 19  6  1  0  0  0  0
 20  7  1  0  0  0  0
 21  7  1  0  0  0  0
 23  8  1  0  0  0  0
 24  8  1  0  0  0  0
 26  9  1  0  0  0  0
 27 10  1  0  0  0  0
 30 15  1  0  0  0  0
M  END
$$$$
