CSD_code = TOXLUP | q = 0 | S = 0 | Stoichiometry = C13H12Br2N2Zn | MND = 4
 OpenBabel04212202103D

 30 32  0  0  0  0  0  0  0  0999 V2000
    2.9002    2.5206    3.3228 Br  0  0  0  0  0  0  0  0  0  0  0  0
    6.9171    4.1065    4.4889 Br  0  0  0  0  0  0  0  0  0  0  0  0
    5.1750    2.6135    3.9112 Zn  0  0  0  0  0  0  0  0  0  0  0  0
    5.4599    1.2529    5.5589 N   0  0  0  0  0  0  0  0  0  0  0  0
    5.8937    0.8178    2.8805 N   0  0  0  0  0  0  0  0  0  0  0  0
    5.9741    0.0878    5.1494 C   0  0  0  0  0  0  0  0  0  0  0  0
    6.3674   -0.8973    6.0559 C   0  0  0  0  0  0  0  0  0  0  0  0
    6.7781   -1.8273    5.6946 H   0  0  0  0  0  0  0  0  0  0  0  0
    6.2285   -0.6535    7.4107 C   0  0  0  0  0  0  0  0  0  0  0  0
    6.5275   -1.3968    8.1341 H   0  0  0  0  0  0  0  0  0  0  0  0
    5.6993    0.5610    7.8202 C   0  0  0  0  0  0  0  0  0  0  0  0
    5.5735    0.7935    8.8649 H   0  0  0  0  0  0  0  0  0  0  0  0
    5.3296    1.4843    6.8530 C   0  0  0  0  0  0  0  0  0  0  0  0
    4.9157    2.4453    7.1271 H   0  0  0  0  0  0  0  0  0  0  0  0
    6.0908   -0.1232    3.7209 C   0  0  0  0  0  0  0  0  0  0  0  0
    6.3587   -1.1309    3.3997 H   0  0  0  0  0  0  0  0  0  0  0  0
    5.8573    0.5483    1.5156 C   0  0  0  0  0  0  0  0  0  0  0  0
    5.2364   -0.6170    1.0547 C   0  0  0  0  0  0  0  0  0  0  0  0
    4.7752   -1.2866    1.7662 H   0  0  0  0  0  0  0  0  0  0  0  0
    5.1360   -0.8716   -0.2966 C   0  0  0  0  0  0  0  0  0  0  0  0
    4.6351   -1.7641   -0.6386 H   0  0  0  0  0  0  0  0  0  0  0  0
    5.6684    0.0279   -1.2060 C   0  0  0  0  0  0  0  0  0  0  0  0
    5.5959   -0.1651   -2.2653 H   0  0  0  0  0  0  0  0  0  0  0  0
    6.2782    1.1850   -0.7544 C   0  0  0  0  0  0  0  0  0  0  0  0
    6.6824    1.8880   -1.4676 H   0  0  0  0  0  0  0  0  0  0  0  0
    6.3776    1.4762    0.5985 C   0  0  0  0  0  0  0  0  0  0  0  0
    7.0322    2.7396    1.0505 C   0  0  0  0  0  0  0  0  0  0  0  0
    6.2790    3.4254    1.4490 H   0  0  0  0  0  0  0  0  0  0  0  0
    7.5215    3.2385    0.2183 H   0  0  0  0  0  0  0  0  0  0  0  0
    7.7712    2.5580    1.8289 H   0  0  0  0  0  0  0  0  0  0  0  0
  1  3  1  0  0  0  0
  3  2  1  0  0  0  0
  3  4  1  0  0  0  0
  4 13  1  0  0  0  0
  5 15  1  0  0  0  0
  5  3  1  0  0  0  0
  6  4  1  0  0  0  0
  6  7  1  0  0  0  0
  7  9  2  0  0  0  0
  8  7  1  0  0  0  0
  9 11  1  0  0  0  0
  9 10  1  0  0  0  0
 11 12  1  0  0  0  0
 13 14  1  0  0  0  0
 13 11  2  0  0  0  0
 15  6  2  0  0  0  0
 16 15  1  0  0  0  0
 17  5  1  0  0  0  0
 18 17  1  0  0  0  0
 18 19  1  0  0  0  0
 20 18  2  0  0  0  0
 21 20  1  0  0  0  0
 22 24  2  0  0  0  0
 22 20  1  0  0  0  0
 23 22  1  0  0  0  0
 24 26  1  0  0  0  0
 25 24  1  0  0  0  0
 26 27  1  0  0  0  0
 26 17  2  0  0  0  0
 27 28  1  0  0  0  0
 27 30  1  0  0  0  0
 29 27  1  0  0  0  0
M  END
$$$$
