CSD_code = TOXMAW | q = 0 | S = 0 | Stoichiometry = C13H12Br2N2OZn | MND = 5
 OpenBabel04212202103D

 31 33  0  0  0  0  0  0  0  0999 V2000
    1.5909    2.7342   -1.3420 Br  0  0  0  0  0  0  0  0  0  0  0  0
   -0.9766    2.8970    2.2376 Br  0  0  0  0  0  0  0  0  0  0  0  0
    0.9826    2.7641    0.9445 Zn  0  0  0  0  0  0  0  0  0  0  0  0
    1.1711    5.1875    0.8527 O   0  0  0  0  0  0  0  0  0  0  0  0
    2.0243    0.9189    1.5151 N   0  0  0  0  0  0  0  0  0  0  0  0
    2.5410    3.4572    2.2675 N   0  0  0  0  0  0  0  0  0  0  0  0
    3.1322    1.1716    2.2218 C   0  0  0  0  0  0  0  0  0  0  0  0
    4.0389    0.1613    2.5456 C   0  0  0  0  0  0  0  0  0  0  0  0
    4.9243    0.3957    3.1161 H   0  0  0  0  0  0  0  0  0  0  0  0
    3.7831   -1.1291    2.1178 C   0  0  0  0  0  0  0  0  0  0  0  0
    4.4696   -1.9290    2.3504 H   0  0  0  0  0  0  0  0  0  0  0  0
    2.6324   -1.3745    1.3837 C   0  0  0  0  0  0  0  0  0  0  0  0
    2.3954   -2.3639    1.0284 H   0  0  0  0  0  0  0  0  0  0  0  0
    1.7827   -0.3128    1.1074 C   0  0  0  0  0  0  0  0  0  0  0  0
    0.8765   -0.4571    0.5349 H   0  0  0  0  0  0  0  0  0  0  0  0
    3.3505    2.5404    2.6376 C   0  0  0  0  0  0  0  0  0  0  0  0
    4.2270    2.7311    3.2563 H   0  0  0  0  0  0  0  0  0  0  0  0
    2.6082    4.7759    2.6596 C   0  0  0  0  0  0  0  0  0  0  0  0
    3.3205    5.2326    3.7721 C   0  0  0  0  0  0  0  0  0  0  0  0
    3.8693    4.5299    4.3798 H   0  0  0  0  0  0  0  0  0  0  0  0
    3.2911    6.5633    4.1273 C   0  0  0  0  0  0  0  0  0  0  0  0
    3.8369    6.9016    4.9940 H   0  0  0  0  0  0  0  0  0  0  0  0
    2.5471    7.4619    3.3766 C   0  0  0  0  0  0  0  0  0  0  0  0
    2.5199    8.5039    3.6553 H   0  0  0  0  0  0  0  0  0  0  0  0
    1.8229    7.0357    2.2791 C   0  0  0  0  0  0  0  0  0  0  0  0
    1.2370    7.7490    1.7229 H   0  0  0  0  0  0  0  0  0  0  0  0
    1.8372    5.6956    1.9075 C   0  0  0  0  0  0  0  0  0  0  0  0
    0.3971    6.0471    0.0364 C   0  0  0  0  0  0  0  0  0  0  0  0
    0.0136    5.4254   -0.7714 H   0  0  0  0  0  0  0  0  0  0  0  0
    1.0158    6.8413   -0.3885 H   0  0  0  0  0  0  0  0  0  0  0  0
   -0.4388    6.4724    0.5983 H   0  0  0  0  0  0  0  0  0  0  0  0
  1  3  1  0  0  0  0
  3  5  1  0  0  0  0
  3  2  1  0  0  0  0
  3  6  1  0  0  0  0
  4 27  1  0  0  0  0
  5  7  1  0  0  0  0
  6 16  1  0  0  0  0
  6 18  1  0  0  0  0
  7  8  1  0  0  0  0
  7 16  2  0  0  0  0
  8  9  1  0  0  0  0
 10 11  1  0  0  0  0
 10  8  2  0  0  0  0
 12 10  1  0  0  0  0
 13 12  1  0  0  0  0
 14 12  2  0  0  0  0
 14  5  1  0  0  0  0
 15 14  1  0  0  0  0
 16 17  1  0  0  0  0
 18 19  1  0  0  0  0
 19 21  2  0  0  0  0
 19 20  1  0  0  0  0
 21 22  1  0  0  0  0
 23 24  1  0  0  0  0
 23 21  1  0  0  0  0
 25 23  2  0  0  0  0
 26 25  1  0  0  0  0
 27 25  1  0  0  0  0
 27 18  2  0  0  0  0
 28 31  1  0  0  0  0
 28  4  1  0  0  0  0
 29 28  1  0  0  0  0
 30 28  1  0  0  0  0
M  END
$$$$
