CSD_code = TOXMEA | q = 0 | S = 0 | Stoichiometry = C13H12I2N2OZn | MND = 5
 OpenBabel04212202103D

 31 33  0  0  0  0  0  0  0  0999 V2000
    1.6534    9.6316    5.6973 I   0  0  0  0  0  0  0  0  0  0  0  0
   -1.7392    9.6870    8.9436 I   0  0  0  0  0  0  0  0  0  0  0  0
   -0.6680    9.6813    6.6503 Zn  0  0  0  0  0  0  0  0  0  0  0  0
   -0.8119    7.2368    6.6284 O   0  0  0  0  0  0  0  0  0  0  0  0
   -1.5569   11.5476    5.9123 N   0  0  0  0  0  0  0  0  0  0  0  0
   -2.1029    9.0098    5.1803 N   0  0  0  0  0  0  0  0  0  0  0  0
   -2.6542   11.3078    5.1855 C   0  0  0  0  0  0  0  0  0  0  0  0
   -3.5233   12.3334    4.8101 C   0  0  0  0  0  0  0  0  0  0  0  0
   -4.4044   12.1072    4.2292 H   0  0  0  0  0  0  0  0  0  0  0  0
   -3.2340   13.6291    5.1988 C   0  0  0  0  0  0  0  0  0  0  0  0
   -3.8897   14.4418    4.9249 H   0  0  0  0  0  0  0  0  0  0  0  0
   -2.0887   13.8638    5.9450 C   0  0  0  0  0  0  0  0  0  0  0  0
   -1.8239   14.8579    6.2664 H   0  0  0  0  0  0  0  0  0  0  0  0
   -1.2825   12.7852    6.2790 C   0  0  0  0  0  0  0  0  0  0  0  0
   -0.3823   12.9213    6.8635 H   0  0  0  0  0  0  0  0  0  0  0  0
   -2.8966    9.9357    4.7969 C   0  0  0  0  0  0  0  0  0  0  0  0
   -3.7766    9.7500    4.1816 H   0  0  0  0  0  0  0  0  0  0  0  0
   -2.2048    7.6894    4.7961 C   0  0  0  0  0  0  0  0  0  0  0  0
   -2.9115    7.2508    3.6732 C   0  0  0  0  0  0  0  0  0  0  0  0
   -3.4281    7.9674    3.0533 H   0  0  0  0  0  0  0  0  0  0  0  0
   -2.9185    5.9186    3.3218 C   0  0  0  0  0  0  0  0  0  0  0  0
   -3.4605    5.5957    2.4470 H   0  0  0  0  0  0  0  0  0  0  0  0
   -2.2168    4.9993    4.0873 C   0  0  0  0  0  0  0  0  0  0  0  0
   -2.2178    3.9560    3.8124 H   0  0  0  0  0  0  0  0  0  0  0  0
   -1.4990    5.4068    5.1961 C   0  0  0  0  0  0  0  0  0  0  0  0
   -0.9480    4.6769    5.7664 H   0  0  0  0  0  0  0  0  0  0  0  0
   -1.4775    6.7477    5.5633 C   0  0  0  0  0  0  0  0  0  0  0  0
   -0.0623    6.3563    7.4442 C   0  0  0  0  0  0  0  0  0  0  0  0
    0.7509    5.8933    6.8788 H   0  0  0  0  0  0  0  0  0  0  0  0
   -0.7046    5.5896    7.8849 H   0  0  0  0  0  0  0  0  0  0  0  0
    0.3576    6.9683    8.2411 H   0  0  0  0  0  0  0  0  0  0  0  0
  1  3  1  0  0  0  0
  3  2  1  0  0  0  0
  4 28  1  0  0  0  0
  5 14  1  0  0  0  0
  5  3  1  0  0  0  0
  6  3  1  0  0  0  0
  7  5  1  0  0  0  0
  8  7  1  0  0  0  0
  8 10  2  0  0  0  0
  9  8  1  0  0  0  0
 10 12  1  0  0  0  0
 11 10  1  0  0  0  0
 12 13  1  0  0  0  0
 12 14  2  0  0  0  0
 14 15  1  0  0  0  0
 16  6  1  0  0  0  0
 16  7  2  0  0  0  0
 17 16  1  0  0  0  0
 18  6  1  0  0  0  0
 18 27  1  0  0  0  0
 19 18  2  0  0  0  0
 20 19  1  0  0  0  0
 21 19  1  0  0  0  0
 21 23  2  0  0  0  0
 22 21  1  0  0  0  0
 23 25  1  0  0  0  0
 24 23  1  0  0  0  0
 25 27  2  0  0  0  0
 25 26  1  0  0  0  0
 27  4  1  0  0  0  0
 28 30  1  0  0  0  0
 28 31  1  0  0  0  0
 29 28  1  0  0  0  0
M  END
$$$$
