CSD_code = TOYREG | q = -1 | S = 0 | Stoichiometry = C25H25ClN3NiO2(1-) | MND = 4
 OpenBabel04212202103D

 57 61  0  0  1  0  0  0  0  0999 V2000
    3.9451    9.8808    8.0057 Ni  0  0  2  0  0  0  0  0  0  0  0  0
    2.8354    8.7588    9.2986 Cl  0  0  0  0  0  0  0  0  0  0  0  0
    4.9540   10.8990    6.9235 N   0  0  0  0  0  0  0  0  0  0  0  0
    2.7136   11.3692    7.8522 N   0  0  0  0  0  0  0  0  0  0  0  0
    5.4445    8.6649    7.8559 N   0  0  0  0  0  0  0  0  0  0  0  0
    2.5495   13.4497    6.8744 O   0  0  0  0  0  0  0  0  0  0  0  0
    7.5176    8.5086    6.8617 O   0  0  0  0  0  0  0  0  0  0  0  0
    3.1416   12.3962    7.1086 C   0  0  0  0  0  0  0  0  0  0  0  0
    4.5067   12.0954    6.5518 C   0  0  1  0  0  3  0  0  0  0  0  0
    5.2727   12.9237    5.7439 C   0  0  0  0  0  0  0  0  0  0  0  0
    4.8786   13.8876    5.4614 H   0  0  0  0  0  0  0  0  0  0  0  0
    6.5210   12.4790    5.3315 C   0  0  0  0  0  0  0  0  0  0  0  0
    7.1396   13.1027    4.7007 H   0  0  0  0  0  0  0  0  0  0  0  0
    6.9728   11.2312    5.7376 C   0  0  0  0  0  0  0  0  0  0  0  0
    7.9373   10.8424    5.4499 H   0  0  0  0  0  0  0  0  0  0  0  0
    6.1513   10.4588    6.5461 C   0  0  0  0  0  0  0  0  0  0  0  0
    6.4625    9.0954    7.1017 C   0  0  0  0  0  0  0  0  0  0  0  0
    1.4445   11.4766    8.4551 C   0  0  0  0  0  0  0  0  0  0  0  0
    0.3395   10.8718    7.8501 C   0  0  0  0  0  0  0  0  0  0  0  0
   -0.9016   10.9826    8.4524 C   0  0  0  0  0  0  0  0  0  0  0  0
   -1.7595   10.5145    7.9863 H   0  0  0  0  0  0  0  0  0  0  0  0
   -1.0679   11.6785    9.6412 C   0  0  0  0  0  0  0  0  0  0  0  0
    0.0433   12.2567   10.2367 C   0  0  0  0  0  0  0  0  0  0  0  0
   -0.0713   12.7888   11.1727 H   0  0  0  0  0  0  0  0  0  0  0  0
    1.2999   12.1632    9.6631 C   0  0  0  0  0  0  0  0  0  0  0  0
    0.5388   10.1059    6.5790 C   0  0  0  0  0  0  0  0  0  0  0  0
    0.7761   10.7858    5.7595 H   0  0  0  0  0  0  0  0  0  0  0  0
   -0.3477    9.5310    6.3197 H   0  0  0  0  0  0  0  0  0  0  0  0
    1.3876    9.4246    6.7035 H   0  0  0  0  0  0  0  0  0  0  0  0
   -2.4198   11.7692   10.2907 C   0  0  0  0  0  0  0  0  0  0  0  0
   -2.4947   12.6624   10.9083 H   0  0  0  0  0  0  0  0  0  0  0  0
   -2.5873   10.9007   10.9298 H   0  0  0  0  0  0  0  0  0  0  0  0
   -3.2096   11.7927    9.5417 H   0  0  0  0  0  0  0  0  0  0  0  0
    2.5113   12.7580   10.3121 C   0  0  0  0  0  0  0  0  0  0  0  0
    3.3035   12.0061   10.3522 H   0  0  0  0  0  0  0  0  0  0  0  0
    2.2907   13.1010   11.3208 H   0  0  0  0  0  0  0  0  0  0  0  0
    2.8779   13.5988    9.7224 H   0  0  0  0  0  0  0  0  0  0  0  0
    5.5676    7.4003    8.4660 C   0  0  0  0  0  0  0  0  0  0  0  0
    6.2093    7.2823    9.7012 C   0  0  0  0  0  0  0  0  0  0  0  0
    6.3219    6.0314   10.2831 C   0  0  0  0  0  0  0  0  0  0  0  0
    6.8190    5.9368   11.2403 H   0  0  0  0  0  0  0  0  0  0  0  0
    5.8069    4.8994    9.6682 C   0  0  0  0  0  0  0  0  0  0  0  0
    5.1535    5.0392    8.4525 C   0  0  0  0  0  0  0  0  0  0  0  0
    4.7333    4.1651    7.9711 H   0  0  0  0  0  0  0  0  0  0  0  0
    5.0239    6.2748    7.8420 C   0  0  0  0  0  0  0  0  0  0  0  0
    6.7327    8.5167   10.3680 C   0  0  0  0  0  0  0  0  0  0  0  0
    7.5716    8.9231    9.8022 H   0  0  0  0  0  0  0  0  0  0  0  0
    7.0571    8.3093   11.3855 H   0  0  0  0  0  0  0  0  0  0  0  0
    5.9443    9.2739   10.3879 H   0  0  0  0  0  0  0  0  0  0  0  0
    5.9194    3.5536   10.3269 C   0  0  0  0  0  0  0  0  0  0  0  0
    5.9445    2.7584    9.5839 H   0  0  0  0  0  0  0  0  0  0  0  0
    5.0598    3.3816   10.9767 H   0  0  0  0  0  0  0  0  0  0  0  0
    6.8195    3.4938   10.9363 H   0  0  0  0  0  0  0  0  0  0  0  0
    4.2988    6.4465    6.5432 C   0  0  0  0  0  0  0  0  0  0  0  0
    3.7672    5.5397    6.2634 H   0  0  0  0  0  0  0  0  0  0  0  0
    4.9999    6.7087    5.7499 H   0  0  0  0  0  0  0  0  0  0  0  0
    3.5832    7.2693    6.6417 H   0  0  0  0  0  0  0  0  0  0  0  0
  1  2  1  1  0  0  0
  3  1  1  0  0  0  0
  4  1  1  0  0  0  0
  4 18  1  0  0  0  0
  5  1  1  0  0  0  0
  5 38  1  0  0  0  0
  6  8  2  0  0  0  0
  7 17  2  0  0  0  0
  8  4  1  0  0  0  0
  9 10  1  1  0  0  0
  9  3  1  0  0  0  0
  9  8  1  0  0  0  0
 11 10  1  0  0  0  0
 12 14  1  0  0  0  0
 12 10  2  0  0  0  0
 13 12  1  0  0  0  0
 14 16  2  0  0  0  0
 15 14  1  0  0  0  0
 16  3  1  0  0  0  0
 16 17  1  0  0  0  0
 17  5  1  0  0  0  0
 18 25  1  0  0  0  0
 19 20  1  0  0  0  0
 19 18  2  0  0  0  0
 20 22  2  0  0  0  0
 21 20  1  0  0  0  0
 22 23  1  0  0  0  0
 22 30  1  0  0  0  0
 23 24  1  0  0  0  0
 25 23  2  0  0  0  0
 25 34  1  0  0  0  0
 26 29  1  0  0  0  0
 26 19  1  0  0  0  0
 27 26  1  0  0  0  0
 28 26  1  0  0  0  0
 30 31  1  0  0  0  0
 30 32  1  0  0  0  0
 33 30  1  0  0  0  0
 34 35  1  0  0  0  0
 34 36  1  0  0  0  0
 37 34  1  0  0  0  0
 38 39  1  0  0  0  0
 39 40  2  0  0  0  0
 39 46  1  0  0  0  0
 40 41  1  0  0  0  0
 42 40  1  0  0  0  0
 42 50  1  0  0  0  0
 43 42  2  0  0  0  0
 44 43  1  0  0  0  0
 45 43  1  0  0  0  0
 45 38  2  0  0  0  0
 46 49  1  0  0  0  0
 46 48  1  0  0  0  0
 47 46  1  0  0  0  0
 50 53  1  0  0  0  0
 50 52  1  0  0  0  0
 51 50  1  0  0  0  0
 54 57  1  0  0  0  0
 54 45  1  0  0  0  0
 55 54  1  0  0  0  0
 56 54  1  0  0  0  0
M  END
$$$$
