CSD_code = TOYVUA | q = 0 | S = 0 | Stoichiometry = C30H28BBrN6Ni | MND = 4
 OpenBabel04212202103D

 67 74  0  0  1  0  0  0  0  0999 V2000
    2.3026   15.6985   13.3560 Br  0  0  0  0  0  0  0  0  0  0  0  0
    0.8908   16.4607   11.8411 Ni  0  0  1  0  0  0  0  0  0  0  0  0
   -0.1536   17.2128   10.5478 N   0  0  1  0  0  0  0  0  0  0  0  0
   -1.3795   16.7629   10.2952 N   0  0  0  0  0  0  0  0  0  0  0  0
    0.4070   14.6736   10.9063 N   0  0  2  0  0  0  0  0  0  0  0  0
   -0.9064   14.4125   10.8389 N   0  0  0  0  0  0  0  0  0  0  0  0
   -0.8355   16.6155   13.0514 N   0  0  1  0  0  0  0  0  0  0  0  0
   -1.8960   15.9537   12.5643 N   0  0  0  0  0  0  0  0  0  0  0  0
    0.1183   18.2363    9.7330 C   0  0  2  0  0  3  0  0  0  0  0  0
   -1.0078   18.4475    8.9234 C   0  0  0  0  0  0  0  0  0  0  0  0
   -1.1347   19.1911    8.1639 H   0  0  0  0  0  0  0  0  0  0  0  0
   -1.9326   17.4953    9.3109 C   0  0  0  0  0  0  0  0  0  0  0  0
   -3.3020   17.2640    8.7856 C   0  0  0  0  0  0  0  0  0  0  0  0
   -3.3854   16.2659    8.3588 H   0  0  0  0  0  0  0  0  0  0  0  0
   -3.5253   17.9968    8.0151 H   0  0  0  0  0  0  0  0  0  0  0  0
   -4.0378   17.3529    9.5830 H   0  0  0  0  0  0  0  0  0  0  0  0
    1.4026   18.9159    9.7616 C   0  0  0  0  0  0  0  0  0  0  0  0
    1.7291   19.9049    8.8340 C   0  0  0  0  0  0  0  0  0  0  0  0
    1.0119   20.1875    8.0790 H   0  0  0  0  0  0  0  0  0  0  0  0
    2.9669   20.5183    8.8735 C   0  0  0  0  0  0  0  0  0  0  0  0
    3.2069   21.2816    8.1479 H   0  0  0  0  0  0  0  0  0  0  0  0
    3.9001   20.1591    9.8323 C   0  0  0  0  0  0  0  0  0  0  0  0
    4.8663   20.6399    9.8561 H   0  0  0  0  0  0  0  0  0  0  0  0
    3.5895   19.1791   10.7626 C   0  0  0  0  0  0  0  0  0  0  0  0
    4.3073   18.8901   11.5156 H   0  0  0  0  0  0  0  0  0  0  0  0
    2.3529   18.5699   10.7237 C   0  0  0  0  0  0  0  0  0  0  0  0
    2.1185   17.8007   11.4872 H   0  0  0  0  0  0  0  0  0  0  0  0
    1.0802   13.5832   10.5441 C   0  0  1  0  0  3  0  0  0  0  0  0
    0.1558   12.5719   10.2473 C   0  0  0  0  0  0  0  0  0  0  0  0
    0.3680   11.5768    9.9142 H   0  0  0  0  0  0  0  0  0  0  0  0
   -1.0899   13.1385   10.4403 C   0  0  0  0  0  0  0  0  0  0  0  0
   -2.4289   12.5181   10.2686 C   0  0  0  0  0  0  0  0  0  0  0  0
   -2.9894   12.5533   11.2011 H   0  0  0  0  0  0  0  0  0  0  0  0
   -2.3128   11.4809    9.9665 H   0  0  0  0  0  0  0  0  0  0  0  0
   -3.0046   13.0447    9.5092 H   0  0  0  0  0  0  0  0  0  0  0  0
    2.5326   13.5821   10.4467 C   0  0  0  0  0  0  0  0  0  0  0  0
    3.2042   14.7768   10.1882 C   0  0  0  0  0  0  0  0  0  0  0  0
    2.6329   15.6903   10.0368 H   0  0  0  0  0  0  0  0  0  0  0  0
    4.5820   14.8029   10.1081 C   0  0  0  0  0  0  0  0  0  0  0  0
    5.0927   15.7353    9.9155 H   0  0  0  0  0  0  0  0  0  0  0  0
    5.3066   13.6341   10.2748 C   0  0  0  0  0  0  0  0  0  0  0  0
    6.3847   13.6534   10.2152 H   0  0  0  0  0  0  0  0  0  0  0  0
    4.6471   12.4413   10.5208 C   0  0  0  0  0  0  0  0  0  0  0  0
    5.2122   11.5304   10.6541 H   0  0  0  0  0  0  0  0  0  0  0  0
    3.2681   12.4117   10.6070 C   0  0  0  0  0  0  0  0  0  0  0  0
    2.7566   11.4850   10.8200 H   0  0  0  0  0  0  0  0  0  0  0  0
   -1.0843   16.9429   14.3182 C   0  0  2  0  0  3  0  0  0  0  0  0
   -2.3542   16.4576   14.6617 C   0  0  0  0  0  0  0  0  0  0  0  0
   -2.8571   16.5626   15.6010 H   0  0  0  0  0  0  0  0  0  0  0  0
   -2.8369   15.8422   13.5229 C   0  0  0  0  0  0  0  0  0  0  0  0
   -4.1369   15.1523   13.3190 C   0  0  0  0  0  0  0  0  0  0  0  0
   -4.7061   15.6265   12.5212 H   0  0  0  0  0  0  0  0  0  0  0  0
   -4.7168   15.1910   14.2371 H   0  0  0  0  0  0  0  0  0  0  0  0
   -3.9780   14.1103   13.0467 H   0  0  0  0  0  0  0  0  0  0  0  0
   -0.1422   17.7281   15.1019 C   0  0  0  0  0  0  0  0  0  0  0  0
   -0.1074   17.6425   16.4905 C   0  0  0  0  0  0  0  0  0  0  0  0
   -0.7826   16.9726   17.0014 H   0  0  0  0  0  0  0  0  0  0  0  0
    0.8044   18.3919   17.2096 C   0  0  0  0  0  0  0  0  0  0  0  0
    0.8302   18.3154   18.2869 H   0  0  0  0  0  0  0  0  0  0  0  0
    1.6901   19.2316   16.5551 C   0  0  0  0  0  0  0  0  0  0  0  0
    2.4053   19.8102   17.1209 H   0  0  0  0  0  0  0  0  0  0  0  0
    1.6592   19.3266   15.1734 C   0  0  0  0  0  0  0  0  0  0  0  0
    2.3484   19.9811   14.6596 H   0  0  0  0  0  0  0  0  0  0  0  0
    0.7459   18.5844   14.4521 C   0  0  0  0  0  0  0  0  0  0  0  0
    0.7040   18.6728   13.3699 H   0  0  0  0  0  0  0  0  0  0  0  0
   -1.9255   15.5440   11.0817 B   0  0  1  0  0  0  0  0  0  0  0  0
   -3.0074   15.2459   10.7253 H   0  0  0  0  0  0  0  0  0  0  0  0
  2  7  1  0  0  0  0
  2  1  1  1  0  0  0
  3  4  1  1  0  0  0
  3  2  1  0  0  0  0
  4 66  1  0  0  0  0
  5  6  1  1  0  0  0
  5  2  1  0  0  0  0
  6 66  1  0  0  0  0
  7  8  1  1  0  0  0
  7 47  1  0  0  0  0
  8 50  1  0  0  0  0
  9 17  1  6  0  0  0
  9  3  1  0  0  0  0
 10 12  2  0  0  0  0
 10  9  1  0  0  0  0
 11 10  1  0  0  0  0
 12  4  1  0  0  0  0
 13 12  1  0  0  0  0
 13 16  1  0  0  0  0
 14 13  1  0  0  0  0
 15 13  1  0  0  0  0
 17 26  1  0  0  0  0
 18 20  1  0  0  0  0
 18 17  2  0  0  0  0
 19 18  1  0  0  0  0
 20 22  2  0  0  0  0
 21 20  1  0  0  0  0
 22 23  1  0  0  0  0
 22 24  1  0  0  0  0
 24 25  1  0  0  0  0
 26 24  2  0  0  0  0
 26 27  1  0  0  0  0
 28 36  1  6  0  0  0
 28  5  1  0  0  0  0
 29 31  2  0  0  0  0
 29 28  1  0  0  0  0
 30 29  1  0  0  0  0
 31  6  1  0  0  0  0
 32 31  1  0  0  0  0
 32 33  1  0  0  0  0
 34 32  1  0  0  0  0
 35 32  1  0  0  0  0
 36 45  1  0  0  0  0
 37 36  2  0  0  0  0
 38 37  1  0  0  0  0
 39 37  1  0  0  0  0
 39 41  2  0  0  0  0
 40 39  1  0  0  0  0
 41 43  1  0  0  0  0
 42 41  1  0  0  0  0
 43 45  2  0  0  0  0
 43 44  1  0  0  0  0
 45 46  1  0  0  0  0
 47 48  1  0  0  0  0
 47 55  1  6  0  0  0
 48 49  1  0  0  0  0
 50 48  2  0  0  0  0
 51 50  1  0  0  0  0
 51 53  1  0  0  0  0
 52 51  1  0  0  0  0
 54 51  1  0  0  0  0
 55 56  1  0  0  0  0
 56 57  1  0  0  0  0
 56 58  2  0  0  0  0
 58 59  1  0  0  0  0
 60 61  1  0  0  0  0
 60 58  1  0  0  0  0
 62 60  2  0  0  0  0
 63 62  1  0  0  0  0
 64 55  2  0  0  0  0
 64 62  1  0  0  0  0
 65 64  1  0  0  0  0
 66 67  1  6  0  0  0
 66  8  1  0  0  0  0
M  END
$$$$
