CSD_code = TUCPOY | q = 0 | S = 0 | Stoichiometry = C14H28CuIN6S | MND = 4
 OpenBabel04212202103D

 51 54  0  0  1  0  0  0  0  0999 V2000
    3.5970    1.6706   10.3172 I   0  0  0  0  0  0  0  0  0  0  0  0
    3.9929    2.4169    7.9619 Cu  0  0  1  0  0  0  0  0  0  0  0  0
    2.3330    1.8077    6.3013 S   0  0  1  0  0  3  0  0  0  0  0  0
    4.2969    4.1506    6.8195 N   0  0  1  0  0  0  0  0  0  0  0  0
    5.1759    5.4267    8.5279 N   0  0  0  0  0  0  0  0  0  0  0  0
    6.1721    5.6593    6.5318 N   0  0  0  0  0  0  0  0  0  0  0  0
    5.3650    1.1491    6.8980 N   0  0  1  0  0  0  0  0  0  0  0  0
    7.4020    2.1762    7.3105 N   0  0  0  0  0  0  0  0  0  0  0  0
    7.3419    0.7378    5.5766 N   0  0  0  0  0  0  0  0  0  0  0  0
    5.1653    5.0054    7.2322 C   0  0  0  0  0  3  0  0  0  0  0  0
    4.0386    5.3371    9.4033 C   0  0  0  0  0  0  0  0  0  0  0  0
    3.4951    6.2871    9.4391 H   0  0  0  0  0  0  0  0  0  0  0  0
    4.3691    5.0739   10.4080 H   0  0  0  0  0  0  0  0  0  0  0  0
    3.3752    4.5575    9.0348 H   0  0  0  0  0  0  0  0  0  0  0  0
    6.1132    6.5071    8.7183 C   0  0  0  0  0  0  0  0  0  0  0  0
    6.6699    6.3747    9.6499 H   0  0  0  0  0  0  0  0  0  0  0  0
    5.5883    7.4725    8.7627 H   0  0  0  0  0  0  0  0  0  0  0  0
    6.9933    6.4028    7.4770 C   0  0  0  0  0  0  0  0  0  0  0  0
    7.2581    7.3772    7.0585 H   0  0  0  0  0  0  0  0  0  0  0  0
    7.9191    5.8521    7.6948 H   0  0  0  0  0  0  0  0  0  0  0  0
    6.9222    5.0352    5.4642 C   0  0  0  0  0  0  0  0  0  0  0  0
    7.4188    4.1181    5.8015 H   0  0  0  0  0  0  0  0  0  0  0  0
    7.6777    5.7454    5.1280 H   0  0  0  0  0  0  0  0  0  0  0  0
    6.2801    4.8039    4.6190 H   0  0  0  0  0  0  0  0  0  0  0  0
    4.0504    3.8543    5.4374 C   0  0  0  0  0  0  0  0  0  0  0  0
    4.7679    3.1171    5.0438 H   0  0  0  0  0  0  0  0  0  0  0  0
    4.1068    4.7604    4.8166 H   0  0  0  0  0  0  0  0  0  0  0  0
    2.6341    3.2976    5.3040 C   0  0  0  0  0  0  0  0  0  0  0  0
    2.4004    3.0655    4.2637 H   0  0  0  0  0  0  0  0  0  0  0  0
    1.9131    4.0215    5.6837 H   0  0  0  0  0  0  0  0  0  0  0  0
    3.4123    0.5844    5.4722 C   0  0  0  0  0  0  0  0  0  0  0  0
    2.7764   -0.2572    5.1946 H   0  0  0  0  0  0  0  0  0  0  0  0
    3.7919    1.0593    4.5672 H   0  0  0  0  0  0  0  0  0  0  0  0
    4.5318    0.0939    6.3884 C   0  0  0  0  0  0  0  0  0  0  0  0
    4.0599   -0.3581    7.2698 H   0  0  0  0  0  0  0  0  0  0  0  0
    5.1059   -0.6934    5.8811 H   0  0  0  0  0  0  0  0  0  0  0  0
    6.5881    1.3318    6.5845 C   0  0  0  0  0  3  0  0  0  0  0  0
    7.0786    2.5368    8.6692 C   0  0  0  0  0  0  0  0  0  0  0  0
    6.0264    2.8071    8.7194 H   0  0  0  0  0  0  0  0  0  0  0  0
    7.6897    3.3916    8.9580 H   0  0  0  0  0  0  0  0  0  0  0  0
    7.2600    1.7127    9.3658 H   0  0  0  0  0  0  0  0  0  0  0  0
    8.7877    1.8429    7.0446 C   0  0  0  0  0  0  0  0  0  0  0  0
    9.1679    1.1412    7.8005 H   0  0  0  0  0  0  0  0  0  0  0  0
    9.4116    2.7408    7.0621 H   0  0  0  0  0  0  0  0  0  0  0  0
    8.7191    1.1923    5.6679 C   0  0  0  0  0  0  0  0  0  0  0  0
    8.9366    1.9197    4.8710 H   0  0  0  0  0  0  0  0  0  0  0  0
    9.4052    0.3485    5.5600 H   0  0  0  0  0  0  0  0  0  0  0  0
    6.8786    0.5525    4.2227 C   0  0  0  0  0  0  0  0  0  0  0  0
    5.8260    0.2976    4.1942 H   0  0  0  0  0  0  0  0  0  0  0  0
    7.4458   -0.2613    3.7669 H   0  0  0  0  0  0  0  0  0  0  0  0
    7.0359    1.4608    3.6221 H   0  0  0  0  0  0  0  0  0  0  0  0
  2  1  1  1  0  0  0
  3 28  1  6  0  0  0
  3  2  1  0  0  0  0
  4 10  1  6  0  0  0
  4  2  1  0  0  0  0
  5 15  1  0  0  0  0
  5 11  1  0  0  0  0
  6 10  1  0  0  0  0
  6 18  1  0  0  0  0
  7 37  1  6  0  0  0
  7  2  1  0  0  0  0
  8 38  1  0  0  0  0
  9 45  1  0  0  0  0
  9 37  1  0  0  0  0
 10  5  1  0  0  0  0
 11 12  1  0  0  0  0
 11 13  1  0  0  0  0
 14 11  1  0  0  0  0
 15 17  1  0  0  0  0
 15 16  1  0  0  0  0
 18 20  1  0  0  0  0
 18 15  1  0  0  0  0
 19 18  1  0  0  0  0
 21 22  1  0  0  0  0
 21  6  1  0  0  0  0
 23 21  1  0  0  0  0
 24 21  1  0  0  0  0
 25  4  1  0  0  0  0
 26 25  1  0  0  0  0
 27 25  1  0  0  0  0
 28 25  1  0  0  0  0
 28 30  1  0  0  0  0
 29 28  1  0  0  0  0
 31  3  1  0  0  0  0
 31 34  1  0  0  0  0
 32 31  1  0  0  0  0
 33 31  1  0  0  0  0
 34  7  1  0  0  0  0
 34 35  1  0  0  0  0
 36 34  1  0  0  0  0
 37  8  1  0  0  0  0
 38 39  1  0  0  0  0
 38 40  1  0  0  0  0
 38 41  1  0  0  0  0
 42 44  1  0  0  0  0
 42  8  1  0  0  0  0
 42 43  1  0  0  0  0
 45 42  1  0  0  0  0
 46 45  1  0  0  0  0
 47 45  1  0  0  0  0
 48  9  1  0  0  0  0
 49 48  1  0  0  0  0
 50 48  1  0  0  0  0
 51 48  1  0  0  0  0
M  END
$$$$
