CSD_code = TUDJUX | q = 0 | S = 0 | Stoichiometry = C23H38ClN3Si2W | MND = 5
 OpenBabel04212202103D

 68 70  0  0  0  0  0  0  0  0999 V2000
    2.3871    2.8230    3.1883 W   0  0  0  0  0  0  0  0  0  0  0  0
    4.0517    3.3773    1.6300 Cl  0  0  0  0  0  0  0  0  0  0  0  0
   -0.6390    2.1452    4.8993 Si  0  0  0  0  0  0  0  0  0  0  0  0
    3.3614    6.0796    3.6085 Si  0  0  0  0  0  0  0  0  0  0  0  0
    0.5206    2.8524    3.8115 N   0  0  0  0  0  0  0  0  0  0  0  0
    2.2100    4.8053    3.3634 N   0  0  0  0  0  0  0  0  0  0  0  0
    3.3886    1.9388    4.3756 N   0  0  0  0  0  2  0  0  0  0  0  0
    4.1167    1.5183    5.4360 C   0  0  0  0  0  0  0  0  0  0  0  0
    4.9990    0.4262    5.3684 C   0  0  0  0  0  0  0  0  0  0  0  0
    5.1030   -0.1032    4.4326 H   0  0  0  0  0  0  0  0  0  0  0  0
    5.7248    0.0429    6.4770 C   0  0  0  0  0  0  0  0  0  0  0  0
    6.4007   -0.7973    6.4039 H   0  0  0  0  0  0  0  0  0  0  0  0
    5.5946    0.7194    7.6794 C   0  0  0  0  0  0  0  0  0  0  0  0
    6.1652    0.4109    8.5422 H   0  0  0  0  0  0  0  0  0  0  0  0
    4.7246    1.7967    7.7653 C   0  0  0  0  0  0  0  0  0  0  0  0
    4.6178    2.3289    8.7001 H   0  0  0  0  0  0  0  0  0  0  0  0
    3.9964    2.1952    6.6667 C   0  0  0  0  0  0  0  0  0  0  0  0
    3.3104    3.0337    6.7124 H   0  0  0  0  0  0  0  0  0  0  0  0
    0.1773    3.7227    2.7810 C   0  0  0  0  0  0  0  0  0  0  0  0
   -0.9968    3.6692    2.0335 C   0  0  0  0  0  0  0  0  0  0  0  0
   -1.7226    2.9015    2.2558 H   0  0  0  0  0  0  0  0  0  0  0  0
   -1.2326    4.5863    1.0225 C   0  0  0  0  0  0  0  0  0  0  0  0
   -2.1449    4.5241    0.4493 H   0  0  0  0  0  0  0  0  0  0  0  0
   -0.3080    5.5832    0.7512 C   0  0  0  0  0  0  0  0  0  0  0  0
   -0.5006    6.2963   -0.0359 H   0  0  0  0  0  0  0  0  0  0  0  0
    0.8566    5.6855    1.4903 C   0  0  0  0  0  0  0  0  0  0  0  0
    1.5583    6.4827    1.3011 H   0  0  0  0  0  0  0  0  0  0  0  0
    1.1346    4.7725    2.5125 C   0  0  0  0  0  0  0  0  0  0  0  0
    0.4775    1.4009    6.2527 C   0  0  0  0  0  0  0  0  0  0  0  0
    1.4862    1.2749    5.8590 H   0  0  0  0  0  0  0  0  0  0  0  0
    0.1207    0.4345    6.5898 H   0  0  0  0  0  0  0  0  0  0  0  0
    0.5385    2.0442    7.1240 H   0  0  0  0  0  0  0  0  0  0  0  0
   -1.7045    0.7649    4.0954 C   0  0  0  0  0  0  0  0  0  0  0  0
   -2.5943    1.1596    3.6131 H   0  0  0  0  0  0  0  0  0  0  0  0
   -2.0383    0.0608    4.8506 H   0  0  0  0  0  0  0  0  0  0  0  0
   -1.1455    0.2043    3.3514 H   0  0  0  0  0  0  0  0  0  0  0  0
   -1.7898    3.5172    5.5711 C   0  0  0  0  0  0  0  0  0  0  0  0
   -2.3509    3.9929    4.7717 H   0  0  0  0  0  0  0  0  0  0  0  0
   -1.2220    4.2936    6.0763 H   0  0  0  0  0  0  0  0  0  0  0  0
   -2.5039    3.1138    6.2812 H   0  0  0  0  0  0  0  0  0  0  0  0
    4.6921    5.1713    4.6398 C   0  0  0  0  0  0  0  0  0  0  0  0
    4.7005    4.1033    4.3932 H   0  0  0  0  0  0  0  0  0  0  0  0
    4.5130    5.2660    5.7062 H   0  0  0  0  0  0  0  0  0  0  0  0
    5.6838    5.5646    4.4440 H   0  0  0  0  0  0  0  0  0  0  0  0
    4.1662    6.8602    2.0536 C   0  0  0  0  0  0  0  0  0  0  0  0
    3.5522    7.6477    1.6249 H   0  0  0  0  0  0  0  0  0  0  0  0
    4.3582    6.1201    1.2817 H   0  0  0  0  0  0  0  0  0  0  0  0
    5.1188    7.3082    2.3195 H   0  0  0  0  0  0  0  0  0  0  0  0
    2.5242    7.4735    4.6132 C   0  0  0  0  0  0  0  0  0  0  0  0
    1.7146    7.9356    4.0566 H   0  0  0  0  0  0  0  0  0  0  0  0
    3.2448    8.2474    4.8513 H   0  0  0  0  0  0  0  0  0  0  0  0
    2.1119    7.1048    5.5471 H   0  0  0  0  0  0  0  0  0  0  0  0
    1.7351    1.3833    1.6310 C   0  0  0  0  0  0  0  0  0  0  0  0
    0.6366    1.2355    1.6705 H   0  0  0  0  0  0  0  0  0  0  0  0
    1.9271    1.8284    0.6295 H   0  0  0  0  0  0  0  0  0  0  0  0
    2.3522   -0.0320    1.6170 C   0  0  0  0  0  0  0  0  0  0  0  0
    1.8285   -0.8379    0.4190 C   0  0  0  0  0  0  0  0  0  0  0  0
    2.1102   -0.3592   -0.5166 H   0  0  0  0  0  0  0  0  0  0  0  0
    0.7431   -0.9140    0.4504 H   0  0  0  0  0  0  0  0  0  0  0  0
    2.2410   -1.8448    0.4243 H   0  0  0  0  0  0  0  0  0  0  0  0
    1.9701   -0.7605    2.9125 C   0  0  0  0  0  0  0  0  0  0  0  0
    0.9010   -0.9606    2.9391 H   0  0  0  0  0  0  0  0  0  0  0  0
    2.2274   -0.1416    3.7772 H   0  0  0  0  0  0  0  0  0  0  0  0
    2.4939   -1.7113    2.9873 H   0  0  0  0  0  0  0  0  0  0  0  0
    3.8794    0.0659    1.5160 C   0  0  0  0  0  0  0  0  0  0  0  0
    4.1712    0.5687    0.5951 H   0  0  0  0  0  0  0  0  0  0  0  0
    4.3277   -0.9264    1.5203 H   0  0  0  0  0  0  0  0  0  0  0  0
    4.2765    0.6404    2.3604 H   0  0  0  0  0  0  0  0  0  0  0  0
  1  6  1  0  0  0  0
  1  5  1  0  0  0  0
  1  7  1  0  0  0  0
  2  1  1  0  0  0  0
  3 37  1  0  0  0  0
  3 29  1  0  0  0  0
  4 49  1  0  0  0  0
  4 41  1  0  0  0  0
  5  3  1  0  0  0  0
  6  4  1  0  0  0  0
  7  8  1  0  0  0  0
  8 17  1  0  0  0  0
  9  8  2  0  0  0  0
  9 11  1  0  0  0  0
 10  9  1  0  0  0  0
 11 13  2  0  0  0  0
 12 11  1  0  0  0  0
 13 15  1  0  0  0  0
 13 14  1  0  0  0  0
 15 16  1  0  0  0  0
 17 18  1  0  0  0  0
 17 15  2  0  0  0  0
 19  5  1  0  0  0  0
 20 21  1  0  0  0  0
 20 19  2  0  0  0  0
 22 20  1  0  0  0  0
 23 22  1  0  0  0  0
 24 22  2  0  0  0  0
 24 26  1  0  0  0  0
 25 24  1  0  0  0  0
 26 28  2  0  0  0  0
 27 26  1  0  0  0  0
 28 19  1  0  0  0  0
 28  6  1  0  0  0  0
 29 31  1  0  0  0  0
 29 32  1  0  0  0  0
 30 29  1  0  0  0  0
 33 35  1  0  0  0  0
 33  3  1  0  0  0  0
 34 33  1  0  0  0  0
 36 33  1  0  0  0  0
 37 39  1  0  0  0  0
 37 40  1  0  0  0  0
 38 37  1  0  0  0  0
 41 43  1  0  0  0  0
 42 41  1  0  0  0  0
 44 41  1  0  0  0  0
 45 48  1  0  0  0  0
 45  4  1  0  0  0  0
 46 45  1  0  0  0  0
 47 45  1  0  0  0  0
 49 51  1  0  0  0  0
 49 52  1  0  0  0  0
 50 49  1  0  0  0  0
 53 54  1  0  0  0  0
 53  1  1  0  0  0  0
 55 53  1  0  0  0  0
 56 53  1  0  0  0  0
 56 61  1  0  0  0  0
 57 60  1  0  0  0  0
 57 59  1  0  0  0  0
 57 56  1  0  0  0  0
 58 57  1  0  0  0  0
 61 62  1  0  0  0  0
 61 64  1  0  0  0  0
 61 63  1  0  0  0  0
 65 67  1  0  0  0  0
 65 56  1  0  0  0  0
 65 68  1  0  0  0  0
 66 65  1  0  0  0  0
M  END
$$$$
