CSD_code = TUDRIU | q = 0 | S = 0 | Stoichiometry = C17H16AuBr3N2 | MND = 4
 OpenBabel04212202103D

 39 41  0  0  0  0  0  0  0  0999 V2000
    2.0022    1.7641   14.7855 Au  0  0  0  0  0  0  0  0  0  0  0  0
    3.2594    0.9564   16.7287 Br  0  0  0  0  0  0  0  0  0  0  0  0
    0.6710    2.8449   13.0312 Br  0  0  0  0  0  0  0  0  0  0  0  0
    0.5867   -0.1824   14.8004 Br  0  0  0  0  0  0  0  0  0  0  0  0
    4.1382    3.5413   13.6783 N   0  0  0  0  0  0  0  0  0  0  0  0
    3.5076    4.2846   15.6023 N   0  0  0  0  0  0  0  0  0  0  0  0
    3.2811    3.3350   14.6877 C   0  0  0  0  0  0  0  0  0  0  0  0
    4.5200    5.0923   15.1702 C   0  0  0  0  0  0  0  0  0  0  0  0
    4.8740    5.9209   15.7471 H   0  0  0  0  0  0  0  0  0  0  0  0
    4.1468    1.2774   12.7656 C   0  0  0  0  0  0  0  0  0  0  0  0
    4.9597    0.7539   13.7678 C   0  0  0  0  0  0  0  0  0  0  0  0
    5.5886    1.4086   14.3572 H   0  0  0  0  0  0  0  0  0  0  0  0
    4.1457    2.7550   12.4450 C   0  0  0  0  0  0  0  0  0  0  0  0
    3.2088    2.9921   11.9201 H   0  0  0  0  0  0  0  0  0  0  0  0
    4.9370   -0.6013   14.0484 C   0  0  0  0  0  0  0  0  0  0  0  0
    5.5532   -0.9886   14.8454 H   0  0  0  0  0  0  0  0  0  0  0  0
    5.2876    3.1788   11.5460 C   0  0  0  0  0  0  0  0  0  0  0  0
    4.9151    4.6267   13.9586 C   0  0  0  0  0  0  0  0  0  0  0  0
    5.6712    4.9770   13.2878 H   0  0  0  0  0  0  0  0  0  0  0  0
    7.3341    4.0370    9.8700 C   0  0  0  0  0  0  0  0  0  0  0  0
    8.1287    4.3672    9.2184 H   0  0  0  0  0  0  0  0  0  0  0  0
    3.3032   -0.9346   12.3259 C   0  0  0  0  0  0  0  0  0  0  0  0
    2.6414   -1.5855   11.7758 H   0  0  0  0  0  0  0  0  0  0  0  0
    3.3254    0.4192   12.0401 C   0  0  0  0  0  0  0  0  0  0  0  0
    2.6908    0.8188   11.2617 H   0  0  0  0  0  0  0  0  0  0  0  0
    6.0765    4.6094    9.7773 C   0  0  0  0  0  0  0  0  0  0  0  0
    5.8857    5.3873    9.0536 H   0  0  0  0  0  0  0  0  0  0  0  0
    6.5497    2.6069   11.6323 C   0  0  0  0  0  0  0  0  0  0  0  0
    6.7410    1.8173   12.3425 H   0  0  0  0  0  0  0  0  0  0  0  0
    7.5667    3.0352   10.7962 C   0  0  0  0  0  0  0  0  0  0  0  0
    8.5431    2.5805   10.8689 H   0  0  0  0  0  0  0  0  0  0  0  0
    5.0582    4.1816   10.6098 C   0  0  0  0  0  0  0  0  0  0  0  0
    4.0761    4.6265   10.5327 H   0  0  0  0  0  0  0  0  0  0  0  0
    4.1054   -1.4456   13.3325 C   0  0  0  0  0  0  0  0  0  0  0  0
    4.0709   -2.4976   13.5696 H   0  0  0  0  0  0  0  0  0  0  0  0
    2.8181    4.4302   16.8560 C   0  0  0  0  0  0  0  0  0  0  0  0
    1.7595    4.2032   16.7301 H   0  0  0  0  0  0  0  0  0  0  0  0
    2.9238    5.4544   17.2073 H   0  0  0  0  0  0  0  0  0  0  0  0
    3.2341    3.7460   17.5994 H   0  0  0  0  0  0  0  0  0  0  0  0
  1  4  1  0  0  0  0
  1  2  1  0  0  0  0
  3  1  1  0  0  0  0
  5 18  1  0  0  0  0
  5  7  1  0  0  0  0
  6 36  1  0  0  0  0
  7  1  2  0  0  0  0
  7  6  1  0  0  0  0
  8  6  1  0  0  0  0
  8  9  1  0  0  0  0
 10 11  1  0  0  0  0
 11 15  2  0  0  0  0
 11 12  1  0  0  0  0
 13 10  1  0  0  0  0
 13  5  1  0  0  0  0
 14 13  1  0  0  0  0
 15 16  1  0  0  0  0
 17 28  1  0  0  0  0
 17 13  1  0  0  0  0
 18  8  2  0  0  0  0
 19 18  1  0  0  0  0
 20 30  1  0  0  0  0
 21 20  1  0  0  0  0
 22 34  2  0  0  0  0
 23 22  1  0  0  0  0
 24 22  1  0  0  0  0
 24 10  2  0  0  0  0
 25 24  1  0  0  0  0
 26 20  2  0  0  0  0
 26 32  1  0  0  0  0
 27 26  1  0  0  0  0
 28 29  1  0  0  0  0
 30 31  1  0  0  0  0
 30 28  2  0  0  0  0
 32 17  2  0  0  0  0
 33 32  1  0  0  0  0
 34 35  1  0  0  0  0
 34 15  1  0  0  0  0
 36 38  1  0  0  0  0
 36 39  1  0  0  0  0
 37 36  1  0  0  0  0
M  END
$$$$
