CSD_code = TUDSIV | q = 0 | S = 0 | Stoichiometry = C23H36ClN3O3Pd | MND = 4
 OpenBabel04212202103D

 67 69  0  0  0  0  0  0  0  0999 V2000
   -2.2445    1.1772   11.7259 Pd  0  0  2  0  0  0  0  0  0  0  0  0
   -2.4126   -0.7243   13.1527 Cl  0  0  0  0  0  0  0  0  0  0  0  0
   -4.4952    2.7219   15.7385 O   0  0  0  0  0  0  0  0  0  0  0  0
   -1.8769    6.5390    7.1392 O   0  0  0  0  0  0  0  0  0  0  0  0
   -0.9198    7.4130    8.9699 O   0  0  0  0  0  0  0  0  0  0  0  0
   -0.1293   -0.3150   10.2357 N   0  0  0  0  0  0  0  0  0  0  0  0
   -2.1247   -0.8977    9.6176 N   0  0  0  0  0  0  0  0  0  0  0  0
   -3.1943    2.3886   13.2052 N   0  0  0  0  0  4  0  0  0  0  0  0
   -3.2594    3.3658   12.8984 H   0  0  0  0  0  0  0  0  0  0  0  0
   -1.4428   -0.0432   10.4087 C   0  0  0  0  0  0  0  0  0  0  0  0
    0.0063   -1.3219    9.3146 C   0  0  0  0  0  0  0  0  0  0  0  0
    0.9460   -1.7127    8.9916 H   0  0  0  0  0  0  0  0  0  0  0  0
   -1.2334   -1.6888    8.9362 C   0  0  0  0  0  0  0  0  0  0  0  0
   -1.5265   -2.4492    8.2444 H   0  0  0  0  0  0  0  0  0  0  0  0
    1.0158    0.3701   10.8570 C   0  0  0  0  0  0  0  0  0  0  0  0
    2.2564   -0.5277   10.7891 C   0  0  0  0  0  0  0  0  0  0  0  0
    2.0461   -1.5086   11.2088 H   0  0  0  0  0  0  0  0  0  0  0  0
    3.0529   -0.0727   11.3719 H   0  0  0  0  0  0  0  0  0  0  0  0
    2.6213   -0.6395    9.7713 H   0  0  0  0  0  0  0  0  0  0  0  0
    0.7312    0.6701   12.3326 C   0  0  0  0  0  0  0  0  0  0  0  0
    0.4096   -0.2372   12.8451 H   0  0  0  0  0  0  0  0  0  0  0  0
   -0.0540    1.4361   12.4371 H   0  0  0  0  0  0  0  0  0  0  0  0
    1.6365    1.0374   12.8097 H   0  0  0  0  0  0  0  0  0  0  0  0
    1.2738    1.6652   10.0799 C   0  0  0  0  0  0  0  0  0  0  0  0
    1.5033    1.4458    9.0391 H   0  0  0  0  0  0  0  0  0  0  0  0
    2.1127    2.2005   10.5155 H   0  0  0  0  0  0  0  0  0  0  0  0
    0.3929    2.3033   10.1114 H   0  0  0  0  0  0  0  0  0  0  0  0
   -3.5699   -1.1506    9.4870 C   0  0  0  0  0  0  0  0  0  0  0  0
   -3.9448   -1.0406    8.0034 C   0  0  0  0  0  0  0  0  0  0  0  0
   -3.4534   -1.7992    7.4009 H   0  0  0  0  0  0  0  0  0  0  0  0
   -3.6682   -0.0623    7.6158 H   0  0  0  0  0  0  0  0  0  0  0  0
   -5.0179   -1.1657    7.8882 H   0  0  0  0  0  0  0  0  0  0  0  0
   -4.4349   -0.1759   10.2881 C   0  0  0  0  0  0  0  0  0  0  0  0
   -4.2339   -0.2930   11.3594 H   0  0  0  0  0  0  0  0  0  0  0  0
   -5.4801   -0.4247   10.1145 H   0  0  0  0  0  0  0  0  0  0  0  0
   -4.2733    0.8611    9.9748 H   0  0  0  0  0  0  0  0  0  0  0  0
   -3.8312   -2.5628   10.0265 C   0  0  0  0  0  0  0  0  0  0  0  0
   -3.5066   -2.6148   11.0639 H   0  0  0  0  0  0  0  0  0  0  0  0
   -3.2971   -3.3191    9.4573 H   0  0  0  0  0  0  0  0  0  0  0  0
   -4.8933   -2.7873    9.9828 H   0  0  0  0  0  0  0  0  0  0  0  0
   -2.4505    2.3599   14.4707 C   0  0  0  0  0  0  0  0  0  0  0  0
   -1.4413    2.7586   14.3185 H   0  0  0  0  0  0  0  0  0  0  0  0
   -2.3797    1.3152   14.7931 H   0  0  0  0  0  0  0  0  0  0  0  0
   -3.1783    3.1843   15.5364 C   0  0  0  0  0  0  0  0  0  0  0  0
   -2.6773    3.1015   16.5020 H   0  0  0  0  0  0  0  0  0  0  0  0
   -3.1997    4.2466   15.2333 H   0  0  0  0  0  0  0  0  0  0  0  0
   -5.2357    2.7407   14.5386 C   0  0  0  0  0  0  0  0  0  0  0  0
   -5.3526    3.7821   14.1891 H   0  0  0  0  0  0  0  0  0  0  0  0
   -6.2192    2.3373   14.7844 H   0  0  0  0  0  0  0  0  0  0  0  0
   -4.5594    1.9047   13.4473 C   0  0  0  0  0  0  0  0  0  0  0  0
   -4.4908    0.8611   13.7753 H   0  0  0  0  0  0  0  0  0  0  0  0
   -5.1380    1.9642   12.5184 H   0  0  0  0  0  0  0  0  0  0  0  0
   -2.0083    2.7878   10.5458 C   0  0  0  0  0  0  0  0  0  0  0  0
   -1.3794    3.9121   11.1013 C   0  0  0  0  0  0  0  0  0  0  0  0
   -0.9859    3.8703   12.1158 H   0  0  0  0  0  0  0  0  0  0  0  0
   -1.2100    5.0895   10.3983 C   0  0  0  0  0  0  0  0  0  0  0  0
   -0.7195    5.9362   10.8550 H   0  0  0  0  0  0  0  0  0  0  0  0
   -1.6699    5.1879    9.0874 C   0  0  0  0  0  0  0  0  0  0  0  0
   -2.2838    4.0801    8.5062 C   0  0  0  0  0  0  0  0  0  0  0  0
   -2.6277    4.1595    7.4851 H   0  0  0  0  0  0  0  0  0  0  0  0
   -2.4418    2.9097    9.2220 C   0  0  0  0  0  0  0  0  0  0  0  0
   -2.9044    2.0671    8.7213 H   0  0  0  0  0  0  0  0  0  0  0  0
   -1.5164    6.4139    8.2866 C   0  0  0  0  0  0  0  0  0  0  0  0
   -0.7342    8.6196    8.2511 C   0  0  0  0  0  0  0  0  0  0  0  0
   -0.0860    8.4520    7.3879 H   0  0  0  0  0  0  0  0  0  0  0  0
   -0.2740    9.3203    8.9434 H   0  0  0  0  0  0  0  0  0  0  0  0
   -1.6936    9.0035    7.8967 H   0  0  0  0  0  0  0  0  0  0  0  0
  1  2  1  1  0  0  0
  1  8  1  0  0  0  0
  4 63  2  0  0  0  0
  6 10  1  0  0  0  0
  6 15  1  0  0  0  0
  7 10  1  0  0  0  0
  8 50  1  0  0  0  0
  8 41  1  0  0  0  0
  9  8  1  0  0  0  0
 10  1  2  0  0  0  0
 11  6  1  0  0  0  0
 12 11  1  0  0  0  0
 13 11  2  0  0  0  0
 13  7  1  0  0  0  0
 14 13  1  0  0  0  0
 15 20  1  0  0  0  0
 16 15  1  0  0  0  0
 16 17  1  0  0  0  0
 16 18  1  0  0  0  0
 19 16  1  0  0  0  0
 20 22  1  0  0  0  0
 20 23  1  0  0  0  0
 20 21  1  0  0  0  0
 24 27  1  0  0  0  0
 24 26  1  0  0  0  0
 24 15  1  0  0  0  0
 25 24  1  0  0  0  0
 28  7  1  0  0  0  0
 28 37  1  0  0  0  0
 28 33  1  0  0  0  0
 29 28  1  0  0  0  0
 30 29  1  0  0  0  0
 31 29  1  0  0  0  0
 32 29  1  0  0  0  0
 33 34  1  0  0  0  0
 35 33  1  0  0  0  0
 36 33  1  0  0  0  0
 37 38  1  0  0  0  0
 39 37  1  0  0  0  0
 40 37  1  0  0  0  0
 41 43  1  0  0  0  0
 41 44  1  0  0  0  0
 42 41  1  0  0  0  0
 44  3  1  0  0  0  0
 44 45  1  0  0  0  0
 46 44  1  0  0  0  0
 47 49  1  0  0  0  0
 47  3  1  0  0  0  0
 48 47  1  0  0  0  0
 50 51  1  0  0  0  0
 50 47  1  0  0  0  0
 52 50  1  0  0  0  0
 53 54  1  0  0  0  0
 53  1  1  0  0  0  0
 54 55  1  0  0  0  0
 56 57  1  0  0  0  0
 56 54  2  0  0  0  0
 58 56  1  0  0  0  0
 59 58  2  0  0  0  0
 59 61  1  0  0  0  0
 60 59  1  0  0  0  0
 61 53  2  0  0  0  0
 62 61  1  0  0  0  0
 63  5  1  0  0  0  0
 63 58  1  0  0  0  0
 64 66  1  0  0  0  0
 64  5  1  0  0  0  0
 65 64  1  0  0  0  0
 67 64  1  0  0  0  0
M  END
$$$$
