CSD_code = TUDXOF | q = 1 | S = 0 | Stoichiometry = C23H32Cl2RhS4(1+) | MND = 6
 OpenBabel04212202103D

 62 66  0  0  0  0  0  0  0  0999 V2000
    0.1818    3.1940   14.6461 Rh  0  0  0  0  0  0  0  0  0  0  0  0
    0.6986    3.1951   12.3621 Cl  0  0  0  0  0  0  0  0  0  0  0  0
   -0.1618    3.1933   16.9456 Cl  0  0  0  0  0  0  0  0  0  0  0  0
   -1.5453    1.5898   14.3165 S   0  0  1  0  0  3  0  0  0  0  0  0
    1.6597    4.9802   15.0486 S   0  0  2  0  0  3  0  0  0  0  0  0
   -0.9917    0.2514   13.2124 C   0  0  0  0  0  0  0  0  0  0  0  0
    0.2240   -0.5434   13.6604 C   0  0  0  0  0  0  0  0  0  0  0  0
    1.5195    6.1343   13.6354 C   0  0  0  0  0  0  0  0  0  0  0  0
    3.3785    4.4593   14.7282 C   0  0  0  0  0  0  0  0  0  0  0  0
    3.7648    3.1927   15.4783 C   0  0  0  0  0  0  0  0  0  0  0  0
   -1.8273    0.6856   15.8817 C   0  0  0  0  0  0  0  0  0  0  0  0
   -2.7579   -0.4636   15.6622 C   0  0  0  0  0  0  0  0  0  0  0  0
   -2.3740   -1.7587   15.9850 C   0  0  0  0  0  0  0  0  0  0  0  0
   -3.2472   -2.8148   15.7879 C   0  0  0  0  0  0  0  0  0  0  0  0
   -4.5051   -2.5867   15.2572 C   0  0  0  0  0  0  0  0  0  0  0  0
   -4.8933   -1.2971   14.9307 C   0  0  0  0  0  0  0  0  0  0  0  0
   -4.0248   -0.2407   15.1324 C   0  0  0  0  0  0  0  0  0  0  0  0
   -0.8058    0.7430   12.2572 H   0  0  0  0  0  0  0  0  0  0  0  0
   -1.8565   -0.4055   13.1135 H   0  0  0  0  0  0  0  0  0  0  0  0
    0.0609   -0.9645   14.6535 H   0  0  0  0  0  0  0  0  0  0  0  0
    0.3320   -1.3817   12.9670 H   0  0  0  0  0  0  0  0  0  0  0  0
    1.6036    5.5520   12.7165 H   0  0  0  0  0  0  0  0  0  0  0  0
    2.3726    6.8058   13.7321 H   0  0  0  0  0  0  0  0  0  0  0  0
    3.9928    5.2971   15.0603 H   0  0  0  0  0  0  0  0  0  0  0  0
    3.4913    4.3293   13.6513 H   0  0  0  0  0  0  0  0  0  0  0  0
    4.8494    3.1923   15.6081 H   0  0  0  0  0  0  0  0  0  0  0  0
    3.3145    3.1926   16.4744 H   0  0  0  0  0  0  0  0  0  0  0  0
   -2.2656    1.4375   16.5389 H   0  0  0  0  0  0  0  0  0  0  0  0
   -0.8682    0.3800   16.2973 H   0  0  0  0  0  0  0  0  0  0  0  0
   -1.3991   -1.9425   16.4144 H   0  0  0  0  0  0  0  0  0  0  0  0
   -2.9432   -3.8162   16.0509 H   0  0  0  0  0  0  0  0  0  0  0  0
   -5.1838   -3.4108   15.1025 H   0  0  0  0  0  0  0  0  0  0  0  0
   -5.8750   -1.1144   14.5219 H   0  0  0  0  0  0  0  0  0  0  0  0
   -4.3245    0.7663   14.8798 H   0  0  0  0  0  0  0  0  0  0  0  0
    1.5181    0.2526   13.6344 C   0  0  0  0  0  0  0  0  0  0  0  0
    1.6586    1.4063   15.0480 S   0  0  1  0  0  3  0  0  0  0  0  0
   -1.5453    4.7982   14.3160 S   0  0  2  0  0  3  0  0  0  0  0  0
   -0.9903    6.1370   13.2131 C   0  0  0  0  0  0  0  0  0  0  0  0
    0.2258    6.9310   13.6618 C   0  0  0  0  0  0  0  0  0  0  0  0
    3.3777    1.9265   14.7279 C   0  0  0  0  0  0  0  0  0  0  0  0
    3.9915    1.0883   15.0597 H   0  0  0  0  0  0  0  0  0  0  0  0
    3.4906    2.0568   13.6509 H   0  0  0  0  0  0  0  0  0  0  0  0
    0.0628    7.3514   14.6552 H   0  0  0  0  0  0  0  0  0  0  0  0
    0.3342    7.7697   12.9690 H   0  0  0  0  0  0  0  0  0  0  0  0
   -0.8044    5.6460   12.2576 H   0  0  0  0  0  0  0  0  0  0  0  0
   -1.8547    6.7944   13.1145 H   0  0  0  0  0  0  0  0  0  0  0  0
   -1.8278    5.7018   15.8814 C   0  0  0  0  0  0  0  0  0  0  0  0
   -2.7586    6.8507   15.6617 C   0  0  0  0  0  0  0  0  0  0  0  0
   -2.3753    8.1460   15.9844 C   0  0  0  0  0  0  0  0  0  0  0  0
   -3.2488    9.2018   15.7869 C   0  0  0  0  0  0  0  0  0  0  0  0
   -4.5065    8.9731   15.2559 C   0  0  0  0  0  0  0  0  0  0  0  0
   -4.8941    7.6833   14.9294 C   0  0  0  0  0  0  0  0  0  0  0  0
   -4.0253    6.6273   15.1315 C   0  0  0  0  0  0  0  0  0  0  0  0
   -4.3245    5.6201   14.8790 H   0  0  0  0  0  0  0  0  0  0  0  0
   -5.8756    7.5002   14.5202 H   0  0  0  0  0  0  0  0  0  0  0  0
   -5.1854    9.7970   15.1008 H   0  0  0  0  0  0  0  0  0  0  0  0
   -2.9452   10.2033   16.0498 H   0  0  0  0  0  0  0  0  0  0  0  0
   -1.4006    8.3302   16.4140 H   0  0  0  0  0  0  0  0  0  0  0  0
   -2.2661    4.9497   16.5383 H   0  0  0  0  0  0  0  0  0  0  0  0
   -0.8689    6.0076   16.2975 H   0  0  0  0  0  0  0  0  0  0  0  0
    1.6026    0.8352   12.7158 H   0  0  0  0  0  0  0  0  0  0  0  0
    2.3710   -0.4193   13.7309 H   0  0  0  0  0  0  0  0  0  0  0  0
  1 36  1  0  0  0  0
  1  5  1  0  0  0  0
  1  3  1  0  0  0  0
  2  1  1  0  0  0  0
  4  1  1  0  0  0  0
  4 11  1  1  0  0  0
  5  8  1  6  0  0  0
  6  7  1  0  0  0  0
  6  4  1  0  0  0  0
  7 20  1  0  0  0  0
  8 39  1  0  0  0  0
  8 23  1  0  0  0  0
  9  5  1  0  0  0  0
  9 24  1  0  0  0  0
  9 10  1  0  0  0  0
 10 26  1  0  0  0  0
 10 27  1  0  0  0  0
 11 29  1  0  0  0  0
 11 28  1  0  0  0  0
 12 11  1  0  0  0  0
 12 13  1  0  0  0  0
 13 30  1  0  0  0  0
 14 13  2  0  0  0  0
 14 31  1  0  0  0  0
 15 14  1  0  0  0  0
 16 17  1  0  0  0  0
 16 15  2  0  0  0  0
 17 12  2  0  0  0  0
 18  6  1  0  0  0  0
 19  6  1  0  0  0  0
 21  7  1  0  0  0  0
 22  8  1  0  0  0  0
 25  9  1  0  0  0  0
 32 15  1  0  0  0  0
 33 16  1  0  0  0  0
 34 17  1  0  0  0  0
 35  7  1  0  0  0  0
 35 62  1  0  0  0  0
 36 35  1  6  0  0  0
 37  1  1  0  0  0  0
 37 47  1  1  0  0  0
 38 39  1  0  0  0  0
 38 37  1  0  0  0  0
 39 43  1  0  0  0  0
 40 36  1  0  0  0  0
 40 41  1  0  0  0  0
 40 10  1  0  0  0  0
 42 40  1  0  0  0  0
 44 39  1  0  0  0  0
 45 38  1  0  0  0  0
 46 38  1  0  0  0  0
 47 60  1  0  0  0  0
 47 59  1  0  0  0  0
 48 47  1  0  0  0  0
 48 49  1  0  0  0  0
 49 58  1  0  0  0  0
 50 49  2  0  0  0  0
 50 57  1  0  0  0  0
 51 50  1  0  0  0  0
 52 53  1  0  0  0  0
 52 51  2  0  0  0  0
 53 48  2  0  0  0  0
 54 53  1  0  0  0  0
 55 52  1  0  0  0  0
 56 51  1  0  0  0  0
 61 35  1  0  0  0  0
M  END
$$$$
