CSD_code = TUDZOJ | q = 0 | S = 0 | Stoichiometry = C24H21ClN2PdS | MND = 4
 OpenBabel04212202103D

 50 55  0  0  0  0  0  0  0  0999 V2000
    7.2795    0.3899    2.2764 Pd  0  0  2  0  0  0  0  0  0  0  0  0
    6.4532    1.3377    0.3693 S   0  0  2  0  0  3  0  0  0  0  0  0
    5.8239    1.6384    3.5571 Cl  0  0  0  0  0  0  0  0  0  0  0  0
    9.2868   -0.4306    0.0580 N   0  0  0  0  0  0  0  0  0  0  0  0
    8.7477   -0.4871    1.2967 C   0  0  0  0  0  0  0  0  0  0  0  0
    8.0979   -0.7028    3.7983 N   0  0  0  0  0  0  0  0  0  0  0  0
    8.7664    0.3724   -1.0203 C   0  0  0  0  0  0  0  0  0  0  0  0
    9.0961   -0.0634   -1.9693 H   0  0  0  0  0  0  0  0  0  0  0  0
    9.1735    1.3934   -0.9571 H   0  0  0  0  0  0  0  0  0  0  0  0
    5.1434   -3.9416    5.6245 C   0  0  0  0  0  0  0  0  0  0  0  0
    4.9924   -4.6965    6.3825 H   0  0  0  0  0  0  0  0  0  0  0  0
   10.4594   -1.1701    0.0283 C   0  0  0  0  0  0  0  0  0  0  0  0
    7.8706    4.9293   -0.8031 C   0  0  0  0  0  0  0  0  0  0  0  0
    7.6930    5.6197   -1.6137 H   0  0  0  0  0  0  0  0  0  0  0  0
    9.1283   -1.4053    3.4520 C   0  0  0  0  0  0  0  0  0  0  0  0
    9.6072   -2.0810    4.1603 H   0  0  0  0  0  0  0  0  0  0  0  0
   12.6634   -2.7444    0.5106 C   0  0  0  0  0  0  0  0  0  0  0  0
   13.5364   -3.3594    0.6728 H   0  0  0  0  0  0  0  0  0  0  0  0
    7.2420    0.4349   -1.0333 C   0  0  0  0  0  0  0  0  0  0  0  0
    6.8137   -0.5677   -0.9867 H   0  0  0  0  0  0  0  0  0  0  0  0
    6.9087    0.9311   -1.9450 H   0  0  0  0  0  0  0  0  0  0  0  0
    7.3910    2.8611    0.3013 C   0  0  0  0  0  0  0  0  0  0  0  0
    8.3158    3.1596    1.2938 C   0  0  0  0  0  0  0  0  0  0  0  0
    8.4759    2.4616    2.1301 H   0  0  0  0  0  0  0  0  0  0  0  0
    9.0174    4.3516    1.2271 C   0  0  0  0  0  0  0  0  0  0  0  0
    9.7347    4.5922    1.9969 H   0  0  0  0  0  0  0  0  0  0  0  0
    4.5596   -2.9615    3.5201 C   0  0  0  0  0  0  0  0  0  0  0  0
    3.9455   -2.9490    2.6315 H   0  0  0  0  0  0  0  0  0  0  0  0
    6.1261   -2.9823    5.7960 C   0  0  0  0  0  0  0  0  0  0  0  0
    6.7357   -2.9929    6.6889 H   0  0  0  0  0  0  0  0  0  0  0  0
    7.1579    3.7448   -0.7417 C   0  0  0  0  0  0  0  0  0  0  0  0
    6.4192    3.5080   -1.4927 H   0  0  0  0  0  0  0  0  0  0  0  0
    6.3321   -2.0012    4.8357 C   0  0  0  0  0  0  0  0  0  0  0  0
    7.4056   -0.9510    5.0377 C   0  0  0  0  0  0  0  0  0  0  0  0
    6.9292   -0.0141    5.3551 H   0  0  0  0  0  0  0  0  0  0  0  0
    8.1057   -1.2839    5.8164 H   0  0  0  0  0  0  0  0  0  0  0  0
   10.6678   -1.7244    1.3178 C   0  0  0  0  0  0  0  0  0  0  0  0
    5.5388   -1.9994    3.6915 C   0  0  0  0  0  0  0  0  0  0  0  0
    5.6684   -1.2215    2.9220 H   0  0  0  0  0  0  0  0  0  0  0  0
   11.7847   -2.5183    1.5506 C   0  0  0  0  0  0  0  0  0  0  0  0
   11.9579   -2.9468    2.5264 H   0  0  0  0  0  0  0  0  0  0  0  0
   11.3486   -1.3967   -1.0084 C   0  0  0  0  0  0  0  0  0  0  0  0
   11.1990   -0.9693   -1.9895 H   0  0  0  0  0  0  0  0  0  0  0  0
    8.7996    5.2319    0.1794 C   0  0  0  0  0  0  0  0  0  0  0  0
    9.3499    6.1593    0.1322 H   0  0  0  0  0  0  0  0  0  0  0  0
   12.4499   -2.1919   -0.7502 C   0  0  0  0  0  0  0  0  0  0  0  0
   13.1594   -2.3861   -1.5406 H   0  0  0  0  0  0  0  0  0  0  0  0
    4.3589   -3.9348    4.4848 C   0  0  0  0  0  0  0  0  0  0  0  0
    3.5924   -4.6835    4.3492 H   0  0  0  0  0  0  0  0  0  0  0  0
    9.5712   -1.2674    2.1173 C   0  0  0  0  0  0  0  0  0  0  0  0
  1  3  1  1  0  0  0
  1  6  1  0  0  0  0
  2 22  1  1  0  0  0
  2  1  1  0  0  0  0
  4  5  1  0  0  0  0
  5 50  1  0  0  0  0
  5  1  2  0  0  0  0
  6 34  1  0  0  0  0
  7  9  1  0  0  0  0
  7  4  1  0  0  0  0
  8  7  1  0  0  0  0
 10 29  1  0  0  0  0
 10 11  1  0  0  0  0
 12  4  1  0  0  0  0
 12 37  1  0  0  0  0
 13 31  2  0  0  0  0
 13 44  1  0  0  0  0
 14 13  1  0  0  0  0
 15  6  1  0  0  0  0
 15 16  1  0  0  0  0
 17 18  1  0  0  0  0
 17 40  1  0  0  0  0
 19  7  1  0  0  0  0
 19 20  1  0  0  0  0
 19  2  1  0  0  0  0
 21 19  1  0  0  0  0
 22 23  2  0  0  0  0
 23 24  1  0  0  0  0
 25 23  1  0  0  0  0
 25 26  1  0  0  0  0
 27 38  2  0  0  0  0
 27 48  1  0  0  0  0
 28 27  1  0  0  0  0
 29 30  1  0  0  0  0
 31 22  1  0  0  0  0
 32 31  1  0  0  0  0
 33 34  1  0  0  0  0
 33 29  2  0  0  0  0
 34 35  1  0  0  0  0
 34 36  1  0  0  0  0
 37 40  2  0  0  0  0
 37 50  1  0  0  0  0
 38 33  1  0  0  0  0
 39 38  1  0  0  0  0
 40 41  1  0  0  0  0
 42 46  1  0  0  0  0
 42 12  2  0  0  0  0
 43 42  1  0  0  0  0
 44 25  2  0  0  0  0
 45 44  1  0  0  0  0
 46 17  2  0  0  0  0
 47 46  1  0  0  0  0
 48 10  2  0  0  0  0
 49 48  1  0  0  0  0
 50 15  2  0  0  0  0
M  END
$$$$
