CSD_code = TUFNIS | q = 1 | S = 0 | Stoichiometry = C26H18Cl2N6Rh(1+) | MND = 6
 OpenBabel04212202103D

 53 60  0  0  1  0  0  0  0  0999 V2000
   12.9635    1.6591    3.1812 Rh  0  0  0  0  0  0  0  0  0  0  0  0
   13.0886   -0.4876    3.9597 Cl  0  0  0  0  0  0  0  0  0  0  0  0
   11.7138    0.9585    1.3978 Cl  0  0  0  0  0  0  0  0  0  0  0  0
   11.1749    1.9978    3.9887 N   0  0  0  0  0  0  0  0  0  0  0  0
   12.5878    3.5484    2.4377 N   0  0  0  0  0  0  0  0  0  0  0  0
   14.7011    1.1912    2.3278 N   0  0  0  0  0  0  0  0  0  0  0  0
   14.2515    2.0805    4.7388 N   0  0  0  0  0  0  0  0  0  0  0  0
   10.5606    1.2332    4.8847 C   0  0  0  0  0  3  0  0  0  0  0  0
   11.1623    0.4790    5.3756 H   0  0  0  0  0  0  0  0  0  0  0  0
    9.2114    1.3654    5.1690 C   0  0  0  0  0  0  0  0  0  0  0  0
    8.7519    0.7152    5.8951 H   0  0  0  0  0  0  0  0  0  0  0  0
    8.4738    2.3258    4.4937 C   0  0  0  0  0  0  0  0  0  0  0  0
    7.4172    2.4413    4.6772 H   0  0  0  0  0  0  0  0  0  0  0  0
    9.1162    3.1370    3.5743 C   0  0  0  0  0  0  0  0  0  0  0  0
    8.5671    3.8949    3.0411 H   0  0  0  0  0  0  0  0  0  0  0  0
   10.4753    2.9516    3.3354 C   0  0  0  0  0  0  0  0  0  0  0  0
   11.2725    3.7753    2.4310 C   0  0  0  0  0  0  0  0  0  0  0  0
   10.7286    4.7745    1.5844 C   0  0  0  0  0  0  0  0  0  0  0  0
    9.6639    4.9461    1.5378 H   0  0  0  0  0  0  0  0  0  0  0  0
   11.4621    5.4917    0.7917 N   0  0  0  0  0  0  0  0  0  0  0  0
   12.7952    5.3324    0.8376 C   0  0  0  0  0  0  0  0  0  0  0  0
   13.6193    6.1375    0.0290 C   0  0  0  0  0  3  0  0  0  0  0  0
   13.1402    6.8546   -0.6177 H   0  0  0  0  0  0  0  0  0  0  0  0
   14.9797    6.0084    0.0950 C   0  0  0  0  0  0  0  0  0  0  0  0
   15.6152    6.6256   -0.5203 H   0  0  0  0  0  0  0  0  0  0  0  0
   15.5639    5.0888    0.9820 C   0  0  0  0  0  0  0  0  0  0  0  0
   16.6396    5.0297    1.0468 H   0  0  0  0  0  0  0  0  0  0  0  0
   14.7898    4.2785    1.7688 C   0  0  0  0  0  0  0  0  0  0  0  0
   15.2426    3.5963    2.4735 H   0  0  0  0  0  0  0  0  0  0  0  0
   13.3864    4.3550    1.6996 C   0  0  0  0  0  0  0  0  0  0  0  0
   14.8884    0.8747    1.0513 C   0  0  0  0  0  3  0  0  0  0  0  0
   14.0752    1.0931    0.3710 H   0  0  0  0  0  0  0  0  0  0  0  0
   16.0514    0.2714    0.6018 C   0  0  0  0  0  0  0  0  0  0  0  0
   16.1552    0.0210   -0.4412 H   0  0  0  0  0  0  0  0  0  0  0  0
   17.0547   -0.0162    1.5145 C   0  0  0  0  0  0  0  0  0  0  0  0
   17.9642   -0.5038    1.2008 H   0  0  0  0  0  0  0  0  0  0  0  0
   16.8701    0.3314    2.8416 C   0  0  0  0  0  0  0  0  0  0  0  0
   17.6369    0.1247    3.5693 H   0  0  0  0  0  0  0  0  0  0  0  0
   15.6766    0.9360    3.2273 C   0  0  0  0  0  0  0  0  0  0  0  0
   15.3861    1.3951    4.5826 C   0  0  0  0  0  0  0  0  0  0  0  0
   16.2330    1.1603    5.6955 C   0  0  0  0  0  0  0  0  0  0  0  0
   17.1353    0.5763    5.5957 H   0  0  0  0  0  0  0  0  0  0  0  0
   15.9503    1.5825    6.8883 N   0  0  0  0  0  0  0  0  0  0  0  0
   14.8520    2.3382    7.0539 C   0  0  0  0  0  0  0  0  0  0  0  0
   14.5522    2.8578    8.3272 C   0  0  0  0  0  0  0  0  0  0  0  0
   15.2193    2.6136    9.1379 H   0  0  0  0  0  0  0  0  0  0  0  0
   13.4563    3.6586    8.4993 C   0  0  0  0  0  0  0  0  0  0  0  0
   13.2241    4.0614    9.4726 H   0  0  0  0  0  0  0  0  0  0  0  0
   12.6355    3.9839    7.4065 C   0  0  0  0  0  0  0  0  0  0  0  0
   11.7980    4.6480    7.5558 H   0  0  0  0  0  0  0  0  0  0  0  0
   12.8901    3.4807    6.1587 C   0  0  0  0  0  0  0  0  0  0  0  0
   12.2767    3.7601    5.3146 H   0  0  0  0  0  0  0  0  0  0  0  0
   13.9856    2.6223    5.9509 C   0  0  1  0  0  3  0  0  0  0  0  0
  1  2  1  0  0  0  0
  1  4  1  0  0  0  0
  1  7  1  0  0  0  0
  3  1  1  0  0  0  0
  4  8  1  0  0  0  0
  5  1  1  0  0  0  0
  6  1  1  0  0  0  0
  6 39  1  0  0  0  0
  7 53  1  0  0  0  0
  8 10  1  0  0  0  0
  8  9  1  0  0  0  0
 10 11  1  0  0  0  0
 12 13  1  0  0  0  0
 12 10  2  0  0  0  0
 14 12  1  0  0  0  0
 15 14  1  0  0  0  0
 16 14  2  0  0  0  0
 16  4  1  0  0  0  0
 17  5  1  0  0  0  0
 17 16  1  0  0  0  0
 18 17  2  0  0  0  0
 19 18  1  0  0  0  0
 20 21  2  0  0  0  0
 20 18  1  0  0  0  0
 21 30  1  0  0  0  0
 22 24  1  0  0  0  0
 22 21  1  0  0  0  0
 23 22  1  0  0  0  0
 24 26  2  0  0  0  0
 25 24  1  0  0  0  0
 26 27  1  0  0  0  0
 26 28  1  0  0  0  0
 28 29  1  0  0  0  0
 30 28  2  0  0  0  0
 30  5  1  0  0  0  0
 31  6  1  0  0  0  0
 32 31  1  0  0  0  0
 33 31  1  0  0  0  0
 33 35  2  0  0  0  0
 34 33  1  0  0  0  0
 35 37  1  0  0  0  0
 36 35  1  0  0  0  0
 37 39  2  0  0  0  0
 37 38  1  0  0  0  0
 39 40  1  0  0  0  0
 40  7  1  0  0  0  0
 40 41  2  0  0  0  0
 41 43  1  0  0  0  0
 42 41  1  0  0  0  0
 43 44  2  0  0  0  0
 44 45  1  0  0  0  0
 45 47  2  0  0  0  0
 45 46  1  0  0  0  0
 47 48  1  0  0  0  0
 49 50  1  0  0  0  0
 49 47  1  0  0  0  0
 51 49  2  0  0  0  0
 52 51  1  0  0  0  0
 53 51  1  6  0  0  0
 53 44  1  0  0  0  0
M  END
$$$$
