CSD_code = TUGPIW | q = 0 | S = 0 | Stoichiometry = C28H22ClMnN2O2 | MND = 5
 OpenBabel04212202103D

 56 62  0  0  1  0  0  0  0  0999 V2000
   11.6510    0.1119    9.1673 Mn  0  0  0  0  0  0  0  0  0  0  0  0
   13.2337   -0.5228    7.8420 Cl  0  0  0  0  0  0  0  0  0  0  0  0
   10.5220   -1.0740    8.3969 O   0  0  0  0  0  0  0  0  0  0  0  0
   11.5569   -0.4552   10.8320 O   0  0  0  0  0  0  0  0  0  0  0  0
   11.0655    1.5096    8.0996 N   0  0  1  0  0  0  0  0  0  0  0  0
   12.8969    1.4880    9.8925 N   0  0  2  0  0  0  0  0  0  0  0  0
    9.5261   -0.9049    7.6056 C   0  0  0  0  0  0  0  0  0  0  0  0
    8.6869   -1.9995    7.2776 C   0  0  0  0  0  0  0  0  0  0  0  0
    8.9006   -2.9475    7.7484 H   0  0  0  0  0  0  0  0  0  0  0  0
    7.6432   -1.8560    6.4062 C   0  0  0  0  0  0  0  0  0  0  0  0
    7.0140   -2.7035    6.1771 H   0  0  0  0  0  0  0  0  0  0  0  0
    7.3824   -0.6191    5.7987 C   0  0  0  0  0  0  0  0  0  0  0  0
    6.5588   -0.5261    5.1072 H   0  0  0  0  0  0  0  0  0  0  0  0
    8.1720    0.4602    6.0838 C   0  0  0  0  0  0  0  0  0  0  0  0
    7.9777    1.4178    5.6212 H   0  0  0  0  0  0  0  0  0  0  0  0
    9.2468    0.3639    6.9926 C   0  0  0  0  0  0  0  0  0  0  0  0
   10.0431    1.4947    7.2737 C   0  0  0  0  0  3  0  0  0  0  0  0
    9.7829    2.4200    6.7601 H   0  0  0  0  0  0  0  0  0  0  0  0
   11.7280    2.8018    8.2593 C   0  0  1  0  0  0  0  0  0  0  0  0
   11.8772    3.2765    7.2798 H   0  0  0  0  0  0  0  0  0  0  0  0
   10.8965    3.7156    9.1322 C   0  0  0  0  0  0  0  0  0  0  0  0
   10.8629    5.0807    8.8770 C   0  0  0  0  0  0  0  0  0  0  0  0
   11.4149    5.4812    8.0388 H   0  0  0  0  0  0  0  0  0  0  0  0
   10.1369    5.9282    9.6950 C   0  0  0  0  0  0  0  0  0  0  0  0
   10.1204    6.9878    9.4887 H   0  0  0  0  0  0  0  0  0  0  0  0
    9.4350    5.4194   10.7740 C   0  0  0  0  0  0  0  0  0  0  0  0
    8.8685    6.0803   11.4128 H   0  0  0  0  0  0  0  0  0  0  0  0
    9.4586    4.0585   11.0308 C   0  0  0  0  0  0  0  0  0  0  0  0
    8.9109    3.6563   11.8703 H   0  0  0  0  0  0  0  0  0  0  0  0
   10.1853    3.2106   10.2145 C   0  0  0  0  0  0  0  0  0  0  0  0
   10.2041    2.1420   10.4199 H   0  0  0  0  0  0  0  0  0  0  0  0
   13.1225    2.5221    8.8924 C   0  0  1  0  0  0  0  0  0  0  0  0
   13.7405    2.0551    8.1100 H   0  0  0  0  0  0  0  0  0  0  0  0
   13.7784    3.8014    9.3504 C   0  0  0  0  0  0  0  0  0  0  0  0
   14.7511    4.3810    8.5445 C   0  0  0  0  0  0  0  0  0  0  0  0
   15.0552    3.8807    7.6366 H   0  0  0  0  0  0  0  0  0  0  0  0
   15.3311    5.5878    8.8942 C   0  0  0  0  0  0  0  0  0  0  0  0
   16.0848    6.0253    8.2568 H   0  0  0  0  0  0  0  0  0  0  0  0
   14.9476    6.2305   10.0585 C   0  0  0  0  0  0  0  0  0  0  0  0
   15.3995    7.1716   10.3337 H   0  0  0  0  0  0  0  0  0  0  0  0
   13.9837    5.6581   10.8708 C   0  0  0  0  0  0  0  0  0  0  0  0
   13.6797    6.1515   11.7819 H   0  0  0  0  0  0  0  0  0  0  0  0
   13.4000    4.4539   10.5200 C   0  0  0  0  0  0  0  0  0  0  0  0
   12.6489    4.0206   11.1634 H   0  0  0  0  0  0  0  0  0  0  0  0
   13.5909    1.4703   10.9751 C   0  0  0  0  0  3  0  0  0  0  0  0
   14.3830    2.2014   11.1367 H   0  0  0  0  0  0  0  0  0  0  0  0
   13.3289    0.5549   12.0503 C   0  0  0  0  0  0  0  0  0  0  0  0
   14.0740    0.5975   13.2308 C   0  0  0  0  0  0  0  0  0  0  0  0
   14.8946    1.2971   13.3023 H   0  0  0  0  0  0  0  0  0  0  0  0
   13.7731   -0.2354   14.2878 C   0  0  0  0  0  0  0  0  0  0  0  0
   14.3608   -0.1985   15.1921 H   0  0  0  0  0  0  0  0  0  0  0  0
   12.7070   -1.1217   14.1863 C   0  0  0  0  0  0  0  0  0  0  0  0
   12.4691   -1.7731   15.0142 H   0  0  0  0  0  0  0  0  0  0  0  0
   11.9487   -1.1827   13.0356 C   0  0  0  0  0  0  0  0  0  0  0  0
   11.1254   -1.8755   12.9449 H   0  0  0  0  0  0  0  0  0  0  0  0
   12.2504   -0.3645   11.9386 C   0  0  0  0  0  0  0  0  0  0  0  0
  1  6  1  0  0  0  0
  1  4  1  0  0  0  0
  2  1  1  0  0  0  0
  3  1  1  0  0  0  0
  4 56  1  0  0  0  0
  5 17  1  1  0  0  0
  5 19  1  0  0  0  0
  5  1  1  0  0  0  0
  6 45  1  6  0  0  0
  7  3  1  0  0  0  0
  8  7  1  0  0  0  0
  8  9  1  0  0  0  0
 10  8  2  0  0  0  0
 11 10  1  0  0  0  0
 12 14  2  0  0  0  0
 12 10  1  0  0  0  0
 13 12  1  0  0  0  0
 14 16  1  0  0  0  0
 15 14  1  0  0  0  0
 16 17  1  0  0  0  0
 16  7  2  0  0  0  0
 18 17  1  0  0  0  0
 19 20  1  6  0  0  0
 19 32  1  0  0  0  0
 19 21  1  0  0  0  0
 21 30  1  0  0  0  0
 22 21  2  0  0  0  0
 22 24  1  0  0  0  0
 23 22  1  0  0  0  0
 24 26  2  0  0  0  0
 25 24  1  0  0  0  0
 26 28  1  0  0  0  0
 26 27  1  0  0  0  0
 28 29  1  0  0  0  0
 30 31  1  0  0  0  0
 30 28  2  0  0  0  0
 32 33  1  6  0  0  0
 32 34  1  0  0  0  0
 32  6  1  0  0  0  0
 34 43  1  0  0  0  0
 35 37  1  0  0  0  0
 35 34  2  0  0  0  0
 36 35  1  0  0  0  0
 37 39  2  0  0  0  0
 38 37  1  0  0  0  0
 39 40  1  0  0  0  0
 39 41  1  0  0  0  0
 41 42  1  0  0  0  0
 43 41  2  0  0  0  0
 43 44  1  0  0  0  0
 45 46  1  0  0  0  0
 45 47  1  0  0  0  0
 47 48  1  0  0  0  0
 48 49  1  0  0  0  0
 48 50  2  0  0  0  0
 50 51  1  0  0  0  0
 52 50  1  0  0  0  0
 52 53  1  0  0  0  0
 54 52  2  0  0  0  0
 55 54  1  0  0  0  0
 56 47  2  0  0  0  0
 56 54  1  0  0  0  0
M  END
$$$$
