CSD_code = TUGTEV | q = 0 | S = 0 | Stoichiometry = C21H34BBrN6Ni | MND = 4
 OpenBabel04212202103D

 64 68  0  0  1  0  0  0  0  0999 V2000
    2.1394    1.7621    3.9500 Ni  0  0  2  0  0  0  0  0  0  0  0  0
    1.9624    3.3891    2.4157 Br  0  0  0  0  0  0  0  0  0  0  0  0
    3.8191    1.6191    6.2148 B   0  0  2  0  0  0  0  0  0  0  0  0
    4.5501    1.6179    7.1469 H   0  0  0  0  0  0  0  0  0  0  0  0
    2.8066    2.7919    6.2749 N   0  0  0  0  0  0  0  0  0  0  0  0
    0.9677    3.9071    5.9923 N   0  0  0  0  0  0  0  0  0  0  0  0
    1.6719    2.8492    5.5400 C   0  0  1  0  0  3  0  0  0  0  0  0
    2.8159    3.8212    7.1672 C   0  0  0  0  0  0  0  0  0  0  0  0
    3.6275    3.9738    7.8489 H   0  0  0  0  0  0  0  0  0  0  0  0
    1.6741    4.5259    6.9936 C   0  0  0  0  0  0  0  0  0  0  0  0
    1.3279    5.4042    7.4956 H   0  0  0  0  0  0  0  0  0  0  0  0
   -0.3451    4.3636    5.5355 C   0  0  0  0  0  0  0  0  0  0  0  0
   -1.0356    3.2447    4.7588 C   0  0  0  0  0  0  0  0  0  0  0  0
   -1.1866    2.3795    5.4023 H   0  0  0  0  0  0  0  0  0  0  0  0
   -0.4390    2.9517    3.8980 H   0  0  0  0  0  0  0  0  0  0  0  0
   -2.0014    3.5896    4.3998 H   0  0  0  0  0  0  0  0  0  0  0  0
   -1.2030    4.7184    6.7571 C   0  0  0  0  0  0  0  0  0  0  0  0
   -0.8599    5.6290    7.2409 H   0  0  0  0  0  0  0  0  0  0  0  0
   -1.1877    3.9084    7.4845 H   0  0  0  0  0  0  0  0  0  0  0  0
   -2.2306    4.8774    6.4407 H   0  0  0  0  0  0  0  0  0  0  0  0
   -0.1547    5.5932    4.6438 C   0  0  0  0  0  0  0  0  0  0  0  0
    0.3720    6.3787    5.1816 H   0  0  0  0  0  0  0  0  0  0  0  0
   -1.1209    5.9760    4.3270 H   0  0  0  0  0  0  0  0  0  0  0  0
    0.4212    5.3326    3.7596 H   0  0  0  0  0  0  0  0  0  0  0  0
    4.5969    1.6332    4.8719 N   0  0  0  0  0  0  0  0  0  0  0  0
    5.0605    1.2891    2.7802 N   0  0  0  0  0  0  0  0  0  0  0  0
    4.0495    1.3271    3.6729 C   0  0  2  0  0  3  0  0  0  0  0  0
    5.9401    1.8015    4.7214 C   0  0  0  0  0  0  0  0  0  0  0  0
    6.5758    2.0563    5.5445 H   0  0  0  0  0  0  0  0  0  0  0  0
    6.2374    1.5942    3.4178 C   0  0  0  0  0  0  0  0  0  0  0  0
    7.1783    1.6468    2.9128 H   0  0  0  0  0  0  0  0  0  0  0  0
    4.9789    0.9868    1.3504 C   0  0  0  0  0  0  0  0  0  0  0  0
    5.0570    2.3000    0.5672 C   0  0  0  0  0  0  0  0  0  0  0  0
    4.2010    2.9291    0.7973 H   0  0  0  0  0  0  0  0  0  0  0  0
    5.0604    2.0966   -0.5001 H   0  0  0  0  0  0  0  0  0  0  0  0
    5.9648    2.8432    0.8212 H   0  0  0  0  0  0  0  0  0  0  0  0
    6.1463    0.0683    0.9660 C   0  0  0  0  0  0  0  0  0  0  0  0
    7.0942    0.5999    0.9630 H   0  0  0  0  0  0  0  0  0  0  0  0
    5.9813   -0.3219   -0.0350 H   0  0  0  0  0  0  0  0  0  0  0  0
    6.2173   -0.7712    1.6556 H   0  0  0  0  0  0  0  0  0  0  0  0
    3.6686    0.2629    1.0476 C   0  0  0  0  0  0  0  0  0  0  0  0
    2.8157    0.8523    1.3780 H   0  0  0  0  0  0  0  0  0  0  0  0
    3.6511   -0.7041    1.5471 H   0  0  0  0  0  0  0  0  0  0  0  0
    3.5760    0.1059   -0.0233 H   0  0  0  0  0  0  0  0  0  0  0  0
    2.9313    0.3660    6.1200 N   0  0  0  0  0  0  0  0  0  0  0  0
    1.4068   -0.8369    5.1573 N   0  0  0  0  0  0  0  0  0  0  0  0
    2.0962    0.3186    5.0814 C   0  0  1  0  0  3  0  0  0  0  0  0
    2.7891   -0.7640    6.8642 C   0  0  0  0  0  0  0  0  0  0  0  0
    3.3629   -0.9400    7.7511 H   0  0  0  0  0  0  0  0  0  0  0  0
    1.8419   -1.5269    6.2660 C   0  0  0  0  0  0  0  0  0  0  0  0
    1.4540   -2.4840    6.5444 H   0  0  0  0  0  0  0  0  0  0  0  0
    0.4720   -1.3470    4.1580 C   0  0  0  0  0  0  0  0  0  0  0  0
   -0.1255   -0.1790    3.3726 C   0  0  0  0  0  0  0  0  0  0  0  0
   -0.8200    0.3828    3.9926 H   0  0  0  0  0  0  0  0  0  0  0  0
   -0.6561   -0.5460    2.4982 H   0  0  0  0  0  0  0  0  0  0  0  0
    0.6698    0.5034    3.0177 H   0  0  0  0  0  0  0  0  0  0  0  0
    1.2508   -2.2722    3.2164 C   0  0  0  0  0  0  0  0  0  0  0  0
    1.7306   -3.0730    3.7758 H   0  0  0  0  0  0  0  0  0  0  0  0
    2.0179   -1.7040    2.6958 H   0  0  0  0  0  0  0  0  0  0  0  0
    0.5829   -2.7125    2.4811 H   0  0  0  0  0  0  0  0  0  0  0  0
   -0.6584   -2.1166    4.8482 C   0  0  0  0  0  0  0  0  0  0  0  0
   -0.3093   -3.0629    5.2535 H   0  0  0  0  0  0  0  0  0  0  0  0
   -1.4428   -2.3298    4.1267 H   0  0  0  0  0  0  0  0  0  0  0  0
   -1.0842   -1.5244    5.6555 H   0  0  0  0  0  0  0  0  0  0  0  0
  1  2  1  6  0  0  0
  1 47  1  0  0  0  0
  1  7  1  0  0  0  0
  3  5  1  0  0  0  0
  3  4  1  1  0  0  0
  5  8  1  0  0  0  0
  6 10  1  0  0  0  0
  7  6  1  6  0  0  0
  7  5  1  0  0  0  0
  8  9  1  0  0  0  0
 10  8  2  0  0  0  0
 10 11  1  0  0  0  0
 12  6  1  0  0  0  0
 12 17  1  0  0  0  0
 13 14  1  0  0  0  0
 13 12  1  0  0  0  0
 15 13  1  0  0  0  0
 16 13  1  0  0  0  0
 17 18  1  0  0  0  0
 17 19  1  0  0  0  0
 20 17  1  0  0  0  0
 21 22  1  0  0  0  0
 21 12  1  0  0  0  0
 23 21  1  0  0  0  0
 24 21  1  0  0  0  0
 25  3  1  0  0  0  0
 26 30  1  0  0  0  0
 27 26  1  6  0  0  0
 27  1  1  0  0  0  0
 27 25  1  0  0  0  0
 28 25  1  0  0  0  0
 28 29  1  0  0  0  0
 30 28  2  0  0  0  0
 31 30  1  0  0  0  0
 32 26  1  0  0  0  0
 33 34  1  0  0  0  0
 33 36  1  0  0  0  0
 33 32  1  0  0  0  0
 35 33  1  0  0  0  0
 37 32  1  0  0  0  0
 37 40  1  0  0  0  0
 38 37  1  0  0  0  0
 39 37  1  0  0  0  0
 41 32  1  0  0  0  0
 41 42  1  0  0  0  0
 41 43  1  0  0  0  0
 44 41  1  0  0  0  0
 45  3  1  0  0  0  0
 45 48  1  0  0  0  0
 46 50  1  0  0  0  0
 47 46  1  1  0  0  0
 47 45  1  0  0  0  0
 48 49  1  0  0  0  0
 50 51  1  0  0  0  0
 50 48  2  0  0  0  0
 52 61  1  0  0  0  0
 52 46  1  0  0  0  0
 53 54  1  0  0  0  0
 53 52  1  0  0  0  0
 55 53  1  0  0  0  0
 56 53  1  0  0  0  0
 57 58  1  0  0  0  0
 57 52  1  0  0  0  0
 59 57  1  0  0  0  0
 60 57  1  0  0  0  0
 61 62  1  0  0  0  0
 61 64  1  0  0  0  0
 63 61  1  0  0  0  0
M  END
$$$$
