CSD_code = TUJHIQ | q = 1 | S = 0 | Stoichiometry = C24H30ClN6Ru(1+) | MND = 9
 OpenBabel04212202103D

 62 65  0  0  1  0  0  0  0  0999 V2000
    6.3885    1.7493   13.0149 Ru  0  0  0  0  0  0  0  0  0  0  0  0
    6.3348   -0.1828   14.3281 Cl  0  0  0  0  0 15  0  0  0  0  0  0
    7.4553    0.5946   11.7501 N   0  0  1  0  0  0  0  0  0  0  0  0
    8.7907    0.5485   12.0076 N   0  0  0  0  0  0  0  0  0  0  0  0
    8.1806    1.9441   13.6906 N   0  0  0  0  0  0  0  0  0  0  0  0
    8.3302    2.6157   14.7897 N   0  0  0  0  0  2  0  0  0  0  0  0
    9.6533    3.3083   16.5851 N   0  0  0  0  0  0  0  0  0  0  0  0
   10.9045    3.5301   17.0598 N   0  0  0  0  0  0  0  0  0  0  0  0
    7.1982   -0.2760   10.7877 C   0  0  1  0  0  3  0  0  0  0  0  0
    8.4053   -0.8754   10.3874 C   0  0  0  0  0  0  0  0  0  0  0  0
    8.5213   -1.6129    9.6206 H   0  0  0  0  0  0  0  0  0  0  0  0
    9.4014   -0.3472   11.1738 C   0  0  0  0  0  0  0  0  0  0  0  0
    9.2012    1.2899   13.1027 C   0  0  0  0  0  0  0  0  0  0  0  0
   10.4971    1.3942   13.6220 C   0  0  0  0  0  0  0  0  0  0  0  0
   11.3323    0.9154   13.1442 H   0  0  0  0  0  0  0  0  0  0  0  0
   10.6645    2.1107   14.7793 C   0  0  0  0  0  0  0  0  0  0  0  0
   11.6193    2.2328   15.2613 H   0  0  0  0  0  0  0  0  0  0  0  0
    9.5199    2.6843   15.3807 C   0  0  0  0  0  0  0  0  0  0  0  0
    8.6992    3.6970   17.5076 C   0  0  0  0  0  0  0  0  0  0  0  0
    9.3897    4.1808   18.5794 C   0  0  0  0  0  0  0  0  0  0  0  0
    8.9854    4.5679   19.4916 H   0  0  0  0  0  0  0  0  0  0  0  0
   10.7697    4.0601   18.2482 C   0  0  0  0  0  0  0  0  0  0  0  0
    5.8300   -0.5449   10.2870 C   0  0  0  0  0  0  0  0  0  0  0  0
    5.1182   -0.4596   11.1074 H   0  0  0  0  0  0  0  0  0  0  0  0
    5.7812   -1.5487    9.8751 H   0  0  0  0  0  0  0  0  0  0  0  0
    5.5603    0.1586    9.5002 H   0  0  0  0  0  0  0  0  0  0  0  0
   10.8489   -0.6593   11.1603 C   0  0  0  0  0  0  0  0  0  0  0  0
   11.0438   -1.3747   10.3663 H   0  0  0  0  0  0  0  0  0  0  0  0
   11.1607   -1.1054   12.1040 H   0  0  0  0  0  0  0  0  0  0  0  0
   11.4457    0.2324   10.9727 H   0  0  0  0  0  0  0  0  0  0  0  0
    7.2414    3.5605   17.2951 C   0  0  0  0  0  0  0  0  0  0  0  0
    6.7334    3.6099   18.2547 H   0  0  0  0  0  0  0  0  0  0  0  0
    7.0063    2.6192   16.8030 H   0  0  0  0  0  0  0  0  0  0  0  0
    6.8826    4.3789   16.6718 H   0  0  0  0  0  0  0  0  0  0  0  0
   11.9278    4.4520   19.0818 C   0  0  0  0  0  0  0  0  0  0  0  0
   12.8530    4.2487   18.5514 H   0  0  0  0  0  0  0  0  0  0  0  0
   11.9178    3.8952   20.0175 H   0  0  0  0  0  0  0  0  0  0  0  0
   11.8736    5.5121   19.3235 H   0  0  0  0  0  0  0  0  0  0  0  0
    5.5061    3.3295   11.5758 C   0  0  1  0  0  3  0  0  0  0  0  0
    5.9284    3.9686   12.7597 C   0  0  1  0  0  0  0  0  0  0  0  0
    6.6004    4.8173   12.7051 H   0  0  0  0  0  0  0  0  0  0  0  0
    5.3919    3.6009   14.0160 C   0  0  0  0  0  0  0  0  0  0  0  0
    5.6648    4.1705   14.8946 H   0  0  0  0  0  0  0  0  0  0  0  0
    4.4750    2.5485   14.1308 C   0  0  0  0  0  0  0  0  0  0  0  0
    4.0258    1.9170   12.9300 C   0  0  0  0  0  0  0  0  0  0  0  0
    3.2416    1.1696   12.9933 H   0  0  0  0  0  0  0  0  0  0  0  0
    4.5052    2.3230   11.6877 C   0  0  0  0  0  0  0  0  0  0  0  0
    4.0763    1.9061   10.7834 H   0  0  0  0  0  0  0  0  0  0  0  0
    5.9756    3.7933   10.2175 C   0  0  0  0  0  0  0  0  0  0  0  0
    5.6303    3.0699    9.4706 H   0  0  0  0  0  0  0  0  0  0  0  0
    7.5024    3.8618   10.1427 C   0  0  0  0  0  0  0  0  0  0  0  0
    7.9408    2.9123   10.4539 H   0  0  0  0  0  0  0  0  0  0  0  0
    7.8947    4.6529   10.7768 H   0  0  0  0  0  0  0  0  0  0  0  0
    7.8132    4.0654    9.1217 H   0  0  0  0  0  0  0  0  0  0  0  0
    5.3477    5.1532    9.8938 C   0  0  0  0  0  0  0  0  0  0  0  0
    5.6384    5.4649    8.8946 H   0  0  0  0  0  0  0  0  0  0  0  0
    5.6780    5.9112   10.5998 H   0  0  0  0  0  0  0  0  0  0  0  0
    4.2626    5.0938    9.9336 H   0  0  0  0  0  0  0  0  0  0  0  0
    3.9010    2.1378   15.4475 C   0  0  0  0  0  0  0  0  0  0  0  0
    2.8143    2.0951   15.3917 H   0  0  0  0  0  0  0  0  0  0  0  0
    4.1926    2.8245   16.2377 H   0  0  0  0  0  0  0  0  0  0  0  0
    4.2580    1.1391   15.7070 H   0  0  0  0  0  0  0  0  0  0  0  0
  1  5  1  0  0  0  0
  3  4  1  1  0  0  0
  3  1  1  0  0  0  0
  4 13  1  0  0  0  0
  5  6  1  0  0  0  0
  6 18  1  0  0  0  0
  7  8  1  0  0  0  0
  7 19  1  0  0  0  0
  8 22  2  0  0  0  0
  9 23  1  1  0  0  0
  9  3  1  0  0  0  0
 10  9  1  0  0  0  0
 10 12  2  0  0  0  0
 11 10  1  0  0  0  0
 12  4  1  0  0  0  0
 13 14  2  0  0  0  0
 13  5  1  0  0  0  0
 14 16  1  0  0  0  0
 15 14  1  0  0  0  0
 16 17  1  0  0  0  0
 16 18  2  0  0  0  0
 18  7  1  0  0  0  0
 19 20  2  0  0  0  0
 20 21  1  0  0  0  0
 22 20  1  0  0  0  0
 22 35  1  0  0  0  0
 23 24  1  0  0  0  0
 25 23  1  0  0  0  0
 26 23  1  0  0  0  0
 27 12  1  0  0  0  0
 27 29  1  0  0  0  0
 28 27  1  0  0  0  0
 30 27  1  0  0  0  0
 31 19  1  0  0  0  0
 31 32  1  0  0  0  0
 33 31  1  0  0  0  0
 34 31  1  0  0  0  0
 35 38  1  0  0  0  0
 35 37  1  0  0  0  0
 36 35  1  0  0  0  0
 39 49  1  6  0  0  0
 39 47  1  0  0  0  0
 39 40  1  0  0  0  0
 40 41  1  6  0  0  0
 40  1  1  0  0  0  0
 40 42  1  0  0  0  0
 42 44  2  0  0  0  0
 42 43  1  0  0  0  0
 44 59  1  0  0  0  0
 45 46  1  0  0  0  0
 45 44  1  0  0  0  0
 47 45  2  0  0  0  0
 48 47  1  0  0  0  0
 50 49  1  0  0  0  0
 51 49  1  0  0  0  0
 51 52  1  0  0  0  0
 51 53  1  0  0  0  0
 54 51  1  0  0  0  0
 55 58  1  0  0  0  0
 55 49  1  0  0  0  0
 55 57  1  0  0  0  0
 56 55  1  0  0  0  0
 59 62  1  0  0  0  0
 59 61  1  0  0  0  0
 60 59  1  0  0  0  0
M  END
$$$$
