CSD_code = TUJPIX | q = 1 | S = 0 | Stoichiometry = C18H20ClN4Zn(1+) | MND = 5
 OpenBabel04212202103D

 44 49  0  0  1  0  0  0  0  0999 V2000
    0.0465    1.7313    2.1456 Zn  0  0  0  0  0  0  0  0  0  0  0  0
    1.5777    1.8693    0.6745 Cl  0  0  0  0  0  0  0  0  0  0  0  0
   -1.7215    1.2677    0.9195 N   0  0  0  0  0  4  0  0  0  0  0  0
   -0.5894    0.0231    3.1445 N   0  0  1  0  0  0  0  0  0  0  0  0
    1.1596    2.1385    3.9994 N   0  0  0  0  0  4  0  0  0  0  0  0
   -1.1272    3.2808    2.8833 N   0  0  1  0  0  0  0  0  0  0  0  0
   -2.5832    0.5701    1.8817 C   0  0  0  0  0  0  0  0  0  0  0  0
   -1.7778   -0.5387    2.5516 C   0  0  0  0  0  0  0  0  0  0  0  0
    0.0399   -0.6319    4.0396 C   0  0  0  0  0  3  0  0  0  0  0  0
    0.1088    2.6704    4.8759 C   0  0  0  0  0  0  0  0  0  0  0  0
   -0.6313    3.7834    4.1408 C   0  0  0  0  0  0  0  0  0  0  0  0
   -2.0504    3.9129    2.2712 C   0  0  0  0  0  3  0  0  0  0  0  0
    1.2927   -0.2448    4.6389 C   0  0  0  0  0  0  0  0  0  0  0  0
    2.0222   -1.2630    5.2720 C   0  0  0  0  0  0  0  0  0  0  0  0
    3.3031   -1.0509    5.7348 C   0  0  0  0  0  0  0  0  0  0  0  0
    3.8898    0.1957    5.5767 C   0  0  0  0  0  0  0  0  0  0  0  0
    3.1712    1.2272    4.9976 C   0  0  0  0  0  0  0  0  0  0  0  0
    1.8744    1.0337    4.5407 C   0  0  0  0  0  0  0  0  0  0  0  0
   -2.5660    3.5898    0.9643 C   0  0  0  0  0  0  0  0  0  0  0  0
   -3.2594    4.6117    0.2974 C   0  0  0  0  0  0  0  0  0  0  0  0
   -3.6526    4.4771   -1.0168 C   0  0  0  0  0  0  0  0  0  0  0  0
   -3.3614    3.3067   -1.7013 C   0  0  0  0  0  0  0  0  0  0  0  0
   -2.7205    2.2678   -1.0487 C   0  0  0  0  0  0  0  0  0  0  0  0
   -2.3324    2.3818    0.2795 C   0  0  0  0  0  0  0  0  0  0  0  0
    1.5750   -2.2409    5.3688 H   0  0  0  0  0  0  0  0  0  0  0  0
    3.8480   -1.8528    6.2064 H   0  0  0  0  0  0  0  0  0  0  0  0
    4.8980    0.3700    5.9179 H   0  0  0  0  0  0  0  0  0  0  0  0
    3.6279    2.2013    4.8940 H   0  0  0  0  0  0  0  0  0  0  0  0
   -3.4598    5.5335    0.8226 H   0  0  0  0  0  0  0  0  0  0  0  0
   -4.1727    5.2816   -1.5113 H   0  0  0  0  0  0  0  0  0  0  0  0
   -3.6471    3.1955   -2.7353 H   0  0  0  0  0  0  0  0  0  0  0  0
   -2.5132    1.3513   -1.5828 H   0  0  0  0  0  0  0  0  0  0  0  0
   -1.4547    0.6017    0.1927 H   0  0  0  0  0  0  0  0  0  0  0  0
    1.8328    2.8859    3.8227 H   0  0  0  0  0  0  0  0  0  0  0  0
   -3.4649    0.1402    1.3912 H   0  0  0  0  0  0  0  0  0  0  0  0
   -2.9167    1.2881    2.6330 H   0  0  0  0  0  0  0  0  0  0  0  0
   -1.4771   -1.2731    1.7933 H   0  0  0  0  0  0  0  0  0  0  0  0
   -2.3929   -1.0541    3.2971 H   0  0  0  0  0  0  0  0  0  0  0  0
   -0.3356   -1.6109    4.3524 H   0  0  0  0  0  0  0  0  0  0  0  0
    0.5276    3.0617    5.8109 H   0  0  0  0  0  0  0  0  0  0  0  0
   -0.5849    1.8626    5.1151 H   0  0  0  0  0  0  0  0  0  0  0  0
    0.0658    4.6067    3.9389 H   0  0  0  0  0  0  0  0  0  0  0  0
   -1.4430    4.1721    4.7652 H   0  0  0  0  0  0  0  0  0  0  0  0
   -2.4608    4.8256    2.7137 H   0  0  0  0  0  0  0  0  0  0  0  0
  1  6  1  0  0  0  0
  1  4  1  0  0  0  0
  1  5  1  0  0  0  0
  2  1  1  0  0  0  0
  3  7  1  0  0  0  0
  3  1  1  0  0  0  0
  4  9  1  6  0  0  0
  5 18  1  0  0  0  0
  5 10  1  0  0  0  0
  6 12  1  6  0  0  0
  6 11  1  0  0  0  0
  7  8  1  0  0  0  0
  7 36  1  0  0  0  0
  8  4  1  0  0  0  0
  8 38  1  0  0  0  0
  9 39  1  0  0  0  0
  9 13  1  0  0  0  0
 10 41  1  0  0  0  0
 10 40  1  0  0  0  0
 11 43  1  0  0  0  0
 11 10  1  0  0  0  0
 12 44  1  0  0  0  0
 13 14  1  0  0  0  0
 14 25  1  0  0  0  0
 14 15  2  0  0  0  0
 15 26  1  0  0  0  0
 16 15  1  0  0  0  0
 16 27  1  0  0  0  0
 17 16  2  0  0  0  0
 18 13  2  0  0  0  0
 18 17  1  0  0  0  0
 19 12  1  0  0  0  0
 20 29  1  0  0  0  0
 20 19  1  0  0  0  0
 21 20  2  0  0  0  0
 22 23  2  0  0  0  0
 22 21  1  0  0  0  0
 23 24  1  0  0  0  0
 24  3  1  0  0  0  0
 24 19  2  0  0  0  0
 28 17  1  0  0  0  0
 30 21  1  0  0  0  0
 31 22  1  0  0  0  0
 32 23  1  0  0  0  0
 33  3  1  0  0  0  0
 34  5  1  0  0  0  0
 35  7  1  0  0  0  0
 37  8  1  0  0  0  0
 42 11  1  0  0  0  0
M  END
$$$$
