CSD_code = TUJQOE | q = 0 | S = 0 | Stoichiometry = C4H10Br2N4OZn | MND = 4
 OpenBabel04212202103D

 22 22  0  0  1  0  0  0  0  0999 V2000
    1.8278    1.5149    0.0116 Zn  0  0  0  0  0  0  0  0  0  0  0  0
    0.4193    2.4964    1.6741 Br  0  0  0  0  0  0  0  0  0  0  0  0
    3.2215   -0.2738   -0.4310 Br  0  0  0  0  0  0  0  0  0  0  0  0
    0.4602    1.6855   -1.5986 N   0  0  0  0  0  0  0  0  0  0  0  0
   -0.0605    0.8993   -1.9671 H   0  0  0  0  0  0  0  0  0  0  0  0
    0.5540    4.0098   -1.5019 N   0  0  0  0  0  0  0  0  0  0  0  0
   -0.0267    4.8132   -1.7018 H   0  0  0  0  0  0  0  0  0  0  0  0
    2.6310    3.3111   -0.7284 N   0  0  0  0  0  0  0  0  0  0  0  0
    3.5545    3.6387   -0.4691 H   0  0  0  0  0  0  0  0  0  0  0  0
    2.1640    5.5719   -1.0314 N   0  0  0  0  0  0  0  0  0  0  0  0
    3.0040    5.8422   -0.5474 H   0  0  0  0  0  0  0  0  0  0  0  0
    1.4549    6.2811   -1.1117 H   0  0  0  0  0  0  0  0  0  0  0  0
   -0.0379    2.8244   -1.8541 C   0  0  1  0  0  3  0  0  0  0  0  0
    1.8291    4.2564   -1.0455 C   0  0  1  0  0  3  0  0  0  0  0  0
   -1.1816    3.0878   -2.4931 O   0  0  0  0  0  0  0  0  0  0  0  0
   -2.0592    2.0086   -2.8277 C   0  0  0  0  0  0  0  0  0  0  0  0
   -2.2646    1.4160   -1.9281 H   0  0  0  0  0  0  0  0  0  0  0  0
   -1.5831    1.3719   -3.5840 H   0  0  0  0  0  0  0  0  0  0  0  0
   -3.3423    2.6114   -3.3707 C   0  0  0  0  0  0  0  0  0  0  0  0
   -4.0307    1.8154   -3.6380 H   0  0  0  0  0  0  0  0  0  0  0  0
   -3.1316    3.2108   -4.2521 H   0  0  0  0  0  0  0  0  0  0  0  0
   -3.8054    3.2436   -2.6181 H   0  0  0  0  0  0  0  0  0  0  0  0
  1  2  1  0  0  0  0
  3  1  1  0  0  0  0
  4  1  1  0  0  0  0
  5  4  1  0  0  0  0
  6 14  1  0  0  0  0
  7  6  1  0  0  0  0
  8  9  1  0  0  0  0
  8  1  1  0  0  0  0
 10 11  1  0  0  0  0
 12 10  1  0  0  0  0
 13 15  1  6  0  0  0
 13  4  1  0  0  0  0
 13  6  1  0  0  0  0
 14 10  1  6  0  0  0
 14  8  1  0  0  0  0
 16 15  1  0  0  0  0
 16 17  1  0  0  0  0
 18 16  1  0  0  0  0
 19 16  1  0  0  0  0
 19 22  1  0  0  0  0
 20 19  1  0  0  0  0
 21 19  1  0  0  0  0
M  END
$$$$
