CSD_code = TUJZUT | q = 0 | S = 0 | Stoichiometry = C18H42Cl3N2P2Ta | MND = 5
 OpenBabel04212202103D

 68 67  0  0  0  0  0  0  0  0999 V2000
    6.7039    2.7872   15.3995 Ta  0  0  0  0  0  0  0  0  0  0  0  0
    7.5548    1.9977   13.4190 Cl  0  0  0  0  0  0  0  0  0  0  0  0
    6.1498    4.7823   14.4207 Cl  0  0  0  0  0  0  0  0  0  0  0  0
    4.8941    1.4569   14.9090 Cl  0  0  0  0  0  0  0  0  0  0  0  0
    5.1194    3.5334   18.3551 P   0  0  0  0  0  4  0  0  0  0  0  0
    9.9752    3.2320   16.2910 P   0  0  0  0  0  4  0  0  0  0  0  0
    5.9218    3.2072   17.0588 N   0  0  0  0  0  2  0  0  0  0  0  0
    8.4398    3.0515   16.0916 N   0  0  0  0  0  2  0  0  0  0  0  0
    6.1475    4.6302   19.4695 C   0  0  0  0  0  0  0  0  0  0  0  0
    6.7563    5.7114   18.5835 C   0  0  0  0  0  0  0  0  0  0  0  0
    5.4227    5.2070   20.6772 C   0  0  0  0  0  0  0  0  0  0  0  0
    3.5450    4.4868   18.0037 C   0  0  0  0  0  0  0  0  0  0  0  0
    2.4314    4.2787   19.0243 C   0  0  0  0  0  0  0  0  0  0  0  0
    3.0838    4.1714   16.5859 C   0  0  0  0  0  0  0  0  0  0  0  0
    4.7215    1.9758   19.3080 C   0  0  0  0  0  0  0  0  0  0  0  0
    6.0395    1.3032   19.6723 C   0  0  0  0  0  0  0  0  0  0  0  0
    3.9087    1.0632   18.3975 C   0  0  0  0  0  0  0  0  0  0  0  0
   10.9575    1.6436   16.0990 C   0  0  0  0  0  0  0  0  0  0  0  0
   12.3611    1.8327   15.5353 C   0  0  0  0  0  0  0  0  0  0  0  0
   10.1446    0.6513   15.2778 C   0  0  0  0  0  0  0  0  0  0  0  0
   10.6399    4.5506   15.1475 C   0  0  0  0  0  0  0  0  0  0  0  0
   10.2879    4.1666   13.7167 C   0  0  0  0  0  0  0  0  0  0  0  0
    9.9672    5.8699   15.5096 C   0  0  0  0  0  0  0  0  0  0  0  0
   10.3222    3.8214   18.0327 C   0  0  0  0  0  0  0  0  0  0  0  0
    9.5969    2.8787   18.9850 C   0  0  0  0  0  0  0  0  0  0  0  0
   11.7930    3.9868   18.3868 C   0  0  0  0  0  0  0  0  0  0  0  0
    6.9600    3.9824   19.8135 H   0  0  0  0  0  0  0  0  0  0  0  0
    7.1861    5.2432   17.6968 H   0  0  0  0  0  0  0  0  0  0  0  0
    7.5319    6.2560   19.1195 H   0  0  0  0  0  0  0  0  0  0  0  0
    6.0006    6.4248   18.2616 H   0  0  0  0  0  0  0  0  0  0  0  0
    6.1274    5.7571   21.3000 H   0  0  0  0  0  0  0  0  0  0  0  0
    4.9811    4.4189   21.2836 H   0  0  0  0  0  0  0  0  0  0  0  0
    4.6403    5.8966   20.3708 H   0  0  0  0  0  0  0  0  0  0  0  0
    3.8583    5.5381   18.0325 H   0  0  0  0  0  0  0  0  0  0  0  0
    2.7839    4.4297   20.0411 H   0  0  0  0  0  0  0  0  0  0  0  0
    2.0134    3.2786   18.9499 H   0  0  0  0  0  0  0  0  0  0  0  0
    1.6283    4.9899   18.8342 H   0  0  0  0  0  0  0  0  0  0  0  0
    2.8415    3.1171   16.4777 H   0  0  0  0  0  0  0  0  0  0  0  0
    3.8768    4.4077   15.8787 H   0  0  0  0  0  0  0  0  0  0  0  0
    2.2027    4.7604   16.3351 H   0  0  0  0  0  0  0  0  0  0  0  0
    4.1555    2.2198   20.2116 H   0  0  0  0  0  0  0  0  0  0  0  0
    6.5868    1.8683   20.4234 H   0  0  0  0  0  0  0  0  0  0  0  0
    6.6527    1.2180   18.7736 H   0  0  0  0  0  0  0  0  0  0  0  0
    5.8576    0.3044   20.0660 H   0  0  0  0  0  0  0  0  0  0  0  0
    4.4232    0.9527   17.4430 H   0  0  0  0  0  0  0  0  0  0  0  0
    2.9165    1.4633   18.2064 H   0  0  0  0  0  0  0  0  0  0  0  0
    3.7944    0.0787   18.8496 H   0  0  0  0  0  0  0  0  0  0  0  0
   11.0413    1.2525   17.1211 H   0  0  0  0  0  0  0  0  0  0  0  0
   12.9210    2.5746   16.0991 H   0  0  0  0  0  0  0  0  0  0  0  0
   12.3267    2.1428   14.4946 H   0  0  0  0  0  0  0  0  0  0  0  0
   12.9029    0.8887   15.5848 H   0  0  0  0  0  0  0  0  0  0  0  0
    9.1467    0.5400   15.7070 H   0  0  0  0  0  0  0  0  0  0  0  0
   10.6332   -0.3220   15.2631 H   0  0  0  0  0  0  0  0  0  0  0  0
   10.0271    0.9978   14.2539 H   0  0  0  0  0  0  0  0  0  0  0  0
   11.7251    4.6302   15.2627 H   0  0  0  0  0  0  0  0  0  0  0  0
   10.7288    3.2143   13.4325 H   0  0  0  0  0  0  0  0  0  0  0  0
   10.6380    4.9281   13.0212 H   0  0  0  0  0  0  0  0  0  0  0  0
    9.2068    4.0789   13.6216 H   0  0  0  0  0  0  0  0  0  0  0  0
   10.1694    6.6152   14.7423 H   0  0  0  0  0  0  0  0  0  0  0  0
   10.3238    6.2587   16.4608 H   0  0  0  0  0  0  0  0  0  0  0  0
    8.8883    5.7183   15.5666 H   0  0  0  0  0  0  0  0  0  0  0  0
    9.8205    4.7939   18.0836 H   0  0  0  0  0  0  0  0  0  0  0  0
    8.5904    2.7101   18.6021 H   0  0  0  0  0  0  0  0  0  0  0  0
    9.5393    3.3091   19.9836 H   0  0  0  0  0  0  0  0  0  0  0  0
   10.1078    1.9208   19.0607 H   0  0  0  0  0  0  0  0  0  0  0  0
   12.2937    4.6520   17.6869 H   0  0  0  0  0  0  0  0  0  0  0  0
   12.3042    3.0269   18.3844 H   0  0  0  0  0  0  0  0  0  0  0  0
   11.8877    4.4131   19.3849 H   0  0  0  0  0  0  0  0  0  0  0  0
  1  8  1  0  0  0  0
  1  7  1  0  0  0  0
  2  1  1  0  0  0  0
  3  1  1  0  0  0  0
  4  1  1  0  0  0  0
  5 15  1  0  0  0  0
  5  9  1  0  0  0  0
  6 24  1  0  0  0  0
  7  5  1  0  0  0  0
  8  6  1  0  0  0  0
  9 27  1  0  0  0  0
  9 11  1  0  0  0  0
 10 29  1  0  0  0  0
 10  9  1  0  0  0  0
 11 32  1  0  0  0  0
 11 31  1  0  0  0  0
 12 34  1  0  0  0  0
 12  5  1  0  0  0  0
 12 13  1  0  0  0  0
 13 35  1  0  0  0  0
 14 12  1  0  0  0  0
 15 16  1  0  0  0  0
 15 41  1  0  0  0  0
 16 44  1  0  0  0  0
 16 42  1  0  0  0  0
 17 47  1  0  0  0  0
 17 15  1  0  0  0  0
 18  6  1  0  0  0  0
 18 48  1  0  0  0  0
 19 51  1  0  0  0  0
 19 18  1  0  0  0  0
 19 49  1  0  0  0  0
 20 52  1  0  0  0  0
 20 18  1  0  0  0  0
 21 55  1  0  0  0  0
 21 23  1  0  0  0  0
 21  6  1  0  0  0  0
 22 21  1  0  0  0  0
 23 61  1  0  0  0  0
 23 60  1  0  0  0  0
 24 62  1  0  0  0  0
 24 26  1  0  0  0  0
 24 25  1  0  0  0  0
 25 65  1  0  0  0  0
 25 64  1  0  0  0  0
 26 68  1  0  0  0  0
 28 10  1  0  0  0  0
 30 10  1  0  0  0  0
 33 11  1  0  0  0  0
 36 13  1  0  0  0  0
 37 13  1  0  0  0  0
 38 14  1  0  0  0  0
 39 14  1  0  0  0  0
 40 14  1  0  0  0  0
 43 16  1  0  0  0  0
 45 17  1  0  0  0  0
 46 17  1  0  0  0  0
 50 19  1  0  0  0  0
 53 20  1  0  0  0  0
 54 20  1  0  0  0  0
 56 22  1  0  0  0  0
 57 22  1  0  0  0  0
 58 22  1  0  0  0  0
 59 23  1  0  0  0  0
 63 25  1  0  0  0  0
 66 26  1  0  0  0  0
 67 26  1  0  0  0  0
M  END
$$$$
