CSD_code = TUKGUB | q = 0 | S = 0 | Stoichiometry = C28H31Cl2NNiP2 | MND = 5
 OpenBabel04212202103D

 65 69  0  0  0  0  0  0  0  0999 V2000
    1.1079    2.2597    4.6478 Ni  0  0  0  0  0  0  0  0  0  0  0  0
    1.1389    3.7543    6.2676 Cl  0  0  0  0  0  0  0  0  0  0  0  0
   -0.0331    0.3558    4.4186 Cl  0  0  0  0  0  0  0  0  0  0  0  0
    2.6494    2.2227    2.9591 P   0  0  0  0  0  4  0  0  0  0  0  0
    1.9511    1.1308    6.2092 P   0  0  0  0  0  4  0  0  0  0  0  0
   -0.0231    3.3888    3.3071 N   0  0  0  0  0  4  0  0  0  0  0  0
    1.3774    2.2874    1.6419 C   0  0  0  0  0  0  0  0  0  0  0  0
    1.5733    1.7612    0.3719 C   0  0  0  0  0  0  0  0  0  0  0  0
    0.5434    1.7569   -0.5511 C   0  0  0  0  0  0  0  0  0  0  0  0
   -0.6931    2.2675   -0.2001 C   0  0  0  0  0  0  0  0  0  0  0  0
   -0.9007    2.7946    1.0632 C   0  0  0  0  0  0  0  0  0  0  0  0
    0.1277    2.8135    1.9946 C   0  0  0  0  0  0  0  0  0  0  0  0
   -1.3967    3.3439    3.8235 C   0  0  0  0  0  0  0  0  0  0  0  0
    0.4105    4.7907    3.2406 C   0  0  0  0  0  0  0  0  0  0  0  0
    0.8885    0.7811    7.6446 C   0  0  0  0  0  0  0  0  0  0  0  0
    2.6111   -0.5443    5.8350 C   0  0  0  0  0  0  0  0  0  0  0  0
    3.4733    1.8955    6.8631 C   0  0  0  0  0  0  0  0  0  0  0  0
    3.5612    2.4326    8.1399 C   0  0  0  0  0  0  0  0  0  0  0  0
    4.7389    3.0241    8.5618 C   0  0  0  0  0  0  0  0  0  0  0  0
    5.8306    3.0943    7.7128 C   0  0  0  0  0  0  0  0  0  0  0  0
    5.7437    2.5706    6.4331 C   0  0  0  0  0  0  0  0  0  0  0  0
    4.5703    1.9747    6.0121 C   0  0  0  0  0  0  0  0  0  0  0  0
    3.6481    0.8108    2.3995 C   0  0  0  0  0  0  0  0  0  0  0  0
    2.9931   -0.4130    2.2578 C   0  0  0  0  0  0  0  0  0  0  0  0
    3.7071   -1.5474    1.9242 C   0  0  0  0  0  0  0  0  0  0  0  0
    5.0808   -1.4761    1.7476 C   0  0  0  0  0  0  0  0  0  0  0  0
    5.7385   -0.2689    1.9154 C   0  0  0  0  0  0  0  0  0  0  0  0
    5.0290    0.8723    2.2473 C   0  0  0  0  0  0  0  0  0  0  0  0
    3.7152    3.6498    2.5544 C   0  0  0  0  0  0  0  0  0  0  0  0
    4.0850    4.4847    3.6041 C   0  0  0  0  0  0  0  0  0  0  0  0
    4.8992    5.5781    3.3687 C   0  0  0  0  0  0  0  0  0  0  0  0
    5.3403    5.8458    2.0835 C   0  0  0  0  0  0  0  0  0  0  0  0
    4.9629    5.0231    1.0331 C   0  0  0  0  0  0  0  0  0  0  0  0
    4.1524    3.9269    1.2636 C   0  0  0  0  0  0  0  0  0  0  0  0
    2.5280    1.3248    0.1144 H   0  0  0  0  0  0  0  0  0  0  0  0
    0.7022    1.3414   -1.5349 H   0  0  0  0  0  0  0  0  0  0  0  0
   -1.5065    2.2547   -0.9101 H   0  0  0  0  0  0  0  0  0  0  0  0
   -1.8757    3.1824    1.3132 H   0  0  0  0  0  0  0  0  0  0  0  0
   -2.0523    4.0481    3.2984 H   0  0  0  0  0  0  0  0  0  0  0  0
   -1.7934    2.3331    3.7295 H   0  0  0  0  0  0  0  0  0  0  0  0
   -1.3783    3.6206    4.8799 H   0  0  0  0  0  0  0  0  0  0  0  0
   -0.2594    5.3665    2.5895 H   0  0  0  0  0  0  0  0  0  0  0  0
    0.3992    5.2229    4.2413 H   0  0  0  0  0  0  0  0  0  0  0  0
    1.4242    4.8549    2.8433 H   0  0  0  0  0  0  0  0  0  0  0  0
    1.4720    0.2405    8.3897 H   0  0  0  0  0  0  0  0  0  0  0  0
    0.4940    1.7057    8.0609 H   0  0  0  0  0  0  0  0  0  0  0  0
    0.0620    0.1611    7.2982 H   0  0  0  0  0  0  0  0  0  0  0  0
    3.2119   -0.8739    6.6825 H   0  0  0  0  0  0  0  0  0  0  0  0
    1.7820   -1.2274    5.6702 H   0  0  0  0  0  0  0  0  0  0  0  0
    3.2289   -0.5234    4.9394 H   0  0  0  0  0  0  0  0  0  0  0  0
    2.7072    2.4069    8.7988 H   0  0  0  0  0  0  0  0  0  0  0  0
    4.8010    3.4411    9.5564 H   0  0  0  0  0  0  0  0  0  0  0  0
    6.7447    3.5647    8.0441 H   0  0  0  0  0  0  0  0  0  0  0  0
    6.5875    2.6332    5.7610 H   0  0  0  0  0  0  0  0  0  0  0  0
    4.4942    1.5764    5.0065 H   0  0  0  0  0  0  0  0  0  0  0  0
    1.9241   -0.4624    2.4199 H   0  0  0  0  0  0  0  0  0  0  0  0
    3.1940   -2.4907    1.8082 H   0  0  0  0  0  0  0  0  0  0  0  0
    5.6395   -2.3631    1.4875 H   0  0  0  0  0  0  0  0  0  0  0  0
    6.8103   -0.2146    1.7895 H   0  0  0  0  0  0  0  0  0  0  0  0
    5.5465    1.8123    2.3826 H   0  0  0  0  0  0  0  0  0  0  0  0
    3.7204    4.2754    4.6020 H   0  0  0  0  0  0  0  0  0  0  0  0
    5.1853    6.2214    4.1875 H   0  0  0  0  0  0  0  0  0  0  0  0
    5.9753    6.6993    1.8961 H   0  0  0  0  0  0  0  0  0  0  0  0
    5.3026    5.2376    0.0300 H   0  0  0  0  0  0  0  0  0  0  0  0
    3.8579    3.2871    0.4441 H   0  0  0  0  0  0  0  0  0  0  0  0
  1  5  1  0  0  0  0
  1  2  1  0  0  0  0
  3  1  1  0  0  0  0
  4  1  1  0  0  0  0
  5 17  1  0  0  0  0
  5 15  1  0  0  0  0
  6 13  1  0  0  0  0
  6  1  1  0  0  0  0
  7 12  1  0  0  0  0
  7  4  1  0  0  0  0
  8  7  2  0  0  0  0
  9 10  2  0  0  0  0
  9  8  1  0  0  0  0
 10 11  1  0  0  0  0
 11 38  1  0  0  0  0
 11 12  2  0  0  0  0
 12  6  1  0  0  0  0
 13 41  1  0  0  0  0
 14  6  1  0  0  0  0
 14 43  1  0  0  0  0
 15 46  1  0  0  0  0
 15 45  1  0  0  0  0
 16  5  1  0  0  0  0
 16 48  1  0  0  0  0
 17 18  1  0  0  0  0
 18 19  2  0  0  0  0
 18 51  1  0  0  0  0
 19 52  1  0  0  0  0
 20 53  1  0  0  0  0
 20 19  1  0  0  0  0
 21 20  2  0  0  0  0
 22 21  1  0  0  0  0
 22 17  2  0  0  0  0
 23  4  1  0  0  0  0
 24 23  1  0  0  0  0
 24 56  1  0  0  0  0
 25 24  2  0  0  0  0
 26 27  2  0  0  0  0
 26 25  1  0  0  0  0
 27 28  1  0  0  0  0
 28 60  1  0  0  0  0
 28 23  2  0  0  0  0
 29  4  1  0  0  0  0
 29 30  1  0  0  0  0
 30 61  1  0  0  0  0
 31 30  2  0  0  0  0
 31 62  1  0  0  0  0
 32 31  1  0  0  0  0
 33 34  1  0  0  0  0
 33 32  2  0  0  0  0
 34 29  2  0  0  0  0
 35  8  1  0  0  0  0
 36  9  1  0  0  0  0
 37 10  1  0  0  0  0
 39 13  1  0  0  0  0
 40 13  1  0  0  0  0
 42 14  1  0  0  0  0
 44 14  1  0  0  0  0
 47 15  1  0  0  0  0
 49 16  1  0  0  0  0
 50 16  1  0  0  0  0
 54 21  1  0  0  0  0
 55 22  1  0  0  0  0
 57 25  1  0  0  0  0
 58 26  1  0  0  0  0
 59 27  1  0  0  0  0
 63 32  1  0  0  0  0
 64 33  1  0  0  0  0
 65 34  1  0  0  0  0
M  END
$$$$
