CSD_code = TUKNIY | q = 0 | S = 0 | Stoichiometry = C15H30AuClN2O2 | MND = 2
 OpenBabel04212202103D

 51 51  0  0  1  0  0  0  0  0999 V2000
    1.7403    5.5588    1.4566 Au  0  0  0  0  0  0  0  0  0  0  0  0
    2.7929    7.2202    0.3400 Cl  0  0  0  0  0  0  0  0  0  0  0  0
    1.3799    2.9090    2.7999 N   0  0  0  0  0  0  0  0  0  0  0  0
    0.8365    2.1657    3.2263 H   0  0  0  0  0  0  0  0  0  0  0  0
    0.7832    4.0426    2.4702 C   0  0  1  0  0  3  0  0  0  0  0  0
   -0.4939    4.1790    2.8440 N   0  0  0  0  0  0  0  0  0  0  0  0
   -1.1991    3.2123    3.6665 C   0  0  0  0  0  0  0  0  0  0  0  0
   -2.0812    3.7031    4.0738 H   0  0  0  0  0  0  0  0  0  0  0  0
   -0.5708    2.8926    4.5051 H   0  0  0  0  0  0  0  0  0  0  0  0
   -1.6786    1.9584    2.8969 C   0  0  0  0  0  0  0  0  0  0  0  0
   -1.7575    2.1906    1.8226 H   0  0  0  0  0  0  0  0  0  0  0  0
   -0.7353    0.9366    3.1034 O   0  0  0  0  0  0  0  0  0  0  0  0
   -0.8916   -0.1725    2.2385 C   0  0  0  0  0  0  0  0  0  0  0  0
   -0.1802   -0.9248    2.5723 H   0  0  0  0  0  0  0  0  0  0  0  0
   -0.6753    0.1164    1.2044 H   0  0  0  0  0  0  0  0  0  0  0  0
   -1.9066   -0.5722    2.2937 H   0  0  0  0  0  0  0  0  0  0  0  0
   -2.9708    1.5570    3.2501 O   0  0  0  0  0  0  0  0  0  0  0  0
   -3.1358    1.1470    4.5967 C   0  0  0  0  0  0  0  0  0  0  0  0
   -4.1011    0.6477    4.6388 H   0  0  0  0  0  0  0  0  0  0  0  0
   -3.1395    2.0015    5.2801 H   0  0  0  0  0  0  0  0  0  0  0  0
   -2.3476    0.4515    4.8952 H   0  0  0  0  0  0  0  0  0  0  0  0
   -1.2533    5.3688    2.4708 C   0  0  0  0  0  0  0  0  0  0  0  0
   -0.5933    5.9400    1.8078 H   0  0  0  0  0  0  0  0  0  0  0  0
   -2.5253    5.0376    1.6892 C   0  0  0  0  0  0  0  0  0  0  0  0
   -3.2322    4.4812    2.3082 H   0  0  0  0  0  0  0  0  0  0  0  0
   -2.2704    4.4178    0.8270 H   0  0  0  0  0  0  0  0  0  0  0  0
   -3.1777    6.3352    1.2160 C   0  0  0  0  0  0  0  0  0  0  0  0
   -2.4986    6.8508    0.5342 H   0  0  0  0  0  0  0  0  0  0  0  0
   -4.0935    6.1055    0.6686 H   0  0  0  0  0  0  0  0  0  0  0  0
   -3.4909    7.2450    2.3997 C   0  0  0  0  0  0  0  0  0  0  0  0
   -4.2164    6.7548    3.0537 H   0  0  0  0  0  0  0  0  0  0  0  0
   -3.9379    8.1738    2.0423 H   0  0  0  0  0  0  0  0  0  0  0  0
   -2.2211    7.5527    3.1876 C   0  0  0  0  0  0  0  0  0  0  0  0
   -2.4561    8.1901    4.0419 H   0  0  0  0  0  0  0  0  0  0  0  0
   -1.5177    8.0913    2.5502 H   0  0  0  0  0  0  0  0  0  0  0  0
   -1.5713    6.2599    3.6741 C   0  0  0  0  0  0  0  0  0  0  0  0
   -0.6463    6.4811    4.2103 H   0  0  0  0  0  0  0  0  0  0  0  0
   -2.2545    5.7593    4.3642 H   0  0  0  0  0  0  0  0  0  0  0  0
    2.7662    2.5075    2.5470 C   0  0  0  0  0  0  0  0  0  0  0  0
    3.7402    3.4690    3.2305 C   0  0  0  0  0  0  0  0  0  0  0  0
    3.6711    4.4614    2.7916 H   0  0  0  0  0  0  0  0  0  0  0  0
    4.7582    3.1093    3.1125 H   0  0  0  0  0  0  0  0  0  0  0  0
    3.5160    3.5433    4.2925 H   0  0  0  0  0  0  0  0  0  0  0  0
    3.0396    2.4307    1.0435 C   0  0  0  0  0  0  0  0  0  0  0  0
    2.3281    1.7619    0.5637 H   0  0  0  0  0  0  0  0  0  0  0  0
    4.0442    2.0570    0.8681 H   0  0  0  0  0  0  0  0  0  0  0  0
    2.9524    3.4147    0.5890 H   0  0  0  0  0  0  0  0  0  0  0  0
    2.9198    1.1129    3.1609 C   0  0  0  0  0  0  0  0  0  0  0  0
    2.2263    0.4134    2.6991 H   0  0  0  0  0  0  0  0  0  0  0  0
    2.7277    1.1414    4.2317 H   0  0  0  0  0  0  0  0  0  0  0  0
    3.9302    0.7452    3.0060 H   0  0  0  0  0  0  0  0  0  0  0  0
  2  1  1  0  0  0  0
  3  4  1  0  0  0  0
  5  1  1  1  0  0  0
  5  3  1  0  0  0  0
  5  6  1  0  0  0  0
  6  7  1  0  0  0  0
  7  8  1  0  0  0  0
  7  9  1  0  0  0  0
 10 12  1  0  0  0  0
 10 17  1  0  0  0  0
 10  7  1  0  0  0  0
 11 10  1  0  0  0  0
 13 16  1  0  0  0  0
 13 14  1  0  0  0  0
 13 12  1  0  0  0  0
 15 13  1  0  0  0  0
 17 18  1  0  0  0  0
 18 19  1  0  0  0  0
 18 21  1  0  0  0  0
 18 20  1  0  0  0  0
 22  6  1  0  0  0  0
 22 36  1  0  0  0  0
 23 22  1  0  0  0  0
 24 25  1  0  0  0  0
 24 22  1  0  0  0  0
 26 24  1  0  0  0  0
 27 24  1  0  0  0  0
 27 30  1  0  0  0  0
 28 27  1  0  0  0  0
 29 27  1  0  0  0  0
 30 31  1  0  0  0  0
 30 33  1  0  0  0  0
 32 30  1  0  0  0  0
 33 36  1  0  0  0  0
 33 34  1  0  0  0  0
 35 33  1  0  0  0  0
 36 37  1  0  0  0  0
 36 38  1  0  0  0  0
 39  3  1  0  0  0  0
 39 48  1  0  0  0  0
 39 40  1  0  0  0  0
 40 43  1  0  0  0  0
 41 40  1  0  0  0  0
 42 40  1  0  0  0  0
 44 39  1  0  0  0  0
 45 44  1  0  0  0  0
 46 44  1  0  0  0  0
 47 44  1  0  0  0  0
 48 50  1  0  0  0  0
 49 48  1  0  0  0  0
 51 48  1  0  0  0  0
M  END
$$$$
