CSD_code = TUKNEU | q = 0 | S = 0 | Stoichiometry = C13H17AuClN | MND = 2
 OpenBabel04212202103D

 33 33  0  0  0  0  0  0  0  0999 V2000
    4.5841    5.3159    3.4383 Au  0  0  0  0  0  0  0  0  0  0  0  0
    3.6606    3.4220    4.0923 Cl  0  0  0  0  0  0  0  0  0  0  0  0
    5.3624    6.9184    2.8845 C   0  0  0  0  0  0  0  0  0  0  0  0
    5.8437    7.9208    2.5416 N   0  0  0  0  0  2  0  0  0  0  0  0
    6.4027    9.0906    2.1451 C   0  0  0  0  0  0  0  0  0  0  0  0
    5.7834   10.2930    2.5219 C   0  0  0  0  0  0  0  0  0  0  0  0
    6.3707   11.4735    2.0958 C   0  0  0  0  0  0  0  0  0  0  0  0
    5.9231   12.4188    2.3547 H   0  0  0  0  0  0  0  0  0  0  0  0
    7.5318   11.4564    1.3428 C   0  0  0  0  0  0  0  0  0  0  0  0
    7.9764   12.3881    1.0270 H   0  0  0  0  0  0  0  0  0  0  0  0
    8.1295   10.2592    0.9899 C   0  0  0  0  0  0  0  0  0  0  0  0
    9.0348   10.2727    0.4059 H   0  0  0  0  0  0  0  0  0  0  0  0
    7.5756    9.0486    1.3748 C   0  0  0  0  0  0  0  0  0  0  0  0
    4.5028   10.2605    3.3199 C   0  0  0  0  0  0  0  0  0  0  0  0
    4.5332    9.3885    3.9840 H   0  0  0  0  0  0  0  0  0  0  0  0
    8.2076    7.7197    1.0396 C   0  0  0  0  0  0  0  0  0  0  0  0
    7.4094    6.9756    0.9336 H   0  0  0  0  0  0  0  0  0  0  0  0
    4.3024   11.5019    4.1872 C   0  0  0  0  0  0  0  0  0  0  0  0
    3.4676   11.3391    4.8644 H   0  0  0  0  0  0  0  0  0  0  0  0
    5.1905   11.7060    4.7809 H   0  0  0  0  0  0  0  0  0  0  0  0
    4.0738   12.3748    3.5810 H   0  0  0  0  0  0  0  0  0  0  0  0
    3.3214   10.0868    2.3574 C   0  0  0  0  0  0  0  0  0  0  0  0
    2.3892   10.0509    2.9151 H   0  0  0  0  0  0  0  0  0  0  0  0
    3.2780   10.9215    1.6609 H   0  0  0  0  0  0  0  0  0  0  0  0
    3.4155    9.1651    1.7872 H   0  0  0  0  0  0  0  0  0  0  0  0
    9.0013    7.7431   -0.2653 C   0  0  0  0  0  0  0  0  0  0  0  0
    8.4067    8.1665   -1.0716 H   0  0  0  0  0  0  0  0  0  0  0  0
    9.9170    8.3195   -0.1609 H   0  0  0  0  0  0  0  0  0  0  0  0
    9.2768    6.7277   -0.5394 H   0  0  0  0  0  0  0  0  0  0  0  0
    9.1087    7.2910    2.2042 C   0  0  0  0  0  0  0  0  0  0  0  0
    9.5644    6.3284    1.9876 H   0  0  0  0  0  0  0  0  0  0  0  0
    9.8988    8.0232    2.3575 H   0  0  0  0  0  0  0  0  0  0  0  0
    8.5374    7.2004    3.1257 H   0  0  0  0  0  0  0  0  0  0  0  0
  1  2  1  0  0  0  0
  3  1  3  0  0  0  0
  4  3  1  0  0  0  0
  5  6  1  0  0  0  0
  5  4  1  0  0  0  0
  6 14  1  0  0  0  0
  7  8  1  0  0  0  0
  7  6  2  0  0  0  0
  9  7  1  0  0  0  0
 10  9  1  0  0  0  0
 11  9  2  0  0  0  0
 11 13  1  0  0  0  0
 12 11  1  0  0  0  0
 13  5  2  0  0  0  0
 14 15  1  0  0  0  0
 14 18  1  0  0  0  0
 16 13  1  0  0  0  0
 16 30  1  0  0  0  0
 17 16  1  0  0  0  0
 18 20  1  0  0  0  0
 18 19  1  0  0  0  0
 21 18  1  0  0  0  0
 22 23  1  0  0  0  0
 22 14  1  0  0  0  0
 24 22  1  0  0  0  0
 25 22  1  0  0  0  0
 26 28  1  0  0  0  0
 26 16  1  0  0  0  0
 27 26  1  0  0  0  0
 29 26  1  0  0  0  0
 30 32  1  0  0  0  0
 30 33  1  0  0  0  0
 31 30  1  0  0  0  0
M  END
$$$$
