CSD_code = TUKPIA | q = 0 | S = 0 | Stoichiometry = C23H38AuClN2O2 | MND = 2
 OpenBabel04212202103D

 67 68  0  0  1  0  0  0  0  0999 V2000
   13.8214    5.3973   -6.7999 Au  0  0  0  0  0  0  0  0  0  0  0  0
   14.3998    5.3070   -8.9762 Cl  0  0  0  0  0  0  0  0  0  0  0  0
   13.3044    5.5213   -4.8298 C   0  0  1  0  0  3  0  0  0  0  0  0
   13.8623    6.4976   -4.1298 N   0  0  0  0  0  0  0  0  0  0  0  0
   13.6200    6.6826   -3.1594 H   0  0  0  0  0  0  0  0  0  0  0  0
   12.4544    4.7088   -4.2039 N   0  0  0  0  0  0  0  0  0  0  0  0
   12.1539    4.8224   -2.7907 C   0  0  0  0  0  0  0  0  0  0  0  0
   13.0759    4.8908   -2.2039 H   0  0  0  0  0  0  0  0  0  0  0  0
   11.6198    3.9330   -2.4635 H   0  0  0  0  0  0  0  0  0  0  0  0
   11.2746    6.0458   -2.4364 C   0  0  0  0  0  0  0  0  0  0  0  0
   10.8405    6.4813   -3.3585 H   0  0  0  0  0  0  0  0  0  0  0  0
   12.1274    6.9809   -1.8288 O   0  0  0  0  0  0  0  0  0  0  0  0
   11.5275    8.2000   -1.4395 C   0  0  0  0  0  0  0  0  0  0  0  0
   12.3418    8.8388   -1.1033 H   0  0  0  0  0  0  0  0  0  0  0  0
   11.0155    8.6713   -2.2859 H   0  0  0  0  0  0  0  0  0  0  0  0
   10.8244    8.0469   -0.6172 H   0  0  0  0  0  0  0  0  0  0  0  0
   10.2413    5.6319   -1.5848 O   0  0  0  0  0  0  0  0  0  0  0  0
    8.9438    6.1002   -1.8878 C   0  0  0  0  0  0  0  0  0  0  0  0
    8.2792    5.5917   -1.1924 H   0  0  0  0  0  0  0  0  0  0  0  0
    8.8481    7.1820   -1.7531 H   0  0  0  0  0  0  0  0  0  0  0  0
    8.6620    5.8409   -2.9141 H   0  0  0  0  0  0  0  0  0  0  0  0
   11.7872    3.6417   -4.9404 C   0  0  0  0  0  0  0  0  0  0  0  0
   12.0981    3.7704   -5.9839 H   0  0  0  0  0  0  0  0  0  0  0  0
   12.2425    2.2535   -4.4855 C   0  0  0  0  0  0  0  0  0  0  0  0
   13.3310    2.1960   -4.5452 H   0  0  0  0  0  0  0  0  0  0  0  0
   11.9476    2.0688   -3.4502 H   0  0  0  0  0  0  0  0  0  0  0  0
   11.6088    1.1927   -5.3820 C   0  0  0  0  0  0  0  0  0  0  0  0
   11.9544    1.3349   -6.4075 H   0  0  0  0  0  0  0  0  0  0  0  0
   11.9240    0.2002   -5.0556 H   0  0  0  0  0  0  0  0  0  0  0  0
   10.0874    1.2978   -5.3388 C   0  0  0  0  0  0  0  0  0  0  0  0
    9.7370    1.1008   -4.3226 H   0  0  0  0  0  0  0  0  0  0  0  0
    9.6461    0.5466   -5.9955 H   0  0  0  0  0  0  0  0  0  0  0  0
    9.6359    2.6891   -5.7719 C   0  0  0  0  0  0  0  0  0  0  0  0
    9.9369    2.8620   -6.8069 H   0  0  0  0  0  0  0  0  0  0  0  0
    8.5478    2.7614   -5.7215 H   0  0  0  0  0  0  0  0  0  0  0  0
   10.2636    3.7585   -4.8807 C   0  0  0  0  0  0  0  0  0  0  0  0
    9.9082    3.6271   -3.8563 H   0  0  0  0  0  0  0  0  0  0  0  0
    9.9638    4.7513   -5.2250 H   0  0  0  0  0  0  0  0  0  0  0  0
   14.8141    7.3887   -4.7096 C   0  0  0  0  0  0  0  0  0  0  0  0
   16.1656    7.0359   -4.7132 C   0  0  0  0  0  0  0  0  0  0  0  0
   17.0757    7.9212   -5.2742 C   0  0  0  0  0  0  0  0  0  0  0  0
   18.1238    7.6663   -5.2964 H   0  0  0  0  0  0  0  0  0  0  0  0
   16.6565    9.1206   -5.8154 C   0  0  0  0  0  0  0  0  0  0  0  0
   17.3762    9.7944   -6.2554 H   0  0  0  0  0  0  0  0  0  0  0  0
   15.3166    9.4556   -5.8033 C   0  0  0  0  0  0  0  0  0  0  0  0
   14.9995   10.3906   -6.2385 H   0  0  0  0  0  0  0  0  0  0  0  0
   14.3750    8.5990   -5.2507 C   0  0  0  0  0  0  0  0  0  0  0  0
   16.6398    5.7232   -4.1365 C   0  0  0  0  0  0  0  0  0  0  0  0
   15.7749    5.1733   -3.7514 H   0  0  0  0  0  0  0  0  0  0  0  0
   12.9092    8.9627   -5.2730 C   0  0  0  0  0  0  0  0  0  0  0  0
   12.3476    8.1817   -4.7492 H   0  0  0  0  0  0  0  0  0  0  0  0
   17.6058    5.9599   -2.9729 C   0  0  0  0  0  0  0  0  0  0  0  0
   17.8999    5.0096   -2.5327 H   0  0  0  0  0  0  0  0  0  0  0  0
   18.5030    6.4717   -3.3108 H   0  0  0  0  0  0  0  0  0  0  0  0
   17.1348    6.5678   -2.2026 H   0  0  0  0  0  0  0  0  0  0  0  0
   17.2903    4.8668   -5.2246 C   0  0  0  0  0  0  0  0  0  0  0  0
   17.5475    3.8871   -4.8275 H   0  0  0  0  0  0  0  0  0  0  0  0
   16.6036    4.7357   -6.0594 H   0  0  0  0  0  0  0  0  0  0  0  0
   18.1966    5.3347   -5.5991 H   0  0  0  0  0  0  0  0  0  0  0  0
   12.6579   10.2909   -4.5555 C   0  0  0  0  0  0  0  0  0  0  0  0
   11.5910   10.5036   -4.5219 H   0  0  0  0  0  0  0  0  0  0  0  0
   13.0382   10.2531   -3.5367 H   0  0  0  0  0  0  0  0  0  0  0  0
   13.1484   11.1106   -5.0729 H   0  0  0  0  0  0  0  0  0  0  0  0
   12.4071    9.0156   -6.7176 C   0  0  0  0  0  0  0  0  0  0  0  0
   12.6069    8.0699   -7.2194 H   0  0  0  0  0  0  0  0  0  0  0  0
   11.3356    9.2044   -6.7405 H   0  0  0  0  0  0  0  0  0  0  0  0
   12.9078    9.8052   -7.2713 H   0  0  0  0  0  0  0  0  0  0  0  0
  2  1  1  0  0  0  0
  3  1  1  6  0  0  0
  3  6  1  0  0  0  0
  3  4  1  0  0  0  0
  4  5  1  0  0  0  0
  6  7  1  0  0  0  0
  7  9  1  0  0  0  0
  7 10  1  0  0  0  0
  7  8  1  0  0  0  0
 10 12  1  0  0  0  0
 10 17  1  0  0  0  0
 11 10  1  0  0  0  0
 12 13  1  0  0  0  0
 13 14  1  0  0  0  0
 13 16  1  0  0  0  0
 15 13  1  0  0  0  0
 18 20  1  0  0  0  0
 18 17  1  0  0  0  0
 18 19  1  0  0  0  0
 21 18  1  0  0  0  0
 22 36  1  0  0  0  0
 22 24  1  0  0  0  0
 22  6  1  0  0  0  0
 23 22  1  0  0  0  0
 24 26  1  0  0  0  0
 25 24  1  0  0  0  0
 27 30  1  0  0  0  0
 27 29  1  0  0  0  0
 27 24  1  0  0  0  0
 28 27  1  0  0  0  0
 30 31  1  0  0  0  0
 32 30  1  0  0  0  0
 33 35  1  0  0  0  0
 33 30  1  0  0  0  0
 33 36  1  0  0  0  0
 34 33  1  0  0  0  0
 36 37  1  0  0  0  0
 38 36  1  0  0  0  0
 39  4  1  0  0  0  0
 40 39  1  0  0  0  0
 40 48  1  0  0  0  0
 41 40  2  0  0  0  0
 42 41  1  0  0  0  0
 43 45  2  0  0  0  0
 43 41  1  0  0  0  0
 44 43  1  0  0  0  0
 45 47  1  0  0  0  0
 46 45  1  0  0  0  0
 47 39  2  0  0  0  0
 48 49  1  0  0  0  0
 48 52  1  0  0  0  0
 50 47  1  0  0  0  0
 50 51  1  0  0  0  0
 50 60  1  0  0  0  0
 52 53  1  0  0  0  0
 52 55  1  0  0  0  0
 54 52  1  0  0  0  0
 56 57  1  0  0  0  0
 56 48  1  0  0  0  0
 58 56  1  0  0  0  0
 59 56  1  0  0  0  0
 60 61  1  0  0  0  0
 60 62  1  0  0  0  0
 63 60  1  0  0  0  0
 64 50  1  0  0  0  0
 65 64  1  0  0  0  0
 66 64  1  0  0  0  0
 67 64  1  0  0  0  0
M  END
$$$$
