CSD_code = TUKPEV | q = 0 | S = 0 | Stoichiometry = C33H32Cl2P2Pt | MND = 4
 OpenBabel04212202103D

 70 76  0  0  1  0  0  0  0  0999 V2000
    3.1794    4.1502    0.2862 Pt  0  0  0  0  0  0  0  0  0  0  0  0
    2.6306    2.4392   -1.1595 Cl  0  0  0  0  0  0  0  0  0  0  0  0
    3.5979    2.3612    1.5963 P   0  0  0  0  0  4  0  0  0  0  0  0
    4.9173    1.2887    0.9701 C   0  0  0  0  0  0  0  0  0  0  0  0
    5.1729    0.0372    1.5212 C   0  0  0  0  0  0  0  0  0  0  0  0
    4.5469   -0.3409    2.3186 H   0  0  0  0  0  0  0  0  0  0  0  0
    6.2172   -0.7279    1.0350 C   0  0  0  0  0  0  0  0  0  0  0  0
    6.4087   -1.7049    1.4546 H   0  0  0  0  0  0  0  0  0  0  0  0
    7.0150   -0.2459    0.0091 C   0  0  0  0  0  0  0  0  0  0  0  0
    7.8263   -0.8498   -0.3696 H   0  0  0  0  0  0  0  0  0  0  0  0
    6.7708    1.0053   -0.5336 C   0  0  0  0  0  0  0  0  0  0  0  0
    7.3921    1.3788   -1.3339 H   0  0  0  0  0  0  0  0  0  0  0  0
    5.7246    1.7712   -0.0533 C   0  0  0  0  0  0  0  0  0  0  0  0
    5.5017    2.7459   -0.4782 H   0  0  0  0  0  0  0  0  0  0  0  0
    2.1457    1.3056    1.8458 C   0  0  0  0  0  0  0  0  0  0  0  0
    1.9658    0.1258    1.1321 C   0  0  0  0  0  0  0  0  0  0  0  0
    2.7242   -0.1995    0.4355 H   0  0  0  0  0  0  0  0  0  0  0  0
    0.8051   -0.6083    1.2951 C   0  0  0  0  0  0  0  0  0  0  0  0
    0.6684   -1.5234    0.7380 H   0  0  0  0  0  0  0  0  0  0  0  0
   -0.1862   -0.1670    2.1561 C   0  0  0  0  0  0  0  0  0  0  0  0
   -1.0933   -0.7407    2.2760 H   0  0  0  0  0  0  0  0  0  0  0  0
   -0.0229    1.0220    2.8482 C   0  0  0  0  0  0  0  0  0  0  0  0
   -0.8046    1.3793    3.5029 H   0  0  0  0  0  0  0  0  0  0  0  0
    1.1355    1.7590    2.6897 C   0  0  0  0  0  0  0  0  0  0  0  0
    1.2523    2.7019    3.2075 H   0  0  0  0  0  0  0  0  0  0  0  0
    4.1847    2.6250    3.3356 C   0  0  0  0  0  0  0  0  0  0  0  0
    3.4154    3.1273    3.9206 H   0  0  0  0  0  0  0  0  0  0  0  0
    4.3268    1.6308    3.7732 H   0  0  0  0  0  0  0  0  0  0  0  0
    5.5162    3.3717    3.3764 C   0  0  2  0  0  0  0  0  0  0  0  0
    6.1124    3.0273    2.5238 H   0  0  0  0  0  0  0  0  0  0  0  0
    6.3028    3.0382    4.6769 C   0  0  2  0  0  0  0  0  0  0  0  0
    6.6598    2.0118    4.7181 H   0  0  0  0  0  0  0  0  0  0  0  0
    5.4283    3.4872    5.8183 C   0  0  0  0  0  0  0  0  0  0  0  0
    4.8767    2.8210    6.4562 H   0  0  0  0  0  0  0  0  0  0  0  0
    7.3537    4.1504    4.6754 C   0  0  0  0  0  0  0  0  0  0  0  0
    7.9694    4.1504    5.5735 H   0  0  0  0  0  0  0  0  0  0  0  0
    7.9893    4.1504    3.7918 H   0  0  0  0  0  0  0  0  0  0  0  0
    2.6316    5.8616   -1.1597 Cl  0  0  0  0  0  0  0  0  0  0  0  0
    3.5983    5.9399    1.5961 P   0  0  0  0  0  4  0  0  0  0  0  0
    4.9178    7.0125    0.9703 C   0  0  0  0  0  0  0  0  0  0  0  0
    5.1731    8.2640    1.5216 C   0  0  0  0  0  0  0  0  0  0  0  0
    4.5468    8.6420    2.3188 H   0  0  0  0  0  0  0  0  0  0  0  0
    6.2174    9.0293    1.0357 C   0  0  0  0  0  0  0  0  0  0  0  0
    6.4087   10.0063    1.4554 H   0  0  0  0  0  0  0  0  0  0  0  0
    7.0155    8.5474    0.0099 C   0  0  0  0  0  0  0  0  0  0  0  0
    7.8268    9.1515   -0.3686 H   0  0  0  0  0  0  0  0  0  0  0  0
    6.7715    7.2962   -0.5329 C   0  0  0  0  0  0  0  0  0  0  0  0
    7.3930    6.9229   -1.3331 H   0  0  0  0  0  0  0  0  0  0  0  0
    5.7253    6.5302   -0.0529 C   0  0  0  0  0  0  0  0  0  0  0  0
    5.5026    5.5556   -0.4780 H   0  0  0  0  0  0  0  0  0  0  0  0
    2.1460    6.9954    1.8454 C   0  0  0  0  0  0  0  0  0  0  0  0
    1.9661    8.1751    1.1316 C   0  0  0  0  0  0  0  0  0  0  0  0
    2.7247    8.5006    0.4353 H   0  0  0  0  0  0  0  0  0  0  0  0
    0.8052    8.9091    1.2942 C   0  0  0  0  0  0  0  0  0  0  0  0
    0.6686    9.8241    0.7371 H   0  0  0  0  0  0  0  0  0  0  0  0
   -0.1863    8.4676    2.1549 C   0  0  0  0  0  0  0  0  0  0  0  0
   -1.0936    9.0411    2.2745 H   0  0  0  0  0  0  0  0  0  0  0  0
   -0.0231    7.2786    2.8471 C   0  0  0  0  0  0  0  0  0  0  0  0
   -0.8049    6.9212    3.5014 H   0  0  0  0  0  0  0  0  0  0  0  0
    1.1356    6.5418    2.6889 C   0  0  0  0  0  0  0  0  0  0  0  0
    1.2523    5.5989    3.2067 H   0  0  0  0  0  0  0  0  0  0  0  0
    4.1848    5.6760    3.3355 C   0  0  0  0  0  0  0  0  0  0  0  0
    3.4154    5.1737    3.9204 H   0  0  0  0  0  0  0  0  0  0  0  0
    4.3270    6.6701    3.7731 H   0  0  0  0  0  0  0  0  0  0  0  0
    5.5163    4.9291    3.3764 C   0  0  1  0  0  0  0  0  0  0  0  0
    6.1125    5.2735    2.5238 H   0  0  0  0  0  0  0  0  0  0  0  0
    6.3028    5.2626    4.6769 C   0  0  1  0  0  0  0  0  0  0  0  0
    6.6598    6.2891    4.7181 H   0  0  0  0  0  0  0  0  0  0  0  0
    5.4283    4.8137    5.8183 C   0  0  0  0  0  0  0  0  0  0  0  0
    4.8766    5.4798    6.4561 H   0  0  0  0  0  0  0  0  0  0  0  0
  1 39  1  0  0  0  0
  1  3  1  0  0  0  0
  2  1  1  0  0  0  0
  3 15  1  0  0  0  0
  3 26  1  0  0  0  0
  4  5  1  0  0  0  0
  4  3  1  0  0  0  0
  5  6  1  0  0  0  0
  7  8  1  0  0  0  0
  7  5  2  0  0  0  0
  9  7  1  0  0  0  0
 10  9  1  0  0  0  0
 11 13  1  0  0  0  0
 11  9  2  0  0  0  0
 12 11  1  0  0  0  0
 13  4  2  0  0  0  0
 14 13  1  0  0  0  0
 15 24  1  0  0  0  0
 16 18  1  0  0  0  0
 16 15  2  0  0  0  0
 17 16  1  0  0  0  0
 18 20  2  0  0  0  0
 19 18  1  0  0  0  0
 20 21  1  0  0  0  0
 20 22  1  0  0  0  0
 22 23  1  0  0  0  0
 24 22  2  0  0  0  0
 24 25  1  0  0  0  0
 26 29  1  0  0  0  0
 26 28  1  0  0  0  0
 26 27  1  0  0  0  0
 29 30  1  6  0  0  0
 29 65  1  0  0  0  0
 29 31  1  0  0  0  0
 31 32  1  1  0  0  0
 31 33  1  0  0  0  0
 33 34  1  0  0  0  0
 35 31  1  0  0  0  0
 35 67  1  0  0  0  0
 35 36  1  0  0  0  0
 37 35  1  0  0  0  0
 38  1  1  0  0  0  0
 39 51  1  0  0  0  0
 39 62  1  0  0  0  0
 40 41  1  0  0  0  0
 40 39  1  0  0  0  0
 41 42  1  0  0  0  0
 43 44  1  0  0  0  0
 43 41  2  0  0  0  0
 45 43  1  0  0  0  0
 46 45  1  0  0  0  0
 47 49  1  0  0  0  0
 47 45  2  0  0  0  0
 48 47  1  0  0  0  0
 49 40  2  0  0  0  0
 50 49  1  0  0  0  0
 51 60  1  0  0  0  0
 52 54  1  0  0  0  0
 52 51  2  0  0  0  0
 53 52  1  0  0  0  0
 54 56  2  0  0  0  0
 55 54  1  0  0  0  0
 56 57  1  0  0  0  0
 56 58  1  0  0  0  0
 58 59  1  0  0  0  0
 60 58  2  0  0  0  0
 60 61  1  0  0  0  0
 62 65  1  0  0  0  0
 62 64  1  0  0  0  0
 62 63  1  0  0  0  0
 65 66  1  6  0  0  0
 65 67  1  0  0  0  0
 67 68  1  1  0  0  0
 67 69  1  0  0  0  0
 69 33  2  0  0  0  0
 69 70  1  0  0  0  0
M  END
$$$$
