CSD_code = TUKQEX | q = 0 | S = 0 | Stoichiometry = C17H22AuClN2O2 | MND = 2
 OpenBabel04212202103D

 45 47  0  0  1  0  0  0  0  0999 V2000
    4.4689    0.9717    4.6067 Au  0  0  0  0  0  0  0  0  0  0  0  0
    4.3185    3.1469    5.1771 Cl  0  0  0  0  0  0  0  0  0  0  0  0
    4.5587   -0.9205    3.9296 C   0  0  1  0  0  3  0  0  0  0  0  0
    4.1756   -2.0444    4.5571 N   0  0  0  0  0  0  0  0  0  0  0  0
    4.3633   -3.1302    3.7446 C   0  0  0  0  0  0  0  0  0  0  0  0
    4.1226   -4.1290    4.0420 H   0  0  0  0  0  0  0  0  0  0  0  0
    4.8807   -2.6689    2.5825 C   0  0  0  0  0  0  0  0  0  0  0  0
    5.1538   -3.1845    1.6858 H   0  0  0  0  0  0  0  0  0  0  0  0
    4.9861   -1.3085    2.7085 N   0  0  0  0  0  0  0  0  0  0  0  0
    3.6416   -2.0928    5.9000 C   0  0  0  0  0  0  0  0  0  0  0  0
    3.6395   -1.0564    6.2592 H   0  0  0  0  0  0  0  0  0  0  0  0
    4.5279   -2.9370    6.8175 C   0  0  0  0  0  0  0  0  0  0  0  0
    5.5447   -2.5392    6.8076 H   0  0  0  0  0  0  0  0  0  0  0  0
    4.5619   -3.9669    6.4550 H   0  0  0  0  0  0  0  0  0  0  0  0
    3.9662   -2.9161    8.2362 C   0  0  0  0  0  0  0  0  0  0  0  0
    4.5929   -3.5281    8.8869 H   0  0  0  0  0  0  0  0  0  0  0  0
    3.9860   -1.8930    8.6161 H   0  0  0  0  0  0  0  0  0  0  0  0
    2.5319   -3.4363    8.2512 C   0  0  0  0  0  0  0  0  0  0  0  0
    2.5193   -4.4796    7.9267 H   0  0  0  0  0  0  0  0  0  0  0  0
    2.1360   -3.3984    9.2669 H   0  0  0  0  0  0  0  0  0  0  0  0
    1.6520   -2.6043    7.3229 C   0  0  0  0  0  0  0  0  0  0  0  0
    1.6168   -1.5739    7.6817 H   0  0  0  0  0  0  0  0  0  0  0  0
    0.6331   -2.9949    7.3235 H   0  0  0  0  0  0  0  0  0  0  0  0
    2.2064   -2.6231    5.9014 C   0  0  0  0  0  0  0  0  0  0  0  0
    2.1894   -3.6455    5.5171 H   0  0  0  0  0  0  0  0  0  0  0  0
    1.5892   -2.0036    5.2474 H   0  0  0  0  0  0  0  0  0  0  0  0
    5.5210   -0.4558    1.7184 C   0  0  0  0  0  0  0  0  0  0  0  0
    6.6489   -0.8527    1.0259 C   0  0  0  0  0  0  0  0  0  0  0  0
    7.1352   -1.7932    1.2259 H   0  0  0  0  0  0  0  0  0  0  0  0
    7.1987   -0.0038    0.0607 C   0  0  0  0  0  0  0  0  0  0  0  0
    6.6297    1.2382   -0.1651 C   0  0  0  0  0  0  0  0  0  0  0  0
    7.0366    1.9375   -0.8757 H   0  0  0  0  0  0  0  0  0  0  0  0
    5.4951    1.6359    0.5479 C   0  0  0  0  0  0  0  0  0  0  0  0
    4.9144    0.7688    1.4654 C   0  0  0  0  0  0  0  0  0  0  0  0
    4.0097    1.0307    1.9847 H   0  0  0  0  0  0  0  0  0  0  0  0
    8.2936   -0.4837   -0.5807 O   0  0  0  0  0  0  0  0  0  0  0  0
    8.9171    0.3299   -1.5476 C   0  0  0  0  0  0  0  0  0  0  0  0
    9.7586   -0.2512   -1.9212 H   0  0  0  0  0  0  0  0  0  0  0  0
    9.2854    1.2617   -1.1086 H   0  0  0  0  0  0  0  0  0  0  0  0
    8.2385    0.5596   -2.3747 H   0  0  0  0  0  0  0  0  0  0  0  0
    5.0330    2.8730    0.2732 O   0  0  0  0  0  0  0  0  0  0  0  0
    4.0061    3.4092    1.0857 C   0  0  0  0  0  0  0  0  0  0  0  0
    3.8942    4.4440    0.7676 H   0  0  0  0  0  0  0  0  0  0  0  0
    4.2738    3.3828    2.1455 H   0  0  0  0  0  0  0  0  0  0  0  0
    3.0598    2.8816    0.9328 H   0  0  0  0  0  0  0  0  0  0  0  0
  1  2  1  0  0  0  0
  3  4  1  0  0  0  0
  3  1  1  6  0  0  0
  4 10  1  0  0  0  0
  5  6  1  0  0  0  0
  5  4  1  0  0  0  0
  7  9  1  0  0  0  0
  7  5  2  0  0  0  0
  8  7  1  0  0  0  0
  9  3  1  0  0  0  0
 10 24  1  0  0  0  0
 10 11  1  0  0  0  0
 10 12  1  0  0  0  0
 12 15  1  0  0  0  0
 13 12  1  0  0  0  0
 14 12  1  0  0  0  0
 15 18  1  0  0  0  0
 15 17  1  0  0  0  0
 15 16  1  0  0  0  0
 18 20  1  0  0  0  0
 19 18  1  0  0  0  0
 21 23  1  0  0  0  0
 21 22  1  0  0  0  0
 21 18  1  0  0  0  0
 24 21  1  0  0  0  0
 25 24  1  0  0  0  0
 26 24  1  0  0  0  0
 27  9  1  0  0  0  0
 28 29  1  0  0  0  0
 28 27  2  0  0  0  0
 30 28  1  0  0  0  0
 31 30  2  0  0  0  0
 31 33  1  0  0  0  0
 32 31  1  0  0  0  0
 33 34  2  0  0  0  0
 34 27  1  0  0  0  0
 34 35  1  0  0  0  0
 36 30  1  0  0  0  0
 37 39  1  0  0  0  0
 37 36  1  0  0  0  0
 38 37  1  0  0  0  0
 40 37  1  0  0  0  0
 41 33  1  0  0  0  0
 41 42  1  0  0  0  0
 42 44  1  0  0  0  0
 43 42  1  0  0  0  0
 45 42  1  0  0  0  0
M  END
$$$$
