CSD_code = TUKQIB | q = 0 | S = 0 | Stoichiometry = C25H36AuClN2 | MND = 2
 OpenBabel04212202103D

 65 68  0  0  1  0  0  0  0  0999 V2000
   10.2110    2.6234    5.4325 Au  0  0  0  0  0  0  0  0  0  0  0  0
    7.9890    2.4330    5.1475 Cl  0  0  0  0  0  0  0  0  0  0  0  0
   12.1896    2.7659    5.6787 C   0  0  1  0  0  3  0  0  0  0  0  0
   12.9139    3.5329    6.5156 N   0  0  0  0  0  0  0  0  0  0  0  0
   14.2469    3.2494    6.3715 C   0  0  0  0  0  0  0  0  0  0  0  0
   15.0180    3.7154    6.9475 H   0  0  0  0  0  0  0  0  0  0  0  0
   14.3506    2.2915    5.4190 C   0  0  0  0  0  0  0  0  0  0  0  0
   15.2067    1.7948    5.0117 H   0  0  0  0  0  0  0  0  0  0  0  0
   13.0767    2.0139    5.0059 N   0  0  0  0  0  0  0  0  0  0  0  0
   12.3080    4.5212    7.3724 C   0  0  2  0  0  0  0  0  0  0  0  0
   11.2690    4.1919    7.4704 H   0  0  0  0  0  0  0  0  0  0  0  0
   12.3006    5.9654    6.7957 C   0  0  2  0  0  0  0  0  0  0  0  0
   13.7565    6.3656    6.5022 C   0  0  0  0  0  0  0  0  0  0  0  0
   13.7827    7.2936    5.9322 H   0  0  0  0  0  0  0  0  0  0  0  0
   14.2680    5.6166    5.8994 H   0  0  0  0  0  0  0  0  0  0  0  0
   14.3783    6.5364    7.9016 C   0  0  0  0  0  0  0  0  0  0  0  0
   15.2239    5.8683    8.0678 H   0  0  0  0  0  0  0  0  0  0  0  0
   14.7355    7.5522    8.0642 H   0  0  0  0  0  0  0  0  0  0  0  0
   13.2101    6.2052    8.8391 C   0  0  2  0  0  0  0  0  0  0  0  0
   13.3489    6.5641    9.8575 H   0  0  0  0  0  0  0  0  0  0  0  0
   12.9757    4.6913    8.7512 C   0  0  0  0  0  0  0  0  0  0  0  0
   12.3236    4.3389    9.5493 H   0  0  0  0  0  0  0  0  0  0  0  0
   13.9088    4.1354    8.8298 H   0  0  0  0  0  0  0  0  0  0  0  0
   11.9955    6.7816    8.0823 C   0  0  0  0  0  0  0  0  0  0  0  0
   12.0477    8.2987    7.8942 C   0  0  0  0  0  0  0  0  0  0  0  0
   11.1628    8.6323    7.3572 H   0  0  0  0  0  0  0  0  0  0  0  0
   12.9204    8.6377    7.3489 H   0  0  0  0  0  0  0  0  0  0  0  0
   12.0512    8.7831    8.8687 H   0  0  0  0  0  0  0  0  0  0  0  0
   10.6477    6.4844    8.7404 C   0  0  0  0  0  0  0  0  0  0  0  0
    9.8395    6.7692    8.0711 H   0  0  0  0  0  0  0  0  0  0  0  0
   10.5544    7.0758    9.6493 H   0  0  0  0  0  0  0  0  0  0  0  0
   10.5094    5.4435    9.0079 H   0  0  0  0  0  0  0  0  0  0  0  0
   11.3721    6.1380    5.6112 C   0  0  0  0  0  0  0  0  0  0  0  0
   10.3619    5.8204    5.8573 H   0  0  0  0  0  0  0  0  0  0  0  0
   11.7157    5.5385    4.7699 H   0  0  0  0  0  0  0  0  0  0  0  0
   11.3452    7.1793    5.2995 H   0  0  0  0  0  0  0  0  0  0  0  0
   12.7216    1.0749    3.9990 C   0  0  0  0  0  0  0  0  0  0  0  0
   12.5945    1.5180    2.6811 C   0  0  0  0  0  0  0  0  0  0  0  0
   12.2425    0.5878    1.7127 C   0  0  0  0  0  0  0  0  0  0  0  0
   12.1281    0.9020    0.6872 H   0  0  0  0  0  0  0  0  0  0  0  0
   12.0257   -0.7348    2.0471 C   0  0  0  0  0  0  0  0  0  0  0  0
   11.7495   -1.4443    1.2816 H   0  0  0  0  0  0  0  0  0  0  0  0
   12.1484   -1.1508    3.3585 C   0  0  0  0  0  0  0  0  0  0  0  0
   11.9611   -2.1833    3.6081 H   0  0  0  0  0  0  0  0  0  0  0  0
   12.4958   -0.2543    4.3598 C   0  0  0  0  0  0  0  0  0  0  0  0
   12.7991    2.9673    2.3084 C   0  0  0  0  0  0  0  0  0  0  0  0
   13.1271    3.5243    3.1924 H   0  0  0  0  0  0  0  0  0  0  0  0
   12.5838   -0.7102    5.7967 C   0  0  0  0  0  0  0  0  0  0  0  0
   12.9201    0.1246    6.4202 H   0  0  0  0  0  0  0  0  0  0  0  0
   13.8834    3.1153    1.2387 C   0  0  0  0  0  0  0  0  0  0  0  0
   14.8159    2.6651    1.5741 H   0  0  0  0  0  0  0  0  0  0  0  0
   14.0621    4.1686    1.0344 H   0  0  0  0  0  0  0  0  0  0  0  0
   13.5855    2.6350    0.3108 H   0  0  0  0  0  0  0  0  0  0  0  0
   11.4754    3.5746    1.8379 C   0  0  0  0  0  0  0  0  0  0  0  0
   11.6023    4.6344    1.6271 H   0  0  0  0  0  0  0  0  0  0  0  0
   10.7133    3.4615    2.6077 H   0  0  0  0  0  0  0  0  0  0  0  0
   11.1236    3.0830    0.9350 H   0  0  0  0  0  0  0  0  0  0  0  0
   13.5942   -1.8483    5.9564 C   0  0  0  0  0  0  0  0  0  0  0  0
   14.5705   -1.5497    5.5792 H   0  0  0  0  0  0  0  0  0  0  0  0
   13.2742   -2.7344    5.4151 H   0  0  0  0  0  0  0  0  0  0  0  0
   13.6951   -2.1097    7.0073 H   0  0  0  0  0  0  0  0  0  0  0  0
   11.1975   -1.1317    6.2898 C   0  0  0  0  0  0  0  0  0  0  0  0
   11.2399   -1.4011    7.3427 H   0  0  0  0  0  0  0  0  0  0  0  0
   10.8304   -1.9869    5.7288 H   0  0  0  0  0  0  0  0  0  0  0  0
   10.4893   -0.3134    6.1684 H   0  0  0  0  0  0  0  0  0  0  0  0
  2  1  1  0  0  0  0
  3  1  1  1  0  0  0
  3  4  1  0  0  0  0
  4 10  1  0  0  0  0
  5  4  1  0  0  0  0
  5  6  1  0  0  0  0
  7  5  2  0  0  0  0
  8  7  1  0  0  0  0
  9  7  1  0  0  0  0
  9  3  1  0  0  0  0
 10 11  1  1  0  0  0
 10 21  1  0  0  0  0
 12 33  1  6  0  0  0
 12 10  1  0  0  0  0
 12 24  1  0  0  0  0
 13 12  1  0  0  0  0
 13 16  1  0  0  0  0
 14 13  1  0  0  0  0
 15 13  1  0  0  0  0
 16 18  1  0  0  0  0
 16 17  1  0  0  0  0
 16 19  1  0  0  0  0
 19 20  1  1  0  0  0
 21 23  1  0  0  0  0
 21 19  1  0  0  0  0
 21 22  1  0  0  0  0
 24 29  1  0  0  0  0
 24 19  1  0  0  0  0
 25 24  1  0  0  0  0
 25 28  1  0  0  0  0
 26 25  1  0  0  0  0
 27 25  1  0  0  0  0
 29 32  1  0  0  0  0
 29 31  1  0  0  0  0
 30 29  1  0  0  0  0
 33 34  1  0  0  0  0
 35 33  1  0  0  0  0
 36 33  1  0  0  0  0
 37 45  1  0  0  0  0
 37  9  1  0  0  0  0
 38 37  2  0  0  0  0
 39 41  2  0  0  0  0
 39 38  1  0  0  0  0
 40 39  1  0  0  0  0
 41 43  1  0  0  0  0
 42 41  1  0  0  0  0
 43 44  1  0  0  0  0
 43 45  2  0  0  0  0
 45 48  1  0  0  0  0
 46 38  1  0  0  0  0
 46 47  1  0  0  0  0
 48 58  1  0  0  0  0
 48 62  1  0  0  0  0
 48 49  1  0  0  0  0
 50 51  1  0  0  0  0
 50 46  1  0  0  0  0
 52 50  1  0  0  0  0
 53 50  1  0  0  0  0
 54 46  1  0  0  0  0
 54 56  1  0  0  0  0
 55 54  1  0  0  0  0
 57 54  1  0  0  0  0
 58 61  1  0  0  0  0
 59 58  1  0  0  0  0
 60 58  1  0  0  0  0
 62 63  1  0  0  0  0
 64 62  1  0  0  0  0
 65 62  1  0  0  0  0
M  END
$$$$
