CSD_code = TULHOX | q = 0 | S = 0 | Stoichiometry = C20H20Br2N4Os | MND = 6
 OpenBabel04212202103D

 47 50  0  0  0  0  0  0  0  0999 V2000
    3.9443    3.5039    4.0136 Os  0  0  0  0  0  0  0  0  0  0  0  0
    5.4065    4.5547    5.8197 Br  0  0  0  0  0  0  0  0  0  0  0  0
    2.4758    2.4459    2.2140 Br  0  0  0  0  0  0  0  0  0  0  0  0
    5.6128    2.8573    3.0336 N   0  0  0  0  0  0  0  0  0  0  0  0
    4.0039    5.2456    2.9519 N   0  0  0  0  0  0  0  0  0  0  0  0
    2.2779    4.1572    4.9908 N   0  0  0  0  0  0  0  0  0  0  0  0
    3.8888    1.7645    5.0762 N   0  0  0  0  0  0  0  0  0  0  0  0
    6.6318    2.2705    3.6829 C   0  0  0  0  0  3  0  0  0  0  0  0
    6.5336    2.1597    4.7547 H   0  0  0  0  0  0  0  0  0  0  0  0
    7.7816    1.8337    3.0570 C   0  0  0  0  0  0  0  0  0  0  0  0
    8.5623    1.3766    3.6440 H   0  0  0  0  0  0  0  0  0  0  0  0
    7.9140    1.9942    1.6858 C   0  0  0  0  0  0  0  0  0  0  0  0
    8.8002    1.6634    1.1675 H   0  0  0  0  0  0  0  0  0  0  0  0
    6.8655    2.5947    1.0052 C   0  0  0  0  0  0  0  0  0  0  0  0
    6.9040    2.7433   -0.0622 H   0  0  0  0  0  0  0  0  0  0  0  0
    5.7503    3.0067    1.7059 C   0  0  0  0  0  0  0  0  0  0  0  0
    4.9251    3.4608    1.1735 H   0  0  0  0  0  0  0  0  0  0  0  0
    5.1530    5.9140    2.7592 C   0  0  0  0  0  3  0  0  0  0  0  0
    6.0454    5.4988    3.2085 H   0  0  0  0  0  0  0  0  0  0  0  0
    5.2370    7.0930    2.0470 C   0  0  0  0  0  0  0  0  0  0  0  0
    6.1941    7.5777    1.9377 H   0  0  0  0  0  0  0  0  0  0  0  0
    4.0889    7.6350    1.4889 C   0  0  0  0  0  0  0  0  0  0  0  0
    4.1215    8.5546    0.9262 H   0  0  0  0  0  0  0  0  0  0  0  0
    2.8973    6.9519    1.6809 C   0  0  0  0  0  0  0  0  0  0  0  0
    1.9705    7.3188    1.2693 H   0  0  0  0  0  0  0  0  0  0  0  0
    2.8977    5.7793    2.4085 C   0  0  0  0  0  0  0  0  0  0  0  0
    1.9715    5.2371    2.5453 H   0  0  0  0  0  0  0  0  0  0  0  0
    2.1793    5.4142    5.4539 C   0  0  0  0  0  3  0  0  0  0  0  0
    3.0348    6.0606    5.3091 H   0  0  0  0  0  0  0  0  0  0  0  0
    1.0659    5.8980    6.1102 C   0  0  0  0  0  0  0  0  0  0  0  0
    1.0591    6.9188    6.4578 H   0  0  0  0  0  0  0  0  0  0  0  0
   -0.0215    5.0618    6.3144 C   0  0  0  0  0  0  0  0  0  0  0  0
   -0.9068    5.4101    6.8227 H   0  0  0  0  0  0  0  0  0  0  0  0
    0.0708    3.7613    5.8418 C   0  0  0  0  0  0  0  0  0  0  0  0
   -0.7410    3.0623    5.9667 H   0  0  0  0  0  0  0  0  0  0  0  0
    1.2205    3.3547    5.1960 C   0  0  0  0  0  0  0  0  0  0  0  0
    1.2867    2.3453    4.8122 H   0  0  0  0  0  0  0  0  0  0  0  0
    3.6479    1.7521    6.3975 C   0  0  0  0  0  3  0  0  0  0  0  0
    3.5064    2.7095    6.8812 H   0  0  0  0  0  0  0  0  0  0  0  0
    3.5952    0.5967    7.1505 C   0  0  0  0  0  0  0  0  0  0  0  0
    3.4004    0.6638    8.2091 H   0  0  0  0  0  0  0  0  0  0  0  0
    3.7973   -0.6285    6.5331 C   0  0  0  0  0  0  0  0  0  0  0  0
    3.7611   -1.5493    7.0936 H   0  0  0  0  0  0  0  0  0  0  0  0
    4.0474   -0.6268    5.1690 C   0  0  0  0  0  0  0  0  0  0  0  0
    4.2092   -1.5464    4.6294 H   0  0  0  0  0  0  0  0  0  0  0  0
    4.0851    0.5729    4.4882 C   0  0  0  0  0  0  0  0  0  0  0  0
    4.2638    0.5743    3.4210 H   0  0  0  0  0  0  0  0  0  0  0  0
  1  6  1  0  0  0  0
  1  7  1  0  0  0  0
  1  2  1  0  0  0  0
  3  1  1  0  0  0  0
  4  8  1  0  0  0  0
  4  1  1  0  0  0  0
  5  1  1  0  0  0  0
  6 36  1  0  0  0  0
  6 28  1  0  0  0  0
  7 38  1  0  0  0  0
  8  9  1  0  0  0  0
 10 11  1  0  0  0  0
 10  8  1  0  0  0  0
 12 10  2  0  0  0  0
 13 12  1  0  0  0  0
 14 12  1  0  0  0  0
 14 16  2  0  0  0  0
 15 14  1  0  0  0  0
 16  4  1  0  0  0  0
 17 16  1  0  0  0  0
 18  5  1  0  0  0  0
 18 19  1  0  0  0  0
 20 18  1  0  0  0  0
 21 20  1  0  0  0  0
 22 24  1  0  0  0  0
 22 20  2  0  0  0  0
 23 22  1  0  0  0  0
 24 26  2  0  0  0  0
 25 24  1  0  0  0  0
 26 27  1  0  0  0  0
 26  5  1  0  0  0  0
 28 30  1  0  0  0  0
 29 28  1  0  0  0  0
 30 32  2  0  0  0  0
 30 31  1  0  0  0  0
 32 33  1  0  0  0  0
 34 35  1  0  0  0  0
 34 32  1  0  0  0  0
 36 34  2  0  0  0  0
 37 36  1  0  0  0  0
 38 39  1  0  0  0  0
 38 40  1  0  0  0  0
 40 41  1  0  0  0  0
 42 43  1  0  0  0  0
 42 40  2  0  0  0  0
 44 42  1  0  0  0  0
 45 44  1  0  0  0  0
 46  7  1  0  0  0  0
 46 44  2  0  0  0  0
 47 46  1  0  0  0  0
M  END
$$$$
