CSD_code = TULQOH | q = 0 | S = 0 | Stoichiometry = C26H27Cl2FeN3O | MND = 5
 OpenBabel04212202103D

 60 65  0  0  1  0  0  0  0  0999 V2000
    3.9230    3.8382    6.4414 Fe  0  0  0  0  0  0  0  0  0  0  0  0
    1.5018    6.3804    8.4531 O   0  0  0  0  0  0  0  0  0  0  0  0
    5.8356    4.5175    6.1589 Cl  0  0  0  0  0  0  0  0  0  0  0  0
    3.3324    5.4145    7.5827 N   0  0  0  0  0  0  0  0  0  0  0  0
    3.8162    2.5382    8.0841 Cl  0  0  0  0  0  0  0  0  0  0  0  0
    2.1773    3.7451    6.1263 N   0  0  0  0  0  0  0  0  0  0  0  0
    3.9506    2.4754    5.0395 N   0  0  0  0  0  0  0  0  0  0  0  0
    5.2938    0.1090    6.0673 C   0  0  0  0  0  0  0  0  0  0  0  0
    4.3601    0.5586    6.4148 H   0  0  0  0  0  0  0  0  0  0  0  0
    3.7500    6.3658    8.4804 C   0  0  0  0  0  0  0  0  0  0  0  0
    5.7752    0.8567    4.8486 C   0  0  0  0  0  0  0  0  0  0  0  0
    2.0081    5.4575    7.6155 C   0  0  2  0  0  3  0  0  0  0  0  0
    5.1093    1.9976    4.3892 C   0  0  0  0  0  0  0  0  0  0  0  0
    2.7657    2.0582    4.6776 C   0  0  0  0  0  0  0  0  0  0  0  0
    5.5878    2.7211    3.2863 C   0  0  0  0  0  0  0  0  0  0  0  0
   -0.0795    4.4354    6.6160 C   0  0  0  0  0  0  0  0  0  0  0  0
   -0.7378    5.0959    7.1563 H   0  0  0  0  0  0  0  0  0  0  0  0
    1.6912    2.7797    5.2918 C   0  0  0  0  0  0  0  0  0  0  0  0
    5.0164    6.7713    8.8783 C   0  0  0  0  0  0  0  0  0  0  0  0
    5.8934    6.3072    8.4584 H   0  0  0  0  0  0  0  0  0  0  0  0
    2.5954    6.9665    9.0199 C   0  0  0  0  0  0  0  0  0  0  0  0
    1.2934    4.5534    6.7842 C   0  0  0  0  0  0  0  0  0  0  0  0
    2.5177    0.9616    3.6912 C   0  0  0  0  0  0  0  0  0  0  0  0
    3.4491    0.6516    3.2240 H   0  0  0  0  0  0  0  0  0  0  0  0
    1.8195    1.2901    2.9232 H   0  0  0  0  0  0  0  0  0  0  0  0
    2.0791    0.1058    4.2040 H   0  0  0  0  0  0  0  0  0  0  0  0
    7.3810    1.1259    3.0710 C   0  0  0  0  0  0  0  0  0  0  0  0
    8.2644    0.7827    2.5532 H   0  0  0  0  0  0  0  0  0  0  0  0
    0.3232    2.6182    5.1018 C   0  0  0  0  0  0  0  0  0  0  0  0
   -0.0383    1.8411    4.4479 H   0  0  0  0  0  0  0  0  0  0  0  0
    4.8821    3.9665    2.7985 C   0  0  0  0  0  0  0  0  0  0  0  0
    4.1221    4.2513    3.5407 H   0  0  0  0  0  0  0  0  0  0  0  0
    6.9151    0.4402    4.1751 C   0  0  0  0  0  0  0  0  0  0  0  0
    7.4435   -0.4354    4.5191 H   0  0  0  0  0  0  0  0  0  0  0  0
   -0.5658    3.4538    5.7642 C   0  0  0  0  0  0  0  0  0  0  0  0
   -1.6283    3.3355    5.6243 H   0  0  0  0  0  0  0  0  0  0  0  0
    5.0308   -1.3657    5.7561 C   0  0  0  0  0  0  0  0  0  0  0  0
    4.3369   -1.4676    4.9237 H   0  0  0  0  0  0  0  0  0  0  0  0
    4.5989   -1.8529    6.6270 H   0  0  0  0  0  0  0  0  0  0  0  0
    5.9515   -1.8836    5.4986 H   0  0  0  0  0  0  0  0  0  0  0  0
    3.9342    8.3690   10.3486 C   0  0  0  0  0  0  0  0  0  0  0  0
    4.0369    9.1534   11.0828 H   0  0  0  0  0  0  0  0  0  0  0  0
    6.7203    2.2585    2.6343 C   0  0  0  0  0  0  0  0  0  0  0  0
    7.0945    2.7916    1.7742 H   0  0  0  0  0  0  0  0  0  0  0  0
    2.6650    7.9762    9.9598 C   0  0  0  0  0  0  0  0  0  0  0  0
    1.7747    8.4270   10.3664 H   0  0  0  0  0  0  0  0  0  0  0  0
    6.3184    0.2576    7.1937 C   0  0  0  0  0  0  0  0  0  0  0  0
    5.9434   -0.2121    8.0992 H   0  0  0  0  0  0  0  0  0  0  0  0
    6.4854    1.3115    7.4023 H   0  0  0  0  0  0  0  0  0  0  0  0
    7.2675   -0.2002    6.9244 H   0  0  0  0  0  0  0  0  0  0  0  0
    5.8529    5.1410    2.6703 C   0  0  0  0  0  0  0  0  0  0  0  0
    6.3652    5.2997    3.6155 H   0  0  0  0  0  0  0  0  0  0  0  0
    5.3067    6.0463    2.4128 H   0  0  0  0  0  0  0  0  0  0  0  0
    6.5940    4.9596    1.8966 H   0  0  0  0  0  0  0  0  0  0  0  0
    4.1803    3.6940    1.4655 C   0  0  0  0  0  0  0  0  0  0  0  0
    3.6533    4.5843    1.1288 H   0  0  0  0  0  0  0  0  0  0  0  0
    3.4612    2.8839    1.5649 H   0  0  0  0  0  0  0  0  0  0  0  0
    4.9056    3.4154    0.7045 H   0  0  0  0  0  0  0  0  0  0  0  0
    5.0824    7.7796    9.8194 C   0  0  0  0  0  0  0  0  0  0  0  0
    6.0480    8.1231   10.1577 H   0  0  0  0  0  0  0  0  0  0  0  0
  1  4  1  0  0  0  0
  1  5  1  0  0  0  0
  2 21  1  0  0  0  0
  3  1  1  0  0  0  0
  4 12  1  0  0  0  0
  4 10  1  0  0  0  0
  6  1  1  0  0  0  0
  6 22  1  0  0  0  0
  7  1  1  0  0  0  0
  8  9  1  0  0  0  0
  8 47  1  0  0  0  0
 10 19  2  0  0  0  0
 10 21  1  0  0  0  0
 11  8  1  0  0  0  0
 12 22  1  6  0  0  0
 12  2  1  0  0  0  0
 13 11  1  0  0  0  0
 13  7  1  0  0  0  0
 14  7  1  0  0  0  0
 14 18  2  0  0  0  0
 15 13  2  0  0  0  0
 16 22  2  0  0  0  0
 16 17  1  0  0  0  0
 18  6  1  0  0  0  0
 19 59  1  0  0  0  0
 20 19  1  0  0  0  0
 21 45  2  0  0  0  0
 23 26  1  0  0  0  0
 23 14  1  0  0  0  0
 24 23  1  0  0  0  0
 25 23  1  0  0  0  0
 27 33  1  0  0  0  0
 28 27  1  0  0  0  0
 29 18  1  0  0  0  0
 29 35  2  0  0  0  0
 30 29  1  0  0  0  0
 31 15  1  0  0  0  0
 31 32  1  0  0  0  0
 33 34  1  0  0  0  0
 33 11  2  0  0  0  0
 35 16  1  0  0  0  0
 36 35  1  0  0  0  0
 37  8  1  0  0  0  0
 37 39  1  0  0  0  0
 38 37  1  0  0  0  0
 40 37  1  0  0  0  0
 41 42  1  0  0  0  0
 43 27  2  0  0  0  0
 43 15  1  0  0  0  0
 44 43  1  0  0  0  0
 45 41  1  0  0  0  0
 45 46  1  0  0  0  0
 47 49  1  0  0  0  0
 47 48  1  0  0  0  0
 50 47  1  0  0  0  0
 51 31  1  0  0  0  0
 51 52  1  0  0  0  0
 53 51  1  0  0  0  0
 54 51  1  0  0  0  0
 55 57  1  0  0  0  0
 55 31  1  0  0  0  0
 56 55  1  0  0  0  0
 58 55  1  0  0  0  0
 59 60  1  0  0  0  0
 59 41  2  0  0  0  0
M  END
$$$$
