CSD_code = TULWIH | q = 0 | S = 0 | Stoichiometry = C22H29IIrN5 | MND = 6
 OpenBabel04212202103D

 58 62  0  0  1  0  0  0  0  0999 V2000
    5.8539    9.6670   15.2079 Ir  0  0  0  0  0  0  0  0  0  0  0  0
    6.1882    7.6173   15.3461 C   0  0  2  0  0  3  0  0  0  0  0  0
    6.2005   11.6730   15.6426 C   0  0  1  0  0  3  0  0  0  0  0  0
    7.4314   13.1927   16.7495 C   0  0  0  0  0  0  0  0  0  0  0  0
    8.1736   13.5639   17.4254 H   0  0  0  0  0  0  0  0  0  0  0  0
    6.5759   13.8549   15.9353 C   0  0  0  0  0  0  0  0  0  0  0  0
    6.4370   14.9051   15.7784 H   0  0  0  0  0  0  0  0  0  0  0  0
    7.8204   10.7286   17.1014 C   0  0  0  0  0  0  0  0  0  0  0  0
    7.2676    9.5626   16.5810 C   0  0  0  0  0  0  0  0  0  0  0  0
    7.8166    8.3306   16.9222 C   0  0  0  0  0  0  0  0  0  0  0  0
    8.8777    8.2491   17.8097 C   0  0  0  0  0  0  0  0  0  0  0  0
    9.3162    7.3004   18.0822 H   0  0  0  0  0  0  0  0  0  0  0  0
    9.3868    9.4279   18.3403 C   0  0  0  0  0  0  0  0  0  0  0  0
   10.2141    9.3748   19.0322 H   0  0  0  0  0  0  0  0  0  0  0  0
    8.8811   10.6739   17.9913 C   0  0  0  0  0  0  0  0  0  0  0  0
    9.3218   11.5703   18.4023 H   0  0  0  0  0  0  0  0  0  0  0  0
    7.4171    5.9468   16.2115 C   0  0  0  0  0  0  0  0  0  0  0  0
    8.1615    5.4781   16.8212 H   0  0  0  0  0  0  0  0  0  0  0  0
    6.5537    5.4144   15.3147 C   0  0  0  0  0  0  0  0  0  0  0  0
    6.4084    4.3992   15.0065 H   0  0  0  0  0  0  0  0  0  0  0  0
    3.9408    9.8409   12.7770 C   0  0  0  0  0  2  0  0  0  0  0  0
    3.2363    9.9227   11.5300 C   0  0  0  0  0  0  0  0  0  0  0  0
    3.9571    9.9304   10.7118 H   0  0  0  0  0  0  0  0  0  0  0  0
    2.6421   10.8360   11.4920 H   0  0  0  0  0  0  0  0  0  0  0  0
    2.5725    9.0653   11.4150 H   0  0  0  0  0  0  0  0  0  0  0  0
    4.8261    6.2865   13.7635 C   0  0  0  0  0  0  0  0  0  0  0  0
    4.0888    7.0872   13.8677 H   0  0  0  0  0  0  0  0  0  0  0  0
    4.3283    5.3238   13.9060 H   0  0  0  0  0  0  0  0  0  0  0  0
    5.4825    6.3552   12.3812 C   0  0  0  0  0  0  0  0  0  0  0  0
    6.2640    5.5948   12.3156 H   0  0  0  0  0  0  0  0  0  0  0  0
    5.9628    7.3294   12.2779 H   0  0  0  0  0  0  0  0  0  0  0  0
    4.4845    6.1570   11.2431 C   0  0  0  0  0  0  0  0  0  0  0  0
    3.6358    6.8288   11.3870 H   0  0  0  0  0  0  0  0  0  0  0  0
    4.9723    6.4324   10.3062 H   0  0  0  0  0  0  0  0  0  0  0  0
    3.9789    4.7231   11.1303 C   0  0  0  0  0  0  0  0  0  0  0  0
    4.8132    4.0343   11.0188 H   0  0  0  0  0  0  0  0  0  0  0  0
    3.3332    4.6181   10.2615 H   0  0  0  0  0  0  0  0  0  0  0  0
    3.4077    4.4349   12.0093 H   0  0  0  0  0  0  0  0  0  0  0  0
    4.8628   13.2273   14.2553 C   0  0  0  0  0  0  0  0  0  0  0  0
    4.3607   14.1579   14.5326 H   0  0  0  0  0  0  0  0  0  0  0  0
    4.1262   12.4199   14.2263 H   0  0  0  0  0  0  0  0  0  0  0  0
    5.5437   13.3660   12.8900 C   0  0  0  0  0  0  0  0  0  0  0  0
    6.0388   12.4221   12.6567 H   0  0  0  0  0  0  0  0  0  0  0  0
    6.3155   14.1368   12.9495 H   0  0  0  0  0  0  0  0  0  0  0  0
    4.5644   13.7134   11.7718 C   0  0  0  0  0  0  0  0  0  0  0  0
    5.0789   13.5939   10.8164 H   0  0  0  0  0  0  0  0  0  0  0  0
    3.7307   13.0084   11.7912 H   0  0  0  0  0  0  0  0  0  0  0  0
    4.0242   15.1361   11.8651 C   0  0  0  0  0  0  0  0  0  0  0  0
    3.4231   15.2729   12.7609 H   0  0  0  0  0  0  0  0  0  0  0  0
    3.3982   15.3588   11.0040 H   0  0  0  0  0  0  0  0  0  0  0  0
    4.8425   15.8523   11.8846 H   0  0  0  0  0  0  0  0  0  0  0  0
    7.8007    9.8011   13.2627 I   0  0  0  0  0  0  0  0  0  0  0  0
    7.1851    7.2919   16.2234 N   0  0  0  0  0  0  0  0  0  0  0  0
    5.8076    6.4453   14.8032 N   0  0  0  0  0  0  0  0  0  0  0  0
    7.1940   11.8615   16.5630 N   0  0  0  0  0  0  0  0  0  0  0  0
    5.8290   12.9137   15.2742 N   0  0  0  0  0  0  0  0  0  0  0  0
    4.5195    9.7729   13.7745 N   0  0  0  0  0  2  0  0  0  0  0  0
    4.7701    9.5935   16.2945 H   0  0  0  0  0  0  0  0  0  0  0  0
  1  2  1  0  0  0  0
  1  3  1  0  0  0  0
  1 58  1  0  0  0  0
  1  9  1  0  0  0  0
  2 54  1  6  0  0  0
  2 53  1  0  0  0  0
  3 56  1  6  0  0  0
  3 55  1  0  0  0  0
  4  5  1  0  0  0  0
  6  4  2  0  0  0  0
  7  6  1  0  0  0  0
  8 15  1  0  0  0  0
  9 10  1  0  0  0  0
  9  8  2  0  0  0  0
 10 11  2  0  0  0  0
 11 12  1  0  0  0  0
 11 13  1  0  0  0  0
 13 14  1  0  0  0  0
 15 13  2  0  0  0  0
 15 16  1  0  0  0  0
 17 53  1  0  0  0  0
 17 18  1  0  0  0  0
 19 17  2  0  0  0  0
 20 19  1  0  0  0  0
 21 57  1  0  0  0  0
 22 21  1  0  0  0  0
 23 22  1  0  0  0  0
 24 22  1  0  0  0  0
 25 22  1  0  0  0  0
 26 27  1  0  0  0  0
 26 28  1  0  0  0  0
 26 54  1  0  0  0  0
 29 26  1  0  0  0  0
 30 29  1  0  0  0  0
 31 29  1  0  0  0  0
 32 33  1  0  0  0  0
 32 29  1  0  0  0  0
 34 32  1  0  0  0  0
 35 32  1  0  0  0  0
 35 38  1  0  0  0  0
 36 35  1  0  0  0  0
 37 35  1  0  0  0  0
 39 40  1  0  0  0  0
 39 56  1  0  0  0  0
 41 39  1  0  0  0  0
 42 44  1  0  0  0  0
 42 39  1  0  0  0  0
 43 42  1  0  0  0  0
 45 47  1  0  0  0  0
 45 48  1  0  0  0  0
 45 42  1  0  0  0  0
 46 45  1  0  0  0  0
 48 51  1  0  0  0  0
 48 49  1  0  0  0  0
 50 48  1  0  0  0  0
 52  1  1  0  0  0  0
 53 10  1  0  0  0  0
 54 19  1  0  0  0  0
 55  4  1  0  0  0  0
 55  8  1  0  0  0  0
 56  6  1  0  0  0  0
 57  1  1  0  0  0  0
M  END
$$$$
