CSD_code = TUMBUA | q = 0 | S = 0 | Stoichiometry = C32H25ClN3O3PRu | MND = 6
 OpenBabel04212202103D

 66 73  0  0  1  0  0  0  0  0999 V2000
    1.9224    3.6841    4.3422 Ru  0  0  0  0  0  0  0  0  0  0  0  0
    1.9229    1.7008    3.2394 Cl  0  0  0  0  0  0  0  0  0  0  0  0
    4.0517    4.1587    3.6060 P   0  0  0  0  0  4  0  0  0  0  0  0
   -0.0028    3.2283    5.0724 O   0  0  0  0  0  0  0  0  0  0  0  0
    1.2883    4.7059    2.5630 O   0  0  0  0  0  0  0  0  0  0  0  0
    0.7742    6.7364    1.7706 O   0  0  0  0  0  0  0  0  0  0  0  0
    2.3761    2.8706    5.9925 N   0  0  0  0  0  0  0  0  0  0  0  0
    1.3951    2.2783    6.6755 C   0  0  0  0  0  0  0  0  0  0  0  0
    1.5419    1.5330    7.8624 C   0  0  0  0  0  0  0  0  0  0  0  0
    2.5334    1.3733    8.2648 H   0  0  0  0  0  0  0  0  0  0  0  0
    0.4337    1.0044    8.4650 C   0  0  0  0  0  0  0  0  0  0  0  0
    0.5342    0.4155    9.3638 H   0  0  0  0  0  0  0  0  0  0  0  0
   -0.8492    1.2166    7.9221 C   0  0  0  0  0  0  0  0  0  0  0  0
   -1.7021    0.7840    8.4241 H   0  0  0  0  0  0  0  0  0  0  0  0
   -1.0368    1.9502    6.7845 C   0  0  0  0  0  0  0  0  0  0  0  0
   -2.0189    2.1115    6.3682 H   0  0  0  0  0  0  0  0  0  0  0  0
    0.0811    2.5077    6.1089 C   0  0  0  0  0  0  0  0  0  0  0  0
    1.0614    5.9447    2.6503 C   0  0  0  0  0  0  0  0  0  0  0  0
    1.2053    6.4402    4.0804 C   0  0  1  0  0  3  0  0  0  0  0  0
    1.6132    5.6122    5.0185 N   0  0  0  0  0  0  0  0  0  0  0  0
    1.6389    6.3234    6.1890 C   0  0  0  0  0  0  0  0  0  0  0  0
    1.2327    7.6496    5.9077 C   0  0  0  0  0  0  0  0  0  0  0  0
    1.1744    8.6154    6.9014 C   0  0  0  0  0  0  0  0  0  0  0  0
    0.8649    9.6254    6.6831 H   0  0  0  0  0  0  0  0  0  0  0  0
    1.5272    8.2257    8.1770 C   0  0  0  0  0  0  0  0  0  0  0  0
    1.4950    8.9481    8.9783 H   0  0  0  0  0  0  0  0  0  0  0  0
    1.9221    6.9156    8.4626 C   0  0  0  0  0  0  0  0  0  0  0  0
    2.1821    6.6593    9.4783 H   0  0  0  0  0  0  0  0  0  0  0  0
    1.9849    5.9485    7.4828 C   0  0  0  0  0  0  0  0  0  0  0  0
    2.2827    4.9339    7.7000 H   0  0  0  0  0  0  0  0  0  0  0  0
    0.9671    7.6774    4.5638 N   0  0  0  0  0  0  0  0  0  0  0  0
    5.3838    3.2903    4.4871 C   0  0  0  0  0  0  0  0  0  0  0  0
    5.1966    1.9211    4.6719 C   0  0  0  0  0  0  0  0  0  0  0  0
    4.2800    1.4627    4.3160 H   0  0  0  0  0  0  0  0  0  0  0  0
    6.1761    1.1657    5.2902 C   0  0  0  0  0  0  0  0  0  0  0  0
    6.0294    0.1050    5.4300 H   0  0  0  0  0  0  0  0  0  0  0  0
    7.3453    1.7694    5.7269 C   0  0  0  0  0  0  0  0  0  0  0  0
    8.1103    1.1805    6.2110 H   0  0  0  0  0  0  0  0  0  0  0  0
    7.5361    3.1282    5.5381 C   0  0  0  0  0  0  0  0  0  0  0  0
    8.4503    3.5972    5.8720 H   0  0  0  0  0  0  0  0  0  0  0  0
    6.5619    3.8910    4.9169 C   0  0  0  0  0  0  0  0  0  0  0  0
    6.7185    4.9505    4.7686 H   0  0  0  0  0  0  0  0  0  0  0  0
    4.5260    3.8730    1.8735 C   0  0  0  0  0  0  0  0  0  0  0  0
    3.5819    3.5123    0.9198 C   0  0  0  0  0  0  0  0  0  0  0  0
    2.5473    3.3863    1.2057 H   0  0  0  0  0  0  0  0  0  0  0  0
    3.9733    3.3269   -0.3956 C   0  0  0  0  0  0  0  0  0  0  0  0
    3.2390    3.0482   -1.1361 H   0  0  0  0  0  0  0  0  0  0  0  0
    5.2975    3.4981   -0.7606 C   0  0  0  0  0  0  0  0  0  0  0  0
    5.5996    3.3518   -1.7873 H   0  0  0  0  0  0  0  0  0  0  0  0
    6.2400    3.8585    0.1909 C   0  0  0  0  0  0  0  0  0  0  0  0
    7.2735    3.9932   -0.0938 H   0  0  0  0  0  0  0  0  0  0  0  0
    5.8598    4.0456    1.5055 C   0  0  0  0  0  0  0  0  0  0  0  0
    6.5929    4.3257    2.2496 H   0  0  0  0  0  0  0  0  0  0  0  0
    4.3727    5.9305    3.8375 C   0  0  0  0  0  0  0  0  0  0  0  0
    4.5533    6.4204    5.1304 C   0  0  0  0  0  0  0  0  0  0  0  0
    4.6277    5.7243    5.9561 H   0  0  0  0  0  0  0  0  0  0  0  0
    4.6204    7.7819    5.3555 C   0  0  0  0  0  0  0  0  0  0  0  0
    4.7588    8.1555    6.3598 H   0  0  0  0  0  0  0  0  0  0  0  0
    4.4885    8.6658    4.2952 C   0  0  0  0  0  0  0  0  0  0  0  0
    4.5304    9.7302    4.4741 H   0  0  0  0  0  0  0  0  0  0  0  0
    4.2955    8.1852    3.0104 C   0  0  0  0  0  0  0  0  0  0  0  0
    4.1810    8.8725    2.1857 H   0  0  0  0  0  0  0  0  0  0  0  0
    4.2337    6.8220    2.7783 C   0  0  0  0  0  0  0  0  0  0  0  0
    4.0659    6.4464    1.7785 H   0  0  0  0  0  0  0  0  0  0  0  0
    3.3048    2.7489    6.4104 H   0  0  0  0  0  0  0  0  0  0  0  0
    0.6497    8.4510    4.0018 H   0  0  0  0  0  0  0  0  0  0  0  0
  1 20  1  0  0  0  0
  1  4  1  0  0  0  0
  1  7  1  0  0  0  0
  2  1  1  0  0  0  0
  3 54  1  0  0  0  0
  3  1  1  0  0  0  0
  3 32  1  0  0  0  0
  4 17  1  0  0  0  0
  5 18  1  0  0  0  0
  5  1  1  0  0  0  0
  6 18  2  0  0  0  0
  7 65  1  0  0  0  0
  7  8  1  0  0  0  0
  8  9  1  0  0  0  0
  9 10  1  0  0  0  0
  9 11  2  0  0  0  0
 11 12  1  0  0  0  0
 13 14  1  0  0  0  0
 13 11  1  0  0  0  0
 15 13  2  0  0  0  0
 16 15  1  0  0  0  0
 17  8  2  0  0  0  0
 17 15  1  0  0  0  0
 19 18  1  6  0  0  0
 19 31  1  0  0  0  0
 19 20  1  0  0  0  0
 20 21  1  0  0  0  0
 21 29  1  0  0  0  0
 22 21  2  0  0  0  0
 22 23  1  0  0  0  0
 23 25  2  0  0  0  0
 24 23  1  0  0  0  0
 25 27  1  0  0  0  0
 25 26  1  0  0  0  0
 27 28  1  0  0  0  0
 29 30  1  0  0  0  0
 29 27  2  0  0  0  0
 31 22  1  0  0  0  0
 32 33  2  0  0  0  0
 32 41  1  0  0  0  0
 33 35  1  0  0  0  0
 34 33  1  0  0  0  0
 35 36  1  0  0  0  0
 35 37  2  0  0  0  0
 37 38  1  0  0  0  0
 39 37  1  0  0  0  0
 39 40  1  0  0  0  0
 41 39  2  0  0  0  0
 42 41  1  0  0  0  0
 43  3  1  0  0  0  0
 44 45  1  0  0  0  0
 44 43  2  0  0  0  0
 46 44  1  0  0  0  0
 47 46  1  0  0  0  0
 48 46  2  0  0  0  0
 48 50  1  0  0  0  0
 49 48  1  0  0  0  0
 50 52  2  0  0  0  0
 51 50  1  0  0  0  0
 52 43  1  0  0  0  0
 52 53  1  0  0  0  0
 54 55  1  0  0  0  0
 55 57  2  0  0  0  0
 55 56  1  0  0  0  0
 57 58  1  0  0  0  0
 59 60  1  0  0  0  0
 59 57  1  0  0  0  0
 61 59  2  0  0  0  0
 62 61  1  0  0  0  0
 63 61  1  0  0  0  0
 63 54  2  0  0  0  0
 64 63  1  0  0  0  0
 66 31  1  0  0  0  0
M  END
$$$$
