CSD_code = TUMGUE | q = 0 | S = 0 | Stoichiometry = C7H13ClO3PtS | MND = 4
 OpenBabel04212202103D

 26 26  0  0  1  0  0  0  0  0999 V2000
    3.4363    4.0061    3.8172 C   0  0  2  0  0  3  0  0  0  0  0  0
    2.5021    4.2049    2.7950 C   0  0  0  0  0  0  0  0  0  0  0  0
    2.8811    4.2730    1.7875 H   0  0  0  0  0  0  0  0  0  0  0  0
    1.1252    4.3227    2.9651 C   0  0  0  0  0  0  0  0  0  0  0  0
    4.8889    3.9026    3.4172 C   0  0  0  0  0  0  0  0  0  0  0  0
    5.4966    3.7520    4.3050 H   0  0  0  0  0  0  0  0  0  0  0  0
    5.2009    4.8133    2.9115 H   0  0  0  0  0  0  0  0  0  0  0  0
    5.0271    3.0674    2.7345 H   0  0  0  0  0  0  0  0  0  0  0  0
    0.2864    4.5375    1.7272 C   0  0  0  0  0  0  0  0  0  0  0  0
   -0.7629    4.5790    2.0052 H   0  0  0  0  0  0  0  0  0  0  0  0
    0.4455    3.7249    1.0226 H   0  0  0  0  0  0  0  0  0  0  0  0
    0.5703    5.4701    1.2452 H   0  0  0  0  0  0  0  0  0  0  0  0
    1.6577    4.9858    9.0885 C   0  0  0  0  0  0  0  0  0  0  0  0
    2.0826    5.9258    8.7533 H   0  0  0  0  0  0  0  0  0  0  0  0
    2.0304    4.7414   10.0763 H   0  0  0  0  0  0  0  0  0  0  0  0
    0.5750    5.0261    9.0607 H   0  0  0  0  0  0  0  0  0  0  0  0
    1.4310    2.2564    8.7515 C   0  0  0  0  0  0  0  0  0  0  0  0
    1.7207    1.3676    8.2011 H   0  0  0  0  0  0  0  0  0  0  0  0
    0.3560    2.3918    8.7190 H   0  0  0  0  0  0  0  0  0  0  0  0
    1.8019    2.2006    9.7683 H   0  0  0  0  0  0  0  0  0  0  0  0
    3.1925    3.9023    5.0497 O   0  0  0  0  0  0  0  0  0  0  0  0
    0.4762    4.2717    4.0553 O   0  0  0  0  0  0  0  0  0  0  0  0
    3.6273    3.5552    8.0569 O   0  0  0  0  0  1  0  0  0  0  0  0
    2.1902    3.6898    7.9291 S   0  0  0  0  0  0  0  0  0  0  0  0
   -0.6694    4.0788    6.8764 Cl  0  0  0  0  0  0  0  0  0  0  0  0
    1.3352    3.9959    5.8752 Pt  0  0  2  0  0  0  0  0  0  0  0  0
  1  5  1  6  0  0  0
  1 21  1  0  0  0  0
  2  4  2  0  0  0  0
  2  1  1  0  0  0  0
  3  2  1  0  0  0  0
  4 22  1  0  0  0  0
  5  6  1  0  0  0  0
  7  5  1  0  0  0  0
  8  5  1  0  0  0  0
  9 10  1  0  0  0  0
  9  4  1  0  0  0  0
 11  9  1  0  0  0  0
 12  9  1  0  0  0  0
 13 15  1  0  0  0  0
 14 13  1  0  0  0  0
 16 13  1  0  0  0  0
 17 20  1  0  0  0  0
 18 17  1  0  0  0  0
 19 17  1  0  0  0  0
 21 26  1  0  0  0  0
 22 26  1  0  0  0  0
 24 23  1  0  0  0  0
 24 17  1  0  0  0  0
 24 13  1  0  0  0  0
 26 25  1  6  0  0  0
 26 24  1  0  0  0  0
M  END
$$$$
