CSD_code = TUMHAL | q = 0 | S = 0 | Stoichiometry = C7H13ClO2PtS | MND = 4
 OpenBabel04212202103D

 25 25  0  0  1  0  0  0  0  0999 V2000
    0.7769    2.0978    7.9158 C   0  0  1  0  0  3  0  0  0  0  0  0
    1.6907    3.0849    7.5511 C   0  0  0  0  0  0  0  0  0  0  0  0
    1.4568    3.6722    6.6769 H   0  0  0  0  0  0  0  0  0  0  0  0
    2.8825    3.3820    8.2161 C   0  0  0  0  0  0  0  0  0  0  0  0
   -0.4508    1.9459    7.0434 C   0  0  0  0  0  0  0  0  0  0  0  0
   -0.1552    1.7154    6.0225 H   0  0  0  0  0  0  0  0  0  0  0  0
   -1.0144    2.8759    7.0338 H   0  0  0  0  0  0  0  0  0  0  0  0
   -1.0810    1.1472    7.4256 H   0  0  0  0  0  0  0  0  0  0  0  0
    3.7311    4.4946    7.6429 C   0  0  0  0  0  0  0  0  0  0  0  0
    3.1738    5.4287    7.6568 H   0  0  0  0  0  0  0  0  0  0  0  0
    3.9974    4.2686    6.6130 H   0  0  0  0  0  0  0  0  0  0  0  0
    4.6339    4.6031    8.2377 H   0  0  0  0  0  0  0  0  0  0  0  0
    0.3490   -1.2485   10.3254 C   0  0  0  0  0  0  0  0  0  0  0  0
    0.9163   -1.5071    9.4371 H   0  0  0  0  0  0  0  0  0  0  0  0
   -0.4728   -0.5935   10.0579 H   0  0  0  0  0  0  0  0  0  0  0  0
   -0.0274   -2.1411   10.8173 H   0  0  0  0  0  0  0  0  0  0  0  0
    2.7208   -1.5815   11.6883 C   0  0  0  0  0  0  0  0  0  0  0  0
    2.3109   -2.4481   12.1997 H   0  0  0  0  0  0  0  0  0  0  0  0
    3.5024   -1.1166   12.2829 H   0  0  0  0  0  0  0  0  0  0  0  0
    3.1135   -1.8555   10.7137 H   0  0  0  0  0  0  0  0  0  0  0  0
    0.8614    1.3064    8.8978 O   0  0  0  0  0  0  0  0  0  0  0  0
    3.3421    2.8251    9.2517 O   0  0  0  0  0  0  0  0  0  0  0  0
    1.4001   -0.3450   11.5075 S   0  0  0  0  0  3  0  0  0  0  0  0
    4.0981    1.3714   11.7451 Cl  0  0  0  0  0  0  0  0  0  0  0  0
    2.4102    1.3260   10.2676 Pt  0  0  1  0  0  0  0  0  0  0  0  0
  1  5  1  6  0  0  0
  1 21  1  0  0  0  0
  2  1  1  0  0  0  0
  2  4  2  0  0  0  0
  3  2  1  0  0  0  0
  4 22  1  0  0  0  0
  5  8  1  0  0  0  0
  6  5  1  0  0  0  0
  7  5  1  0  0  0  0
  9 10  1  0  0  0  0
  9  4  1  0  0  0  0
  9 12  1  0  0  0  0
 11  9  1  0  0  0  0
 13 16  1  0  0  0  0
 13 23  1  0  0  0  0
 14 13  1  0  0  0  0
 15 13  1  0  0  0  0
 17 18  1  0  0  0  0
 17 19  1  0  0  0  0
 20 17  1  0  0  0  0
 21 25  1  0  0  0  0
 22 25  1  0  0  0  0
 23 17  1  0  0  0  0
 25 23  1  0  0  0  0
 25 24  1  6  0  0  0
M  END
$$$$
