CSD_code = TUMHEP | q = 0 | S = 0 | Stoichiometry = C23H22ClO2PPt | MND = 4
 OpenBabel04212202103D

 50 53  0  0  1  0  0  0  0  0999 V2000
    4.1216    3.4854    1.5971 Pt  0  0  1  0  0  0  0  0  0  0  0  0
    4.1222    2.6646    3.7060 Cl  0  0  0  0  0  0  0  0  0  0  0  0
    2.4072    2.1027    1.1204 P   0  0  0  0  0  4  0  0  0  0  0  0
    5.6970    4.7015    2.0914 O   0  0  0  0  0  0  0  0  0  0  0  0
    5.9354    5.7355   -0.0397 C   0  0  0  0  0  0  0  0  0  0  0  0
    6.5220    6.4731   -0.5656 H   0  0  0  0  0  0  0  0  0  0  0  0
    4.4398   -1.2973    1.9039 C   0  0  0  0  0  0  0  0  0  0  0  0
    5.4711   -1.6112    1.8414 H   0  0  0  0  0  0  0  0  0  0  0  0
    4.1371    4.2022   -0.3351 O   0  0  0  0  0  0  0  0  0  0  0  0
    0.7275    3.3110    2.9612 C   0  0  0  0  0  0  0  0  0  0  0  0
    1.6504    3.6776    3.3920 H   0  0  0  0  0  0  0  0  0  0  0  0
    4.7647    5.4754   -2.2131 C   0  0  0  0  0  0  0  0  0  0  0  0
    3.9805    4.8693   -2.6600 H   0  0  0  0  0  0  0  0  0  0  0  0
    5.6960    5.3210   -2.7530 H   0  0  0  0  0  0  0  0  0  0  0  0
    4.4966    6.5272   -2.2865 H   0  0  0  0  0  0  0  0  0  0  0  0
    1.4983    3.0984   -1.2742 C   0  0  0  0  0  0  0  0  0  0  0  0
    1.2679    3.9684   -0.6742 H   0  0  0  0  0  0  0  0  0  0  0  0
    2.0442    1.9758   -0.6562 C   0  0  0  0  0  0  0  0  0  0  0  0
    2.7538    0.3950    1.6297 C   0  0  0  0  0  0  0  0  0  0  0  0
    4.0825   -0.0130    1.5422 C   0  0  0  0  0  0  0  0  0  0  0  0
    4.8275    0.7017    1.2034 H   0  0  0  0  0  0  0  0  0  0  0  0
    6.2511    5.5124    1.3060 C   0  0  2  0  0  3  0  0  0  0  0  0
   -0.4965    3.6221    3.5267 C   0  0  0  0  0  0  0  0  0  0  0  0
   -0.5395    4.2449    4.4076 H   0  0  0  0  0  0  0  0  0  0  0  0
    0.7841    2.5077    1.8275 C   0  0  0  0  0  0  0  0  0  0  0  0
    1.5749    1.9760   -3.3904 C   0  0  0  0  0  0  0  0  0  0  0  0
    1.3944    1.9755   -4.4553 H   0  0  0  0  0  0  0  0  0  0  0  0
    7.3843    6.3316    1.8855 C   0  0  0  0  0  0  0  0  0  0  0  0
    7.1541    7.3919    1.8069 H   0  0  0  0  0  0  0  0  0  0  0  0
    8.3025    6.1385    1.3350 H   0  0  0  0  0  0  0  0  0  0  0  0
    7.5255    6.0676    2.9301 H   0  0  0  0  0  0  0  0  0  0  0  0
    2.3619    0.8579   -1.4166 C   0  0  0  0  0  0  0  0  0  0  0  0
    2.7934   -0.0120   -0.9414 H   0  0  0  0  0  0  0  0  0  0  0  0
    1.7871   -0.4875    2.0922 C   0  0  0  0  0  0  0  0  0  0  0  0
    0.7587   -0.1680    2.1799 H   0  0  0  0  0  0  0  0  0  0  0  0
    2.1219    0.8599   -2.7804 C   0  0  0  0  0  0  0  0  0  0  0  0
    2.3666   -0.0120   -3.3694 H   0  0  0  0  0  0  0  0  0  0  0  0
    1.2630    3.0966   -2.6351 C   0  0  0  0  0  0  0  0  0  0  0  0
    0.8403    3.9690   -3.1123 H   0  0  0  0  0  0  0  0  0  0  0  0
   -0.3922    2.0246    1.2593 C   0  0  0  0  0  0  0  0  0  0  0  0
   -0.3483    1.4110    0.3694 H   0  0  0  0  0  0  0  0  0  0  0  0
    3.4716   -2.1787    2.3604 C   0  0  0  0  0  0  0  0  0  0  0  0
    3.7495   -3.1809    2.6516 H   0  0  0  0  0  0  0  0  0  0  0  0
   -1.6651    3.1365    2.9630 C   0  0  0  0  0  0  0  0  0  0  0  0
   -2.6205    3.3803    3.4038 H   0  0  0  0  0  0  0  0  0  0  0  0
   -1.6119    2.3396    1.8299 C   0  0  0  0  0  0  0  0  0  0  0  0
   -2.5241    1.9637    1.3896 H   0  0  0  0  0  0  0  0  0  0  0  0
    4.9350    5.0878   -0.7591 C   0  0  0  0  0  0  0  0  0  0  0  0
    2.1511   -1.7728    2.4562 C   0  0  0  0  0  0  0  0  0  0  0  0
    1.4012   -2.4585    2.8226 H   0  0  0  0  0  0  0  0  0  0  0  0
  1  4  1  0  0  0  0
  1  2  1  6  0  0  0
  3  1  1  0  0  0  0
  3 19  1  0  0  0  0
  3 25  1  0  0  0  0
  5 22  1  0  0  0  0
  6  5  1  0  0  0  0
  7 42  1  0  0  0  0
  8  7  1  0  0  0  0
  9  1  1  0  0  0  0
 10 11  1  0  0  0  0
 10 23  1  0  0  0  0
 12 48  1  0  0  0  0
 13 12  1  0  0  0  0
 14 12  1  0  0  0  0
 15 12  1  0  0  0  0
 16 17  1  0  0  0  0
 16 18  1  0  0  0  0
 18  3  1  0  0  0  0
 19 34  2  0  0  0  0
 20 19  1  0  0  0  0
 20  7  2  0  0  0  0
 21 20  1  0  0  0  0
 22 28  1  6  0  0  0
 22  4  1  0  0  0  0
 23 24  1  0  0  0  0
 25 10  2  0  0  0  0
 26 36  2  0  0  0  0
 26 38  1  0  0  0  0
 27 26  1  0  0  0  0
 28 31  1  0  0  0  0
 29 28  1  0  0  0  0
 30 28  1  0  0  0  0
 32 33  1  0  0  0  0
 32 18  2  0  0  0  0
 34 35  1  0  0  0  0
 34 49  1  0  0  0  0
 36 32  1  0  0  0  0
 37 36  1  0  0  0  0
 38 16  2  0  0  0  0
 39 38  1  0  0  0  0
 40 25  1  0  0  0  0
 40 46  2  0  0  0  0
 41 40  1  0  0  0  0
 42 49  2  0  0  0  0
 42 43  1  0  0  0  0
 44 45  1  0  0  0  0
 44 23  2  0  0  0  0
 46 44  1  0  0  0  0
 47 46  1  0  0  0  0
 48  9  1  0  0  0  0
 48  5  2  0  0  0  0
 49 50  1  0  0  0  0
M  END
$$$$
