CSD_code = TUMQAT | q = 0 | S = 0 | Stoichiometry = C16H31ClN2SiZn | MND = 4
 OpenBabel04212202103D

 52 53  0  0  1  0  0  0  0  0999 V2000
    5.2791    4.9072    9.0802 Zn  0  0  0  0  0  0  0  0  0  0  0  0
    5.7624    3.4429   10.7291 Cl  0  0  0  0  0  0  0  0  0  0  0  0
    3.6908    5.2804    7.8803 C   0  0  2  0  0  0  0  0  0  0  0  0
    2.8545    6.3167    8.5285 C   0  0  0  0  0  0  0  0  0  0  0  0
    2.4210    6.1774    9.8479 C   0  0  0  0  0  0  0  0  0  0  0  0
    1.6293    7.1373   10.4464 C   0  0  0  0  0  0  0  0  0  0  0  0
    1.2496    8.2704    9.7429 C   0  0  0  0  0  0  0  0  0  0  0  0
    1.6702    8.4255    8.4334 C   0  0  0  0  0  0  0  0  0  0  0  0
    2.4577    7.4593    7.8344 C   0  0  0  0  0  0  0  0  0  0  0  0
    2.6820    3.7141    7.4597 Si  0  0  0  0  0  0  0  0  0  0  0  0
    1.2391    4.2023    6.3063 C   0  0  0  0  0  0  0  0  0  0  0  0
    1.9827    2.8417    9.0017 C   0  0  0  0  0  0  0  0  0  0  0  0
    3.8646    2.5256    6.5408 C   0  0  0  0  0  0  0  0  0  0  0  0
    6.0574    6.7643   10.1520 N   0  0  0  0  0  4  0  0  0  0  0  0
    7.3796    5.0548    8.0864 N   0  0  0  0  0  4  0  0  0  0  0  0
    5.6578    6.7480   11.5575 C   0  0  0  0  0  0  0  0  0  0  0  0
    5.6661    8.0424    9.5679 C   0  0  0  0  0  0  0  0  0  0  0  0
    7.5028    6.5550   10.0597 C   0  0  0  0  0  0  0  0  0  0  0  0
    7.9676    6.2803    8.6308 C   0  0  0  0  0  0  0  0  0  0  0  0
    7.3164    5.1208    6.6302 C   0  0  0  0  0  0  0  0  0  0  0  0
    8.1702    3.8914    8.4766 C   0  0  0  0  0  0  0  0  0  0  0  0
    4.0561    5.6825    6.9330 H   0  0  0  0  0  0  0  0  0  0  0  0
    2.7278    5.3032   10.4081 H   0  0  0  0  0  0  0  0  0  0  0  0
    1.3079    7.0070   11.4705 H   0  0  0  0  0  0  0  0  0  0  0  0
    0.6339    9.0235   10.2122 H   0  0  0  0  0  0  0  0  0  0  0  0
    1.3805    9.3042    7.8740 H   0  0  0  0  0  0  0  0  0  0  0  0
    2.7762    7.5913    6.8091 H   0  0  0  0  0  0  0  0  0  0  0  0
    1.5980    4.6136    5.3682 H   0  0  0  0  0  0  0  0  0  0  0  0
    0.6141    3.3468    6.0720 H   0  0  0  0  0  0  0  0  0  0  0  0
    0.6102    4.9535    6.7738 H   0  0  0  0  0  0  0  0  0  0  0  0
    2.7649    2.6437    9.7285 H   0  0  0  0  0  0  0  0  0  0  0  0
    1.2205    3.4434    9.4867 H   0  0  0  0  0  0  0  0  0  0  0  0
    1.5315    1.8897    8.7386 H   0  0  0  0  0  0  0  0  0  0  0  0
    4.6973    2.2428    7.1789 H   0  0  0  0  0  0  0  0  0  0  0  0
    3.3521    1.6152    6.2494 H   0  0  0  0  0  0  0  0  0  0  0  0
    4.2700    2.9747    5.6392 H   0  0  0  0  0  0  0  0  0  0  0  0
    6.1870    7.5192   12.1313 H   0  0  0  0  0  0  0  0  0  0  0  0
    4.5868    6.9277   11.6266 H   0  0  0  0  0  0  0  0  0  0  0  0
    5.8723    5.7709   11.9845 H   0  0  0  0  0  0  0  0  0  0  0  0
    6.1997    8.8773   10.0410 H   0  0  0  0  0  0  0  0  0  0  0  0
    5.8670    8.0538    8.4998 H   0  0  0  0  0  0  0  0  0  0  0  0
    4.5964    8.1854    9.7035 H   0  0  0  0  0  0  0  0  0  0  0  0
    7.7459    5.6938   10.6841 H   0  0  0  0  0  0  0  0  0  0  0  0
    8.0471    7.4307   10.4473 H   0  0  0  0  0  0  0  0  0  0  0  0
    7.6781    7.1167    7.9919 H   0  0  0  0  0  0  0  0  0  0  0  0
    9.0659    6.2203    8.6231 H   0  0  0  0  0  0  0  0  0  0  0  0
    8.3148    5.2312    6.1870 H   0  0  0  0  0  0  0  0  0  0  0  0
    6.8634    4.2077    6.2491 H   0  0  0  0  0  0  0  0  0  0  0  0
    6.6985    5.9625    6.3232 H   0  0  0  0  0  0  0  0  0  0  0  0
    9.1970    3.9612    8.0939 H   0  0  0  0  0  0  0  0  0  0  0  0
    8.1940    3.8027    9.5589 H   0  0  0  0  0  0  0  0  0  0  0  0
    7.7051    2.9904    8.0822 H   0  0  0  0  0  0  0  0  0  0  0  0
  1 14  1  0  0  0  0
  1  2  1  0  0  0  0
  3 22  1  6  0  0  0
  3  4  1  0  0  0  0
  3  1  1  0  0  0  0
  4  5  1  0  0  0  0
  5 23  1  0  0  0  0
  5  6  2  0  0  0  0
  6 24  1  0  0  0  0
  7 25  1  0  0  0  0
  7  6  1  0  0  0  0
  8  7  2  0  0  0  0
  9  8  1  0  0  0  0
  9  4  2  0  0  0  0
 10  3  1  0  0  0  0
 10 12  1  0  0  0  0
 11 30  1  0  0  0  0
 11 10  1  0  0  0  0
 12 32  1  0  0  0  0
 12 31  1  0  0  0  0
 13 34  1  0  0  0  0
 13 10  1  0  0  0  0
 14 16  1  0  0  0  0
 15 21  1  0  0  0  0
 15 19  1  0  0  0  0
 15  1  1  0  0  0  0
 16 38  1  0  0  0  0
 16 39  1  0  0  0  0
 16 37  1  0  0  0  0
 17 42  1  0  0  0  0
 17 40  1  0  0  0  0
 17 14  1  0  0  0  0
 18 14  1  0  0  0  0
 18 44  1  0  0  0  0
 18 43  1  0  0  0  0
 19 18  1  0  0  0  0
 20 15  1  0  0  0  0
 21 51  1  0  0  0  0
 26  8  1  0  0  0  0
 27  9  1  0  0  0  0
 28 11  1  0  0  0  0
 29 11  1  0  0  0  0
 33 12  1  0  0  0  0
 35 13  1  0  0  0  0
 36 13  1  0  0  0  0
 41 17  1  0  0  0  0
 45 19  1  0  0  0  0
 46 19  1  0  0  0  0
 47 20  1  0  0  0  0
 48 20  1  0  0  0  0
 49 20  1  0  0  0  0
 50 21  1  0  0  0  0
 52 21  1  0  0  0  0
M  END
$$$$
