CSD_code = TURJEW | q = 0 | S = 0 | Stoichiometry = C8H14Cl2N2O4Pt | MND = 6
 OpenBabel04212202103D

 31 33  0  0  1  0  0  0  0  0999 V2000
    1.5802    1.5806   35.6989 Pt  0  0  0  0  0  0  0  0  0  0  0  0
    2.0180    3.4540   34.4694 Cl  0  0  0  0  0  0  0  0  0  0  0  0
    2.5568    0.4211   34.3612 O   0  0  0  0  0  0  0  0  0  0  0  0
    2.2362   -1.0206   32.7247 O   0  0  0  0  0  0  0  0  0  0  0  0
    1.8500   -0.1276   33.4393 C   0  0  0  0  0  0  0  0  0  0  0  0
   -0.8885    0.0698   35.3417 C   0  0  0  0  0  0  0  0  0  0  0  0
   -1.5992   -0.5082   34.7372 H   0  0  0  0  0  0  0  0  0  0  0  0
   -1.4546    0.6442   36.0815 H   0  0  0  0  0  0  0  0  0  0  0  0
   -0.1290    1.0021   34.5015 N   0  0  2  0  0  4  0  0  0  0  0  0
   -0.6956    1.8210   34.2747 H   0  0  0  0  0  0  0  0  0  0  0  0
    0.3943    0.4154   33.2533 C   0  0  1  0  0  0  0  0  0  0  0  0
   -0.2305   -0.4357   32.9509 H   0  0  0  0  0  0  0  0  0  0  0  0
    0.4158    1.4503   32.1333 C   0  0  0  0  0  0  0  0  0  0  0  0
   -0.5935    1.7874   31.9008 H   0  0  0  0  0  0  0  0  0  0  0  0
    0.8466    1.0018   31.2421 H   0  0  0  0  0  0  0  0  0  0  0  0
    1.0244    2.3059   32.4208 H   0  0  0  0  0  0  0  0  0  0  0  0
    3.4537    2.0181   36.9288 Cl  0  0  0  0  0  0  0  0  0  0  0  0
    0.4204    2.5570   37.0365 O   0  0  0  0  0  0  0  0  0  0  0  0
   -1.0202    2.2358   38.6732 O   0  0  0  0  0  0  0  0  0  0  0  0
   -0.1267    1.8504   37.9594 C   0  0  0  0  0  0  0  0  0  0  0  0
    0.0698   -0.8883   36.0563 C   0  0  0  0  0  0  0  0  0  0  0  0
   -0.5081   -1.5990   36.6609 H   0  0  0  0  0  0  0  0  0  0  0  0
    0.6442   -1.4544   35.3165 H   0  0  0  0  0  0  0  0  0  0  0  0
    1.0021   -0.1287   36.8964 N   0  0  2  0  0  4  0  0  0  0  0  0
    1.8211   -0.6953   37.1231 H   0  0  0  0  0  0  0  0  0  0  0  0
    0.4155    0.3945   38.1447 C   0  0  1  0  0  0  0  0  0  0  0  0
   -0.4357   -0.2302   38.4470 H   0  0  0  0  0  0  0  0  0  0  0  0
    1.4504    0.4156   39.2646 C   0  0  0  0  0  0  0  0  0  0  0  0
    1.7873   -0.5938   39.4969 H   0  0  0  0  0  0  0  0  0  0  0  0
    1.0020    0.8463   40.1560 H   0  0  0  0  0  0  0  0  0  0  0  0
    2.3061    1.0242   38.9773 H   0  0  0  0  0  0  0  0  0  0  0  0
  1 24  1  0  0  0  0
  1 17  1  0  0  0  0
  1 18  1  0  0  0  0
  2  1  1  0  0  0  0
  3  1  1  0  0  0  0
  4  5  2  0  0  0  0
  5  3  1  0  0  0  0
  6 21  1  0  0  0  0
  6  8  1  0  0  0  0
  7  6  1  0  0  0  0
  9 10  1  6  0  0  0
  9  6  1  0  0  0  0
  9  1  1  0  0  0  0
 11 12  1  6  0  0  0
 11  5  1  0  0  0  0
 11  9  1  0  0  0  0
 13 16  1  0  0  0  0
 13 11  1  0  0  0  0
 14 13  1  0  0  0  0
 15 13  1  0  0  0  0
 18 20  1  0  0  0  0
 20 26  1  0  0  0  0
 20 19  2  0  0  0  0
 21 22  1  0  0  0  0
 21 24  1  0  0  0  0
 23 21  1  0  0  0  0
 24 25  1  1  0  0  0
 24 26  1  0  0  0  0
 26 27  1  1  0  0  0
 26 28  1  0  0  0  0
 28 29  1  0  0  0  0
 28 30  1  0  0  0  0
 31 28  1  0  0  0  0
M  END
$$$$
