CSD_code = TURJAS | q = 0 | S = 0 | Stoichiometry = C22H18Cl2N2O2PdS | MND = 4
 OpenBabel04212202103D

 48 52  0  0  1  0  0  0  0  0999 V2000
    8.2199    6.8953    6.5738 Pd  0  0  0  0  0  0  0  0  0  0  0  0
    7.5830    6.5931    4.4631 S   0  0  0  0  0  0  0  0  0  0  0  0
    8.0343    4.6727    6.7739 Cl  0  0  0  0  0  0  0  0  0  0  0  0
    8.7576    7.1987    8.7219 Cl  0  0  0  0  0  0  0  0  0  0  0  0
   11.7377    9.4234    5.5110 O   0  0  0  0  0  0  0  0  0  0  0  0
    8.2557    8.9284    6.3706 N   0  0  0  0  0  0  0  0  0  0  0  0
    7.4707    7.8305    3.6927 O   0  0  0  0  0  1  0  0  0  0  0  0
   11.8967    7.2158    5.5924 C   0  0  0  0  0  0  0  0  0  0  0  0
    9.3393    9.6120    5.9761 C   0  0  2  0  0  3  0  0  0  0  0  0
   10.5934    7.5351    5.8014 N   0  0  0  0  0  0  0  0  0  0  0  0
   11.7758    4.7775    5.8163 C   0  0  0  0  0  0  0  0  0  0  0  0
   10.7233    4.8797    6.0593 H   0  0  0  0  0  0  0  0  0  0  0  0
   12.5147    5.9373    5.5656 C   0  0  0  0  0  0  0  0  0  0  0  0
   12.6091    8.3904    5.4055 C   0  0  0  0  0  0  0  0  0  0  0  0
   10.5431    8.8419    5.7602 C   0  0  0  0  0  0  0  0  0  0  0  0
    7.1287    9.5856    6.6109 C   0  0  0  0  0  0  0  0  0  0  0  0
    6.2865    8.9866    6.9542 H   0  0  0  0  0  0  0  0  0  0  0  0
   14.0030    8.4032    5.1515 C   0  0  0  0  0  0  0  0  0  0  0  0
   14.7230    9.5908    4.9718 C   0  0  0  0  0  0  0  0  0  0  0  0
   14.1928   10.5294    5.0314 H   0  0  0  0  0  0  0  0  0  0  0  0
   14.6458    7.1363    5.0896 C   0  0  0  0  0  0  0  0  0  0  0  0
   13.9033    5.9022    5.2971 C   0  0  0  0  0  0  0  0  0  0  0  0
   14.4986    4.6321    5.2621 C   0  0  0  0  0  0  0  0  0  0  0  0
   15.5524    4.5297    5.0576 H   0  0  0  0  0  0  0  0  0  0  0  0
   13.7633    3.4906    5.4909 C   0  0  0  0  0  0  0  0  0  0  0  0
   14.2555    2.5296    5.4576 H   0  0  0  0  0  0  0  0  0  0  0  0
    8.1343   11.6758    6.0426 C   0  0  0  0  0  0  0  0  0  0  0  0
    8.0829   12.7461    5.9140 H   0  0  0  0  0  0  0  0  0  0  0  0
   12.4004    3.5548    5.7785 C   0  0  0  0  0  0  0  0  0  0  0  0
   11.8446    2.6517    5.9770 H   0  0  0  0  0  0  0  0  0  0  0  0
    9.3118   10.9961    5.8012 C   0  0  0  0  0  0  0  0  0  0  0  0
   10.2065   11.5065    5.4822 H   0  0  0  0  0  0  0  0  0  0  0  0
    7.0203   10.9576    6.4585 C   0  0  0  0  0  0  0  0  0  0  0  0
    6.0854   11.4526    6.6654 H   0  0  0  0  0  0  0  0  0  0  0  0
    8.6556    5.4595    3.5309 C   0  0  0  0  0  0  0  0  0  0  0  0
    8.2773    5.3582    2.5204 H   0  0  0  0  0  0  0  0  0  0  0  0
    8.6556    4.5151    4.0639 H   0  0  0  0  0  0  0  0  0  0  0  0
    9.6526    5.8887    3.5226 H   0  0  0  0  0  0  0  0  0  0  0  0
    6.0206    5.6810    4.2531 C   0  0  0  0  0  0  0  0  0  0  0  0
    5.2290    6.2759    4.6989 H   0  0  0  0  0  0  0  0  0  0  0  0
    6.1307    4.7399    4.7812 H   0  0  0  0  0  0  0  0  0  0  0  0
    5.8289    5.5342    3.1967 H   0  0  0  0  0  0  0  0  0  0  0  0
   16.0246    7.1469    4.8350 C   0  0  0  0  0  0  0  0  0  0  0  0
   16.5669    6.2173    4.7759 H   0  0  0  0  0  0  0  0  0  0  0  0
   16.0733    9.5522    4.7286 C   0  0  0  0  0  0  0  0  0  0  0  0
   16.6312   10.4662    4.5923 H   0  0  0  0  0  0  0  0  0  0  0  0
   16.7212    8.3207    4.6596 C   0  0  0  0  0  0  0  0  0  0  0  0
   17.7835    8.2870    4.4686 H   0  0  0  0  0  0  0  0  0  0  0  0
  1  3  1  0  0  0  0
  1  4  1  0  0  0  0
  2  1  1  0  0  0  0
  5 15  1  0  0  0  0
  6  1  1  0  0  0  0
  6 16  1  0  0  0  0
  7  2  1  0  0  0  0
  8 10  1  0  0  0  0
  9 15  1  1  0  0  0
  9  6  1  0  0  0  0
 11 12  1  0  0  0  0
 13  8  1  0  0  0  0
 13 11  2  0  0  0  0
 14  5  1  0  0  0  0
 14  8  2  0  0  0  0
 15 10  2  0  0  0  0
 16 17  1  0  0  0  0
 18 14  1  0  0  0  0
 19 20  1  0  0  0  0
 19 18  2  0  0  0  0
 21 18  1  0  0  0  0
 21 22  1  0  0  0  0
 22 13  1  0  0  0  0
 23 22  2  0  0  0  0
 23 25  1  0  0  0  0
 24 23  1  0  0  0  0
 25 29  2  0  0  0  0
 26 25  1  0  0  0  0
 27 33  1  0  0  0  0
 28 27  1  0  0  0  0
 29 11  1  0  0  0  0
 29 30  1  0  0  0  0
 31  9  1  0  0  0  0
 31 27  2  0  0  0  0
 32 31  1  0  0  0  0
 33 16  2  0  0  0  0
 33 34  1  0  0  0  0
 35 37  1  0  0  0  0
 35  2  1  0  0  0  0
 36 35  1  0  0  0  0
 38 35  1  0  0  0  0
 39  2  1  0  0  0  0
 39 40  1  0  0  0  0
 39 41  1  0  0  0  0
 42 39  1  0  0  0  0
 43 21  2  0  0  0  0
 44 43  1  0  0  0  0
 45 19  1  0  0  0  0
 46 45  1  0  0  0  0
 47 45  2  0  0  0  0
 47 43  1  0  0  0  0
 48 47  1  0  0  0  0
M  END
$$$$
