CSD_code = TURMAV | q = 0 | S = 0 | Stoichiometry = C20H20CdCl2N8 | MND = 4
 OpenBabel04212202103D

 51 56  0  0  1  0  0  0  0  0999 V2000
    5.1058    0.7963    3.7953 Cd  0  0  0  0  0  0  0  0  0  0  0  0
    5.8402   -0.4435    5.6764 Cl  0  0  0  0  0  0  0  0  0  0  0  0
    3.1592    1.5432    5.1674 N   0  0  0  0  0  0  0  0  0  0  0  0
    2.2800    3.3867    6.0077 N   0  0  0  0  0  0  0  0  0  0  0  0
    2.0078    4.3527    6.0862 H   0  0  0  0  0  0  0  0  0  0  0  0
    3.2942    3.5790    3.8790 N   0  0  0  0  0  2  0  0  0  0  0  0
    3.8977    2.9272    2.9605 N   0  0  0  0  0  0  0  0  0  0  0  0
    4.3361    3.6134    1.8602 C   0  0  0  0  0  0  0  0  0  0  0  0
    4.6546    2.8455    0.7300 C   0  0  0  0  0  0  0  0  0  0  0  0
    4.4764    1.7787    0.7646 H   0  0  0  0  0  0  0  0  0  0  0  0
    5.1706    3.4606   -0.3889 C   0  0  0  0  0  0  0  0  0  0  0  0
    5.4070    2.8683   -1.2607 H   0  0  0  0  0  0  0  0  0  0  0  0
    5.4034    4.8351   -0.4125 C   0  0  0  0  0  0  0  0  0  0  0  0
    5.0823    5.5919    0.7144 C   0  0  0  0  0  0  0  0  0  0  0  0
    5.2600    6.6584    0.7038 H   0  0  0  0  0  0  0  0  0  0  0  0
    4.5423    5.0011    1.8344 C   0  0  0  0  0  0  0  0  0  0  0  0
    4.3002    5.5792    2.7135 H   0  0  0  0  0  0  0  0  0  0  0  0
    5.9707    5.4881   -1.6329 C   0  0  0  0  0  0  0  0  0  0  0  0
    6.5035    6.4020   -1.3804 H   0  0  0  0  0  0  0  0  0  0  0  0
    5.1627    5.7502   -2.3168 H   0  0  0  0  0  0  0  0  0  0  0  0
    6.6424    4.8135   -2.1590 H   0  0  0  0  0  0  0  0  0  0  0  0
    2.9433    2.8335    4.9537 C   0  0  1  0  0  3  0  0  0  0  0  0
    2.0865    2.3989    6.9175 C   0  0  0  0  0  0  0  0  0  0  0  0
    1.5813    2.5634    7.8468 H   0  0  0  0  0  0  0  0  0  0  0  0
    2.6415    1.2623    6.3733 C   0  0  0  0  0  0  0  0  0  0  0  0
    2.7013    0.2727    6.7815 H   0  0  0  0  0  0  0  0  0  0  0  0
    4.3715   -0.4434    1.9140 Cl  0  0  0  0  0  0  0  0  0  0  0  0
    7.0525    1.5432    2.4236 N   0  0  0  0  0  0  0  0  0  0  0  0
    7.9318    3.3867    1.5834 N   0  0  0  0  0  0  0  0  0  0  0  0
    8.2042    4.3527    1.5049 H   0  0  0  0  0  0  0  0  0  0  0  0
    6.9177    3.5790    3.7121 N   0  0  0  0  0  2  0  0  0  0  0  0
    6.3142    2.9273    4.6306 N   0  0  0  0  0  0  0  0  0  0  0  0
    5.8758    3.6135    5.7309 C   0  0  0  0  0  0  0  0  0  0  0  0
    5.5572    2.8455    6.8611 C   0  0  0  0  0  0  0  0  0  0  0  0
    5.7354    1.7788    6.8264 H   0  0  0  0  0  0  0  0  0  0  0  0
    5.0411    3.4606    7.9800 C   0  0  0  0  0  0  0  0  0  0  0  0
    4.8047    2.8684    8.8518 H   0  0  0  0  0  0  0  0  0  0  0  0
    4.8083    4.8351    8.0036 C   0  0  0  0  0  0  0  0  0  0  0  0
    5.1295    5.5920    6.8767 C   0  0  0  0  0  0  0  0  0  0  0  0
    4.9517    6.6584    6.8873 H   0  0  0  0  0  0  0  0  0  0  0  0
    5.6695    5.0012    5.7567 C   0  0  0  0  0  0  0  0  0  0  0  0
    5.9116    5.5793    4.8776 H   0  0  0  0  0  0  0  0  0  0  0  0
    4.2411    5.4881    9.2239 C   0  0  0  0  0  0  0  0  0  0  0  0
    3.7083    6.4021    8.9715 H   0  0  0  0  0  0  0  0  0  0  0  0
    5.0491    5.7503    9.9078 H   0  0  0  0  0  0  0  0  0  0  0  0
    3.5693    4.8137    9.7501 H   0  0  0  0  0  0  0  0  0  0  0  0
    7.2685    2.8335    2.6374 C   0  0  1  0  0  3  0  0  0  0  0  0
    8.1253    2.3989    0.6736 C   0  0  0  0  0  0  0  0  0  0  0  0
    8.6304    2.5635   -0.2558 H   0  0  0  0  0  0  0  0  0  0  0  0
    7.5702    1.2624    1.2177 C   0  0  0  0  0  0  0  0  0  0  0  0
    7.5105    0.2727    0.8095 H   0  0  0  0  0  0  0  0  0  0  0  0
  1 32  1  0  0  0  0
  1  3  1  0  0  0  0
  1  2  1  0  0  0  0
  3 25  1  0  0  0  0
  4  5  1  0  0  0  0
  4 23  1  0  0  0  0
  7  1  1  0  0  0  0
  7  6  1  0  0  0  0
  8  7  1  0  0  0  0
  9 10  1  0  0  0  0
  9  8  2  0  0  0  0
 11  9  1  0  0  0  0
 12 11  1  0  0  0  0
 13 11  2  0  0  0  0
 13 14  1  0  0  0  0
 14 16  2  0  0  0  0
 15 14  1  0  0  0  0
 16  8  1  0  0  0  0
 16 17  1  0  0  0  0
 18 19  1  0  0  0  0
 18 13  1  0  0  0  0
 20 18  1  0  0  0  0
 21 18  1  0  0  0  0
 22  6  1  1  0  0  0
 22  3  1  0  0  0  0
 22  4  1  0  0  0  0
 23 24  1  0  0  0  0
 25 26  1  0  0  0  0
 25 23  2  0  0  0  0
 27  1  1  0  0  0  0
 28 47  1  0  0  0  0
 28  1  1  0  0  0  0
 29 47  1  0  0  0  0
 30 29  1  0  0  0  0
 31 32  1  0  0  0  0
 32 33  1  0  0  0  0
 33 41  2  0  0  0  0
 33 34  1  0  0  0  0
 34 36  2  0  0  0  0
 35 34  1  0  0  0  0
 36 38  1  0  0  0  0
 36 37  1  0  0  0  0
 38 43  1  0  0  0  0
 39 40  1  0  0  0  0
 39 38  2  0  0  0  0
 41 39  1  0  0  0  0
 42 41  1  0  0  0  0
 43 46  1  0  0  0  0
 43 45  1  0  0  0  0
 44 43  1  0  0  0  0
 47 31  1  6  0  0  0
 48 50  2  0  0  0  0
 48 29  1  0  0  0  0
 49 48  1  0  0  0  0
 50 28  1  0  0  0  0
 51 50  1  0  0  0  0
M  END
$$$$
