CSD_code = TURSUU | q = 0 | S = 0 | Stoichiometry = C26H22Cl2P2Pd | MND = 4
 OpenBabel04212202103D

 53 57  0  0  0  0  0  0  0  0999 V2000
    1.5422    2.9285    6.5066 Pd  0  0  0  0  0  0  0  0  0  0  0  0
    0.4196    2.1391    4.7007 Cl  0  0  0  0  0  0  0  0  0  0  0  0
   -0.2934    3.0015    7.8372 Cl  0  0  0  0  0  0  0  0  0  0  0  0
    3.4144    2.8989    5.2965 P   0  0  0  0  0  4  0  0  0  0  0  0
    2.7552    3.6862    8.2174 P   0  0  0  0  0  4  0  0  0  0  0  0
    4.7661    3.4548    6.3871 C   0  0  0  0  0  0  0  0  0  0  0  0
    5.7770    3.4566    5.9920 H   0  0  0  0  0  0  0  0  0  0  0  0
    4.4827    3.7932    7.6428 C   0  0  0  0  0  0  0  0  0  0  0  0
    5.2435    4.0942    8.3561 H   0  0  0  0  0  0  0  0  0  0  0  0
    3.9579    1.2170    4.8851 C   0  0  0  0  0  0  0  0  0  0  0  0
    3.2516    0.1614    5.4525 C   0  0  0  0  0  0  0  0  0  0  0  0
    2.3777    0.3800    6.0717 H   0  0  0  0  0  0  0  0  0  0  0  0
    3.6345   -1.1416    5.1922 C   0  0  0  0  0  0  0  0  0  0  0  0
    3.0823   -1.9640    5.6213 H   0  0  0  0  0  0  0  0  0  0  0  0
    4.7227   -1.3892    4.3703 C   0  0  0  0  0  0  0  0  0  0  0  0
    5.0196   -2.4063    4.1620 H   0  0  0  0  0  0  0  0  0  0  0  0
    5.4275   -0.3373    3.8055 C   0  0  0  0  0  0  0  0  0  0  0  0
    6.2707   -0.5368    3.1605 H   0  0  0  0  0  0  0  0  0  0  0  0
    5.0500    0.9683    4.0607 C   0  0  0  0  0  0  0  0  0  0  0  0
    5.5874    1.7935    3.6132 H   0  0  0  0  0  0  0  0  0  0  0  0
    3.6465    3.8360    3.7691 C   0  0  0  0  0  0  0  0  0  0  0  0
    3.0690    3.3336    2.6047 C   0  0  0  0  0  0  0  0  0  0  0  0
    2.5407    2.3903    2.6423 H   0  0  0  0  0  0  0  0  0  0  0  0
    3.1575    4.0570    1.4307 C   0  0  0  0  0  0  0  0  0  0  0  0
    2.7107    3.6716    0.5266 H   0  0  0  0  0  0  0  0  0  0  0  0
    3.8102    5.2805    1.4154 C   0  0  0  0  0  0  0  0  0  0  0  0
    3.8766    5.8448    0.4970 H   0  0  0  0  0  0  0  0  0  0  0  0
    4.3657    5.7898    2.5781 C   0  0  0  0  0  0  0  0  0  0  0  0
    4.8610    6.7499    2.5659 H   0  0  0  0  0  0  0  0  0  0  0  0
    4.2794    5.0749    3.7592 C   0  0  0  0  0  0  0  0  0  0  0  0
    4.6960    5.4751    4.6745 H   0  0  0  0  0  0  0  0  0  0  0  0
    2.9000    2.4643    9.5517 C   0  0  0  0  0  0  0  0  0  0  0  0
    3.5436    2.7464   10.7520 C   0  0  0  0  0  0  0  0  0  0  0  0
    3.9502    3.7334   10.9273 H   0  0  0  0  0  0  0  0  0  0  0  0
    3.6408    1.7641   11.7204 C   0  0  0  0  0  0  0  0  0  0  0  0
    4.1336    1.9796   12.6571 H   0  0  0  0  0  0  0  0  0  0  0  0
    3.1020    0.5070   11.4938 C   0  0  0  0  0  0  0  0  0  0  0  0
    3.1764   -0.2535   12.2568 H   0  0  0  0  0  0  0  0  0  0  0  0
    2.4607    0.2254   10.2978 C   0  0  0  0  0  0  0  0  0  0  0  0
    2.0332   -0.7516   10.1299 H   0  0  0  0  0  0  0  0  0  0  0  0
    2.3606    1.2024    9.3243 C   0  0  0  0  0  0  0  0  0  0  0  0
    1.8313    1.0123    8.3865 H   0  0  0  0  0  0  0  0  0  0  0  0
    2.4623    5.2516    9.0711 C   0  0  0  0  0  0  0  0  0  0  0  0
    3.1735    6.4041    8.7521 C   0  0  0  0  0  0  0  0  0  0  0  0
    3.9601    6.3643    8.0098 H   0  0  0  0  0  0  0  0  0  0  0  0
    2.8647    7.5956    9.3832 C   0  0  0  0  0  0  0  0  0  0  0  0
    3.4188    8.4910    9.1419 H   0  0  0  0  0  0  0  0  0  0  0  0
    1.8414    7.6428   10.3163 C   0  0  0  0  0  0  0  0  0  0  0  0
    1.6020    8.5764   10.8034 H   0  0  0  0  0  0  0  0  0  0  0  0
    1.1154    6.4997   10.6153 C   0  0  0  0  0  0  0  0  0  0  0  0
    0.3071    6.5443   11.3297 H   0  0  0  0  0  0  0  0  0  0  0  0
    1.4185    5.3038    9.9928 C   0  0  0  0  0  0  0  0  0  0  0  0
    0.8464    4.4078   10.1933 H   0  0  0  0  0  0  0  0  0  0  0  0
  1  3  1  0  0  0  0
  1  5  1  0  0  0  0
  2  1  1  0  0  0  0
  4  6  1  0  0  0  0
  4  1  1  0  0  0  0
  5 43  1  0  0  0  0
  5 32  1  0  0  0  0
  6  8  2  0  0  0  0
  7  6  1  0  0  0  0
  8  5  1  0  0  0  0
  8  9  1  0  0  0  0
 10  4  1  0  0  0  0
 10 11  1  0  0  0  0
 11 12  1  0  0  0  0
 13 11  2  0  0  0  0
 13 14  1  0  0  0  0
 15 13  1  0  0  0  0
 16 15  1  0  0  0  0
 17 19  1  0  0  0  0
 17 15  2  0  0  0  0
 18 17  1  0  0  0  0
 19 10  2  0  0  0  0
 20 19  1  0  0  0  0
 21  4  1  0  0  0  0
 22 23  1  0  0  0  0
 22 21  2  0  0  0  0
 24 22  1  0  0  0  0
 25 24  1  0  0  0  0
 26 24  2  0  0  0  0
 26 28  1  0  0  0  0
 27 26  1  0  0  0  0
 28 30  2  0  0  0  0
 29 28  1  0  0  0  0
 30 21  1  0  0  0  0
 30 31  1  0  0  0  0
 32 33  1  0  0  0  0
 33 34  1  0  0  0  0
 33 35  2  0  0  0  0
 35 36  1  0  0  0  0
 37 35  1  0  0  0  0
 37 38  1  0  0  0  0
 39 37  2  0  0  0  0
 40 39  1  0  0  0  0
 41 32  2  0  0  0  0
 41 39  1  0  0  0  0
 42 41  1  0  0  0  0
 43 52  1  0  0  0  0
 44 43  2  0  0  0  0
 44 46  1  0  0  0  0
 45 44  1  0  0  0  0
 46 48  2  0  0  0  0
 47 46  1  0  0  0  0
 48 50  1  0  0  0  0
 48 49  1  0  0  0  0
 50 51  1  0  0  0  0
 52 53  1  0  0  0  0
 52 50  2  0  0  0  0
M  END
$$$$
