CSD_code = TURWUY | q = 0 | S = 0 | Stoichiometry = C20H38Cl2N2Pd | MND = 4
 OpenBabel04212202103D

 63 66  0  0  1  0  0  0  0  0999 V2000
    6.2699   -1.7175    4.7086 Pd  0  0  0  0  0  0  0  0  0  0  0  0
    7.5701   -1.5885    6.5914 Cl  0  0  0  0  0  0  0  0  0  0  0  0
    5.0655   -1.5846    2.7447 Cl  0  0  0  0  0  0  0  0  0  0  0  0
    4.6343   -1.0060    5.7503 N   0  0  0  0  0  4  0  0  0  0  0  0
    4.9676   -0.1003    6.0990 H   0  0  0  0  0  0  0  0  0  0  0  0
    3.9016   -0.8283    5.0566 H   0  0  0  0  0  0  0  0  0  0  0  0
    7.9277   -2.2163    3.6109 N   0  0  0  0  0  4  0  0  0  0  0  0
    7.6396   -2.0799    2.6366 H   0  0  0  0  0  0  0  0  0  0  0  0
    8.6689   -1.5475    3.8430 H   0  0  0  0  0  0  0  0  0  0  0  0
    3.7138   -3.2365    6.5377 C   0  0  2  0  0  0  0  0  0  0  0  0
    4.0950   -1.7697    6.8791 C   0  0  2  0  0  0  0  0  0  0  0  0
    4.8828   -1.7741    7.6395 H   0  0  0  0  0  0  0  0  0  0  0  0
    2.7722   -1.1748    7.4195 C   0  0  0  0  0  0  0  0  0  0  0  0
    2.8686   -0.8391    8.4511 H   0  0  0  0  0  0  0  0  0  0  0  0
    2.4434   -0.3200    6.8256 H   0  0  0  0  0  0  0  0  0  0  0  0
    1.7944   -2.3477    7.2985 C   0  0  1  0  0  0  0  0  0  0  0  0
    0.8926   -2.2287    7.8971 H   0  0  0  0  0  0  0  0  0  0  0  0
    1.5200   -2.5522    5.8001 C   0  0  0  0  0  0  0  0  0  0  0  0
    1.3136   -1.6031    5.3046 H   0  0  0  0  0  0  0  0  0  0  0  0
    0.6512   -3.1901    5.6421 H   0  0  0  0  0  0  0  0  0  0  0  0
    2.8154   -3.2125    5.2901 C   0  0  0  0  0  0  0  0  0  0  0  0
    2.6369   -4.2302    4.9461 H   0  0  0  0  0  0  0  0  0  0  0  0
    3.2781   -2.6873    4.4549 H   0  0  0  0  0  0  0  0  0  0  0  0
    2.6851   -3.5541    7.6579 C   0  0  0  0  0  0  0  0  0  0  0  0
    3.2468   -3.5189    9.0804 C   0  0  0  0  0  0  0  0  0  0  0  0
    3.8500   -4.4063    9.2573 H   0  0  0  0  0  0  0  0  0  0  0  0
    2.4254   -3.5238    9.7944 H   0  0  0  0  0  0  0  0  0  0  0  0
    3.8637   -2.6520    9.2839 H   0  0  0  0  0  0  0  0  0  0  0  0
    1.9779   -4.9024    7.5153 C   0  0  0  0  0  0  0  0  0  0  0  0
    2.6943   -5.7116    7.6372 H   0  0  0  0  0  0  0  0  0  0  0  0
    1.4815   -5.0283    6.5610 H   0  0  0  0  0  0  0  0  0  0  0  0
    1.2269   -4.9977    8.2970 H   0  0  0  0  0  0  0  0  0  0  0  0
    4.9209   -4.1430    6.4016 C   0  0  0  0  0  0  0  0  0  0  0  0
    5.5758   -3.7517    5.5992 H   0  0  0  0  0  0  0  0  0  0  0  0
    4.6160   -5.1533    6.1408 H   0  0  0  0  0  0  0  0  0  0  0  0
    5.4899   -4.1693    7.3282 H   0  0  0  0  0  0  0  0  0  0  0  0
    9.6028   -4.0040    2.9088 C   0  0  2  0  0  0  0  0  0  0  0  0
    8.4106   -3.5809    3.8149 C   0  0  2  0  0  0  0  0  0  0  0  0
    8.7122   -3.6375    4.8676 H   0  0  0  0  0  0  0  0  0  0  0  0
    7.3166   -4.6184    3.4775 C   0  0  0  0  0  0  0  0  0  0  0  0
    7.0409   -5.2086    4.3506 H   0  0  0  0  0  0  0  0  0  0  0  0
    6.4131   -4.1298    3.0968 H   0  0  0  0  0  0  0  0  0  0  0  0
    7.9887   -5.4897    2.4119 C   0  0  1  0  0  0  0  0  0  0  0  0
    7.5002   -6.4504    2.2609 H   0  0  0  0  0  0  0  0  0  0  0  0
    8.0913   -4.6425    1.1349 C   0  0  0  0  0  0  0  0  0  0  0  0
    7.1538   -4.1232    0.9372 H   0  0  0  0  0  0  0  0  0  0  0  0
    8.3120   -5.2579    0.2638 H   0  0  0  0  0  0  0  0  0  0  0  0
    9.2396   -3.6653    1.4527 C   0  0  0  0  0  0  0  0  0  0  0  0
   10.1032   -3.8338    0.8100 H   0  0  0  0  0  0  0  0  0  0  0  0
    8.9571   -2.6220    1.3131 H   0  0  0  0  0  0  0  0  0  0  0  0
    9.4475   -5.5507    2.9108 C   0  0  0  0  0  0  0  0  0  0  0  0
    9.6158   -6.2116    4.2802 C   0  0  0  0  0  0  0  0  0  0  0  0
    9.2696   -7.2419    4.2284 H   0  0  0  0  0  0  0  0  0  0  0  0
    9.0710   -5.7143    5.0737 H   0  0  0  0  0  0  0  0  0  0  0  0
   10.6685   -6.2256    4.5534 H   0  0  0  0  0  0  0  0  0  0  0  0
   10.3874   -6.2962    1.9621 C   0  0  0  0  0  0  0  0  0  0  0  0
   10.1485   -7.3575    1.9843 H   0  0  0  0  0  0  0  0  0  0  0  0
   11.4184   -6.1786    2.2886 H   0  0  0  0  0  0  0  0  0  0  0  0
   10.3154   -5.9625    0.9340 H   0  0  0  0  0  0  0  0  0  0  0  0
   10.9316   -3.4306    3.3639 C   0  0  0  0  0  0  0  0  0  0  0  0
   10.9299   -2.3447    3.2805 H   0  0  0  0  0  0  0  0  0  0  0  0
   11.7442   -3.8106    2.7494 H   0  0  0  0  0  0  0  0  0  0  0  0
   11.1284   -3.6928    4.4007 H   0  0  0  0  0  0  0  0  0  0  0  0
  1  4  1  0  0  0  0
  1  2  1  0  0  0  0
  3  1  1  0  0  0  0
  4  5  1  0  0  0  0
  4 11  1  0  0  0  0
  6  4  1  0  0  0  0
  7 38  1  0  0  0  0
  7  9  1  0  0  0  0
  7  1  1  0  0  0  0
  8  7  1  0  0  0  0
 10 33  1  6  0  0  0
 10 11  1  0  0  0  0
 10 24  1  0  0  0  0
 11 13  1  0  0  0  0
 11 12  1  1  0  0  0
 13 14  1  0  0  0  0
 15 13  1  0  0  0  0
 16 13  1  0  0  0  0
 16 24  1  0  0  0  0
 16 17  1  1  0  0  0
 18 16  1  0  0  0  0
 19 18  1  0  0  0  0
 20 18  1  0  0  0  0
 21 18  1  0  0  0  0
 21 10  1  0  0  0  0
 22 21  1  0  0  0  0
 23 21  1  0  0  0  0
 24 25  1  0  0  0  0
 25 26  1  0  0  0  0
 25 28  1  0  0  0  0
 25 27  1  0  0  0  0
 29 30  1  0  0  0  0
 29 24  1  0  0  0  0
 29 32  1  0  0  0  0
 31 29  1  0  0  0  0
 33 36  1  0  0  0  0
 34 33  1  0  0  0  0
 35 33  1  0  0  0  0
 37 51  1  0  0  0  0
 37 60  1  1  0  0  0
 37 38  1  0  0  0  0
 38 39  1  1  0  0  0
 40 38  1  0  0  0  0
 40 41  1  0  0  0  0
 42 40  1  0  0  0  0
 43 44  1  6  0  0  0
 43 51  1  0  0  0  0
 43 40  1  0  0  0  0
 45 48  1  0  0  0  0
 45 43  1  0  0  0  0
 46 45  1  0  0  0  0
 47 45  1  0  0  0  0
 48 37  1  0  0  0  0
 49 48  1  0  0  0  0
 50 48  1  0  0  0  0
 51 52  1  0  0  0  0
 52 55  1  0  0  0  0
 52 54  1  0  0  0  0
 53 52  1  0  0  0  0
 56 57  1  0  0  0  0
 56 58  1  0  0  0  0
 56 51  1  0  0  0  0
 59 56  1  0  0  0  0
 60 63  1  0  0  0  0
 61 60  1  0  0  0  0
 62 60  1  0  0  0  0
M  END
$$$$
