CSD_code = TUSCOB | q = 0 | S = 0 | Stoichiometry = C17H32F4N2NiP2 | MND = 4
 OpenBabel04212202103D

 58 58  0  0  0  0  0  0  0  0999 V2000
    6.3991    0.8182   11.5732 C   0  0  0  0  0  0  0  0  0  0  0  0
    6.7957   -0.3074   10.8654 C   0  0  0  0  0  0  0  0  0  0  0  0
    6.4400   -1.6074   11.2379 C   0  0  0  0  0  0  0  0  0  0  0  0
    5.6536   -1.6962   12.3954 C   0  0  0  0  0  0  0  0  0  0  0  0
    5.2922   -0.5350   13.0556 C   0  0  0  0  0  0  0  0  0  0  0  0
    4.2076    1.2455    9.1996 C   0  0  0  0  0  0  0  0  0  0  0  0
    4.9571    0.6417    8.6805 H   0  0  0  0  0  0  0  0  0  0  0  0
    3.8856    0.6731   10.0737 H   0  0  0  0  0  0  0  0  0  0  0  0
    3.0209    1.5054    8.2819 C   0  0  0  0  0  0  0  0  0  0  0  0
    2.2291    2.0368    8.8033 H   0  0  0  0  0  0  0  0  0  0  0  0
    2.6143    0.5585    7.9304 H   0  0  0  0  0  0  0  0  0  0  0  0
    3.3121    2.0877    7.4110 H   0  0  0  0  0  0  0  0  0  0  0  0
    5.7228    3.5773    8.3245 C   0  0  0  0  0  0  0  0  0  0  0  0
    4.9933    3.5264    7.5134 H   0  0  0  0  0  0  0  0  0  0  0  0
    5.8790    4.6233    8.5964 H   0  0  0  0  0  0  0  0  0  0  0  0
    7.0546    2.9501    7.9288 C   0  0  0  0  0  0  0  0  0  0  0  0
    7.7185    2.9650    8.7992 H   0  0  0  0  0  0  0  0  0  0  0  0
    7.5271    3.5032    7.1197 H   0  0  0  0  0  0  0  0  0  0  0  0
    6.9269    1.9155    7.6157 H   0  0  0  0  0  0  0  0  0  0  0  0
    3.7619    3.8607   10.4171 C   0  0  0  0  0  0  0  0  0  0  0  0
    4.2671    4.7819   10.7179 H   0  0  0  0  0  0  0  0  0  0  0  0
    3.0797    4.0927    9.5952 H   0  0  0  0  0  0  0  0  0  0  0  0
    3.0289    3.2580   11.6101 C   0  0  0  0  0  0  0  0  0  0  0  0
    2.4256    2.4034   11.3109 H   0  0  0  0  0  0  0  0  0  0  0  0
    2.3738    3.9937   12.0727 H   0  0  0  0  0  0  0  0  0  0  0  0
    3.7505    2.9180   12.3532 H   0  0  0  0  0  0  0  0  0  0  0  0
    9.0831    1.0516   13.3850 C   0  0  0  0  0  0  0  0  0  0  0  0
    8.2384    0.7341   14.0023 H   0  0  0  0  0  0  0  0  0  0  0  0
    9.2316    0.2784   12.6262 H   0  0  0  0  0  0  0  0  0  0  0  0
   10.3356    1.1883   14.2397 C   0  0  0  0  0  0  0  0  0  0  0  0
   11.2036    1.4318   13.6324 H   0  0  0  0  0  0  0  0  0  0  0  0
   10.5362    0.2482   14.7511 H   0  0  0  0  0  0  0  0  0  0  0  0
   10.2166    1.9601   14.9959 H   0  0  0  0  0  0  0  0  0  0  0  0
    8.1500    3.7694   13.8454 C   0  0  0  0  0  0  0  0  0  0  0  0
    8.8660    3.6775   14.6651 H   0  0  0  0  0  0  0  0  0  0  0  0
    8.2395    4.7655   13.4065 H   0  0  0  0  0  0  0  0  0  0  0  0
    6.7171    3.5459   14.3164 C   0  0  0  0  0  0  0  0  0  0  0  0
    6.0526    3.5749   13.4450 H   0  0  0  0  0  0  0  0  0  0  0  0
    6.4070    4.3181   15.0175 H   0  0  0  0  0  0  0  0  0  0  0  0
    6.6038    2.5743   14.7929 H   0  0  0  0  0  0  0  0  0  0  0  0
   10.0456    3.2679   11.7394 C   0  0  0  0  0  0  0  0  0  0  0  0
    9.7389    4.2102   11.2790 H   0  0  0  0  0  0  0  0  0  0  0  0
   10.7819    3.4860   12.5171 H   0  0  0  0  0  0  0  0  0  0  0  0
   10.6097    2.3317   10.6774 C   0  0  0  0  0  0  0  0  0  0  0  0
    9.8213    2.0437    9.9823 H   0  0  0  0  0  0  0  0  0  0  0  0
   11.0133    1.4259   11.1253 H   0  0  0  0  0  0  0  0  0  0  0  0
   11.4043    2.8190   10.1157 H   0  0  0  0  0  0  0  0  0  0  0  0
    6.9950    4.3522   11.0329 F   0  0  0  0  0  0  0  0  0  0  0  0
    7.5736   -0.1614    9.7492 F   0  0  0  0  0  0  0  0  0  0  0  0
    5.2780   -2.9258   12.8366 F   0  0  0  0  0  0  0  0  0  0  0  0
    4.5433   -0.6093   14.1691 F   0  0  0  0  0  0  0  0  0  0  0  0
    5.6435    0.6650   12.6653 N   0  0  0  0  0  0  0  0  0  0  0  0
    6.7763   -2.7049   10.5062 N   0  0  0  0  0  0  0  0  0  0  0  0
    7.4905   -2.6027    9.8066 H   0  0  0  0  0  0  0  0  0  0  0  0
    6.6523   -3.6101   10.9257 H   0  0  0  0  0  0  0  0  0  0  0  0
    6.7350    2.5763   11.2538 Ni  0  0  0  0  0  0  0  0  0  0  0  0
    5.0968    2.7370    9.8385 P   0  0  0  0  0  4  0  0  0  0  0  0
    8.5182    2.5733   12.4967 P   0  0  0  0  0  4  0  0  0  0  0  0
  1 52  1  0  0  0  0
  2  3  1  0  0  0  0
  2  1  2  0  0  0  0
  3  4  2  0  0  0  0
  4 50  1  0  0  0  0
  4  5  1  0  0  0  0
  5 51  1  0  0  0  0
  6 57  1  0  0  0  0
  6  8  1  0  0  0  0
  7  6  1  0  0  0  0
  9 10  1  0  0  0  0
  9  6  1  0  0  0  0
 11  9  1  0  0  0  0
 12  9  1  0  0  0  0
 13 15  1  0  0  0  0
 13 57  1  0  0  0  0
 14 13  1  0  0  0  0
 16 13  1  0  0  0  0
 16 17  1  0  0  0  0
 18 16  1  0  0  0  0
 19 16  1  0  0  0  0
 20 21  1  0  0  0  0
 20 23  1  0  0  0  0
 22 20  1  0  0  0  0
 23 25  1  0  0  0  0
 23 26  1  0  0  0  0
 24 23  1  0  0  0  0
 27 28  1  0  0  0  0
 27 30  1  0  0  0  0
 29 27  1  0  0  0  0
 30 32  1  0  0  0  0
 30 33  1  0  0  0  0
 31 30  1  0  0  0  0
 34 37  1  0  0  0  0
 34 35  1  0  0  0  0
 36 34  1  0  0  0  0
 37 40  1  0  0  0  0
 37 39  1  0  0  0  0
 38 37  1  0  0  0  0
 41 58  1  0  0  0  0
 41 43  1  0  0  0  0
 42 41  1  0  0  0  0
 44 46  1  0  0  0  0
 44 41  1  0  0  0  0
 45 44  1  0  0  0  0
 47 44  1  0  0  0  0
 48 56  1  0  0  0  0
 49  2  1  0  0  0  0
 52  5  2  0  0  0  0
 53 55  1  0  0  0  0
 53  3  1  0  0  0  0
 54 53  1  0  0  0  0
 56  1  1  0  0  0  0
 56 58  1  0  0  0  0
 57 20  1  0  0  0  0
 57 56  1  0  0  0  0
 58 27  1  0  0  0  0
 58 34  1  0  0  0  0
M  END
$$$$
