CSD_code = TUSQUV | q = 0 | S = 0 | Stoichiometry = C17H8BrMnN4O3 | MND = 6
 OpenBabel04212202103D

 34 38  0  0  0  0  0  0  0  0999 V2000
    9.8374   11.2993    9.1378 Br  0  0  0  0  0  0  0  0  0  0  0  0
   12.0345   11.2996    8.0093 Mn  0  0  0  0  0  0  0  0  0  0  0  0
   11.1872    9.9815    6.7072 N   0  0  0  0  0  0  0  0  0  0  0  0
   12.9551   13.2958    9.9538 O   0  0  0  0  0  1  0  0  0  0  0  0
   11.1909    8.6548    6.7416 C   0  0  0  0  0  0  0  0  0  0  0  0
   11.8048    8.1871    7.5010 H   0  0  0  0  0  0  0  0  0  0  0  0
   10.4474    7.8670    5.8686 C   0  0  0  0  0  0  0  0  0  0  0  0
   10.4908    6.7937    5.9602 H   0  0  0  0  0  0  0  0  0  0  0  0
    9.6628    8.4684    4.9069 C   0  0  0  0  0  0  0  0  0  0  0  0
    9.0644    7.9039    4.2101 H   0  0  0  0  0  0  0  0  0  0  0  0
    9.6458    9.8635    4.8463 C   0  0  0  0  0  0  0  0  0  0  0  0
   10.4231   10.5809    5.7708 C   0  0  0  0  0  0  0  0  0  0  0  0
    8.8576   10.5941    3.8827 C   0  0  0  0  0  0  0  0  0  0  0  0
    8.1321    9.9099    2.9915 N   0  0  0  0  0  0  0  0  0  0  0  0
    7.4222   10.5998    2.1278 C   0  0  0  0  0  0  0  0  0  0  0  0
    6.8417   10.0289    1.4167 H   0  0  0  0  0  0  0  0  0  0  0  0
   12.5970   12.5378    9.1697 C   0  0  0  0  0  2  0  0  0  0  0  0
   14.5995   11.3011    6.6018 O   0  0  0  0  0  1  0  0  0  0  0  0
   13.5848   11.3004    7.1432 C   0  0  0  0  0  2  0  0  0  0  0  0
   11.1871   12.6177    6.7073 N   0  0  0  0  0  0  0  0  0  0  0  0
   11.1909   13.9445    6.7417 C   0  0  0  0  0  0  0  0  0  0  0  0
   11.8047   14.4121    7.5013 H   0  0  0  0  0  0  0  0  0  0  0  0
   10.4477   14.7323    5.8685 C   0  0  0  0  0  0  0  0  0  0  0  0
   10.4912   15.8056    5.9600 H   0  0  0  0  0  0  0  0  0  0  0  0
    9.6632   14.1309    4.9066 C   0  0  0  0  0  0  0  0  0  0  0  0
    9.0651   14.6955    4.2098 H   0  0  0  0  0  0  0  0  0  0  0  0
    9.6460   12.7358    4.8462 C   0  0  0  0  0  0  0  0  0  0  0  0
   10.4231   12.0183    5.7708 C   0  0  0  0  0  0  0  0  0  0  0  0
    8.8578   12.0052    3.8826 C   0  0  0  0  0  0  0  0  0  0  0  0
    8.1326   12.6895    2.9912 N   0  0  0  0  0  0  0  0  0  0  0  0
    7.4225   11.9996    2.1275 C   0  0  0  0  0  0  0  0  0  0  0  0
    6.8424   12.5705    1.4161 H   0  0  0  0  0  0  0  0  0  0  0  0
   12.9555    9.3033    9.9534 O   0  0  0  0  0  1  0  0  0  0  0  0
   12.5972   10.0614    9.1695 C   0  0  0  0  0  2  0  0  0  0  0  0
  2  1  1  0  0  0  0
  2 34  1  0  0  0  0
  2 17  1  0  0  0  0
  3  5  1  0  0  0  0
  3  2  1  0  0  0  0
  5  6  1  0  0  0  0
  7  8  1  0  0  0  0
  7  5  2  0  0  0  0
  9  7  1  0  0  0  0
 10  9  1  0  0  0  0
 11  9  2  0  0  0  0
 11 12  1  0  0  0  0
 12  3  1  0  0  0  0
 13 11  1  0  0  0  0
 14 13  2  0  0  0  0
 15 14  1  0  0  0  0
 16 15  1  0  0  0  0
 17  4  1  0  0  0  0
 18 19  1  0  0  0  0
 19  2  1  0  0  0  0
 20 21  1  0  0  0  0
 20  2  1  0  0  0  0
 21 22  1  0  0  0  0
 23 24  1  0  0  0  0
 23 21  2  0  0  0  0
 25 23  1  0  0  0  0
 26 25  1  0  0  0  0
 27 25  2  0  0  0  0
 27 28  1  0  0  0  0
 28 12  2  0  0  0  0
 28 20  1  0  0  0  0
 29 13  1  0  0  0  0
 29 27  1  0  0  0  0
 30 29  2  0  0  0  0
 31 15  2  0  0  0  0
 31 30  1  0  0  0  0
 32 31  1  0  0  0  0
 34 33  1  0  0  0  0
M  END
$$$$
