CSD_code = TUSSEG | q = 0 | S = 0 | Stoichiometry = C33H25Cl2N3OPRh | MND = 6
 OpenBabel04212202103D

 66 73  0  0  0  0  0  0  0  0999 V2000
    1.1634    7.1947    5.9775 C   0  0  0  0  0  3  0  0  0  0  0  0
    1.1773    6.1604    6.2953 H   0  0  0  0  0  0  0  0  0  0  0  0
    1.4060    7.5588    4.6663 C   0  0  0  0  0  0  0  0  0  0  0  0
    1.6263    6.8014    3.9327 H   0  0  0  0  0  0  0  0  0  0  0  0
    1.3497    8.9045    4.3184 C   0  0  0  0  0  0  0  0  0  0  0  0
    1.5362    9.2146    3.3014 H   0  0  0  0  0  0  0  0  0  0  0  0
    1.0364    9.8371    5.2821 C   0  0  0  0  0  0  0  0  0  0  0  0
    0.9551   10.8886    5.0625 H   0  0  0  0  0  0  0  0  0  0  0  0
    0.7899    9.4089    6.5917 C   0  0  0  0  0  0  0  0  0  0  0  0
   -0.2031   10.3952    9.8000 C   0  0  0  0  0  0  0  0  0  0  0  0
   -0.4135    9.4985   10.9037 C   0  0  0  0  0  0  0  0  0  0  0  0
   -0.8120   10.0471   12.1607 C   0  0  0  0  0  0  0  0  0  0  0  0
   -0.9839    9.3574   12.9725 H   0  0  0  0  0  0  0  0  0  0  0  0
   -0.9549   11.3847   12.3087 C   0  0  0  0  0  0  0  0  0  0  0  0
   -1.2494   11.7942   13.2650 H   0  0  0  0  0  0  0  0  0  0  0  0
   -0.7280   12.2975   11.2384 C   0  0  0  0  0  0  0  0  0  0  0  0
   -0.8601   13.6790   11.4363 C   0  0  0  0  0  0  0  0  0  0  0  0
   -1.1381   14.0391   12.4166 H   0  0  0  0  0  0  0  0  0  0  0  0
   -0.6428   14.5632   10.4076 C   0  0  0  0  0  0  0  0  0  0  0  0
   -0.7461   15.6256   10.5708 H   0  0  0  0  0  0  0  0  0  0  0  0
   -0.2943   14.0829    9.1463 C   0  0  0  0  0  0  0  0  0  0  0  0
   -0.1323   14.7791    8.3365 H   0  0  0  0  0  0  0  0  0  0  0  0
   -0.1580   12.7323    8.9217 C   0  0  0  0  0  0  0  0  0  0  0  0
    0.1062   12.3646    7.9442 H   0  0  0  0  0  0  0  0  0  0  0  0
   -0.3637   11.8119    9.9584 C   0  0  0  0  0  0  0  0  0  0  0  0
    2.8247    9.6442   10.3175 C   0  0  0  0  0  0  0  0  0  0  0  0
    2.6913    9.8898   11.6802 C   0  0  0  0  0  0  0  0  0  0  0  0
    2.5744    9.0597   12.3632 H   0  0  0  0  0  0  0  0  0  0  0  0
    2.6997   11.1892   12.1563 C   0  0  0  0  0  0  0  0  0  0  0  0
    2.5899   11.3716   13.2149 H   0  0  0  0  0  0  0  0  0  0  0  0
    2.8348   12.2517   11.2795 C   0  0  0  0  0  0  0  0  0  0  0  0
    2.8281   13.2652   11.6510 H   0  0  0  0  0  0  0  0  0  0  0  0
    2.9652   12.0148    9.9200 C   0  0  0  0  0  0  0  0  0  0  0  0
    3.0614   12.8423    9.2333 H   0  0  0  0  0  0  0  0  0  0  0  0
    2.9497   10.7204    9.4383 C   0  0  0  0  0  0  0  0  0  0  0  0
    3.0199   10.5388    8.3731 H   0  0  0  0  0  0  0  0  0  0  0  0
    3.9030    7.6721    8.4730 C   0  0  0  0  0  0  0  0  0  0  0  0
    4.9818    8.5311    8.2915 C   0  0  0  0  0  0  0  0  0  0  0  0
    5.0673    9.4352    8.8773 H   0  0  0  0  0  0  0  0  0  0  0  0
    5.9617    8.2172    7.3655 C   0  0  0  0  0  0  0  0  0  0  0  0
    6.7979    8.8872    7.2267 H   0  0  0  0  0  0  0  0  0  0  0  0
    5.8766    7.0506    6.6241 C   0  0  0  0  0  0  0  0  0  0  0  0
    6.6426    6.8161    5.8999 H   0  0  0  0  0  0  0  0  0  0  0  0
    4.8160    6.1805    6.8227 C   0  0  0  0  0  0  0  0  0  0  0  0
    4.7577    5.2608    6.2600 H   0  0  0  0  0  0  0  0  0  0  0  0
    3.8330    6.4854    7.7453 C   0  0  0  0  0  0  0  0  0  0  0  0
    3.0080    5.8088    7.9273 H   0  0  0  0  0  0  0  0  0  0  0  0
    4.3380    6.6968   11.3482 C   0  0  0  0  0  0  0  0  0  0  0  0
    5.1020    7.1686   10.7454 H   0  0  0  0  0  0  0  0  0  0  0  0
    2.9927    6.8880   11.0428 C   0  0  0  0  0  0  0  0  0  0  0  0
    2.0100    6.2821   11.8171 C   0  0  0  0  0  0  0  0  0  0  0  0
    0.9677    6.4284   11.5755 H   0  0  0  0  0  0  0  0  0  0  0  0
    2.3750    5.4839   12.8871 C   0  0  0  0  0  0  0  0  0  0  0  0
    1.6116    5.0074   13.4838 H   0  0  0  0  0  0  0  0  0  0  0  0
    3.7128    5.2899   13.1879 C   0  0  0  0  0  0  0  0  0  0  0  0
    3.9948    4.6613   14.0198 H   0  0  0  0  0  0  0  0  0  0  0  0
    4.6927    5.8991   12.4198 C   0  0  0  0  0  0  0  0  0  0  0  0
    5.7364    5.7484   12.6540 H   0  0  0  0  0  0  0  0  0  0  0  0
    0.8886    8.0882    6.9171 N   0  0  0  0  0  0  0  0  0  0  0  0
    0.4430   10.2956    7.5542 N   0  0  0  0  0  2  0  0  0  0  0  0
    0.1868    9.7445    8.6921 N   0  0  0  0  0  0  0  0  0  0  0  0
    2.5508    7.9709    9.6532 P   0  0  0  0  0  4  0  0  0  0  0  0
    0.7265    5.5738    8.8827 Cl  0  0  0  0  0  0  0  0  0  0  0  0
   -1.7759    7.6384    8.0902 Cl  0  0  0  0  0  0  0  0  0  0  0  0
    0.4058    7.8694    8.8211 Rh  0  0  0  0  0  0  0  0  0  0  0  0
   -0.2231    8.2472   10.7728 O   0  0  0  0  0  0  0  0  0  0  0  0
  1  2  1  0  0  0  0
  1 59  1  0  0  0  0
  3  1  1  0  0  0  0
  4  3  1  0  0  0  0
  5  3  2  0  0  0  0
  5  7  1  0  0  0  0
  6  5  1  0  0  0  0
  7  9  2  0  0  0  0
  8  7  1  0  0  0  0
  9 59  1  0  0  0  0
  9 60  1  0  0  0  0
 10 25  2  0  0  0  0
 10 11  1  0  0  0  0
 11 12  2  0  0  0  0
 12 14  1  0  0  0  0
 12 13  1  0  0  0  0
 14 15  1  0  0  0  0
 16 17  1  0  0  0  0
 16 14  2  0  0  0  0
 17 18  1  0  0  0  0
 19 20  1  0  0  0  0
 19 17  2  0  0  0  0
 21 19  1  0  0  0  0
 22 21  1  0  0  0  0
 23 21  2  0  0  0  0
 23 25  1  0  0  0  0
 24 23  1  0  0  0  0
 25 16  1  0  0  0  0
 26 27  1  0  0  0  0
 27 29  2  0  0  0  0
 27 28  1  0  0  0  0
 29 30  1  0  0  0  0
 31 32  1  0  0  0  0
 31 29  1  0  0  0  0
 33 31  2  0  0  0  0
 34 33  1  0  0  0  0
 35 33  1  0  0  0  0
 35 26  2  0  0  0  0
 36 35  1  0  0  0  0
 37 62  1  0  0  0  0
 38 37  1  0  0  0  0
 38 39  1  0  0  0  0
 40 38  2  0  0  0  0
 41 40  1  0  0  0  0
 42 44  2  0  0  0  0
 42 40  1  0  0  0  0
 43 42  1  0  0  0  0
 44 46  1  0  0  0  0
 45 44  1  0  0  0  0
 46 47  1  0  0  0  0
 46 37  2  0  0  0  0
 48 57  1  0  0  0  0
 49 48  1  0  0  0  0
 50 48  2  0  0  0  0
 50 51  1  0  0  0  0
 51 53  2  0  0  0  0
 52 51  1  0  0  0  0
 53 55  1  0  0  0  0
 53 54  1  0  0  0  0
 55 56  1  0  0  0  0
 57 58  1  0  0  0  0
 57 55  2  0  0  0  0
 59 65  1  0  0  0  0
 60 61  1  0  0  0  0
 61 65  1  0  0  0  0
 61 10  1  0  0  0  0
 62 26  1  0  0  0  0
 62 50  1  0  0  0  0
 64 65  1  0  0  0  0
 65 63  1  0  0  0  0
 65 62  1  0  0  0  0
 65 66  1  0  0  0  0
 66 11  1  0  0  0  0
M  END
$$$$
