CSD_code = TUTBAM | q = 0 | S = 0 | Stoichiometry = C20H24Br2N4Zn | MND = 4
 OpenBabel04212202103D

 51 54  0  0  0  0  0  0  0  0999 V2000
    4.7136   13.1074    0.5689 Zn  0  0  0  0  0  0  0  0  0  0  0  0
    4.6588   15.2640   -0.4382 Br  0  0  0  0  0  0  0  0  0  0  0  0
    3.2004   11.5936    1.5249 Br  0  0  0  0  0  0  0  0  0  0  0  0
    5.5741   12.4284   -2.2842 C   0  0  0  0  0  3  0  0  0  0  0  0
    5.2531   13.4026   -2.6040 H   0  0  0  0  0  0  0  0  0  0  0  0
    6.0761   11.6082   -4.5751 C   0  0  0  0  0  0  0  0  0  0  0  0
    6.9851   11.1158   -4.9331 H   0  0  0  0  0  0  0  0  0  0  0  0
    6.1267   12.6680   -4.8380 H   0  0  0  0  0  0  0  0  0  0  0  0
    7.0676    8.2627   -1.6767 C   0  0  0  0  0  0  0  0  0  0  0  0
    7.4557    7.2784   -1.8904 H   0  0  0  0  0  0  0  0  0  0  0  0
    5.5803   12.0329   -1.0361 N   0  0  0  0  0  0  0  0  0  0  0  0
    9.3563   15.1985    2.5898 C   0  0  0  0  0  0  0  0  0  0  0  0
   10.2793   14.6761    2.8576 H   0  0  0  0  0  0  0  0  0  0  0  0
    9.4878   15.6585    1.6069 H   0  0  0  0  0  0  0  0  0  0  0  0
    6.3950   13.3024    1.8291 N   0  0  0  0  0  0  0  0  0  0  0  0
    6.8567    9.1445   -2.7164 C   0  0  0  0  0  0  0  0  0  0  0  0
    7.0728    8.8714   -3.7378 H   0  0  0  0  0  0  0  0  0  0  0  0
    6.8685   12.5748    2.8981 C   0  0  0  0  0  0  0  0  0  0  0  0
    8.0761   13.1607    3.3331 C   0  0  0  0  0  0  0  0  0  0  0  0
    8.2938   14.2327    2.4982 N   0  0  0  0  0  0  0  0  0  0  0  0
    6.3509   10.3939   -2.3874 C   0  0  0  0  0  0  0  0  0  0  0  0
    4.8441   10.9679   -5.2220 C   0  0  0  0  0  0  0  0  0  0  0  0
    4.7810    9.9218   -4.9149 H   0  0  0  0  0  0  0  0  0  0  0  0
    3.9480   11.4762   -4.8605 H   0  0  0  0  0  0  0  0  0  0  0  0
    6.0320   11.5002   -3.1411 N   0  0  0  0  0  0  0  0  0  0  0  0
    8.7942   12.6449    4.4022 C   0  0  0  0  0  0  0  0  0  0  0  0
    9.7156   13.0968    4.7361 H   0  0  0  0  0  0  0  0  0  0  0  0
    6.3527   11.4556    3.5436 C   0  0  0  0  0  0  0  0  0  0  0  0
    5.4169   11.0134    3.2425 H   0  0  0  0  0  0  0  0  0  0  0  0
    6.0659   10.7467   -1.0519 C   0  0  0  0  0  0  0  0  0  0  0  0
    6.2889    9.8480   -0.0157 C   0  0  0  0  0  0  0  0  0  0  0  0
    6.0701   10.1113    1.0058 H   0  0  0  0  0  0  0  0  0  0  0  0
    7.2623   14.2650    1.6393 C   0  0  0  0  0  3  0  0  0  0  0  0
    7.1715   15.0147    0.8755 H   0  0  0  0  0  0  0  0  0  0  0  0
    7.0745   10.9492    4.6031 C   0  0  0  0  0  0  0  0  0  0  0  0
    6.7010   10.0831    5.1272 H   0  0  0  0  0  0  0  0  0  0  0  0
   10.1644   17.3028    3.7123 C   0  0  0  0  0  0  0  0  0  0  0  0
   11.0996   16.8272    3.9998 H   0  0  0  0  0  0  0  0  0  0  0  0
    9.9254   18.0635    4.4502 H   0  0  0  0  0  0  0  0  0  0  0  0
   10.3075   17.7909    2.7511 H   0  0  0  0  0  0  0  0  0  0  0  0
    8.2735   11.5292    5.0240 C   0  0  0  0  0  0  0  0  0  0  0  0
    8.8000   11.0975    5.8616 H   0  0  0  0  0  0  0  0  0  0  0  0
    9.0416   16.2780    3.6300 C   0  0  0  0  0  0  0  0  0  0  0  0
    8.8958   15.8063    4.6041 H   0  0  0  0  0  0  0  0  0  0  0  0
    8.1084   16.7735    3.3548 H   0  0  0  0  0  0  0  0  0  0  0  0
    6.7887    8.6087   -0.3521 C   0  0  0  0  0  0  0  0  0  0  0  0
    6.9675    7.8825    0.4258 H   0  0  0  0  0  0  0  0  0  0  0  0
    4.9127   11.0594   -6.7400 C   0  0  0  0  0  0  0  0  0  0  0  0
    4.9587   12.0979   -7.0593 H   0  0  0  0  0  0  0  0  0  0  0  0
    4.0326   10.6030   -7.1840 H   0  0  0  0  0  0  0  0  0  0  0  0
    5.7936   10.5443   -7.1169 H   0  0  0  0  0  0  0  0  0  0  0  0
  1  3  1  0  0  0  0
  1 15  1  0  0  0  0
  2  1  1  0  0  0  0
  4 11  1  0  0  0  0
  5  4  1  0  0  0  0
  6 25  1  0  0  0  0
  7  6  1  0  0  0  0
  8  6  1  0  0  0  0
  9 46  1  0  0  0  0
 10  9  1  0  0  0  0
 11  1  1  0  0  0  0
 12 13  1  0  0  0  0
 12 43  1  0  0  0  0
 14 12  1  0  0  0  0
 15 18  1  0  0  0  0
 16 21  1  0  0  0  0
 16  9  2  0  0  0  0
 17 16  1  0  0  0  0
 18 19  2  0  0  0  0
 18 28  1  0  0  0  0
 19 26  1  0  0  0  0
 20 12  1  0  0  0  0
 20 19  1  0  0  0  0
 21 30  2  0  0  0  0
 22 23  1  0  0  0  0
 22 24  1  0  0  0  0
 22  6  1  0  0  0  0
 25 21  1  0  0  0  0
 25  4  1  0  0  0  0
 26 27  1  0  0  0  0
 26 41  2  0  0  0  0
 28 35  2  0  0  0  0
 29 28  1  0  0  0  0
 30 11  1  0  0  0  0
 30 31  1  0  0  0  0
 31 32  1  0  0  0  0
 33 15  1  0  0  0  0
 33 20  1  0  0  0  0
 34 33  1  0  0  0  0
 35 41  1  0  0  0  0
 35 36  1  0  0  0  0
 37 38  1  0  0  0  0
 37 39  1  0  0  0  0
 40 37  1  0  0  0  0
 41 42  1  0  0  0  0
 43 37  1  0  0  0  0
 43 44  1  0  0  0  0
 45 43  1  0  0  0  0
 46 31  2  0  0  0  0
 46 47  1  0  0  0  0
 48 22  1  0  0  0  0
 49 48  1  0  0  0  0
 50 48  1  0  0  0  0
 51 48  1  0  0  0  0
M  END
$$$$
