CSD_code = TUTCUG | q = 0 | S = 0 | Stoichiometry = C17H13BrN3O4Re | MND = 6
 OpenBabel04212202103D

 39 41  0  0  1  0  0  0  0  0999 V2000
    0.4555    0.4676   10.3890 Re  0  0  0  0  0  0  0  0  0  0  0  0
    1.2446    1.3976   12.6731 Br  0  0  0  0  0  0  0  0  0  0  0  0
   -0.9618    1.7925   10.2539 C   0  0  0  0  0  2  0  0  0  0  0  0
   -1.8101    2.5642   10.2597 O   0  0  0  0  0  1  0  0  0  0  0  0
    0.0238   -0.3326    8.6697 C   0  0  0  0  0  2  0  0  0  0  0  0
   -0.2231   -0.8217    7.6681 O   0  0  0  0  0  1  0  0  0  0  0  0
    1.7048    1.7532    9.5967 C   0  0  0  0  0  2  0  0  0  0  0  0
    2.4743    2.5300    9.2675 O   0  0  0  0  0  1  0  0  0  0  0  0
    1.8886   -1.0900   10.9510 N   0  0  0  0  0  0  0  0  0  0  0  0
    3.2058   -1.0142   10.6508 N   0  0  0  0  0  0  0  0  0  0  0  0
    3.8826   -1.2810   11.3571 H   0  0  0  0  0  0  0  0  0  0  0  0
   -0.6416   -0.9527   11.5326 N   0  0  0  0  0  0  0  0  0  0  0  0
   -1.9455   -0.8634   11.7912 C   0  0  0  0  0  3  0  0  0  0  0  0
   -2.4913   -0.1043   11.2457 H   0  0  0  0  0  0  0  0  0  0  0  0
   -2.5977   -1.6679   12.7034 C   0  0  0  0  0  0  0  0  0  0  0  0
   -3.6535   -1.5401   12.8767 H   0  0  0  0  0  0  0  0  0  0  0  0
   -1.8624   -2.6235   13.3935 C   0  0  0  0  0  0  0  0  0  0  0  0
   -2.3311   -3.2605   14.1273 H   0  0  0  0  0  0  0  0  0  0  0  0
   -0.5155   -2.7401   13.1245 C   0  0  0  0  0  0  0  0  0  0  0  0
    0.0722   -3.4702   13.6552 H   0  0  0  0  0  0  0  0  0  0  0  0
    0.0811   -1.8963   12.1825 C   0  0  0  0  0  0  0  0  0  0  0  0
    1.4933   -1.9431   11.8471 C   0  0  2  0  0  3  0  0  0  0  0  0
    2.4479   -2.8850   12.5154 C   0  0  0  0  0  0  0  0  0  0  0  0
    3.1485   -3.2948   11.7861 H   0  0  0  0  0  0  0  0  0  0  0  0
    3.0115   -2.3625   13.2918 H   0  0  0  0  0  0  0  0  0  0  0  0
    1.9295   -3.7159   12.9799 H   0  0  0  0  0  0  0  0  0  0  0  0
    3.6449   -0.5000    9.4503 C   0  0  0  0  0  0  0  0  0  0  0  0
    2.8731   -0.2947    8.5357 O   0  0  0  0  0  0  0  0  0  0  0  0
    5.1035   -0.2579    9.3895 C   0  0  0  0  0  0  0  0  0  0  0  0
    5.7396   -0.3872    8.1572 C   0  0  0  0  0  0  0  0  0  0  0  0
    5.1515   -0.6772    7.2999 H   0  0  0  0  0  0  0  0  0  0  0  0
    7.0958   -0.1470    8.0478 C   0  0  0  0  0  0  0  0  0  0  0  0
    7.5868   -0.2551    7.0927 H   0  0  0  0  0  0  0  0  0  0  0  0
    7.8222    0.2423    9.1621 C   0  0  0  0  0  0  0  0  0  0  0  0
    8.8810    0.4355    9.0765 H   0  0  0  0  0  0  0  0  0  0  0  0
    7.1887    0.4009   10.3840 C   0  0  0  0  0  0  0  0  0  0  0  0
    7.7501    0.7276   11.2464 H   0  0  0  0  0  0  0  0  0  0  0  0
    5.8339    0.1498   10.5038 C   0  0  0  0  0  0  0  0  0  0  0  0
    5.3464    0.3198   11.4535 H   0  0  0  0  0  0  0  0  0  0  0  0
  1  9  1  0  0  0  0
  1 12  1  0  0  0  0
  1  2  1  0  0  0  0
  3  4  1  0  0  0  0
  3  1  1  0  0  0  0
  5  1  1  0  0  0  0
  6  5  1  0  0  0  0
  7  1  1  0  0  0  0
  8  7  1  0  0  0  0
  9 22  1  0  0  0  0
 10  9  1  0  0  0  0
 10 11  1  0  0  0  0
 12 13  1  0  0  0  0
 12 21  1  0  0  0  0
 13 15  1  0  0  0  0
 14 13  1  0  0  0  0
 15 16  1  0  0  0  0
 15 17  2  0  0  0  0
 17 18  1  0  0  0  0
 19 17  1  0  0  0  0
 19 20  1  0  0  0  0
 21 19  2  0  0  0  0
 22 21  1  0  0  0  0
 22 23  1  1  0  0  0
 23 26  1  0  0  0  0
 23 25  1  0  0  0  0
 24 23  1  0  0  0  0
 27 10  1  0  0  0  0
 28 27  2  0  0  0  0
 29 27  1  0  0  0  0
 29 38  1  0  0  0  0
 30 29  2  0  0  0  0
 31 30  1  0  0  0  0
 32 30  1  0  0  0  0
 32 34  2  0  0  0  0
 33 32  1  0  0  0  0
 34 36  1  0  0  0  0
 35 34  1  0  0  0  0
 36 38  2  0  0  0  0
 36 37  1  0  0  0  0
 38 39  1  0  0  0  0
M  END
$$$$
