CSD_code = TUTFAP | q = 0 | S = 0 | Stoichiometry = C17H11BrN3O4Re | MND = 6
 OpenBabel04212202103D

 37 39  0  0  0  0  0  0  0  0999 V2000
    1.2857   13.6696    7.7591 Re  0  0  0  0  0  0  0  0  0  0  0  0
   -0.9145   14.2378    6.6011 Br  0  0  0  0  0  0  0  0  0  0  0  0
    0.5067   11.9782    8.3514 C   0  0  0  0  0  2  0  0  0  0  0  0
   -0.0373   11.0343    8.6978 O   0  0  0  0  0  1  0  0  0  0  0  0
    1.9573   12.8818    6.1016 C   0  0  0  0  0  2  0  0  0  0  0  0
    2.3325   12.5341    5.0790 O   0  0  0  0  0  1  0  0  0  0  0  0
    2.9573   13.3758    8.6988 C   0  0  0  0  0  2  0  0  0  0  0  0
    3.9579   13.2305    9.2423 O   0  0  0  0  0  1  0  0  0  0  0  0
    0.4830   14.9101    9.3530 N   0  0  0  0  0  0  0  0  0  0  0  0
   -0.2653   14.5113   10.3764 C   0  0  0  0  0  3  0  0  0  0  0  0
   -0.8715   15.3906   11.2544 C   0  0  0  0  0  0  0  0  0  0  0  0
   -0.6959   16.7569   11.0687 C   0  0  0  0  0  0  0  0  0  0  0  0
    0.0784   17.1845   10.0108 C   0  0  0  0  0  0  0  0  0  0  0  0
    0.6534   16.2363    9.1612 C   0  0  0  0  0  0  0  0  0  0  0  0
    1.4482   16.6105    8.0238 C   0  0  0  0  0  3  0  0  0  0  0  0
    1.8947   15.6694    7.2560 N   0  0  0  0  0  0  0  0  0  0  0  0
    2.4717   15.9063    6.1094 N   0  0  0  0  0  0  0  0  0  0  0  0
    3.6851   15.7308    5.7813 C   0  0  0  0  0  0  0  0  0  0  0  0
    4.1147   15.8600    4.4081 C   0  0  0  0  0  0  0  0  0  0  0  0
    3.1950   16.1304    3.3878 C   0  0  0  0  0  0  0  0  0  0  0  0
    3.6233   16.2381    2.0845 C   0  0  0  0  0  0  0  0  0  0  0  0
    4.9758   16.0769    1.7699 C   0  0  0  0  0  0  0  0  0  0  0  0
    5.8922   15.8011    2.7854 C   0  0  0  0  0  0  0  0  0  0  0  0
    5.4668   15.6953    4.0919 C   0  0  0  0  0  0  0  0  0  0  0  0
    5.4231   16.1994    0.3747 C   0  0  0  0  0  0  0  0  0  0  0  0
    4.7148   16.4720   -0.5589 O   0  0  0  0  0  0  0  0  0  0  0  0
   -0.3863   13.4425   10.4968 H   0  0  0  0  0  0  0  0  0  0  0  0
   -1.4715   15.0106   12.0648 H   0  0  0  0  0  0  0  0  0  0  0  0
   -1.1591   17.4682   11.7347 H   0  0  0  0  0  0  0  0  0  0  0  0
    0.2388   18.2334    9.8174 H   0  0  0  0  0  0  0  0  0  0  0  0
    1.6515   17.6553    7.8167 H   0  0  0  0  0  0  0  0  0  0  0  0
    4.4441   15.4676    6.5244 H   0  0  0  0  0  0  0  0  0  0  0  0
    2.1524   16.2449    3.6407 H   0  0  0  0  0  0  0  0  0  0  0  0
    2.9304   16.4449    1.2828 H   0  0  0  0  0  0  0  0  0  0  0  0
    6.9368   15.6713    2.5416 H   0  0  0  0  0  0  0  0  0  0  0  0
    6.1753   15.4800    4.8786 H   0  0  0  0  0  0  0  0  0  0  0  0
    6.5083   16.0196    0.2382 H   0  0  0  0  0  0  0  0  0  0  0  0
  1  3  1  0  0  0  0
  1  7  1  0  0  0  0
  1  9  1  0  0  0  0
  2  1  1  0  0  0  0
  3  4  1  0  0  0  0
  5  1  1  0  0  0  0
  6  5  1  0  0  0  0
  7  8  1  0  0  0  0
  9 10  1  0  0  0  0
 10 27  1  0  0  0  0
 10 11  1  0  0  0  0
 11 28  1  0  0  0  0
 12 11  2  0  0  0  0
 12 29  1  0  0  0  0
 13 12  1  0  0  0  0
 14  9  1  0  0  0  0
 14 13  2  0  0  0  0
 15 14  1  0  0  0  0
 16  1  1  0  0  0  0
 16 15  1  0  0  0  0
 17 16  1  0  0  0  0
 18 17  2  0  0  0  0
 18 32  1  0  0  0  0
 19 18  1  0  0  0  0
 20 33  1  0  0  0  0
 20 19  2  0  0  0  0
 21 20  1  0  0  0  0
 22 21  2  0  0  0  0
 22 23  1  0  0  0  0
 23 24  2  0  0  0  0
 24 19  1  0  0  0  0
 24 36  1  0  0  0  0
 25 22  1  0  0  0  0
 26 25  2  0  0  0  0
 30 13  1  0  0  0  0
 31 15  1  0  0  0  0
 34 21  1  0  0  0  0
 35 23  1  0  0  0  0
 37 25  1  0  0  0  0
M  END
$$$$
