CSD_code = TUTKOK | q = 0 | S = 0 | Stoichiometry = C18H22Cl2N4Ni | MND = 6
 OpenBabel04212202103D

 47 51  0  0  1  0  0  0  0  0999 V2000
    1.7533    3.1278    9.0600 Ni  0  0  0  0  0  0  0  0  0  0  0  0
    2.0012    4.7250   10.4255 Cl  0  0  0  0  0  0  0  0  0  0  0  0
    1.0802    4.4783    7.5804 Cl  0  0  0  0  0  0  0  0  0  0  0  0
    3.9019    2.9672    8.2645 N   0  0  2  0  0  0  0  0  0  0  0  0
    1.6713    1.7567    7.6090 N   0  0  0  0  0  0  0  0  0  0  0  0
   -0.2570    2.6187    9.9801 N   0  0  0  0  0  0  0  0  0  0  0  0
    2.2558    1.8583   10.5301 N   0  0  1  0  0  0  0  0  0  0  0  0
    4.9709    3.6952    8.8700 C   0  0  0  0  0  0  0  0  0  0  0  0
    4.5296    4.5893    9.3236 H   0  0  0  0  0  0  0  0  0  0  0  0
    5.7625    3.9976    8.1711 H   0  0  0  0  0  0  0  0  0  0  0  0
    5.5854    2.8389    9.9876 C   0  0  0  0  0  0  0  0  0  0  0  0
    6.3801    3.4253   10.4531 H   0  0  0  0  0  0  0  0  0  0  0  0
    6.0401    1.9457    9.5491 H   0  0  0  0  0  0  0  0  0  0  0  0
    4.5816    2.4343   11.0670 C   0  0  0  0  0  0  0  0  0  0  0  0
    4.0094    3.3175   11.3574 H   0  0  0  0  0  0  0  0  0  0  0  0
    5.1349    2.0845   11.9406 H   0  0  0  0  0  0  0  0  0  0  0  0
    3.5911    1.3281   10.6317 C   0  0  0  0  0  0  0  0  0  0  0  0
    3.8723    0.9595    9.6425 H   0  0  0  0  0  0  0  0  0  0  0  0
    3.6416    0.4925   11.3380 H   0  0  0  0  0  0  0  0  0  0  0  0
    2.6595    1.8014    6.7029 C   0  0  2  0  0  3  0  0  0  0  0  0
    2.6072    1.0369    5.5400 C   0  0  0  0  0  0  0  0  0  0  0  0
    3.4210    1.0653    4.8334 H   0  0  0  0  0  0  0  0  0  0  0  0
    1.5045    0.2358    5.3031 C   0  0  0  0  0  0  0  0  0  0  0  0
    1.4404   -0.3543    4.4008 H   0  0  0  0  0  0  0  0  0  0  0  0
    0.4870    0.2100    6.2426 C   0  0  0  0  0  0  0  0  0  0  0  0
   -0.3962   -0.3910    6.0951 H   0  0  0  0  0  0  0  0  0  0  0  0
    0.6232    0.9823    7.3855 C   0  0  0  0  0  0  0  0  0  0  0  0
   -0.1451    0.9899    8.1473 H   0  0  0  0  0  0  0  0  0  0  0  0
    3.8037    2.6780    7.0294 C   0  0  2  0  0  3  0  0  0  0  0  0
    4.6998    3.1186    5.9067 C   0  0  0  0  0  0  0  0  0  0  0  0
    5.2250    4.0322    6.1697 H   0  0  0  0  0  0  0  0  0  0  0  0
    4.1074    3.3118    5.0162 H   0  0  0  0  0  0  0  0  0  0  0  0
    5.4358    2.3457    5.6824 H   0  0  0  0  0  0  0  0  0  0  0  0
    0.0728    2.3190   11.2464 C   0  0  2  0  0  3  0  0  0  0  0  0
   -0.7016    2.7275   12.3275 C   0  0  0  0  0  0  0  0  0  0  0  0
   -0.3939    2.5167   13.3395 H   0  0  0  0  0  0  0  0  0  0  0  0
   -1.8480    3.4666   12.0861 C   0  0  0  0  0  0  0  0  0  0  0  0
   -2.4551    3.8140   12.9090 H   0  0  0  0  0  0  0  0  0  0  0  0
   -2.1923    3.7609   10.7769 C   0  0  0  0  0  0  0  0  0  0  0  0
   -3.0766    4.3338   10.5474 H   0  0  0  0  0  0  0  0  0  0  0  0
   -1.3657    3.3110    9.7589 C   0  0  0  0  0  0  0  0  0  0  0  0
   -1.5861    3.5258    8.7210 H   0  0  0  0  0  0  0  0  0  0  0  0
    1.3599    1.6180   11.4076 C   0  0  2  0  0  3  0  0  0  0  0  0
    1.5236    0.7131   12.5963 C   0  0  0  0  0  0  0  0  0  0  0  0
    1.9412   -0.2457   12.2930 H   0  0  0  0  0  0  0  0  0  0  0  0
    0.5660    0.5285   13.0729 H   0  0  0  0  0  0  0  0  0  0  0  0
    2.1996    1.1665   13.3204 H   0  0  0  0  0  0  0  0  0  0  0  0
  1  6  1  0  0  0  0
  1  2  1  0  0  0  0
  1  7  1  0  0  0  0
  3  1  1  0  0  0  0
  4  8  1  6  0  0  0
  4  1  1  0  0  0  0
  5  1  1  0  0  0  0
  6 34  1  0  0  0  0
  7 17  1  1  0  0  0
  7 43  1  0  0  0  0
  8  9  1  0  0  0  0
  8 11  1  0  0  0  0
 10  8  1  0  0  0  0
 11 12  1  0  0  0  0
 11 14  1  0  0  0  0
 13 11  1  0  0  0  0
 14 15  1  0  0  0  0
 14 16  1  0  0  0  0
 17 14  1  0  0  0  0
 17 19  1  0  0  0  0
 18 17  1  0  0  0  0
 20 21  1  1  0  0  0
 20 29  1  0  0  0  0
 20  5  1  0  0  0  0
 22 21  1  0  0  0  0
 23 21  2  0  0  0  0
 23 25  1  0  0  0  0
 24 23  1  0  0  0  0
 25 27  2  0  0  0  0
 26 25  1  0  0  0  0
 27  5  1  0  0  0  0
 27 28  1  0  0  0  0
 29 30  1  1  0  0  0
 29  4  1  0  0  0  0
 30 31  1  0  0  0  0
 32 30  1  0  0  0  0
 33 30  1  0  0  0  0
 34 43  1  0  0  0  0
 34 35  1  1  0  0  0
 35 36  1  0  0  0  0
 37 35  2  0  0  0  0
 37 38  1  0  0  0  0
 39 37  1  0  0  0  0
 40 39  1  0  0  0  0
 41  6  1  0  0  0  0
 41 39  2  0  0  0  0
 42 41  1  0  0  0  0
 43 44  1  1  0  0  0
 44 46  1  0  0  0  0
 44 47  1  0  0  0  0
 45 44  1  0  0  0  0
M  END
$$$$
