CSD_code = TUTKEY | q = 0 | S = 0 | Stoichiometry = C18H14ClMnN4O3 | MND = 6
 OpenBabel04212202103D

 41 45  0  0  1  0  0  0  0  0999 V2000
   -1.6971   13.2715    8.7705 Mn  0  0  0  0  0  0  0  0  0  0  0  0
   -3.5869   13.3792    9.7272 Cl  0  0  0  0  0  0  0  0  0  0  0  0
    0.2509   16.6812    9.0545 O   0  0  0  0  0  0  0  0  0  0  0  0
   -2.8177   12.0707    5.1254 O   0  0  0  0  0  0  0  0  0  0  0  0
   -0.8232   13.6206   10.4965 N   0  0  0  0  0  0  0  0  0  0  0  0
   -1.2963   15.0548    8.4582 N   0  0  0  0  0  0  0  0  0  0  0  0
   -2.2868   13.3512    6.9886 N   0  0  0  0  0  0  0  0  0  0  0  0
   -1.9630   11.3064    8.4868 N   0  0  0  0  0  0  0  0  0  0  0  0
   -0.7964   12.9370   11.6439 C   0  0  0  0  0  3  0  0  0  0  0  0
   -1.3757   12.0237   11.6705 H   0  0  0  0  0  0  0  0  0  0  0  0
   -0.1101   13.3570   12.7672 C   0  0  0  0  0  0  0  0  0  0  0  0
   -0.1373   12.7588   13.6642 H   0  0  0  0  0  0  0  0  0  0  0  0
    0.5989   14.5515   12.7261 C   0  0  0  0  0  0  0  0  0  0  0  0
    1.1535   14.8990   13.5837 H   0  0  0  0  0  0  0  0  0  0  0  0
    0.5428   15.2947   11.5620 C   0  0  0  0  0  0  0  0  0  0  0  0
    1.0302   16.2519   11.4584 H   0  0  0  0  0  0  0  0  0  0  0  0
   -0.1859   14.8135   10.4834 C   0  0  0  0  0  0  0  0  0  0  0  0
   -0.3743   15.6478    9.2543 C   0  0  0  0  0  0  0  0  0  0  0  0
   -1.7587   15.5982    7.2726 C   0  0  0  0  0  0  0  0  0  0  0  0
   -1.6795   16.9216    6.8542 C   0  0  0  0  0  0  0  0  0  0  0  0
   -1.2368   17.6616    7.5012 H   0  0  0  0  0  0  0  0  0  0  0  0
   -2.1893   17.2632    5.6146 C   0  0  0  0  0  0  0  0  0  0  0  0
   -2.1456   18.2920    5.2898 H   0  0  0  0  0  0  0  0  0  0  0  0
   -2.7617   16.3036    4.7890 C   0  0  0  0  0  0  0  0  0  0  0  0
   -3.1589   16.5940    3.8278 H   0  0  0  0  0  0  0  0  0  0  0  0
   -2.8371   14.9791    5.1797 C   0  0  0  0  0  0  0  0  0  0  0  0
   -3.2820   14.2315    4.5434 H   0  0  0  0  0  0  0  0  0  0  0  0
   -2.3416   14.6144    6.4278 C   0  0  0  0  0  0  0  0  0  0  0  0
   -2.5423   12.2108    6.3101 C   0  0  0  0  0  0  0  0  0  0  0  0
   -2.3902   11.0415    7.2341 C   0  0  1  0  0  3  0  0  0  0  0  0
   -2.6732    9.7567    6.7877 C   0  0  0  0  0  0  0  0  0  0  0  0
   -3.0074    9.6394    5.7684 H   0  0  0  0  0  0  0  0  0  0  0  0
   -2.5288    8.6915    7.6546 C   0  0  0  0  0  0  0  0  0  0  0  0
   -2.7546    7.6835    7.3429 H   0  0  0  0  0  0  0  0  0  0  0  0
   -2.0857    8.9593    8.9441 C   0  0  0  0  0  0  0  0  0  0  0  0
   -1.9574    8.1663    9.6638 H   0  0  0  0  0  0  0  0  0  0  0  0
   -1.8160   10.2650    9.3080 C   0  0  0  0  0  0  0  0  0  0  0  0
   -1.4662   10.4853   10.3072 H   0  0  0  0  0  0  0  0  0  0  0  0
    0.4271   12.8444    7.9446 O   0  0  0  0  0  0  0  0  0  0  0  0
    1.0200   13.6042    8.0141 H   0  0  0  0  0  0  0  0  0  0  0  0
    0.4050   12.5915    7.0122 H   0  0  0  0  0  0  0  0  0  0  0  0
  1  2  1  0  0  0  0
  1  5  1  0  0  0  0
  3 18  2  0  0  0  0
  4 29  2  0  0  0  0
  5  9  1  0  0  0  0
  6  1  1  0  0  0  0
  6 18  1  0  0  0  0
  7  1  1  0  0  0  0
  8  1  1  0  0  0  0
  8 37  1  0  0  0  0
  9 10  1  0  0  0  0
  9 11  1  0  0  0  0
 11 12  1  0  0  0  0
 13 11  2  0  0  0  0
 13 14  1  0  0  0  0
 15 13  1  0  0  0  0
 16 15  1  0  0  0  0
 17  5  1  0  0  0  0
 17 15  2  0  0  0  0
 18 17  1  0  0  0  0
 19  6  1  0  0  0  0
 20 19  1  0  0  0  0
 20 21  1  0  0  0  0
 22 20  2  0  0  0  0
 23 22  1  0  0  0  0
 24 26  2  0  0  0  0
 24 22  1  0  0  0  0
 25 24  1  0  0  0  0
 26 28  1  0  0  0  0
 27 26  1  0  0  0  0
 28  7  1  0  0  0  0
 28 19  2  0  0  0  0
 29  7  1  0  0  0  0
 30 29  1  6  0  0  0
 30  8  1  0  0  0  0
 31 30  1  0  0  0  0
 31 33  2  0  0  0  0
 32 31  1  0  0  0  0
 33 35  1  0  0  0  0
 34 33  1  0  0  0  0
 35 37  2  0  0  0  0
 35 36  1  0  0  0  0
 37 38  1  0  0  0  0
 39 40  1  0  0  0  0
 41 39  1  0  0  0  0
M  END
$$$$
