CSD_code = TUTLUP | q = 0 | S = 0 | Stoichiometry = C12H18Cl2N4NiO2 | MND = 6
 OpenBabel04212202103D

 39 42  0  0  1  0  0  0  0  0999 V2000
   -4.8787    0.4869    2.0361 Ni  0  0  0  0  0  0  0  0  0  0  0  0
   -5.1341    2.6732    1.9648 N   0  0  0  0  0  0  0  0  0  0  0  0
   -3.6135   -0.4873    0.5052 Cl  0  0  0  0  0  0  0  0  0  0  0  0
   -5.1421   -1.4493    3.1532 N   0  0  0  0  0  0  0  0  0  0  0  0
   -4.4507   -2.5971    2.8299 O   0  0  0  0  0  0  0  0  0  0  0  0
   -3.9622   -2.3420    2.0177 H   0  0  0  0  0  0  0  0  0  0  0  0
   -4.5229    3.5041    1.1308 C   0  0  0  0  0  3  0  0  0  0  0  0
   -3.7288    3.0772    0.5315 H   0  0  0  0  0  0  0  0  0  0  0  0
   -6.6137    0.2195    0.9546 Cl  0  0  0  0  0  0  0  0  0  0  0  0
   -3.3852    0.7732    3.0976 N   0  0  0  0  0  0  0  0  0  0  0  0
   -4.8693    4.8397    1.0183 C   0  0  0  0  0  0  0  0  0  0  0  0
   -4.3509    5.4812    0.3241 H   0  0  0  0  0  0  0  0  0  0  0  0
   -2.0983    0.6373    2.6594 O   0  0  0  0  0  0  0  0  0  0  0  0
   -2.2126    0.2038    1.7590 H   0  0  0  0  0  0  0  0  0  0  0  0
   -5.9869    0.9759    3.8947 N   0  0  1  0  0  4  0  0  0  0  0  0
   -5.8920    5.3257    1.8181 C   0  0  0  0  0  0  0  0  0  0  0  0
   -6.1901    6.3622    1.7642 H   0  0  0  0  0  0  0  0  0  0  0  0
   -6.5296    4.4570    2.6867 C   0  0  0  0  0  0  0  0  0  0  0  0
   -7.3354    4.7962    3.3201 H   0  0  0  0  0  0  0  0  0  0  0  0
   -6.1239    3.1288    2.7261 C   0  0  0  0  0  0  0  0  0  0  0  0
   -6.8384    2.1164    3.5845 C   0  0  0  0  0  0  0  0  0  0  0  0
   -7.2384    2.5966    4.4918 H   0  0  0  0  0  0  0  0  0  0  0  0
   -7.6780    1.7515    2.9826 H   0  0  0  0  0  0  0  0  0  0  0  0
   -6.7506   -0.1931    4.3222 C   0  0  0  0  0  0  0  0  0  0  0  0
   -7.6603   -0.2468    3.7153 H   0  0  0  0  0  0  0  0  0  0  0  0
   -7.0467   -0.1231    5.3807 H   0  0  0  0  0  0  0  0  0  0  0  0
   -6.0053   -1.4832    4.0786 C   0  0  1  0  0  3  0  0  0  0  0  0
   -6.3839   -2.6818    4.8845 C   0  0  0  0  0  0  0  0  0  0  0  0
   -5.9822   -3.5763    4.4158 H   0  0  0  0  0  0  0  0  0  0  0  0
   -7.4663   -2.7600    4.9612 H   0  0  0  0  0  0  0  0  0  0  0  0
   -5.9736   -2.6006    5.8911 H   0  0  0  0  0  0  0  0  0  0  0  0
   -4.9307    1.3238    4.8484 C   0  0  0  0  0  0  0  0  0  0  0  0
   -5.0079    0.6971    5.7472 H   0  0  0  0  0  0  0  0  0  0  0  0
   -5.0424    2.3674    5.1729 H   0  0  0  0  0  0  0  0  0  0  0  0
   -3.5438    1.1606    4.2994 C   0  0  1  0  0  3  0  0  0  0  0  0
   -2.3834    1.4589    5.1932 C   0  0  0  0  0  0  0  0  0  0  0  0
   -1.7118    0.6009    5.2098 H   0  0  0  0  0  0  0  0  0  0  0  0
   -2.7067    1.6949    6.2025 H   0  0  0  0  0  0  0  0  0  0  0  0
   -1.8151    2.2953    4.7868 H   0  0  0  0  0  0  0  0  0  0  0  0
  1 10  1  0  0  0  0
  1  4  1  0  0  0  0
  1 15  1  0  0  0  0
  2  1  1  0  0  0  0
  2 20  1  0  0  0  0
  3  1  1  0  0  0  0
  4 27  1  0  0  0  0
  5  4  1  0  0  0  0
  6  5  1  0  0  0  0
  7  2  1  0  0  0  0
  8  7  1  0  0  0  0
  9  1  1  0  0  0  0
 10 35  1  0  0  0  0
 11  7  1  0  0  0  0
 11 16  2  0  0  0  0
 12 11  1  0  0  0  0
 13 10  1  0  0  0  0
 14 13  1  0  0  0  0
 15 21  1  6  0  0  0
 15 24  1  0  0  0  0
 15 32  1  0  0  0  0
 16 18  1  0  0  0  0
 17 16  1  0  0  0  0
 18 20  2  0  0  0  0
 18 19  1  0  0  0  0
 20 21  1  0  0  0  0
 21 22  1  0  0  0  0
 23 21  1  0  0  0  0
 24 26  1  0  0  0  0
 25 24  1  0  0  0  0
 27 24  1  0  0  0  0
 27 28  1  6  0  0  0
 28 30  1  0  0  0  0
 28 31  1  0  0  0  0
 29 28  1  0  0  0  0
 32 34  1  0  0  0  0
 32 33  1  0  0  0  0
 35 32  1  0  0  0  0
 35 36  1  1  0  0  0
 36 37  1  0  0  0  0
 36 38  1  0  0  0  0
 39 36  1  0  0  0  0
M  END
$$$$
