CSD_code = TUWKIF | q = 0 | S = 0 | Stoichiometry = C28H33ClNPPdS | MND = 4
 OpenBabel04212202103D

 66 70  0  0  0  0  0  0  0  0999 V2000
   -1.3913    5.3950    4.0392 Pd  0  0  1  0  0  0  0  0  0  0  0  0
    0.6927    4.5537    3.8892 Cl  0  0  0  0  0  0  0  0  0  0  0  0
   -2.2906    3.4001    4.6928 S   0  0  0  0  0  0  0  0  0  0  0  0
   -0.4013    7.4175    3.6676 P   0  0  0  0  0  4  0  0  0  0  0  0
   -3.3607    6.0467    4.0700 N   0  0  0  0  0  4  0  0  0  0  0  0
   -3.4132    6.9435    4.5694 H   0  0  0  0  0  0  0  0  0  0  0  0
   -3.7278    6.3006    2.6649 C   0  0  0  0  0  0  0  0  0  0  0  0
   -2.9637    6.9317    2.1893 H   0  0  0  0  0  0  0  0  0  0  0  0
   -3.7601    5.3296    2.1521 H   0  0  0  0  0  0  0  0  0  0  0  0
   -5.0910    6.9884    2.5874 C   0  0  0  0  0  0  0  0  0  0  0  0
   -5.0192    7.9727    3.0619 H   0  0  0  0  0  0  0  0  0  0  0  0
   -5.3687    7.1404    1.5433 H   0  0  0  0  0  0  0  0  0  0  0  0
   -6.1427    6.1443    3.3021 C   0  0  0  0  0  0  0  0  0  0  0  0
   -6.2936    5.2129    2.7523 H   0  0  0  0  0  0  0  0  0  0  0  0
   -7.0952    6.6774    3.3327 H   0  0  0  0  0  0  0  0  0  0  0  0
   -5.6766    5.8140    4.7268 C   0  0  0  0  0  0  0  0  0  0  0  0
   -5.5788    6.7490    5.2941 H   0  0  0  0  0  0  0  0  0  0  0  0
   -6.4251    5.2071    5.2266 H   0  0  0  0  0  0  0  0  0  0  0  0
   -4.3340    5.1372    4.6625 C   0  0  0  0  0  0  0  0  0  0  0  0
   -3.9601    3.8769    4.9433 C   0  0  0  0  0  0  0  0  0  0  0  0
   -4.8673    2.7798    5.4937 C   0  0  0  0  0  0  0  0  0  0  0  0
   -4.1027    1.4616    5.6628 C   0  0  0  0  0  0  0  0  0  0  0  0
   -3.2671    1.5816    6.3470 H   0  0  0  0  0  0  0  0  0  0  0  0
   -3.7149    1.1130    4.7093 H   0  0  0  0  0  0  0  0  0  0  0  0
   -4.7701    0.7014    6.0638 H   0  0  0  0  0  0  0  0  0  0  0  0
   -5.3885    3.1819    6.8803 C   0  0  0  0  0  0  0  0  0  0  0  0
   -4.5504    3.3412    7.5552 H   0  0  0  0  0  0  0  0  0  0  0  0
   -6.0081    2.3841    7.2845 H   0  0  0  0  0  0  0  0  0  0  0  0
   -5.9789    4.0923    6.8547 H   0  0  0  0  0  0  0  0  0  0  0  0
   -6.0241    2.5061    4.5222 C   0  0  0  0  0  0  0  0  0  0  0  0
   -6.6955    3.3522    4.4231 H   0  0  0  0  0  0  0  0  0  0  0  0
   -6.6037    1.6559    4.8758 H   0  0  0  0  0  0  0  0  0  0  0  0
   -5.6290    2.2630    3.5381 H   0  0  0  0  0  0  0  0  0  0  0  0
    0.7994    7.5857    5.0279 C   0  0  0  0  0  0  0  0  0  0  0  0
    0.4859    6.8897    6.1964 C   0  0  0  0  0  0  0  0  0  0  0  0
   -0.4143    6.2581    6.2268 H   0  0  0  0  0  0  0  0  0  0  0  0
    1.3251    6.9587    7.2915 C   0  0  0  0  0  0  0  0  0  0  0  0
    1.0841    6.4138    8.1921 H   0  0  0  0  0  0  0  0  0  0  0  0
    2.4865    7.7132    7.2248 C   0  0  0  0  0  0  0  0  0  0  0  0
    3.1485    7.7596    8.0767 H   0  0  0  0  0  0  0  0  0  0  0  0
    2.8082    8.3905    6.0613 C   0  0  0  0  0  0  0  0  0  0  0  0
    3.7225    8.9632    6.0050 H   0  0  0  0  0  0  0  0  0  0  0  0
    1.9680    8.3314    4.9622 C   0  0  0  0  0  0  0  0  0  0  0  0
    2.2363    8.8451    4.0512 H   0  0  0  0  0  0  0  0  0  0  0  0
   -1.4282    8.9152    3.8608 C   0  0  0  0  0  0  0  0  0  0  0  0
   -2.0131    9.5244    2.7526 C   0  0  0  0  0  0  0  0  0  0  0  0
   -1.7517    9.1897    1.7573 H   0  0  0  0  0  0  0  0  0  0  0  0
   -2.9133   10.5609    2.9193 C   0  0  0  0  0  0  0  0  0  0  0  0
   -3.3557   11.0317    2.0535 H   0  0  0  0  0  0  0  0  0  0  0  0
   -3.2504   10.9930    4.1921 C   0  0  0  0  0  0  0  0  0  0  0  0
   -3.9543   11.8016    4.3202 H   0  0  0  0  0  0  0  0  0  0  0  0
   -2.6834   10.3833    5.3003 C   0  0  0  0  0  0  0  0  0  0  0  0
   -2.9455   10.7163    6.2939 H   0  0  0  0  0  0  0  0  0  0  0  0
   -1.7841    9.3456    5.1377 C   0  0  0  0  0  0  0  0  0  0  0  0
   -1.3443    8.8657    6.0025 H   0  0  0  0  0  0  0  0  0  0  0  0
    0.4714    7.7111    2.1057 C   0  0  0  0  0  0  0  0  0  0  0  0
    0.5332    6.6455    1.2126 C   0  0  0  0  0  0  0  0  0  0  0  0
    0.0847    5.6948    1.4947 H   0  0  0  0  0  0  0  0  0  0  0  0
    1.1691    6.8002   -0.0059 C   0  0  0  0  0  0  0  0  0  0  0  0
    1.2227    5.9715   -0.6958 H   0  0  0  0  0  0  0  0  0  0  0  0
    1.7358    8.0198   -0.3393 C   0  0  0  0  0  0  0  0  0  0  0  0
    2.2364    8.1413   -1.2886 H   0  0  0  0  0  0  0  0  0  0  0  0
    1.6534    9.0903    0.5377 C   0  0  0  0  0  0  0  0  0  0  0  0
    2.0837   10.0441    0.2682 H   0  0  0  0  0  0  0  0  0  0  0  0
    1.0174    8.9438    1.7569 C   0  0  0  0  0  0  0  0  0  0  0  0
    0.9263    9.7876    2.4278 H   0  0  0  0  0  0  0  0  0  0  0  0
  1  2  1  6  0  0  0
  1  5  1  0  0  0  0
  1  3  1  0  0  0  0
  3 20  1  0  0  0  0
  4 45  1  0  0  0  0
  4  1  1  0  0  0  0
  4 34  1  0  0  0  0
  5  6  1  0  0  0  0
  5 19  1  0  0  0  0
  7  5  1  0  0  0  0
  8  7  1  0  0  0  0
  9  7  1  0  0  0  0
 10  7  1  0  0  0  0
 10 11  1  0  0  0  0
 10 13  1  0  0  0  0
 12 10  1  0  0  0  0
 13 15  1  0  0  0  0
 13 16  1  0  0  0  0
 14 13  1  0  0  0  0
 16 18  1  0  0  0  0
 16 17  1  0  0  0  0
 19 16  1  0  0  0  0
 19 20  2  0  0  0  0
 20 21  1  0  0  0  0
 21 22  1  0  0  0  0
 21 26  1  0  0  0  0
 22 25  1  0  0  0  0
 22 23  1  0  0  0  0
 24 22  1  0  0  0  0
 26 28  1  0  0  0  0
 26 27  1  0  0  0  0
 29 26  1  0  0  0  0
 30 32  1  0  0  0  0
 30 21  1  0  0  0  0
 31 30  1  0  0  0  0
 33 30  1  0  0  0  0
 34 35  1  0  0  0  0
 35 36  1  0  0  0  0
 35 37  2  0  0  0  0
 37 38  1  0  0  0  0
 39 37  1  0  0  0  0
 39 40  1  0  0  0  0
 41 39  2  0  0  0  0
 42 41  1  0  0  0  0
 43 34  2  0  0  0  0
 43 41  1  0  0  0  0
 44 43  1  0  0  0  0
 45 54  1  0  0  0  0
 46 48  1  0  0  0  0
 46 45  2  0  0  0  0
 47 46  1  0  0  0  0
 48 50  2  0  0  0  0
 49 48  1  0  0  0  0
 50 51  1  0  0  0  0
 50 52  1  0  0  0  0
 52 53  1  0  0  0  0
 54 52  2  0  0  0  0
 54 55  1  0  0  0  0
 56  4  1  0  0  0  0
 57 58  1  0  0  0  0
 57 56  2  0  0  0  0
 59 57  1  0  0  0  0
 60 59  1  0  0  0  0
 61 59  2  0  0  0  0
 61 63  1  0  0  0  0
 62 61  1  0  0  0  0
 63 65  2  0  0  0  0
 64 63  1  0  0  0  0
 65 56  1  0  0  0  0
 65 66  1  0  0  0  0
M  END
$$$$
