CSD_code = TUWKEB | q = 0 | S = 0 | Stoichiometry = C26H26Cl2N2Pd | MND = 4
 OpenBabel04212202103D

 57 60  0  0  0  0  0  0  0  0999 V2000
    9.6899   -1.5906   10.6688 Pd  0  0  0  0  0  0  0  0  0  0  0  0
   10.8237    0.3465   11.1849 Cl  0  0  0  0  0  0  0  0  0  0  0  0
    7.9166   -0.5513   10.8642 N   0  0  0  0  0  4  0  0  0  0  0  0
    8.2072    0.4296   10.9362 H   0  0  0  0  0  0  0  0  0  0  0  0
    7.2912   -0.6672   10.0627 H   0  0  0  0  0  0  0  0  0  0  0  0
    7.2453   -0.9668   12.1088 C   0  0  0  0  0  0  0  0  0  0  0  0
    6.9550   -2.0197   11.9756 H   0  0  0  0  0  0  0  0  0  0  0  0
    8.2912   -0.8845   13.2135 C   0  0  0  0  0  0  0  0  0  0  0  0
    9.1111   -1.9901   13.4596 C   0  0  0  0  0  0  0  0  0  0  0  0
    8.9075   -2.9417   12.9671 H   0  0  0  0  0  0  0  0  0  0  0  0
   10.1410   -1.8921   14.3824 C   0  0  0  0  0  0  0  0  0  0  0  0
   10.7731   -2.7477   14.5754 H   0  0  0  0  0  0  0  0  0  0  0  0
   10.3586   -0.7033   15.0619 C   0  0  0  0  0  0  0  0  0  0  0  0
   11.1702   -0.6265   15.7702 H   0  0  0  0  0  0  0  0  0  0  0  0
    9.5370    0.3845   14.8306 C   0  0  0  0  0  0  0  0  0  0  0  0
    9.7044    1.3115   15.3579 H   0  0  0  0  0  0  0  0  0  0  0  0
    8.5087    0.2972   13.9065 C   0  0  0  0  0  0  0  0  0  0  0  0
    7.8799    1.1560   13.7190 H   0  0  0  0  0  0  0  0  0  0  0  0
    6.0097   -0.1634   12.4502 C   0  0  0  0  0  0  0  0  0  0  0  0
    5.1318   -0.6848   13.3952 C   0  0  0  0  0  0  0  0  0  0  0  0
    5.3463   -1.6463   13.8384 H   0  0  0  0  0  0  0  0  0  0  0  0
    3.9993    0.0137   13.7680 C   0  0  0  0  0  0  0  0  0  0  0  0
    3.3267   -0.4046   14.5017 H   0  0  0  0  0  0  0  0  0  0  0  0
    3.7263    1.2473   13.1998 C   0  0  0  0  0  0  0  0  0  0  0  0
    2.8414    1.7944   13.4877 H   0  0  0  0  0  0  0  0  0  0  0  0
    4.5940    1.7745   12.2610 C   0  0  0  0  0  0  0  0  0  0  0  0
    4.3905    2.7368   11.8148 H   0  0  0  0  0  0  0  0  0  0  0  0
    5.7303    1.0751   11.8882 C   0  0  0  0  0  0  0  0  0  0  0  0
    6.3921    1.5158   11.1557 H   0  0  0  0  0  0  0  0  0  0  0  0
    8.5568   -3.5277   10.1524 Cl  0  0  0  0  0  0  0  0  0  0  0  0
   11.4632   -2.6295   10.4721 N   0  0  0  0  0  4  0  0  0  0  0  0
   11.1724   -3.6104   10.3999 H   0  0  0  0  0  0  0  0  0  0  0  0
   12.0891   -2.5141   11.2733 H   0  0  0  0  0  0  0  0  0  0  0  0
   12.1342   -2.2139    9.2273 C   0  0  0  0  0  0  0  0  0  0  0  0
   12.4244   -1.1610    9.3605 H   0  0  0  0  0  0  0  0  0  0  0  0
   11.0880   -2.2961    8.1228 C   0  0  0  0  0  0  0  0  0  0  0  0
   10.2681   -1.1905    7.8772 C   0  0  0  0  0  0  0  0  0  0  0  0
   10.4720   -0.2391    8.3699 H   0  0  0  0  0  0  0  0  0  0  0  0
    9.2377   -1.2883    6.9549 C   0  0  0  0  0  0  0  0  0  0  0  0
    8.6051   -0.4329    6.7629 H   0  0  0  0  0  0  0  0  0  0  0  0
    9.0196   -2.4771    6.2756 C   0  0  0  0  0  0  0  0  0  0  0  0
    8.2075   -2.5539    5.5679 H   0  0  0  0  0  0  0  0  0  0  0  0
    9.8413   -3.5649    6.5064 C   0  0  0  0  0  0  0  0  0  0  0  0
    9.6734   -4.4919    5.9791 H   0  0  0  0  0  0  0  0  0  0  0  0
   10.8702   -3.4778    7.4298 C   0  0  0  0  0  0  0  0  0  0  0  0
   11.4990   -4.3366    7.6167 H   0  0  0  0  0  0  0  0  0  0  0  0
   13.3699   -3.0171    8.8856 C   0  0  0  0  0  0  0  0  0  0  0  0
   14.2501   -2.4934    7.9442 C   0  0  0  0  0  0  0  0  0  0  0  0
   14.0373   -1.5302    7.5037 H   0  0  0  0  0  0  0  0  0  0  0  0
   15.3828   -3.1916    7.5714 C   0  0  0  0  0  0  0  0  0  0  0  0
   16.0573   -2.7714    6.8405 H   0  0  0  0  0  0  0  0  0  0  0  0
   15.6536   -4.4273    8.1362 C   0  0  0  0  0  0  0  0  0  0  0  0
   16.5388   -4.9741    7.8483 H   0  0  0  0  0  0  0  0  0  0  0  0
   14.7835   -4.9568    9.0714 C   0  0  0  0  0  0  0  0  0  0  0  0
   14.9854   -5.9208    9.5148 H   0  0  0  0  0  0  0  0  0  0  0  0
   13.6471   -4.2577    9.4442 C   0  0  0  0  0  0  0  0  0  0  0  0
   12.9833   -4.7003   10.1738 H   0  0  0  0  0  0  0  0  0  0  0  0
  1  3  1  0  0  0  0
  1  2  1  0  0  0  0
  3  4  1  0  0  0  0
  3  6  1  0  0  0  0
  5  3  1  0  0  0  0
  6 19  1  0  0  0  0
  6  8  1  0  0  0  0
  7  6  1  0  0  0  0
  8  9  2  0  0  0  0
  8 17  1  0  0  0  0
  9 11  1  0  0  0  0
 10  9  1  0  0  0  0
 11 12  1  0  0  0  0
 11 13  2  0  0  0  0
 13 14  1  0  0  0  0
 15 13  1  0  0  0  0
 15 16  1  0  0  0  0
 17 15  2  0  0  0  0
 18 17  1  0  0  0  0
 19 20  1  0  0  0  0
 20 22  2  0  0  0  0
 20 21  1  0  0  0  0
 22 23  1  0  0  0  0
 24 25  1  0  0  0  0
 24 22  1  0  0  0  0
 26 24  2  0  0  0  0
 27 26  1  0  0  0  0
 28 26  1  0  0  0  0
 28 19  2  0  0  0  0
 29 28  1  0  0  0  0
 30  1  1  0  0  0  0
 31  1  1  0  0  0  0
 31 33  1  0  0  0  0
 32 31  1  0  0  0  0
 34 35  1  0  0  0  0
 34 31  1  0  0  0  0
 36 34  1  0  0  0  0
 37 36  1  0  0  0  0
 37 38  1  0  0  0  0
 39 37  2  0  0  0  0
 40 39  1  0  0  0  0
 41 43  2  0  0  0  0
 41 39  1  0  0  0  0
 42 41  1  0  0  0  0
 43 45  1  0  0  0  0
 44 43  1  0  0  0  0
 45 46  1  0  0  0  0
 45 36  2  0  0  0  0
 47 34  1  0  0  0  0
 47 56  1  0  0  0  0
 48 47  2  0  0  0  0
 49 48  1  0  0  0  0
 50 48  1  0  0  0  0
 50 52  2  0  0  0  0
 51 50  1  0  0  0  0
 52 54  1  0  0  0  0
 53 52  1  0  0  0  0
 54 56  2  0  0  0  0
 54 55  1  0  0  0  0
 56 57  1  0  0  0  0
M  END
$$$$
