CSD_code = TUWQOS | q = 0 | S = 0 | Stoichiometry = C26H22Cl2N2O2PRe | MND = 6
 OpenBabel04212202103D

 56 61  0  0  1  0  0  0  0  0999 V2000
    0.8723    7.4053   16.8996 Re  0  0  0  0  0  0  0  0  0  0  0  0
   -0.7145    7.6251   17.3248 O   0  0  0  0  0  1  0  0  0  0  0  0
    0.6932    7.9761   14.6499 Cl  0  0  0  0  0  0  0  0  0  0  0  0
    1.5749    9.5169   17.3909 Cl  0  0  0  0  0  0  0  0  0  0  0  0
    1.5719    6.5482   19.1152 P   0  0  0  0  0  4  0  0  0  0  0  0
    0.5315    7.0217   20.5272 C   0  0  0  0  0  0  0  0  0  0  0  0
   -0.0551    8.2834   20.4889 C   0  0  0  0  0  0  0  0  0  0  0  0
    0.0855    8.9068   19.6151 H   0  0  0  0  0  0  0  0  0  0  0  0
   -0.8211    8.7184   21.5555 C   0  0  0  0  0  0  0  0  0  0  0  0
   -1.2781    9.6956   21.5244 H   0  0  0  0  0  0  0  0  0  0  0  0
   -1.0058    7.8993   22.6578 C   0  0  0  0  0  0  0  0  0  0  0  0
   -1.6067    8.2375   23.4889 H   0  0  0  0  0  0  0  0  0  0  0  0
   -0.4260    6.6412   22.6940 C   0  0  0  0  0  0  0  0  0  0  0  0
   -0.5756    6.0005   23.5509 H   0  0  0  0  0  0  0  0  0  0  0  0
    0.3442    6.1994   21.6337 C   0  0  0  0  0  0  0  0  0  0  0  0
    0.7853    5.2127   21.6614 H   0  0  0  0  0  0  0  0  0  0  0  0
    3.2542    6.8876   19.7124 C   0  0  0  0  0  0  0  0  0  0  0  0
    4.0148    7.9068   19.1527 C   0  0  0  0  0  0  0  0  0  0  0  0
    3.6065    8.4995   18.3470 H   0  0  0  0  0  0  0  0  0  0  0  0
    5.2876    8.1574   19.6378 C   0  0  0  0  0  0  0  0  0  0  0  0
    5.8789    8.9476   19.2004 H   0  0  0  0  0  0  0  0  0  0  0  0
    5.7993    7.4024   20.6794 C   0  0  0  0  0  0  0  0  0  0  0  0
    6.7924    7.5999   21.0554 H   0  0  0  0  0  0  0  0  0  0  0  0
    5.0359    6.3923   21.2451 C   0  0  0  0  0  0  0  0  0  0  0  0
    5.4322    5.8057   22.0612 H   0  0  0  0  0  0  0  0  0  0  0  0
    3.7658    6.1332   20.7666 C   0  0  0  0  0  0  0  0  0  0  0  0
    3.1720    5.3439   21.2062 H   0  0  0  0  0  0  0  0  0  0  0  0
    1.4713    4.7416   19.0217 C   0  0  0  0  0  0  0  0  0  0  0  0
    2.5778    3.9754   18.6673 C   0  0  0  0  0  0  0  0  0  0  0  0
    3.5466    4.4473   18.5748 H   0  0  0  0  0  0  0  0  0  0  0  0
    2.4347    2.6191   18.4337 C   0  0  0  0  0  0  0  0  0  0  0  0
    3.2968    2.0271   18.1607 H   0  0  0  0  0  0  0  0  0  0  0  0
    1.1906    2.0199   18.5472 C   0  0  0  0  0  0  0  0  0  0  0  0
    1.0817    0.9618   18.3615 H   0  0  0  0  0  0  0  0  0  0  0  0
    0.0841    2.7799   18.8930 C   0  0  0  0  0  0  0  0  0  0  0  0
   -0.8872    2.3150   18.9706 H   0  0  0  0  0  0  0  0  0  0  0  0
    0.2196    4.1364   19.1187 C   0  0  0  0  0  0  0  0  0  0  0  0
   -0.6413    4.7442   19.3602 H   0  0  0  0  0  0  0  0  0  0  0  0
    0.6179    5.3455   16.1401 N   0  0  0  0  0  0  0  0  0  0  0  0
    1.5605    3.6478   15.0972 N   0  0  0  0  0  0  0  0  0  0  0  0
    2.2569    3.1055   14.6139 H   0  0  0  0  0  0  0  0  0  0  0  0
    2.6596    6.7896   16.5192 O   0  0  0  0  0  0  0  0  0  0  0  0
    2.9241    5.7835   15.6283 C   0  0  0  0  0  0  0  0  0  0  0  0
    3.8267    5.2159   15.9155 H   0  0  0  0  0  0  0  0  0  0  0  0
    3.0847    6.2064   14.6171 H   0  0  0  0  0  0  0  0  0  0  0  0
    1.7178    4.8957   15.5916 C   0  0  2  0  0  3  0  0  0  0  0  0
    0.2507    3.2806   15.3341 C   0  0  0  0  0  0  0  0  0  0  0  0
   -0.4722    2.1311   15.0611 C   0  0  0  0  0  0  0  0  0  0  0  0
   -0.0251    1.2884   14.5571 H   0  0  0  0  0  0  0  0  0  0  0  0
   -1.7952    2.1184   15.4585 C   0  0  0  0  0  0  0  0  0  0  0  0
   -2.3937    1.2419   15.2615 H   0  0  0  0  0  0  0  0  0  0  0  0
   -2.3849    3.2109   16.0994 C   0  0  0  0  0  0  0  0  0  0  0  0
   -3.4261    3.1510   16.3769 H   0  0  0  0  0  0  0  0  0  0  0  0
   -1.6723    4.3583   16.3782 C   0  0  0  0  0  0  0  0  0  0  0  0
   -2.1044    5.2207   16.8604 H   0  0  0  0  0  0  0  0  0  0  0  0
   -0.3391    4.3787   15.9936 C   0  0  0  0  0  0  0  0  0  0  0  0
  1  2  1  0  0  0  0
  1  4  1  0  0  0  0
  1  5  1  0  0  0  0
  3  1  1  0  0  0  0
  5 17  1  0  0  0  0
  5  6  1  0  0  0  0
  6 15  1  0  0  0  0
  7  6  2  0  0  0  0
  7  9  1  0  0  0  0
  8  7  1  0  0  0  0
  9 11  2  0  0  0  0
 10  9  1  0  0  0  0
 11 13  1  0  0  0  0
 11 12  1  0  0  0  0
 13 14  1  0  0  0  0
 15 16  1  0  0  0  0
 15 13  2  0  0  0  0
 17 26  1  0  0  0  0
 18 20  1  0  0  0  0
 18 17  2  0  0  0  0
 19 18  1  0  0  0  0
 20 22  2  0  0  0  0
 21 20  1  0  0  0  0
 22 23  1  0  0  0  0
 22 24  1  0  0  0  0
 24 25  1  0  0  0  0
 26 27  1  0  0  0  0
 26 24  2  0  0  0  0
 28  5  1  0  0  0  0
 28 37  1  0  0  0  0
 29 28  2  0  0  0  0
 30 29  1  0  0  0  0
 31 33  2  0  0  0  0
 31 29  1  0  0  0  0
 32 31  1  0  0  0  0
 33 35  1  0  0  0  0
 34 33  1  0  0  0  0
 35 36  1  0  0  0  0
 35 37  2  0  0  0  0
 37 38  1  0  0  0  0
 39  1  1  0  0  0  0
 40 47  1  0  0  0  0
 41 40  1  0  0  0  0
 42  1  1  0  0  0  0
 43 44  1  0  0  0  0
 43 42  1  0  0  0  0
 45 43  1  0  0  0  0
 46 40  1  1  0  0  0
 46 43  1  0  0  0  0
 46 39  1  0  0  0  0
 47 56  1  0  0  0  0
 48 47  2  0  0  0  0
 48 50  1  0  0  0  0
 49 48  1  0  0  0  0
 50 52  2  0  0  0  0
 51 50  1  0  0  0  0
 52 53  1  0  0  0  0
 52 54  1  0  0  0  0
 54 55  1  0  0  0  0
 56 39  1  0  0  0  0
 56 54  2  0  0  0  0
M  END
$$$$
