CSD_code = TUXKAZ | q = 1 | S = 0 | Stoichiometry = C20H22BrN2NiO4(1+) | MND = 6
 OpenBabel04212202103D

 50 53  0  0  1  0  0  0  0  0999 V2000
    1.9438    2.9636    5.6986 Ni  0  0  0  0  0  0  0  0  0  0  0  0
    1.8436    5.3050    6.0623 Br  0  0  0  0  0  0  0  0  0  0  0  0
   -0.1647    2.4692    6.2701 O   0  0  0  0  0  0  0  0  0  0  0  0
    1.2783    3.2230    3.8601 O   0  0  0  0  0  0  0  0  0  0  0  0
    1.2346    0.7764    5.0365 O   0  0  0  0  0  0  0  0  0  0  0  0
    0.9976    0.1082    5.6907 H   0  0  0  0  0  0  0  0  0  0  0  0
    4.9730    4.0062    7.1416 O   0  0  0  0  0  0  0  0  0  0  0  0
    4.2133    4.4565    6.7365 H   0  0  0  0  0  0  0  0  0  0  0  0
    2.3621    2.6612    7.4329 N   0  0  1  0  0  0  0  0  0  0  0  0
    3.9043    2.7284    4.7579 N   0  0  2  0  0  0  0  0  0  0  0  0
   -0.9454    1.8432    5.2768 C   0  0  0  0  0  0  0  0  0  0  0  0
   -1.5620    2.5633    4.7275 H   0  0  0  0  0  0  0  0  0  0  0  0
   -1.5955    1.0844    5.7321 H   0  0  0  0  0  0  0  0  0  0  0  0
    0.0829    1.1796    4.3205 C   0  0  1  0  0  0  0  0  0  0  0  0
   -0.3869    0.3227    3.8201 H   0  0  0  0  0  0  0  0  0  0  0  0
    0.5929    2.1405    3.2419 C   0  0  0  0  0  0  0  0  0  0  0  0
    1.2829    1.5907    2.5884 H   0  0  0  0  0  0  0  0  0  0  0  0
   -0.2472    2.5131    2.6443 H   0  0  0  0  0  0  0  0  0  0  0  0
   -0.6960    3.1454    7.3267 C   0  0  0  0  0  0  0  0  0  0  0  0
   -2.0251    3.5199    7.4217 C   0  0  0  0  0  0  0  0  0  0  0  0
   -2.7175    3.2803    6.6304 H   0  0  0  0  0  0  0  0  0  0  0  0
   -2.4661    4.2244    8.5302 C   0  0  0  0  0  0  0  0  0  0  0  0
   -3.4993    4.5282    8.5858 H   0  0  0  0  0  0  0  0  0  0  0  0
   -1.5919    4.5339    9.5607 C   0  0  0  0  0  0  0  0  0  0  0  0
   -1.9410    5.0840   10.4190 H   0  0  0  0  0  0  0  0  0  0  0  0
   -0.2773    4.1236    9.4922 C   0  0  0  0  0  0  0  0  0  0  0  0
    0.4028    4.3561   10.2969 H   0  0  0  0  0  0  0  0  0  0  0  0
    0.2079    3.4318    8.3757 C   0  0  0  0  0  0  0  0  0  0  0  0
    1.5769    2.9642    8.4045 C   0  0  0  0  0  3  0  0  0  0  0  0
    1.9637    2.8408    9.4185 H   0  0  0  0  0  0  0  0  0  0  0  0
    3.6347    2.0462    7.7513 C   0  0  0  0  0  0  0  0  0  0  0  0
    3.5683    0.9793    7.5091 H   0  0  0  0  0  0  0  0  0  0  0  0
    3.8240    2.1464    8.8262 H   0  0  0  0  0  0  0  0  0  0  0  0
    4.8702    2.6272    7.0132 C   0  0  1  0  0  0  0  0  0  0  0  0
    5.7509    2.2232    7.5271 H   0  0  0  0  0  0  0  0  0  0  0  0
    4.9596    2.1513    5.5423 C   0  0  0  0  0  0  0  0  0  0  0  0
    5.9469    2.4322    5.1522 H   0  0  0  0  0  0  0  0  0  0  0  0
    4.8618    1.0619    5.5190 H   0  0  0  0  0  0  0  0  0  0  0  0
    4.2155    3.4152    3.7299 C   0  0  0  0  0  3  0  0  0  0  0  0
    5.2686    3.5160    3.4503 H   0  0  0  0  0  0  0  0  0  0  0  0
    3.3024    4.1481    2.8746 C   0  0  0  0  0  0  0  0  0  0  0  0
    3.8618    5.0302    1.9418 C   0  0  0  0  0  0  0  0  0  0  0  0
    4.9368    5.0994    1.8720 H   0  0  0  0  0  0  0  0  0  0  0  0
    3.0713    5.8186    1.1319 C   0  0  0  0  0  0  0  0  0  0  0  0
    3.5276    6.4944    0.4265 H   0  0  0  0  0  0  0  0  0  0  0  0
    1.6914    5.7488    1.2373 C   0  0  0  0  0  0  0  0  0  0  0  0
    1.0645    6.3744    0.6222 H   0  0  0  0  0  0  0  0  0  0  0  0
    1.1115    4.8766    2.1420 C   0  0  0  0  0  0  0  0  0  0  0  0
    0.0370    4.8336    2.2370 H   0  0  0  0  0  0  0  0  0  0  0  0
    1.9015    4.0784    2.9547 C   0  0  0  0  0  0  0  0  0  0  0  0
  1  2  1  0  0  0  0
  1  9  1  0  0  0  0
  3 19  1  0  0  0  0
  5  6  1  0  0  0  0
  8  7  1  0  0  0  0
  9 31  1  0  0  0  0
  9 29  1  6  0  0  0
 10 39  1  1  0  0  0
 10 36  1  0  0  0  0
 10  1  1  0  0  0  0
 11 13  1  0  0  0  0
 11  3  1  0  0  0  0
 12 11  1  0  0  0  0
 14 15  1  6  0  0  0
 14  5  1  0  0  0  0
 14 11  1  0  0  0  0
 16  4  1  0  0  0  0
 16 14  1  0  0  0  0
 17 16  1  0  0  0  0
 18 16  1  0  0  0  0
 19 20  2  0  0  0  0
 19 28  1  0  0  0  0
 20 22  1  0  0  0  0
 21 20  1  0  0  0  0
 22 23  1  0  0  0  0
 22 24  2  0  0  0  0
 24 25  1  0  0  0  0
 26 24  1  0  0  0  0
 26 27  1  0  0  0  0
 28 29  1  0  0  0  0
 28 26  2  0  0  0  0
 29 30  1  0  0  0  0
 31 33  1  0  0  0  0
 32 31  1  0  0  0  0
 34  7  1  0  0  0  0
 34 35  1  1  0  0  0
 34 31  1  0  0  0  0
 36 34  1  0  0  0  0
 37 36  1  0  0  0  0
 38 36  1  0  0  0  0
 40 39  1  0  0  0  0
 41 50  1  0  0  0  0
 41 39  1  0  0  0  0
 42 41  2  0  0  0  0
 43 42  1  0  0  0  0
 44 46  2  0  0  0  0
 44 42  1  0  0  0  0
 45 44  1  0  0  0  0
 46 48  1  0  0  0  0
 47 46  1  0  0  0  0
 48 49  1  0  0  0  0
 48 50  2  0  0  0  0
 50  4  1  0  0  0  0
M  END
$$$$
