CSD_code = TUXKON | q = 0 | S = 0 | Stoichiometry = C22H13BrN3O3Re | MND = 6
 OpenBabel04212202103D

 43 47  0  0  1  0  0  0  0  0999 V2000
    0.8618    3.2970   10.2067 C   0  0  0  0  0  3  0  0  0  0  0  0
    1.4381    3.8129    9.4504 H   0  0  0  0  0  0  0  0  0  0  0  0
    1.1947    1.9927   10.6045 C   0  0  0  0  0  0  0  0  0  0  0  0
    2.0450    1.5121   10.1474 H   0  0  0  0  0  0  0  0  0  0  0  0
    0.4407    1.3341   11.5462 C   0  0  0  0  0  0  0  0  0  0  0  0
    0.6606    0.3268   11.8615 H   0  0  0  0  0  0  0  0  0  0  0  0
   -0.6662    2.0053   12.1015 C   0  0  0  0  0  0  0  0  0  0  0  0
   -0.9089    3.3099   11.6387 C   0  0  2  0  0  3  0  0  0  0  0  0
   -2.8191    3.4742   12.8922 C   0  0  0  0  0  0  0  0  0  0  0  0
   -2.5103    2.1793   13.4409 C   0  0  0  0  0  0  0  0  0  0  0  0
   -4.0598    4.1960   13.1799 C   0  0  0  0  0  0  0  0  0  0  0  0
   -4.0242    5.5665   13.4333 C   0  0  0  0  0  0  0  0  0  0  0  0
   -3.0727    6.0795   13.4835 H   0  0  0  0  0  0  0  0  0  0  0  0
   -5.2000    6.2609   13.6456 C   0  0  0  0  0  0  0  0  0  0  0  0
   -5.1649    7.3207   13.8458 H   0  0  0  0  0  0  0  0  0  0  0  0
   -6.4163    5.6010   13.5859 C   0  0  0  0  0  0  0  0  0  0  0  0
   -7.3345    6.1473   13.7395 H   0  0  0  0  0  0  0  0  0  0  0  0
   -6.4564    4.2415   13.3179 C   0  0  0  0  0  0  0  0  0  0  0  0
   -7.4045    3.7293   13.2551 H   0  0  0  0  0  0  0  0  0  0  0  0
   -5.2862    3.5353   13.1208 C   0  0  0  0  0  0  0  0  0  0  0  0
   -5.3191    2.4814   12.8872 H   0  0  0  0  0  0  0  0  0  0  0  0
   -3.3268    1.5873   14.5043 C   0  0  0  0  0  0  0  0  0  0  0  0
   -3.8262    2.3568   15.5539 C   0  0  0  0  0  0  0  0  0  0  0  0
   -3.6108    3.4140   15.6033 H   0  0  0  0  0  0  0  0  0  0  0  0
   -4.5731    1.7606   16.5518 C   0  0  0  0  0  0  0  0  0  0  0  0
   -4.9532    2.3613   17.3643 H   0  0  0  0  0  0  0  0  0  0  0  0
   -4.8322    0.3999   16.5134 C   0  0  0  0  0  0  0  0  0  0  0  0
   -5.4240   -0.0587   17.2913 H   0  0  0  0  0  0  0  0  0  0  0  0
   -4.3232   -0.3724   15.4816 C   0  0  0  0  0  0  0  0  0  0  0  0
   -4.5153   -1.4345   15.4547 H   0  0  0  0  0  0  0  0  0  0  0  0
   -3.5664    0.2144   14.4862 C   0  0  0  0  0  0  0  0  0  0  0  0
   -3.1626   -0.3743   13.6770 H   0  0  0  0  0  0  0  0  0  0  0  0
   -0.7002    6.6970   11.7702 C   0  0  0  0  0  2  0  0  0  0  0  0
   -3.3010    6.6702   10.5920 C   0  0  0  0  0  2  0  0  0  0  0  0
   -1.0498    6.5725    8.9496 C   0  0  0  0  0  2  0  0  0  0  0  0
   -1.9848    4.0257   12.0329 N   0  0  0  0  0  0  0  0  0  0  0  0
   -1.4805    1.4746   13.0355 N   0  0  0  0  0  0  0  0  0  0  0  0
   -0.1634    3.9429   10.7131 N   0  0  2  0  0  0  0  0  0  0  0  0
   -0.1275    7.3310   12.5360 O   0  0  0  0  0  1  0  0  0  0  0  0
   -4.3037    7.2217   10.6311 O   0  0  0  0  0  1  0  0  0  0  0  0
   -0.6491    7.0459    7.9890 O   0  0  0  0  0  1  0  0  0  0  0  0
   -2.8856    3.8916    9.0487 Br  0  0  0  0  0  0  0  0  0  0  0  0
   -1.6812    5.5922   10.5129 Re  0  0  0  0  0  0  0  0  0  0  0  0
  1  3  1  0  0  0  0
  2  1  1  0  0  0  0
  3  5  2  0  0  0  0
  4  3  1  0  0  0  0
  5  6  1  0  0  0  0
  5  7  1  0  0  0  0
  7 37  2  0  0  0  0
  8 36  1  0  0  0  0
  8  7  1  6  0  0  0
  9 11  1  0  0  0  0
  9 10  2  0  0  0  0
 10 22  1  0  0  0  0
 11 12  1  0  0  0  0
 12 13  1  0  0  0  0
 12 14  2  0  0  0  0
 14 15  1  0  0  0  0
 16 14  1  0  0  0  0
 16 17  1  0  0  0  0
 18 16  2  0  0  0  0
 19 18  1  0  0  0  0
 20 11  2  0  0  0  0
 20 18  1  0  0  0  0
 21 20  1  0  0  0  0
 22 23  1  0  0  0  0
 23 24  1  0  0  0  0
 23 25  2  0  0  0  0
 25 26  1  0  0  0  0
 27 25  1  0  0  0  0
 27 28  1  0  0  0  0
 29 27  2  0  0  0  0
 30 29  1  0  0  0  0
 31 22  2  0  0  0  0
 31 29  1  0  0  0  0
 32 31  1  0  0  0  0
 33 39  1  0  0  0  0
 34 40  1  0  0  0  0
 35 43  1  0  0  0  0
 36  9  1  0  0  0  0
 37 10  1  0  0  0  0
 38  1  1  6  0  0  0
 38  8  1  0  0  0  0
 41 35  1  0  0  0  0
 42 43  1  0  0  0  0
 43 34  1  0  0  0  0
 43 38  1  0  0  0  0
 43 33  1  0  0  0  0
 43 36  1  0  0  0  0
M  END
$$$$
