CSD_code = TUXZAO | q = 0 | S = 0 | Stoichiometry = C22H21Cl3N3Rh | MND = 6
 OpenBabel04212202103D

 50 56  0  0  1  0  0  0  0  0999 V2000
    7.1083   10.1695    2.8927 Rh  0  0  0  0  0  0  0  0  0  0  0  0
    6.9040    9.8118    5.1861 Cl  0  0  0  0  0  0  0  0  0  0  0  0
    8.5313    8.3967    2.6692 Cl  0  0  0  0  0  0  0  0  0  0  0  0
    7.2770   10.6534    0.6190 Cl  0  0  0  0  0  0  0  0  0  0  0  0
    5.5342    9.0092    2.5447 N   0  0  0  0  0  0  0  0  0  0  0  0
    5.7852   11.5085    2.9957 N   0  0  0  0  0  0  0  0  0  0  0  0
    8.3261   11.7905    3.3215 N   0  0  0  0  0  0  0  0  0  0  0  0
    5.5058    7.6992    2.3378 C   0  0  0  0  0  3  0  0  0  0  0  0
    6.4643    7.1924    2.3505 H   0  0  0  0  0  0  0  0  0  0  0  0
    4.3268    7.0075    2.1151 C   0  0  0  0  0  0  0  0  0  0  0  0
    4.3570    5.9426    1.9517 H   0  0  0  0  0  0  0  0  0  0  0  0
    3.1282    7.7035    2.1080 C   0  0  0  0  0  0  0  0  0  0  0  0
    2.1914    7.1951    1.9387 H   0  0  0  0  0  0  0  0  0  0  0  0
    3.1543    9.0695    2.3240 C   0  0  0  0  0  0  0  0  0  0  0  0
    2.2409    9.6419    2.3271 H   0  0  0  0  0  0  0  0  0  0  0  0
    4.3716    9.7075    2.5412 C   0  0  0  0  0  0  0  0  0  0  0  0
    4.5141   11.1423    2.7806 C   0  0  2  0  0  3  0  0  0  0  0  0
    3.5071   12.1009    2.7954 C   0  0  0  0  0  0  0  0  0  0  0  0
    2.4796   11.8250    2.6255 H   0  0  0  0  0  0  0  0  0  0  0  0
    3.8515   13.4244    3.0271 C   0  0  0  0  0  0  0  0  0  0  0  0
    3.0863   14.1849    3.0394 H   0  0  0  0  0  0  0  0  0  0  0  0
    5.1762   13.7733    3.2392 C   0  0  0  0  0  0  0  0  0  0  0  0
    5.4449   14.8021    3.4117 H   0  0  0  0  0  0  0  0  0  0  0  0
    6.1460   12.7744    3.2195 C   0  0  0  0  0  0  0  0  0  0  0  0
    7.5829   12.9267    3.4312 C   0  0  1  0  0  3  0  0  0  0  0  0
    8.1610   14.1459    3.7523 C   0  0  0  0  0  0  0  0  0  0  0  0
    7.5488   15.0289    3.8298 H   0  0  0  0  0  0  0  0  0  0  0  0
    9.5236   14.2168    3.9854 C   0  0  0  0  0  0  0  0  0  0  0  0
    9.9898   15.1552    4.2462 H   0  0  0  0  0  0  0  0  0  0  0  0
   10.2744   13.0630    3.8860 C   0  0  0  0  0  0  0  0  0  0  0  0
   11.7422   13.0001    4.1206 C   0  0  2  0  0  0  0  0  0  0  0  0
   12.1727   13.9699    4.3675 H   0  0  0  0  0  0  0  0  0  0  0  0
   12.3392   12.1811    2.9590 C   0  0  0  0  0  0  0  0  0  0  0  0
   13.4123   12.3085    2.8548 H   0  0  0  0  0  0  0  0  0  0  0  0
   11.8646   12.3086    1.9878 H   0  0  0  0  0  0  0  0  0  0  0  0
   11.9358   10.9353    3.7617 C   0  0  2  0  0  0  0  0  0  0  0  0
   12.5569   10.0442    3.6864 H   0  0  0  0  0  0  0  0  0  0  0  0
   10.4790   10.6235    3.4485 C   0  0  0  0  0  0  0  0  0  0  0  0
   10.3914   10.2086    2.4392 H   0  0  0  0  0  0  0  0  0  0  0  0
   10.0837    9.8608    4.1258 H   0  0  0  0  0  0  0  0  0  0  0  0
    9.6355   11.8536    3.5411 C   0  0  0  0  0  0  0  0  0  0  0  0
   12.0518   11.7888    5.0486 C   0  0  0  0  0  0  0  0  0  0  0  0
   13.4748   11.8322    5.5953 C   0  0  0  0  0  0  0  0  0  0  0  0
   14.2069   12.0462    4.8228 H   0  0  0  0  0  0  0  0  0  0  0  0
   13.7240   10.8718    6.0417 H   0  0  0  0  0  0  0  0  0  0  0  0
   13.5573   12.5973    6.3651 H   0  0  0  0  0  0  0  0  0  0  0  0
   11.1022   11.5069    6.2049 C   0  0  0  0  0  0  0  0  0  0  0  0
   10.0591   11.4773    5.9066 H   0  0  0  0  0  0  0  0  0  0  0  0
   11.2113   12.2762    6.9678 H   0  0  0  0  0  0  0  0  0  0  0  0
   11.3493   10.5462    6.6515 H   0  0  0  0  0  0  0  0  0  0  0  0
  1  6  1  0  0  0  0
  1  7  1  0  0  0  0
  1  2  1  0  0  0  0
  3  1  1  0  0  0  0
  4  1  1  0  0  0  0
  5  1  1  0  0  0  0
  6 24  1  0  0  0  0
  7 25  1  0  0  0  0
  7 41  1  0  0  0  0
  8  9  1  0  0  0  0
  8  5  1  0  0  0  0
 10  8  1  0  0  0  0
 11 10  1  0  0  0  0
 12 10  2  0  0  0  0
 12 14  1  0  0  0  0
 13 12  1  0  0  0  0
 14 15  1  0  0  0  0
 14 16  2  0  0  0  0
 16  5  1  0  0  0  0
 17 16  1  6  0  0  0
 17 18  1  0  0  0  0
 17  6  1  0  0  0  0
 18 20  2  0  0  0  0
 19 18  1  0  0  0  0
 20 21  1  0  0  0  0
 20 22  1  0  0  0  0
 22 23  1  0  0  0  0
 24 22  2  0  0  0  0
 25 24  1  1  0  0  0
 25 26  1  0  0  0  0
 26 27  1  0  0  0  0
 26 28  2  0  0  0  0
 28 29  1  0  0  0  0
 30 28  1  0  0  0  0
 30 31  1  0  0  0  0
 31 32  1  1  0  0  0
 31 42  1  0  0  0  0
 33 36  1  0  0  0  0
 33 31  1  0  0  0  0
 34 33  1  0  0  0  0
 35 33  1  0  0  0  0
 36 37  1  6  0  0  0
 36 42  1  0  0  0  0
 38 41  1  0  0  0  0
 38 36  1  0  0  0  0
 38 40  1  0  0  0  0
 39 38  1  0  0  0  0
 41 30  2  0  0  0  0
 42 43  1  0  0  0  0
 42 47  1  0  0  0  0
 43 45  1  0  0  0  0
 43 46  1  0  0  0  0
 44 43  1  0  0  0  0
 47 50  1  0  0  0  0
 47 49  1  0  0  0  0
 48 47  1  0  0  0  0
M  END
$$$$
