CSD_code = UBAYUR | q = 0 | S = 0 | Stoichiometry = C31H25INPPd | MND = 4
 OpenBabel04212202103D

 60 65  0  0  0  0  0  0  0  0999 V2000
    7.1806    2.8548    1.2218 I   0  0  0  0  0  0  0  0  0  0  0  0
    4.9931    2.7661    2.5524 Pd  0  0  1  0  0  0  0  0  0  0  0  0
    3.0599    2.7233    3.6836 P   0  0  0  0  0  4  0  0  0  0  0  0
    3.4293    2.0487    0.9565 N   0  0  0  0  0  0  0  0  0  0  0  0
    6.0333    3.0697    4.2160 C   0  0  0  0  0  0  0  0  0  0  0  0
    6.0748    4.2951    4.8574 C   0  0  0  0  0  0  0  0  0  0  0  0
    6.7028    4.3989    6.0895 C   0  0  0  0  0  0  0  0  0  0  0  0
    7.2849    3.2865    6.6710 C   0  0  0  0  0  0  0  0  0  0  0  0
    7.2549    2.0661    6.0173 C   0  0  0  0  0  0  0  0  0  0  0  0
    6.6279    1.9550    4.7869 C   0  0  0  0  0  0  0  0  0  0  0  0
    2.5803    1.0941    1.0093 C   0  0  0  0  0  3  0  0  0  0  0  0
    3.9781    2.4438   -0.2672 C   0  0  0  0  0  0  0  0  0  0  0  0
    4.2532    3.8060   -0.4220 C   0  0  0  0  0  0  0  0  0  0  0  0
    4.7937    4.2738   -1.6020 C   0  0  0  0  0  0  0  0  0  0  0  0
    5.0963    3.3895   -2.6257 C   0  0  0  0  0  0  0  0  0  0  0  0
    4.8547    2.0354   -2.4654 C   0  0  0  0  0  0  0  0  0  0  0  0
    4.2885    1.5578   -1.2988 C   0  0  0  0  0  0  0  0  0  0  0  0
    2.0509    4.0790    3.0109 C   0  0  0  0  0  0  0  0  0  0  0  0
    2.7506    5.2010    2.5709 C   0  0  0  0  0  0  0  0  0  0  0  0
    2.0716    6.2797    2.0361 C   0  0  0  0  0  0  0  0  0  0  0  0
    0.6897    6.2370    1.9315 C   0  0  0  0  0  0  0  0  0  0  0  0
   -0.0089    5.1218    2.3652 C   0  0  0  0  0  0  0  0  0  0  0  0
    0.6660    4.0417    2.9072 C   0  0  0  0  0  0  0  0  0  0  0  0
    3.0651    3.0231    5.4757 C   0  0  0  0  0  0  0  0  0  0  0  0
    3.7295    2.0863    6.2672 C   0  0  0  0  0  0  0  0  0  0  0  0
    3.9042    2.3145    7.6168 C   0  0  0  0  0  0  0  0  0  0  0  0
    3.4269    3.4854    8.1861 C   0  0  0  0  0  0  0  0  0  0  0  0
    2.7701    4.4199    7.4043 C   0  0  0  0  0  0  0  0  0  0  0  0
    2.5915    4.1960    6.0500 C   0  0  0  0  0  0  0  0  0  0  0  0
    1.9972    1.2669    3.4601 C   0  0  0  0  0  0  0  0  0  0  0  0
    1.9014    0.6370    2.2028 C   0  0  0  0  0  0  0  0  0  0  0  0
    1.0784   -0.4874    2.0773 C   0  0  0  0  0  0  0  0  0  0  0  0
    0.3767   -0.9887    3.1538 C   0  0  0  0  0  0  0  0  0  0  0  0
    0.4748   -0.3648    4.3883 C   0  0  0  0  0  0  0  0  0  0  0  0
    1.2782    0.7515    4.5341 C   0  0  0  0  0  0  0  0  0  0  0  0
    5.6309    5.1795    4.4064 H   0  0  0  0  0  0  0  0  0  0  0  0
    6.7349    5.3546    6.5934 H   0  0  0  0  0  0  0  0  0  0  0  0
    7.7713    3.3729    7.6317 H   0  0  0  0  0  0  0  0  0  0  0  0
    7.7228    1.1996    6.4630 H   0  0  0  0  0  0  0  0  0  0  0  0
    6.6170    0.9983    4.2615 H   0  0  0  0  0  0  0  0  0  0  0  0
    2.2828    0.5737    0.0921 H   0  0  0  0  0  0  0  0  0  0  0  0
    4.0289    4.4845    0.3973 H   0  0  0  0  0  0  0  0  0  0  0  0
    5.0051    5.3263   -1.7148 H   0  0  0  0  0  0  0  0  0  0  0  0
    5.5424    3.7533   -3.5385 H   0  0  0  0  0  0  0  0  0  0  0  0
    5.1194    1.3425   -3.2500 H   0  0  0  0  0  0  0  0  0  0  0  0
    4.1475    0.4947   -1.1628 H   0  0  0  0  0  0  0  0  0  0  0  0
    3.8413    5.2101    2.6581 H   0  0  0  0  0  0  0  0  0  0  0  0
    2.6144    7.1492    1.6952 H   0  0  0  0  0  0  0  0  0  0  0  0
    0.1563    7.0747    1.5076 H   0  0  0  0  0  0  0  0  0  0  0  0
   -1.0854    5.0929    2.2797 H   0  0  0  0  0  0  0  0  0  0  0  0
    0.1218    3.1705    3.2463 H   0  0  0  0  0  0  0  0  0  0  0  0
    4.1099    1.1819    5.8073 H   0  0  0  0  0  0  0  0  0  0  0  0
    4.4221    1.5878    8.2245 H   0  0  0  0  0  0  0  0  0  0  0  0
    3.5730    3.6708    9.2397 H   0  0  0  0  0  0  0  0  0  0  0  0
    2.4005    5.3326    7.8486 H   0  0  0  0  0  0  0  0  0  0  0  0
    2.0860    4.9321    5.4399 H   0  0  0  0  0  0  0  0  0  0  0  0
    0.9998   -0.9725    1.1144 H   0  0  0  0  0  0  0  0  0  0  0  0
   -0.2478   -1.8609    3.0332 H   0  0  0  0  0  0  0  0  0  0  0  0
   -0.0766   -0.7440    5.2355 H   0  0  0  0  0  0  0  0  0  0  0  0
    1.3466    1.2374    5.4973 H   0  0  0  0  0  0  0  0  0  0  0  0
  2  1  1  6  0  0  0
  2  3  1  0  0  0  0
  2  5  1  0  0  0  0
  3 24  1  0  0  0  0
  4 11  1  0  0  0  0
  4  2  1  0  0  0  0
  5 10  2  0  0  0  0
  5  6  1  0  0  0  0
  6  7  2  0  0  0  0
  7 37  1  0  0  0  0
  7  8  1  0  0  0  0
  8 38  1  0  0  0  0
  9 39  1  0  0  0  0
  9  8  2  0  0  0  0
 10  9  1  0  0  0  0
 11 31  1  0  0  0  0
 12  4  1  0  0  0  0
 13 12  1  0  0  0  0
 13 42  1  0  0  0  0
 14 13  2  0  0  0  0
 15 16  2  0  0  0  0
 15 14  1  0  0  0  0
 16 17  1  0  0  0  0
 17 46  1  0  0  0  0
 17 12  2  0  0  0  0
 18  3  1  0  0  0  0
 19 47  1  0  0  0  0
 19 18  2  0  0  0  0
 20 19  1  0  0  0  0
 21 20  2  0  0  0  0
 21 22  1  0  0  0  0
 22 23  2  0  0  0  0
 23 18  1  0  0  0  0
 23 51  1  0  0  0  0
 24 29  2  0  0  0  0
 24 25  1  0  0  0  0
 25 26  2  0  0  0  0
 26 27  1  0  0  0  0
 26 53  1  0  0  0  0
 27 54  1  0  0  0  0
 28 55  1  0  0  0  0
 28 27  2  0  0  0  0
 29 28  1  0  0  0  0
 30  3  1  0  0  0  0
 30 35  1  0  0  0  0
 31 30  2  0  0  0  0
 32 31  1  0  0  0  0
 32 33  2  0  0  0  0
 33 34  1  0  0  0  0
 34 35  2  0  0  0  0
 34 59  1  0  0  0  0
 35 60  1  0  0  0  0
 36  6  1  0  0  0  0
 40 10  1  0  0  0  0
 41 11  1  0  0  0  0
 43 14  1  0  0  0  0
 44 15  1  0  0  0  0
 45 16  1  0  0  0  0
 48 20  1  0  0  0  0
 49 21  1  0  0  0  0
 50 22  1  0  0  0  0
 52 25  1  0  0  0  0
 56 29  1  0  0  0  0
 57 32  1  0  0  0  0
 58 33  1  0  0  0  0
M  END
$$$$
