CSD_code = UBIHEU | q = 0 | S = 0 | Stoichiometry = C15H20Cl2NOPPd | MND = 4
 OpenBabel04212202103D

 41 43  0  0  1  0  0  0  0  0999 V2000
    8.6682    9.3442    0.7886 Pd  0  0  0  0  0  0  0  0  0  0  0  0
    7.5675   10.8583    1.9585 P   0  0  0  0  0  4  0  0  0  0  0  0
   10.0841    9.2190    2.2592 N   0  0  0  0  0  0  0  0  0  0  0  0
    8.5666   11.5207    3.0634 O   0  0  0  0  0  0  0  0  0  0  0  0
    7.1242    9.4262   -0.8187 Cl  0  0  0  0  0  0  0  0  0  0  0  0
   10.0571    8.0704   -0.5140 Cl  0  0  0  0  0  0  0  0  0  0  0  0
   10.7722    8.0931    2.1789 C   0  0  0  0  0  0  0  0  0  0  0  0
   10.2157    7.1891    1.9611 H   0  0  0  0  0  0  0  0  0  0  0  0
   12.1582    8.0426    2.3961 C   0  0  0  0  0  0  0  0  0  0  0  0
   12.6736    7.1019    2.2912 H   0  0  0  0  0  0  0  0  0  0  0  0
   12.8290    9.2005    2.6736 C   0  0  0  0  0  0  0  0  0  0  0  0
   13.9035    9.2160    2.7801 H   0  0  0  0  0  0  0  0  0  0  0  0
   12.1060   10.4012    2.8606 C   0  0  0  0  0  0  0  0  0  0  0  0
   12.7278   11.6025    3.2463 C   0  0  0  0  0  0  0  0  0  0  0  0
   13.8004   11.6165    3.3645 H   0  0  0  0  0  0  0  0  0  0  0  0
   11.9777   12.7199    3.4909 C   0  0  0  0  0  0  0  0  0  0  0  0
   12.4485   13.6437    3.7886 H   0  0  0  0  0  0  0  0  0  0  0  0
   10.5844   12.6685    3.3870 C   0  0  0  0  0  0  0  0  0  0  0  0
    9.9894   13.5329    3.6392 H   0  0  0  0  0  0  0  0  0  0  0  0
    9.9391   11.5179    2.9962 C   0  0  0  0  0  0  0  0  0  0  0  0
   10.6963   10.3580    2.6684 C   0  0  2  0  0  3  0  0  0  0  0  0
    6.2278   10.2381    3.0602 C   0  0  0  0  0  0  0  0  0  0  0  0
    6.0391   10.9507    3.8699 H   0  0  0  0  0  0  0  0  0  0  0  0
    6.7628    8.9210    3.6223 C   0  0  0  0  0  0  0  0  0  0  0  0
    6.0098    8.4198    4.2275 H   0  0  0  0  0  0  0  0  0  0  0  0
    7.6446    9.0946    4.2399 H   0  0  0  0  0  0  0  0  0  0  0  0
    7.0413    8.2555    2.7891 H   0  0  0  0  0  0  0  0  0  0  0  0
    4.9825   10.0035    2.2140 C   0  0  0  0  0  0  0  0  0  0  0  0
    4.2429    9.4350    2.7747 H   0  0  0  0  0  0  0  0  0  0  0  0
    5.2497    9.4392    1.3186 H   0  0  0  0  0  0  0  0  0  0  0  0
    4.5293   10.9424    1.9049 H   0  0  0  0  0  0  0  0  0  0  0  0
    6.9929   12.3431    1.0134 C   0  0  0  0  0  0  0  0  0  0  0  0
    6.2066   11.9849    0.3422 H   0  0  0  0  0  0  0  0  0  0  0  0
    8.1950   12.7771    0.1724 C   0  0  0  0  0  0  0  0  0  0  0  0
    7.9034   13.5257   -0.5610 H   0  0  0  0  0  0  0  0  0  0  0  0
    8.6084   11.9111   -0.3674 H   0  0  0  0  0  0  0  0  0  0  0  0
    8.9768   13.2007    0.8045 H   0  0  0  0  0  0  0  0  0  0  0  0
    6.4761   13.4570    1.9135 C   0  0  0  0  0  0  0  0  0  0  0  0
    6.2137   14.3279    1.3157 H   0  0  0  0  0  0  0  0  0  0  0  0
    7.2392   13.7514    2.6315 H   0  0  0  0  0  0  0  0  0  0  0  0
    5.5922   13.1399    2.4623 H   0  0  0  0  0  0  0  0  0  0  0  0
  1  2  1  0  0  0  0
  1  3  1  0  0  0  0
  2 22  1  0  0  0  0
  2  4  1  0  0  0  0
  3 21  1  0  0  0  0
  5  1  1  0  0  0  0
  6  1  1  0  0  0  0
  7  3  1  0  0  0  0
  7  9  2  0  0  0  0
  8  7  1  0  0  0  0
  9 11  1  0  0  0  0
 10  9  1  0  0  0  0
 11 12  1  0  0  0  0
 11 13  2  0  0  0  0
 13 14  1  0  0  0  0
 14 15  1  0  0  0  0
 14 16  2  0  0  0  0
 16 17  1  0  0  0  0
 18 16  1  0  0  0  0
 18 19  1  0  0  0  0
 20  4  1  0  0  0  0
 20 18  2  0  0  0  0
 21 13  1  1  0  0  0
 21 20  1  0  0  0  0
 22 24  1  0  0  0  0
 22 23  1  0  0  0  0
 24 25  1  0  0  0  0
 24 26  1  0  0  0  0
 27 24  1  0  0  0  0
 28 29  1  0  0  0  0
 28 22  1  0  0  0  0
 30 28  1  0  0  0  0
 31 28  1  0  0  0  0
 32 38  1  0  0  0  0
 32  2  1  0  0  0  0
 33 32  1  0  0  0  0
 34 37  1  0  0  0  0
 34 32  1  0  0  0  0
 35 34  1  0  0  0  0
 36 34  1  0  0  0  0
 38 41  1  0  0  0  0
 38 40  1  0  0  0  0
 39 38  1  0  0  0  0
M  END
$$$$
