CSD_code = UBIXIM | q = 0 | S = 0 | Stoichiometry = C9H14Cl2Pt | MND = 6
 OpenBabel04212202103D

 26 24  0  0  1  0  0  0  0  0999 V2000
   -0.3446    7.0070    6.8766 Pt  0  0  0  0  0  0  0  0  0  0  0  0
    0.9543    8.6038    5.9989 Cl  0  0  0  0  0 15  0  0  0  0  0  0
   -1.7866    8.5825    7.5433 Cl  0  0  0  0  0 15  0  0  0  0  0  0
   -1.0556    4.8262    5.5819 C   0  0  0  0  0  0  0  0  0  0  0  0
    0.4082    5.1413    5.8085 C   0  0  0  0  0  0  0  0  0  0  0  0
    0.6828    5.1000    7.1757 C   0  0  0  0  0  0  0  0  0  0  0  0
   -0.5966    5.0896    7.8964 C   0  0  2  0  0  0  0  0  0  0  0  0
   -1.6242    5.1243    6.9533 C   0  0  2  0  0  3  0  0  0  0  0  0
    1.4084    5.0945    4.7014 C   0  0  0  0  0  0  0  0  0  0  0  0
    2.0246    4.9793    7.8219 C   0  0  0  0  0  0  0  0  0  0  0  0
   -0.7424    4.9537    9.3771 C   0  0  0  0  0  0  0  0  0  0  0  0
   -3.0878    5.0525    7.2366 C   0  0  0  0  0  0  0  0  0  0  0  0
   -1.5084    5.4285    4.7869 H   0  0  0  0  0  0  0  0  0  0  0  0
   -1.1977    3.7718    5.3139 H   0  0  0  0  0  0  0  0  0  0  0  0
    1.8321    4.0917    4.6176 H   0  0  0  0  0  0  0  0  0  0  0  0
    2.2196    5.7966    4.8829 H   0  0  0  0  0  0  0  0  0  0  0  0
    0.9401    5.3509    3.7545 H   0  0  0  0  0  0  0  0  0  0  0  0
    2.8115    5.2734    7.1324 H   0  0  0  0  0  0  0  0  0  0  0  0
    2.0926    5.6005    8.7134 H   0  0  0  0  0  0  0  0  0  0  0  0
    2.1903    3.9423    8.1181 H   0  0  0  0  0  0  0  0  0  0  0  0
   -1.7113    5.3234    9.7037 H   0  0  0  0  0  0  0  0  0  0  0  0
    0.0365    5.5010    9.9044 H   0  0  0  0  0  0  0  0  0  0  0  0
   -0.6634    3.9004    9.6521 H   0  0  0  0  0  0  0  0  0  0  0  0
   -3.3630    4.0416    7.5441 H   0  0  0  0  0  0  0  0  0  0  0  0
   -3.3617    5.7401    8.0342 H   0  0  0  0  0  0  0  0  0  0  0  0
   -3.6607    5.3113    6.3497 H   0  0  0  0  0  0  0  0  0  0  0  0
  4  5  1  0  0  0  0
  4  8  1  0  0  0  0
  5  6  2  0  0  0  0
  6 10  1  0  0  0  0
  6  7  1  0  0  0  0
  7  1  1  1  0  0  0
  7 11  1  0  0  0  0
  8 12  1  1  0  0  0
  8  7  1  0  0  0  0
  9 16  1  0  0  0  0
  9  5  1  0  0  0  0
 10 20  1  0  0  0  0
 10 19  1  0  0  0  0
 11 23  1  0  0  0  0
 11 21  1  0  0  0  0
 11 22  1  0  0  0  0
 12 24  1  0  0  0  0
 12 25  1  0  0  0  0
 13  4  1  0  0  0  0
 14  4  1  0  0  0  0
 15  9  1  0  0  0  0
 17  9  1  0  0  0  0
 18 10  1  0  0  0  0
 26 12  1  0  0  0  0
M  END
$$$$
