CSD_code = UBIXUY | q = 0 | S = 0 | Stoichiometry = C27H28I2MoNO4P | MND = 7
 OpenBabel04212202103D

 64 63  0  0  0  0  0  0  0  0999 V2000
    3.6654    8.0919    3.1431 Mo  0  0  0  0  0  0  0  0  0  0  0  0
    5.2755    7.7360    5.4181 I   0  0  0  0  0 15  0  0  0  0  0  0
    4.7831   10.5625    2.4799 I   0  0  0  0  0 15  0  0  0  0  0  0
    2.9620    5.9530    3.9242 P   0  0  0  0  0  0  0  0  0  0  0  0
    1.7609    5.4756    2.9311 O   0  0  0  0  0  0  0  0  0  0  0  0
    1.3545    4.1538    2.8064 C   0  0  0  0  0  0  0  0  0  0  0  0
    0.7060    3.4925    3.8386 C   0  0  0  0  0  0  0  0  0  0  0  0
    0.5229    3.9968    4.7751 H   0  0  0  0  0  0  0  0  0  0  0  0
    0.2977    2.1821    3.6565 C   0  0  0  0  0  0  0  0  0  0  0  0
   -0.2008    1.6666    4.4632 H   0  0  0  0  0  0  0  0  0  0  0  0
    0.5263    1.5367    2.4539 C   0  0  0  0  0  0  0  0  0  0  0  0
    0.2061    0.5150    2.3186 H   0  0  0  0  0  0  0  0  0  0  0  0
    1.1687    2.2045    1.4242 C   0  0  0  0  0  0  0  0  0  0  0  0
    1.3521    1.7065    0.4840 H   0  0  0  0  0  0  0  0  0  0  0  0
    1.5898    3.5104    1.5987 C   0  0  0  0  0  0  0  0  0  0  0  0
    2.1060    4.0409    0.8132 H   0  0  0  0  0  0  0  0  0  0  0  0
    4.0212    4.7749    3.8017 O   0  0  0  0  0  0  0  0  0  0  0  0
    4.1809    3.6687    4.6430 C   0  0  0  0  0  0  0  0  0  0  0  0
    4.6574    3.8232    5.9335 C   0  0  0  0  0  0  0  0  0  0  0  0
    4.8913    4.8071    6.3088 H   0  0  0  0  0  0  0  0  0  0  0  0
    4.8461    2.7018    6.7229 C   0  0  0  0  0  0  0  0  0  0  0  0
    5.2180    2.8211    7.7290 H   0  0  0  0  0  0  0  0  0  0  0  0
    4.5680    1.4398    6.2268 C   0  0  0  0  0  0  0  0  0  0  0  0
    4.7162    0.5691    6.8473 H   0  0  0  0  0  0  0  0  0  0  0  0
    4.1083    1.2958    4.9288 C   0  0  0  0  0  0  0  0  0  0  0  0
    3.8986    0.3149    4.5299 H   0  0  0  0  0  0  0  0  0  0  0  0
    3.9119    2.4090    4.1310 C   0  0  0  0  0  0  0  0  0  0  0  0
    3.5582    2.3094    3.1164 H   0  0  0  0  0  0  0  0  0  0  0  0
    2.4115    5.6352    5.4131 O   0  0  0  0  0  0  0  0  0  0  0  0
    1.6223    6.5443    6.0865 C   0  0  0  0  0  0  0  0  0  0  0  0
    1.9780    6.8881    7.3833 C   0  0  0  0  0  0  0  0  0  0  0  0
    2.8724    6.4673    7.8149 H   0  0  0  0  0  0  0  0  0  0  0  0
    1.1838    7.7713    8.0919 C   0  0  0  0  0  0  0  0  0  0  0  0
    1.4593    8.0407    9.0999 H   0  0  0  0  0  0  0  0  0  0  0  0
    0.0467    8.3103    7.5119 C   0  0  0  0  0  0  0  0  0  0  0  0
   -0.5717    8.9969    8.0708 H   0  0  0  0  0  0  0  0  0  0  0  0
   -0.2980    7.9664    6.2160 C   0  0  0  0  0  0  0  0  0  0  0  0
   -1.1852    8.3814    5.7602 H   0  0  0  0  0  0  0  0  0  0  0  0
    0.4888    7.0835    5.4960 C   0  0  0  0  0  0  0  0  0  0  0  0
    0.2267    6.8004    4.4863 H   0  0  0  0  0  0  0  0  0  0  0  0
    4.8919    7.0934    2.0221 C   0  0  0  0  0  2  0  0  0  0  0  0
    5.5148    6.4526    1.2996 O   0  0  0  0  0  1  0  0  0  0  0  0
    2.5554    9.1855    4.4351 N   0  0  0  0  0  2  0  0  0  0  0  0
    2.1468    9.9835    5.1572 C   0  0  0  0  0  2  0  0  0  0  0  0
    1.6649   10.9984    6.0419 C   0  0  0  0  0  0  0  0  0  0  0  0
    2.0997   11.9579    5.7569 H   0  0  0  0  0  0  0  0  0  0  0  0
    1.9623   10.7581    7.0626 H   0  0  0  0  0  0  0  0  0  0  0  0
    0.5787   11.0602    5.9863 H   0  0  0  0  0  0  0  0  0  0  0  0
    0.7268   10.2710    1.3009 C   0  0  0  0  0  0  0  0  0  0  0  0
    1.3901   10.9061    1.8870 H   0  0  0  0  0  0  0  0  0  0  0  0
   -0.2476   10.7500    1.2359 H   0  0  0  0  0  0  0  0  0  0  0  0
    1.1412   10.1837    0.2984 H   0  0  0  0  0  0  0  0  0  0  0  0
    0.5997    8.8898    1.9514 C   0  0  0  0  0  0  0  0  0  0  0  0
    0.1669    9.0042    2.9515 H   0  0  0  0  0  0  0  0  0  0  0  0
   -0.0709    8.2589    1.3575 H   0  0  0  0  0  0  0  0  0  0  0  0
    1.9412    8.2646    2.0357 C   0  0  0  0  0  0  0  0  0  0  0  0
    2.7975    7.6312    1.2844 C   0  0  0  0  0  2  0  0  0  0  0  0
    2.9358    7.0555   -0.0711 C   0  0  0  0  0  0  0  0  0  0  0  0
    3.5618    7.7275   -0.6717 H   0  0  0  0  0  0  0  0  0  0  0  0
    3.4647    6.0966   -0.0191 H   0  0  0  0  0  0  0  0  0  0  0  0
    1.5819    6.8582   -0.7528 C   0  0  0  0  0  0  0  0  0  0  0  0
    0.9388    6.2254   -0.1430 H   0  0  0  0  0  0  0  0  0  0  0  0
    1.7176    6.3841   -1.7225 H   0  0  0  0  0  0  0  0  0  0  0  0
    1.0861    7.8142   -0.9051 H   0  0  0  0  0  0  0  0  0  0  0  0
  1 43  1  0  0  0  0
  4 29  1  0  0  0  0
  5  4  1  0  0  0  0
  6  5  1  0  0  0  0
  6  7  1  0  0  0  0
  7  8  1  0  0  0  0
  9  7  2  0  0  0  0
  9 10  1  0  0  0  0
 11  9  1  0  0  0  0
 12 11  1  0  0  0  0
 13 15  1  0  0  0  0
 13 11  2  0  0  0  0
 14 13  1  0  0  0  0
 15  6  2  0  0  0  0
 16 15  1  0  0  0  0
 17  4  1  0  0  0  0
 17 18  1  0  0  0  0
 18 19  1  0  0  0  0
 19 20  1  0  0  0  0
 19 21  2  0  0  0  0
 21 22  1  0  0  0  0
 23 21  1  0  0  0  0
 23 24  1  0  0  0  0
 25 23  2  0  0  0  0
 26 25  1  0  0  0  0
 27 18  2  0  0  0  0
 27 25  1  0  0  0  0
 28 27  1  0  0  0  0
 29 30  1  0  0  0  0
 30 31  1  0  0  0  0
 31 32  1  0  0  0  0
 31 33  2  0  0  0  0
 33 34  1  0  0  0  0
 35 36  1  0  0  0  0
 35 33  1  0  0  0  0
 37 35  2  0  0  0  0
 38 37  1  0  0  0  0
 39 30  2  0  0  0  0
 39 37  1  0  0  0  0
 40 39  1  0  0  0  0
 41  1  1  0  0  0  0
 42 41  1  0  0  0  0
 43 44  1  0  0  0  0
 44 45  1  0  0  0  0
 45 47  1  0  0  0  0
 46 45  1  0  0  0  0
 48 45  1  0  0  0  0
 49 50  1  0  0  0  0
 49 53  1  0  0  0  0
 51 49  1  0  0  0  0
 52 49  1  0  0  0  0
 53 56  1  0  0  0  0
 53 54  1  0  0  0  0
 55 53  1  0  0  0  0
 56  1  2  0  0  0  0
 57 56  1  0  0  0  0
 58 60  1  0  0  0  0
 58 57  1  0  0  0  0
 59 58  1  0  0  0  0
 61 62  1  0  0  0  0
 61 58  1  0  0  0  0
 63 61  1  0  0  0  0
 64 61  1  0  0  0  0
M  END
$$$$
