CSD_code = UBOCAP | q = 0 | S = 0 | Stoichiometry = C10H6Br2Cl4N2Zn | MND = 4
 OpenBabel04212202103D

 25 26  0  0  0  0  0  0  0  0999 V2000
    1.8613    1.1840    1.0499 Zn  0  0  0  0  0  0  0  0  0  0  0  0
    2.4729    2.5529   -0.7512 Br  0  0  0  0  0  0  0  0  0  0  0  0
    1.8119   -0.9787    1.9515 Br  0  0  0  0  0  0  0  0  0  0  0  0
    3.2187    1.7649    6.6266 Cl  0  0  0  0  0  0  0  0  0  0  0  0
    4.1037    5.9718    3.3649 Cl  0  0  0  0  0  0  0  0  0  0  0  0
   -2.4792    4.9139    0.3471 Cl  0  0  0  0  0  0  0  0  0  0  0  0
   -3.4138    0.4958    3.3013 Cl  0  0  0  0  0  0  0  0  0  0  0  0
    2.6480    2.3603    2.7757 N   0  0  0  0  0  0  0  0  0  0  0  0
   -0.2391    1.8530    1.4069 N   0  0  0  0  0  0  0  0  0  0  0  0
    2.6952    1.8159    3.9841 C   0  0  0  0  0  3  0  0  0  0  0  0
    2.3515    0.7958    4.0822 H   0  0  0  0  0  0  0  0  0  0  0  0
    3.1791    2.5139    5.0852 C   0  0  0  0  0  0  0  0  0  0  0  0
    3.6270    3.8183    4.9220 C   0  0  0  0  0  0  0  0  0  0  0  0
    4.0100    4.3843    5.7559 H   0  0  0  0  0  0  0  0  0  0  0  0
    3.5689    4.3679    3.6480 C   0  0  0  0  0  0  0  0  0  0  0  0
    3.0709    3.6046    2.5978 C   0  0  0  0  0  0  0  0  0  0  0  0
    3.0254    4.0052    1.5948 H   0  0  0  0  0  0  0  0  0  0  0  0
   -0.6693    2.9891    0.8748 C   0  0  0  0  0  3  0  0  0  0  0  0
    0.0330    3.5549    0.2790 H   0  0  0  0  0  0  0  0  0  0  0  0
   -1.9736    3.4365    1.0546 C   0  0  0  0  0  0  0  0  0  0  0  0
   -2.8568    2.6762    1.8098 C   0  0  0  0  0  0  0  0  0  0  0  0
   -3.8757    2.9942    1.9629 H   0  0  0  0  0  0  0  0  0  0  0  0
   -2.3850    1.4904    2.3576 C   0  0  0  0  0  0  0  0  0  0  0  0
   -1.0653    1.1130    2.1340 C   0  0  0  0  0  0  0  0  0  0  0  0
   -0.6759    0.1910    2.5426 H   0  0  0  0  0  0  0  0  0  0  0  0
  1  9  1  0  0  0  0
  1  3  1  0  0  0  0
  1  8  1  0  0  0  0
  2  1  1  0  0  0  0
  5 15  1  0  0  0  0
  6 20  1  0  0  0  0
  8 10  1  0  0  0  0
  9 24  1  0  0  0  0
 10 11  1  0  0  0  0
 10 12  1  0  0  0  0
 12  4  1  0  0  0  0
 13 12  2  0  0  0  0
 13 14  1  0  0  0  0
 15 13  1  0  0  0  0
 16  8  1  0  0  0  0
 16 15  2  0  0  0  0
 17 16  1  0  0  0  0
 18 20  1  0  0  0  0
 18  9  1  0  0  0  0
 19 18  1  0  0  0  0
 20 21  2  0  0  0  0
 21 22  1  0  0  0  0
 21 23  1  0  0  0  0
 23  7  1  0  0  0  0
 24 23  2  0  0  0  0
 24 25  1  0  0  0  0
M  END
$$$$
