CSD_code = UBONII | q = 0 | S = 0 | Stoichiometry = C20H12Cl2N2Pd | MND = 4
 OpenBabel04212202103D

 37 40  0  0  1  0  0  0  0  0999 V2000
    9.4296    8.1513    2.6168 Pd  0  0  0  0  0  0  0  0  0  0  0  0
    8.1555    6.7468    2.2597 N   0  0  0  0  0  0  0  0  0  0  0  0
    8.4396    5.8169    1.3527 C   0  0  0  0  0  3  0  0  0  0  0  0
    9.4039    5.9092    0.8504 H   0  0  0  0  0  0  0  0  0  0  0  0
   10.3936    6.8643    4.2378 Cl  0  0  0  0  0  0  0  0  0  0  0  0
    8.4714    9.4336    0.9897 Cl  0  0  0  0  0  0  0  0  0  0  0  0
   10.8166    9.4741    2.8391 N   0  0  0  0  0  0  0  0  0  0  0  0
    7.5659    4.7869    1.0571 C   0  0  0  0  0  0  0  0  0  0  0  0
    7.8293    4.0503    0.3154 H   0  0  0  0  0  0  0  0  0  0  0  0
    6.3502    4.7205    1.7304 C   0  0  0  0  0  0  0  0  0  0  0  0
    5.6500    3.9269    1.5188 H   0  0  0  0  0  0  0  0  0  0  0  0
    6.0530    5.6847    2.6726 C   0  0  0  0  0  0  0  0  0  0  0  0
    5.1237    5.6760    3.2200 H   0  0  0  0  0  0  0  0  0  0  0  0
    6.9864    6.6952    2.9166 C   0  0  0  0  0  0  0  0  0  0  0  0
    6.7712    7.7242    3.8580 C   0  0  0  0  0  0  0  0  0  0  0  0
    6.5271    8.5805    4.6807 C   0  0  0  0  0  0  0  0  0  0  0  0
    6.2795    9.5920    5.6242 C   0  0  0  0  0  0  0  0  0  0  0  0
    5.0947    9.6208    6.3599 C   0  0  0  0  0  0  0  0  0  0  0  0
    4.3570    8.8486    6.1997 H   0  0  0  0  0  0  0  0  0  0  0  0
    4.8741   10.6266    7.2801 C   0  0  0  0  0  0  0  0  0  0  0  0
    3.9554   10.6433    7.8469 H   0  0  0  0  0  0  0  0  0  0  0  0
    5.8285   11.6170    7.4801 C   0  0  0  0  0  0  0  0  0  0  0  0
    5.6477   12.3999    8.2012 H   0  0  0  0  0  0  0  0  0  0  0  0
    7.0076   11.6051    6.7612 C   0  0  0  0  0  0  0  0  0  0  0  0
    7.7530   12.3716    6.9120 H   0  0  0  0  0  0  0  0  0  0  0  0
    7.2488   10.5967    5.8280 C   0  0  0  0  0  0  0  0  0  0  0  0
    8.4412   10.5606    5.0852 C   0  0  0  0  0  0  0  0  0  0  0  0
    9.4590   10.5009    4.4293 C   0  0  0  0  0  0  0  0  0  0  0  0
   10.6701   10.4886    3.7052 C   0  0  2  0  0  3  0  0  0  0  0  0
   11.6596   11.4613    3.8681 C   0  0  0  0  0  0  0  0  0  0  0  0
   11.5058   12.2633    4.5728 H   0  0  0  0  0  0  0  0  0  0  0  0
   12.8134   11.3666    3.1160 C   0  0  0  0  0  0  0  0  0  0  0  0
   13.5964   12.1023    3.2186 H   0  0  0  0  0  0  0  0  0  0  0  0
   12.9522   10.3083    2.2237 C   0  0  0  0  0  0  0  0  0  0  0  0
   13.8406   10.2040    1.6219 H   0  0  0  0  0  0  0  0  0  0  0  0
   11.9292    9.3844    2.1163 C   0  0  0  0  0  0  0  0  0  0  0  0
   11.9937    8.5386    1.4299 H   0  0  0  0  0  0  0  0  0  0  0  0
  1  7  1  0  0  0  0
  1  5  1  0  0  0  0
  2  1  1  0  0  0  0
  2 14  1  0  0  0  0
  3  2  1  0  0  0  0
  4  3  1  0  0  0  0
  6  1  1  0  0  0  0
  7 29  1  0  0  0  0
  8  3  1  0  0  0  0
  8 10  2  0  0  0  0
  9  8  1  0  0  0  0
 10 12  1  0  0  0  0
 11 10  1  0  0  0  0
 12 14  2  0  0  0  0
 12 13  1  0  0  0  0
 14 15  1  0  0  0  0
 15 16  3  0  0  0  0
 16 17  1  0  0  0  0
 17 26  2  0  0  0  0
 17 18  1  0  0  0  0
 18 20  2  0  0  0  0
 19 18  1  0  0  0  0
 20 22  1  0  0  0  0
 20 21  1  0  0  0  0
 22 23  1  0  0  0  0
 24 25  1  0  0  0  0
 24 22  2  0  0  0  0
 26 24  1  0  0  0  0
 27 26  1  0  0  0  0
 28 27  3  0  0  0  0
 29 30  1  0  0  0  0
 29 28  1  6  0  0  0
 30 31  1  0  0  0  0
 32 33  1  0  0  0  0
 32 30  2  0  0  0  0
 34 32  1  0  0  0  0
 35 34  1  0  0  0  0
 36 34  2  0  0  0  0
 36  7  1  0  0  0  0
 37 36  1  0  0  0  0
M  END
$$$$
