CSD_code = UBOSUB | q = 0 | S = 0 | Stoichiometry = C15H24Br3N6Rh | MND = 6
 OpenBabel04212202103D

 49 51  0  0  1  0  0  0  0  0999 V2000
   -0.7604    8.8653   11.1399 Rh  0  0  0  0  0  0  0  0  0  0  0  0
   -1.7388    9.6716   13.3121 Br  0  0  0  0  0  0  0  0  0  0  0  0
    0.6213   10.9243   11.0784 Br  0  0  0  0  0  0  0  0  0  0  0  0
    0.2032    8.1996    8.8808 Br  0  0  0  0  0  0  0  0  0  0  0  0
    0.7522    7.9676   12.1771 N   0  0  0  0  0  0  0  0  0  0  0  0
    1.2878    8.6592   13.1944 N   0  0  0  0  0  0  0  0  0  0  0  0
    0.9194    9.5696   13.4473 H   0  0  0  0  0  0  0  0  0  0  0  0
   -1.9175    7.0999   11.1046 N   0  0  0  0  0  0  0  0  0  0  0  0
   -2.4043    6.7300    9.9096 N   0  0  0  0  0  0  0  0  0  0  0  0
   -2.0507    7.1734    9.0663 H   0  0  0  0  0  0  0  0  0  0  0  0
   -2.2392    9.8386   10.0995 N   0  0  0  0  0  0  0  0  0  0  0  0
   -1.8521   10.6901    9.1386 N   0  0  0  0  0  0  0  0  0  0  0  0
   -0.8663   10.8759    8.9862 H   0  0  0  0  0  0  0  0  0  0  0  0
    1.4299    6.8239   12.0944 C   0  0  2  0  0  3  0  0  0  0  0  0
    2.4150    6.8059   13.0908 C   0  0  0  0  0  0  0  0  0  0  0  0
    3.1169    6.0184   13.2710 H   0  0  0  0  0  0  0  0  0  0  0  0
    2.2975    7.9974   13.7759 C   0  0  0  0  0  0  0  0  0  0  0  0
    1.1845    5.7520   11.0955 C   0  0  0  0  0  0  0  0  0  0  0  0
    0.1225    5.6212   10.9056 H   0  0  0  0  0  0  0  0  0  0  0  0
    1.5999    4.8154   11.4583 H   0  0  0  0  0  0  0  0  0  0  0  0
    1.6680    6.0015   10.1514 H   0  0  0  0  0  0  0  0  0  0  0  0
    3.0539    8.5591   14.9201 C   0  0  0  0  0  0  0  0  0  0  0  0
    3.5768    9.4656   14.6172 H   0  0  0  0  0  0  0  0  0  0  0  0
    3.7815    7.8365   15.2771 H   0  0  0  0  0  0  0  0  0  0  0  0
    2.3770    8.8159   15.7338 H   0  0  0  0  0  0  0  0  0  0  0  0
   -2.4024    6.2455   12.0008 C   0  0  1  0  0  3  0  0  0  0  0  0
   -3.2159    5.3093   11.3443 C   0  0  0  0  0  0  0  0  0  0  0  0
   -3.7439    4.4985   11.8015 H   0  0  0  0  0  0  0  0  0  0  0  0
   -3.1853    5.6402   10.0062 C   0  0  0  0  0  0  0  0  0  0  0  0
   -2.1001    6.2847   13.4527 C   0  0  0  0  0  0  0  0  0  0  0  0
   -1.0887    6.6419   13.6294 H   0  0  0  0  0  0  0  0  0  0  0  0
   -2.2111    5.2902   13.8772 H   0  0  0  0  0  0  0  0  0  0  0  0
   -2.7840    6.9591   13.9670 H   0  0  0  0  0  0  0  0  0  0  0  0
   -3.8263    5.0216    8.8209 C   0  0  0  0  0  0  0  0  0  0  0  0
   -4.5235    5.7176    8.3552 H   0  0  0  0  0  0  0  0  0  0  0  0
   -4.3680    4.1278    9.1153 H   0  0  0  0  0  0  0  0  0  0  0  0
   -3.0745    4.7528    8.0800 H   0  0  0  0  0  0  0  0  0  0  0  0
   -3.5714    9.8489   10.1047 C   0  0  1  0  0  3  0  0  0  0  0  0
   -4.0230   10.7357    9.1176 C   0  0  0  0  0  0  0  0  0  0  0  0
   -5.0444   10.9589    8.8889 H   0  0  0  0  0  0  0  0  0  0  0  0
   -2.8956   11.2623    8.5227 C   0  0  0  0  0  0  0  0  0  0  0  0
   -4.4371    9.0435   11.0064 C   0  0  0  0  0  0  0  0  0  0  0  0
   -4.7693    8.1315   10.5086 H   0  0  0  0  0  0  0  0  0  0  0  0
   -5.3182    9.6238   11.2700 H   0  0  0  0  0  0  0  0  0  0  0  0
   -3.9144    8.7727   11.9182 H   0  0  0  0  0  0  0  0  0  0  0  0
   -2.7223   12.2515    7.4328 C   0  0  0  0  0  0  0  0  0  0  0  0
   -2.2087   13.1369    7.8056 H   0  0  0  0  0  0  0  0  0  0  0  0
   -3.6901   12.5463    7.0386 H   0  0  0  0  0  0  0  0  0  0  0  0
   -2.1233   11.8281    6.6277 H   0  0  0  0  0  0  0  0  0  0  0  0
  1  5  1  0  0  0  0
  1  2  1  0  0  0  0
  3  1  1  0  0  0  0
  4  1  1  0  0  0  0
  5  6  1  0  0  0  0
  6  7  1  0  0  0  0
  6 17  1  0  0  0  0
  8  1  1  0  0  0  0
  8 26  1  0  0  0  0
  9 29  1  0  0  0  0
  9  8  1  0  0  0  0
 10  9  1  0  0  0  0
 11 38  1  0  0  0  0
 11  1  1  0  0  0  0
 12 11  1  0  0  0  0
 13 12  1  0  0  0  0
 14 18  1  6  0  0  0
 14  5  1  0  0  0  0
 14 15  1  0  0  0  0
 15 16  1  0  0  0  0
 15 17  2  0  0  0  0
 17 22  1  0  0  0  0
 18 20  1  0  0  0  0
 19 18  1  0  0  0  0
 21 18  1  0  0  0  0
 22 24  1  0  0  0  0
 22 25  1  0  0  0  0
 23 22  1  0  0  0  0
 26 30  1  6  0  0  0
 27 28  1  0  0  0  0
 27 26  1  0  0  0  0
 29 27  2  0  0  0  0
 30 31  1  0  0  0  0
 30 32  1  0  0  0  0
 30 33  1  0  0  0  0
 34 36  1  0  0  0  0
 34 29  1  0  0  0  0
 35 34  1  0  0  0  0
 37 34  1  0  0  0  0
 38 42  1  6  0  0  0
 39 38  1  0  0  0  0
 40 39  1  0  0  0  0
 41 39  2  0  0  0  0
 41 12  1  0  0  0  0
 42 44  1  0  0  0  0
 42 45  1  0  0  0  0
 43 42  1  0  0  0  0
 46 47  1  0  0  0  0
 46 41  1  0  0  0  0
 48 46  1  0  0  0  0
 49 46  1  0  0  0  0
M  END
$$$$
