CSD_code = UBOYAO | q = 0 | S = 0 | Stoichiometry = C22H24Br2N2Pd | MND = 4
 OpenBabel04212202103D

 51 54  0  0  1  0  0  0  0  0999 V2000
    4.5454    1.9697    7.1892 Pd  0  0  0  0  0  0  0  0  0  0  0  0
    4.7222   -0.3911    7.5007 Br  0  0  0  0  0  0  0  0  0  0  0  0
    2.4518    2.1532    8.4073 Br  0  0  0  0  0  0  0  0  0  0  0  0
    6.1981    4.1625    6.5076 N   0  0  0  0  0  0  0  0  0  0  0  0
    5.0570    4.8220    8.2240 N   0  0  0  0  0  0  0  0  0  0  0  0
    5.8315    2.0467    5.6225 C   0  0  0  0  0  0  0  0  0  0  0  0
    5.7122    1.1101    4.6033 C   0  0  0  0  0  0  0  0  0  0  0  0
    6.1938    1.2083    3.2900 C   0  0  0  0  0  0  0  0  0  0  0  0
    7.2441    1.9754    2.8330 C   0  0  0  0  0  0  0  0  0  0  0  0
    8.0172    2.8953    3.5557 C   0  0  0  0  0  0  0  0  0  0  0  0
    7.7274    3.4763    4.7656 C   0  0  0  0  0  0  0  0  0  0  0  0
    6.5845    3.2379    5.5519 C   0  0  2  0  0  3  0  0  0  0  0  0
    5.1380    3.8410    7.3115 C   0  0  2  0  0  3  0  0  0  0  0  0
    6.7290    5.3706    6.8964 C   0  0  0  0  0  0  0  0  0  0  0  0
    6.0176    5.7710    7.9748 C   0  0  0  0  0  0  0  0  0  0  0  0
    4.1452    4.8888    9.3177 C   0  0  0  0  0  0  0  0  0  0  0  0
    3.0797    5.7880    9.2420 C   0  0  0  0  0  0  0  0  0  0  0  0
    2.2262    5.8702   10.3326 C   0  0  0  0  0  0  0  0  0  0  0  0
    2.4414    5.0938   11.4547 C   0  0  0  0  0  0  0  0  0  0  0  0
    3.4887    4.1943   11.4982 C   0  0  0  0  0  0  0  0  0  0  0  0
    4.3539    4.0568   10.4219 C   0  0  0  0  0  0  0  0  0  0  0  0
    2.8284    6.5635    7.9682 C   0  0  0  0  0  0  0  0  0  0  0  0
    2.0569    5.6630    6.9965 C   0  0  0  0  0  0  0  0  0  0  0  0
    2.0708    7.8710    8.1936 C   0  0  0  0  0  0  0  0  0  0  0  0
    5.4797    3.0438   10.4469 C   0  0  0  0  0  0  0  0  0  0  0  0
    5.1304    1.7906   11.2503 C   0  0  0  0  0  0  0  0  0  0  0  0
    6.7527    3.7007   10.9887 C   0  0  0  0  0  0  0  0  0  0  0  0
    5.1336    0.2143    4.8115 H   0  0  0  0  0  0  0  0  0  0  0  0
    5.7715    0.5056    2.5814 H   0  0  0  0  0  0  0  0  0  0  0  0
    7.5639    1.7960    1.8146 H   0  0  0  0  0  0  0  0  0  0  0  0
    8.9183    3.2403    3.0652 H   0  0  0  0  0  0  0  0  0  0  0  0
    8.4181    4.2292    5.1249 H   0  0  0  0  0  0  0  0  0  0  0  0
    7.5516    5.8437    6.4029 H   0  0  0  0  0  0  0  0  0  0  0  0
    6.1122    6.6487    8.5818 H   0  0  0  0  0  0  0  0  0  0  0  0
    1.3819    6.5384   10.3062 H   0  0  0  0  0  0  0  0  0  0  0  0
    1.7719    5.1749   12.2975 H   0  0  0  0  0  0  0  0  0  0  0  0
    3.6202    3.5793   12.3723 H   0  0  0  0  0  0  0  0  0  0  0  0
    3.7905    6.8199    7.5084 H   0  0  0  0  0  0  0  0  0  0  0  0
    1.8457    6.1972    6.0725 H   0  0  0  0  0  0  0  0  0  0  0  0
    1.1188    5.3470    7.4451 H   0  0  0  0  0  0  0  0  0  0  0  0
    2.6278    4.7663    6.7558 H   0  0  0  0  0  0  0  0  0  0  0  0
    2.0782    8.4588    7.2780 H   0  0  0  0  0  0  0  0  0  0  0  0
    2.5361    8.4580    8.9828 H   0  0  0  0  0  0  0  0  0  0  0  0
    1.0344    7.6820    8.4587 H   0  0  0  0  0  0  0  0  0  0  0  0
    5.6806    2.6954    9.4102 H   0  0  0  0  0  0  0  0  0  0  0  0
    4.1625    1.4044   10.9383 H   0  0  0  0  0  0  0  0  0  0  0  0
    5.1059    1.9921   12.3181 H   0  0  0  0  0  0  0  0  0  0  0  0
    5.8797    1.0225   11.0695 H   0  0  0  0  0  0  0  0  0  0  0  0
    7.5694    2.9824   11.0049 H   0  0  0  0  0  0  0  0  0  0  0  0
    6.5836    4.0553   12.0035 H   0  0  0  0  0  0  0  0  0  0  0  0
    7.0517    4.5494   10.3750 H   0  0  0  0  0  0  0  0  0  0  0  0
  1 13  1  0  0  0  0
  1  2  1  0  0  0  0
  1  3  1  0  0  0  0
  4 14  1  0  0  0  0
  5 16  1  0  0  0  0
  6  1  1  0  0  0  0
  7 28  1  0  0  0  0
  7  6  2  0  0  0  0
  8  7  1  0  0  0  0
  9  8  2  0  0  0  0
  9 10  1  0  0  0  0
 10 11  2  0  0  0  0
 11 32  1  0  0  0  0
 12 11  1  1  0  0  0
 12  6  1  0  0  0  0
 12  4  1  0  0  0  0
 13  4  1  1  0  0  0
 13  5  1  0  0  0  0
 14 15  2  0  0  0  0
 15  5  1  0  0  0  0
 15 34  1  0  0  0  0
 16 21  1  0  0  0  0
 17 16  2  0  0  0  0
 17 18  1  0  0  0  0
 18 19  2  0  0  0  0
 19 20  1  0  0  0  0
 19 36  1  0  0  0  0
 20 37  1  0  0  0  0
 21 25  1  0  0  0  0
 21 20  2  0  0  0  0
 22 24  1  0  0  0  0
 22 17  1  0  0  0  0
 23 40  1  0  0  0  0
 23 22  1  0  0  0  0
 24 44  1  0  0  0  0
 24 43  1  0  0  0  0
 25 27  1  0  0  0  0
 25 26  1  0  0  0  0
 26 47  1  0  0  0  0
 27 49  1  0  0  0  0
 27 50  1  0  0  0  0
 29  8  1  0  0  0  0
 30  9  1  0  0  0  0
 31 10  1  0  0  0  0
 33 14  1  0  0  0  0
 35 18  1  0  0  0  0
 38 22  1  0  0  0  0
 39 23  1  0  0  0  0
 41 23  1  0  0  0  0
 42 24  1  0  0  0  0
 45 25  1  0  0  0  0
 46 26  1  0  0  0  0
 48 26  1  0  0  0  0
 51 27  1  0  0  0  0
M  END
$$$$
