CSD_code = UBUCUP | q = 0 | S = 0 | Stoichiometry = C13H22AuClNPSe | MND = 2
 OpenBabel04212202103D

 40 40  0  0  0  0  0  0  0  0999 V2000
    3.1187    6.2092    1.3183 Au  0  0  0  0  0  0  0  0  0  0  0  0
    4.3715    5.4948   -0.4393 Cl  0  0  0  0  0  0  0  0  0  0  0  0
    1.8697    6.9004    3.0804 P   0  0  0  0  0  4  0  0  0  0  0  0
    2.4933    8.8913    3.8751 Se  0  0  0  0  0  0  0  0  0  0  0  0
    4.2101    8.9950    3.0205 C   0  0  0  0  0  0  0  0  0  0  0  0
    4.8105   10.2343    2.8437 C   0  0  0  0  0  0  0  0  0  0  0  0
    4.3066   11.1348    3.1656 H   0  0  0  0  0  0  0  0  0  0  0  0
    6.0549   10.2591    2.2409 C   0  0  0  0  0  0  0  0  0  0  0  0
    6.5594   11.1993    2.0738 H   0  0  0  0  0  0  0  0  0  0  0  0
    6.6403    9.0616    1.8493 C   0  0  0  0  0  0  0  0  0  0  0  0
    7.6070    9.0438    1.3730 H   0  0  0  0  0  0  0  0  0  0  0  0
    5.9531    7.8835    2.0815 C   0  0  0  0  0  0  0  0  0  0  0  0
    6.3500    6.9211    1.7906 H   0  0  0  0  0  0  0  0  0  0  0  0
    4.7623    7.8561    2.6628 N   0  0  0  0  0  0  0  0  0  0  0  0
    2.0753    5.7463    4.5632 C   0  0  0  0  0  0  0  0  0  0  0  0
    1.8116    4.3148    4.0994 C   0  0  0  0  0  0  0  0  0  0  0  0
    2.3811    4.0963    3.1954 H   0  0  0  0  0  0  0  0  0  0  0  0
    0.7593    4.1381    3.8956 H   0  0  0  0  0  0  0  0  0  0  0  0
    2.1254    3.6176    4.8748 H   0  0  0  0  0  0  0  0  0  0  0  0
    3.5540    5.8714    4.9347 C   0  0  0  0  0  0  0  0  0  0  0  0
    3.7732    6.8553    5.3498 H   0  0  0  0  0  0  0  0  0  0  0  0
    4.1842    5.7179    4.0585 H   0  0  0  0  0  0  0  0  0  0  0  0
    3.8151    5.1253    5.6831 H   0  0  0  0  0  0  0  0  0  0  0  0
    1.2051    6.1152    5.7588 C   0  0  0  0  0  0  0  0  0  0  0  0
    1.5499    5.5759    6.6400 H   0  0  0  0  0  0  0  0  0  0  0  0
    0.1644    5.8481    5.5910 H   0  0  0  0  0  0  0  0  0  0  0  0
    1.2705    7.1843    5.9687 H   0  0  0  0  0  0  0  0  0  0  0  0
    0.0658    7.2492    2.6305 C   0  0  0  0  0  0  0  0  0  0  0  0
    0.1764    8.1110    1.3698 C   0  0  0  0  0  0  0  0  0  0  0  0
   -0.8148    8.3469    0.9870 H   0  0  0  0  0  0  0  0  0  0  0  0
    0.7299    7.5862    0.5898 H   0  0  0  0  0  0  0  0  0  0  0  0
    0.6883    9.0503    1.5847 H   0  0  0  0  0  0  0  0  0  0  0  0
   -0.6107    5.9270    2.2769 C   0  0  0  0  0  0  0  0  0  0  0  0
   -1.5375    6.1215    1.7392 H   0  0  0  0  0  0  0  0  0  0  0  0
   -0.8574    5.3570    3.1697 H   0  0  0  0  0  0  0  0  0  0  0  0
    0.0329    5.3237    1.6360 H   0  0  0  0  0  0  0  0  0  0  0  0
   -0.7339    8.0027    3.6895 C   0  0  0  0  0  0  0  0  0  0  0  0
   -0.2160    8.9127    3.9981 H   0  0  0  0  0  0  0  0  0  0  0  0
   -0.9205    7.3938    4.5687 H   0  0  0  0  0  0  0  0  0  0  0  0
   -1.6969    8.2916    3.2704 H   0  0  0  0  0  0  0  0  0  0  0  0
  1  3  1  0  0  0  0
  2  1  1  0  0  0  0
  3  4  1  0  0  0  0
  3 15  1  0  0  0  0
  5  4  1  0  0  0  0
  6  5  1  0  0  0  0
  6  7  1  0  0  0  0
  8  6  2  0  0  0  0
  9  8  1  0  0  0  0
 10 12  2  0  0  0  0
 10  8  1  0  0  0  0
 11 10  1  0  0  0  0
 12 14  1  0  0  0  0
 13 12  1  0  0  0  0
 14  5  2  0  0  0  0
 15 20  1  0  0  0  0
 15 24  1  0  0  0  0
 16 15  1  0  0  0  0
 16 19  1  0  0  0  0
 17 16  1  0  0  0  0
 18 16  1  0  0  0  0
 20 21  1  0  0  0  0
 20 23  1  0  0  0  0
 22 20  1  0  0  0  0
 24 27  1  0  0  0  0
 24 25  1  0  0  0  0
 26 24  1  0  0  0  0
 28  3  1  0  0  0  0
 28 37  1  0  0  0  0
 29 32  1  0  0  0  0
 29 28  1  0  0  0  0
 30 29  1  0  0  0  0
 31 29  1  0  0  0  0
 33 28  1  0  0  0  0
 33 35  1  0  0  0  0
 34 33  1  0  0  0  0
 36 33  1  0  0  0  0
 37 38  1  0  0  0  0
 37 39  1  0  0  0  0
 40 37  1  0  0  0  0
M  END
$$$$
