CSD_code = UBUZUP | q = 1 | S = 0 | Stoichiometry = C22H18ClN6Ni(1+) | MND = 4
 OpenBabel04212202103D

 48 54  0  0  1  0  0  0  0  0999 V2000
    2.4250   -1.3131    5.1724 Ni  0  0  2  0  0  0  0  0  0  0  0  0
    1.1608   -2.8826    5.1368 Cl  0  0  0  0  0  0  0  0  0  0  0  0
    3.4832    0.1948    5.2360 C   0  0  0  0  0  0  0  0  0  0  0  0
    3.2531   -3.0898    3.1976 N   0  0  0  0  0  2  0  0  0  0  0  0
    3.4485   -1.9196    3.7139 N   0  0  0  0  0  0  0  0  0  0  0  0
    3.1958    1.0883    6.2260 N   0  0  0  0  0  0  0  0  0  0  0  0
    1.5982   -0.4667    6.7325 N   0  0  0  0  0  0  0  0  0  0  0  0
    2.1593    0.7133    7.0798 C   0  0  1  0  0  3  0  0  0  0  0  0
    4.4775    0.6928    4.5002 N   0  0  0  0  0  0  0  0  0  0  0  0
    4.1217   -3.2810    2.2495 N   0  0  0  0  0  0  0  0  0  0  0  0
    4.4909   -1.3146    3.0760 C   0  0  0  0  0  0  0  0  0  0  0  0
    4.8559    1.9276    4.9982 C   0  0  0  0  0  0  0  0  0  0  0  0
    0.5935   -0.9386    7.4699 C   0  0  0  0  0  0  0  0  0  0  0  0
    0.1720   -1.8848    7.1529 H   0  0  0  0  0  0  0  0  0  0  0  0
    4.0340    2.1909    6.1128 C   0  0  0  0  0  0  0  0  0  0  0  0
    5.9615    3.9931    5.2890 C   0  0  0  0  0  0  0  0  0  0  0  0
    6.7046    4.7148    4.9905 H   0  0  0  0  0  0  0  0  0  0  0  0
    4.9235   -2.2071    2.1178 C   0  0  0  0  0  0  0  0  0  0  0  0
    5.7058   -2.1445    1.3914 H   0  0  0  0  0  0  0  0  0  0  0  0
    0.1065   -0.2663    8.5774 C   0  0  0  0  0  0  0  0  0  0  0  0
   -0.7082   -0.6875    9.1423 H   0  0  0  0  0  0  0  0  0  0  0  0
    5.8264    2.8198    4.5719 C   0  0  0  0  0  0  0  0  0  0  0  0
    6.4487    2.6108    3.7170 H   0  0  0  0  0  0  0  0  0  0  0  0
    1.7280    1.4406    8.1786 C   0  0  0  0  0  0  0  0  0  0  0  0
    2.1962    2.3722    8.4407 H   0  0  0  0  0  0  0  0  0  0  0  0
    3.5853   -4.1476    0.0619 C   0  0  0  0  0  0  0  0  0  0  0  0
    4.0945   -4.4780    1.4462 C   0  0  0  0  0  0  0  0  0  0  0  0
    3.4220   -5.1743    1.9527 H   0  0  0  0  0  0  0  0  0  0  0  0
    5.0994   -4.9036    1.3995 H   0  0  0  0  0  0  0  0  0  0  0  0
    4.1812    3.3755    6.8194 C   0  0  0  0  0  0  0  0  0  0  0  0
    3.5733    3.6230    7.6720 H   0  0  0  0  0  0  0  0  0  0  0  0
    2.6263   -3.4937   -2.4562 C   0  0  0  0  0  0  0  0  0  0  0  0
    2.2523   -3.2438   -3.4368 H   0  0  0  0  0  0  0  0  0  0  0  0
    2.2787   -3.6996   -0.0920 C   0  0  0  0  0  0  0  0  0  0  0  0
    1.6367   -3.6148    0.7733 H   0  0  0  0  0  0  0  0  0  0  0  0
    4.4103   -4.2606   -1.0473 C   0  0  0  0  0  0  0  0  0  0  0  0
    5.4253   -4.6133   -0.9332 H   0  0  0  0  0  0  0  0  0  0  0  0
    3.9280   -3.9396   -2.3052 C   0  0  0  0  0  0  0  0  0  0  0  0
    4.5708   -4.0390   -3.1661 H   0  0  0  0  0  0  0  0  0  0  0  0
    1.8021   -3.3734   -1.3488 C   0  0  0  0  0  0  0  0  0  0  0  0
    0.7856   -3.0304   -1.4645 H   0  0  0  0  0  0  0  0  0  0  0  0
    0.6836    0.9402    8.9390 C   0  0  0  0  0  0  0  0  0  0  0  0
    0.3319    1.4881    9.7988 H   0  0  0  0  0  0  0  0  0  0  0  0
    5.1525    4.2619    6.3898 C   0  0  0  0  0  0  0  0  0  0  0  0
    5.2847    5.1892    6.9239 H   0  0  0  0  0  0  0  0  0  0  0  0
    5.0538    0.0482    3.3475 C   0  0  0  0  0  0  0  0  0  0  0  0
    6.1383   -0.0399    3.4927 H   0  0  0  0  0  0  0  0  0  0  0  0
    4.8886    0.6821    2.4651 H   0  0  0  0  0  0  0  0  0  0  0  0
  1  2  1  6  0  0  0
  1  3  2  0  0  0  0
  1  7  1  0  0  0  0
  3  6  1  0  0  0  0
  4  5  1  0  0  0  0
  5  1  1  0  0  0  0
  6  8  1  0  0  0  0
  7  8  1  0  0  0  0
  7 13  1  0  0  0  0
  8 24  1  1  0  0  0
  9 12  1  0  0  0  0
  9  3  1  0  0  0  0
 10  4  1  0  0  0  0
 11 46  1  0  0  0  0
 11  5  1  0  0  0  0
 12 15  1  0  0  0  0
 13 20  2  0  0  0  0
 14 13  1  0  0  0  0
 15  6  1  0  0  0  0
 15 30  2  0  0  0  0
 16 44  2  0  0  0  0
 17 16  1  0  0  0  0
 18 10  1  0  0  0  0
 18 11  2  0  0  0  0
 19 18  1  0  0  0  0
 20 42  1  0  0  0  0
 20 21  1  0  0  0  0
 22 12  2  0  0  0  0
 22 16  1  0  0  0  0
 23 22  1  0  0  0  0
 24 25  1  0  0  0  0
 24 42  2  0  0  0  0
 26 27  1  0  0  0  0
 27 28  1  0  0  0  0
 27 10  1  0  0  0  0
 29 27  1  0  0  0  0
 30 31  1  0  0  0  0
 32 38  2  0  0  0  0
 32 40  1  0  0  0  0
 33 32  1  0  0  0  0
 34 26  1  0  0  0  0
 34 35  1  0  0  0  0
 36 37  1  0  0  0  0
 36 26  2  0  0  0  0
 38 36  1  0  0  0  0
 39 38  1  0  0  0  0
 40 34  2  0  0  0  0
 41 40  1  0  0  0  0
 42 43  1  0  0  0  0
 44 30  1  0  0  0  0
 44 45  1  0  0  0  0
 46 47  1  0  0  0  0
 46  9  1  0  0  0  0
 48 46  1  0  0  0  0
M  END
$$$$
