CSD_code = UCEBUA | q = 0 | S = 0 | Stoichiometry = C12H20CoIS4 | MND = 5
 OpenBabel04212202103D

 38 39  0  0  0  0  0  0  0  0999 V2000
   11.4454    6.9070   10.1797 Co  0  0  0  0  0  0  0  0  0  0  0  0
    9.1269    7.4762    9.3466 I   0  0  0  0  0  0  0  0  0  0  0  0
   10.9842    4.9232   10.9771 S   0  0  0  0  0  0  0  0  0  0  0  0
   11.1518    7.7185   12.1933 S   0  0  0  0  0  0  0  0  0  0  0  0
   12.4290    8.7625    9.5688 S   0  0  0  0  0  0  0  0  0  0  0  0
   12.1235    6.0013    8.3038 S   0  0  0  0  0  0  0  0  0  0  0  0
   10.4788    5.1692   12.5762 C   0  0  0  0  0  0  0  0  0  0  0  0
   10.5446    6.4394   13.1242 C   0  0  0  0  0  0  0  0  0  0  0  0
    9.9430    4.0033   13.3536 C   0  0  0  0  0  0  0  0  0  0  0  0
    8.9109    4.2316   13.6400 H   0  0  0  0  0  0  0  0  0  0  0  0
   10.5179    3.9108   14.2812 H   0  0  0  0  0  0  0  0  0  0  0  0
    9.9769    2.6852   12.5945 C   0  0  0  0  0  0  0  0  0  0  0  0
    9.3801    2.7510   11.6882 H   0  0  0  0  0  0  0  0  0  0  0  0
    9.5758    1.8896   13.2174 H   0  0  0  0  0  0  0  0  0  0  0  0
   10.9963    2.4276   12.3163 H   0  0  0  0  0  0  0  0  0  0  0  0
   10.0722    6.7195   14.5205 C   0  0  0  0  0  0  0  0  0  0  0  0
    9.0288    6.3963   14.5981 H   0  0  0  0  0  0  0  0  0  0  0  0
   10.6506    6.0983   15.2132 H   0  0  0  0  0  0  0  0  0  0  0  0
   10.1809    8.1811   14.9290 C   0  0  0  0  0  0  0  0  0  0  0  0
   11.2146    8.5167   14.8891 H   0  0  0  0  0  0  0  0  0  0  0  0
    9.8135    8.3089   15.9442 H   0  0  0  0  0  0  0  0  0  0  0  0
    9.5908    8.8072   14.2643 H   0  0  0  0  0  0  0  0  0  0  0  0
   12.7929    7.2650    7.3948 C   0  0  0  0  0  0  0  0  0  0  0  0
   12.9420    8.5148    7.9723 C   0  0  0  0  0  0  0  0  0  0  0  0
   13.1905    7.0030    5.9719 C   0  0  0  0  0  0  0  0  0  0  0  0
   14.2584    7.2225    5.8641 H   0  0  0  0  0  0  0  0  0  0  0  0
   12.6537    7.7117    5.3328 H   0  0  0  0  0  0  0  0  0  0  0  0
   12.9083    5.5837    5.5019 C   0  0  0  0  0  0  0  0  0  0  0  0
   13.4591    4.8623    6.1010 H   0  0  0  0  0  0  0  0  0  0  0  0
   13.2078    5.4725    4.4628 H   0  0  0  0  0  0  0  0  0  0  0  0
   11.8477    5.3594    5.5838 H   0  0  0  0  0  0  0  0  0  0  0  0
   13.5215    9.6701    7.2107 C   0  0  0  0  0  0  0  0  0  0  0  0
   12.8913    9.8486    6.3330 H   0  0  0  0  0  0  0  0  0  0  0  0
   14.5102    9.3803    6.8394 H   0  0  0  0  0  0  0  0  0  0  0  0
   13.6328   10.9525    8.0219 C   0  0  0  0  0  0  0  0  0  0  0  0
   12.6528   11.2724    8.3668 H   0  0  0  0  0  0  0  0  0  0  0  0
   14.0597   11.7419    7.4084 H   0  0  0  0  0  0  0  0  0  0  0  0
   14.2707   10.8043    8.8902 H   0  0  0  0  0  0  0  0  0  0  0  0
  1  3  1  0  0  0  0
  1  4  1  0  0  0  0
  2  1  1  0  0  0  0
  3  7  1  0  0  0  0
  4  8  1  0  0  0  0
  5  1  1  0  0  0  0
  6  1  1  0  0  0  0
  7  8  2  0  0  0  0
  7  9  1  0  0  0  0
  8 16  1  0  0  0  0
  9 10  1  0  0  0  0
  9 11  1  0  0  0  0
 12 14  1  0  0  0  0
 12  9  1  0  0  0  0
 13 12  1  0  0  0  0
 15 12  1  0  0  0  0
 16 17  1  0  0  0  0
 16 19  1  0  0  0  0
 16 18  1  0  0  0  0
 19 21  1  0  0  0  0
 20 19  1  0  0  0  0
 22 19  1  0  0  0  0
 23 24  2  0  0  0  0
 23  6  1  0  0  0  0
 24  5  1  0  0  0  0
 25 23  1  0  0  0  0
 26 25  1  0  0  0  0
 27 25  1  0  0  0  0
 28 31  1  0  0  0  0
 28 25  1  0  0  0  0
 28 29  1  0  0  0  0
 30 28  1  0  0  0  0
 32 24  1  0  0  0  0
 32 35  1  0  0  0  0
 33 32  1  0  0  0  0
 34 32  1  0  0  0  0
 35 36  1  0  0  0  0
 35 38  1  0  0  0  0
 37 35  1  0  0  0  0
M  END
$$$$
