CSD_code = UCEDIR | q = 0 | S = 0 | Stoichiometry = C18H19ClN3OReS2 | MND = 5
 OpenBabel04212202103D

 45 48  0  0  1  0  0  0  0  0999 V2000
    0.1981  -14.6676    5.8296 Re  0  0  0  0  0  0  0  0  0  0  0  0
    0.3030  -16.8301    6.3922 Cl  0  0  0  0  0  0  0  0  0  0  0  0
   -2.1357  -14.9755    6.2281 S   0  0  0  0  0  0  0  0  0  0  0  0
    1.7025  -15.2399    4.1470 S   0  0  0  0  0  0  0  0  0  0  0  0
    0.9699  -13.8389    7.0591 O   0  0  0  0  0  1  0  0  0  0  0  0
   -2.2541  -12.4026    5.4579 N   0  0  0  0  0  2  0  0  0  0  0  0
   -0.2676  -13.1952    4.4967 N   0  0  0  0  0  0  0  0  0  0  0  0
   -4.2376  -13.5119    5.5455 N   0  0  0  0  0  0  0  0  0  0  0  0
   -2.9087  -13.5205    5.6700 C   0  0  2  0  0  3  0  0  0  0  0  0
   -1.0179  -12.2246    5.0664 C   0  0  1  0  0  3  0  0  0  0  0  0
   -0.4696  -10.8740    5.2515 C   0  0  0  0  0  0  0  0  0  0  0  0
   -1.2967   -9.7542    5.2151 C   0  0  0  0  0  0  0  0  0  0  0  0
   -2.3463   -9.8831    4.9999 H   0  0  0  0  0  0  0  0  0  0  0  0
   -0.7659   -8.4974    5.4341 C   0  0  0  0  0  0  0  0  0  0  0  0
   -1.4068   -7.6292    5.3950 H   0  0  0  0  0  0  0  0  0  0  0  0
    0.5852   -8.3508    5.7047 C   0  0  0  0  0  0  0  0  0  0  0  0
    0.9972   -7.3674    5.8754 H   0  0  0  0  0  0  0  0  0  0  0  0
    1.4062   -9.4661    5.7669 C   0  0  0  0  0  0  0  0  0  0  0  0
    2.4544   -9.3541    5.9977 H   0  0  0  0  0  0  0  0  0  0  0  0
    0.8866  -10.7254    5.5403 C   0  0  0  0  0  0  0  0  0  0  0  0
    1.5140  -11.6025    5.6214 H   0  0  0  0  0  0  0  0  0  0  0  0
   -4.8897  -12.2967    5.0902 C   0  0  0  0  0  0  0  0  0  0  0  0
   -5.8607  -12.5711    4.6735 H   0  0  0  0  0  0  0  0  0  0  0  0
   -4.2786  -11.8638    4.2941 H   0  0  0  0  0  0  0  0  0  0  0  0
   -5.0636  -11.2716    6.2071 C   0  0  0  0  0  0  0  0  0  0  0  0
   -5.4808  -10.3549    5.7991 H   0  0  0  0  0  0  0  0  0  0  0  0
   -4.0999  -11.0517    6.6576 H   0  0  0  0  0  0  0  0  0  0  0  0
   -5.7347  -11.6432    6.9762 H   0  0  0  0  0  0  0  0  0  0  0  0
   -5.0447  -14.6436    5.9509 C   0  0  0  0  0  0  0  0  0  0  0  0
   -4.5285  -15.5598    5.6497 H   0  0  0  0  0  0  0  0  0  0  0  0
   -5.9934  -14.5881    5.4131 H   0  0  0  0  0  0  0  0  0  0  0  0
   -5.2959  -14.6855    7.4558 C   0  0  0  0  0  0  0  0  0  0  0  0
   -5.8592  -15.5807    7.7032 H   0  0  0  0  0  0  0  0  0  0  0  0
   -5.8616  -13.8176    7.7830 H   0  0  0  0  0  0  0  0  0  0  0  0
   -4.3521  -14.7123    7.9929 H   0  0  0  0  0  0  0  0  0  0  0  0
    0.5597  -12.9051    3.4206 C   0  0  0  0  0  0  0  0  0  0  0  0
    0.3596  -11.8245    2.5589 C   0  0  0  0  0  0  0  0  0  0  0  0
   -0.4641  -11.1484    2.7316 H   0  0  0  0  0  0  0  0  0  0  0  0
    1.2079  -11.6293    1.4886 C   0  0  0  0  0  0  0  0  0  0  0  0
    1.0499  -10.7846    0.8356 H   0  0  0  0  0  0  0  0  0  0  0  0
    2.2512  -12.5126    1.2407 C   0  0  0  0  0  0  0  0  0  0  0  0
    2.9088  -12.3495    0.4011 H   0  0  0  0  0  0  0  0  0  0  0  0
    2.4332  -13.6133    2.0535 C   0  0  0  0  0  0  0  0  0  0  0  0
    3.2186  -14.3271    1.8621 H   0  0  0  0  0  0  0  0  0  0  0  0
    1.5844  -13.8187    3.1336 C   0  0  0  0  0  0  0  0  0  0  0  0
  1  3  1  0  0  0  0
  1  2  1  0  0  0  0
  1  5  1  0  0  0  0
  4  1  1  0  0  0  0
  6  9  1  0  0  0  0
  7 10  1  0  0  0  0
  7  1  1  0  0  0  0
  8 29  1  0  0  0  0
  9  8  1  1  0  0  0
  9  3  1  0  0  0  0
 10 11  1  6  0  0  0
 10  6  1  0  0  0  0
 11 20  1  0  0  0  0
 12 11  2  0  0  0  0
 12 14  1  0  0  0  0
 13 12  1  0  0  0  0
 14 16  2  0  0  0  0
 15 14  1  0  0  0  0
 16 18  1  0  0  0  0
 16 17  1  0  0  0  0
 18 19  1  0  0  0  0
 20 21  1  0  0  0  0
 20 18  2  0  0  0  0
 22  8  1  0  0  0  0
 22 25  1  0  0  0  0
 23 22  1  0  0  0  0
 24 22  1  0  0  0  0
 25 27  1  0  0  0  0
 25 28  1  0  0  0  0
 26 25  1  0  0  0  0
 29 32  1  0  0  0  0
 30 29  1  0  0  0  0
 31 29  1  0  0  0  0
 32 33  1  0  0  0  0
 32 34  1  0  0  0  0
 32 35  1  0  0  0  0
 36  7  1  0  0  0  0
 37 38  1  0  0  0  0
 37 36  2  0  0  0  0
 39 37  1  0  0  0  0
 40 39  1  0  0  0  0
 41 39  2  0  0  0  0
 41 43  1  0  0  0  0
 42 41  1  0  0  0  0
 43 45  2  0  0  0  0
 44 43  1  0  0  0  0
 45 36  1  0  0  0  0
 45  4  1  0  0  0  0
M  END
$$$$
