CSD_code = UCISAA | q = 0 | S = 0 | Stoichiometry = C4H10Cl2N2NiO2 | MND = 6
 OpenBabel04212202103D

 21 18  0  0  0  0  0  0  0  0999 V2000
    0.0001    0.0001   -0.0001 Ni  0  0  0  0  0  0  0  0  0  0  0  0
    1.2671   -1.7026    0.5715 Cl  0  0  0  0  0  0  0  0  0  0  0  0
    1.1431    1.0853    0.7195 N   0  0  0  0  0  2  0  0  0  0  0  0
    1.1248    0.5751   -2.1536 O   0  0  0  0  0  0  0  0  0  0  0  0
    1.9861    1.8104    1.0007 C   0  0  0  0  0  2  0  0  0  0  0  0
    3.0303    2.7142    1.3637 C   0  0  0  0  0  0  0  0  0  0  0  0
    3.2265    2.6418    2.4332 H   0  0  0  0  0  0  0  0  0  0  0  0
    2.7333    3.7328    1.1148 H   0  0  0  0  0  0  0  0  0  0  0  0
    3.9337    2.4539    0.8127 H   0  0  0  0  0  0  0  0  0  0  0  0
    0.4800    1.2849   -2.2926 H   0  0  0  0  0  0  0  0  0  0  0  0
    0.9287   -0.1221   -2.7850 H   0  0  0  0  0  0  0  0  0  0  0  0
   -1.2670    1.7027   -0.5715 Cl  0  0  0  0  0  0  0  0  0  0  0  0
   -1.1429   -1.0853   -0.7199 N   0  0  0  0  0  2  0  0  0  0  0  0
   -1.9865   -1.8098   -1.0008 C   0  0  0  0  0  2  0  0  0  0  0  0
   -3.0309   -2.7135   -1.3634 C   0  0  0  0  0  0  0  0  0  0  0  0
   -3.2275   -2.6411   -2.4328 H   0  0  0  0  0  0  0  0  0  0  0  0
   -2.7339   -3.7321   -1.1146 H   0  0  0  0  0  0  0  0  0  0  0  0
   -3.9340   -2.4531   -0.8121 H   0  0  0  0  0  0  0  0  0  0  0  0
   -1.1242   -0.5758    2.1534 O   0  0  0  0  0  0  0  0  0  0  0  0
   -0.4798   -1.2862    2.2913 H   0  0  0  0  0  0  0  0  0  0  0  0
   -0.9270    0.1205    2.7856 H   0  0  0  0  0  0  0  0  0  0  0  0
  1  2  1  0  0  0  0
  1  3  1  0  0  0  0
  3  5  1  0  0  0  0
  5  6  1  0  0  0  0
  6  7  1  0  0  0  0
  8  6  1  0  0  0  0
  9  6  1  0  0  0  0
 10  4  1  0  0  0  0
 11  4  1  0  0  0  0
 12  1  1  0  0  0  0
 13  1  1  0  0  0  0
 14 13  1  0  0  0  0
 15 17  1  0  0  0  0
 15 14  1  0  0  0  0
 15 18  1  0  0  0  0
 16 15  1  0  0  0  0
 19 20  1  0  0  0  0
 19 21  1  0  0  0  0
M  END
$$$$
