CSD_code = UCIZUC | q = 0 | S = 0 | Stoichiometry = C3H10Cl2N2Pt | MND = 4
 OpenBabel04212202103D

 18 18  0  0  0  0  0  0  0  0999 V2000
   -0.0073    0.2573    3.2375 Pt  0  0  0  0  0  0  0  0  0  0  0  0
   -1.4704   -0.1071    1.5765 Cl  0  0  0  0  0  0  0  0  0  0  0  0
    1.4201    0.5851    1.7111 N   0  0  0  0  0  4  0  0  0  0  0  0
    0.9652    0.1355    0.9116 H   0  0  0  0  0  0  0  0  0  0  0  0
    1.4703    1.5834    1.5082 H   0  0  0  0  0  0  0  0  0  0  0  0
    2.7555    0.0393    1.9530 C   0  0  0  0  0  0  0  0  0  0  0  0
    3.4238    0.2682    1.1121 H   0  0  0  0  0  0  0  0  0  0  0  0
    2.6697   -1.0475    2.0315 H   0  0  0  0  0  0  0  0  0  0  0  0
    3.3781    0.5950    3.2375 C   0  0  0  0  0  0  0  0  0  0  0  0
    3.2976    1.6850    3.2375 H   0  0  0  0  0  0  0  0  0  0  0  0
    4.4389    0.3411    3.2375 H   0  0  0  0  0  0  0  0  0  0  0  0
   -1.4705   -0.1071    4.8985 Cl  0  0  0  0  0  0  0  0  0  0  0  0
    1.4201    0.5851    4.7639 N   0  0  0  0  0  4  0  0  0  0  0  0
    0.9653    0.1355    5.5634 H   0  0  0  0  0  0  0  0  0  0  0  0
    1.4703    1.5834    4.9668 H   0  0  0  0  0  0  0  0  0  0  0  0
    2.7555    0.0393    4.5220 C   0  0  0  0  0  0  0  0  0  0  0  0
    3.4239    0.2682    5.3629 H   0  0  0  0  0  0  0  0  0  0  0  0
    2.6697   -1.0475    4.4435 H   0  0  0  0  0  0  0  0  0  0  0  0
  1 13  1  0  0  0  0
  1 12  1  0  0  0  0
  2  1  1  0  0  0  0
  3  6  1  0  0  0  0
  3  1  1  0  0  0  0
  4  3  1  0  0  0  0
  5  3  1  0  0  0  0
  6  8  1  0  0  0  0
  6  9  1  0  0  0  0
  7  6  1  0  0  0  0
  9 10  1  0  0  0  0
  9 16  1  0  0  0  0
 11  9  1  0  0  0  0
 13 15  1  0  0  0  0
 13 14  1  0  0  0  0
 16 13  1  0  0  0  0
 16 17  1  0  0  0  0
 18 16  1  0  0  0  0
M  END
$$$$
