CSD_code = UCODAT | q = 0 | S = 0 | Stoichiometry = C30H24Cl2O6P2Pd | MND = 4
 OpenBabel04212202103D

 65 71  0  0  0  0  0  0  0  0999 V2000
   11.3010   11.3035    0.0016 Pd  0  0  0  0  0  0  0  0  0  0  0  0
   13.0873   11.7247    1.3123 Cl  0  0  0  0  0  0  0  0  0  0  0  0
   10.9348    9.4895    1.2793 P   0  0  0  0  0  4  0  0  0  0  0  0
   11.3698    6.8677    0.4587 O   0  0  0  0  0  0  0  0  0  0  0  0
    6.1301    8.2237   -0.0371 O   0  0  0  0  0  0  0  0  0  0  0  0
   11.7080   10.0555    3.7905 O   0  0  0  0  0  0  0  0  0  0  0  0
   11.5474    8.1821    0.2125 C   0  0  0  0  0  0  0  0  0  0  0  0
   12.2696    8.3589   -0.9414 C   0  0  0  0  0  0  0  0  0  0  0  0
   12.5703    9.3145   -1.3641 H   0  0  0  0  0  0  0  0  0  0  0  0
   12.5430    7.0624   -1.4281 C   0  0  0  0  0  0  0  0  0  0  0  0
   13.0894    6.8042   -2.3115 H   0  0  0  0  0  0  0  0  0  0  0  0
   11.9703    6.2031   -0.5383 C   0  0  0  0  0  0  0  0  0  0  0  0
   11.9357    5.1312   -0.5045 H   0  0  0  0  0  0  0  0  0  0  0  0
    9.1973    9.1070    1.6696 C   0  0  0  0  0  0  0  0  0  0  0  0
    8.3002    8.7113    0.6806 C   0  0  0  0  0  0  0  0  0  0  0  0
    6.9316    8.6107    0.9883 C   0  0  0  0  0  0  0  0  0  0  0  0
    6.4832    8.9285    2.2641 C   0  0  0  0  0  0  0  0  0  0  0  0
    5.4364    8.8635    2.5141 H   0  0  0  0  0  0  0  0  0  0  0  0
    7.3858    9.3360    3.2323 C   0  0  0  0  0  0  0  0  0  0  0  0
    7.0268    9.5832    4.2201 H   0  0  0  0  0  0  0  0  0  0  0  0
    8.7297    9.4371    2.9418 C   0  0  0  0  0  0  0  0  0  0  0  0
    9.4218    9.7778    3.6960 H   0  0  0  0  0  0  0  0  0  0  0  0
    4.7481    8.1043    0.1934 C   0  0  0  0  0  0  0  0  0  0  0  0
    4.5306    7.3514    0.9579 H   0  0  0  0  0  0  0  0  0  0  0  0
    4.3197    7.7877   -0.7562 H   0  0  0  0  0  0  0  0  0  0  0  0
    4.3040    9.0608    0.4871 H   0  0  0  0  0  0  0  0  0  0  0  0
   11.8479    9.1614    2.7887 C   0  0  0  0  0  0  0  0  0  0  0  0
   12.5805    9.7223    4.7442 C   0  0  0  0  0  0  0  0  0  0  0  0
   12.6023   10.3305    5.6274 H   0  0  0  0  0  0  0  0  0  0  0  0
   13.2964    8.6206    4.3828 C   0  0  0  0  0  0  0  0  0  0  0  0
   14.0633    8.1346    4.9499 H   0  0  0  0  0  0  0  0  0  0  0  0
   12.8309    8.2572    3.1016 C   0  0  0  0  0  0  0  0  0  0  0  0
   13.1684    7.4399    2.4977 H   0  0  0  0  0  0  0  0  0  0  0  0
   11.7249   13.0862   -1.3133 Cl  0  0  0  0  0  0  0  0  0  0  0  0
    9.4896   10.9348   -1.2794 P   0  0  0  0  0  4  0  0  0  0  0  0
    6.8679   11.3698   -0.4585 O   0  0  0  0  0  0  0  0  0  0  0  0
    8.2238    6.1300    0.0370 O   0  0  0  0  0  0  0  0  0  0  0  0
   10.0554   11.7081   -3.7906 O   0  0  0  0  0  0  0  0  0  0  0  0
    8.1823   11.5474   -0.2125 C   0  0  0  0  0  0  0  0  0  0  0  0
    8.3592   12.2697    0.9414 C   0  0  0  0  0  0  0  0  0  0  0  0
    9.3149   12.5704    1.3639 H   0  0  0  0  0  0  0  0  0  0  0  0
    7.0628   12.5431    1.4281 C   0  0  0  0  0  0  0  0  0  0  0  0
    6.8047   13.0896    2.3116 H   0  0  0  0  0  0  0  0  0  0  0  0
    6.2034   11.9704    0.5385 C   0  0  0  0  0  0  0  0  0  0  0  0
    5.1315   11.9358    0.5048 H   0  0  0  0  0  0  0  0  0  0  0  0
    9.1072    9.1973   -1.6696 C   0  0  0  0  0  0  0  0  0  0  0  0
    8.7114    8.3002   -0.6806 C   0  0  0  0  0  0  0  0  0  0  0  0
    8.6108    6.9316   -0.9884 C   0  0  0  0  0  0  0  0  0  0  0  0
    8.9286    6.4833   -2.2642 C   0  0  0  0  0  0  0  0  0  0  0  0
    8.8635    5.4365   -2.5142 H   0  0  0  0  0  0  0  0  0  0  0  0
    9.3360    7.3859   -3.2324 C   0  0  0  0  0  0  0  0  0  0  0  0
    9.5833    7.0270   -4.2201 H   0  0  0  0  0  0  0  0  0  0  0  0
    9.4373    8.7297   -2.9418 C   0  0  0  0  0  0  0  0  0  0  0  0
    9.7779    9.4218   -3.6960 H   0  0  0  0  0  0  0  0  0  0  0  0
    8.1044    4.7480   -0.1936 C   0  0  0  0  0  0  0  0  0  0  0  0
    7.3514    4.5306   -0.9580 H   0  0  0  0  0  0  0  0  0  0  0  0
    7.7878    4.3196    0.7561 H   0  0  0  0  0  0  0  0  0  0  0  0
    9.0608    4.3039   -0.4874 H   0  0  0  0  0  0  0  0  0  0  0  0
    9.1613   11.8479   -2.7887 C   0  0  0  0  0  0  0  0  0  0  0  0
    9.7221   12.5805   -4.7443 C   0  0  0  0  0  0  0  0  0  0  0  0
   10.3302   12.6024   -5.6275 H   0  0  0  0  0  0  0  0  0  0  0  0
    8.6204   13.2964   -4.3827 C   0  0  0  0  0  0  0  0  0  0  0  0
    8.1344   14.0635   -4.9497 H   0  0  0  0  0  0  0  0  0  0  0  0
    8.2571   12.8309   -3.1016 C   0  0  0  0  0  0  0  0  0  0  0  0
    7.4398   13.1684   -2.4976 H   0  0  0  0  0  0  0  0  0  0  0  0
  1  3  1  0  0  0  0
  1  2  1  0  0  0  0
  3 14  1  0  0  0  0
  3 27  1  0  0  0  0
  5 23  1  0  0  0  0
  5 16  1  0  0  0  0
  6 28  1  0  0  0  0
  7  4  1  0  0  0  0
  7  3  1  0  0  0  0
  8  7  2  0  0  0  0
  9  8  1  0  0  0  0
 10  8  1  0  0  0  0
 10 12  2  0  0  0  0
 11 10  1  0  0  0  0
 12 13  1  0  0  0  0
 12  4  1  0  0  0  0
 14 21  1  0  0  0  0
 15 16  1  0  0  0  0
 15 14  2  0  0  0  0
 16 17  2  0  0  0  0
 17 18  1  0  0  0  0
 17 19  1  0  0  0  0
 19 20  1  0  0  0  0
 21 19  2  0  0  0  0
 21 22  1  0  0  0  0
 23 26  1  0  0  0  0
 23 24  1  0  0  0  0
 25 23  1  0  0  0  0
 27 32  2  0  0  0  0
 27  6  1  0  0  0  0
 28 29  1  0  0  0  0
 30 28  2  0  0  0  0
 30 31  1  0  0  0  0
 32 30  1  0  0  0  0
 33 32  1  0  0  0  0
 34  1  1  0  0  0  0
 35 39  1  0  0  0  0
 35  1  1  0  0  0  0
 36 39  1  0  0  0  0
 36 44  1  0  0  0  0
 38 59  1  0  0  0  0
 39 40  2  0  0  0  0
 40 41  1  0  0  0  0
 40 42  1  0  0  0  0
 42 43  1  0  0  0  0
 44 42  2  0  0  0  0
 45 44  1  0  0  0  0
 46 35  1  0  0  0  0
 46 47  1  0  0  0  0
 47 15  1  0  0  0  0
 48 47  2  0  0  0  0
 48 37  1  0  0  0  0
 49 48  1  0  0  0  0
 50 49  1  0  0  0  0
 51 53  1  0  0  0  0
 51 49  2  0  0  0  0
 52 51  1  0  0  0  0
 53 46  2  0  0  0  0
 54 53  1  0  0  0  0
 55 37  1  0  0  0  0
 55 57  1  0  0  0  0
 56 55  1  0  0  0  0
 58 55  1  0  0  0  0
 59 35  1  0  0  0  0
 60 62  2  0  0  0  0
 60 38  1  0  0  0  0
 61 60  1  0  0  0  0
 62 64  1  0  0  0  0
 63 62  1  0  0  0  0
 64 59  2  0  0  0  0
 64 65  1  0  0  0  0
M  END
$$$$
