CSD_code = UCUBUQ | q = 0 | S = 0 | Stoichiometry = C36H28BrNNiP2 | MND = 4
 OpenBabel04212202103D

 69 76  0  0  0  0  0  0  0  0999 V2000
   -1.8019    4.2147    4.2356 Br  0  0  0  0  0  0  0  0  0  0  0  0
   -1.8020    6.4307    4.2352 Ni  0  0  0  0  0  0  0  0  0  0  0  0
    0.3251    6.5926    4.0107 P   0  0  0  0  0  4  0  0  0  0  0  0
   -1.8019    8.3812    4.2350 N   0  0  0  0  0  0  0  0  0  0  0  0
    1.3540    5.7093    5.2179 C   0  0  0  0  0  0  0  0  0  0  0  0
    0.7782    5.4387    6.4553 C   0  0  0  0  0  0  0  0  0  0  0  0
   -0.2635    5.6975    6.6245 H   0  0  0  0  0  0  0  0  0  0  0  0
    1.5205    4.8317    7.4490 C   0  0  0  0  0  0  0  0  0  0  0  0
    1.0693    4.6159    8.4059 H   0  0  0  0  0  0  0  0  0  0  0  0
    2.8430    4.4941    7.2098 C   0  0  0  0  0  0  0  0  0  0  0  0
    3.4253    4.0151    7.9829 H   0  0  0  0  0  0  0  0  0  0  0  0
    3.4193    4.7635    5.9792 C   0  0  0  0  0  0  0  0  0  0  0  0
    4.4500    4.4969    5.7953 H   0  0  0  0  0  0  0  0  0  0  0  0
    2.6805    5.3715    4.9802 C   0  0  0  0  0  0  0  0  0  0  0  0
    3.1286    5.5747    4.0175 H   0  0  0  0  0  0  0  0  0  0  0  0
    1.1599    6.3059    2.4285 C   0  0  0  0  0  0  0  0  0  0  0  0
    1.2726    4.9927    1.9738 C   0  0  0  0  0  0  0  0  0  0  0  0
    0.8809    4.1836    2.5767 H   0  0  0  0  0  0  0  0  0  0  0  0
    1.8775    4.7389    0.7576 C   0  0  0  0  0  0  0  0  0  0  0  0
    1.9695    3.7222    0.4058 H   0  0  0  0  0  0  0  0  0  0  0  0
    2.3601    5.7876   -0.0111 C   0  0  0  0  0  0  0  0  0  0  0  0
    2.8332    5.5869   -0.9611 H   0  0  0  0  0  0  0  0  0  0  0  0
    2.2302    7.0937    0.4320 C   0  0  0  0  0  0  0  0  0  0  0  0
    2.5997    7.9099   -0.1717 H   0  0  0  0  0  0  0  0  0  0  0  0
    1.6244    7.3579    1.6476 C   0  0  0  0  0  0  0  0  0  0  0  0
    1.5154    8.3759    1.9965 H   0  0  0  0  0  0  0  0  0  0  0  0
    0.5687    8.3248    4.4630 C   0  0  0  0  0  0  0  0  0  0  0  0
    1.7867    8.8943    4.7927 C   0  0  0  0  0  0  0  0  0  0  0  0
    2.6922    8.3100    4.6967 H   0  0  0  0  0  0  0  0  0  0  0  0
    1.8275   10.1972    5.2523 C   0  0  0  0  0  0  0  0  0  0  0  0
    2.7699   10.6577    5.5062 H   0  0  0  0  0  0  0  0  0  0  0  0
    0.6366   10.8920    5.4276 C   0  0  0  0  0  0  0  0  0  0  0  0
    0.6601   11.8912    5.8392 H   0  0  0  0  0  0  0  0  0  0  0  0
   -0.5810   10.3311    5.1078 C   0  0  0  0  0  0  0  0  0  0  0  0
   -1.4911   10.8773    5.3069 H   0  0  0  0  0  0  0  0  0  0  0  0
   -0.6474    9.0326    4.5755 C   0  0  0  0  0  0  0  0  0  0  0  0
   -3.9291    6.5927    4.4592 P   0  0  0  0  0  4  0  0  0  0  0  0
   -4.9576    5.7093    3.2517 C   0  0  0  0  0  0  0  0  0  0  0  0
   -4.3813    5.4377    2.0149 C   0  0  0  0  0  0  0  0  0  0  0  0
   -3.3393    5.6958    1.8460 H   0  0  0  0  0  0  0  0  0  0  0  0
   -5.1234    4.8305    1.0211 C   0  0  0  0  0  0  0  0  0  0  0  0
   -4.6718    4.6139    0.0646 H   0  0  0  0  0  0  0  0  0  0  0  0
   -6.4463    4.4939    1.2597 C   0  0  0  0  0  0  0  0  0  0  0  0
   -7.0284    4.0148    0.4865 H   0  0  0  0  0  0  0  0  0  0  0  0
   -7.0231    4.7644    2.4898 C   0  0  0  0  0  0  0  0  0  0  0  0
   -8.0540    4.4985    2.6733 H   0  0  0  0  0  0  0  0  0  0  0  0
   -6.2844    5.3724    3.4889 C   0  0  0  0  0  0  0  0  0  0  0  0
   -6.7329    5.5765    4.4512 H   0  0  0  0  0  0  0  0  0  0  0  0
   -4.7646    6.3059    6.0410 C   0  0  0  0  0  0  0  0  0  0  0  0
   -4.8769    4.9926    6.4958 C   0  0  0  0  0  0  0  0  0  0  0  0
   -4.4845    4.1837    5.8932 H   0  0  0  0  0  0  0  0  0  0  0  0
   -5.4824    4.7387    7.7116 C   0  0  0  0  0  0  0  0  0  0  0  0
   -5.5741    3.7220    8.0634 H   0  0  0  0  0  0  0  0  0  0  0  0
   -5.9661    5.7871    8.4799 C   0  0  0  0  0  0  0  0  0  0  0  0
   -6.4396    5.5863    9.4297 H   0  0  0  0  0  0  0  0  0  0  0  0
   -5.8366    7.0933    8.0367 C   0  0  0  0  0  0  0  0  0  0  0  0
   -6.2069    7.9094    8.6401 H   0  0  0  0  0  0  0  0  0  0  0  0
   -5.2301    7.3577    6.8216 C   0  0  0  0  0  0  0  0  0  0  0  0
   -5.1214    8.3757    6.4726 H   0  0  0  0  0  0  0  0  0  0  0  0
   -4.1725    8.3249    4.0068 C   0  0  0  0  0  0  0  0  0  0  0  0
   -5.3905    8.8944    3.6770 C   0  0  0  0  0  0  0  0  0  0  0  0
   -6.2960    8.3102    3.7729 H   0  0  0  0  0  0  0  0  0  0  0  0
   -5.4312   10.1974    3.2174 C   0  0  0  0  0  0  0  0  0  0  0  0
   -6.3735   10.6580    2.9634 H   0  0  0  0  0  0  0  0  0  0  0  0
   -4.2401   10.8921    3.0422 C   0  0  0  0  0  0  0  0  0  0  0  0
   -4.2635   11.8913    2.6307 H   0  0  0  0  0  0  0  0  0  0  0  0
   -3.0227   10.3312    3.3622 C   0  0  0  0  0  0  0  0  0  0  0  0
   -2.1125   10.8773    3.1631 H   0  0  0  0  0  0  0  0  0  0  0  0
   -2.9564    9.0326    3.8945 C   0  0  0  0  0  0  0  0  0  0  0  0
  2  1  1  0  0  0  0
  2 37  1  0  0  0  0
  3  2  1  0  0  0  0
  3 27  1  0  0  0  0
  3  5  1  0  0  0  0
  4  2  1  0  0  0  0
  4 36  1  0  0  0  0
  5  6  1  0  0  0  0
  6  7  1  0  0  0  0
  6  8  2  0  0  0  0
  8  9  1  0  0  0  0
 10  8  1  0  0  0  0
 10 11  1  0  0  0  0
 12 10  2  0  0  0  0
 13 12  1  0  0  0  0
 14  5  2  0  0  0  0
 14 12  1  0  0  0  0
 15 14  1  0  0  0  0
 16  3  1  0  0  0  0
 17 16  1  0  0  0  0
 17 18  1  0  0  0  0
 19 17  2  0  0  0  0
 20 19  1  0  0  0  0
 21 23  2  0  0  0  0
 21 19  1  0  0  0  0
 22 21  1  0  0  0  0
 23 25  1  0  0  0  0
 24 23  1  0  0  0  0
 25 26  1  0  0  0  0
 25 16  2  0  0  0  0
 27 36  2  0  0  0  0
 27 28  1  0  0  0  0
 28 30  2  0  0  0  0
 29 28  1  0  0  0  0
 30 32  1  0  0  0  0
 30 31  1  0  0  0  0
 32 33  1  0  0  0  0
 34 35  1  0  0  0  0
 34 32  2  0  0  0  0
 36 34  1  0  0  0  0
 37 49  1  0  0  0  0
 38 47  1  0  0  0  0
 38 37  1  0  0  0  0
 39 38  2  0  0  0  0
 40 39  1  0  0  0  0
 41 43  2  0  0  0  0
 41 39  1  0  0  0  0
 42 41  1  0  0  0  0
 43 45  1  0  0  0  0
 44 43  1  0  0  0  0
 45 46  1  0  0  0  0
 45 47  2  0  0  0  0
 47 48  1  0  0  0  0
 49 50  2  0  0  0  0
 49 58  1  0  0  0  0
 50 52  1  0  0  0  0
 51 50  1  0  0  0  0
 52 53  1  0  0  0  0
 52 54  2  0  0  0  0
 54 55  1  0  0  0  0
 56 54  1  0  0  0  0
 56 57  1  0  0  0  0
 58 56  2  0  0  0  0
 59 58  1  0  0  0  0
 60 37  1  0  0  0  0
 61 62  1  0  0  0  0
 61 60  2  0  0  0  0
 63 61  1  0  0  0  0
 64 63  1  0  0  0  0
 65 63  2  0  0  0  0
 65 67  1  0  0  0  0
 66 65  1  0  0  0  0
 67 69  2  0  0  0  0
 68 67  1  0  0  0  0
 69 60  1  0  0  0  0
 69  4  1  0  0  0  0
M  END
$$$$
