CSD_code = UCUHEF | q = 0 | S = 0 | Stoichiometry = C22H31ClNPPd | MND = 4
 OpenBabel04212202103D

 57 60  0  0  1  0  0  0  0  0999 V2000
    2.3894    5.4727    2.4679 Pd  0  0  1  0  0  0  0  0  0  0  0  0
    2.9953    3.2490    2.8593 Cl  0  0  0  0  0  0  0  0  0  0  0  0
    3.0190    5.9923    4.5304 P   0  0  2  0  0  4  0  0  0  0  0  0
    1.9838    7.2163    5.3919 C   0  0  0  0  0  0  0  0  0  0  0  0
    0.6302    7.1544    5.0701 C   0  0  0  0  0  0  0  0  0  0  0  0
    0.3085    6.4267    4.3263 H   0  0  0  0  0  0  0  0  0  0  0  0
   -0.2744    8.0082    5.6696 C   0  0  0  0  0  0  0  0  0  0  0  0
   -1.3227    7.9564    5.4154 H   0  0  0  0  0  0  0  0  0  0  0  0
    0.1707    8.9394    6.5952 C   0  0  0  0  0  0  0  0  0  0  0  0
   -0.5306    9.6144    7.0631 H   0  0  0  0  0  0  0  0  0  0  0  0
    1.5157    9.0099    6.9162 C   0  0  0  0  0  0  0  0  0  0  0  0
    1.8609    9.7400    7.6341 H   0  0  0  0  0  0  0  0  0  0  0  0
    2.4233    8.1507    6.3200 C   0  0  0  0  0  0  0  0  0  0  0  0
    3.4711    8.2219    6.5744 H   0  0  0  0  0  0  0  0  0  0  0  0
    5.3409    6.3920    3.1183 C   0  0  0  0  0  0  0  0  0  0  0  0
    6.4123    6.5877    3.0902 H   0  0  0  0  0  0  0  0  0  0  0  0
    4.8417    7.0759    2.4237 H   0  0  0  0  0  0  0  0  0  0  0  0
    5.1642    5.3600    2.7867 H   0  0  0  0  0  0  0  0  0  0  0  0
    4.7868    6.5766    4.5334 C   0  0  2  0  0  0  0  0  0  0  0  0
    4.8271    7.6370    4.8059 H   0  0  0  0  0  0  0  0  0  0  0  0
    5.5236    5.7202    5.5765 C   0  0  0  0  0  0  0  0  0  0  0  0
    5.9415    4.8421    5.0802 H   0  0  0  0  0  0  0  0  0  0  0  0
    6.3448    6.2757    6.0326 H   0  0  0  0  0  0  0  0  0  0  0  0
    4.5119    5.2545    6.6202 C   0  0  0  0  0  0  0  0  0  0  0  0
    4.1970    6.0902    7.2498 H   0  0  0  0  0  0  0  0  0  0  0  0
    4.9376    4.4864    7.2679 H   0  0  0  0  0  0  0  0  0  0  0  0
    3.3162    4.7097    5.8410 C   0  0  1  0  0  0  0  0  0  0  0  0
    3.6168    3.8046    5.2997 H   0  0  0  0  0  0  0  0  0  0  0  0
    2.0874    4.4001    6.6815 C   0  0  0  0  0  0  0  0  0  0  0  0
    2.3082    3.6023    7.3885 H   0  0  0  0  0  0  0  0  0  0  0  0
    1.2724    4.0714    6.0378 H   0  0  0  0  0  0  0  0  0  0  0  0
    1.7591    5.2771    7.2385 H   0  0  0  0  0  0  0  0  0  0  0  0
    1.8536    5.0742    0.4479 N   0  0  0  0  0  4  0  0  0  0  0  0
    1.8868    7.3409    1.9455 C   0  0  0  0  0  0  0  0  0  0  0  0
    1.0944    7.3354    0.7900 C   0  0  0  0  0  0  0  0  0  0  0  0
    0.6858    8.5130    0.1859 C   0  0  0  0  0  0  0  0  0  0  0  0
    0.0723    8.4797   -0.7049 H   0  0  0  0  0  0  0  0  0  0  0  0
    1.0675    9.7304    0.7241 C   0  0  0  0  0  0  0  0  0  0  0  0
    0.7498   10.6517    0.2580 H   0  0  0  0  0  0  0  0  0  0  0  0
    1.8630    9.7575    1.8551 C   0  0  0  0  0  0  0  0  0  0  0  0
    2.1710   10.7050    2.2750 H   0  0  0  0  0  0  0  0  0  0  0  0
    2.2701    8.5746    2.4550 C   0  0  0  0  0  0  0  0  0  0  0  0
    2.8926    8.6294    3.3417 H   0  0  0  0  0  0  0  0  0  0  0  0
    0.6962    5.9758    0.2638 C   0  0  2  0  0  0  0  0  0  0  0  0
    0.4186    6.0211   -0.8038 H   0  0  0  0  0  0  0  0  0  0  0  0
   -0.5030    5.4842    1.0873 C   0  0  0  0  0  0  0  0  0  0  0  0
   -0.1518    5.1913    2.0922 H   0  0  0  0  0  0  0  0  0  0  0  0
   -1.0036    4.6396    0.6194 H   0  0  0  0  0  0  0  0  0  0  0  0
   -1.2221    6.2941    1.1941 H   0  0  0  0  0  0  0  0  0  0  0  0
    2.9863    5.5025   -0.3760 C   0  0  0  0  0  0  0  0  0  0  0  0
    3.8689    4.9151   -0.1059 H   0  0  0  0  0  0  0  0  0  0  0  0
    3.2001    6.5613   -0.2140 H   0  0  0  0  0  0  0  0  0  0  0  0
    2.7734    5.3492   -1.4440 H   0  0  0  0  0  0  0  0  0  0  0  0
    1.5241    3.6962    0.0886 C   0  0  0  0  0  0  0  0  0  0  0  0
    1.1191    3.6473   -0.9318 H   0  0  0  0  0  0  0  0  0  0  0  0
    0.8033    3.2753    0.7884 H   0  0  0  0  0  0  0  0  0  0  0  0
    2.4247    3.0846    0.1426 H   0  0  0  0  0  0  0  0  0  0  0  0
  1  2  1  1  0  0  0
  1  3  1  0  0  0  0
  3 19  1  0  0  0  0
  3  4  1  1  0  0  0
  3 27  1  0  0  0  0
  4 13  1  0  0  0  0
  5  4  2  0  0  0  0
  5  7  1  0  0  0  0
  6  5  1  0  0  0  0
  7  9  2  0  0  0  0
  8  7  1  0  0  0  0
  9 11  1  0  0  0  0
  9 10  1  0  0  0  0
 11 12  1  0  0  0  0
 13 14  1  0  0  0  0
 13 11  2  0  0  0  0
 15 19  1  0  0  0  0
 16 15  1  0  0  0  0
 17 15  1  0  0  0  0
 18 15  1  0  0  0  0
 19 20  1  1  0  0  0
 19 21  1  0  0  0  0
 21 23  1  0  0  0  0
 21 24  1  0  0  0  0
 22 21  1  0  0  0  0
 24 25  1  0  0  0  0
 24 26  1  0  0  0  0
 27 28  1  6  0  0  0
 27 24  1  0  0  0  0
 27 29  1  0  0  0  0
 29 32  1  0  0  0  0
 29 30  1  0  0  0  0
 31 29  1  0  0  0  0
 33  1  1  0  0  0  0
 34 42  1  0  0  0  0
 34  1  1  0  0  0  0
 35 34  2  0  0  0  0
 36 38  2  0  0  0  0
 36 35  1  0  0  0  0
 37 36  1  0  0  0  0
 38 40  1  0  0  0  0
 39 38  1  0  0  0  0
 40 41  1  0  0  0  0
 40 42  2  0  0  0  0
 42 43  1  0  0  0  0
 44 45  1  6  0  0  0
 44 33  1  0  0  0  0
 44 35  1  0  0  0  0
 44 46  1  0  0  0  0
 46 49  1  0  0  0  0
 46 47  1  0  0  0  0
 48 46  1  0  0  0  0
 50 52  1  0  0  0  0
 50 51  1  0  0  0  0
 50 33  1  0  0  0  0
 53 50  1  0  0  0  0
 54 57  1  0  0  0  0
 54 33  1  0  0  0  0
 54 56  1  0  0  0  0
 55 54  1  0  0  0  0
M  END
$$$$
