CSD_code = UCUPUD | q = 0 | S = 0 | Stoichiometry = C13H18Br2CoN3O2 | MND = 4
 OpenBabel04212202103D

 39 41  0  0  1  0  0  0  0  0999 V2000
   -2.5567    7.0700    2.1438 Br  0  0  0  0  0  0  0  0  0  0  0  0
    0.4772    7.4105    0.1965 Br  0  0  0  0  0  0  0  0  0  0  0  0
   -0.3802    6.4285    2.0032 Co  0  0  0  0  0  0  0  0  0  0  0  0
    0.7344    7.1986    3.2160 O   0  0  0  0  0  0  0  0  0  0  0  0
   -1.2108    6.0196    7.2352 O   0  0  0  0  0  1  0  0  0  0  0  0
    0.1893    7.3164    4.3922 N   0  0  1  0  0  0  0  0  0  0  0  0
   -0.7250    6.7027    6.3005 N   0  0  0  0  0  0  0  0  0  0  0  0
   -0.6686    4.9184    3.1873 N   0  0  0  0  0  0  0  0  0  0  0  0
   -0.3229    6.2886    5.1119 C   0  0  1  0  0  3  0  0  0  0  0  0
    0.2078    8.5674    5.1536 C   0  0  0  0  0  0  0  0  0  0  0  0
   -0.6876    8.1899    6.3660 C   0  0  0  0  0  0  0  0  0  0  0  0
   -0.3159    9.7022    4.2779 C   0  0  0  0  0  0  0  0  0  0  0  0
   -0.3495   10.6288    4.8427 H   0  0  0  0  0  0  0  0  0  0  0  0
   -1.3050    9.4858    3.8858 H   0  0  0  0  0  0  0  0  0  0  0  0
    0.3567    9.8340    3.4331 H   0  0  0  0  0  0  0  0  0  0  0  0
    1.6727    8.8409    5.5161 C   0  0  0  0  0  0  0  0  0  0  0  0
    2.0968    8.0219    6.0926 H   0  0  0  0  0  0  0  0  0  0  0  0
    1.7637    9.7638    6.0799 H   0  0  0  0  0  0  0  0  0  0  0  0
    2.2453    8.9373    4.5961 H   0  0  0  0  0  0  0  0  0  0  0  0
   -2.1493    8.6233    6.2111 C   0  0  0  0  0  0  0  0  0  0  0  0
   -2.2394    9.7029    6.2763 H   0  0  0  0  0  0  0  0  0  0  0  0
   -2.7295    8.1751    7.0149 H   0  0  0  0  0  0  0  0  0  0  0  0
   -2.5663    8.2840    5.2655 H   0  0  0  0  0  0  0  0  0  0  0  0
   -0.1741    8.6163    7.7341 C   0  0  0  0  0  0  0  0  0  0  0  0
   -0.8230    8.1833    8.4920 H   0  0  0  0  0  0  0  0  0  0  0  0
   -0.1992    9.6981    7.8239 H   0  0  0  0  0  0  0  0  0  0  0  0
    0.8360    8.2643    7.9187 H   0  0  0  0  0  0  0  0  0  0  0  0
   -0.5635    4.9844    4.5319 C   0  0  1  0  0  3  0  0  0  0  0  0
   -0.7573    3.8689    5.3426 C   0  0  0  0  0  0  0  0  0  0  0  0
   -0.6863    3.9797    6.4118 H   0  0  0  0  0  0  0  0  0  0  0  0
   -1.0661    2.6603    4.7478 C   0  0  0  0  0  0  0  0  0  0  0  0
   -1.2266    1.7799    5.3498 H   0  0  0  0  0  0  0  0  0  0  0  0
   -1.1738    2.6017    3.3684 C   0  0  0  0  0  0  0  0  0  0  0  0
   -1.4213    1.6783    2.8698 H   0  0  0  0  0  0  0  0  0  0  0  0
   -0.9783    3.7505    2.6122 C   0  0  0  0  0  0  0  0  0  0  0  0
   -1.1422    3.7322    1.1267 C   0  0  0  0  0  0  0  0  0  0  0  0
   -2.1133    4.1563    0.8597 H   0  0  0  0  0  0  0  0  0  0  0  0
   -1.0992    2.7156    0.7449 H   0  0  0  0  0  0  0  0  0  0  0  0
   -0.3620    4.3224    0.6319 H   0  0  0  0  0  0  0  0  0  0  0  0
  2  3  1  0  0  0  0
  3  1  1  0  0  0  0
  3  8  1  0  0  0  0
  3  4  1  0  0  0  0
  6  4  1  1  0  0  0
  6  9  1  0  0  0  0
  6 10  1  0  0  0  0
  7 11  1  0  0  0  0
  7  5  1  0  0  0  0
  8 28  1  0  0  0  0
  9  7  1  6  0  0  0
 10 16  1  0  0  0  0
 10 11  1  0  0  0  0
 11 24  1  0  0  0  0
 12 13  1  0  0  0  0
 12 10  1  0  0  0  0
 14 12  1  0  0  0  0
 15 12  1  0  0  0  0
 16 18  1  0  0  0  0
 16 17  1  0  0  0  0
 19 16  1  0  0  0  0
 20 21  1  0  0  0  0
 20 11  1  0  0  0  0
 20 22  1  0  0  0  0
 23 20  1  0  0  0  0
 24 26  1  0  0  0  0
 24 27  1  0  0  0  0
 24 25  1  0  0  0  0
 28  9  1  0  0  0  0
 28 29  1  1  0  0  0
 29 30  1  0  0  0  0
 31 29  2  0  0  0  0
 31 32  1  0  0  0  0
 33 31  1  0  0  0  0
 34 33  1  0  0  0  0
 35  8  1  0  0  0  0
 35 33  2  0  0  0  0
 36 35  1  0  0  0  0
 37 36  1  0  0  0  0
 38 36  1  0  0  0  0
 39 36  1  0  0  0  0
M  END
$$$$
