CSD_code = UCUVIZ | q = 1 | S = 0 | Stoichiometry = C21H39ClNO2P2Pd(1+) | MND = 4
 OpenBabel04212202103D

 67 69  0  0  1  0  0  0  0  0999 V2000
    8.6035    5.4387   10.8770 Pd  0  0  2  0  0  0  0  0  0  0  0  0
   10.3312    6.5567   10.0360 Cl  0  0  0  0  0  0  0  0  0  0  0  0
    8.6599    3.7201    9.4140 P   0  0  0  0  0  4  0  0  0  0  0  0
    8.1333    6.8898   12.5414 P   0  0  0  0  0  4  0  0  0  0  0  0
    7.3287    2.8748    9.9700 O   0  0  0  0  0  0  0  0  0  0  0  0
    6.8686    6.0562   13.2496 O   0  0  0  0  0  0  0  0  0  0  0  0
    7.0627    4.4420   11.6276 N   0  0  0  0  0  0  0  0  0  0  0  0
    6.6653    3.3033   11.0503 C   0  0  1  0  0  3  0  0  0  0  0  0
    5.5895    2.5783   11.5479 C   0  0  0  0  0  0  0  0  0  0  0  0
    5.2947    1.6655   11.0598 H   0  0  0  0  0  0  0  0  0  0  0  0
    4.9312    3.0635   12.6658 C   0  0  0  0  0  0  0  0  0  0  0  0
    4.0935    2.5217   13.0739 H   0  0  0  0  0  0  0  0  0  0  0  0
    5.3468    4.2434   13.2605 C   0  0  0  0  0  0  0  0  0  0  0  0
    4.8596    4.6504   14.1296 H   0  0  0  0  0  0  0  0  0  0  0  0
    6.4300    4.9146   12.7065 C   0  0  0  0  0  0  0  0  0  0  0  0
    9.9976    2.4421    9.6832 C   0  0  0  0  0  0  0  0  0  0  0  0
   10.0444    2.3180   11.2127 C   0  0  0  0  0  0  0  0  0  0  0  0
   10.8927    1.7051   11.5108 H   0  0  0  0  0  0  0  0  0  0  0  0
    9.1399    1.8491   11.6027 H   0  0  0  0  0  0  0  0  0  0  0  0
   10.1684    3.3129   11.6720 H   0  0  0  0  0  0  0  0  0  0  0  0
   11.3208    3.0241    9.1933 C   0  0  0  0  0  0  0  0  0  0  0  0
   12.1473    2.4182    9.5591 H   0  0  0  0  0  0  0  0  0  0  0  0
   11.4540    4.0418    9.5631 H   0  0  0  0  0  0  0  0  0  0  0  0
   11.3755    3.0411    8.1089 H   0  0  0  0  0  0  0  0  0  0  0  0
    9.6824    1.1035    9.0290 C   0  0  0  0  0  0  0  0  0  0  0  0
   10.3855    0.3510    9.3812 H   0  0  0  0  0  0  0  0  0  0  0  0
    9.7766    1.1658    7.9478 H   0  0  0  0  0  0  0  0  0  0  0  0
    8.6752    0.7731    9.2766 H   0  0  0  0  0  0  0  0  0  0  0  0
    8.0913    4.1017    7.6747 C   0  0  0  0  0  0  0  0  0  0  0  0
    7.1617    5.3053    7.8937 C   0  0  0  0  0  0  0  0  0  0  0  0
    6.7518    5.6403    6.9429 H   0  0  0  0  0  0  0  0  0  0  0  0
    7.7268    6.1420    8.3316 H   0  0  0  0  0  0  0  0  0  0  0  0
    6.3219    5.0428    8.5452 H   0  0  0  0  0  0  0  0  0  0  0  0
    9.2973    4.5354    6.8477 C   0  0  0  0  0  0  0  0  0  0  0  0
    8.9622    5.0246    5.9352 H   0  0  0  0  0  0  0  0  0  0  0  0
    9.9068    3.6819    6.5624 H   0  0  0  0  0  0  0  0  0  0  0  0
    9.9128    5.2417    7.4055 H   0  0  0  0  0  0  0  0  0  0  0  0
    7.3419    2.9473    7.0203 C   0  0  0  0  0  0  0  0  0  0  0  0
    6.9651    3.2682    6.0511 H   0  0  0  0  0  0  0  0  0  0  0  0
    6.4962    2.6303    7.6266 H   0  0  0  0  0  0  0  0  0  0  0  0
    7.9923    2.0920    6.8610 H   0  0  0  0  0  0  0  0  0  0  0  0
    9.3359    6.9201   13.9721 C   0  0  0  0  0  0  0  0  0  0  0  0
    9.9548    5.5153   13.9057 C   0  0  0  0  0  0  0  0  0  0  0  0
   10.6910    5.3921   14.6976 H   0  0  0  0  0  0  0  0  0  0  0  0
   10.4683    5.3755   12.9423 H   0  0  0  0  0  0  0  0  0  0  0  0
    9.1920    4.7407   14.0357 H   0  0  0  0  0  0  0  0  0  0  0  0
   10.4120    7.9630   13.6877 C   0  0  0  0  0  0  0  0  0  0  0  0
   11.2622    7.8054   14.3484 H   0  0  0  0  0  0  0  0  0  0  0  0
   10.0401    8.9697   13.8594 H   0  0  0  0  0  0  0  0  0  0  0  0
   10.7626    7.8839   12.6583 H   0  0  0  0  0  0  0  0  0  0  0  0
    8.6619    7.1550   15.3186 C   0  0  0  0  0  0  0  0  0  0  0  0
    9.4043    7.0728   16.1102 H   0  0  0  0  0  0  0  0  0  0  0  0
    7.8828    6.4192   15.5047 H   0  0  0  0  0  0  0  0  0  0  0  0
    8.2211    8.1462   15.3735 H   0  0  0  0  0  0  0  0  0  0  0  0
    7.2545    8.4640   12.0466 C   0  0  0  0  0  0  0  0  0  0  0  0
    6.2741    7.9793   10.9691 C   0  0  0  0  0  0  0  0  0  0  0  0
    5.7930    8.8313   10.4929 H   0  0  0  0  0  0  0  0  0  0  0  0
    5.4921    7.3493   11.3955 H   0  0  0  0  0  0  0  0  0  0  0  0
    6.8136    7.4165   10.1893 H   0  0  0  0  0  0  0  0  0  0  0  0
    8.2740    9.3999   11.4029 C   0  0  0  0  0  0  0  0  0  0  0  0
    7.7580   10.2047   10.8832 H   0  0  0  0  0  0  0  0  0  0  0  0
    8.8856    8.8621   10.6770 H   0  0  0  0  0  0  0  0  0  0  0  0
    8.9304    9.8487   12.1423 H   0  0  0  0  0  0  0  0  0  0  0  0
    6.5201    9.1254   13.2053 C   0  0  0  0  0  0  0  0  0  0  0  0
    5.8721    9.9126   12.8243 H   0  0  0  0  0  0  0  0  0  0  0  0
    7.2197    9.5795   13.9025 H   0  0  0  0  0  0  0  0  0  0  0  0
    5.9048    8.4057   13.7421 H   0  0  0  0  0  0  0  0  0  0  0  0
  1  2  1  1  0  0  0
  1  7  1  0  0  0  0
  1  4  1  0  0  0  0
  3 16  1  0  0  0  0
  3  5  1  0  0  0  0
  3  1  1  0  0  0  0
  4  6  1  0  0  0  0
  4 42  1  0  0  0  0
  7 15  1  0  0  0  0
  8  5  1  6  0  0  0
  8  9  1  0  0  0  0
  8  7  1  0  0  0  0
  9 11  2  0  0  0  0
 10  9  1  0  0  0  0
 11 12  1  0  0  0  0
 11 13  1  0  0  0  0
 13 14  1  0  0  0  0
 15  6  1  0  0  0  0
 15 13  2  0  0  0  0
 16 17  1  0  0  0  0
 17 18  1  0  0  0  0
 17 19  1  0  0  0  0
 17 20  1  0  0  0  0
 21 22  1  0  0  0  0
 21 23  1  0  0  0  0
 21 16  1  0  0  0  0
 24 21  1  0  0  0  0
 25 28  1  0  0  0  0
 25 26  1  0  0  0  0
 25 16  1  0  0  0  0
 27 25  1  0  0  0  0
 29 30  1  0  0  0  0
 29  3  1  0  0  0  0
 30 32  1  0  0  0  0
 30 33  1  0  0  0  0
 31 30  1  0  0  0  0
 34 37  1  0  0  0  0
 34 29  1  0  0  0  0
 35 34  1  0  0  0  0
 36 34  1  0  0  0  0
 38 40  1  0  0  0  0
 38 29  1  0  0  0  0
 39 38  1  0  0  0  0
 41 38  1  0  0  0  0
 42 51  1  0  0  0  0
 43 42  1  0  0  0  0
 43 46  1  0  0  0  0
 43 44  1  0  0  0  0
 45 43  1  0  0  0  0
 47 49  1  0  0  0  0
 47 42  1  0  0  0  0
 47 48  1  0  0  0  0
 50 47  1  0  0  0  0
 51 54  1  0  0  0  0
 51 53  1  0  0  0  0
 51 52  1  0  0  0  0
 55  4  1  0  0  0  0
 55 64  1  0  0  0  0
 56 58  1  0  0  0  0
 56 55  1  0  0  0  0
 57 56  1  0  0  0  0
 59 56  1  0  0  0  0
 60 55  1  0  0  0  0
 60 63  1  0  0  0  0
 61 60  1  0  0  0  0
 62 60  1  0  0  0  0
 64 67  1  0  0  0  0
 64 66  1  0  0  0  0
 65 64  1  0  0  0  0
M  END
$$$$
