CSD_code = UDELOH | q = 0 | S = 0 | Stoichiometry = C16H28Cl2HgN2Se | MND = 5
 OpenBabel04212202103D

 50 49  0  0  0  0  0  0  0  0999 V2000
    7.6112   11.3939    6.1372 Se  0  0  0  0  0  0  0  0  0  0  0  0
    5.5586   13.3267    6.9220 Hg  0  0  0  0  0  0  0  0  0  0  0  0
    3.9177   11.7042    6.5710 Cl  0  0  0  0  0  0  0  0  0  0  0  0
    5.7189   15.4862    6.1587 Cl  0  0  0  0  0  0  0  0  0  0  0  0
    7.5865   13.4462    8.8511 N   0  0  0  0  0  0  0  0  0  0  0  0
    4.6379   13.9033    9.2661 N   0  0  0  0  0  0  0  0  0  0  0  0
    7.1910   10.4592    7.7700 C   0  0  0  0  0  0  0  0  0  0  0  0
    6.4504    9.2880    7.7655 C   0  0  0  0  0  0  0  0  0  0  0  0
    6.0787    8.8762    6.8405 H   0  0  0  0  0  0  0  0  0  0  0  0
    6.1754    8.6432    8.9590 C   0  0  0  0  0  0  0  0  0  0  0  0
    5.5879    7.7378    8.9518 H   0  0  0  0  0  0  0  0  0  0  0  0
    6.6607    9.1498   10.1506 C   0  0  0  0  0  0  0  0  0  0  0  0
    6.4578    8.6418   11.0812 H   0  0  0  0  0  0  0  0  0  0  0  0
    7.4146   10.3120   10.1481 C   0  0  0  0  0  0  0  0  0  0  0  0
    7.8111   10.6938   11.0793 H   0  0  0  0  0  0  0  0  0  0  0  0
    7.6820   10.9894    8.9674 C   0  0  0  0  0  0  0  0  0  0  0  0
    8.4660   12.2724    8.9587 C   0  0  0  0  0  0  0  0  0  0  0  0
    9.0966   12.3430    9.8588 H   0  0  0  0  0  0  0  0  0  0  0  0
    9.1273   12.2647    8.0819 H   0  0  0  0  0  0  0  0  0  0  0  0
    6.9681   13.7189   10.1494 C   0  0  0  0  0  0  0  0  0  0  0  0
    7.6765   14.2512   10.8050 H   0  0  0  0  0  0  0  0  0  0  0  0
    6.7291   12.7636   10.6177 H   0  0  0  0  0  0  0  0  0  0  0  0
    5.6906   14.5514   10.0508 C   0  0  0  0  0  0  0  0  0  0  0  0
    5.3338   14.7539   11.0742 H   0  0  0  0  0  0  0  0  0  0  0  0
    5.9156   15.5067    9.5723 H   0  0  0  0  0  0  0  0  0  0  0  0
    8.3621   14.5966    8.3966 C   0  0  0  0  0  0  0  0  0  0  0  0
    7.7140   15.4629    8.2935 H   0  0  0  0  0  0  0  0  0  0  0  0
    8.7864   14.3811    7.4164 H   0  0  0  0  0  0  0  0  0  0  0  0
    9.1756   14.8351    9.0956 H   0  0  0  0  0  0  0  0  0  0  0  0
    4.0993   12.7360    9.9620 C   0  0  0  0  0  0  0  0  0  0  0  0
    3.7155   13.0085   10.9545 H   0  0  0  0  0  0  0  0  0  0  0  0
    4.8616   11.9671   10.0687 H   0  0  0  0  0  0  0  0  0  0  0  0
    3.2875   12.3141    9.3732 H   0  0  0  0  0  0  0  0  0  0  0  0
    3.5512   14.8585    9.0459 C   0  0  0  0  0  0  0  0  0  0  0  0
    3.1221   15.1978    9.9980 H   0  0  0  0  0  0  0  0  0  0  0  0
    2.7672   14.3850    8.4563 H   0  0  0  0  0  0  0  0  0  0  0  0
    3.9229   15.7216    8.4954 H   0  0  0  0  0  0  0  0  0  0  0  0
    6.5802   10.4423    4.7664 C   0  0  0  0  0  0  0  0  0  0  0  0
    7.1026    9.5092    4.5375 H   0  0  0  0  0  0  0  0  0  0  0  0
    5.5933   10.2443    5.1883 H   0  0  0  0  0  0  0  0  0  0  0  0
    6.4686   11.3414    3.5446 C   0  0  0  0  0  0  0  0  0  0  0  0
    7.4672   11.5886    3.1681 H   0  0  0  0  0  0  0  0  0  0  0  0
    5.9780   12.2800    3.8367 H   0  0  0  0  0  0  0  0  0  0  0  0
    5.6513   10.6733    2.4421 C   0  0  0  0  0  0  0  0  0  0  0  0
    6.1337    9.7372    2.1493 H   0  0  0  0  0  0  0  0  0  0  0  0
    4.6600   10.4326    2.8319 H   0  0  0  0  0  0  0  0  0  0  0  0
    5.5130   11.5793    1.2252 C   0  0  0  0  0  0  0  0  0  0  0  0
    4.9257   11.0910    0.4514 H   0  0  0  0  0  0  0  0  0  0  0  0
    6.4910   11.8209    0.8143 H   0  0  0  0  0  0  0  0  0  0  0  0
    5.0174   12.5077    1.4987 H   0  0  0  0  0  0  0  0  0  0  0  0
  1  7  1  0  0  0  0
  3  2  1  0  0  0  0
  4  2  1  0  0  0  0
  5 17  1  0  0  0  0
  5 20  1  0  0  0  0
  6 30  1  0  0  0  0
  6 23  1  0  0  0  0
  7 16  1  0  0  0  0
  8  7  2  0  0  0  0
  8 10  1  0  0  0  0
  9  8  1  0  0  0  0
 10 12  2  0  0  0  0
 11 10  1  0  0  0  0
 12 13  1  0  0  0  0
 14 12  1  0  0  0  0
 14 15  1  0  0  0  0
 16 14  2  0  0  0  0
 17 16  1  0  0  0  0
 17 18  1  0  0  0  0
 19 17  1  0  0  0  0
 20 22  1  0  0  0  0
 20 21  1  0  0  0  0
 23 20  1  0  0  0  0
 23 24  1  0  0  0  0
 25 23  1  0  0  0  0
 26  5  1  0  0  0  0
 26 29  1  0  0  0  0
 27 26  1  0  0  0  0
 28 26  1  0  0  0  0
 30 32  1  0  0  0  0
 30 31  1  0  0  0  0
 33 30  1  0  0  0  0
 34  6  1  0  0  0  0
 34 35  1  0  0  0  0
 36 34  1  0  0  0  0
 37 34  1  0  0  0  0
 38 40  1  0  0  0  0
 38  1  1  0  0  0  0
 39 38  1  0  0  0  0
 41 43  1  0  0  0  0
 41 38  1  0  0  0  0
 42 41  1  0  0  0  0
 44 46  1  0  0  0  0
 44 41  1  0  0  0  0
 45 44  1  0  0  0  0
 47 50  1  0  0  0  0
 47 44  1  0  0  0  0
 48 47  1  0  0  0  0
 49 47  1  0  0  0  0
M  END
$$$$
