CSD_code = UDIBER | q = 0 | S = 0 | Stoichiometry = C14H19ClOTi | MND = 12
 OpenBabel04212202103D

 36 36  0  0  1  0  0  0  0  0999 V2000
    9.2597    3.9564    5.0713 Ti  0  0  0  0  0  0  0  0  0  0  0  0
    9.4658    6.2073    4.9982 Cl  0  0  0  0  0  0  0  0  0  0  0  0
   10.5516    3.7598    6.1044 O   0  0  0  0  0  0  0  0  0  0  0  0
   11.6440    4.1096    6.8815 C   0  0  0  0  0  0  0  0  0  0  0  0
    9.1789    4.1400    2.7010 C   0  0  0  0  0  0  0  0  0  0  0  0
    8.6417    4.9173    2.1698 H   0  0  0  0  0  0  0  0  0  0  0  0
    7.0534    4.7187    5.8354 C   0  0  0  0  0  0  0  0  0  0  0  0
    6.6455    5.7117    5.6973 H   0  0  0  0  0  0  0  0  0  0  0  0
   10.5557    4.1907    3.0558 C   0  0  0  0  0  3  0  0  0  0  0  0
   11.2245    5.0179    2.8542 H   0  0  0  0  0  0  0  0  0  0  0  0
    8.0507    2.9127    6.8166 C   0  0  2  0  0  0  0  0  0  0  0  0
    8.5200    2.2701    7.5525 H   0  0  0  0  0  0  0  0  0  0  0  0
    9.7678    2.1237    3.5842 C   0  0  0  0  0  0  0  0  0  0  0  0
    9.7474    1.0693    3.8304 H   0  0  0  0  0  0  0  0  0  0  0  0
   12.3195    2.8271    7.3956 C   0  0  0  0  0  0  0  0  0  0  0  0
   11.6174    2.2590    8.0034 H   0  0  0  0  0  0  0  0  0  0  0  0
   13.1921    3.0720    7.9942 H   0  0  0  0  0  0  0  0  0  0  0  0
   12.6257    2.2093    6.5532 H   0  0  0  0  0  0  0  0  0  0  0  0
   12.6236    4.9317    6.0250 C   0  0  0  0  0  0  0  0  0  0  0  0
   13.0354    4.3184    5.2261 H   0  0  0  0  0  0  0  0  0  0  0  0
   13.4375    5.3058    6.6400 H   0  0  0  0  0  0  0  0  0  0  0  0
   12.0875    5.7723    5.5850 H   0  0  0  0  0  0  0  0  0  0  0  0
    7.4285    2.4862    5.6242 C   0  0  0  0  0  3  0  0  0  0  0  0
    7.3197    1.4565    5.3094 H   0  0  0  0  0  0  0  0  0  0  0  0
    7.8370    4.3012    6.9394 C   0  0  0  0  0  3  0  0  0  0  0  0
    8.0991    4.9196    7.7882 H   0  0  0  0  0  0  0  0  0  0  0  0
    6.7954    3.6019    5.0366 C   0  0  0  0  0  0  0  0  0  0  0  0
    6.1350    3.5840    4.1806 H   0  0  0  0  0  0  0  0  0  0  0  0
   11.1505    4.9670    8.0604 C   0  0  0  0  0  0  0  0  0  0  0  0
   10.6225    5.8353    7.6665 H   0  0  0  0  0  0  0  0  0  0  0  0
   11.9901    5.2994    8.6645 H   0  0  0  0  0  0  0  0  0  0  0  0
   10.4718    4.3864    8.6835 H   0  0  0  0  0  0  0  0  0  0  0  0
   10.9205    2.9338    3.5585 C   0  0  0  0  0  0  0  0  0  0  0  0
   11.9170    2.6201    3.8393 H   0  0  0  0  0  0  0  0  0  0  0  0
    8.7114    2.8545    2.9896 C   0  0  0  0  0  0  0  0  0  0  0  0
    7.7533    2.4451    2.7021 H   0  0  0  0  0  0  0  0  0  0  0  0
  1  3  1  0  0  0  0
  1 11  1  0  0  0  0
  2  1  1  0  0  0  0
  3  4  1  0  0  0  0
  4 15  1  0  0  0  0
  4 29  1  0  0  0  0
  5 35  2  0  0  0  0
  5  9  1  0  0  0  0
  6  5  1  0  0  0  0
  7 25  1  0  0  0  0
  8  7  1  0  0  0  0
  9 33  1  0  0  0  0
 10  9  1  0  0  0  0
 11 25  1  0  0  0  0
 11 12  1  1  0  0  0
 13 14  1  0  0  0  0
 15 17  1  0  0  0  0
 15 16  1  0  0  0  0
 18 15  1  0  0  0  0
 19 21  1  0  0  0  0
 19  4  1  0  0  0  0
 20 19  1  0  0  0  0
 22 19  1  0  0  0  0
 23 11  1  0  0  0  0
 24 23  1  0  0  0  0
 25 26  1  0  0  0  0
 27 23  1  0  0  0  0
 27  7  2  0  0  0  0
 28 27  1  0  0  0  0
 29 31  1  0  0  0  0
 29 32  1  0  0  0  0
 30 29  1  0  0  0  0
 33 13  2  0  0  0  0
 33 34  1  0  0  0  0
 35 13  1  0  0  0  0
 36 35  1  0  0  0  0
M  END
$$$$
