CSD_code = UDIDAM | q = 1 | S = 0 | Stoichiometry = C27H21ClN5O2Ru(1+) | MND = 6
 OpenBabel04212202103D

 57 64  0  0  1  0  0  0  0  0999 V2000
    3.5116    3.9250    2.3357 Ru  0  0  0  0  0  0  0  0  0  0  0  0
    2.1132    3.9333    0.4476 Cl  0  0  0  0  0  0  0  0  0  0  0  0
    4.4848    5.4969    1.5325 N   0  0  0  0  0  0  0  0  0  0  0  0
    4.2867    6.7950    1.7460 C   0  0  0  0  0  3  0  0  0  0  0  0
    4.9636    7.7849    1.0575 C   0  0  0  0  0  0  0  0  0  0  0  0
    5.8966    7.4147    0.0980 C   0  0  0  0  0  0  0  0  0  0  0  0
    6.1100    6.0687   -0.1328 C   0  0  0  0  0  0  0  0  0  0  0  0
    5.3883    5.1224    0.5922 C   0  0  0  0  0  0  0  0  0  0  0  0
    4.6948    2.9804    1.2070 N   0  0  0  0  0  0  0  0  0  0  0  0
    5.5028    3.6775    0.3907 C   0  0  1  0  0  3  0  0  0  0  0  0
    6.2837    3.0186   -0.5549 C   0  0  0  0  0  0  0  0  0  0  0  0
    6.1918    1.6375   -0.6526 C   0  0  0  0  0  0  0  0  0  0  0  0
    5.3045    0.9422    0.1563 C   0  0  0  0  0  0  0  0  0  0  0  0
    4.5467    1.6506    1.0849 C   0  0  0  0  0  0  0  0  0  0  0  0
    2.8622    2.0536    2.7131 N   0  0  0  0  0  0  0  0  0  0  0  0
    3.5004    1.1221    1.9608 C   0  0  1  0  0  3  0  0  0  0  0  0
    3.1367   -0.2221    2.0142 C   0  0  0  0  0  0  0  0  0  0  0  0
    2.0986   -0.6171    2.8368 C   0  0  0  0  0  0  0  0  0  0  0  0
    1.4478    0.3471    3.5952 C   0  0  0  0  0  0  0  0  0  0  0  0
    1.8643    1.6622    3.5011 C   0  0  0  0  0  0  0  0  0  0  0  0
    4.5893    4.0115    4.0301 N   0  0  0  0  0  0  0  0  0  0  0  0
    5.8140    3.5134    4.2019 C   0  0  0  0  0  3  0  0  0  0  0  0
    6.5117    3.6207    5.3866 C   0  0  0  0  0  0  0  0  0  0  0  0
    5.9323    4.2764    6.4737 C   0  0  0  0  0  0  0  0  0  0  0  0
    4.6547    4.7924    6.2909 C   0  0  0  0  0  0  0  0  0  0  0  0
    4.0042    4.6506    5.0699 C   0  0  0  0  0  0  0  0  0  0  0  0
    6.6408    4.4258    7.7747 C   0  0  0  0  0  0  0  0  0  0  0  0
    2.2471    4.9167    3.5104 N   0  0  0  0  0  0  0  0  0  0  0  0
    2.6653    5.1589    4.7791 C   0  0  1  0  0  3  0  0  0  0  0  0
    1.8654    5.8317    5.6970 C   0  0  0  0  0  0  0  0  0  0  0  0
    0.6060    6.2690    5.3083 C   0  0  0  0  0  0  0  0  0  0  0  0
    0.1874    6.0167    3.9995 C   0  0  0  0  0  0  0  0  0  0  0  0
    1.0336    5.3436    3.1441 C   0  0  0  0  0  0  0  0  0  0  0  0
   -0.3063    6.9923    6.2370 C   0  0  0  0  0  0  0  0  0  0  0  0
   -1.4020    7.3750    5.9290 O   0  0  0  0  0  0  0  0  0  0  0  0
    0.2244    7.1697    7.4509 O   0  0  0  0  0  0  0  0  0  0  0  0
    3.5474    7.0534    2.4956 H   0  0  0  0  0  0  0  0  0  0  0  0
    4.7577    8.8223    1.2639 H   0  0  0  0  0  0  0  0  0  0  0  0
    6.4391    8.1600   -0.4614 H   0  0  0  0  0  0  0  0  0  0  0  0
    6.8215    5.7490   -0.8761 H   0  0  0  0  0  0  0  0  0  0  0  0
    6.9339    3.5673   -1.2151 H   0  0  0  0  0  0  0  0  0  0  0  0
    6.7874    1.1080   -1.3785 H   0  0  0  0  0  0  0  0  0  0  0  0
    5.1936   -0.1237    0.0492 H   0  0  0  0  0  0  0  0  0  0  0  0
    3.6565   -0.9447    1.4071 H   0  0  0  0  0  0  0  0  0  0  0  0
    1.7970   -1.6514    2.8816 H   0  0  0  0  0  0  0  0  0  0  0  0
    0.6265    0.0867    4.2424 H   0  0  0  0  0  0  0  0  0  0  0  0
    1.3710    2.4374    4.0765 H   0  0  0  0  0  0  0  0  0  0  0  0
    6.2532    3.0066    3.3507 H   0  0  0  0  0  0  0  0  0  0  0  0
    7.5003    3.1978    5.4648 H   0  0  0  0  0  0  0  0  0  0  0  0
    4.1698    5.3068    7.1045 H   0  0  0  0  0  0  0  0  0  0  0  0
    7.6127    3.9423    7.7507 H   0  0  0  0  0  0  0  0  0  0  0  0
    6.7800    5.4806    8.0077 H   0  0  0  0  0  0  0  0  0  0  0  0
    6.0503    3.9900    8.5789 H   0  0  0  0  0  0  0  0  0  0  0  0
    2.2037    6.0175    6.7023 H   0  0  0  0  0  0  0  0  0  0  0  0
   -0.7867    6.3489    3.6782 H   0  0  0  0  0  0  0  0  0  0  0  0
    0.7489    5.1264    2.1210 H   0  0  0  0  0  0  0  0  0  0  0  0
   -0.4005    7.6433    8.0235 H   0  0  0  0  0  0  0  0  0  0  0  0
  1 15  1  0  0  0  0
  1 28  1  0  0  0  0
  1 21  1  0  0  0  0
  2  1  1  0  0  0  0
  3  4  1  0  0  0  0
  3  1  1  0  0  0  0
  4 37  1  0  0  0  0
  5 38  1  0  0  0  0
  5  4  1  0  0  0  0
  6  5  2  0  0  0  0
  7  6  1  0  0  0  0
  7  8  2  0  0  0  0
  8  3  1  0  0  0  0
  9  1  1  0  0  0  0
 10 11  1  6  0  0  0
 10  8  1  0  0  0  0
 10  9  1  0  0  0  0
 12 11  2  0  0  0  0
 12 13  1  0  0  0  0
 13 14  2  0  0  0  0
 14  9  1  0  0  0  0
 15 20  1  0  0  0  0
 16 14  1  6  0  0  0
 16 17  1  0  0  0  0
 16 15  1  0  0  0  0
 17 18  2  0  0  0  0
 18 45  1  0  0  0  0
 18 19  1  0  0  0  0
 19 46  1  0  0  0  0
 20 19  2  0  0  0  0
 20 47  1  0  0  0  0
 21 22  1  0  0  0  0
 21 26  1  0  0  0  0
 22 23  1  0  0  0  0
 23 49  1  0  0  0  0
 23 24  2  0  0  0  0
 24 27  1  0  0  0  0
 25 24  1  0  0  0  0
 25 50  1  0  0  0  0
 26 25  2  0  0  0  0
 27 52  1  0  0  0  0
 27 53  1  0  0  0  0
 28 29  1  0  0  0  0
 29 26  1  1  0  0  0
 29 30  1  0  0  0  0
 30 54  1  0  0  0  0
 31 30  2  0  0  0  0
 31 34  1  0  0  0  0
 32 31  1  0  0  0  0
 33 28  1  0  0  0  0
 33 32  2  0  0  0  0
 34 36  1  0  0  0  0
 35 34  2  0  0  0  0
 36 57  1  0  0  0  0
 39  6  1  0  0  0  0
 40  7  1  0  0  0  0
 41 11  1  0  0  0  0
 42 12  1  0  0  0  0
 43 13  1  0  0  0  0
 44 17  1  0  0  0  0
 48 22  1  0  0  0  0
 51 27  1  0  0  0  0
 55 32  1  0  0  0  0
 56 33  1  0  0  0  0
M  END
$$$$
