CSD_code = UDISOQ | q = 0 | S = 0 | Stoichiometry = C16H15BrN2O4Pd | MND = 4
 OpenBabel04212202103D

 39 43  0  0  1  0  0  0  0  0999 V2000
    6.1734    8.2640   15.6334 Pd  0  0  2  0  0  0  0  0  0  0  0  0
    6.9314    8.3761   17.8847 Br  0  0  0  0  0  0  0  0  0  0  0  0
    6.8205   11.5273   13.2766 O   0  0  0  0  0  0  0  0  0  0  0  0
    7.8783   13.3381   14.1804 O   0  0  0  0  0  0  0  0  0  0  0  0
    4.3223    4.8290   14.4514 O   0  0  0  0  0  0  0  0  0  0  0  0
    4.0746    3.1408   15.9692 O   0  0  0  0  0  0  0  0  0  0  0  0
    6.7435   10.1028   14.9591 N   0  0  0  0  0  0  0  0  0  0  0  0
    5.3623    6.3925   15.6091 N   0  0  0  0  0  0  0  0  0  0  0  0
    7.3669   11.2365   15.4042 C   0  0  0  0  0  0  0  0  0  0  0  0
    7.4055   12.1054   14.3505 C   0  0  0  0  0  0  0  0  0  0  0  0
    6.4307   10.3090   13.6881 C   0  0  1  0  0  3  0  0  0  0  0  0
    5.7524    9.2685   12.9500 C   0  0  0  0  0  0  0  0  0  0  0  0
    5.5510    8.1734   13.7938 C   0  0  0  0  0  0  0  0  0  0  0  0
    4.9120    7.0149   13.3453 C   0  0  0  0  0  0  0  0  0  0  0  0
    4.4652    6.9500   12.0267 C   0  0  0  0  0  0  0  0  0  0  0  0
    4.6717    8.0459   11.1973 C   0  0  0  0  0  0  0  0  0  0  0  0
    5.3060    9.2039   11.6313 C   0  0  0  0  0  0  0  0  0  0  0  0
    4.8486    6.0651   14.4322 C   0  0  0  0  0  0  0  0  0  0  0  0
    4.5210    4.3672   15.7072 C   0  0  0  0  0  0  0  0  0  0  0  0
    5.1650    5.3237   16.4401 C   0  0  0  0  0  0  0  0  0  0  0  0
    8.4816   13.9308   15.3293 C   0  0  0  0  0  0  0  0  0  0  0  0
    8.9661   15.3142   14.9347 C   0  0  0  0  0  0  0  0  0  0  0  0
    4.2843    2.6805   17.3031 C   0  0  0  0  0  0  0  0  0  0  0  0
    3.7061    1.2806   17.4048 C   0  0  0  0  0  0  0  0  0  0  0  0
    7.7224   11.3269   16.4112 H   0  0  0  0  0  0  0  0  0  0  0  0
    3.9680    6.0665   11.6554 H   0  0  0  0  0  0  0  0  0  0  0  0
    4.3254    7.9959   10.1757 H   0  0  0  0  0  0  0  0  0  0  0  0
    5.4493   10.0364   10.9589 H   0  0  0  0  0  0  0  0  0  0  0  0
    5.4930    5.3339   17.4605 H   0  0  0  0  0  0  0  0  0  0  0  0
    9.3170   13.3045   15.6653 H   0  0  0  0  0  0  0  0  0  0  0  0
    7.7422   13.9902   16.1374 H   0  0  0  0  0  0  0  0  0  0  0  0
    9.6926   15.2391   14.1307 H   0  0  0  0  0  0  0  0  0  0  0  0
    9.4287   15.7963   15.7904 H   0  0  0  0  0  0  0  0  0  0  0  0
    8.1306   15.9179   14.5924 H   0  0  0  0  0  0  0  0  0  0  0  0
    3.7869    3.3614   18.0046 H   0  0  0  0  0  0  0  0  0  0  0  0
    5.3591    2.6773   17.5218 H   0  0  0  0  0  0  0  0  0  0  0  0
    2.6461    1.2979   17.1681 H   0  0  0  0  0  0  0  0  0  0  0  0
    3.8409    0.9029   18.4137 H   0  0  0  0  0  0  0  0  0  0  0  0
    4.2074    0.6183   16.7049 H   0  0  0  0  0  0  0  0  0  0  0  0
  1  2  1  6  0  0  0
  3 11  1  0  0  0  0
  3 10  1  0  0  0  0
  4 10  1  0  0  0  0
  4 21  1  0  0  0  0
  5 19  1  0  0  0  0
  6 23  1  0  0  0  0
  7  9  1  0  0  0  0
  7  1  1  0  0  0  0
  8  1  1  0  0  0  0
  8 20  1  0  0  0  0
  9 25  1  0  0  0  0
 10  9  2  0  0  0  0
 11 12  1  1  0  0  0
 11  7  1  0  0  0  0
 12 13  1  0  0  0  0
 13  1  2  0  0  0  0
 14 13  1  0  0  0  0
 14 18  2  0  0  0  0
 15 14  1  0  0  0  0
 16 17  1  0  0  0  0
 16 15  2  0  0  0  0
 17 12  2  0  0  0  0
 18  5  1  0  0  0  0
 18  8  1  0  0  0  0
 19  6  1  0  0  0  0
 19 20  2  0  0  0  0
 20 29  1  0  0  0  0
 21 30  1  0  0  0  0
 21 31  1  0  0  0  0
 22 21  1  0  0  0  0
 22 33  1  0  0  0  0
 23 24  1  0  0  0  0
 23 36  1  0  0  0  0
 23 35  1  0  0  0  0
 24 38  1  0  0  0  0
 26 15  1  0  0  0  0
 27 16  1  0  0  0  0
 28 17  1  0  0  0  0
 32 22  1  0  0  0  0
 34 22  1  0  0  0  0
 37 24  1  0  0  0  0
 39 24  1  0  0  0  0
M  END
$$$$
