CSD_code = UDOBIB | q = 0 | S = 0 | Stoichiometry = C20H28CuIN4 | MND = 4
 OpenBabel04212202103D

 54 58  0  0  1  0  0  0  0  0999 V2000
    5.2357    1.8026    2.1816 I   0  0  0  0  0  0  0  0  0  0  0  0
    3.3953    3.4052    2.5385 Cu  0  0  1  0  0  0  0  0  0  0  0  0
    1.8945    3.8752    3.8536 N   0  0  0  0  0  0  0  0  0  0  0  0
    3.4114    5.4222    2.3223 N   0  0  0  0  0  0  0  0  0  0  0  0
    1.6425    3.5651    1.1176 N   0  0  1  0  0  4  0  0  0  0  0  0
    4.4656    5.3077    5.5255 N   0  0  0  0  0  0  0  0  0  0  0  0
    0.4438    3.5967    1.9454 C   0  0  0  0  0  0  0  0  0  0  0  0
    0.1123    2.5687    2.1104 H   0  0  0  0  0  0  0  0  0  0  0  0
   -0.3772    4.1510    1.4636 H   0  0  0  0  0  0  0  0  0  0  0  0
    0.7286    4.2054    3.2945 C   0  0  2  0  0  3  0  0  0  0  0  0
   -0.1616    5.0650    3.9154 C   0  0  0  0  0  0  0  0  0  0  0  0
   -1.1031    5.3038    3.4446 H   0  0  0  0  0  0  0  0  0  0  0  0
    0.1850    5.6191    5.1395 C   0  0  0  0  0  0  0  0  0  0  0  0
   -0.4899    6.2930    5.6455 H   0  0  0  0  0  0  0  0  0  0  0  0
    1.4174    5.3086    5.6860 C   0  0  0  0  0  0  0  0  0  0  0  0
    1.7450    5.7402    6.6176 H   0  0  0  0  0  0  0  0  0  0  0  0
    2.2557    4.4329    5.0078 C   0  0  0  0  0  0  0  0  0  0  0  0
    3.6246    4.1159    5.5405 C   0  0  0  0  0  0  0  0  0  0  0  0
    3.5229    3.7783    6.5727 H   0  0  0  0  0  0  0  0  0  0  0  0
    4.0529    3.2974    4.9414 H   0  0  0  0  0  0  0  0  0  0  0  0
    1.9188    4.8699    0.5240 C   0  0  0  0  0  0  0  0  0  0  0  0
    1.0376    5.2883    0.0127 H   0  0  0  0  0  0  0  0  0  0  0  0
    2.7193    4.7397   -0.2119 H   0  0  0  0  0  0  0  0  0  0  0  0
    2.3972    5.8458    1.5671 C   0  0  1  0  0  3  0  0  0  0  0  0
    1.8146    7.0863    1.7580 C   0  0  0  0  0  0  0  0  0  0  0  0
    1.0032    7.4116    1.1248 H   0  0  0  0  0  0  0  0  0  0  0  0
    2.2861    7.8940    2.7847 C   0  0  0  0  0  0  0  0  0  0  0  0
    1.8487    8.8656    2.9593 H   0  0  0  0  0  0  0  0  0  0  0  0
    3.3123    7.4264    3.5867 C   0  0  0  0  0  0  0  0  0  0  0  0
    3.6912    8.0089    4.4108 H   0  0  0  0  0  0  0  0  0  0  0  0
    3.8552    6.1742    3.3260 C   0  0  0  0  0  0  0  0  0  0  0  0
    4.9536    5.6088    4.1842 C   0  0  0  0  0  0  0  0  0  0  0  0
    5.3649    4.7213    3.6794 H   0  0  0  0  0  0  0  0  0  0  0  0
    5.7454    6.3577    4.2700 H   0  0  0  0  0  0  0  0  0  0  0  0
    1.6859    2.4688    0.1391 C   0  0  0  0  0  0  0  0  0  0  0  0
    2.6681    2.5514   -0.3408 H   0  0  0  0  0  0  0  0  0  0  0  0
    0.6053    2.5630   -0.9420 C   0  0  0  0  0  0  0  0  0  0  0  0
   -0.3894    2.5117   -0.5032 H   0  0  0  0  0  0  0  0  0  0  0  0
    0.7150    1.7300   -1.6311 H   0  0  0  0  0  0  0  0  0  0  0  0
    0.6900    3.4854   -1.5123 H   0  0  0  0  0  0  0  0  0  0  0  0
    1.6242    1.1066    0.8281 C   0  0  0  0  0  0  0  0  0  0  0  0
    2.1947    1.1243    1.7529 H   0  0  0  0  0  0  0  0  0  0  0  0
    2.0622    0.3545    0.1779 H   0  0  0  0  0  0  0  0  0  0  0  0
    0.6012    0.8055    1.0465 H   0  0  0  0  0  0  0  0  0  0  0  0
    5.5212    5.3076    6.5386 C   0  0  0  0  0  0  0  0  0  0  0  0
    6.1357    6.1890    6.3195 H   0  0  0  0  0  0  0  0  0  0  0  0
    6.4256    4.0716    6.5116 C   0  0  0  0  0  0  0  0  0  0  0  0
    5.8812    3.1809    6.8151 H   0  0  0  0  0  0  0  0  0  0  0  0
    7.2595    4.2114    7.1945 H   0  0  0  0  0  0  0  0  0  0  0  0
    6.8247    3.9068    5.5138 H   0  0  0  0  0  0  0  0  0  0  0  0
    4.9175    5.5175    7.9282 C   0  0  0  0  0  0  0  0  0  0  0  0
    4.2153    6.3472    7.9068 H   0  0  0  0  0  0  0  0  0  0  0  0
    5.7085    5.7482    8.6369 H   0  0  0  0  0  0  0  0  0  0  0  0
    4.4003    4.6295    8.2831 H   0  0  0  0  0  0  0  0  0  0  0  0
  2  1  1  1  0  0  0
  2  3  1  0  0  0  0
  3 17  1  0  0  0  0
  4  2  1  0  0  0  0
  4 31  1  0  0  0  0
  5 35  1  6  0  0  0
  5  7  1  0  0  0  0
  5  2  1  0  0  0  0
  6 18  1  0  0  0  0
  6 45  1  0  0  0  0
  7  8  1  0  0  0  0
  7 10  1  0  0  0  0
  9  7  1  0  0  0  0
 10  3  1  0  0  0  0
 10 11  1  6  0  0  0
 11 13  2  0  0  0  0
 12 11  1  0  0  0  0
 13 14  1  0  0  0  0
 13 15  1  0  0  0  0
 15 16  1  0  0  0  0
 17 18  1  0  0  0  0
 17 15  2  0  0  0  0
 18 19  1  0  0  0  0
 20 18  1  0  0  0  0
 21  5  1  0  0  0  0
 21 24  1  0  0  0  0
 22 21  1  0  0  0  0
 23 21  1  0  0  0  0
 24 25  1  1  0  0  0
 24  4  1  0  0  0  0
 25 27  2  0  0  0  0
 26 25  1  0  0  0  0
 27 28  1  0  0  0  0
 27 29  1  0  0  0  0
 29 30  1  0  0  0  0
 31 29  2  0  0  0  0
 31 32  1  0  0  0  0
 32 34  1  0  0  0  0
 32  6  1  0  0  0  0
 33 32  1  0  0  0  0
 35 41  1  0  0  0  0
 36 35  1  0  0  0  0
 37 38  1  0  0  0  0
 37 35  1  0  0  0  0
 39 37  1  0  0  0  0
 40 37  1  0  0  0  0
 41 44  1  0  0  0  0
 41 42  1  0  0  0  0
 43 41  1  0  0  0  0
 45 51  1  0  0  0  0
 46 45  1  0  0  0  0
 47 45  1  0  0  0  0
 47 48  1  0  0  0  0
 47 49  1  0  0  0  0
 50 47  1  0  0  0  0
 51 54  1  0  0  0  0
 51 53  1  0  0  0  0
 52 51  1  0  0  0  0
M  END
$$$$
