CSD_code = UDOHAW | q = 0 | S = 0 | Stoichiometry = C26H28ClIrNOP | MND = 5
 OpenBabel04212202103D

 59 61  0  0  1  0  0  0  0  0999 V2000
    9.6552    5.6507    7.3614 Ir  0  0  0  0  0  0  0  0  0  0  0  0
   10.9457    6.6353    9.0026 Cl  0  0  0  0  0 15  0  0  0  0  0  0
    8.1393    4.8599    5.8837 P   0  0  0  0  0  0  0  0  0  0  0  0
    6.4560    4.9988    6.5816 C   0  0  0  0  0  0  0  0  0  0  0  0
    6.1226    6.1139    7.3732 C   0  0  0  0  0  0  0  0  0  0  0  0
    4.8315    6.2195    7.8986 C   0  0  0  0  0  0  0  0  0  0  0  0
    4.5859    7.0812    8.4994 H   0  0  0  0  0  0  0  0  0  0  0  0
    3.8870    5.2413    7.6632 C   0  0  0  0  0  0  0  0  0  0  0  0
    2.8982    5.3338    8.0863 H   0  0  0  0  0  0  0  0  0  0  0  0
    4.2123    4.1452    6.8798 C   0  0  0  0  0  0  0  0  0  0  0  0
    3.4782    3.3779    6.6838 H   0  0  0  0  0  0  0  0  0  0  0  0
    5.4827    4.0353    6.3413 C   0  0  0  0  0  0  0  0  0  0  0  0
    5.7233    3.1847    5.7197 H   0  0  0  0  0  0  0  0  0  0  0  0
    7.9434    5.7902    4.3188 C   0  0  0  0  0  0  0  0  0  0  0  0
    9.0911    6.3576    3.7733 C   0  0  0  0  0  0  0  0  0  0  0  0
   10.0306    6.2333    4.2953 H   0  0  0  0  0  0  0  0  0  0  0  0
    9.0227    7.0760    2.5941 C   0  0  0  0  0  0  0  0  0  0  0  0
    9.9174    7.5097    2.1720 H   0  0  0  0  0  0  0  0  0  0  0  0
    7.8025    7.2453    1.9593 C   0  0  0  0  0  0  0  0  0  0  0  0
    7.7439    7.8127    1.0422 H   0  0  0  0  0  0  0  0  0  0  0  0
    6.6552    6.6919    2.5040 C   0  0  0  0  0  0  0  0  0  0  0  0
    5.7035    6.8285    2.0113 H   0  0  0  0  0  0  0  0  0  0  0  0
    6.7215    5.9631    3.6786 C   0  0  0  0  0  0  0  0  0  0  0  0
    5.8244    5.5305    4.0996 H   0  0  0  0  0  0  0  0  0  0  0  0
    8.1826    3.1387    5.2847 C   0  0  0  0  0  0  0  0  0  0  0  0
    8.0329    2.1259    6.2323 C   0  0  0  0  0  0  0  0  0  0  0  0
    7.8069    2.3949    7.2562 H   0  0  0  0  0  0  0  0  0  0  0  0
    8.1591    0.8008    5.8648 C   0  0  0  0  0  0  0  0  0  0  0  0
    8.0336    0.0212    6.6018 H   0  0  0  0  0  0  0  0  0  0  0  0
    8.4560    0.4729    4.5503 C   0  0  0  0  0  0  0  0  0  0  0  0
    8.5601   -0.5627    4.2627 H   0  0  0  0  0  0  0  0  0  0  0  0
    8.6253    1.4741    3.6093 C   0  0  0  0  0  0  0  0  0  0  0  0
    8.8630    1.2194    2.5868 H   0  0  0  0  0  0  0  0  0  0  0  0
    8.4949    2.8037    3.9728 C   0  0  0  0  0  0  0  0  0  0  0  0
    8.6301    3.5823    3.2354 H   0  0  0  0  0  0  0  0  0  0  0  0
   10.7876    3.8716    7.5946 C   0  0  0  0  0  0  0  0  0  0  0  0
   10.2772    2.9546    7.3118 H   0  0  0  0  0  0  0  0  0  0  0  0
   11.2563    3.8329    8.5724 H   0  0  0  0  0  0  0  0  0  0  0  0
   11.3722    4.6658    6.5945 C   0  0  0  0  0  3  0  0  0  0  0  0
   11.2878    4.3517    5.5560 H   0  0  0  0  0  0  0  0  0  0  0  0
   12.2741    5.2251    6.8225 H   0  0  0  0  0  0  0  0  0  0  0  0
    8.3265    7.2257    7.5191 N   0  0  0  0  0  0  0  0  0  0  0  0
    6.4777    8.3741    8.0175 O   0  0  0  0  0  0  0  0  0  0  0  0
    7.0433    7.2089    7.6345 C   0  0  1  0  0  3  0  0  0  0  0  0
    7.5294    9.3071    8.2442 C   0  0  0  0  0  0  0  0  0  0  0  0
    7.5616    9.5396    9.3134 H   0  0  0  0  0  0  0  0  0  0  0  0
    7.3079   10.2187    7.6873 H   0  0  0  0  0  0  0  0  0  0  0  0
    8.7994    8.5809    7.7669 C   0  0  2  0  0  0  0  0  0  0  0  0
    9.5629    8.5374    8.5517 H   0  0  0  0  0  0  0  0  0  0  0  0
    9.4662    9.1487    6.4999 C   0  0  0  0  0  0  0  0  0  0  0  0
   10.1882    8.3862    6.1839 H   0  0  0  0  0  0  0  0  0  0  0  0
    8.4743    9.3761    5.3614 C   0  0  0  0  0  0  0  0  0  0  0  0
    7.8452    8.5008    5.2099 H   0  0  0  0  0  0  0  0  0  0  0  0
    9.0113    9.5652    4.4352 H   0  0  0  0  0  0  0  0  0  0  0  0
    7.8348   10.2346    5.5572 H   0  0  0  0  0  0  0  0  0  0  0  0
   10.2257   10.4282    6.8343 C   0  0  0  0  0  0  0  0  0  0  0  0
    9.5508   11.1939    7.2119 H   0  0  0  0  0  0  0  0  0  0  0  0
   10.7183   10.8135    5.9450 H   0  0  0  0  0  0  0  0  0  0  0  0
   10.9820   10.2314    7.5896 H   0  0  0  0  0  0  0  0  0  0  0  0
  1 42  1  0  0  0  0
  1 36  1  0  0  0  0
  3  4  1  0  0  0  0
  4  5  1  0  0  0  0
  5  6  2  0  0  0  0
  6  7  1  0  0  0  0
  8  6  1  0  0  0  0
  8  9  1  0  0  0  0
 10  8  2  0  0  0  0
 11 10  1  0  0  0  0
 12  4  2  0  0  0  0
 12 10  1  0  0  0  0
 13 12  1  0  0  0  0
 14  3  1  0  0  0  0
 15 16  1  0  0  0  0
 15 14  1  0  0  0  0
 17 15  2  0  0  0  0
 18 17  1  0  0  0  0
 19 21  2  0  0  0  0
 19 17  1  0  0  0  0
 20 19  1  0  0  0  0
 21 23  1  0  0  0  0
 22 21  1  0  0  0  0
 23 24  1  0  0  0  0
 23 14  2  0  0  0  0
 25  3  1  0  0  0  0
 25 26  1  0  0  0  0
 26 27  1  0  0  0  0
 28 26  2  0  0  0  0
 28 29  1  0  0  0  0
 30 28  1  0  0  0  0
 31 30  1  0  0  0  0
 32 34  1  0  0  0  0
 32 30  2  0  0  0  0
 33 32  1  0  0  0  0
 34 25  2  0  0  0  0
 35 34  1  0  0  0  0
 36 38  1  0  0  0  0
 37 36  1  0  0  0  0
 39 41  1  0  0  0  0
 39 36  1  0  0  0  0
 40 39  1  0  0  0  0
 42 44  1  0  0  0  0
 42 48  1  0  0  0  0
 43 45  1  0  0  0  0
 44  5  1  6  0  0  0
 44 43  1  0  0  0  0
 45 46  1  0  0  0  0
 47 45  1  0  0  0  0
 48 45  1  0  0  0  0
 48 49  1  1  0  0  0
 50 56  1  0  0  0  0
 50 48  1  0  0  0  0
 51 50  1  0  0  0  0
 52 55  1  0  0  0  0
 52 50  1  0  0  0  0
 53 52  1  0  0  0  0
 54 52  1  0  0  0  0
 56 57  1  0  0  0  0
 56 59  1  0  0  0  0
 58 56  1  0  0  0  0
M  END
$$$$
