CSD_code = UDOPAH | q = 0 | S = 0 | Stoichiometry = C14H16CuIN4 | MND = 4
 OpenBabel04212202103D

 36 40  0  0  1  0  0  0  0  0999 V2000
    3.8741    7.7108   11.9107 I   0  0  0  0  0  0  0  0  0  0  0  0
    2.1308    7.7681   10.1859 Cu  0  0  1  0  0  0  0  0  0  0  0  0
    0.5598    8.9801    9.7158 N   0  0  0  0  0  0  0  0  0  0  0  0
    1.9622    7.2289    8.2263 N   0  0  0  0  0  0  0  0  0  0  0  0
    0.4691    6.2853   10.3637 N   0  0  1  0  0  4  0  0  0  0  0  0
    0.5931    5.6924   11.1761 H   0  0  0  0  0  0  0  0  0  0  0  0
    2.9540   10.4325    7.8293 N   0  0  0  0  0  0  0  0  0  0  0  0
    2.4629   10.7464    6.9974 H   0  0  0  0  0  0  0  0  0  0  0  0
   -0.7274    7.1025   10.4924 C   0  0  0  0  0  0  0  0  0  0  0  0
   -0.8068    7.4180   11.5377 H   0  0  0  0  0  0  0  0  0  0  0  0
   -1.6425    6.5514   10.2232 H   0  0  0  0  0  0  0  0  0  0  0  0
   -0.6085    8.3396    9.6379 C   0  0  2  0  0  3  0  0  0  0  0  0
   -1.6313    8.7799    8.8163 C   0  0  0  0  0  0  0  0  0  0  0  0
   -2.5679    8.2453    8.7783 H   0  0  0  0  0  0  0  0  0  0  0  0
   -1.4272    9.9170    8.0464 C   0  0  0  0  0  0  0  0  0  0  0  0
   -2.2075   10.2876    7.3991 H   0  0  0  0  0  0  0  0  0  0  0  0
   -0.2038   10.5603    8.1186 C   0  0  0  0  0  0  0  0  0  0  0  0
   -0.0066   11.4436    7.5298 H   0  0  0  0  0  0  0  0  0  0  0  0
    0.7774   10.0603    8.9673 C   0  0  0  0  0  0  0  0  0  0  0  0
    2.1525   10.6804    9.0160 C   0  0  0  0  0  0  0  0  0  0  0  0
    2.0622   11.7661    9.1203 H   0  0  0  0  0  0  0  0  0  0  0  0
    2.6964   10.2878    9.8789 H   0  0  0  0  0  0  0  0  0  0  0  0
    0.5472    5.5100    9.1355 C   0  0  0  0  0  0  0  0  0  0  0  0
   -0.4004    4.9999    8.9006 H   0  0  0  0  0  0  0  0  0  0  0  0
    1.3265    4.7525    9.2664 H   0  0  0  0  0  0  0  0  0  0  0  0
    0.9461    6.3979    7.9836 C   0  0  1  0  0  3  0  0  0  0  0  0
    0.2987    6.3703    6.7610 C   0  0  0  0  0  0  0  0  0  0  0  0
   -0.5168    5.6840    6.5917 H   0  0  0  0  0  0  0  0  0  0  0  0
    0.7183    7.2393    5.7629 C   0  0  0  0  0  0  0  0  0  0  0  0
    0.2358    7.2384    4.7973 H   0  0  0  0  0  0  0  0  0  0  0  0
    1.7589    8.1112    6.0324 C   0  0  0  0  0  0  0  0  0  0  0  0
    2.1085    8.8055    5.2832 H   0  0  0  0  0  0  0  0  0  0  0  0
    2.3611    8.0833    7.2852 C   0  0  0  0  0  0  0  0  0  0  0  0
    3.4391    9.0742    7.6506 C   0  0  0  0  0  0  0  0  0  0  0  0
    3.9184    8.7615    8.5817 H   0  0  0  0  0  0  0  0  0  0  0  0
    4.1940    9.1048    6.8587 H   0  0  0  0  0  0  0  0  0  0  0  0
  2  5  1  0  0  0  0
  2  1  1  1  0  0  0
  3  2  1  0  0  0  0
  4  2  1  0  0  0  0
  5  9  1  0  0  0  0
  5  6  1  1  0  0  0
  7 20  1  0  0  0  0
  8  7  1  0  0  0  0
  9 10  1  0  0  0  0
 11  9  1  0  0  0  0
 12 13  1  6  0  0  0
 12  3  1  0  0  0  0
 12  9  1  0  0  0  0
 14 13  1  0  0  0  0
 15 17  1  0  0  0  0
 15 13  2  0  0  0  0
 16 15  1  0  0  0  0
 17 19  2  0  0  0  0
 18 17  1  0  0  0  0
 19 20  1  0  0  0  0
 19  3  1  0  0  0  0
 20 21  1  0  0  0  0
 20 22  1  0  0  0  0
 23 25  1  0  0  0  0
 23  5  1  0  0  0  0
 24 23  1  0  0  0  0
 26 27  1  1  0  0  0
 26  4  1  0  0  0  0
 26 23  1  0  0  0  0
 28 27  1  0  0  0  0
 29 31  1  0  0  0  0
 29 27  2  0  0  0  0
 30 29  1  0  0  0  0
 31 33  2  0  0  0  0
 32 31  1  0  0  0  0
 33 34  1  0  0  0  0
 33  4  1  0  0  0  0
 34  7  1  0  0  0  0
 34 35  1  0  0  0  0
 36 34  1  0  0  0  0
M  END
$$$$
