CSD_code = UDUDAA | q = 0 | S = 0 | Stoichiometry = C21H23ClN2O2RuS | MND = 9
 OpenBabel04212202103D

 51 53  0  0  1  0  0  0  0  0999 V2000
    4.8620    1.0846   22.7759 Ru  0  0  0  0  0  0  0  0  0  0  0  0
    3.7115   -0.8963   22.9844 Cl  0  0  0  0  0 15  0  0  0  0  0  0
    2.8867    1.9068   23.1051 N   0  0  0  0  0  4  0  0  0  0  0  0
    2.4437    2.5950   22.4960 H   0  0  0  0  0  0  0  0  0  0  0  0
    2.3941    1.0061   22.9932 H   0  0  0  0  0  0  0  0  0  0  0  0
    2.7646    2.3165   24.5151 C   0  0  0  0  0  0  0  0  0  0  0  0
    1.7156    2.3237   24.8348 H   0  0  0  0  0  0  0  0  0  0  0  0
    3.1856    3.3206   24.6227 H   0  0  0  0  0  0  0  0  0  0  0  0
    3.5840    1.3483   25.3787 C   0  0  0  0  0  0  0  0  0  0  0  0
    3.6357    1.7107   26.4143 H   0  0  0  0  0  0  0  0  0  0  0  0
    3.1270    0.3480   25.3800 H   0  0  0  0  0  0  0  0  0  0  0  0
    4.8959    1.3178   24.7881 N   0  0  0  0  0  0  0  0  0  0  0  0
    5.9187    0.0997   25.0634 S   0  0  0  0  0  0  0  0  0  0  0  0
    6.5938   -0.0815   23.7699 O   0  0  0  0  0  0  0  0  0  0  0  0
    5.3653   -1.0476   25.7219 O   0  0  0  0  0  0  0  0  0  0  0  0
    7.1629    0.8114   26.1328 C   0  0  0  0  0  0  0  0  0  0  0  0
    7.4576    0.2630   27.3652 C   0  0  0  0  0  0  0  0  0  0  0  0
    6.9309   -0.6256   27.6758 H   0  0  0  0  0  0  0  0  0  0  0  0
    8.4171    0.8620   28.1632 C   0  0  0  0  0  0  0  0  0  0  0  0
    8.6542    0.4376   29.1280 H   0  0  0  0  0  0  0  0  0  0  0  0
    9.0820    2.0070   27.7367 C   0  0  0  0  0  0  0  0  0  0  0  0
    8.7675    2.5451   26.4920 C   0  0  0  0  0  0  0  0  0  0  0  0
    9.2785    3.4348   26.1527 H   0  0  0  0  0  0  0  0  0  0  0  0
    7.8094    1.9505   25.6919 C   0  0  0  0  0  0  0  0  0  0  0  0
    7.5465    2.3506   24.7234 H   0  0  0  0  0  0  0  0  0  0  0  0
   10.1370    2.6366   28.5941 C   0  0  0  0  0  0  0  0  0  0  0  0
   10.2226    3.7007   28.3885 H   0  0  0  0  0  0  0  0  0  0  0  0
   11.1032    2.1745   28.3899 H   0  0  0  0  0  0  0  0  0  0  0  0
    9.9149    2.4952   29.6491 H   0  0  0  0  0  0  0  0  0  0  0  0
    5.5638    0.5917   20.6646 C   0  0  0  0  0  3  0  0  0  0  0  0
    5.0442   -0.1984   20.1299 H   0  0  0  0  0  0  0  0  0  0  0  0
    6.9471    0.4413   20.9120 C   0  0  0  0  0  0  0  0  0  0  0  0
    7.4211   -0.5034   20.6873 H   0  0  0  0  0  0  0  0  0  0  0  0
    7.6750    1.4734   21.4505 C   0  0  0  0  0  0  0  0  0  0  0  0
    8.7213    1.3501   21.6840 H   0  0  0  0  0  0  0  0  0  0  0  0
    7.0416    2.7054   21.7123 C   0  0  0  0  0  0  0  0  0  0  0  0
    7.6127    3.5110   22.1560 H   0  0  0  0  0  0  0  0  0  0  0  0
    5.7503    2.9428   21.2820 C   0  0  0  0  0  0  0  0  0  0  0  0
    5.3285    3.9402   21.3445 H   0  0  0  0  0  0  0  0  0  0  0  0
    4.9634    1.8860   20.7361 C   0  0  2  0  0  0  0  0  0  0  0  0
    3.6969    2.1558   20.0185 C   0  0  0  0  0  0  0  0  0  0  0  0
    3.5378    3.3175   19.2659 C   0  0  0  0  0  0  0  0  0  0  0  0
    4.3463    4.0313   19.2035 H   0  0  0  0  0  0  0  0  0  0  0  0
    2.3612    3.5517   18.5761 C   0  0  0  0  0  0  0  0  0  0  0  0
    2.2529    4.4552   17.9940 H   0  0  0  0  0  0  0  0  0  0  0  0
    1.3297    2.6298   18.6230 C   0  0  0  0  0  0  0  0  0  0  0  0
    0.4136    2.8142   18.0820 H   0  0  0  0  0  0  0  0  0  0  0  0
    1.4818    1.4666   19.3619 C   0  0  0  0  0  0  0  0  0  0  0  0
    0.6825    0.7417   19.3984 H   0  0  0  0  0  0  0  0  0  0  0  0
    2.6544    1.2262   20.0530 C   0  0  0  0  0  0  0  0  0  0  0  0
    2.7670    0.3227   20.6405 H   0  0  0  0  0  0  0  0  0  0  0  0
  1  3  1  0  0  0  0
  1 12  1  0  0  0  0
  3  6  1  0  0  0  0
  4  3  1  0  0  0  0
  5  3  1  0  0  0  0
  6  8  1  0  0  0  0
  6  7  1  0  0  0  0
  6  9  1  0  0  0  0
  9 11  1  0  0  0  0
  9 10  1  0  0  0  0
 12 13  1  0  0  0  0
 12  9  1  0  0  0  0
 13 15  2  0  0  0  0
 13 16  1  0  0  0  0
 14 13  2  0  0  0  0
 16 17  1  0  0  0  0
 17 18  1  0  0  0  0
 17 19  2  0  0  0  0
 19 20  1  0  0  0  0
 21 19  1  0  0  0  0
 21 26  1  0  0  0  0
 22 21  2  0  0  0  0
 23 22  1  0  0  0  0
 24 16  2  0  0  0  0
 24 22  1  0  0  0  0
 25 24  1  0  0  0  0
 26 29  1  0  0  0  0
 27 26  1  0  0  0  0
 28 26  1  0  0  0  0
 30 40  1  0  0  0  0
 30 32  1  0  0  0  0
 31 30  1  0  0  0  0
 32 34  2  0  0  0  0
 33 32  1  0  0  0  0
 34 35  1  0  0  0  0
 34 36  1  0  0  0  0
 36 37  1  0  0  0  0
 38 39  1  0  0  0  0
 38 36  2  0  0  0  0
 40 41  1  6  0  0  0
 40 38  1  0  0  0  0
 40  1  1  0  0  0  0
 41 50  1  0  0  0  0
 42 41  2  0  0  0  0
 43 42  1  0  0  0  0
 44 46  2  0  0  0  0
 44 42  1  0  0  0  0
 45 44  1  0  0  0  0
 46 48  1  0  0  0  0
 47 46  1  0  0  0  0
 48 49  1  0  0  0  0
 48 50  2  0  0  0  0
 50 51  1  0  0  0  0
M  END
$$$$
