CSD_code = UDULOU | q = 1 | S = 0 | Stoichiometry = C22H27ClFeN5O(1+) | MND = 6
 OpenBabel04212202103D

 57 63  0  0  1  0  0  0  0  0999 V2000
   13.2655   29.1719    0.9051 Fe  0  0  0  0  0  0  0  0  0  0  0  0
   13.2742   27.9467    2.7018 Cl  0  0  0  0  0  0  0  0  0  0  0  0
   13.1536   30.2086   -0.8133 N   0  0  2  0  0  4  0  0  0  0  0  0
   14.4917   30.5452   -1.3010 C   0  0  0  0  0  0  0  0  0  0  0  0
   15.4975   30.4961   -0.1592 C   0  0  0  0  0  0  0  0  0  0  0  0
   15.3695   29.2425    0.6057 N   0  0  1  0  0  4  0  0  0  0  0  0
   11.4525   29.6376    1.0363 N   0  0  0  0  0  0  0  0  0  0  0  0
   10.4845   29.0355    1.7182 C   0  0  0  0  0  3  0  0  0  0  0  0
    9.1969   29.5396    1.7877 C   0  0  0  0  0  0  0  0  0  0  0  0
    8.8979   30.7126    1.1132 C   0  0  0  0  0  0  0  0  0  0  0  0
    9.9047   31.3333    0.3819 C   0  0  0  0  0  0  0  0  0  0  0  0
   11.1675   30.7730    0.3697 C   0  0  0  0  0  0  0  0  0  0  0  0
   12.3329   31.3449   -0.4002 C   0  0  0  0  0  0  0  0  0  0  0  0
   12.8538   27.6525   -0.2426 N   0  0  0  0  0  0  0  0  0  0  0  0
   12.8578   26.3694    0.1084 C   0  0  0  0  0  3  0  0  0  0  0  0
   12.7218   25.3365   -0.8013 C   0  0  0  0  0  0  0  0  0  0  0  0
   12.5783   25.6401   -2.1439 C   0  0  0  0  0  0  0  0  0  0  0  0
   12.5133   26.9767   -2.5089 C   0  0  0  0  0  0  0  0  0  0  0  0
   12.6365   27.9466   -1.5296 C   0  0  0  0  0  0  0  0  0  0  0  0
   12.4348   29.4057   -1.8116 C   0  0  0  0  0  0  0  0  0  0  0  0
   13.7950   30.5891    2.2362 N   0  0  0  0  0  0  0  0  0  0  0  0
   12.9872   31.3983    2.9200 C   0  0  0  0  0  3  0  0  0  0  0  0
   13.3686   32.0717    4.0647 C   0  0  0  0  0  0  0  0  0  0  0  0
   14.6606   31.9066    4.5378 C   0  0  0  0  0  0  0  0  0  0  0  0
   15.5092   31.0704    3.8327 C   0  0  0  0  0  0  0  0  0  0  0  0
   15.0419   30.4250    2.6984 C   0  0  0  0  0  0  0  0  0  0  0  0
   15.9104   29.4600    1.9479 C   0  0  0  0  0  0  0  0  0  0  0  0
   16.0804   28.1609   -0.0774 C   0  0  0  0  0  0  0  0  0  0  0  0
   15.9557   26.8020    0.6376 C   0  0  0  0  0  0  0  0  0  0  0  0
   15.7598   25.7584   -0.2858 O   0  0  0  0  0  0  0  0  0  0  0  0
   16.5981   25.5280   -0.7015 H   0  0  0  0  0  0  0  0  0  0  0  0
   14.5104   31.5331   -1.7751 H   0  0  0  0  0  0  0  0  0  0  0  0
   14.7752   29.8061   -2.0511 H   0  0  0  0  0  0  0  0  0  0  0  0
   15.3092   31.3312    0.5153 H   0  0  0  0  0  0  0  0  0  0  0  0
   16.5149   30.6085   -0.5559 H   0  0  0  0  0  0  0  0  0  0  0  0
   10.7772   28.1349    2.2346 H   0  0  0  0  0  0  0  0  0  0  0  0
    8.4474   29.0216    2.3625 H   0  0  0  0  0  0  0  0  0  0  0  0
    7.9076   31.1369    1.1463 H   0  0  0  0  0  0  0  0  0  0  0  0
    9.7108   32.2428   -0.1652 H   0  0  0  0  0  0  0  0  0  0  0  0
   11.9895   31.9456   -1.2525 H   0  0  0  0  0  0  0  0  0  0  0  0
   12.9294   31.9832    0.2551 H   0  0  0  0  0  0  0  0  0  0  0  0
   12.9651   26.1742    1.1632 H   0  0  0  0  0  0  0  0  0  0  0  0
   12.7435   24.3169   -0.4566 H   0  0  0  0  0  0  0  0  0  0  0  0
   12.4998   24.8640   -2.8883 H   0  0  0  0  0  0  0  0  0  0  0  0
   12.3598   27.2663   -3.5368 H   0  0  0  0  0  0  0  0  0  0  0  0
   12.7293   29.6699   -2.8325 H   0  0  0  0  0  0  0  0  0  0  0  0
   11.3619   29.5999   -1.7222 H   0  0  0  0  0  0  0  0  0  0  0  0
   11.9826   31.5078    2.5438 H   0  0  0  0  0  0  0  0  0  0  0  0
   12.6612   32.7037    4.5755 H   0  0  0  0  0  0  0  0  0  0  0  0
   14.9953   32.4074    5.4318 H   0  0  0  0  0  0  0  0  0  0  0  0
   16.5210   30.8986    4.1631 H   0  0  0  0  0  0  0  0  0  0  0  0
   16.9498   29.8151    1.9121 H   0  0  0  0  0  0  0  0  0  0  0  0
   15.8814   28.5127    2.4901 H   0  0  0  0  0  0  0  0  0  0  0  0
   17.1390   28.4315   -0.2076 H   0  0  0  0  0  0  0  0  0  0  0  0
   15.6328   28.0366   -1.0660 H   0  0  0  0  0  0  0  0  0  0  0  0
   15.0657   26.8139    1.2695 H   0  0  0  0  0  0  0  0  0  0  0  0
   16.8317   26.6059    1.2647 H   0  0  0  0  0  0  0  0  0  0  0  0
  1  7  1  0  0  0  0
  1 21  1  0  0  0  0
  1  2  1  0  0  0  0
  3 20  1  6  0  0  0
  3 13  1  0  0  0  0
  3  1  1  0  0  0  0
  4  3  1  0  0  0  0
  4  5  1  0  0  0  0
  5 34  1  0  0  0  0
  5  6  1  0  0  0  0
  6 28  1  6  0  0  0
  6  1  1  0  0  0  0
  6 27  1  0  0  0  0
  7  8  1  0  0  0  0
  8  9  1  0  0  0  0
  8 36  1  0  0  0  0
  9 37  1  0  0  0  0
 10 38  1  0  0  0  0
 10  9  2  0  0  0  0
 11 10  1  0  0  0  0
 12 11  2  0  0  0  0
 12  7  1  0  0  0  0
 13 41  1  0  0  0  0
 13 12  1  0  0  0  0
 14 15  1  0  0  0  0
 14  1  1  0  0  0  0
 15 42  1  0  0  0  0
 16 43  1  0  0  0  0
 16 15  1  0  0  0  0
 17 16  2  0  0  0  0
 18 17  1  0  0  0  0
 18 19  2  0  0  0  0
 19 14  1  0  0  0  0
 20 47  1  0  0  0  0
 20 19  1  0  0  0  0
 21 26  1  0  0  0  0
 21 22  1  0  0  0  0
 22 23  1  0  0  0  0
 23 24  2  0  0  0  0
 23 49  1  0  0  0  0
 24 50  1  0  0  0  0
 25 51  1  0  0  0  0
 25 24  1  0  0  0  0
 26 25  2  0  0  0  0
 27 53  1  0  0  0  0
 27 26  1  0  0  0  0
 28 29  1  0  0  0  0
 29 57  1  0  0  0  0
 29 56  1  0  0  0  0
 30 29  1  0  0  0  0
 31 30  1  0  0  0  0
 32  4  1  0  0  0  0
 33  4  1  0  0  0  0
 35  5  1  0  0  0  0
 39 11  1  0  0  0  0
 40 13  1  0  0  0  0
 44 17  1  0  0  0  0
 45 18  1  0  0  0  0
 46 20  1  0  0  0  0
 48 22  1  0  0  0  0
 52 27  1  0  0  0  0
 54 28  1  0  0  0  0
 55 28  1  0  0  0  0
M  END
$$$$
