CSD_code = UFEFIV | q = 0 | S = 0 | Stoichiometry = C19H15ClN2PtSi | MND = 4
 OpenBabel04212202103D

 39 44  0  0  1  0  0  0  0  0999 V2000
   -0.0737   -2.4528    4.4481 Cl  0  0  0  0  0  0  0  0  0  0  0  0
   -1.2465   -0.4090    4.0051 Pt  0  0  2  0  0  0  0  0  0  0  0  0
   -1.6937    1.6353    3.0860 Si  0  0  1  0  0  0  0  0  0  0  0  0
   -0.1660    0.5304    5.3647 N   0  0  0  0  0  0  0  0  0  0  0  0
   -2.0902   -1.2167    2.4136 N   0  0  0  0  0  0  0  0  0  0  0  0
    0.2128   -0.0276    6.4954 C   0  0  0  0  0  0  0  0  0  0  0  0
    1.2458    0.4845    7.2896 C   0  0  0  0  0  0  0  0  0  0  0  0
    1.9217    1.5976    6.8683 C   0  0  0  0  0  0  0  0  0  0  0  0
    1.5237    2.2345    5.6741 C   0  0  0  0  0  0  0  0  0  0  0  0
    2.1659    3.3891    5.1810 C   0  0  0  0  0  0  0  0  0  0  0  0
    1.7285    3.9868    4.0320 C   0  0  0  0  0  0  0  0  0  0  0  0
    0.6081    3.4810    3.3571 C   0  0  0  0  0  0  0  0  0  0  0  0
   -0.0470    2.3560    3.7887 C   0  0  0  0  0  0  0  0  0  0  0  0
    0.4357    1.6878    4.9439 C   0  0  2  0  0  3  0  0  0  0  0  0
   -2.4827   -2.4725    2.3651 C   0  0  0  0  0  0  0  0  0  0  0  0
   -2.7488   -3.1417    1.1645 C   0  0  0  0  0  0  0  0  0  0  0  0
   -2.5673   -2.4825   -0.0211 C   0  0  0  0  0  0  0  0  0  0  0  0
   -2.1732   -1.1281   -0.0030 C   0  0  0  0  0  0  0  0  0  0  0  0
   -1.9751   -0.3807   -1.1824 C   0  0  0  0  0  3  0  0  0  0  0  0
   -1.6184    0.9373   -1.1146 C   0  0  0  0  0  0  0  0  0  0  0  0
   -1.4894    1.5693    0.1306 C   0  0  0  0  0  0  0  0  0  0  0  0
   -1.6612    0.8862    1.3074 C   0  0  0  0  0  0  0  0  0  0  0  0
   -1.9682   -0.4983    1.2528 C   0  0  0  0  0  0  0  0  0  0  0  0
   -2.9429    3.0835    3.0385 C   0  0  0  0  0  0  0  0  0  0  0  0
   -0.2939   -0.9413    6.7809 H   0  0  0  0  0  0  0  0  0  0  0  0
    1.5110   -0.0233    8.2031 H   0  0  0  0  0  0  0  0  0  0  0  0
    2.7529    1.9979    7.4303 H   0  0  0  0  0  0  0  0  0  0  0  0
    3.0032    3.7905    5.7330 H   0  0  0  0  0  0  0  0  0  0  0  0
    2.2265    4.8675    3.6533 H   0  0  0  0  0  0  0  0  0  0  0  0
    0.2502    3.9980    2.4791 H   0  0  0  0  0  0  0  0  0  0  0  0
   -2.5627   -2.9943    3.3108 H   0  0  0  0  0  0  0  0  0  0  0  0
   -3.0626   -4.1730    1.1932 H   0  0  0  0  0  0  0  0  0  0  0  0
   -2.7191   -2.9770   -0.9694 H   0  0  0  0  0  0  0  0  0  0  0  0
   -2.1167   -0.8704   -2.1348 H   0  0  0  0  0  0  0  0  0  0  0  0
   -1.4611    1.5055   -2.0198 H   0  0  0  0  0  0  0  0  0  0  0  0
   -1.2561    2.6233    0.1595 H   0  0  0  0  0  0  0  0  0  0  0  0
   -2.6012    3.8639    2.3650 H   0  0  0  0  0  0  0  0  0  0  0  0
   -3.0662    3.5222    4.0224 H   0  0  0  0  0  0  0  0  0  0  0  0
   -3.9142    2.7468    2.6939 H   0  0  0  0  0  0  0  0  0  0  0  0
  2  1  1  6  0  0  0
  2  4  1  0  0  0  0
  3 24  1  1  0  0  0
  3 13  1  0  0  0  0
  3  2  1  0  0  0  0
  4  6  1  0  0  0  0
  5  2  1  0  0  0  0
  6 25  1  0  0  0  0
  6  7  2  0  0  0  0
  7 26  1  0  0  0  0
  8  7  1  0  0  0  0
  8 27  1  0  0  0  0
  9  8  2  0  0  0  0
 10  9  1  0  0  0  0
 10 28  1  0  0  0  0
 11 10  2  0  0  0  0
 12 13  2  0  0  0  0
 12 11  1  0  0  0  0
 14 13  1  1  0  0  0
 14  4  1  0  0  0  0
 14  9  1  0  0  0  0
 15  5  1  0  0  0  0
 15 31  1  0  0  0  0
 16 32  1  0  0  0  0
 16 15  2  0  0  0  0
 17 18  2  0  0  0  0
 17 16  1  0  0  0  0
 18 23  1  0  0  0  0
 19 20  1  0  0  0  0
 19 18  1  0  0  0  0
 20 21  2  0  0  0  0
 21 36  1  0  0  0  0
 21 22  1  0  0  0  0
 22  3  1  0  0  0  0
 23 22  2  0  0  0  0
 23  5  1  0  0  0  0
 24 38  1  0  0  0  0
 29 11  1  0  0  0  0
 30 12  1  0  0  0  0
 33 17  1  0  0  0  0
 34 19  1  0  0  0  0
 35 20  1  0  0  0  0
 37 24  1  0  0  0  0
 39 24  1  0  0  0  0
M  END
$$$$
