CSD_code = UFEJOE | q = 1 | S = 0 | Stoichiometry = C18H34ClCoN3O10(1+) | MND = 6
 OpenBabel04212202103D

 67 71  0  0  1  0  0  0  0  0999 V2000
   -2.2229   -3.7737   -7.0027 Co  0  0  2  0  0  0  0  0  0  0  0  0
   -2.1250   -2.1023   -5.7194 Cl  0  0  0  0  0  0  0  0  0  0  0  0
   -4.3845   -3.7482   -7.0700 O   0  0  0  0  0  0  0  0  0  0  0  0
   -7.1063   -4.4325   -7.3959 O   0  0  0  0  0  0  0  0  0  0  0  0
   -7.6188   -7.1896   -7.9389 O   0  0  0  0  0  0  0  0  0  0  0  0
   -4.0902   -6.8368   -8.9283 O   0  0  0  0  0  0  0  0  0  0  0  0
   -6.1403   -7.9608  -10.7751 O   0  0  0  0  0  0  0  0  0  0  0  0
   -2.2307   -5.0141   -5.2253 O   0  0  0  0  0  0  0  0  0  0  0  0
   -1.4245   -6.3562   -2.7855 O   0  0  0  0  0  0  0  0  0  0  0  0
    1.2058   -6.0009   -1.9973 O   0  0  0  0  0  1  0  0  0  0  0  0
    1.4094   -5.0284   -5.4927 O   0  0  0  0  0  0  0  0  0  0  0  0
    4.1203   -4.5400   -4.6192 O   0  0  0  0  0  0  0  0  0  0  0  0
   -2.4449   -5.2555   -8.3270 N   0  0  2  0  0  4  0  0  0  0  0  0
   -0.2308   -4.2784   -7.0106 N   0  0  1  0  0  4  0  0  0  0  0  0
   -1.7531   -2.6444   -8.6002 N   0  0  1  0  0  4  0  0  0  0  0  0
   -1.3548   -6.2200   -8.0919 C   0  0  0  0  0  0  0  0  0  0  0  0
   -0.0316   -5.4859   -7.8415 C   0  0  0  0  0  0  0  0  0  0  0  0
    0.4475   -3.0997   -7.5705 C   0  0  0  0  0  0  0  0  0  0  0  0
   -0.2919   -2.6282   -8.8269 C   0  0  0  0  0  0  0  0  0  0  0  0
   -2.5260   -3.1918   -9.7189 C   0  0  0  0  0  0  0  0  0  0  0  0
   -2.4045   -4.7215   -9.7103 C   0  0  0  0  0  0  0  0  0  0  0  0
   -3.7441   -5.8434   -7.9998 C   0  0  1  0  0  0  0  0  0  0  0  0
   -4.8350   -4.7685   -7.9340 C   0  0  1  0  0  0  0  0  0  0  0  0
   -6.1240   -5.4296   -7.4507 C   0  0  2  0  0  0  0  0  0  0  0  0
   -6.4773   -6.5509   -8.4415 C   0  0  1  0  0  0  0  0  0  0  0  0
   -5.2838   -7.5243   -8.5775 C   0  0  1  0  0  0  0  0  0  0  0  0
   -5.5410   -8.5775   -9.6612 C   0  0  0  0  0  0  0  0  0  0  0  0
    0.1218   -4.4993   -5.6081 C   0  0  1  0  0  0  0  0  0  0  0  0
   -0.9011   -5.4406   -4.9366 C   0  0  1  0  0  0  0  0  0  0  0  0
   -0.5801   -5.4777   -3.4520 C   0  0  2  0  0  0  0  0  0  0  0  0
    0.9290   -5.9498   -3.2771 C   0  0  1  0  0  0  0  0  0  0  0  0
    1.8430   -5.0362   -4.1341 C   0  0  1  0  0  0  0  0  0  0  0  0
    3.2827   -5.5310   -4.0798 C   0  0  0  0  0  0  0  0  0  0  0  0
   -1.6251   -6.8124   -7.2193 H   0  0  0  0  0  0  0  0  0  0  0  0
   -1.2570   -6.9069   -8.9387 H   0  0  0  0  0  0  0  0  0  0  0  0
    0.4167   -5.1859   -8.7877 H   0  0  0  0  0  0  0  0  0  0  0  0
    0.6787   -6.1484   -7.3411 H   0  0  0  0  0  0  0  0  0  0  0  0
    0.4084   -2.3086   -6.8206 H   0  0  0  0  0  0  0  0  0  0  0  0
    1.4970   -3.3221   -7.7862 H   0  0  0  0  0  0  0  0  0  0  0  0
   -0.0632   -3.2781   -9.6723 H   0  0  0  0  0  0  0  0  0  0  0  0
    0.0497   -1.6216   -9.0789 H   0  0  0  0  0  0  0  0  0  0  0  0
   -3.5641   -2.8841   -9.5893 H   0  0  0  0  0  0  0  0  0  0  0  0
   -2.1750   -2.7985  -10.6806 H   0  0  0  0  0  0  0  0  0  0  0  0
   -1.4571   -5.0137  -10.1623 H   0  0  0  0  0  0  0  0  0  0  0  0
   -3.2026   -5.1774  -10.3003 H   0  0  0  0  0  0  0  0  0  0  0  0
   -6.1933   -9.3584   -9.2474 H   0  0  0  0  0  0  0  0  0  0  0  0
   -4.5764   -9.0259   -9.9250 H   0  0  0  0  0  0  0  0  0  0  0  0
    3.3634   -6.4675   -4.6490 H   0  0  0  0  0  0  0  0  0  0  0  0
    3.5071   -5.7274   -3.0237 H   0  0  0  0  0  0  0  0  0  0  0  0
   -3.6626   -6.2792   -6.9888 H   0  0  0  0  0  0  0  0  0  0  0  0
   -5.0358   -4.3578   -8.9343 H   0  0  0  0  0  0  0  0  0  0  0  0
   -5.9751   -5.8735   -6.4529 H   0  0  0  0  0  0  0  0  0  0  0  0
   -6.6741   -6.1035   -9.4252 H   0  0  0  0  0  0  0  0  0  0  0  0
   -5.1377   -8.0333   -7.6120 H   0  0  0  0  0  0  0  0  0  0  0  0
    0.0636   -3.5231   -5.0987 H   0  0  0  0  0  0  0  0  0  0  0  0
   -0.8006   -6.4569   -5.3326 H   0  0  0  0  0  0  0  0  0  0  0  0
   -0.6479   -4.4637   -3.0217 H   0  0  0  0  0  0  0  0  0  0  0  0
    0.9488   -6.9656   -3.7421 H   0  0  0  0  0  0  0  0  0  0  0  0
    1.8182   -4.0130   -3.7350 H   0  0  0  0  0  0  0  0  0  0  0  0
   -2.0621   -1.6941   -8.3971 H   0  0  0  0  0  0  0  0  0  0  0  0
   -5.1507   -3.2510   -6.7471 H   0  0  0  0  0  0  0  0  0  0  0  0
   -2.5746   -4.5506   -4.4452 H   0  0  0  0  0  0  0  0  0  0  0  0
   -6.1649   -8.5850  -11.5082 H   0  0  0  0  0  0  0  0  0  0  0  0
    5.0383   -4.7925   -4.4737 H   0  0  0  0  0  0  0  0  0  0  0  0
   -0.9872   -6.5750   -1.9455 H   0  0  0  0  0  0  0  0  0  0  0  0
   -7.9612   -4.8592   -7.2554 H   0  0  0  0  0  0  0  0  0  0  0  0
   -8.0010   -7.7476   -8.6251 H   0  0  0  0  0  0  0  0  0  0  0  0
  1  2  1  1  0  0  0
  3 61  1  0  0  0  0
  4 66  1  0  0  0  0
  6 26  1  0  0  0  0
  6 22  1  0  0  0  0
  7 27  1  0  0  0  0
  8 29  1  0  0  0  0
  8 62  1  0  0  0  0
  9 65  1  0  0  0  0
 11 32  1  0  0  0  0
 12 64  1  0  0  0  0
 12 33  1  0  0  0  0
 13 21  1  6  0  0  0
 13 16  1  0  0  0  0
 13 22  1  0  0  0  0
 13  1  1  0  0  0  0
 14 17  1  6  0  0  0
 14  1  1  0  0  0  0
 14 28  1  0  0  0  0
 15 60  1  1  0  0  0
 15  1  1  0  0  0  0
 16 17  1  0  0  0  0
 16 34  1  0  0  0  0
 17 37  1  0  0  0  0
 18 14  1  0  0  0  0
 18 38  1  0  0  0  0
 19 15  1  0  0  0  0
 19 18  1  0  0  0  0
 20 21  1  0  0  0  0
 20 42  1  0  0  0  0
 20 15  1  0  0  0  0
 22 23  1  0  0  0  0
 22 50  1  1  0  0  0
 23 51  1  6  0  0  0
 23 24  1  0  0  0  0
 23  3  1  0  0  0  0
 24  4  1  0  0  0  0
 24 52  1  1  0  0  0
 25 53  1  6  0  0  0
 25  5  1  0  0  0  0
 25 24  1  0  0  0  0
 26 25  1  0  0  0  0
 26 54  1  1  0  0  0
 27 46  1  0  0  0  0
 27 26  1  0  0  0  0
 28 11  1  0  0  0  0
 28 55  1  1  0  0  0
 28 29  1  0  0  0  0
 29 56  1  6  0  0  0
 29 30  1  0  0  0  0
 30 31  1  0  0  0  0
 30 57  1  1  0  0  0
 30  9  1  0  0  0  0
 31 58  1  6  0  0  0
 31 10  1  0  0  0  0
 32 33  1  0  0  0  0
 32 59  1  1  0  0  0
 32 31  1  0  0  0  0
 33 49  1  0  0  0  0
 35 16  1  0  0  0  0
 36 17  1  0  0  0  0
 39 18  1  0  0  0  0
 40 19  1  0  0  0  0
 41 19  1  0  0  0  0
 43 20  1  0  0  0  0
 44 21  1  0  0  0  0
 45 21  1  0  0  0  0
 47 27  1  0  0  0  0
 48 33  1  0  0  0  0
 63  7  1  0  0  0  0
 67  5  1  0  0  0  0
M  END
$$$$
