CSD_code = UFENOL | q = 0 | S = 0 | Stoichiometry = C11H8ClHgNO | MND = 2
 OpenBabel04212202103D

 23 24  0  0  0  0  0  0  0  0999 V2000
   -0.5353    6.8813    4.7355 Hg  0  0  0  0  0  0  0  0  0  0  0  0
   -1.5108    5.5962    6.4346 Cl  0  0  0  0  0  0  0  0  0  0  0  0
    0.2540    5.5184    1.7686 O   0  0  0  0  0  0  0  0  0  0  0  0
    0.9597    4.8671    3.8963 N   0  0  0  0  0  0  0  0  0  0  0  0
    0.3985    7.7001    2.9310 C   0  0  0  0  0  0  0  0  0  0  0  0
    0.6727    6.8421    1.8625 C   0  0  0  0  0  0  0  0  0  0  0  0
    1.3233    7.3074    0.7218 C   0  0  0  0  0  0  0  0  0  0  0  0
    1.4999    6.6132   -0.0859 H   0  0  0  0  0  0  0  0  0  0  0  0
    1.7212    8.6261    0.6309 C   0  0  0  0  0  0  0  0  0  0  0  0
    2.2258    8.9766   -0.2567 H   0  0  0  0  0  0  0  0  0  0  0  0
    1.4676    9.4880    1.6825 C   0  0  0  0  0  0  0  0  0  0  0  0
    1.7735   10.5218    1.6259 H   0  0  0  0  0  0  0  0  0  0  0  0
    0.8134    9.0272    2.8137 C   0  0  0  0  0  0  0  0  0  0  0  0
    0.6185    9.7240    3.6189 H   0  0  0  0  0  0  0  0  0  0  0  0
    0.4821    4.5684    2.6920 C   0  0  0  0  0  0  0  0  0  0  0  0
    0.2093    3.2528    2.2938 C   0  0  0  0  0  0  0  0  0  0  0  0
   -0.1872    3.0777    1.3073 H   0  0  0  0  0  0  0  0  0  0  0  0
    0.4575    2.2323    3.1836 C   0  0  0  0  0  0  0  0  0  0  0  0
    0.2520    1.2085    2.9093 H   0  0  0  0  0  0  0  0  0  0  0  0
    0.9839    2.5398    4.4343 C   0  0  0  0  0  0  0  0  0  0  0  0
    1.1989    1.7684    5.1551 H   0  0  0  0  0  0  0  0  0  0  0  0
    1.2110    3.8647    4.7392 C   0  0  0  0  0  0  0  0  0  0  0  0
    1.6171    4.1631    5.6960 H   0  0  0  0  0  0  0  0  0  0  0  0
  1  2  1  0  0  0  0
  3  6  1  0  0  0  0
  3 15  1  0  0  0  0
  4 22  1  0  0  0  0
  5  1  1  0  0  0  0
  6  5  2  0  0  0  0
  7  6  1  0  0  0  0
  8  7  1  0  0  0  0
  9  7  2  0  0  0  0
  9 11  1  0  0  0  0
 10  9  1  0  0  0  0
 11 13  2  0  0  0  0
 12 11  1  0  0  0  0
 13  5  1  0  0  0  0
 13 14  1  0  0  0  0
 15  4  2  0  0  0  0
 16 15  1  0  0  0  0
 16 18  2  0  0  0  0
 17 16  1  0  0  0  0
 18 20  1  0  0  0  0
 19 18  1  0  0  0  0
 20 22  2  0  0  0  0
 20 21  1  0  0  0  0
 22 23  1  0  0  0  0
M  END
$$$$
