CSD_code = UFIBIX | q = 0 | S = 0 | Stoichiometry = C26H23ClNOPPd | MND = 4
 OpenBabel04212202103D

 54 58  0  0  0  0  0  0  0  0999 V2000
    6.1488    3.2340    5.0517 C   0  0  0  0  0  0  0  0  0  0  0  0
    5.1503    2.2733    5.1350 C   0  0  0  0  0  0  0  0  0  0  0  0
    5.0034    1.5669    4.3246 H   0  0  0  0  0  0  0  0  0  0  0  0
    4.3236    2.1851    6.2471 C   0  0  0  0  0  0  0  0  0  0  0  0
    3.5540    1.4269    6.2827 H   0  0  0  0  0  0  0  0  0  0  0  0
    4.4806    3.0606    7.3077 C   0  0  0  0  0  0  0  0  0  0  0  0
    3.8353    2.9902    8.1712 H   0  0  0  0  0  0  0  0  0  0  0  0
    5.4689    4.0258    7.2606 C   0  0  0  0  0  0  0  0  0  0  0  0
    5.5936    4.7072    8.0894 H   0  0  0  0  0  0  0  0  0  0  0  0
    6.2992    4.1175    6.1457 C   0  0  0  0  0  0  0  0  0  0  0  0
    7.3651    5.1095    6.0320 C   0  0  0  0  0  0  0  0  0  0  0  0
    7.6688    6.1068    7.1022 C   0  0  0  0  0  0  0  0  0  0  0  0
    8.4987    6.7379    6.7936 H   0  0  0  0  0  0  0  0  0  0  0  0
    7.9324    5.5948    8.0265 H   0  0  0  0  0  0  0  0  0  0  0  0
    6.7957    6.7296    7.2914 H   0  0  0  0  0  0  0  0  0  0  0  0
    5.0106    2.4126    1.8110 C   0  0  0  0  0  0  0  0  0  0  0  0
    4.0905    1.4438    1.4342 C   0  0  0  0  0  0  0  0  0  0  0  0
    4.3992    0.4149    1.3217 H   0  0  0  0  0  0  0  0  0  0  0  0
    2.7689    1.7989    1.2221 C   0  0  0  0  0  0  0  0  0  0  0  0
    2.0513    1.0444    0.9343 H   0  0  0  0  0  0  0  0  0  0  0  0
    2.3645    3.1142    1.3785 C   0  0  0  0  0  0  0  0  0  0  0  0
    1.3324    3.3836    1.2102 H   0  0  0  0  0  0  0  0  0  0  0  0
    3.2795    4.0844    1.7589 C   0  0  0  0  0  0  0  0  0  0  0  0
    2.9608    5.1080    1.8877 H   0  0  0  0  0  0  0  0  0  0  0  0
    4.5974    3.7339    1.9806 C   0  0  0  0  0  0  0  0  0  0  0  0
    5.3336    4.4826    2.2982 H   0  0  0  0  0  0  0  0  0  0  0  0
    7.0473    0.4133    2.6269 C   0  0  0  0  0  0  0  0  0  0  0  0
    6.8117   -0.6674    1.7829 C   0  0  0  0  0  0  0  0  0  0  0  0
    6.4533   -0.4985    0.7765 H   0  0  0  0  0  0  0  0  0  0  0  0
    7.0644   -1.9528    2.2269 C   0  0  0  0  0  0  0  0  0  0  0  0
    6.8764   -2.7934    1.5750 H   0  0  0  0  0  0  0  0  0  0  0  0
    7.5681   -2.1637    3.5010 C   0  0  0  0  0  0  0  0  0  0  0  0
    7.7647   -3.1696    3.8411 H   0  0  0  0  0  0  0  0  0  0  0  0
    7.8374   -1.0872    4.3312 C   0  0  0  0  0  0  0  0  0  0  0  0
    8.2509   -1.2526    5.3149 H   0  0  0  0  0  0  0  0  0  0  0  0
    7.5811    0.1998    3.8945 C   0  0  0  0  0  0  0  0  0  0  0  0
    7.7987    1.0643    4.5258 H   0  0  0  0  0  0  0  0  0  0  0  0
    7.4974    2.1270    0.4526 C   0  0  0  0  0  0  0  0  0  0  0  0
    6.8191    2.5917   -0.6671 C   0  0  0  0  0  0  0  0  0  0  0  0
    5.8003    2.9433   -0.5762 H   0  0  0  0  0  0  0  0  0  0  0  0
    7.4550    2.6090   -1.8968 C   0  0  0  0  0  0  0  0  0  0  0  0
    6.9267    2.9709   -2.7669 H   0  0  0  0  0  0  0  0  0  0  0  0
    8.7649    2.1758   -2.0113 C   0  0  0  0  0  0  0  0  0  0  0  0
    9.2591    2.2003   -2.9713 H   0  0  0  0  0  0  0  0  0  0  0  0
    9.4480    1.7227   -0.8928 C   0  0  0  0  0  0  0  0  0  0  0  0
   10.4746    1.3986   -0.9792 H   0  0  0  0  0  0  0  0  0  0  0  0
    8.8184    1.6994    0.3356 C   0  0  0  0  0  0  0  0  0  0  0  0
    9.3469    1.3672    1.2215 H   0  0  0  0  0  0  0  0  0  0  0  0
    8.0190    5.0423    4.9285 N   0  0  0  0  0  0  0  0  0  0  0  0
    9.0522    5.9125    4.6843 O   0  0  0  0  0  0  0  0  0  0  0  0
    9.3521    5.6581    3.7600 H   0  0  0  0  0  0  0  0  0  0  0  0
    6.7836    2.1408    2.1258 P   0  0  0  0  0  4  0  0  0  0  0  0
    9.1071    4.4880    2.1236 Cl  0  0  0  0  0  0  0  0  0  0  0  0
    7.4734    3.6614    3.5906 Pd  0  0  1  0  0  0  0  0  0  0  0  0
  1  2  1  0  0  0  0
  1 10  1  0  0  0  0
  2  4  2  0  0  0  0
  3  2  1  0  0  0  0
  4  5  1  0  0  0  0
  4  6  1  0  0  0  0
  6  7  1  0  0  0  0
  8  6  2  0  0  0  0
  8  9  1  0  0  0  0
 10  8  1  0  0  0  0
 11 10  2  0  0  0  0
 11 12  1  0  0  0  0
 12 15  1  0  0  0  0
 12 14  1  0  0  0  0
 13 12  1  0  0  0  0
 16 25  1  0  0  0  0
 16 52  1  0  0  0  0
 17 16  2  0  0  0  0
 18 17  1  0  0  0  0
 19 21  2  0  0  0  0
 19 17  1  0  0  0  0
 20 19  1  0  0  0  0
 21 23  1  0  0  0  0
 22 21  1  0  0  0  0
 23 24  1  0  0  0  0
 23 25  2  0  0  0  0
 25 26  1  0  0  0  0
 27 36  1  0  0  0  0
 28 30  1  0  0  0  0
 28 27  2  0  0  0  0
 29 28  1  0  0  0  0
 30 32  2  0  0  0  0
 31 30  1  0  0  0  0
 32 33  1  0  0  0  0
 32 34  1  0  0  0  0
 34 35  1  0  0  0  0
 36 34  2  0  0  0  0
 36 37  1  0  0  0  0
 38 52  1  0  0  0  0
 39 40  1  0  0  0  0
 39 38  2  0  0  0  0
 41 39  1  0  0  0  0
 42 41  1  0  0  0  0
 43 41  2  0  0  0  0
 43 45  1  0  0  0  0
 44 43  1  0  0  0  0
 45 47  2  0  0  0  0
 46 45  1  0  0  0  0
 47 38  1  0  0  0  0
 47 48  1  0  0  0  0
 49 11  1  0  0  0  0
 50 49  1  0  0  0  0
 51 50  1  0  0  0  0
 52 27  1  0  0  0  0
 52 54  1  0  0  0  0
 54 53  1  6  0  0  0
 54 49  1  0  0  0  0
 54  1  2  0  0  0  0
M  END
$$$$
