CSD_code = UFICEU | q = 0 | S = 0 | Stoichiometry = C29H29ClNO4PPd | MND = 4
 OpenBabel04212202103D

 66 70  0  0  0  0  0  0  0  0999 V2000
    7.9353    0.6989   15.9584 C   0  0  0  0  0  0  0  0  0  0  0  0
    8.8906    1.5685   15.4506 C   0  0  0  0  0  0  0  0  0  0  0  0
    8.5937    2.3864   14.8028 H   0  0  0  0  0  0  0  0  0  0  0  0
   10.2382    1.4145   15.7483 C   0  0  0  0  0  0  0  0  0  0  0  0
   10.9591    2.1075   15.3381 H   0  0  0  0  0  0  0  0  0  0  0  0
   10.6622    0.3786   16.5627 C   0  0  0  0  0  0  0  0  0  0  0  0
   11.7114    0.2601   16.7913 H   0  0  0  0  0  0  0  0  0  0  0  0
    9.7381   -0.5088   17.0815 C   0  0  0  0  0  0  0  0  0  0  0  0
   10.0690   -1.3188   17.7149 H   0  0  0  0  0  0  0  0  0  0  0  0
    8.3851   -0.3554   16.7873 C   0  0  0  0  0  0  0  0  0  0  0  0
    7.3568   -1.2567   17.3005 C   0  0  0  0  0  0  0  0  0  0  0  0
    7.6615   -2.4284   18.1765 C   0  0  0  0  0  0  0  0  0  0  0  0
    8.1721   -2.0982   19.0802 H   0  0  0  0  0  0  0  0  0  0  0  0
    8.3101   -3.1284   17.6513 H   0  0  0  0  0  0  0  0  0  0  0  0
    6.7380   -2.9333   18.4506 H   0  0  0  0  0  0  0  0  0  0  0  0
    6.4566    2.3288   12.8396 C   0  0  0  0  0  0  0  0  0  0  0  0
    6.3021    3.2901   11.8492 C   0  0  0  0  0  0  0  0  0  0  0  0
    5.7264    4.1830   12.0505 H   0  0  0  0  0  0  0  0  0  0  0  0
    6.8563    3.1065   10.5951 C   0  0  0  0  0  0  0  0  0  0  0  0
    6.7240    3.8722    9.8466 H   0  0  0  0  0  0  0  0  0  0  0  0
    7.5621    1.9399   10.3093 C   0  0  0  0  0  0  0  0  0  0  0  0
    7.6845    0.9547   11.2945 C   0  0  0  0  0  0  0  0  0  0  0  0
    8.2130    0.0479   11.0463 H   0  0  0  0  0  0  0  0  0  0  0  0
    7.1353    1.1472   12.5412 C   0  0  0  0  0  0  0  0  0  0  0  0
    7.2136    0.3771   13.3110 H   0  0  0  0  0  0  0  0  0  0  0  0
    8.0555    2.5986    8.0750 C   0  0  0  0  0  0  0  0  0  0  0  0
    7.0156    2.7728    7.7811 H   0  0  0  0  0  0  0  0  0  0  0  0
    8.5966    2.1616    7.2375 H   0  0  0  0  0  0  0  0  0  0  0  0
    8.5219    3.5501    8.3492 H   0  0  0  0  0  0  0  0  0  0  0  0
    6.4789    3.8784   15.3692 C   0  0  0  0  0  0  0  0  0  0  0  0
    7.0239    5.0159   14.7828 C   0  0  0  0  0  0  0  0  0  0  0  0
    7.0481    5.1143   13.7081 H   0  0  0  0  0  0  0  0  0  0  0  0
    7.5517    6.0137   15.5730 C   0  0  0  0  0  0  0  0  0  0  0  0
    7.9834    6.9008   15.1365 H   0  0  0  0  0  0  0  0  0  0  0  0
    7.5427    5.9019   16.9662 C   0  0  0  0  0  0  0  0  0  0  0  0
    7.0036    4.7601   17.5559 C   0  0  0  0  0  0  0  0  0  0  0  0
    6.9909    4.6405   18.6275 H   0  0  0  0  0  0  0  0  0  0  0  0
    6.4841    3.7604   16.7562 C   0  0  0  0  0  0  0  0  0  0  0  0
    6.0711    2.8519   17.2108 H   0  0  0  0  0  0  0  0  0  0  0  0
    8.1072    6.9008   19.0513 C   0  0  0  0  0  0  0  0  0  0  0  0
    7.0973    6.8431   19.4691 H   0  0  0  0  0  0  0  0  0  0  0  0
    8.5742    7.8322   19.3668 H   0  0  0  0  0  0  0  0  0  0  0  0
    8.7013    6.0567   19.4146 H   0  0  0  0  0  0  0  0  0  0  0  0
    4.0637    3.0886   14.0922 C   0  0  0  0  0  0  0  0  0  0  0  0
    3.5064    4.2294   14.6626 C   0  0  0  0  0  0  0  0  0  0  0  0
    4.0911    4.8359   15.3399 H   0  0  0  0  0  0  0  0  0  0  0  0
    2.2076    4.5836   14.3695 C   0  0  0  0  0  0  0  0  0  0  0  0
    1.7592    5.4639   14.8028 H   0  0  0  0  0  0  0  0  0  0  0  0
    1.4298    3.7977   13.5162 C   0  0  0  0  0  0  0  0  0  0  0  0
    1.9841    2.6518   12.9496 C   0  0  0  0  0  0  0  0  0  0  0  0
    1.4067    2.0184   12.2949 H   0  0  0  0  0  0  0  0  0  0  0  0
    3.2882    2.3063   13.2422 C   0  0  0  0  0  0  0  0  0  0  0  0
    3.7148    1.4042   12.8202 H   0  0  0  0  0  0  0  0  0  0  0  0
   -0.7009    3.4483   12.5164 C   0  0  0  0  0  0  0  0  0  0  0  0
   -0.3416    3.3675   11.4852 H   0  0  0  0  0  0  0  0  0  0  0  0
   -1.6593    3.9652   12.5232 H   0  0  0  0  0  0  0  0  0  0  0  0
   -0.8272    2.4463   12.9379 H   0  0  0  0  0  0  0  0  0  0  0  0
    6.1670   -0.9506   16.9264 N   0  0  0  0  0  0  0  0  0  0  0  0
    5.0993   -1.7133   17.3300 O   0  0  0  0  0  0  0  0  0  0  0  0
    4.3133   -1.2389   16.9198 H   0  0  0  0  0  0  0  0  0  0  0  0
    8.1472    1.6579    9.1184 O   0  0  0  0  0  0  0  0  0  0  0  0
    8.0821    6.9464   17.6438 O   0  0  0  0  0  0  0  0  0  0  0  0
    0.1609    4.2340   13.3048 O   0  0  0  0  0  0  0  0  0  0  0  0
    5.7254    2.4750   14.4943 P   0  0  0  0  0  4  0  0  0  0  0  0
    3.6085    0.3004   15.8179 Cl  0  0  0  0  0  0  0  0  0  0  0  0
    5.9277    0.6560   15.7586 Pd  0  0  2  0  0  0  0  0  0  0  0  0
  1 10  1  0  0  0  0
  2  4  2  0  0  0  0
  2  1  1  0  0  0  0
  3  2  1  0  0  0  0
  4  6  1  0  0  0  0
  5  4  1  0  0  0  0
  6  7  1  0  0  0  0
  6  8  2  0  0  0  0
  8  9  1  0  0  0  0
 10  8  1  0  0  0  0
 10 11  2  0  0  0  0
 11 12  1  0  0  0  0
 12 15  1  0  0  0  0
 12 13  1  0  0  0  0
 14 12  1  0  0  0  0
 16 64  1  0  0  0  0
 17 18  1  0  0  0  0
 17 16  2  0  0  0  0
 19 17  1  0  0  0  0
 20 19  1  0  0  0  0
 21 19  2  0  0  0  0
 21 22  1  0  0  0  0
 22 24  2  0  0  0  0
 23 22  1  0  0  0  0
 24 16  1  0  0  0  0
 24 25  1  0  0  0  0
 26 29  1  0  0  0  0
 26 61  1  0  0  0  0
 27 26  1  0  0  0  0
 28 26  1  0  0  0  0
 30 38  1  0  0  0  0
 31 30  2  0  0  0  0
 31 33  1  0  0  0  0
 32 31  1  0  0  0  0
 33 35  2  0  0  0  0
 34 33  1  0  0  0  0
 35 36  1  0  0  0  0
 35 62  1  0  0  0  0
 36 37  1  0  0  0  0
 38 39  1  0  0  0  0
 38 36  2  0  0  0  0
 40 42  1  0  0  0  0
 40 43  1  0  0  0  0
 40 41  1  0  0  0  0
 44 64  1  0  0  0  0
 44 45  1  0  0  0  0
 45 46  1  0  0  0  0
 47 45  2  0  0  0  0
 47 48  1  0  0  0  0
 49 47  1  0  0  0  0
 50 52  1  0  0  0  0
 50 49  2  0  0  0  0
 51 50  1  0  0  0  0
 52 44  2  0  0  0  0
 53 52  1  0  0  0  0
 54 56  1  0  0  0  0
 54 57  1  0  0  0  0
 54 63  1  0  0  0  0
 55 54  1  0  0  0  0
 58 11  1  0  0  0  0
 58 59  1  0  0  0  0
 60 59  1  0  0  0  0
 61 21  1  0  0  0  0
 62 40  1  0  0  0  0
 63 49  1  0  0  0  0
 64 30  1  0  0  0  0
 64 66  1  0  0  0  0
 66 65  1  1  0  0  0
 66  1  2  0  0  0  0
 66 58  1  0  0  0  0
M  END
$$$$
