CSD_code = UFIYUG | q = -1 | S = 0 | Stoichiometry = C22H21ClO4PPd(1-) | MND = 4
 OpenBabel04212202103D

 50 53  0  0  0  0  0  0  0  0999 V2000
    1.1760    3.9709    6.2040 Pd  0  0  2  0  0  0  0  0  0  0  0  0
   -0.3197    5.1448    4.9843 Cl  0  0  0  0  0  0  0  0  0  0  0  0
    2.3891    2.9948    7.8167 P   0  0  0  0  0  4  0  0  0  0  0  0
    1.1121    6.3321    9.9624 O   0  0  0  0  0  0  0  0  0  0  0  0
    1.8991    5.1363    8.2446 O   0  0  0  0  0  0  0  0  0  0  0  0
    4.6018    2.3815    9.7720 O   0  0  0  0  0  0  0  0  0  0  0  0
    0.3338    1.4256    7.2979 O   0  0  0  0  0  0  0  0  0  0  0  0
    1.8367    2.8325    9.5489 C   0  0  0  0  0  0  0  0  0  0  0  0
    1.4405    3.9888   10.2144 C   0  0  0  0  0  0  0  0  0  0  0  0
    1.0113    3.9401   11.5319 C   0  0  0  0  0  0  0  0  0  0  0  0
    0.7119    4.8631   12.0080 H   0  0  0  0  0  0  0  0  0  0  0  0
    0.9721    2.7304   12.1984 C   0  0  0  0  0  0  0  0  0  0  0  0
    0.6419    2.6829   13.2281 H   0  0  0  0  0  0  0  0  0  0  0  0
    1.3554    1.5716   11.5380 C   0  0  0  0  0  0  0  0  0  0  0  0
    1.3211    0.6212   12.0560 H   0  0  0  0  0  0  0  0  0  0  0  0
    1.7829    1.6177   10.2238 C   0  0  0  0  0  0  0  0  0  0  0  0
    2.0873    0.7087    9.7249 H   0  0  0  0  0  0  0  0  0  0  0  0
    1.4655    5.2887    9.4319 C   0  0  0  0  0  0  0  0  0  0  0  0
    4.0982    3.6172    7.8549 C   0  0  0  0  0  0  0  0  0  0  0  0
    4.4439    4.5102    6.8530 C   0  0  0  0  0  0  0  0  0  0  0  0
    3.6746    4.7802    6.1228 H   0  0  0  0  0  0  0  0  0  0  0  0
    5.7131    5.0621    6.8094 C   0  0  0  0  0  0  0  0  0  0  0  0
    5.9796    5.7613    6.0306 H   0  0  0  0  0  0  0  0  0  0  0  0
    6.6356    4.7205    7.7817 C   0  0  0  0  0  0  0  0  0  0  0  0
    7.6284    5.1494    7.7643 H   0  0  0  0  0  0  0  0  0  0  0  0
    6.3036    3.8338    8.7950 C   0  0  0  0  0  0  0  0  0  0  0  0
    7.0410    3.5891    9.5460 H   0  0  0  0  0  0  0  0  0  0  0  0
    5.0322    3.2760    8.8372 C   0  0  0  0  0  0  0  0  0  0  0  0
    5.4110    2.1149   10.8828 C   0  0  0  0  0  0  0  0  0  0  0  0
    6.3346    1.5951   10.5986 H   0  0  0  0  0  0  0  0  0  0  0  0
    5.6651    3.0312   11.4273 H   0  0  0  0  0  0  0  0  0  0  0  0
    4.8189    1.4674   11.5291 H   0  0  0  0  0  0  0  0  0  0  0  0
    2.6315    1.1993    7.4376 C   0  0  0  0  0  0  0  0  0  0  0  0
    1.4017    0.6082    7.0910 C   0  0  0  0  0  0  0  0  0  0  0  0
   -0.8610    1.2055    6.5745 C   0  0  0  0  0  0  0  0  0  0  0  0
   -0.6482    0.8770    5.5533 H   0  0  0  0  0  0  0  0  0  0  0  0
   -1.4952    0.4663    7.0797 H   0  0  0  0  0  0  0  0  0  0  0  0
   -1.3687    2.1754    6.5397 H   0  0  0  0  0  0  0  0  0  0  0  0
    1.3450   -0.6825    6.5919 C   0  0  0  0  0  0  0  0  0  0  0  0
    0.4017   -1.1366    6.3247 H   0  0  0  0  0  0  0  0  0  0  0  0
    2.5256   -1.3959    6.4343 C   0  0  0  0  0  0  0  0  0  0  0  0
    2.4871   -2.4064    6.0507 H   0  0  0  0  0  0  0  0  0  0  0  0
    3.7423   -0.8216    6.7513 C   0  0  0  0  0  0  0  0  0  0  0  0
    4.6562   -1.3823    6.6094 H   0  0  0  0  0  0  0  0  0  0  0  0
    3.7936    0.4770    7.2393 C   0  0  0  0  0  0  0  0  0  0  0  0
    4.7472    0.9330    7.4624 H   0  0  0  0  0  0  0  0  0  0  0  0
    1.6596    2.8722    4.5710 C   0  0  0  0  0  0  0  0  0  0  0  0
    2.2724    1.9970    4.8135 H   0  0  0  0  0  0  0  0  0  0  0  0
    0.7571    2.5547    4.0406 H   0  0  0  0  0  0  0  0  0  0  0  0
    2.2295    3.5434    3.9123 H   0  0  0  0  0  0  0  0  0  0  0  0
  1  2  1  1  0  0  0
  1  3  1  0  0  0  0
  1  5  1  0  0  0  0
  3 19  1  0  0  0  0
  3  8  1  0  0  0  0
  5 18  1  0  0  0  0
  6 29  1  0  0  0  0
  8  9  2  0  0  0  0
  8 16  1  0  0  0  0
  9 10  1  0  0  0  0
 10 11  1  0  0  0  0
 10 12  2  0  0  0  0
 12 13  1  0  0  0  0
 14 15  1  0  0  0  0
 14 12  1  0  0  0  0
 16 14  2  0  0  0  0
 17 16  1  0  0  0  0
 18  4  2  0  0  0  0
 18  9  1  0  0  0  0
 19 28  1  0  0  0  0
 20 19  2  0  0  0  0
 21 20  1  0  0  0  0
 22 20  1  0  0  0  0
 22 24  2  0  0  0  0
 23 22  1  0  0  0  0
 24 26  1  0  0  0  0
 25 24  1  0  0  0  0
 26 28  2  0  0  0  0
 26 27  1  0  0  0  0
 28  6  1  0  0  0  0
 29 31  1  0  0  0  0
 29 32  1  0  0  0  0
 30 29  1  0  0  0  0
 33  3  1  0  0  0  0
 34  7  1  0  0  0  0
 34 33  2  0  0  0  0
 35 37  1  0  0  0  0
 35  7  1  0  0  0  0
 36 35  1  0  0  0  0
 38 35  1  0  0  0  0
 39 34  1  0  0  0  0
 40 39  1  0  0  0  0
 41 39  2  0  0  0  0
 41 43  1  0  0  0  0
 42 41  1  0  0  0  0
 43 45  2  0  0  0  0
 44 43  1  0  0  0  0
 45 33  1  0  0  0  0
 45 46  1  0  0  0  0
 47 48  1  0  0  0  0
 47  1  1  0  0  0  0
 49 47  1  0  0  0  0
 50 47  1  0  0  0  0
M  END
$$$$
