CSD_code = UFIYAM | q = 0 | S = 0 | Stoichiometry = C23H24ClO4PPd | MND = 4
 OpenBabel04212202103D

 54 57  0  0  1  0  0  0  0  0999 V2000
    4.4572    3.2639    9.6246 Pd  0  0  2  0  0  0  0  0  0  0  0  0
    5.7625    4.8242    8.7030 Cl  0  0  0  0  0  0  0  0  0  0  0  0
    3.0498    1.6467   10.2727 P   0  0  0  0  0  4  0  0  0  0  0  0
    2.6022    4.0362    8.5418 O   0  0  0  0  0  0  0  0  0  0  0  0
    0.6913    0.2590   11.4921 O   0  0  0  0  0  0  0  0  0  0  0  0
    0.4250    4.4592    8.7965 O   0  0  0  0  0  0  0  0  0  0  0  0
    4.8080    0.5848    8.6735 O   0  0  0  0  0  0  0  0  0  0  0  0
    1.9775    2.1938   11.6351 C   0  0  0  0  0  0  0  0  0  0  0  0
    0.8645    1.4693   12.0819 C   0  0  0  0  0  0  0  0  0  0  0  0
   -0.4400   -0.5079   11.8226 C   0  0  0  0  0  0  0  0  0  0  0  0
   -0.4358   -0.7971   12.8785 H   0  0  0  0  0  0  0  0  0  0  0  0
   -1.3670    0.0272   11.5942 H   0  0  0  0  0  0  0  0  0  0  0  0
   -0.3794   -1.4020   11.2043 H   0  0  0  0  0  0  0  0  0  0  0  0
    0.0464    2.0155   13.0626 C   0  0  0  0  0  0  0  0  0  0  0  0
   -0.8177    1.4789   13.4227 H   0  0  0  0  0  0  0  0  0  0  0  0
    0.3358    3.2664   13.5856 C   0  0  0  0  0  0  0  0  0  0  0  0
   -0.3107    3.6782   14.3464 H   0  0  0  0  0  0  0  0  0  0  0  0
    1.4310    3.9882   13.1440 C   0  0  0  0  0  0  0  0  0  0  0  0
    1.6428    4.9623   13.5569 H   0  0  0  0  0  0  0  0  0  0  0  0
    2.2469    3.4498   12.1639 C   0  0  0  0  0  0  0  0  0  0  0  0
    3.1157    3.9991   11.7833 H   0  0  0  0  0  0  0  0  0  0  0  0
    1.7914    1.1992    9.0198 C   0  0  0  0  0  0  0  0  0  0  0  0
    1.0587    2.2216    8.4030 C   0  0  0  0  0  0  0  0  0  0  0  0
    1.4567    3.6357    8.5952 C   0  0  1  0  0  3  0  0  0  0  0  0
    0.7687    5.8260    8.9989 C   0  0  0  0  0  0  0  0  0  0  0  0
    1.5287    5.9110    9.7801 H   0  0  0  0  0  0  0  0  0  0  0  0
    1.1649    6.2583    8.0781 H   0  0  0  0  0  0  0  0  0  0  0  0
   -0.1476    6.3289    9.2958 H   0  0  0  0  0  0  0  0  0  0  0  0
    0.0112    1.9139    7.5413 C   0  0  0  0  0  0  0  0  0  0  0  0
   -0.5506    2.7156    7.0862 H   0  0  0  0  0  0  0  0  0  0  0  0
   -0.2864    0.5938    7.2576 C   0  0  0  0  0  0  0  0  0  0  0  0
   -1.0958    0.3570    6.5834 H   0  0  0  0  0  0  0  0  0  0  0  0
    0.4634   -0.4211    7.8317 C   0  0  0  0  0  0  0  0  0  0  0  0
    0.2417   -1.4524    7.5983 H   0  0  0  0  0  0  0  0  0  0  0  0
    1.4854   -0.1213    8.7143 C   0  0  0  0  0  0  0  0  0  0  0  0
    2.0490   -0.9143    9.1835 H   0  0  0  0  0  0  0  0  0  0  0  0
    3.8058    0.0575   10.6844 C   0  0  0  0  0  0  0  0  0  0  0  0
    4.7864   -0.2690    9.7285 C   0  0  0  0  0  0  0  0  0  0  0  0
    5.9891    0.7122    7.8966 C   0  0  0  0  0  0  0  0  0  0  0  0
    6.8801    0.6561    8.5273 H   0  0  0  0  0  0  0  0  0  0  0  0
    6.0303   -0.0591    7.1207 H   0  0  0  0  0  0  0  0  0  0  0  0
    5.9332    1.7059    7.4377 H   0  0  0  0  0  0  0  0  0  0  0  0
    5.6097   -1.3668    9.9196 C   0  0  0  0  0  0  0  0  0  0  0  0
    6.3693   -1.6241    9.1975 H   0  0  0  0  0  0  0  0  0  0  0  0
    5.4454   -2.1371   11.0619 C   0  0  0  0  0  0  0  0  0  0  0  0
    6.0807   -2.9972   11.2125 H   0  0  0  0  0  0  0  0  0  0  0  0
    4.4915   -1.8126   12.0112 C   0  0  0  0  0  0  0  0  0  0  0  0
    4.3903   -2.4161   12.9005 H   0  0  0  0  0  0  0  0  0  0  0  0
    3.6778   -0.7043   11.8320 C   0  0  0  0  0  0  0  0  0  0  0  0
    2.9540   -0.4272   12.5828 H   0  0  0  0  0  0  0  0  0  0  0  0
    5.9350    2.8637   10.9652 C   0  0  0  0  0  0  0  0  0  0  0  0
    6.8683    2.6926   10.4217 H   0  0  0  0  0  0  0  0  0  0  0  0
    6.0547    3.7569   11.5901 H   0  0  0  0  0  0  0  0  0  0  0  0
    5.7156    1.9990   11.6003 H   0  0  0  0  0  0  0  0  0  0  0  0
  1  2  1  6  0  0  0
  1  3  1  0  0  0  0
  1 51  1  0  0  0  0
  3 37  1  0  0  0  0
  3  8  1  0  0  0  0
  4 24  1  0  0  0  0
  4  1  1  0  0  0  0
  5 10  1  0  0  0  0
  5  9  1  0  0  0  0
  6 25  1  0  0  0  0
  7 38  1  0  0  0  0
  8  9  2  0  0  0  0
  8 20  1  0  0  0  0
  9 14  1  0  0  0  0
 10 11  1  0  0  0  0
 12 10  1  0  0  0  0
 13 10  1  0  0  0  0
 14 15  1  0  0  0  0
 14 16  2  0  0  0  0
 16 17  1  0  0  0  0
 18 19  1  0  0  0  0
 18 16  1  0  0  0  0
 20 18  2  0  0  0  0
 21 20  1  0  0  0  0
 22  3  1  0  0  0  0
 23 24  1  0  0  0  0
 23 22  2  0  0  0  0
 24  6  1  6  0  0  0
 25 28  1  0  0  0  0
 25 26  1  0  0  0  0
 27 25  1  0  0  0  0
 29 23  1  0  0  0  0
 30 29  1  0  0  0  0
 31 29  2  0  0  0  0
 31 33  1  0  0  0  0
 32 31  1  0  0  0  0
 33 35  2  0  0  0  0
 34 33  1  0  0  0  0
 35 22  1  0  0  0  0
 35 36  1  0  0  0  0
 37 49  1  0  0  0  0
 38 43  1  0  0  0  0
 38 37  2  0  0  0  0
 39 40  1  0  0  0  0
 39  7  1  0  0  0  0
 41 39  1  0  0  0  0
 42 39  1  0  0  0  0
 43 45  2  0  0  0  0
 44 43  1  0  0  0  0
 45 46  1  0  0  0  0
 45 47  1  0  0  0  0
 47 48  1  0  0  0  0
 49 47  2  0  0  0  0
 49 50  1  0  0  0  0
 51 53  1  0  0  0  0
 51 54  1  0  0  0  0
 52 51  1  0  0  0  0
M  END
$$$$
