CSD_code = UFIZAM | q = 0 | S = 0 | Stoichiometry = C15H10ClN2O4Re | MND = 6
 OpenBabel04212202103D

 33 35  0  0  0  0  0  0  0  0999 V2000
    7.1640    3.0155    6.6286 C   0  0  0  0  0  2  0  0  0  0  0  0
    5.6447    3.1274    8.9811 C   0  0  0  0  0  2  0  0  0  0  0  0
    4.9108    1.2782    6.9405 C   0  0  0  0  0  2  0  0  0  0  0  0
    5.5445    0.2124   10.5184 C   0  0  0  0  0  3  0  0  0  0  0  0
    4.8518    1.0387   10.6116 H   0  0  0  0  0  0  0  0  0  0  0  0
    5.6507   -0.7329   11.5241 C   0  0  0  0  0  0  0  0  0  0  0  0
    5.0445   -0.6431   12.4109 H   0  0  0  0  0  0  0  0  0  0  0  0
    6.5496   -1.7814   11.3733 C   0  0  0  0  0  0  0  0  0  0  0  0
    6.6609   -2.5294   12.1431 H   0  0  0  0  0  0  0  0  0  0  0  0
    7.2995   -1.8427   10.2164 C   0  0  0  0  0  0  0  0  0  0  0  0
    8.0136   -2.6344   10.0500 H   0  0  0  0  0  0  0  0  0  0  0  0
    7.1404   -0.8470    9.2510 C   0  0  0  0  0  0  0  0  0  0  0  0
    7.8967   -0.8311    8.0241 C   0  0  0  0  0  3  0  0  0  0  0  0
    8.6042   -1.6339    7.8292 H   0  0  0  0  0  0  0  0  0  0  0  0
    8.4602    0.1908    6.0177 C   0  0  0  0  0  0  0  0  0  0  0  0
    9.8354   -0.0437    6.0422 C   0  0  0  0  0  0  0  0  0  0  0  0
   10.3304   -0.2579    6.9773 H   0  0  0  0  0  0  0  0  0  0  0  0
   10.5674    0.0819    4.8773 C   0  0  0  0  0  0  0  0  0  0  0  0
   11.6349   -0.0766    4.8978 H   0  0  0  0  0  0  0  0  0  0  0  0
    9.9476    0.4113    3.6860 C   0  0  0  0  0  0  0  0  0  0  0  0
   10.5286    0.5053    2.7787 H   0  0  0  0  0  0  0  0  0  0  0  0
    8.5739    0.6407    3.6559 C   0  0  0  0  0  0  0  0  0  0  0  0
    7.8329    0.5405    4.8259 C   0  0  0  0  0  0  0  0  0  0  0  0
    6.7699    0.7289    4.7986 H   0  0  0  0  0  0  0  0  0  0  0  0
    8.4794    2.1076    9.2321 Cl  0  0  0  0  0  0  0  0  0  0  0  0
    6.2685    0.1711    9.4064 N   0  0  0  0  0  0  0  0  0  0  0  0
    7.6952    0.1256    7.1873 N   0  0  0  0  0  0  0  0  0  0  0  0
    7.6678    3.7348    5.8988 O   0  0  0  0  0  1  0  0  0  0  0  0
    5.2215    3.9274    9.6792 O   0  0  0  0  0  1  0  0  0  0  0  0
    3.9683    0.9815    6.3540 O   0  0  0  0  0  1  0  0  0  0  0  0
    7.9187    0.9624    2.5162 O   0  0  0  0  0  0  0  0  0  0  0  0
    8.5411    1.0419    1.7828 H   0  0  0  0  0  0  0  0  0  0  0  0
    6.5151    1.7236    7.9416 Re  0  0  0  0  0  0  0  0  0  0  0  0
  1 33  1  0  0  0  0
  2 29  1  0  0  0  0
  3 33  1  0  0  0  0
  4  5  1  0  0  0  0
  4  6  1  0  0  0  0
  6  7  1  0  0  0  0
  8  6  2  0  0  0  0
  8  9  1  0  0  0  0
 10  8  1  0  0  0  0
 11 10  1  0  0  0  0
 12 26  1  0  0  0  0
 12 10  2  0  0  0  0
 13 12  1  0  0  0  0
 14 13  1  0  0  0  0
 15 16  1  0  0  0  0
 15 27  1  0  0  0  0
 16 17  1  0  0  0  0
 18 19  1  0  0  0  0
 18 16  2  0  0  0  0
 20 18  1  0  0  0  0
 21 20  1  0  0  0  0
 22 20  2  0  0  0  0
 22 23  1  0  0  0  0
 23 15  2  0  0  0  0
 24 23  1  0  0  0  0
 26  4  1  0  0  0  0
 27 33  1  0  0  0  0
 27 13  1  0  0  0  0
 28  1  1  0  0  0  0
 30  3  1  0  0  0  0
 31 22  1  0  0  0  0
 32 31  1  0  0  0  0
 33  2  1  0  0  0  0
 33 25  1  0  0  0  0
 33 26  1  0  0  0  0
M  END
$$$$
