CSD_code = UFOHUV | q = 0 | S = 0 | Stoichiometry = C27H26Cl4P2Ti | MND = 6
 OpenBabel04212202103D

 60 64  0  0  0  0  0  0  0  0999 V2000
    4.8839   11.9446    2.0471 Ti  0  0  0  0  0  0  0  0  0  0  0  0
    4.5440   11.8401    4.6034 P   0  0  0  0  0  4  0  0  0  0  0  0
    7.1098   10.8516    2.7608 P   0  0  0  0  0  4  0  0  0  0  0  0
    4.4519    9.7467    1.8895 Cl  0  0  0  0  0  0  0  0  0  0  0  0
    5.6337   13.9418    2.7476 Cl  0  0  0  0  0  0  0  0  0  0  0  0
    2.8132   12.5532    1.8202 Cl  0  0  0  0  0  0  0  0  0  0  0  0
    5.6600   12.1614    0.0321 Cl  0  0  0  0  0  0  0  0  0  0  0  0
    6.9151   10.6543    5.5704 C   0  0  0  0  0  0  0  0  0  0  0  0
    7.9590   10.8585    5.8249 H   0  0  0  0  0  0  0  0  0  0  0  0
    6.4849   10.0590    6.3809 H   0  0  0  0  0  0  0  0  0  0  0  0
    6.1752   11.9900    5.4693 C   0  0  0  0  0  0  0  0  0  0  0  0
    6.7703   12.7011    4.8835 H   0  0  0  0  0  0  0  0  0  0  0  0
    6.0179   12.4042    6.4700 H   0  0  0  0  0  0  0  0  0  0  0  0
    3.6272   13.3124    5.1582 C   0  0  0  0  0  0  0  0  0  0  0  0
    1.4652   14.3332    5.4261 C   0  0  0  0  0  0  0  0  0  0  0  0
    0.3895   14.2792    5.3486 H   0  0  0  0  0  0  0  0  0  0  0  0
    7.2939    8.2824    1.5626 C   0  0  0  0  0  0  0  0  0  0  0  0
    6.7134    7.8926    2.3855 H   0  0  0  0  0  0  0  0  0  0  0  0
    8.7581   11.5805    3.0983 C   0  0  0  0  0  0  0  0  0  0  0  0
    3.6967   10.5969    5.6517 C   0  0  0  0  0  0  0  0  0  0  0  0
    2.2378   13.2466    5.0647 C   0  0  0  0  0  0  0  0  0  0  0  0
    1.7740   12.3394    4.6963 H   0  0  0  0  0  0  0  0  0  0  0  0
    6.8547    9.8277    4.2841 C   0  0  0  0  0  0  0  0  0  0  0  0
    5.8637    9.3684    4.1837 H   0  0  0  0  0  0  0  0  0  0  0  0
    7.6084    9.0348    4.3172 H   0  0  0  0  0  0  0  0  0  0  0  0
    7.6180    9.6330    1.5064 C   0  0  0  0  0  0  0  0  0  0  0  0
    8.3179   10.1316    0.4088 C   0  0  0  0  0  0  0  0  0  0  0  0
    8.5431   11.1904    0.3607 H   0  0  0  0  0  0  0  0  0  0  0  0
    2.3560    8.7455    7.2260 C   0  0  0  0  0  0  0  0  0  0  0  0
    1.8355    8.0261    7.8406 H   0  0  0  0  0  0  0  0  0  0  0  0
    4.2348   14.4833    5.5965 C   0  0  0  0  0  0  0  0  0  0  0  0
    5.3112   14.5615    5.6301 H   0  0  0  0  0  0  0  0  0  0  0  0
    3.6168   10.7772    7.0304 C   0  0  0  0  0  0  0  0  0  0  0  0
    4.0620   11.6500    7.4875 H   0  0  0  0  0  0  0  0  0  0  0  0
    2.4190    8.5711    5.8543 C   0  0  0  0  0  0  0  0  0  0  0  0
    1.9450    7.7169    5.3945 H   0  0  0  0  0  0  0  0  0  0  0  0
    2.9530    9.8511    7.8122 C   0  0  0  0  0  0  0  0  0  0  0  0
    2.8944    9.9933    8.8813 H   0  0  0  0  0  0  0  0  0  0  0  0
   11.2680   12.6738    3.5547 C   0  0  0  0  0  0  0  0  0  0  0  0
   12.2453   13.0973    3.7331 H   0  0  0  0  0  0  0  0  0  0  0  0
    3.0865    9.4940    5.0659 C   0  0  0  0  0  0  0  0  0  0  0  0
    3.1348    9.3651    3.9922 H   0  0  0  0  0  0  0  0  0  0  0  0
    2.0730   15.4941    5.8782 C   0  0  0  0  0  0  0  0  0  0  0  0
    1.4705   16.3455    6.1580 H   0  0  0  0  0  0  0  0  0  0  0  0
    7.6890    7.4393    0.5383 C   0  0  0  0  0  0  0  0  0  0  0  0
    7.4341    6.3906    0.5828 H   0  0  0  0  0  0  0  0  0  0  0  0
    8.9514   12.9526    2.9912 C   0  0  0  0  0  0  0  0  0  0  0  0
    8.1189   13.5904    2.7233 H   0  0  0  0  0  0  0  0  0  0  0  0
    8.7062    9.2842   -0.6106 C   0  0  0  0  0  0  0  0  0  0  0  0
    9.2445    9.6752   -1.4612 H   0  0  0  0  0  0  0  0  0  0  0  0
    3.4533   15.5670    5.9588 C   0  0  0  0  0  0  0  0  0  0  0  0
    3.9272   16.4768    6.2969 H   0  0  0  0  0  0  0  0  0  0  0  0
    8.3955    7.9349   -0.5445 C   0  0  0  0  0  0  0  0  0  0  0  0
    8.6954    7.2720   -1.3425 H   0  0  0  0  0  0  0  0  0  0  0  0
    9.8338   10.7560    3.4186 C   0  0  0  0  0  0  0  0  0  0  0  0
    9.6950    9.6847    3.4711 H   0  0  0  0  0  0  0  0  0  0  0  0
   10.2052   13.4953    3.2210 C   0  0  0  0  0  0  0  0  0  0  0  0
   10.3514   14.5615    3.1345 H   0  0  0  0  0  0  0  0  0  0  0  0
   11.0811   11.3033    3.6500 C   0  0  0  0  0  0  0  0  0  0  0  0
   11.9126   10.6600    3.8989 H   0  0  0  0  0  0  0  0  0  0  0  0
  1  5  1  0  0  0  0
  1  3  1  0  0  0  0
  1  2  1  0  0  0  0
  2 14  1  0  0  0  0
  2 11  1  0  0  0  0
  2 20  1  0  0  0  0
  3 19  1  0  0  0  0
  3 23  1  0  0  0  0
  4  1  1  0  0  0  0
  6  1  1  0  0  0  0
  7  1  1  0  0  0  0
  8  9  1  0  0  0  0
  8 10  1  0  0  0  0
 11  8  1  0  0  0  0
 11 13  1  0  0  0  0
 12 11  1  0  0  0  0
 14 31  1  0  0  0  0
 15 43  2  0  0  0  0
 16 15  1  0  0  0  0
 17 18  1  0  0  0  0
 19 55  1  0  0  0  0
 20 33  1  0  0  0  0
 21 14  2  0  0  0  0
 21 15  1  0  0  0  0
 22 21  1  0  0  0  0
 23 25  1  0  0  0  0
 23  8  1  0  0  0  0
 24 23  1  0  0  0  0
 26 17  1  0  0  0  0
 26  3  1  0  0  0  0
 27 26  2  0  0  0  0
 28 27  1  0  0  0  0
 29 37  1  0  0  0  0
 29 30  1  0  0  0  0
 31 32  1  0  0  0  0
 31 51  2  0  0  0  0
 33 34  1  0  0  0  0
 33 37  2  0  0  0  0
 35 29  2  0  0  0  0
 36 35  1  0  0  0  0
 37 38  1  0  0  0  0
 39 59  1  0  0  0  0
 39 40  1  0  0  0  0
 41 20  2  0  0  0  0
 41 35  1  0  0  0  0
 42 41  1  0  0  0  0
 43 51  1  0  0  0  0
 43 44  1  0  0  0  0
 45 46  1  0  0  0  0
 45 17  2  0  0  0  0
 47 19  2  0  0  0  0
 47 57  1  0  0  0  0
 48 47  1  0  0  0  0
 49 53  2  0  0  0  0
 49 27  1  0  0  0  0
 50 49  1  0  0  0  0
 51 52  1  0  0  0  0
 53 45  1  0  0  0  0
 54 53  1  0  0  0  0
 55 56  1  0  0  0  0
 55 59  2  0  0  0  0
 57 39  2  0  0  0  0
 58 57  1  0  0  0  0
 59 60  1  0  0  0  0
M  END
$$$$
