CSD_code = UFOLUX | q = 0 | S = 0 | Stoichiometry = C15H23AuCl2N2O | MND = 4
 OpenBabel04212202103D

 44 45  0  0  0  0  0  0  0  0999 V2000
    3.8975    3.8689   12.6277 Au  0  0  0  0  0  0  0  0  0  0  0  0
    4.8664    5.5521   11.5481 Cl  0  0  0  0  0  0  0  0  0  0  0  0
    3.3306    5.2766   14.2932 Cl  0  0  0  0  0  0  0  0  0  0  0  0
    4.3215    2.4866   11.2591 N   0  0  0  0  0  0  0  0  0  0  0  0
    3.0906    2.2551   13.5708 N   0  0  0  0  0  0  0  0  0  0  0  0
    3.9497    1.2316   11.5513 C   0  0  0  0  0  0  0  0  0  0  0  0
    4.1239    0.2470   10.8564 O   0  0  0  0  0  0  0  0  0  0  0  0
    2.8072   -0.0914   13.3622 C   0  0  0  0  0  0  0  0  0  0  0  0
    2.9751   -0.9686   12.7565 H   0  0  0  0  0  0  0  0  0  0  0  0
    3.9012    3.3853    8.9978 C   0  0  0  0  0  0  0  0  0  0  0  0
    3.5603    4.3366    9.4116 H   0  0  0  0  0  0  0  0  0  0  0  0
    4.4245    3.5967    8.0638 H   0  0  0  0  0  0  0  0  0  0  0  0
    2.1613   -0.1265   14.5861 C   0  0  0  0  0  0  0  0  0  0  0  0
    1.7956   -1.0596   14.9872 H   0  0  0  0  0  0  0  0  0  0  0  0
    2.7027    2.4818    8.7213 C   0  0  0  0  0  0  0  0  0  0  0  0
    2.1620    2.2955    9.6536 H   0  0  0  0  0  0  0  0  0  0  0  0
    3.0552    1.5169    8.3514 H   0  0  0  0  0  0  0  0  0  0  0  0
   -1.5837    1.9305    6.0728 C   0  0  0  0  0  0  0  0  0  0  0  0
   -1.2178    0.9817    5.6734 H   0  0  0  0  0  0  0  0  0  0  0  0
   -2.1304    1.7113    6.9933 H   0  0  0  0  0  0  0  0  0  0  0  0
    4.9043    2.7499    9.9616 C   0  0  0  0  0  0  0  0  0  0  0  0
    5.2512    1.7926    9.5618 H   0  0  0  0  0  0  0  0  0  0  0  0
    5.7596    3.4153   10.0965 H   0  0  0  0  0  0  0  0  0  0  0  0
   -0.3958    2.8343    6.3930 C   0  0  0  0  0  0  0  0  0  0  0  0
   -0.7619    3.7862    6.7854 H   0  0  0  0  0  0  0  0  0  0  0  0
    0.1522    3.0477    5.4721 H   0  0  0  0  0  0  0  0  0  0  0  0
    2.4726    2.2380   14.7467 C   0  0  0  0  0  3  0  0  0  0  0  0
    2.3743    3.1938   15.2439 H   0  0  0  0  0  0  0  0  0  0  0  0
   -2.5338    2.5688    5.0624 C   0  0  0  0  0  0  0  0  0  0  0  0
   -1.9843    2.7972    4.1462 H   0  0  0  0  0  0  0  0  0  0  0  0
   -2.9077    3.5126    5.4663 H   0  0  0  0  0  0  0  0  0  0  0  0
    1.7505    3.1050    7.7045 C   0  0  0  0  0  0  0  0  0  0  0  0
    1.3949    4.0657    8.0846 H   0  0  0  0  0  0  0  0  0  0  0  0
    2.2928    3.2990    6.7764 H   0  0  0  0  0  0  0  0  0  0  0  0
    0.5545    2.2036    7.4080 C   0  0  0  0  0  0  0  0  0  0  0  0
    0.0126    2.0028    8.3356 H   0  0  0  0  0  0  0  0  0  0  0  0
    0.9122    1.2459    7.0230 H   0  0  0  0  0  0  0  0  0  0  0  0
    3.2645    1.1267   12.8810 C   0  0  0  0  0  0  0  0  0  0  0  0
   -3.7098    1.6578    4.7328 C   0  0  0  0  0  0  0  0  0  0  0  0
   -4.3746    2.1335    4.0154 H   0  0  0  0  0  0  0  0  0  0  0  0
   -4.2800    1.4308    5.6313 H   0  0  0  0  0  0  0  0  0  0  0  0
   -3.3580    0.7208    4.3060 H   0  0  0  0  0  0  0  0  0  0  0  0
    1.9917    1.0597   15.2883 C   0  0  0  0  0  0  0  0  0  0  0  0
    1.4937    1.0789   16.2442 H   0  0  0  0  0  0  0  0  0  0  0  0
  1  5  1  0  0  0  0
  1  3  1  0  0  0  0
  2  1  1  0  0  0  0
  4  6  1  0  0  0  0
  4  1  1  0  0  0  0
  5 27  1  0  0  0  0
  6 38  1  0  0  0  0
  7  6  2  0  0  0  0
  8 13  1  0  0  0  0
  9  8  1  0  0  0  0
 10 11  1  0  0  0  0
 10 21  1  0  0  0  0
 12 10  1  0  0  0  0
 13 14  1  0  0  0  0
 13 43  2  0  0  0  0
 15 10  1  0  0  0  0
 15 16  1  0  0  0  0
 17 15  1  0  0  0  0
 18 24  1  0  0  0  0
 18 20  1  0  0  0  0
 19 18  1  0  0  0  0
 21 23  1  0  0  0  0
 21  4  1  0  0  0  0
 22 21  1  0  0  0  0
 24 25  1  0  0  0  0
 24 35  1  0  0  0  0
 26 24  1  0  0  0  0
 27 28  1  0  0  0  0
 27 43  1  0  0  0  0
 29 31  1  0  0  0  0
 29 18  1  0  0  0  0
 30 29  1  0  0  0  0
 32 33  1  0  0  0  0
 32 15  1  0  0  0  0
 34 32  1  0  0  0  0
 35 32  1  0  0  0  0
 35 36  1  0  0  0  0
 37 35  1  0  0  0  0
 38  8  2  0  0  0  0
 38  5  1  0  0  0  0
 39 29  1  0  0  0  0
 39 41  1  0  0  0  0
 40 39  1  0  0  0  0
 42 39  1  0  0  0  0
 43 44  1  0  0  0  0
M  END
$$$$
