CSD_code = UFONEL | q = 0 | S = 0 | Stoichiometry = C14H17Cl2NTi | MND = 8
 OpenBabel04212202103D

 35 37  0  0  1  0  0  0  0  0999 V2000
    4.7168    6.6450    9.3720 Ti  0  0  0  0  0  0  0  0  0  0  0  0
    5.8954    7.1750    7.6296 Cl  0  0  0  0  0  0  0  0  0  0  0  0
    5.7952    4.8710   10.0035 Cl  0  0  0  0  0  0  0  0  0  0  0  0
    3.2304    5.9037    8.6695 N   0  0  0  0  0  0  0  0  0  0  0  0
    3.0900    7.8131   10.4036 C   0  0  1  0  0  0  0  0  0  0  0  0
    3.8235    7.1726   11.4302 C   0  0  0  0  0  0  0  0  0  0  0  0
    3.4187    6.4547   12.1365 H   0  0  0  0  0  0  0  0  0  0  0  0
    5.1467    7.6566   11.4310 C   0  0  0  0  0  0  0  0  0  0  0  0
    5.9093    7.4117   12.1606 H   0  0  0  0  0  0  0  0  0  0  0  0
    5.2431    8.6731   10.4351 C   0  0  0  0  0  0  0  0  0  0  0  0
    6.2913    9.5277   10.0443 C   0  0  0  0  0  0  0  0  0  0  0  0
    7.2496    9.4748   10.5450 H   0  0  0  0  0  0  0  0  0  0  0  0
    6.0677   10.4303    9.0361 C   0  0  0  0  0  0  0  0  0  0  0  0
    6.8601   11.0950    8.7258 H   0  0  0  0  0  0  0  0  0  0  0  0
    4.8214   10.5139    8.3887 C   0  0  0  0  0  0  0  0  0  0  0  0
    4.6954   11.2386    7.5980 H   0  0  0  0  0  0  0  0  0  0  0  0
    3.7734    9.7026    8.7416 C   0  0  0  0  0  0  0  0  0  0  0  0
    2.8134    9.7924    8.2483 H   0  0  0  0  0  0  0  0  0  0  0  0
    3.9569    8.7686    9.7815 C   0  0  0  0  0  0  0  0  0  0  0  0
    1.7395    7.3865    9.9071 C   0  0  0  0  0  0  0  0  0  0  0  0
    1.3910    8.0872    9.1443 H   0  0  0  0  0  0  0  0  0  0  0  0
    1.0017    7.3504   10.7135 H   0  0  0  0  0  0  0  0  0  0  0  0
    1.9189    5.9835    9.2871 C   0  0  0  0  0  0  0  0  0  0  0  0
    1.8406    5.2243   10.0859 H   0  0  0  0  0  0  0  0  0  0  0  0
    1.1234    5.7892    8.5567 H   0  0  0  0  0  0  0  0  0  0  0  0
    3.3780    4.9398    7.5912 C   0  0  0  0  0  0  0  0  0  0  0  0
    4.4595    4.8680    7.3817 H   0  0  0  0  0  0  0  0  0  0  0  0
    2.8931    3.5403    7.9929 C   0  0  0  0  0  0  0  0  0  0  0  0
    3.3703    3.2508    8.9293 H   0  0  0  0  0  0  0  0  0  0  0  0
    3.1696    2.8232    7.2247 H   0  0  0  0  0  0  0  0  0  0  0  0
    1.8128    3.5141    8.1165 H   0  0  0  0  0  0  0  0  0  0  0  0
    2.6923    5.4424    6.3119 C   0  0  0  0  0  0  0  0  0  0  0  0
    1.6107    5.4669    6.4274 H   0  0  0  0  0  0  0  0  0  0  0  0
    2.9348    4.7889    5.4785 H   0  0  0  0  0  0  0  0  0  0  0  0
    3.0519    6.4477    6.0906 H   0  0  0  0  0  0  0  0  0  0  0  0
  1  3  1  0  0  0  0
  1  5  1  0  0  0  0
  2  1  1  0  0  0  0
  4 23  1  0  0  0  0
  4  1  1  0  0  0  0
  5 19  1  6  0  0  0
  5  6  1  0  0  0  0
  6  8  2  0  0  0  0
  6  7  1  0  0  0  0
  8  9  1  0  0  0  0
 10  8  1  0  0  0  0
 11 10  1  0  0  0  0
 11 12  1  0  0  0  0
 13 11  2  0  0  0  0
 14 13  1  0  0  0  0
 15 17  2  0  0  0  0
 15 13  1  0  0  0  0
 16 15  1  0  0  0  0
 17 19  1  0  0  0  0
 18 17  1  0  0  0  0
 19 10  2  0  0  0  0
 20  5  1  0  0  0  0
 20 22  1  0  0  0  0
 21 20  1  0  0  0  0
 23 20  1  0  0  0  0
 23 24  1  0  0  0  0
 25 23  1  0  0  0  0
 26 28  1  0  0  0  0
 26  4  1  0  0  0  0
 27 26  1  0  0  0  0
 28 31  1  0  0  0  0
 28 29  1  0  0  0  0
 30 28  1  0  0  0  0
 32 33  1  0  0  0  0
 32 26  1  0  0  0  0
 34 32  1  0  0  0  0
 35 32  1  0  0  0  0
M  END
$$$$
