CSD_code = UFONIP | q = 0 | S = 0 | Stoichiometry = C17H21Cl2NTi | MND = 8
 OpenBabel04212202103D

 42 45  0  0  1  0  0  0  0  0999 V2000
    2.2203    2.1136    6.8636 Ti  0  0  0  0  0  0  0  0  0  0  0  0
    3.1392    0.3709    5.9634 Cl  0  0  0  0  0  0  0  0  0  0  0  0
    0.3004    1.2639    7.4258 Cl  0  0  0  0  0  0  0  0  0  0  0  0
    1.8301    3.1113    5.4144 N   0  0  1  0  0  0  0  0  0  0  0  0
    3.0769    4.1230    7.4300 C   0  0  1  0  0  0  0  0  0  0  0  0
    2.2055    3.7419    8.4764 C   0  0  0  0  0  0  0  0  0  0  0  0
    1.3229    4.2929    8.7856 H   0  0  0  0  0  0  0  0  0  0  0  0
    2.6962    2.5736    9.0932 C   0  0  0  0  0  0  0  0  0  0  0  0
    2.2835    2.1027    9.9771 H   0  0  0  0  0  0  0  0  0  0  0  0
    3.9348    2.2377    8.4719 C   0  0  0  0  0  0  0  0  0  0  0  0
    4.8785    1.2216    8.7168 C   0  0  0  0  0  0  0  0  0  0  0  0
    4.7139    0.5094    9.5154 H   0  0  0  0  0  0  0  0  0  0  0  0
    6.0065    1.1647    7.9392 C   0  0  0  0  0  0  0  0  0  0  0  0
    6.7404    0.3922    8.1143 H   0  0  0  0  0  0  0  0  0  0  0  0
    6.2381    2.0987    6.9127 C   0  0  0  0  0  0  0  0  0  0  0  0
    7.1426    2.0142    6.3288 H   0  0  0  0  0  0  0  0  0  0  0  0
    5.3486    3.1084    6.6472 C   0  0  0  0  0  0  0  0  0  0  0  0
    5.5557    3.8395    5.8757 H   0  0  0  0  0  0  0  0  0  0  0  0
    4.1762    3.2040    7.4237 C   0  0  0  0  0  0  0  0  0  0  0  0
    2.7740    5.1446    6.3740 C   0  0  0  0  0  0  0  0  0  0  0  0
    3.6100    5.8303    6.2144 H   0  0  0  0  0  0  0  0  0  0  0  0
    1.8959    5.7235    6.6743 H   0  0  0  0  0  0  0  0  0  0  0  0
    2.4691    4.3674    5.0738 C   0  0  0  0  0  0  0  0  0  0  0  0
    1.8335    4.9704    4.4120 H   0  0  0  0  0  0  0  0  0  0  0  0
    3.4165    4.1649    4.5446 H   0  0  0  0  0  0  0  0  0  0  0  0
    1.0434    2.4769    4.3745 C   0  0  0  0  0  0  0  0  0  0  0  0
    0.7902    1.4681    4.7452 H   0  0  0  0  0  0  0  0  0  0  0  0
    1.8128    2.2945    3.0576 C   0  0  0  0  0  0  0  0  0  0  0  0
    2.0456    3.2680    2.6205 H   0  0  0  0  0  0  0  0  0  0  0  0
    2.7499    1.7706    3.2703 H   0  0  0  0  0  0  0  0  0  0  0  0
    0.9597    1.4920    2.0793 C   0  0  0  0  0  0  0  0  0  0  0  0
    1.4982    1.3646    1.1383 H   0  0  0  0  0  0  0  0  0  0  0  0
    0.7724    0.5004    2.4961 H   0  0  0  0  0  0  0  0  0  0  0  0
   -0.3698    2.1986    1.8256 C   0  0  0  0  0  0  0  0  0  0  0  0
   -0.9770    1.6079    1.1377 H   0  0  0  0  0  0  0  0  0  0  0  0
   -0.1806    3.1668    1.3560 H   0  0  0  0  0  0  0  0  0  0  0  0
   -1.1292    2.4102    3.1332 C   0  0  0  0  0  0  0  0  0  0  0  0
   -1.3724    1.4414    3.5740 H   0  0  0  0  0  0  0  0  0  0  0  0
   -2.0662    2.9352    2.9380 H   0  0  0  0  0  0  0  0  0  0  0  0
   -0.2839    3.2105    4.1194 C   0  0  0  0  0  0  0  0  0  0  0  0
   -0.8066    3.3238    5.0741 H   0  0  0  0  0  0  0  0  0  0  0  0
   -0.0911    4.2041    3.7082 H   0  0  0  0  0  0  0  0  0  0  0  0
  1  3  1  0  0  0  0
  1  5  1  0  0  0  0
  2  1  1  0  0  0  0
  4 26  1  6  0  0  0
  4  1  1  0  0  0  0
  5 19  1  1  0  0  0
  5  6  1  0  0  0  0
  6  7  1  0  0  0  0
  6  8  2  0  0  0  0
  8  9  1  0  0  0  0
 10 11  1  0  0  0  0
 10  8  1  0  0  0  0
 11 12  1  0  0  0  0
 13 14  1  0  0  0  0
 13 11  2  0  0  0  0
 15 13  1  0  0  0  0
 16 15  1  0  0  0  0
 17 15  2  0  0  0  0
 17 19  1  0  0  0  0
 18 17  1  0  0  0  0
 19 10  2  0  0  0  0
 20 22  1  0  0  0  0
 20  5  1  0  0  0  0
 21 20  1  0  0  0  0
 23  4  1  0  0  0  0
 23 20  1  0  0  0  0
 24 23  1  0  0  0  0
 25 23  1  0  0  0  0
 26 27  1  0  0  0  0
 28 30  1  0  0  0  0
 28 26  1  0  0  0  0
 29 28  1  0  0  0  0
 31 33  1  0  0  0  0
 31 28  1  0  0  0  0
 32 31  1  0  0  0  0
 34 31  1  0  0  0  0
 34 37  1  0  0  0  0
 35 34  1  0  0  0  0
 36 34  1  0  0  0  0
 37 38  1  0  0  0  0
 37 40  1  0  0  0  0
 39 37  1  0  0  0  0
 40 26  1  0  0  0  0
 40 41  1  0  0  0  0
 42 40  1  0  0  0  0
M  END
$$$$
