CSD_code = UFOPUB | q = 0 | S = 0 | Stoichiometry = C12H7ClF12P2Pt | MND = 4
 OpenBabel04212202103D

 35 37  0  0  0  0  0  0  0  0999 V2000
    5.4823   13.6935    4.5706 Pt  0  0  0  0  0  0  0  0  0  0  0  0
    5.7449   15.9326    4.0875 Cl  0  0  0  0  0  0  0  0  0  0  0  0
    6.8344   13.5677    6.3295 P   0  0  0  0  0  4  0  0  0  0  0  0
    4.0367   13.1371    2.9750 P   0  0  0  0  0  4  0  0  0  0  0  0
    5.2459   11.6864    5.0192 C   0  0  0  0  0  0  0  0  0  0  0  0
    4.6658   10.8077    4.0978 C   0  0  0  0  0  0  0  0  0  0  0  0
    4.5071    9.4638    4.4054 C   0  0  0  0  0  0  0  0  0  0  0  0
    4.0540    8.7992    3.6853 H   0  0  0  0  0  0  0  0  0  0  0  0
    4.9330    8.9749    5.6272 C   0  0  0  0  0  0  0  0  0  0  0  0
    4.8131    7.9290    5.8614 H   0  0  0  0  0  0  0  0  0  0  0  0
    5.5119    9.8287    6.5489 C   0  0  0  0  0  0  0  0  0  0  0  0
    5.8433    9.4493    7.5037 H   0  0  0  0  0  0  0  0  0  0  0  0
    5.6632   11.1761    6.2535 C   0  0  0  0  0  0  0  0  0  0  0  0
    4.2278   11.3352    2.7474 C   0  0  0  0  0  0  0  0  0  0  0  0
    3.3154   10.8524    2.3827 H   0  0  0  0  0  0  0  0  0  0  0  0
    5.0250   11.1753    2.0101 H   0  0  0  0  0  0  0  0  0  0  0  0
    6.2640   12.1153    7.2786 C   0  0  0  0  0  0  0  0  0  0  0  0
    7.0632   11.6474    7.8622 H   0  0  0  0  0  0  0  0  0  0  0  0
    5.4829   12.4555    7.9707 H   0  0  0  0  0  0  0  0  0  0  0  0
    7.3387   14.7752    7.6980 C   0  0  0  0  0  0  0  0  0  0  0  0
    7.9583   15.8581    7.2610 F   0  0  0  0  0  0  0  0  0  0  0  0
    6.2419   15.1464    8.3629 F   0  0  0  0  0  0  0  0  0  0  0  0
    8.1445   14.1633    8.5800 F   0  0  0  0  0  0  0  0  0  0  0  0
    8.5636   13.0247    5.7998 C   0  0  0  0  0  0  0  0  0  0  0  0
    9.1877   12.2906    6.7277 F   0  0  0  0  0  0  0  0  0  0  0  0
    8.4374   12.2567    4.7104 F   0  0  0  0  0  0  0  0  0  0  0  0
    9.3534   14.0476    5.4961 F   0  0  0  0  0  0  0  0  0  0  0  0
    3.6529   13.7208    1.2139 C   0  0  0  0  0  0  0  0  0  0  0  0
    3.4231   15.0177    1.1093 F   0  0  0  0  0  0  0  0  0  0  0  0
    2.5812   13.0670    0.7396 F   0  0  0  0  0  0  0  0  0  0  0  0
    4.6844   13.4048    0.4254 F   0  0  0  0  0  0  0  0  0  0  0  0
    2.2851   13.2668    3.6746 C   0  0  0  0  0  0  0  0  0  0  0  0
    1.6830   14.4011    3.3343 F   0  0  0  0  0  0  0  0  0  0  0  0
    1.4925   12.2581    3.2970 F   0  0  0  0  0  0  0  0  0  0  0  0
    2.3682   13.2224    5.0102 F   0  0  0  0  0  0  0  0  0  0  0  0
  1  5  1  0  0  0  0
  1  3  1  0  0  0  0
  2  1  1  0  0  0  0
  3 17  1  0  0  0  0
  3 20  1  0  0  0  0
  4 32  1  0  0  0  0
  4  1  1  0  0  0  0
  5 13  1  0  0  0  0
  6  7  1  0  0  0  0
  6  5  2  0  0  0  0
  7  9  2  0  0  0  0
  8  7  1  0  0  0  0
  9 10  1  0  0  0  0
  9 11  1  0  0  0  0
 11 12  1  0  0  0  0
 13 11  2  0  0  0  0
 13 17  1  0  0  0  0
 14  4  1  0  0  0  0
 14  6  1  0  0  0  0
 15 14  1  0  0  0  0
 16 14  1  0  0  0  0
 17 18  1  0  0  0  0
 17 19  1  0  0  0  0
 20 22  1  0  0  0  0
 20 23  1  0  0  0  0
 21 20  1  0  0  0  0
 24  3  1  0  0  0  0
 24 25  1  0  0  0  0
 26 24  1  0  0  0  0
 27 24  1  0  0  0  0
 28  4  1  0  0  0  0
 29 28  1  0  0  0  0
 30 28  1  0  0  0  0
 31 28  1  0  0  0  0
 32 35  1  0  0  0  0
 33 32  1  0  0  0  0
 34 32  1  0  0  0  0
M  END
$$$$
