CSD_code = UFUCUU | q = -1 | S = 0 | Stoichiometry = C17H27B9ClZr(1-) | MND = 12
 OpenBabel04212202103D

 55 60  0  0  1  0  0  0  0  0999 V2000
    7.7140   -0.8761    9.9570 Zr  0  0  0  0  0  0  0  0  0  0  0  0
    7.4933   -3.1645    9.1259 Cl  0  0  0  0  0 15  0  0  0  0  0  0
    6.3593   -1.6536   11.6433 C   0  0  0  0  0  0  0  0  0  0  0  0
    5.5250   -2.1962   11.1765 H   0  0  0  0  0  0  0  0  0  0  0  0
    7.0185   -2.3619   12.1682 H   0  0  0  0  0  0  0  0  0  0  0  0
    9.1207    1.2128    9.3932 C   0  0  2  0  0  0  0  0  0  0  0  0
    8.0116    1.8947    8.5563 C   0  0  0  0  0  0  0  0  0  0  0  0
    8.4450    2.3245    7.1397 C   0  0  0  0  0  0  0  0  0  0  0  0
    8.9244    1.5220    6.5851 H   0  0  0  0  0  0  0  0  0  0  0  0
    9.1399    3.1606    7.1901 H   0  0  0  0  0  0  0  0  0  0  0  0
    7.5674    2.6414    6.5753 H   0  0  0  0  0  0  0  0  0  0  0  0
    7.4806    3.1663    9.2395 C   0  0  0  0  0  0  0  0  0  0  0  0
    6.6067    3.5372    8.7040 H   0  0  0  0  0  0  0  0  0  0  0  0
    8.2447    3.9413    9.2322 H   0  0  0  0  0  0  0  0  0  0  0  0
    7.2013    2.9811   10.2725 H   0  0  0  0  0  0  0  0  0  0  0  0
    6.9047    0.8551    8.4489 C   0  0  0  0  0  0  0  0  0  0  0  0
    6.8722   -0.2383    7.5456 C   0  0  0  0  0  0  0  0  0  0  0  0
    7.5018   -0.3857    6.6740 H   0  0  0  0  0  0  0  0  0  0  0  0
    5.7287   -1.0063    7.8252 C   0  0  0  0  0  0  0  0  0  0  0  0
    5.3938   -1.8634    7.2594 H   0  0  0  0  0  0  0  0  0  0  0  0
    5.0817   -0.4437    8.9266 C   0  0  0  0  0  0  0  0  0  0  0  0
    4.1308   -0.7685    9.3256 H   0  0  0  0  0  0  0  0  0  0  0  0
    5.8099    0.6948    9.3370 C   0  0  0  0  0  3  0  0  0  0  0  0
    5.4823    1.4020   10.0907 H   0  0  0  0  0  0  0  0  0  0  0  0
    5.8987   -0.5873   12.5131 C   0  0  0  0  0  0  0  0  0  0  0  0
    4.6252   -0.0026   12.3682 C   0  0  0  0  0  0  0  0  0  0  0  0
    3.9505   -0.3922   11.6168 H   0  0  0  0  0  0  0  0  0  0  0  0
    4.2108    1.0431   13.1662 C   0  0  0  0  0  0  0  0  0  0  0  0
    3.2255    1.4696   13.0210 H   0  0  0  0  0  0  0  0  0  0  0  0
    5.0377    1.5442   14.1599 C   0  0  0  0  0  0  0  0  0  0  0  0
    4.7109    2.3638   14.7853 H   0  0  0  0  0  0  0  0  0  0  0  0
    6.2851    0.9649   14.3470 C   0  0  0  0  0  0  0  0  0  0  0  0
    6.9350    1.3352   15.1289 H   0  0  0  0  0  0  0  0  0  0  0  0
    6.7065   -0.0780   13.5510 C   0  0  0  0  0  0  0  0  0  0  0  0
    7.6826   -0.5140   13.7180 H   0  0  0  0  0  0  0  0  0  0  0  0
    9.8336    0.0082    8.7288 C   0  0  2  0  0  0  0  0  0  0  0  0
    9.6403   -0.1729    7.6663 H   0  0  0  0  0  0  0  0  0  0  0  0
   10.1377   -1.2238    9.7571 B   0  0  0  0  0  0  0  0  0  0  0  0
   10.2282   -2.3325    9.3141 H   0  0  0  0  0  0  0  0  0  0  0  0
    9.5915   -0.6931   11.3326 B   0  0  2  0  0  0  0  0  0  0  0  0
    9.3335   -1.4317   12.2496 H   0  0  0  0  0  0  0  0  0  0  0  0
    8.8807    0.8992   11.0055 B   0  0  1  0  0  0  0  0  0  0  0  0
    7.9453    1.4077   11.5638 H   0  0  0  0  0  0  0  0  0  0  0  0
   10.7937    1.4459    8.9877 B   0  0  1  0  0  0  0  0  0  0  0  0
   11.0738    2.1195    8.0597 H   0  0  0  0  0  0  0  0  0  0  0  0
   11.4836   -0.1507    9.2395 B   0  0  2  0  0  0  0  0  0  0  0  0
   12.2805   -0.5413    8.4554 H   0  0  0  0  0  0  0  0  0  0  0  0
   11.3296   -0.5634   10.9344 B   0  0  1  0  0  0  0  0  0  0  0  0
   12.1319   -1.2430   11.4816 H   0  0  0  0  0  0  0  0  0  0  0  0
   10.4997    0.7940   11.7414 B   0  0  1  0  0  0  0  0  0  0  0  0
   10.7004    1.0941   12.8702 H   0  0  0  0  0  0  0  0  0  0  0  0
   10.1777    2.0303   10.5221 B   0  0  1  0  0  0  0  0  0  0  0  0
   10.0643    3.1943   10.6940 H   0  0  0  0  0  0  0  0  0  0  0  0
   11.6966    1.1266   10.4486 B   0  0  2  0  0  0  0  0  0  0  0  0
   12.7468    1.6334   10.6516 H   0  0  0  0  0  0  0  0  0  0  0  0
  1  3  1  0  0  0  0
  3  5  1  0  0  0  0
  3 25  1  0  0  0  0
  4  3  1  0  0  0  0
  6  7  1  6  0  0  0
  6 42  1  0  0  0  0
  7 12  1  0  0  0  0
  8 10  1  0  0  0  0
  8  7  1  0  0  0  0
  9  8  1  0  0  0  0
 11  8  1  0  0  0  0
 12 15  1  0  0  0  0
 13 12  1  0  0  0  0
 14 12  1  0  0  0  0
 16  7  1  0  0  0  0
 16 23  1  0  0  0  0
 17 19  1  0  0  0  0
 17 16  2  0  0  0  0
 18 17  1  0  0  0  0
 19 21  2  0  0  0  0
 20 19  1  0  0  0  0
 21 22  1  0  0  0  0
 21 23  1  0  0  0  0
 23 24  1  0  0  0  0
 25 34  1  0  0  0  0
 26 25  2  0  0  0  0
 26 28  1  0  0  0  0
 27 26  1  0  0  0  0
 28 30  2  0  0  0  0
 29 28  1  0  0  0  0
 30 32  1  0  0  0  0
 30 31  1  0  0  0  0
 32 33  1  0  0  0  0
 34 35  1  0  0  0  0
 34 32  2  0  0  0  0
 36 37  1  6  0  0  0
 36 46  1  0  0  0  0
 36  6  1  0  0  0  0
 36 38  1  0  0  0  0
 38 40  1  0  0  0  0
 39 38  1  0  0  0  0
 40 41  1  1  0  0  0
 42 40  1  0  0  0  0
 42 43  1  1  0  0  0
 42 50  1  0  0  0  0
 44 45  1  6  0  0  0
 44  6  1  0  0  0  0
 44 54  1  0  0  0  0
 44 52  1  0  0  0  0
 46 47  1  6  0  0  0
 46 54  1  0  0  0  0
 46 48  1  0  0  0  0
 48 40  1  0  0  0  0
 48 49  1  1  0  0  0
 48 50  1  0  0  0  0
 50 51  1  1  0  0  0
 52 53  1  1  0  0  0
 52 50  1  0  0  0  0
 54 52  1  0  0  0  0
 54 55  1  1  0  0  0
M  END
$$$$
