CSD_code = UFUFIK | q = 0 | S = 0 | Stoichiometry = C17H29ClMoO2 | MND = 8
 OpenBabel04212202103D

 50 50  0  0  1  0  0  0  0  0999 V2000
    2.5868    8.1436   12.9031 Mo  0  0  0  0  0  0  0  0  0  0  0  0
    2.8472    7.2233   10.8351 Cl  0  0  0  0  0  0  0  0  0  0  0  0
    0.9471    8.2634   12.8814 O   0  0  0  0  0  1  0  0  0  0  0  0
    3.0714    6.8456   13.7871 O   0  0  0  0  0  1  0  0  0  0  0  0
    4.4438    9.4183   13.8312 C   0  0  0  0  0  0  0  0  0  0  0  0
    4.6157    9.3715   12.4284 C   0  0  0  0  0  0  0  0  0  0  0  0
    3.5011   10.0648   11.8152 C   0  0  0  0  0  0  0  0  0  0  0  0
    2.6691   10.5212   12.8436 C   0  0  0  0  0  0  0  0  0  0  0  0
    1.8008   11.1533   12.7223 H   0  0  0  0  0  0  0  0  0  0  0  0
    3.1752   10.0551   14.0937 C   0  0  1  0  0  0  0  0  0  0  0  0
    5.4802    9.0273   14.8635 C   0  0  0  0  0  0  0  0  0  0  0  0
    6.2759    8.4961   14.3384 H   0  0  0  0  0  0  0  0  0  0  0  0
    4.9600    8.0751   15.9442 C   0  0  0  0  0  0  0  0  0  0  0  0
    5.8000    7.6430   16.4841 H   0  0  0  0  0  0  0  0  0  0  0  0
    4.3921    7.2684   15.4825 H   0  0  0  0  0  0  0  0  0  0  0  0
    4.3237    8.5798   16.6653 H   0  0  0  0  0  0  0  0  0  0  0  0
    6.1079   10.2864   15.4804 C   0  0  0  0  0  0  0  0  0  0  0  0
    6.9333   10.0034   16.1297 H   0  0  0  0  0  0  0  0  0  0  0  0
    5.3881   10.8462   16.0707 H   0  0  0  0  0  0  0  0  0  0  0  0
    6.4885   10.9439   14.7019 H   0  0  0  0  0  0  0  0  0  0  0  0
    5.8090    8.8703   11.6373 C   0  0  0  0  0  0  0  0  0  0  0  0
    5.5210    8.9119   10.5808 H   0  0  0  0  0  0  0  0  0  0  0  0
    6.1916    7.4128   11.9292 C   0  0  0  0  0  0  0  0  0  0  0  0
    6.7664    7.0157   11.0954 H   0  0  0  0  0  0  0  0  0  0  0  0
    5.3028    6.7938   12.0560 H   0  0  0  0  0  0  0  0  0  0  0  0
    6.8036    7.3218   12.8229 H   0  0  0  0  0  0  0  0  0  0  0  0
    7.0226    9.7922   11.8174 C   0  0  0  0  0  0  0  0  0  0  0  0
    7.8033    9.5122   11.1140 H   0  0  0  0  0  0  0  0  0  0  0  0
    7.4283    9.7186   12.8223 H   0  0  0  0  0  0  0  0  0  0  0  0
    6.7504   10.8295   11.6352 H   0  0  0  0  0  0  0  0  0  0  0  0
    3.3452   10.4487   10.3616 C   0  0  0  0  0  0  0  0  0  0  0  0
    3.8144    9.6828    9.7336 H   0  0  0  0  0  0  0  0  0  0  0  0
    1.8710   10.5366    9.9589 C   0  0  0  0  0  0  0  0  0  0  0  0
    1.7900   10.6421    8.8796 H   0  0  0  0  0  0  0  0  0  0  0  0
    1.3902   11.3978   10.4179 H   0  0  0  0  0  0  0  0  0  0  0  0
    1.3360    9.6337   10.2563 H   0  0  0  0  0  0  0  0  0  0  0  0
    4.0434   11.7905   10.1075 C   0  0  0  0  0  0  0  0  0  0  0  0
    3.9166   12.0856    9.0689 H   0  0  0  0  0  0  0  0  0  0  0  0
    5.1075   11.7205   10.3173 H   0  0  0  0  0  0  0  0  0  0  0  0
    3.6172   12.5646   10.7425 H   0  0  0  0  0  0  0  0  0  0  0  0
    2.5869   10.4586   15.4304 C   0  0  0  0  0  0  0  0  0  0  0  0
    3.3505   10.3466   16.2042 H   0  0  0  0  0  0  0  0  0  0  0  0
    2.1454   11.9262   15.4237 C   0  0  0  0  0  0  0  0  0  0  0  0
    1.8776   12.2343   16.4318 H   0  0  0  0  0  0  0  0  0  0  0  0
    1.2758   12.0696   14.7882 H   0  0  0  0  0  0  0  0  0  0  0  0
    2.9494   12.5676   15.0687 H   0  0  0  0  0  0  0  0  0  0  0  0
    1.4091    9.5451   15.7888 C   0  0  0  0  0  0  0  0  0  0  0  0
    1.0142    9.8018   16.7703 H   0  0  0  0  0  0  0  0  0  0  0  0
    1.7271    8.4989   15.7969 H   0  0  0  0  0  0  0  0  0  0  0  0
    0.6113    9.6489   15.0530 H   0  0  0  0  0  0  0  0  0  0  0  0
  1  4  1  0  0  0  0
  1 10  1  0  0  0  0
  2  1  1  0  0  0  0
  3  1  1  0  0  0  0
  5 10  1  0  0  0  0
  5 11  1  0  0  0  0
  6  5  2  0  0  0  0
  7  6  1  0  0  0  0
  7  8  2  0  0  0  0
  8 10  1  0  0  0  0
  9  8  1  0  0  0  0
 10 41  1  1  0  0  0
 11 17  1  0  0  0  0
 11 13  1  0  0  0  0
 12 11  1  0  0  0  0
 13 14  1  0  0  0  0
 13 16  1  0  0  0  0
 15 13  1  0  0  0  0
 17 19  1  0  0  0  0
 17 18  1  0  0  0  0
 20 17  1  0  0  0  0
 21 27  1  0  0  0  0
 21 23  1  0  0  0  0
 21  6  1  0  0  0  0
 22 21  1  0  0  0  0
 23 25  1  0  0  0  0
 23 26  1  0  0  0  0
 24 23  1  0  0  0  0
 27 29  1  0  0  0  0
 28 27  1  0  0  0  0
 30 27  1  0  0  0  0
 31  7  1  0  0  0  0
 32 31  1  0  0  0  0
 33 36  1  0  0  0  0
 33 31  1  0  0  0  0
 33 35  1  0  0  0  0
 34 33  1  0  0  0  0
 37 39  1  0  0  0  0
 37 31  1  0  0  0  0
 37 40  1  0  0  0  0
 38 37  1  0  0  0  0
 41 47  1  0  0  0  0
 41 42  1  0  0  0  0
 43 41  1  0  0  0  0
 43 44  1  0  0  0  0
 45 43  1  0  0  0  0
 46 43  1  0  0  0  0
 47 49  1  0  0  0  0
 47 48  1  0  0  0  0
 50 47  1  0  0  0  0
M  END
$$$$
