CSD_code = UFUKOV | q = 0 | S = 0 | Stoichiometry = C36H28Cl2NiOP2 | MND = 4
 OpenBabel04212202103D

 70 76  0  0  0  0  0  0  0  0999 V2000
    3.2186    2.2114    4.1566 Ni  0  0  0  0  0  0  0  0  0  0  0  0
    1.2924    2.4388    3.3467 Cl  0  0  0  0  0  0  0  0  0  0  0  0
    5.0335    1.8381    5.1376 Cl  0  0  0  0  0  0  0  0  0  0  0  0
    3.1665    4.0371    5.3344 P   0  0  0  0  0  4  0  0  0  0  0  0
    3.5735    1.1106    2.2955 P   0  0  0  0  0  4  0  0  0  0  0  0
    3.9517    3.9849    2.7184 O   0  0  0  0  0  0  0  0  0  0  0  0
    4.6341    4.9365    4.7132 C   0  0  0  0  0  0  0  0  0  0  0  0
    4.8752    4.7756    3.3382 C   0  0  0  0  0  0  0  0  0  0  0  0
    6.0083    5.3128    2.7515 C   0  0  0  0  0  0  0  0  0  0  0  0
    6.8883    6.0434    3.5354 C   0  0  0  0  0  0  0  0  0  0  0  0
    6.6540    6.2179    4.8874 C   0  0  0  0  0  0  0  0  0  0  0  0
    5.5367    5.6506    5.4809 C   0  0  0  0  0  0  0  0  0  0  0  0
    1.8162    5.2127    4.9895 C   0  0  0  0  0  0  0  0  0  0  0  0
    1.9712    6.3729    4.2431 C   0  0  0  0  0  0  0  0  0  0  0  0
    0.8802    7.1919    4.0082 C   0  0  0  0  0  0  0  0  0  0  0  0
   -0.3653    6.8558    4.5098 C   0  0  0  0  0  0  0  0  0  0  0  0
   -0.5250    5.6943    5.2495 C   0  0  0  0  0  0  0  0  0  0  0  0
    0.5599    4.8738    5.4843 C   0  0  0  0  0  0  0  0  0  0  0  0
    3.2834    4.1778    7.1411 C   0  0  0  0  0  0  0  0  0  0  0  0
    3.1085    5.4139    7.7582 C   0  0  0  0  0  0  0  0  0  0  0  0
    3.1825    5.5129    9.1347 C   0  0  0  0  0  0  0  0  0  0  0  0
    3.4201    4.3832    9.9025 C   0  0  0  0  0  0  0  0  0  0  0  0
    3.5781    3.1508    9.2923 C   0  0  0  0  0  0  0  0  0  0  0  0
    3.5069    3.0462    7.9142 C   0  0  0  0  0  0  0  0  0  0  0  0
    3.6515    2.4105    0.9974 C   0  0  0  0  0  0  0  0  0  0  0  0
    3.8966    3.7361    1.3739 C   0  0  0  0  0  0  0  0  0  0  0  0
    3.9749    4.7377    0.4157 C   0  0  0  0  0  0  0  0  0  0  0  0
    3.8580    4.4104   -0.9234 C   0  0  0  0  0  0  0  0  0  0  0  0
    3.6638    3.0941   -1.3090 C   0  0  0  0  0  0  0  0  0  0  0  0
    3.5599    2.1001   -0.3526 C   0  0  0  0  0  0  0  0  0  0  0  0
    2.3112   -0.0650    1.7429 C   0  0  0  0  0  0  0  0  0  0  0  0
    2.3598   -1.3410    2.3008 C   0  0  0  0  0  0  0  0  0  0  0  0
    1.3907   -2.2750    1.9878 C   0  0  0  0  0  0  0  0  0  0  0  0
    0.3570   -1.9355    1.1295 C   0  0  0  0  0  0  0  0  0  0  0  0
    0.2866   -0.6569    0.6015 C   0  0  0  0  0  0  0  0  0  0  0  0
    1.2541    0.2825    0.9107 C   0  0  0  0  0  0  0  0  0  0  0  0
    5.1510    0.3119    1.8044 C   0  0  0  0  0  0  0  0  0  0  0  0
    6.3260    0.9526    2.1873 C   0  0  0  0  0  0  0  0  0  0  0  0
    7.5543    0.4533    1.7981 C   0  0  0  0  0  0  0  0  0  0  0  0
    7.6215   -0.6881    1.0163 C   0  0  0  0  0  0  0  0  0  0  0  0
    6.4555   -1.3224    0.6220 C   0  0  0  0  0  0  0  0  0  0  0  0
    5.2236   -0.8261    1.0097 C   0  0  0  0  0  0  0  0  0  0  0  0
    6.2187    5.1408    1.7065 H   0  0  0  0  0  0  0  0  0  0  0  0
    7.7725    6.4641    3.0808 H   0  0  0  0  0  0  0  0  0  0  0  0
    7.3526    6.7797    5.4882 H   0  0  0  0  0  0  0  0  0  0  0  0
    5.3742    5.7517    6.5434 H   0  0  0  0  0  0  0  0  0  0  0  0
    2.9428    6.6420    3.8518 H   0  0  0  0  0  0  0  0  0  0  0  0
    1.0041    8.0957    3.4288 H   0  0  0  0  0  0  0  0  0  0  0  0
   -1.2138    7.4964    4.3195 H   0  0  0  0  0  0  0  0  0  0  0  0
   -1.4980    5.4271    5.6343 H   0  0  0  0  0  0  0  0  0  0  0  0
    0.4460    3.9559    6.0462 H   0  0  0  0  0  0  0  0  0  0  0  0
    2.9083    6.2911    7.1577 H   0  0  0  0  0  0  0  0  0  0  0  0
    3.0509    6.4732    9.6119 H   0  0  0  0  0  0  0  0  0  0  0  0
    3.4758    4.4658   10.9780 H   0  0  0  0  0  0  0  0  0  0  0  0
    3.7550    2.2693    9.8904 H   0  0  0  0  0  0  0  0  0  0  0  0
    3.6304    2.0878    7.4300 H   0  0  0  0  0  0  0  0  0  0  0  0
    4.1107    5.7645    0.7215 H   0  0  0  0  0  0  0  0  0  0  0  0
    3.9190    5.1895   -1.6682 H   0  0  0  0  0  0  0  0  0  0  0  0
    3.5863    2.8437   -2.3561 H   0  0  0  0  0  0  0  0  0  0  0  0
    3.4085    1.0723   -0.6497 H   0  0  0  0  0  0  0  0  0  0  0  0
    3.1610   -1.5888    2.9863 H   0  0  0  0  0  0  0  0  0  0  0  0
    1.4354   -3.2645    2.4192 H   0  0  0  0  0  0  0  0  0  0  0  0
   -0.4026   -2.6635    0.8854 H   0  0  0  0  0  0  0  0  0  0  0  0
   -0.5327   -0.3855   -0.0480 H   0  0  0  0  0  0  0  0  0  0  0  0
    1.1795    1.2880    0.5243 H   0  0  0  0  0  0  0  0  0  0  0  0
    6.2743    1.8349    2.8105 H   0  0  0  0  0  0  0  0  0  0  0  0
    8.4600    0.9526    2.1091 H   0  0  0  0  0  0  0  0  0  0  0  0
    8.5801   -1.0831    0.7140 H   0  0  0  0  0  0  0  0  0  0  0  0
    6.5036   -2.2095    0.0068 H   0  0  0  0  0  0  0  0  0  0  0  0
    4.3213   -1.3294    0.6932 H   0  0  0  0  0  0  0  0  0  0  0  0
  1  3  1  0  0  0  0
  1  4  1  0  0  0  0
  2  1  1  0  0  0  0
  4 19  1  0  0  0  0
  5  1  1  0  0  0  0
  6  8  1  0  0  0  0
  7  4  1  0  0  0  0
  7 12  1  0  0  0  0
  8  7  2  0  0  0  0
  9  8  1  0  0  0  0
  9 10  2  0  0  0  0
 10 11  1  0  0  0  0
 11 12  2  0  0  0  0
 11 45  1  0  0  0  0
 12 46  1  0  0  0  0
 13  4  1  0  0  0  0
 13 18  1  0  0  0  0
 14 13  2  0  0  0  0
 15 14  1  0  0  0  0
 15 16  2  0  0  0  0
 16 17  1  0  0  0  0
 17 18  2  0  0  0  0
 17 50  1  0  0  0  0
 18 51  1  0  0  0  0
 19 20  2  0  0  0  0
 19 24  1  0  0  0  0
 20 21  1  0  0  0  0
 21 53  1  0  0  0  0
 21 22  2  0  0  0  0
 22 54  1  0  0  0  0
 23 55  1  0  0  0  0
 23 22  1  0  0  0  0
 24 23  2  0  0  0  0
 25 26  1  0  0  0  0
 25  5  1  0  0  0  0
 26  6  1  0  0  0  0
 27 57  1  0  0  0  0
 27 26  2  0  0  0  0
 28 27  1  0  0  0  0
 29 28  2  0  0  0  0
 29 30  1  0  0  0  0
 30 25  2  0  0  0  0
 31  5  1  0  0  0  0
 31 32  1  0  0  0  0
 32 61  1  0  0  0  0
 33 32  2  0  0  0  0
 33 62  1  0  0  0  0
 34 33  1  0  0  0  0
 35 36  1  0  0  0  0
 35 34  2  0  0  0  0
 36 31  2  0  0  0  0
 37 38  1  0  0  0  0
 37  5  1  0  0  0  0
 38 66  1  0  0  0  0
 39 67  1  0  0  0  0
 39 38  2  0  0  0  0
 40 39  1  0  0  0  0
 41 42  1  0  0  0  0
 41 40  2  0  0  0  0
 42 37  2  0  0  0  0
 43  9  1  0  0  0  0
 44 10  1  0  0  0  0
 47 14  1  0  0  0  0
 48 15  1  0  0  0  0
 49 16  1  0  0  0  0
 52 20  1  0  0  0  0
 56 24  1  0  0  0  0
 58 28  1  0  0  0  0
 59 29  1  0  0  0  0
 60 30  1  0  0  0  0
 63 34  1  0  0  0  0
 64 35  1  0  0  0  0
 65 36  1  0  0  0  0
 68 40  1  0  0  0  0
 69 41  1  0  0  0  0
 70 42  1  0  0  0  0
M  END
$$$$
