CSD_code = UFUSOD | q = 0 | S = 0 | Stoichiometry = C22H12BrCuN4O2 | MND = 5
 OpenBabel04212202103D

 42 47  0  0  0  0  0  0  0  0999 V2000
    8.6031    3.7171    3.8009 Cu  0  0  0  0  0  0  0  0  0  0  0  0
    8.6031    1.4521    3.8009 Br  0  0  0  0  0  0  0  0  0  0  0  0
    8.2780    4.6459    5.4813 N   0  0  0  0  0  0  0  0  0  0  0  0
    9.0774    4.9868    6.4965 C   0  0  0  0  0  3  0  0  0  0  0  0
   10.1359    4.9680    6.2811 H   0  0  0  0  0  0  0  0  0  0  0  0
    8.6024    5.3418    7.7469 C   0  0  0  0  0  0  0  0  0  0  0  0
    9.3028    5.6108    8.5219 H   0  0  0  0  0  0  0  0  0  0  0  0
    7.2300    5.3396    8.0113 C   0  0  0  0  0  0  0  0  0  0  0  0
    6.8403    5.5951    8.9847 H   0  0  0  0  0  0  0  0  0  0  0  0
    6.3983    4.9825    6.9702 C   0  0  0  0  0  0  0  0  0  0  0  0
    6.9778    4.6582    5.7306 C   0  0  0  0  0  0  0  0  0  0  0  0
    5.9305    4.2759    4.8077 C   0  0  0  0  0  0  0  0  0  0  0  0
    4.6929    4.3391    5.4772 C   0  0  0  0  0  0  0  0  0  0  0  0
    3.5604    3.9458    4.7899 C   0  0  0  0  0  0  0  0  0  0  0  0
    2.5854    3.9648    5.2533 H   0  0  0  0  0  0  0  0  0  0  0  0
    3.7406    3.5079    3.4791 C   0  0  0  0  0  0  0  0  0  0  0  0
    2.8978    3.1706    2.8968 H   0  0  0  0  0  0  0  0  0  0  0  0
    5.0109    3.4985    2.9153 C   0  0  0  0  0  0  0  0  0  0  0  0
    5.1633    3.1537    1.9015 H   0  0  0  0  0  0  0  0  0  0  0  0
    6.1059    3.8878    3.5595 N   0  0  0  0  0  0  0  0  0  0  0  0
    4.9154    4.8227    6.8670 C   0  0  0  0  0  0  0  0  0  0  0  0
    4.0902    5.0460    7.7203 O   0  0  0  0  0  0  0  0  0  0  0  0
    8.9282    4.6459    2.1205 N   0  0  0  0  0  0  0  0  0  0  0  0
    8.1288    4.9869    1.1052 C   0  0  0  0  0  3  0  0  0  0  0  0
    7.0703    4.9679    1.3206 H   0  0  0  0  0  0  0  0  0  0  0  0
    8.6038    5.3418   -0.1452 C   0  0  0  0  0  0  0  0  0  0  0  0
    7.9034    5.6108   -0.9201 H   0  0  0  0  0  0  0  0  0  0  0  0
    9.9762    5.3395   -0.4096 C   0  0  0  0  0  0  0  0  0  0  0  0
   10.3659    5.5951   -1.3829 H   0  0  0  0  0  0  0  0  0  0  0  0
   10.8079    4.9824    0.6315 C   0  0  0  0  0  0  0  0  0  0  0  0
   10.2284    4.6582    1.8711 C   0  0  0  0  0  0  0  0  0  0  0  0
   11.2757    4.2759    2.7941 C   0  0  0  0  0  0  0  0  0  0  0  0
   12.5133    4.3390    2.1245 C   0  0  0  0  0  0  0  0  0  0  0  0
   13.6458    3.9457    2.8118 C   0  0  0  0  0  0  0  0  0  0  0  0
   14.6208    3.9648    2.3484 H   0  0  0  0  0  0  0  0  0  0  0  0
   13.4656    3.5079    4.1227 C   0  0  0  0  0  0  0  0  0  0  0  0
   14.3084    3.1707    4.7050 H   0  0  0  0  0  0  0  0  0  0  0  0
   12.1953    3.4985    4.6864 C   0  0  0  0  0  0  0  0  0  0  0  0
   12.0429    3.1537    5.7002 H   0  0  0  0  0  0  0  0  0  0  0  0
   11.1003    3.8878    4.0423 N   0  0  0  0  0  0  0  0  0  0  0  0
   12.2908    4.8228    0.7348 C   0  0  0  0  0  0  0  0  0  0  0  0
   13.1160    5.0461   -0.1185 O   0  0  0  0  0  0  0  0  0  0  0  0
  1  2  1  0  0  0  0
  1  3  1  0  0  0  0
  3 11  1  0  0  0  0
  3  4  1  0  0  0  0
  4  6  1  0  0  0  0
  5  4  1  0  0  0  0
  6  8  2  0  0  0  0
  6  7  1  0  0  0  0
  8  9  1  0  0  0  0
 10  8  1  0  0  0  0
 11 10  2  0  0  0  0
 12 13  1  0  0  0  0
 12 11  1  0  0  0  0
 13 21  1  0  0  0  0
 14 15  1  0  0  0  0
 14 13  2  0  0  0  0
 16 14  1  0  0  0  0
 17 16  1  0  0  0  0
 18 16  2  0  0  0  0
 18 20  1  0  0  0  0
 19 18  1  0  0  0  0
 20 12  2  0  0  0  0
 21 10  1  0  0  0  0
 21 22  2  0  0  0  0
 23  1  1  0  0  0  0
 24 25  1  0  0  0  0
 24 23  1  0  0  0  0
 26 24  1  0  0  0  0
 27 26  1  0  0  0  0
 28 26  2  0  0  0  0
 28 30  1  0  0  0  0
 29 28  1  0  0  0  0
 30 41  1  0  0  0  0
 30 31  2  0  0  0  0
 31 23  1  0  0  0  0
 31 32  1  0  0  0  0
 32 40  1  0  0  0  0
 33 32  2  0  0  0  0
 33 34  1  0  0  0  0
 34 36  2  0  0  0  0
 35 34  1  0  0  0  0
 36 38  1  0  0  0  0
 36 37  1  0  0  0  0
 38 39  1  0  0  0  0
 40 38  2  0  0  0  0
 41 33  1  0  0  0  0
 42 41  2  0  0  0  0
M  END
$$$$
