CSD_code = UFUVUM | q = 0 | S = 0 | Stoichiometry = C15H41B10ClP2Pd | MND = 4
 OpenBabel04212202103D

 70 74  0  0  1  0  0  0  0  0999 V2000
   -0.0138    1.5663   12.4828 Pd  0  0  0  0  0  0  0  0  0  0  0  0
   -1.1156   -0.4383   12.5551 Cl  0  0  0  0  0  0  0  0  0  0  0  0
    1.2685    3.4003   12.7316 P   0  0  0  0  0  0  0  0  0  0  0  0
    1.4523    0.8391   10.7812 P   0  0  0  0  0  0  0  0  0  0  0  0
    2.5030    3.5815   11.3342 C   0  0  2  0  0  0  0  0  0  0  0  0
    2.5698    2.2819   10.3042 C   0  0  2  0  0  0  0  0  0  0  0  0
   -1.4836    2.1993   13.7992 C   0  0  0  0  0  0  0  0  0  0  0  0
   -1.3741    3.1857   14.2599 H   0  0  0  0  0  0  0  0  0  0  0  0
   -1.5849    1.4613   14.6021 H   0  0  0  0  0  0  0  0  0  0  0  0
   -2.4189    2.1956   13.2229 H   0  0  0  0  0  0  0  0  0  0  0  0
    1.8103    3.7185    9.7845 B   0  0  2  0  0  0  0  0  0  0  0  0
    0.6394    3.7387    9.7583 H   0  0  0  0  0  0  0  0  0  0  0  0
    2.7442    5.0497   10.4474 B   0  0  1  0  0  0  0  0  0  0  0  0
    2.1768    6.0155   10.7777 H   0  0  0  0  0  0  0  0  0  0  0  0
    4.0233    4.3693   11.4343 B   0  0  0  0  0  0  0  0  0  0  0  0
    4.3209    4.8619   12.4601 H   0  0  0  0  0  0  0  0  0  0  0  0
    3.9057    2.6141   11.3338 B   0  0  1  0  0  0  0  0  0  0  0  0
    4.0929    1.9099   12.2522 H   0  0  0  0  0  0  0  0  0  0  0  0
    2.8598    2.8056    8.6964 B   0  0  1  0  0  0  0  0  0  0  0  0
    2.3893    2.1889    7.8150 H   0  0  0  0  0  0  0  0  0  0  0  0
    2.9730    4.5704    8.7630 B   0  0  0  0  0  0  0  0  0  0  0  0
    2.6132    5.2522    7.8761 H   0  0  0  0  0  0  0  0  0  0  0  0
    4.3804    4.9781    9.7991 B   0  0  1  0  0  0  0  0  0  0  0  0
    5.0123    5.9558    9.6400 H   0  0  0  0  0  0  0  0  0  0  0  0
    5.1106    3.4561   10.3665 B   0  0  0  0  0  2  0  0  0  0  0  0
    6.2566    3.3373   10.5980 H   0  0  0  0  0  0  0  0  0  0  0  0
    4.1610    2.1287    9.6641 B   0  0  1  0  0  0  0  0  0  0  0  0
    4.5821    1.0587    9.4446 H   0  0  0  0  0  0  0  0  0  0  0  0
    4.4581    3.5844    8.7039 B   0  0  1  0  0  0  0  0  0  0  0  0
    5.1538    3.5541    7.7575 H   0  0  0  0  0  0  0  0  0  0  0  0
    2.3136    3.0820   14.2691 C   0  0  0  0  0  0  0  0  0  0  0  0
    3.3317    3.4511   14.1013 H   0  0  0  0  0  0  0  0  0  0  0  0
    2.3489    1.5674   14.5066 C   0  0  0  0  0  0  0  0  0  0  0  0
    2.9244    1.3404   15.4032 H   0  0  0  0  0  0  0  0  0  0  0  0
    2.8050    1.0317   13.6738 H   0  0  0  0  0  0  0  0  0  0  0  0
    1.3255    1.1866   14.6515 H   0  0  0  0  0  0  0  0  0  0  0  0
    1.7421    3.7343   15.5271 C   0  0  0  0  0  0  0  0  0  0  0  0
    0.7175    3.4041   15.6923 H   0  0  0  0  0  0  0  0  0  0  0  0
    1.7680    4.8185   15.4834 H   0  0  0  0  0  0  0  0  0  0  0  0
    2.3322    3.4237   16.3885 H   0  0  0  0  0  0  0  0  0  0  0  0
    0.4819    5.0653   13.0596 C   0  0  0  0  0  0  0  0  0  0  0  0
   -0.0628    4.8405   13.9849 H   0  0  0  0  0  0  0  0  0  0  0  0
    1.3905    6.2698   13.3313 C   0  0  0  0  0  0  0  0  0  0  0  0
    1.3987    6.9504   12.4857 H   0  0  0  0  0  0  0  0  0  0  0  0
    2.4174    5.9736   13.5289 H   0  0  0  0  0  0  0  0  0  0  0  0
    1.0240    6.8285   14.1908 H   0  0  0  0  0  0  0  0  0  0  0  0
   -0.5826    5.3495   12.0004 C   0  0  0  0  0  0  0  0  0  0  0  0
   -1.2519    6.1354   12.3458 H   0  0  0  0  0  0  0  0  0  0  0  0
   -1.1766    4.4487   11.8208 H   0  0  0  0  0  0  0  0  0  0  0  0
   -0.1403    5.6689   11.0606 H   0  0  0  0  0  0  0  0  0  0  0  0
    2.6940   -0.5653   10.9452 C   0  0  0  0  0  0  0  0  0  0  0  0
    3.5647   -0.0911   11.4126 H   0  0  0  0  0  0  0  0  0  0  0  0
    2.1404   -1.5812   11.9456 C   0  0  0  0  0  0  0  0  0  0  0  0
    1.2855   -2.1130   11.5372 H   0  0  0  0  0  0  0  0  0  0  0  0
    1.8034   -1.0838   12.8570 H   0  0  0  0  0  0  0  0  0  0  0  0
    2.9072   -2.3078   12.2102 H   0  0  0  0  0  0  0  0  0  0  0  0
    3.1677   -1.2493    9.6579 C   0  0  0  0  0  0  0  0  0  0  0  0
    4.2155   -1.5282    9.7552 H   0  0  0  0  0  0  0  0  0  0  0  0
    3.0724   -0.6061    8.7871 H   0  0  0  0  0  0  0  0  0  0  0  0
    2.6087   -2.1625    9.4732 H   0  0  0  0  0  0  0  0  0  0  0  0
    0.4174    0.4556    9.2587 C   0  0  0  0  0  0  0  0  0  0  0  0
    1.0225    0.5650    8.3524 H   0  0  0  0  0  0  0  0  0  0  0  0
   -0.1316   -0.9691    9.3392 C   0  0  0  0  0  0  0  0  0  0  0  0
   -0.6878   -1.0994   10.2669 H   0  0  0  0  0  0  0  0  0  0  0  0
    0.6482   -1.7192    9.2831 H   0  0  0  0  0  0  0  0  0  0  0  0
   -0.8130   -1.1398    8.5066 H   0  0  0  0  0  0  0  0  0  0  0  0
   -0.7792    1.4143    9.2097 C   0  0  0  0  0  0  0  0  0  0  0  0
   -1.5715    0.9816    8.6013 H   0  0  0  0  0  0  0  0  0  0  0  0
   -0.5204    2.3745    8.7738 H   0  0  0  0  0  0  0  0  0  0  0  0
   -1.1904    1.5669   10.2233 H   0  0  0  0  0  0  0  0  0  0  0  0
  1  2  1  0  0  0  0
  1  3  1  0  0  0  0
  1  7  1  0  0  0  0
  3 41  1  0  0  0  0
  3 31  1  0  0  0  0
  4 51  1  0  0  0  0
  4  1  1  0  0  0  0
  5 15  1  6  0  0  0
  6 17  1  0  0  0  0
  6  5  1  0  0  0  0
  7  8  1  0  0  0  0
  7  9  1  0  0  0  0
 10  7  1  0  0  0  0
 11  6  1  0  0  0  0
 11 13  1  0  0  0  0
 11  5  1  0  0  0  0
 12 11  1  0  0  0  0
 13 14  1  0  0  0  0
 13 15  1  0  0  0  0
 15 16  1  0  0  0  0
 17  5  1  0  0  0  0
 17 18  1  0  0  0  0
 19 21  1  0  0  0  0
 19 27  1  0  0  0  0
 19  6  1  0  0  0  0
 20 19  1  0  0  0  0
 22 21  1  0  0  0  0
 23 25  1  0  0  0  0
 23 13  1  0  0  0  0
 24 23  1  0  0  0  0
 25 26  1  0  0  0  0
 27 17  1  0  0  0  0
 28 27  1  0  0  0  0
 29 21  1  0  0  0  0
 29 27  1  0  0  0  0
 29 23  1  0  0  0  0
 30 29  1  0  0  0  0
 31 33  1  0  0  0  0
 31 37  1  0  0  0  0
 32 31  1  0  0  0  0
 33 36  1  0  0  0  0
 33 34  1  0  0  0  0
 35 33  1  0  0  0  0
 37 38  1  0  0  0  0
 37 40  1  0  0  0  0
 39 37  1  0  0  0  0
 41 43  1  0  0  0  0
 41 42  1  0  0  0  0
 43 45  1  0  0  0  0
 43 46  1  0  0  0  0
 44 43  1  0  0  0  0
 47 48  1  0  0  0  0
 47 41  1  0  0  0  0
 49 47  1  0  0  0  0
 50 47  1  0  0  0  0
 51 52  1  0  0  0  0
 51 53  1  0  0  0  0
 53 56  1  0  0  0  0
 53 55  1  0  0  0  0
 54 53  1  0  0  0  0
 57 58  1  0  0  0  0
 57 51  1  0  0  0  0
 59 57  1  0  0  0  0
 60 57  1  0  0  0  0
 61 63  1  0  0  0  0
 61  4  1  0  0  0  0
 62 61  1  0  0  0  0
 63 64  1  0  0  0  0
 65 63  1  0  0  0  0
 66 63  1  0  0  0  0
 67 61  1  0  0  0  0
 67 70  1  0  0  0  0
 68 67  1  0  0  0  0
 69 67  1  0  0  0  0
M  END
$$$$
