CSD_code = UGAFIS | q = 0 | S = 0 | Stoichiometry = C11H9Cl2N5Zn | MND = 5
 OpenBabel04212202103D

 28 32  0  0  1  0  0  0  0  0999 V2000
    5.1161    2.4106    0.7961 C   0  0  0  0  0  3  0  0  0  0  0  0
    4.8687    2.8279    1.7521 H   0  0  0  0  0  0  0  0  0  0  0  0
    4.4905    2.6041   -0.4497 C   0  0  0  0  0  0  0  0  0  0  0  0
    3.6412    3.2195   -0.6623 H   0  0  0  0  0  0  0  0  0  0  0  0
    5.2098    1.8399   -1.3289 C   0  0  0  0  0  0  0  0  0  0  0  0
    5.0855    1.6884   -2.3813 H   0  0  0  0  0  0  0  0  0  0  0  0
    7.2135    0.3947   -1.0347 C   0  0  1  0  0  3  0  0  0  0  0  0
    7.4947    0.1025   -2.3666 C   0  0  0  0  0  0  0  0  0  0  0  0
    6.9006    0.5017   -3.1705 H   0  0  0  0  0  0  0  0  0  0  0  0
    8.5940   -0.7006   -2.6269 C   0  0  0  0  0  0  0  0  0  0  0  0
    8.8485   -0.9447   -3.6467 H   0  0  0  0  0  0  0  0  0  0  0  0
    9.3889   -1.1644   -1.5906 C   0  0  0  0  0  0  0  0  0  0  0  0
   10.2684   -1.7518   -1.7907 H   0  0  0  0  0  0  0  0  0  0  0  0
    9.0230   -0.8141   -0.2938 C   0  0  0  0  0  0  0  0  0  0  0  0
   10.8504   -1.9233    0.9791 C   0  0  0  0  0  3  0  0  0  0  0  0
   11.2877   -2.4520    0.1575 H   0  0  0  0  0  0  0  0  0  0  0  0
   11.2116   -1.8755    2.2988 C   0  0  0  0  0  0  0  0  0  0  0  0
   12.0339   -2.3730    2.7694 H   0  0  0  0  0  0  0  0  0  0  0  0
   10.2696   -1.0218    2.9027 C   0  0  0  0  0  0  0  0  0  0  0  0
   10.1908   -0.7136    3.9265 H   0  0  0  0  0  0  0  0  0  0  0  0
    7.1447    1.0959    3.8440 Cl  0  0  0  0  0  0  0  0  0  0  0  0
    9.3435    2.4662    0.7000 Cl  0  0  0  0  0  0  0  0  0  0  0  0
    7.9422   -0.0937   -0.0450 N   0  0  0  0  0  0  0  0  0  0  0  0
    9.7500   -1.1399    0.8396 N   0  0  0  0  0  0  0  0  0  0  0  0
    9.4056   -0.5968    2.0135 N   0  0  0  0  0  0  0  0  0  0  0  0
    6.1938    1.2338   -0.6160 N   0  0  0  0  0  0  0  0  0  0  0  0
    6.1284    1.5873    0.6734 N   0  0  1  0  0  0  0  0  0  0  0  0
    7.9622    1.0803    1.8196 Zn  0  0  0  0  0  0  0  0  0  0  0  0
  1  2  1  0  0  0  0
  3  1  1  0  0  0  0
  4  3  1  0  0  0  0
  5 26  1  0  0  0  0
  5  3  2  0  0  0  0
  6  5  1  0  0  0  0
  7  8  1  6  0  0  0
  7 26  1  0  0  0  0
  7 23  1  0  0  0  0
  9  8  1  0  0  0  0
 10  8  2  0  0  0  0
 10 12  1  0  0  0  0
 11 10  1  0  0  0  0
 12 14  2  0  0  0  0
 13 12  1  0  0  0  0
 14 23  1  0  0  0  0
 14 24  1  0  0  0  0
 15 17  1  0  0  0  0
 16 15  1  0  0  0  0
 17 18  1  0  0  0  0
 17 19  2  0  0  0  0
 19 20  1  0  0  0  0
 22 28  1  0  0  0  0
 23 28  1  0  0  0  0
 24 15  1  0  0  0  0
 24 25  1  0  0  0  0
 25 19  1  0  0  0  0
 26 27  1  0  0  0  0
 27  1  1  6  0  0  0
 27 28  1  0  0  0  0
 28 25  1  0  0  0  0
 28 21  1  0  0  0  0
M  END
$$$$
