CSD_code = UGANOH | q = 0 | S = 0 | Stoichiometry = C18H20Cl2N2O3PtS | MND = 4
 OpenBabel04212202103D

 47 49  0  0  1  0  0  0  0  0999 V2000
    0.9603    0.5992    3.1995 Pt  0  0  0  0  0  0  0  0  0  0  0  0
    1.6032   -1.2734    4.2897 Cl  0  0  0  0  0  0  0  0  0  0  0  0
    1.6340   -0.1974    1.1873 Cl  0  0  0  0  0  0  0  0  0  0  0  0
    0.3140    1.3334    5.2846 S   0  0  0  0  0  0  0  0  0  0  0  0
    3.3329    6.6064    0.6988 O   0  0  0  0  0  0  0  0  0  0  0  0
   -1.8340    6.1706    1.5554 O   0  0  0  0  0  0  0  0  0  0  0  0
   -0.2667    2.6698    5.3498 O   0  0  0  0  0  1  0  0  0  0  0  0
    0.3723    2.3004    2.3843 N   0  0  0  0  0  0  0  0  0  0  0  0
   -1.9358    4.8732    1.9697 N   0  0  0  0  0  0  0  0  0  0  0  0
    1.2419    3.2996    1.9598 C   0  0  0  0  0  0  0  0  0  0  0  0
    2.6101    3.2267    1.7738 C   0  0  0  0  0  0  0  0  0  0  0  0
    3.1430    2.3015    1.9442 H   0  0  0  0  0  0  0  0  0  0  0  0
    3.2592    4.3701    1.3461 C   0  0  0  0  0  0  0  0  0  0  0  0
    4.3245    4.3693    1.1800 H   0  0  0  0  0  0  0  0  0  0  0  0
    2.5680    5.5653    1.1097 C   0  0  0  0  0  0  0  0  0  0  0  0
    1.1838    5.6354    1.3009 C   0  0  0  0  0  0  0  0  0  0  0  0
    0.6243    6.5397    1.1296 H   0  0  0  0  0  0  0  0  0  0  0  0
   -0.8572    4.1868    2.0333 C   0  0  0  0  0  0  0  0  0  0  0  0
   -0.8458    2.7765    2.4397 C   0  0  2  0  0  3  0  0  0  0  0  0
   -1.9800    1.9849    2.8690 C   0  0  0  0  0  0  0  0  0  0  0  0
    0.5375    4.4921    1.7269 C   0  0  0  0  0  0  0  0  0  0  0  0
   -2.0180    0.6094    2.6062 C   0  0  0  0  0  0  0  0  0  0  0  0
   -1.2612    0.1534    1.9746 H   0  0  0  0  0  0  0  0  0  0  0  0
   -3.0665   -0.1580    3.0794 C   0  0  0  0  0  0  0  0  0  0  0  0
   -3.0905   -1.2164    2.8691 H   0  0  0  0  0  0  0  0  0  0  0  0
   -4.0836    0.4283    3.8177 C   0  0  0  0  0  0  0  0  0  0  0  0
   -4.8953   -0.1758    4.1950 H   0  0  0  0  0  0  0  0  0  0  0  0
   -4.0621    1.7937    4.0606 C   0  0  0  0  0  0  0  0  0  0  0  0
   -4.8592    2.2514    4.6275 H   0  0  0  0  0  0  0  0  0  0  0  0
   -3.0239    2.5717    3.5866 C   0  0  0  0  0  0  0  0  0  0  0  0
   -2.9898    3.6292    3.7876 H   0  0  0  0  0  0  0  0  0  0  0  0
   -3.1040    6.7950    1.5368 C   0  0  0  0  0  0  0  0  0  0  0  0
   -2.9366    7.7820    1.1114 H   0  0  0  0  0  0  0  0  0  0  0  0
   -3.5071    6.8863    2.5481 H   0  0  0  0  0  0  0  0  0  0  0  0
   -3.8046    6.2307    0.9182 H   0  0  0  0  0  0  0  0  0  0  0  0
    2.7114    7.8404    0.4241 C   0  0  0  0  0  0  0  0  0  0  0  0
    3.5111    8.5064    0.1045 H   0  0  0  0  0  0  0  0  0  0  0  0
    2.2303    8.2547    1.3157 H   0  0  0  0  0  0  0  0  0  0  0  0
    1.9743    7.7480   -0.3795 H   0  0  0  0  0  0  0  0  0  0  0  0
   -0.8260    0.2016    6.1373 C   0  0  0  0  0  0  0  0  0  0  0  0
   -1.7608    0.1974    5.5870 H   0  0  0  0  0  0  0  0  0  0  0  0
   -0.9858    0.5607    7.1469 H   0  0  0  0  0  0  0  0  0  0  0  0
   -0.3694   -0.7813    6.1235 H   0  0  0  0  0  0  0  0  0  0  0  0
    1.6789    1.2819    6.4863 C   0  0  0  0  0  0  0  0  0  0  0  0
    2.4306    1.9933    6.1602 H   0  0  0  0  0  0  0  0  0  0  0  0
    2.0788    0.2743    6.4763 H   0  0  0  0  0  0  0  0  0  0  0  0
    1.3004    1.5590    7.4632 H   0  0  0  0  0  0  0  0  0  0  0  0
  1  2  1  0  0  0  0
  1  4  1  0  0  0  0
  3  1  1  0  0  0  0
  4  7  1  0  0  0  0
  4 40  1  0  0  0  0
  4 44  1  0  0  0  0
  5 15  1  0  0  0  0
  6  9  1  0  0  0  0
  8 19  1  0  0  0  0
  8  1  1  0  0  0  0
  9 18  2  0  0  0  0
 10  8  1  0  0  0  0
 11 12  1  0  0  0  0
 11 10  1  0  0  0  0
 13 11  2  0  0  0  0
 14 13  1  0  0  0  0
 15 16  2  0  0  0  0
 15 13  1  0  0  0  0
 16 21  1  0  0  0  0
 17 16  1  0  0  0  0
 18 19  1  0  0  0  0
 19 20  1  1  0  0  0
 20 30  1  0  0  0  0
 21 10  2  0  0  0  0
 21 18  1  0  0  0  0
 22 20  2  0  0  0  0
 22 24  1  0  0  0  0
 23 22  1  0  0  0  0
 24 26  2  0  0  0  0
 25 24  1  0  0  0  0
 26 28  1  0  0  0  0
 26 27  1  0  0  0  0
 28 29  1  0  0  0  0
 30 31  1  0  0  0  0
 30 28  2  0  0  0  0
 32  6  1  0  0  0  0
 32 34  1  0  0  0  0
 33 32  1  0  0  0  0
 35 32  1  0  0  0  0
 36  5  1  0  0  0  0
 36 38  1  0  0  0  0
 37 36  1  0  0  0  0
 39 36  1  0  0  0  0
 40 42  1  0  0  0  0
 41 40  1  0  0  0  0
 43 40  1  0  0  0  0
 44 47  1  0  0  0  0
 45 44  1  0  0  0  0
 46 44  1  0  0  0  0
M  END
$$$$
