CSD_code = UGANUN | q = 0 | S = 0 | Stoichiometry = C18H20Cl2N2O3PtS | MND = 4
 OpenBabel04212202103D

 47 49  0  0  1  0  0  0  0  0999 V2000
    7.0592    2.9022    4.0010 Pt  0  0  0  0  0  0  0  0  0  0  0  0
    8.8666    1.4619    4.2900 Cl  0  0  0  0  0  0  0  0  0  0  0  0
    5.3032    4.3243    3.6492 Cl  0  0  0  0  0  0  0  0  0  0  0  0
    7.9404    3.3642    1.9758 S   0  0  0  0  0  0  0  0  0  0  0  0
    6.5424    5.3790   10.4190 O   0  0  0  0  0  0  0  0  0  0  0  0
    5.2306    0.3572    9.6456 O   0  0  0  0  0  0  0  0  0  0  0  0
    7.3118    4.3157    1.0843 O   0  0  0  0  0  1  0  0  0  0  0  0
    6.4049    2.4266    5.7878 N   0  0  0  0  0  0  0  0  0  0  0  0
    5.4084    0.2272    8.2987 N   0  0  0  0  0  0  0  0  0  0  0  0
    6.4797    3.2946    6.8764 C   0  0  0  0  0  0  0  0  0  0  0  0
    6.8485    4.6280    6.8924 C   0  0  0  0  0  0  0  0  0  0  0  0
    7.1132    5.1386    5.9769 H   0  0  0  0  0  0  0  0  0  0  0  0
    6.8475    5.2774    8.1126 C   0  0  0  0  0  0  0  0  0  0  0  0
    7.1216    6.3177    8.1837 H   0  0  0  0  0  0  0  0  0  0  0  0
    6.4928    4.6201    9.2980 C   0  0  0  0  0  0  0  0  0  0  0  0
    6.1226    3.2709    9.2782 C   0  0  0  0  0  0  0  0  0  0  0  0
    5.8461    2.7369   10.1718 H   0  0  0  0  0  0  0  0  0  0  0  0
    6.1215    2.6248    8.0574 C   0  0  0  0  0  0  0  0  0  0  0  0
    5.8080    1.2574    7.6521 C   0  0  0  0  0  0  0  0  0  0  0  0
    6.0170    1.2420    6.1976 C   0  0  2  0  0  3  0  0  0  0  0  0
    5.8530    0.1085    5.3104 C   0  0  0  0  0  0  0  0  0  0  0  0
    5.4461    0.3084    3.9851 C   0  0  0  0  0  0  0  0  0  0  0  0
    5.1410    1.2990    3.6558 H   0  0  0  0  0  0  0  0  0  0  0  0
    5.3540   -0.7645    3.1198 C   0  0  0  0  0  0  0  0  0  0  0  0
    5.0341   -0.6050    2.1008 H   0  0  0  0  0  0  0  0  0  0  0  0
    5.6614   -2.0440    3.5562 C   0  0  0  0  0  0  0  0  0  0  0  0
    5.5991   -2.8780    2.8732 H   0  0  0  0  0  0  0  0  0  0  0  0
    6.0416   -2.2514    4.8728 C   0  0  0  0  0  0  0  0  0  0  0  0
    6.2760   -3.2484    5.2149 H   0  0  0  0  0  0  0  0  0  0  0  0
    6.1334   -1.1875    5.7486 C   0  0  0  0  0  0  0  0  0  0  0  0
    6.4467   -1.3406    6.7682 H   0  0  0  0  0  0  0  0  0  0  0  0
    6.1962    4.7947   11.6532 C   0  0  0  0  0  0  0  0  0  0  0  0
    6.3076    5.5857   12.3929 H   0  0  0  0  0  0  0  0  0  0  0  0
    6.8647    3.9660   11.9064 H   0  0  0  0  0  0  0  0  0  0  0  0
    5.1603    4.4422   11.6536 H   0  0  0  0  0  0  0  0  0  0  0  0
    4.7975   -0.8631   10.2180 C   0  0  0  0  0  0  0  0  0  0  0  0
    4.5905   -0.6373   11.2617 H   0  0  0  0  0  0  0  0  0  0  0  0
    5.5784   -1.6241   10.1474 H   0  0  0  0  0  0  0  0  0  0  0  0
    3.8943   -1.2249    9.7230 H   0  0  0  0  0  0  0  0  0  0  0  0
    9.6926    3.8335    2.0999 C   0  0  0  0  0  0  0  0  0  0  0  0
    9.7405    4.7959    2.5993 H   0  0  0  0  0  0  0  0  0  0  0  0
   10.0974    3.9154    1.0978 H   0  0  0  0  0  0  0  0  0  0  0  0
   10.2037    3.0755    2.6822 H   0  0  0  0  0  0  0  0  0  0  0  0
    8.1347    1.8131    1.0450 C   0  0  0  0  0  0  0  0  0  0  0  0
    7.1411    1.4312    0.8338 H   0  0  0  0  0  0  0  0  0  0  0  0
    8.6871    1.1161    1.6647 H   0  0  0  0  0  0  0  0  0  0  0  0
    8.6537    2.0293    0.1184 H   0  0  0  0  0  0  0  0  0  0  0  0
  1  2  1  0  0  0  0
  1  8  1  0  0  0  0
  3  1  1  0  0  0  0
  4 40  1  0  0  0  0
  4  1  1  0  0  0  0
  5 32  1  0  0  0  0
  6 36  1  0  0  0  0
  7  4  1  0  0  0  0
  8 20  1  0  0  0  0
  8 10  1  0  0  0  0
  9  6  1  0  0  0  0
 10 11  2  0  0  0  0
 10 18  1  0  0  0  0
 11 13  1  0  0  0  0
 12 11  1  0  0  0  0
 13 14  1  0  0  0  0
 13 15  2  0  0  0  0
 15  5  1  0  0  0  0
 16 15  1  0  0  0  0
 16 17  1  0  0  0  0
 18 16  2  0  0  0  0
 19 18  1  0  0  0  0
 19  9  2  0  0  0  0
 20 21  1  1  0  0  0
 20 19  1  0  0  0  0
 21 30  1  0  0  0  0
 22 21  2  0  0  0  0
 23 22  1  0  0  0  0
 24 26  2  0  0  0  0
 24 22  1  0  0  0  0
 25 24  1  0  0  0  0
 26 28  1  0  0  0  0
 27 26  1  0  0  0  0
 28 29  1  0  0  0  0
 28 30  2  0  0  0  0
 30 31  1  0  0  0  0
 32 35  1  0  0  0  0
 32 34  1  0  0  0  0
 32 33  1  0  0  0  0
 36 37  1  0  0  0  0
 38 36  1  0  0  0  0
 39 36  1  0  0  0  0
 40 41  1  0  0  0  0
 40 43  1  0  0  0  0
 42 40  1  0  0  0  0
 44 46  1  0  0  0  0
 44  4  1  0  0  0  0
 45 44  1  0  0  0  0
 47 44  1  0  0  0  0
M  END
$$$$
