CSD_code = UGATUT | q = 0 | S = 0 | Stoichiometry = C12H8Cl2N2O4Pt | MND = 4
 OpenBabel04212202103D

 29 31  0  0  0  0  0  0  0  0999 V2000
    3.0619    1.8380   17.8889 Pt  0  0  0  0  0  0  0  0  0  0  0  0
    9.2834    0.3916   17.4428 H   0  0  0  0  0  0  0  0  0  0  0  0
    1.3431    1.9491   19.3018 Cl  0  0  0  0  0  0  0  0  0  0  0  0
    4.3297    1.1488   19.5884 Cl  0  0  0  0  0  0  0  0  0  0  0  0
   -2.0205    3.4566   16.1655 O   0  0  0  0  0  0  0  0  0  0  0  0
   -1.8325    3.9416   13.9938 O   0  0  0  0  0  0  0  0  0  0  0  0
   -2.7754    4.1537   14.0799 H   0  0  0  0  0  0  0  0  0  0  0  0
    8.3600    0.6553   17.3029 O   0  0  0  0  0  0  0  0  0  0  0  0
    9.0046    0.9489   15.1837 O   0  0  0  0  0  0  0  0  0  0  0  0
    2.0285    2.4489   16.2910 N   0  0  0  0  0  0  0  0  0  0  0  0
    4.5262    1.7771   16.5334 N   0  0  0  0  0  0  0  0  0  0  0  0
    0.7395    2.7720   16.2659 C   0  0  0  0  0  0  0  0  0  0  0  0
    0.1952    2.6945   17.2011 H   0  0  0  0  0  0  0  0  0  0  0  0
    0.0974    3.1923   15.1094 C   0  0  0  0  0  0  0  0  0  0  0  0
   -1.3479    3.5333   15.1738 C   0  0  0  0  0  0  0  0  0  0  0  0
    0.8321    3.2803   13.9227 C   0  0  0  0  0  0  0  0  0  0  0  0
    0.3547    3.6048   13.0125 H   0  0  0  0  0  0  0  0  0  0  0  0
    2.1677    2.9438   13.9503 C   0  0  0  0  0  0  0  0  0  0  0  0
    2.7557    3.0027   13.0495 H   0  0  0  0  0  0  0  0  0  0  0  0
    2.7572    2.5269   15.1471 C   0  0  0  0  0  0  0  0  0  0  0  0
    4.1537    2.1495   15.2822 C   0  0  0  0  0  0  0  0  0  0  0  0
    5.7849    1.4116   16.7633 C   0  0  0  0  0  0  0  0  0  0  0  0
    6.0230    1.1253   17.7814 H   0  0  0  0  0  0  0  0  0  0  0  0
    6.7447    1.3946   15.7635 C   0  0  0  0  0  0  0  0  0  0  0  0
    8.1491    0.9828   16.0301 C   0  0  0  0  0  0  0  0  0  0  0  0
    6.3794    1.7750   14.4674 C   0  0  0  0  0  0  0  0  0  0  0  0
    7.1221    1.7636   13.6851 H   0  0  0  0  0  0  0  0  0  0  0  0
    5.0769    2.1534   14.2317 C   0  0  0  0  0  0  0  0  0  0  0  0
    4.7719    2.4503   13.2421 H   0  0  0  0  0  0  0  0  0  0  0  0
  1  3  1  0  0  0  0
  1  4  1  0  0  0  0
  6  7  1  0  0  0  0
  6 15  1  0  0  0  0
  8  2  1  0  0  0  0
  9 25  2  0  0  0  0
 10  1  1  0  0  0  0
 11 22  1  0  0  0  0
 11  1  1  0  0  0  0
 12 10  1  0  0  0  0
 12 13  1  0  0  0  0
 14 15  1  0  0  0  0
 14 12  2  0  0  0  0
 15  5  2  0  0  0  0
 16 18  2  0  0  0  0
 16 14  1  0  0  0  0
 17 16  1  0  0  0  0
 18 20  1  0  0  0  0
 19 18  1  0  0  0  0
 20 21  2  0  0  0  0
 20 10  1  0  0  0  0
 21 11  1  0  0  0  0
 22 23  1  0  0  0  0
 24 25  1  0  0  0  0
 24 22  2  0  0  0  0
 25  8  1  0  0  0  0
 26 24  1  0  0  0  0
 27 26  1  0  0  0  0
 28 26  2  0  0  0  0
 28 21  1  0  0  0  0
 29 28  1  0  0  0  0
M  END
$$$$
