CSD_code = UGATON | q = 0 | S = 0 | Stoichiometry = C12H8Br2N2O4Pt | MND = 4
 OpenBabel04212202103D

 29 31  0  0  0  0  0  0  0  0999 V2000
    4.6402    1.6049    7.2114 Pt  0  0  0  0  0  0  0  0  0  0  0  0
    3.6588    1.9829    5.0907 Br  0  0  0  0  0  0  0  0  0  0  0  0
    6.5080    0.6523    6.1099 Br  0  0  0  0  0  0  0  0  0  0  0  0
    5.3649    1.3472    9.0872 N   0  0  0  0  0  0  0  0  0  0  0  0
    3.1038    2.3958    8.2763 N   0  0  0  0  0  0  0  0  0  0  0  0
   -1.1512    4.3936    8.8580 O   0  0  0  0  0  0  0  0  0  0  0  0
    8.6553   -0.0707   12.2091 O   0  0  0  0  0  0  0  0  0  0  0  0
    8.9273   -0.3781   10.0115 O   0  0  0  0  0  0  0  0  0  0  0  0
    4.5502    1.8085   10.0686 C   0  0  0  0  0  0  0  0  0  0  0  0
   -0.4401    3.9995    6.7770 O   0  0  0  0  0  0  0  0  0  0  0  0
    4.9269    1.7273   11.4137 C   0  0  0  0  0  0  0  0  0  0  0  0
    3.2917    2.3758    9.6203 C   0  0  0  0  0  0  0  0  0  0  0  0
    0.9674    3.4084    8.6031 C   0  0  0  0  0  0  0  0  0  0  0  0
    2.3139    2.8681   10.4904 C   0  0  0  0  0  0  0  0  0  0  0  0
    1.9734    2.9013    7.7931 C   0  0  0  0  0  0  0  0  0  0  0  0
    6.5298    0.7953    9.4183 C   0  0  0  0  0  0  0  0  0  0  0  0
    1.1417    3.3879    9.9892 C   0  0  0  0  0  0  0  0  0  0  0  0
    6.9536    0.6753   10.7319 C   0  0  0  0  0  0  0  0  0  0  0  0
   -0.2583    3.9536    7.9626 C   0  0  0  0  0  0  0  0  0  0  0  0
    6.1330    1.1601   11.7546 C   0  0  0  0  0  0  0  0  0  0  0  0
    8.2562    0.0455   11.0794 C   0  0  0  0  0  0  0  0  0  0  0  0
    7.1561    0.4321    8.6139 H   0  0  0  0  0  0  0  0  0  0  0  0
    1.8399    2.9143    6.7179 H   0  0  0  0  0  0  0  0  0  0  0  0
    0.3738    3.7713   10.6409 H   0  0  0  0  0  0  0  0  0  0  0  0
    4.2766    2.1091   12.1823 H   0  0  0  0  0  0  0  0  0  0  0  0
    2.4740    2.8390   11.5550 H   0  0  0  0  0  0  0  0  0  0  0  0
    9.7696   -0.7846   10.2703 H   0  0  0  0  0  0  0  0  0  0  0  0
   -1.9343    4.7401    8.4017 H   0  0  0  0  0  0  0  0  0  0  0  0
    6.4585    1.0787   12.7797 H   0  0  0  0  0  0  0  0  0  0  0  0
  1  5  1  0  0  0  0
  1  4  1  0  0  0  0
  2  1  1  0  0  0  0
  3  1  1  0  0  0  0
  4 16  1  0  0  0  0
  4  9  1  0  0  0  0
  5 12  1  0  0  0  0
  8 27  1  0  0  0  0
  8 21  1  0  0  0  0
  9 11  1  0  0  0  0
 10 19  2  0  0  0  0
 11 20  2  0  0  0  0
 11 25  1  0  0  0  0
 12  9  2  0  0  0  0
 12 14  1  0  0  0  0
 13 17  1  0  0  0  0
 14 26  1  0  0  0  0
 15  5  1  0  0  0  0
 15 13  2  0  0  0  0
 16 18  2  0  0  0  0
 17 14  2  0  0  0  0
 17 24  1  0  0  0  0
 18 21  1  0  0  0  0
 18 20  1  0  0  0  0
 19 13  1  0  0  0  0
 19  6  1  0  0  0  0
 20 29  1  0  0  0  0
 21  7  2  0  0  0  0
 22 16  1  0  0  0  0
 23 15  1  0  0  0  0
 28  6  1  0  0  0  0
M  END
$$$$
