CSD_code = UGAVAB | q = 0 | S = 0 | Stoichiometry = C12H8Br4N2O4Pt | MND = 6
 OpenBabel04212202103D

 31 33  0  0  0  0  0  0  0  0999 V2000
   -5.6954    9.7076    5.6424 Pt  0  0  0  0  0  0  0  0  0  0  0  0
   -7.5532   10.4834    7.2068 Br  0  0  0  0  0  0  0  0  0  0  0  0
   -3.6773    9.2285    4.1637 Br  0  0  0  0  0  0  0  0  0  0  0  0
   -7.2749    8.9451    3.9385 Br  0  0  0  0  0  0  0  0  0  0  0  0
   -5.7169    7.4433    6.5542 Br  0  0  0  0  0  0  0  0  0  0  0  0
   -5.5857   11.7241    4.9981 N   0  0  0  0  0  0  0  0  0  0  0  0
   -7.7116   13.4164    1.8507 O   0  0  0  0  0  0  0  0  0  0  0  0
   -4.3141   10.5212    7.0270 N   0  0  0  0  0  0  0  0  0  0  0  0
   -6.9559   15.4395    2.4295 O   0  0  0  0  0  0  0  0  0  0  0  0
   -7.4934   15.7399    1.6789 H   0  0  0  0  0  0  0  0  0  0  0  0
   -1.1671   10.1035   10.5429 O   0  0  0  0  0  0  0  0  0  0  0  0
   -2.4619    8.3838    9.9325 O   0  0  0  0  0  0  0  0  0  0  0  0
   -1.9940    7.8936   10.6277 H   0  0  0  0  0  0  0  0  0  0  0  0
   -4.7932   12.4956    5.7626 C   0  0  0  0  0  0  0  0  0  0  0  0
   -4.7231   13.8704    5.5351 C   0  0  0  0  0  0  0  0  0  0  0  0
   -4.1131   14.4975    6.1628 H   0  0  0  0  0  0  0  0  0  0  0  0
   -2.4033   11.7511    8.5778 C   0  0  0  0  0  0  0  0  0  0  0  0
   -1.6432   12.2091    9.1925 H   0  0  0  0  0  0  0  0  0  0  0  0
   -3.0644   12.4591    7.5935 C   0  0  0  0  0  0  0  0  0  0  0  0
   -2.8182   13.4926    7.4186 H   0  0  0  0  0  0  0  0  0  0  0  0
   -6.2827   12.2457    4.0074 C   0  0  0  0  0  0  0  0  0  0  0  0
   -6.9034   11.5840    3.4120 H   0  0  0  0  0  0  0  0  0  0  0  0
   -4.0379   11.8203    6.8234 C   0  0  0  0  0  0  0  0  0  0  0  0
   -3.6939    9.8325    7.9668 C   0  0  0  0  0  0  0  0  0  0  0  0
   -3.9629    8.7893    8.0866 H   0  0  0  0  0  0  0  0  0  0  0  0
   -2.7266   10.4119    8.7798 C   0  0  0  0  0  0  0  0  0  0  0  0
   -6.2429   13.6055    3.7132 C   0  0  0  0  0  0  0  0  0  0  0  0
   -5.4528   14.4329    4.5051 C   0  0  0  0  0  0  0  0  0  0  0  0
   -5.4156   15.4933    4.3117 H   0  0  0  0  0  0  0  0  0  0  0  0
   -7.0525   14.1153    2.5674 C   0  0  0  0  0  0  0  0  0  0  0  0
   -2.0264    9.6342    9.8464 C   0  0  0  0  0  0  0  0  0  0  0  0
  1  5  1  0  0  0  0
  1  8  1  0  0  0  0
  1  2  1  0  0  0  0
  3  1  1  0  0  0  0
  4  1  1  0  0  0  0
  6  1  1  0  0  0  0
  6 14  1  0  0  0  0
  7 30  2  0  0  0  0
  8 24  1  0  0  0  0
  9 30  1  0  0  0  0
 10  9  1  0  0  0  0
 12 13  1  0  0  0  0
 14 23  2  0  0  0  0
 15 14  1  0  0  0  0
 15 16  1  0  0  0  0
 17 26  1  0  0  0  0
 17 18  1  0  0  0  0
 19 17  2  0  0  0  0
 20 19  1  0  0  0  0
 21  6  1  0  0  0  0
 22 21  1  0  0  0  0
 23  8  1  0  0  0  0
 23 19  1  0  0  0  0
 24 25  1  0  0  0  0
 24 26  2  0  0  0  0
 26 31  1  0  0  0  0
 27 21  2  0  0  0  0
 27 28  1  0  0  0  0
 28 15  2  0  0  0  0
 29 28  1  0  0  0  0
 30 27  1  0  0  0  0
 31 12  1  0  0  0  0
 31 11  2  0  0  0  0
M  END
$$$$
