CSD_code = UGAWEE | q = 0 | S = 0 | Stoichiometry = C30H28Br2N2Ni | MND = 4
 OpenBabel04212202103D

 63 68  0  0  0  0  0  0  0  0999 V2000
    0.0000    5.0603    4.4141 Ni  0  0  0  0  0  0  0  0  0  0  0  0
   -0.5590    6.5743    2.8918 Br  0  0  0  0  0  0  0  0  0  0  0  0
    1.0512    3.5931    5.2257 N   0  0  0  0  0  0  0  0  0  0  0  0
    0.6018    2.4535    4.8331 C   0  0  0  0  0  0  0  0  0  0  0  0
    1.0025    1.0689    5.0407 C   0  0  0  0  0  0  0  0  0  0  0  0
    2.0477    0.4326    5.6653 C   0  0  0  0  0  0  0  0  0  0  0  0
    2.8415    0.9826    6.1482 H   0  0  0  0  0  0  0  0  0  0  0  0
    2.0669   -0.9744    5.6642 C   0  0  0  0  0  0  0  0  0  0  0  0
    2.8900   -1.4705    6.1571 H   0  0  0  0  0  0  0  0  0  0  0  0
    1.0857   -1.7324    5.0719 C   0  0  0  0  0  0  0  0  0  0  0  0
    1.1383   -2.8107    5.1037 H   0  0  0  0  0  0  0  0  0  0  0  0
   -0.0001   -1.1108    4.4142 C   0  0  0  0  0  0  0  0  0  0  0  0
    0.0000    0.2868    4.4141 C   0  0  0  0  0  0  0  0  0  0  0  0
    2.1988    3.7113    6.0199 C   0  0  0  0  0  0  0  0  0  0  0  0
    3.3506    4.2557    5.4385 C   0  0  0  0  0  0  0  0  0  0  0  0
    4.4800    4.4037    6.2218 C   0  0  0  0  0  0  0  0  0  0  0  0
    5.3740    4.8193    5.7803 H   0  0  0  0  0  0  0  0  0  0  0  0
    4.4827    4.0483    7.5651 C   0  0  0  0  0  0  0  0  0  0  0  0
    3.3160    3.5495    8.1250 C   0  0  0  0  0  0  0  0  0  0  0  0
    3.2938    3.3012    9.1764 H   0  0  0  0  0  0  0  0  0  0  0  0
    2.1628    3.3772    7.3764 C   0  0  0  0  0  0  0  0  0  0  0  0
    3.3316    4.6576    3.9957 C   0  0  0  0  0  0  0  0  0  0  0  0
    2.4224    5.2392    3.7728 H   0  0  0  0  0  0  0  0  0  0  0  0
    3.3323    3.7808    3.3447 H   0  0  0  0  0  0  0  0  0  0  0  0
    4.1939    5.2719    3.7527 H   0  0  0  0  0  0  0  0  0  0  0  0
    5.7180    4.2390    8.3895 C   0  0  0  0  0  0  0  0  0  0  0  0
    5.5958    3.8123    9.3817 H   0  0  0  0  0  0  0  0  0  0  0  0
    5.9334    5.3017    8.4952 H   0  0  0  0  0  0  0  0  0  0  0  0
    6.5763    3.7722    7.9084 H   0  0  0  0  0  0  0  0  0  0  0  0
    0.8887    2.9031    8.0077 C   0  0  0  0  0  0  0  0  0  0  0  0
    0.9834    2.8963    9.0900 H   0  0  0  0  0  0  0  0  0  0  0  0
    0.6303    1.8949    7.6789 H   0  0  0  0  0  0  0  0  0  0  0  0
    0.0688    3.5694    7.7378 H   0  0  0  0  0  0  0  0  0  0  0  0
    0.5589    6.5743    5.9366 Br  0  0  0  0  0  0  0  0  0  0  0  0
   -0.6017    2.4536    3.9950 C   0  0  0  0  0  0  0  0  0  0  0  0
   -1.0510    3.5931    3.6023 N   0  0  0  0  0  0  0  0  0  0  0  0
   -2.1987    3.7113    2.8082 C   0  0  0  0  0  0  0  0  0  0  0  0
   -3.3505    4.2556    3.3897 C   0  0  0  0  0  0  0  0  0  0  0  0
   -4.4799    4.4036    2.6065 C   0  0  0  0  0  0  0  0  0  0  0  0
   -5.3740    4.8191    3.0482 H   0  0  0  0  0  0  0  0  0  0  0  0
   -4.4828    4.0482    1.2632 C   0  0  0  0  0  0  0  0  0  0  0  0
   -3.3161    3.5495    0.7032 C   0  0  0  0  0  0  0  0  0  0  0  0
   -3.2939    3.3012   -0.3482 H   0  0  0  0  0  0  0  0  0  0  0  0
   -2.1628    3.3773    1.4518 C   0  0  0  0  0  0  0  0  0  0  0  0
   -0.8888    2.9032    0.8203 C   0  0  0  0  0  0  0  0  0  0  0  0
   -0.9836    2.8962   -0.2620 H   0  0  0  0  0  0  0  0  0  0  0  0
   -0.6302    1.8950    1.1492 H   0  0  0  0  0  0  0  0  0  0  0  0
   -0.0689    3.5696    1.0900 H   0  0  0  0  0  0  0  0  0  0  0  0
   -5.7181    4.2390    0.4389 C   0  0  0  0  0  0  0  0  0  0  0  0
   -5.5961    3.8122   -0.5532 H   0  0  0  0  0  0  0  0  0  0  0  0
   -5.9333    5.3017    0.3331 H   0  0  0  0  0  0  0  0  0  0  0  0
   -6.5765    3.7725    0.9201 H   0  0  0  0  0  0  0  0  0  0  0  0
   -3.3314    4.6575    4.8326 C   0  0  0  0  0  0  0  0  0  0  0  0
   -2.4222    5.2392    5.0553 H   0  0  0  0  0  0  0  0  0  0  0  0
   -3.3320    3.7808    5.4836 H   0  0  0  0  0  0  0  0  0  0  0  0
   -4.1937    5.2717    5.0756 H   0  0  0  0  0  0  0  0  0  0  0  0
   -1.0024    1.0689    3.7874 C   0  0  0  0  0  0  0  0  0  0  0  0
   -2.0476    0.4327    3.1629 C   0  0  0  0  0  0  0  0  0  0  0  0
   -2.8415    0.9827    2.6800 H   0  0  0  0  0  0  0  0  0  0  0  0
   -2.0670   -0.9743    3.1641 C   0  0  0  0  0  0  0  0  0  0  0  0
   -2.8900   -1.4705    2.6712 H   0  0  0  0  0  0  0  0  0  0  0  0
   -1.0858   -1.7324    3.7565 C   0  0  0  0  0  0  0  0  0  0  0  0
   -1.1385   -2.8107    3.7247 H   0  0  0  0  0  0  0  0  0  0  0  0
  1  3  1  0  0  0  0
  1 34  1  0  0  0  0
  2  1  1  0  0  0  0
  3 14  1  0  0  0  0
  4  5  1  0  0  0  0
  4  3  1  0  0  0  0
  5  6  1  0  0  0  0
  6  7  1  0  0  0  0
  8  6  2  0  0  0  0
  8  9  1  0  0  0  0
 10 11  1  0  0  0  0
 10  8  1  0  0  0  0
 12 10  2  0  0  0  0
 13 12  1  0  0  0  0
 13  5  2  0  0  0  0
 14 21  1  0  0  0  0
 15 14  2  0  0  0  0
 15 16  1  0  0  0  0
 16 18  2  0  0  0  0
 17 16  1  0  0  0  0
 18 19  1  0  0  0  0
 18 26  1  0  0  0  0
 19 20  1  0  0  0  0
 21 30  1  0  0  0  0
 21 19  2  0  0  0  0
 22 15  1  0  0  0  0
 23 22  1  0  0  0  0
 24 22  1  0  0  0  0
 25 22  1  0  0  0  0
 26 28  1  0  0  0  0
 26 27  1  0  0  0  0
 29 26  1  0  0  0  0
 30 31  1  0  0  0  0
 32 30  1  0  0  0  0
 33 30  1  0  0  0  0
 35  4  2  0  0  0  0
 36 35  1  0  0  0  0
 36  1  1  0  0  0  0
 37 38  1  0  0  0  0
 37 36  1  0  0  0  0
 38 53  1  0  0  0  0
 39 40  1  0  0  0  0
 39 38  2  0  0  0  0
 41 39  1  0  0  0  0
 42 41  2  0  0  0  0
 42 44  1  0  0  0  0
 43 42  1  0  0  0  0
 44 37  2  0  0  0  0
 45 48  1  0  0  0  0
 45 47  1  0  0  0  0
 45 44  1  0  0  0  0
 46 45  1  0  0  0  0
 49 52  1  0  0  0  0
 49 41  1  0  0  0  0
 50 49  1  0  0  0  0
 51 49  1  0  0  0  0
 53 54  1  0  0  0  0
 53 56  1  0  0  0  0
 53 55  1  0  0  0  0
 57 35  1  0  0  0  0
 57 13  1  0  0  0  0
 58 60  1  0  0  0  0
 58 57  2  0  0  0  0
 59 58  1  0  0  0  0
 60 62  2  0  0  0  0
 61 60  1  0  0  0  0
 62 12  1  0  0  0  0
 63 62  1  0  0  0  0
M  END
$$$$
