CSD_code = UGAZIM | q = 0 | S = 0 | Stoichiometry = C29H32Cl2O2Zr | MND = 12
 OpenBabel04212202103D

 66 69  0  0  1  0  0  0  0  0999 V2000
    1.9506    2.8999    6.6855 Zr  0  0  0  0  0  0  0  0  0  0  0  0
    1.6245    1.5292    8.5653 Cl  0  0  0  0  0  0  0  0  0  0  0  0
    1.6369    4.8337    7.9643 Cl  0  0  0  0  0  0  0  0  0  0  0  0
   -5.4742    4.5026   11.4961 O   0  0  0  0  0  0  0  0  0  0  0  0
   -3.8221    3.2423   12.3366 O   0  0  0  0  0  0  0  0  0  0  0  0
   -1.1479    4.5907    6.6789 C   0  0  0  0  0  0  0  0  0  0  0  0
   -0.4625    3.4876    6.1120 C   0  0  0  0  0  0  0  0  0  0  0  0
   -0.4570    2.0998    6.4235 C   0  0  0  0  0  0  0  0  0  0  0  0
   -1.0601    1.6125    7.1782 H   0  0  0  0  0  0  0  0  0  0  0  0
    0.3462    1.4354    5.4761 C   0  0  0  0  0  0  0  0  0  0  0  0
    0.8858    2.3895    4.5734 C   0  0  1  0  0  0  0  0  0  0  0  0
    1.3597    2.1536    3.6297 H   0  0  0  0  0  0  0  0  0  0  0  0
    0.3776    3.6757    4.9466 C   0  0  0  0  0  0  0  0  0  0  0  0
    0.5110    4.9615    4.3859 C   0  0  0  0  0  0  0  0  0  0  0  0
    1.1043    5.1128    3.4936 H   0  0  0  0  0  0  0  0  0  0  0  0
   -0.1751    6.0071    4.9555 C   0  0  0  0  0  0  0  0  0  0  0  0
   -0.0893    6.9970    4.5320 H   0  0  0  0  0  0  0  0  0  0  0  0
   -0.9950    5.8246    6.0780 C   0  0  0  0  0  0  0  0  0  0  0  0
   -1.4966    6.6817    6.5014 H   0  0  0  0  0  0  0  0  0  0  0  0
    0.5669   -0.0513    5.4456 C   0  0  0  0  0  0  0  0  0  0  0  0
   -0.3770   -0.5723    5.6048 H   0  0  0  0  0  0  0  0  0  0  0  0
    1.2495   -0.3540    6.2479 H   0  0  0  0  0  0  0  0  0  0  0  0
    0.9738   -0.3671    4.4859 H   0  0  0  0  0  0  0  0  0  0  0  0
   -1.9699    4.4281    7.8857 C   0  0  0  0  0  0  0  0  0  0  0  0
   -1.4892    3.6997    8.9760 C   0  0  0  0  0  0  0  0  0  0  0  0
   -0.4929    3.2740    8.9430 H   0  0  0  0  0  0  0  0  0  0  0  0
   -2.2539    3.5559   10.1154 C   0  0  0  0  0  0  0  0  0  0  0  0
   -1.8753    2.9979   10.9572 H   0  0  0  0  0  0  0  0  0  0  0  0
   -3.5199    4.1337   10.1863 C   0  0  0  0  0  0  0  0  0  0  0  0
   -3.9995    4.8699    9.1043 C   0  0  0  0  0  0  0  0  0  0  0  0
   -4.9804    5.3151    9.1772 H   0  0  0  0  0  0  0  0  0  0  0  0
   -3.2315    5.0174    7.9690 C   0  0  0  0  0  0  0  0  0  0  0  0
   -3.6117    5.5771    7.1271 H   0  0  0  0  0  0  0  0  0  0  0  0
   -4.3813    3.9978   11.3816 C   0  0  0  0  0  0  0  0  0  0  0  0
   -4.5872    3.0523   13.5246 C   0  0  0  0  0  0  0  0  0  0  0  0
   -5.6159    2.7953   13.2466 H   0  0  0  0  0  0  0  0  0  0  0  0
   -4.6130    3.9963   14.0818 H   0  0  0  0  0  0  0  0  0  0  0  0
   -3.9393    1.9500   14.3416 C   0  0  0  0  0  0  0  0  0  0  0  0
   -4.4995    1.7976   15.2595 H   0  0  0  0  0  0  0  0  0  0  0  0
   -2.9164    2.2210   14.5891 H   0  0  0  0  0  0  0  0  0  0  0  0
   -3.9250    1.0227   13.7749 H   0  0  0  0  0  0  0  0  0  0  0  0
    3.8448    3.3676    5.0982 C   0  0  0  0  0  0  0  0  0  0  0  0
    4.1108    3.9852    6.3513 C   0  0  0  0  0  0  0  0  0  0  0  0
    4.2589    2.9564    7.3289 C   0  0  2  0  0  0  0  0  0  0  0  0
    4.1002    1.7000    6.6685 C   0  0  0  0  0  0  0  0  0  0  0  0
    3.8483    1.9552    5.2919 C   0  0  0  0  0  0  0  0  0  0  0  0
    3.8573    4.0886    3.7791 C   0  0  0  0  0  0  0  0  0  0  0  0
    4.8754    4.1163    3.3825 H   0  0  0  0  0  0  0  0  0  0  0  0
    3.5211    5.1173    3.8991 H   0  0  0  0  0  0  0  0  0  0  0  0
    3.2293    3.5994    3.0357 H   0  0  0  0  0  0  0  0  0  0  0  0
    4.3623    5.4539    6.5501 C   0  0  0  0  0  0  0  0  0  0  0  0
    5.3082    5.7366    6.0819 H   0  0  0  0  0  0  0  0  0  0  0  0
    4.4184    5.6954    7.6090 H   0  0  0  0  0  0  0  0  0  0  0  0
    3.5676    6.0576    6.1062 H   0  0  0  0  0  0  0  0  0  0  0  0
    4.5914    3.1654    8.7806 C   0  0  0  0  0  0  0  0  0  0  0  0
    5.6374    3.4571    8.8975 H   0  0  0  0  0  0  0  0  0  0  0  0
    4.4267    2.2498    9.3473 H   0  0  0  0  0  0  0  0  0  0  0  0
    3.9652    3.9522    9.2097 H   0  0  0  0  0  0  0  0  0  0  0  0
    4.3647    0.3462    7.2675 C   0  0  0  0  0  0  0  0  0  0  0  0
    5.4412    0.1821    7.3557 H   0  0  0  0  0  0  0  0  0  0  0  0
    3.9552   -0.4440    6.6397 H   0  0  0  0  0  0  0  0  0  0  0  0
    3.9274    0.2567    8.2618 H   0  0  0  0  0  0  0  0  0  0  0  0
    3.8976    0.9148    4.2066 C   0  0  0  0  0  0  0  0  0  0  0  0
    4.9283    0.5788    4.0718 H   0  0  0  0  0  0  0  0  0  0  0  0
    3.5591    1.3160    3.2538 H   0  0  0  0  0  0  0  0  0  0  0  0
    3.2970    0.0396    4.4519 H   0  0  0  0  0  0  0  0  0  0  0  0
  1 44  1  0  0  0  0
  1  3  1  0  0  0  0
  1  2  1  0  0  0  0
  5 35  1  0  0  0  0
  6 24  1  0  0  0  0
  7  8  1  0  0  0  0
  7  6  1  0  0  0  0
  8  9  1  0  0  0  0
 10  8  2  0  0  0  0
 11 12  1  6  0  0  0
 11 13  1  0  0  0  0
 11 10  1  0  0  0  0
 11  1  1  0  0  0  0
 13  7  2  0  0  0  0
 14 13  1  0  0  0  0
 14 16  2  0  0  0  0
 15 14  1  0  0  0  0
 16 18  1  0  0  0  0
 17 16  1  0  0  0  0
 18 19  1  0  0  0  0
 18  6  2  0  0  0  0
 20 10  1  0  0  0  0
 20 21  1  0  0  0  0
 20 22  1  0  0  0  0
 23 20  1  0  0  0  0
 24 32  2  0  0  0  0
 24 25  1  0  0  0  0
 25 27  2  0  0  0  0
 26 25  1  0  0  0  0
 27 29  1  0  0  0  0
 27 28  1  0  0  0  0
 29 34  1  0  0  0  0
 30 31  1  0  0  0  0
 30 29  2  0  0  0  0
 32 30  1  0  0  0  0
 33 32  1  0  0  0  0
 34  4  2  0  0  0  0
 34  5  1  0  0  0  0
 35 37  1  0  0  0  0
 35 38  1  0  0  0  0
 36 35  1  0  0  0  0
 38 40  1  0  0  0  0
 38 39  1  0  0  0  0
 41 38  1  0  0  0  0
 42 46  1  0  0  0  0
 42 43  2  0  0  0  0
 43 51  1  0  0  0  0
 43 44  1  0  0  0  0
 44 55  1  1  0  0  0
 45 59  1  0  0  0  0
 45 44  1  0  0  0  0
 46 45  2  0  0  0  0
 47 49  1  0  0  0  0
 47 42  1  0  0  0  0
 48 47  1  0  0  0  0
 50 47  1  0  0  0  0
 51 53  1  0  0  0  0
 52 51  1  0  0  0  0
 54 51  1  0  0  0  0
 55 56  1  0  0  0  0
 55 58  1  0  0  0  0
 55 57  1  0  0  0  0
 59 60  1  0  0  0  0
 59 62  1  0  0  0  0
 61 59  1  0  0  0  0
 63 66  1  0  0  0  0
 63 46  1  0  0  0  0
 64 63  1  0  0  0  0
 65 63  1  0  0  0  0
M  END
$$$$
