CSD_code = UGEXEK | q = 0 | S = 0 | Stoichiometry = C13H10ClN2O3Re | MND = 6
 OpenBabel04212202103D

 30 32  0  0  1  0  0  0  0  0999 V2000
    2.1873    0.3991    3.6301 Re  0  0  0  0  0  0  0  0  0  0  0  0
    2.0056   -0.1984    1.3606 Cl  0  0  0  0  0  0  0  0  0  0  0  0
    2.8045    2.2973    2.6626 N   0  0  0  0  0  0  0  0  0  0  0  0
    0.6323    1.8468    2.9579 N   0  0  0  0  0  0  0  0  0  0  0  0
    3.8048    2.9562    2.1217 C   0  0  2  0  0  3  0  0  0  0  0  0
    3.5611    4.0441    1.2508 C   0  0  0  0  0  0  0  0  0  0  0  0
    4.4059    4.5624    0.8243 H   0  0  0  0  0  0  0  0  0  0  0  0
    2.2825    4.4230    0.9420 C   0  0  0  0  0  0  0  0  0  0  0  0
    2.0872    5.2457    0.2700 H   0  0  0  0  0  0  0  0  0  0  0  0
    1.2020    3.7095    1.5031 C   0  0  0  0  0  0  0  0  0  0  0  0
   -0.1760    3.9158    1.2780 C   0  0  0  0  0  0  0  0  0  0  0  0
   -0.4962    4.7128    0.6231 H   0  0  0  0  0  0  0  0  0  0  0  0
   -1.0796    3.0868    1.8853 C   0  0  0  0  0  0  0  0  0  0  0  0
   -2.1387    3.2119    1.7207 H   0  0  0  0  0  0  0  0  0  0  0  0
   -0.6472    2.0364    2.7297 C   0  0  1  0  0  3  0  0  0  0  0  0
    1.5386    2.6471    2.3615 C   0  0  0  0  0  0  0  0  0  0  0  0
    5.1875    2.5027    2.4331 C   0  0  0  0  0  0  0  0  0  0  0  0
    5.4862    1.7490    1.7028 H   0  0  0  0  0  0  0  0  0  0  0  0
    5.2148    2.0353    3.4167 H   0  0  0  0  0  0  0  0  0  0  0  0
    5.8950    3.3264    2.3864 H   0  0  0  0  0  0  0  0  0  0  0  0
   -1.6202    1.1054    3.3633 C   0  0  0  0  0  0  0  0  0  0  0  0
   -1.1533    0.5910    4.2021 H   0  0  0  0  0  0  0  0  0  0  0  0
   -1.9247    0.3537    2.6338 H   0  0  0  0  0  0  0  0  0  0  0  0
   -2.5096    1.6358    3.6959 H   0  0  0  0  0  0  0  0  0  0  0  0
    3.8555   -0.5805    3.8100 C   0  0  0  0  0  2  0  0  0  0  0  0
    1.1686   -1.1655    4.1695 C   0  0  0  0  0  2  0  0  0  0  0  0
    2.2616    1.1622    5.4139 C   0  0  0  0  0  2  0  0  0  0  0  0
    4.8662   -1.1193    3.8062 O   0  0  0  0  0  1  0  0  0  0  0  0
    0.5034   -2.0716    4.3891 O   0  0  0  0  0  1  0  0  0  0  0  0
    2.2935    1.6562    6.4516 O   0  0  0  0  0  1  0  0  0  0  0  0
  1 25  1  0  0  0  0
  1 26  1  0  0  0  0
  1 27  1  0  0  0  0
  2  1  1  0  0  0  0
  3  1  1  0  0  0  0
  4  1  1  0  0  0  0
  5 17  1  6  0  0  0
  5  3  1  0  0  0  0
  6  5  1  0  0  0  0
  7  6  1  0  0  0  0
  8  6  2  0  0  0  0
  8 10  1  0  0  0  0
  9  8  1  0  0  0  0
 10 16  2  0  0  0  0
 11 10  1  0  0  0  0
 11 13  2  0  0  0  0
 12 11  1  0  0  0  0
 13 15  1  0  0  0  0
 14 13  1  0  0  0  0
 15  4  1  0  0  0  0
 15 21  1  6  0  0  0
 16  3  1  0  0  0  0
 16  4  1  0  0  0  0
 17 19  1  0  0  0  0
 18 17  1  0  0  0  0
 20 17  1  0  0  0  0
 21 24  1  0  0  0  0
 21 22  1  0  0  0  0
 23 21  1  0  0  0  0
 26 29  1  0  0  0  0
 27 30  1  0  0  0  0
 28 25  1  0  0  0  0
M  END
$$$$
