CSD_code = UGILEB | q = 0 | S = 0 | Stoichiometry = C19H31I2IrN4O2 | MND = 6
 OpenBabel04212202103D

 59 60  0  0  1  0  0  0  0  0999 V2000
    5.8261    3.7476    2.3697 Ir  0  0  1  0  0  0  0  0  0  0  0  0
    6.7787    3.7476   -0.1713 I   0  0  0  0  0 15  0  0  0  0  0  0
    4.9524    3.7481    4.9212 I   0  0  0  0  0 15  0  0  0  0  0  0
    4.0730    2.6640    1.7341 O   0  0  0  0  0  0  0  0  0  0  0  0
    8.3409    2.5630    3.5684 N   0  0  0  0  0  0  0  0  0  0  0  0
    7.3406    1.1053    2.3422 N   0  0  0  0  0  0  0  0  0  0  0  0
    7.2266    2.3572    2.8225 C   0  0  2  0  0  3  0  0  0  0  0  0
    8.5198    0.5492    2.7541 C   0  0  0  0  0  0  0  0  0  0  0  0
    9.1511    1.4594    3.5282 C   0  0  0  0  0  0  0  0  0  0  0  0
    6.3692    0.4033    1.5410 C   0  0  0  0  0  0  0  0  0  0  0  0
    5.5339   -0.6387    2.3195 C   0  0  0  0  0  0  0  0  0  0  0  0
    4.9114    0.0040    3.5567 C   0  0  0  0  0  0  0  0  0  0  0  0
    6.3783   -1.8459    2.7321 C   0  0  0  0  0  0  0  0  0  0  0  0
    4.4219   -1.0942    1.3712 C   0  0  0  0  0  0  0  0  0  0  0  0
    8.5902    3.7477    4.3441 C   0  0  0  0  0  0  0  0  0  0  0  0
    3.4754    3.7478    1.5234 C   0  0  1  0  0  3  0  0  0  0  0  0
    2.0504    3.7478    1.0396 C   0  0  0  0  0  0  0  0  0  0  0  0
   10.0870    1.4139    4.0450 H   0  0  0  0  0  0  0  0  0  0  0  0
    8.8290   -0.4280    2.4488 H   0  0  0  0  0  0  0  0  0  0  0  0
    7.9253    3.7477    5.2243 H   0  0  0  0  0  0  0  0  0  0  0  0
    9.6330    3.7477    4.6745 H   0  0  0  0  0  0  0  0  0  0  0  0
    5.6779    1.1369    1.1287 H   0  0  0  0  0  0  0  0  0  0  0  0
    6.8941   -0.0835    0.7145 H   0  0  0  0  0  0  0  0  0  0  0  0
    5.6720    0.3130    4.2712 H   0  0  0  0  0  0  0  0  0  0  0  0
    4.3275    0.8734    3.2714 H   0  0  0  0  0  0  0  0  0  0  0  0
    4.2498   -0.7000    4.0551 H   0  0  0  0  0  0  0  0  0  0  0  0
    7.1038   -1.5777    3.4970 H   0  0  0  0  0  0  0  0  0  0  0  0
    5.7339   -2.6175    3.1469 H   0  0  0  0  0  0  0  0  0  0  0  0
    6.9016   -2.2686    1.8761 H   0  0  0  0  0  0  0  0  0  0  0  0
    3.7995   -1.8452    1.8513 H   0  0  0  0  0  0  0  0  0  0  0  0
    3.7921   -0.2508    1.1007 H   0  0  0  0  0  0  0  0  0  0  0  0
    4.8379   -1.5221    0.4613 H   0  0  0  0  0  0  0  0  0  0  0  0
    1.8586    2.8532    0.4530 H   0  0  0  0  0  0  0  0  0  0  0  0
    1.3925    3.7480    1.9081 H   0  0  0  0  0  0  0  0  0  0  0  0
    4.0734    4.8316    1.7332 O   0  0  0  0  0  0  0  0  0  0  0  0
    8.3407    4.9325    3.5686 N   0  0  0  0  0  0  0  0  0  0  0  0
    7.2260    5.1385    2.8234 C   0  0  0  0  0  0  0  0  0  0  0  0
    7.3403    6.3903    2.3425 N   0  0  0  0  0  0  0  0  0  0  0  0
    8.5197    6.9463    2.7542 C   0  0  0  0  0  0  0  0  0  0  0  0
    9.1509    6.0362    3.5284 C   0  0  0  0  0  0  0  0  0  0  0  0
   10.0869    6.0816    4.0449 H   0  0  0  0  0  0  0  0  0  0  0  0
    8.8289    7.9233    2.4487 H   0  0  0  0  0  0  0  0  0  0  0  0
    6.3691    7.0921    1.5411 C   0  0  0  0  0  0  0  0  0  0  0  0
    5.5339    8.1342    2.3195 C   0  0  0  0  0  0  0  0  0  0  0  0
    4.9114    7.4915    3.5567 C   0  0  0  0  0  0  0  0  0  0  0  0
    5.6720    7.1825    4.2712 H   0  0  0  0  0  0  0  0  0  0  0  0
    4.3275    6.6221    3.2714 H   0  0  0  0  0  0  0  0  0  0  0  0
    4.2498    8.1955    4.0551 H   0  0  0  0  0  0  0  0  0  0  0  0
    6.3784    9.3414    2.7321 C   0  0  0  0  0  0  0  0  0  0  0  0
    7.1039    9.0732    3.4970 H   0  0  0  0  0  0  0  0  0  0  0  0
    5.7339   10.1130    3.1469 H   0  0  0  0  0  0  0  0  0  0  0  0
    6.9017    9.7641    1.8761 H   0  0  0  0  0  0  0  0  0  0  0  0
    4.4219    8.5897    1.3712 C   0  0  0  0  0  0  0  0  0  0  0  0
    3.7995    9.3406    1.8513 H   0  0  0  0  0  0  0  0  0  0  0  0
    3.7921    7.7463    1.1006 H   0  0  0  0  0  0  0  0  0  0  0  0
    4.8379    9.0176    0.4613 H   0  0  0  0  0  0  0  0  0  0  0  0
    5.6777    6.3586    1.1289 H   0  0  0  0  0  0  0  0  0  0  0  0
    6.8940    7.5788    0.7145 H   0  0  0  0  0  0  0  0  0  0  0  0
    1.8587    4.6422    0.4526 H   0  0  0  0  0  0  0  0  0  0  0  0
  1 35  1  6  0  0  0
  1  7  1  0  0  0  0
  1 37  2  0  0  0  0
  4  1  1  0  0  0  0
  5 15  1  0  0  0  0
  6  8  1  0  0  0  0
  7  6  1  6  0  0  0
  7  5  1  0  0  0  0
  8  9  2  0  0  0  0
  9  5  1  0  0  0  0
  9 18  1  0  0  0  0
 10 11  1  0  0  0  0
 10  6  1  0  0  0  0
 11 13  1  0  0  0  0
 11 12  1  0  0  0  0
 12 26  1  0  0  0  0
 12 24  1  0  0  0  0
 13 28  1  0  0  0  0
 13 27  1  0  0  0  0
 14 30  1  0  0  0  0
 14 11  1  0  0  0  0
 15 21  1  0  0  0  0
 15 20  1  0  0  0  0
 16 17  1  1  0  0  0
 16 35  1  0  0  0  0
 16  4  1  0  0  0  0
 17 34  1  0  0  0  0
 19  8  1  0  0  0  0
 22 10  1  0  0  0  0
 23 10  1  0  0  0  0
 25 12  1  0  0  0  0
 29 13  1  0  0  0  0
 31 14  1  0  0  0  0
 32 14  1  0  0  0  0
 33 17  1  0  0  0  0
 36 15  1  0  0  0  0
 37 36  1  0  0  0  0
 38 39  1  0  0  0  0
 38 37  1  0  0  0  0
 39 40  2  0  0  0  0
 40 36  1  0  0  0  0
 40 41  1  0  0  0  0
 42 39  1  0  0  0  0
 43 44  1  0  0  0  0
 43 38  1  0  0  0  0
 44 49  1  0  0  0  0
 44 45  1  0  0  0  0
 45 48  1  0  0  0  0
 45 46  1  0  0  0  0
 47 45  1  0  0  0  0
 49 51  1  0  0  0  0
 49 50  1  0  0  0  0
 52 49  1  0  0  0  0
 53 54  1  0  0  0  0
 53 44  1  0  0  0  0
 55 53  1  0  0  0  0
 56 53  1  0  0  0  0
 57 43  1  0  0  0  0
 58 43  1  0  0  0  0
 59 17  1  0  0  0  0
M  END
$$$$
