CSD_code = UGIVAH | q = 0 | S = 0 | Stoichiometry = C13H21Cl2ReS2 | MND = 9
 OpenBabel04212202103D

 39 40  0  0  1  0  0  0  0  0999 V2000
    0.9712    8.3739    9.2177 Re  0  0  0  0  0  0  0  0  0  0  0  0
   -0.7428    9.4982    8.5391 Cl  0  0  0  0  0  0  0  0  0  0  0  0
    0.1140    7.9981   11.2892 Cl  0  0  0  0  0  0  0  0  0  0  0  0
    2.1778    8.7087    7.2358 S   0  0  0  0  0  0  0  0  0  0  0  0
    2.9287    8.8803   10.2984 S   0  0  0  0  0  0  0  0  0  0  0  0
    1.2635    6.1387    8.9488 C   0  0  2  0  0  0  0  0  0  0  0  0
   -0.0925    6.0514    8.3348 C   0  0  0  0  0  0  0  0  0  0  0  0
   -0.9255    5.4190    9.2284 C   0  0  0  0  0  0  0  0  0  0  0  0
   -0.1796    5.0462   10.4068 C   0  0  0  0  0  0  0  0  0  0  0  0
    1.1153    5.4598   10.2639 C   0  0  0  0  0  0  0  0  0  0  0  0
    2.4549    5.6613    8.1331 C   0  0  0  0  0  0  0  0  0  0  0  0
    2.3401    4.1703    7.8126 C   0  0  0  0  0  0  0  0  0  0  0  0
   -0.4175    6.3543    6.9047 C   0  0  0  0  0  0  0  0  0  0  0  0
   -2.3711    5.1210    9.0499 C   0  0  0  0  0  0  0  0  0  0  0  0
   -0.8027    4.3682   11.5750 C   0  0  0  0  0  0  0  0  0  0  0  0
    2.2416    5.3237   11.2261 C   0  0  0  0  0  0  0  0  0  0  0  0
    3.4424    9.9033    7.8021 C   0  0  0  0  0  0  0  0  0  0  0  0
    4.1520    9.3350    9.0080 C   0  0  0  0  0  0  0  0  0  0  0  0
    3.3718    5.8445    8.6972 H   0  0  0  0  0  0  0  0  0  0  0  0
    2.5133    6.2171    7.1968 H   0  0  0  0  0  0  0  0  0  0  0  0
    2.2953    3.5765    8.7215 H   0  0  0  0  0  0  0  0  0  0  0  0
    3.2010    3.8515    7.2300 H   0  0  0  0  0  0  0  0  0  0  0  0
    1.4405    3.9770    7.2356 H   0  0  0  0  0  0  0  0  0  0  0  0
    0.3956    6.8920    6.4236 H   0  0  0  0  0  0  0  0  0  0  0  0
   -1.3194    6.9593    6.8279 H   0  0  0  0  0  0  0  0  0  0  0  0
   -0.5925    5.4252    6.3607 H   0  0  0  0  0  0  0  0  0  0  0  0
   -2.5310    4.0437    8.9908 H   0  0  0  0  0  0  0  0  0  0  0  0
   -2.7564    5.5794    8.1439 H   0  0  0  0  0  0  0  0  0  0  0  0
   -2.9367    5.4924    9.9037 H   0  0  0  0  0  0  0  0  0  0  0  0
   -0.0503    3.9882   12.2595 H   0  0  0  0  0  0  0  0  0  0  0  0
   -1.4315    3.5420   11.2470 H   0  0  0  0  0  0  0  0  0  0  0  0
   -1.4311    5.0779   12.1144 H   0  0  0  0  0  0  0  0  0  0  0  0
    2.7497    6.2830   11.3383 H   0  0  0  0  0  0  0  0  0  0  0  0
    2.9727    4.5971   10.8685 H   0  0  0  0  0  0  0  0  0  0  0  0
    1.8853    5.0085   12.2023 H   0  0  0  0  0  0  0  0  0  0  0  0
    4.1272   10.0502    6.9676 H   0  0  0  0  0  0  0  0  0  0  0  0
    2.9408   10.8420    8.0433 H   0  0  0  0  0  0  0  0  0  0  0  0
    4.8277   10.0604    9.4605 H   0  0  0  0  0  0  0  0  0  0  0  0
    4.7002    8.4286    8.7479 H   0  0  0  0  0  0  0  0  0  0  0  0
  1  5  1  0  0  0  0
  1  3  1  0  0  0  0
  2  1  1  0  0  0  0
  4 17  1  0  0  0  0
  4  1  1  0  0  0  0
  6 11  1  6  0  0  0
  6  1  1  0  0  0  0
  6 10  1  0  0  0  0
  7  6  1  0  0  0  0
  7  8  2  0  0  0  0
  8  9  1  0  0  0  0
  9 15  1  0  0  0  0
 10  9  2  0  0  0  0
 10 16  1  0  0  0  0
 11 19  1  0  0  0  0
 12 11  1  0  0  0  0
 12 21  1  0  0  0  0
 13  7  1  0  0  0  0
 14  8  1  0  0  0  0
 14 29  1  0  0  0  0
 15 32  1  0  0  0  0
 15 30  1  0  0  0  0
 16 33  1  0  0  0  0
 16 35  1  0  0  0  0
 17 37  1  0  0  0  0
 17 18  1  0  0  0  0
 18 38  1  0  0  0  0
 18  5  1  0  0  0  0
 20 11  1  0  0  0  0
 22 12  1  0  0  0  0
 23 12  1  0  0  0  0
 24 13  1  0  0  0  0
 25 13  1  0  0  0  0
 26 13  1  0  0  0  0
 27 14  1  0  0  0  0
 28 14  1  0  0  0  0
 31 15  1  0  0  0  0
 34 16  1  0  0  0  0
 36 17  1  0  0  0  0
 39 18  1  0  0  0  0
M  END
$$$$
