CSD_code = UGUBAZ | q = 0 | S = 0 | Stoichiometry = C32H16CrI2N8 | MND = 6
 OpenBabel04212202103D

 59 70  0  0  0  0  0  0  0  0999 V2000
   -0.0000   -0.0000    0.0000 Cr  0  0  0  0  0  0  0  0  0  0  0  0
   -2.2959   -0.8668    1.2321 I   0  0  0  0  0  0  0  0  0  0  0  0
    0.3825    1.1485    1.5209 N   0  0  0  0  0  4  0  0  0  0  0  0
    1.6675   -0.3561    2.8559 N   0  0  0  0  0  0  0  0  0  0  0  0
    0.9957   -1.4429    0.8398 N   0  0  0  0  0  0  0  0  0  0  0  0
   -0.7417    3.1355    0.8240 N   0  0  0  0  0  0  0  0  0  0  0  0
   -0.0254    2.4477    1.6750 C   0  0  0  0  0  0  0  0  0  0  0  0
    0.4532    2.9682    2.9344 C   0  0  0  0  0  0  0  0  0  0  0  0
    0.3191    4.2008    3.5531 C   0  0  0  0  0  0  0  0  0  0  0  0
   -0.2343    4.9959    3.0799 H   0  0  0  0  0  0  0  0  0  0  0  0
    0.9201    4.3617    4.7894 C   0  0  0  0  0  0  0  0  0  0  0  0
    0.8362    5.3088    5.3011 H   0  0  0  0  0  0  0  0  0  0  0  0
    1.6337    3.3263    5.3924 C   0  0  0  0  0  0  0  0  0  0  0  0
    2.0868    3.4942    6.3580 H   0  0  0  0  0  0  0  0  0  0  0  0
    1.7724    2.0924    4.7810 C   0  0  0  0  0  0  0  0  0  0  0  0
    2.3222    1.2869    5.2405 H   0  0  0  0  0  0  0  0  0  0  0  0
    1.1737    1.9231    3.5429 C   0  0  0  0  0  0  0  0  0  0  0  0
    1.1080    0.8045    2.6316 C   0  0  0  0  0  0  0  0  0  0  0  0
    1.6281   -1.3889    2.0545 C   0  0  0  0  0  0  0  0  0  0  0  0
    2.2601   -2.6563    2.3377 C   0  0  0  0  0  0  0  0  0  0  0  0
    3.0101   -3.1137    3.4093 C   0  0  0  0  0  0  0  0  0  0  0  0
    3.2182   -2.4706    4.2491 H   0  0  0  0  0  0  0  0  0  0  0  0
    3.4733   -4.4167    3.3528 C   0  0  0  0  0  0  0  0  0  0  0  0
    4.0613   -4.8069    4.1700 H   0  0  0  0  0  0  0  0  0  0  0  0
    3.1981   -5.2408    2.2619 C   0  0  0  0  0  0  0  0  0  0  0  0
    3.5789   -6.2511    2.2583 H   0  0  0  0  0  0  0  0  0  0  0  0
    2.4497   -4.7918    1.1878 C   0  0  0  0  0  0  0  0  0  0  0  0
    2.2321   -5.4222    0.3407 H   0  0  0  0  0  0  0  0  0  0  0  0
    1.9825   -3.4882    1.2365 C   0  0  0  0  0  0  0  0  0  0  0  0
    1.1920   -2.6968    0.3229 C   0  0  0  0  0  0  0  0  0  0  0  0
    2.2965    0.8670   -1.2324 I   0  0  0  0  0  0  0  0  0  0  0  0
   -1.1920    2.6968   -0.3228 C   0  0  0  0  0  0  0  0  0  0  0  0
   -0.9958    1.4429   -0.8397 N   0  0  0  0  0  0  0  0  0  0  0  0
   -0.3826   -1.1485   -1.5208 N   0  0  0  0  0  4  0  0  0  0  0  0
    0.0253   -2.4478   -1.6750 C   0  0  0  0  0  0  0  0  0  0  0  0
    0.7417   -3.1355   -0.8240 N   0  0  0  0  0  0  0  0  0  0  0  0
   -0.4532   -2.9682   -2.9343 C   0  0  0  0  0  0  0  0  0  0  0  0
   -0.3191   -4.2008   -3.5531 C   0  0  0  0  0  0  0  0  0  0  0  0
    0.2343   -4.9959   -3.0799 H   0  0  0  0  0  0  0  0  0  0  0  0
   -0.9201   -4.3617   -4.7894 C   0  0  0  0  0  0  0  0  0  0  0  0
   -0.8362   -5.3088   -5.3011 H   0  0  0  0  0  0  0  0  0  0  0  0
   -1.6337   -3.3263   -5.3924 C   0  0  0  0  0  0  0  0  0  0  0  0
   -2.0868   -3.4942   -6.3580 H   0  0  0  0  0  0  0  0  0  0  0  0
   -1.7724   -2.0924   -4.7810 C   0  0  0  0  0  0  0  0  0  0  0  0
   -2.3222   -1.2869   -5.2405 H   0  0  0  0  0  0  0  0  0  0  0  0
   -1.1738   -1.9231   -3.5429 C   0  0  0  0  0  0  0  0  0  0  0  0
   -1.1080   -0.8046   -2.6315 C   0  0  0  0  0  0  0  0  0  0  0  0
   -1.6675    0.3561   -2.8559 N   0  0  0  0  0  0  0  0  0  0  0  0
   -1.6281    1.3889   -2.0544 C   0  0  0  0  0  0  0  0  0  0  0  0
   -2.2601    2.6563   -2.3376 C   0  0  0  0  0  0  0  0  0  0  0  0
   -3.0101    3.1137   -3.4093 C   0  0  0  0  0  0  0  0  0  0  0  0
   -3.2182    2.4706   -4.2491 H   0  0  0  0  0  0  0  0  0  0  0  0
   -3.4733    4.4167   -3.3528 C   0  0  0  0  0  0  0  0  0  0  0  0
   -4.0613    4.8069   -4.1700 H   0  0  0  0  0  0  0  0  0  0  0  0
   -3.1981    5.2408   -2.2620 C   0  0  0  0  0  0  0  0  0  0  0  0
   -3.5788    6.2511   -2.2583 H   0  0  0  0  0  0  0  0  0  0  0  0
   -2.4497    4.7918   -1.1878 C   0  0  0  0  0  0  0  0  0  0  0  0
   -2.2321    5.4222   -0.3407 H   0  0  0  0  0  0  0  0  0  0  0  0
   -1.9826    3.4882   -1.2364 C   0  0  0  0  0  0  0  0  0  0  0  0
  1  5  1  0  0  0  0
  1  2  1  0  0  0  0
  1  3  1  0  0  0  0
  3  7  1  0  0  0  0
  3 18  2  0  0  0  0
  5 19  1  0  0  0  0
  6  7  2  0  0  0  0
  7  8  1  0  0  0  0
  8 17  2  0  0  0  0
  8  9  1  0  0  0  0
  9 11  2  0  0  0  0
 10  9  1  0  0  0  0
 11 12  1  0  0  0  0
 11 13  1  0  0  0  0
 13 14  1  0  0  0  0
 15 16  1  0  0  0  0
 15 13  2  0  0  0  0
 17 15  1  0  0  0  0
 18  4  1  0  0  0  0
 18 17  1  0  0  0  0
 19 20  1  0  0  0  0
 19  4  2  0  0  0  0
 20 21  1  0  0  0  0
 21 22  1  0  0  0  0
 23 21  2  0  0  0  0
 23 24  1  0  0  0  0
 25 23  1  0  0  0  0
 26 25  1  0  0  0  0
 27 29  1  0  0  0  0
 27 25  2  0  0  0  0
 28 27  1  0  0  0  0
 29 20  2  0  0  0  0
 30  5  1  0  0  0  0
 30 29  1  0  0  0  0
 31  1  1  0  0  0  0
 32  6  1  0  0  0  0
 33 32  1  0  0  0  0
 33  1  1  0  0  0  0
 34  1  1  0  0  0  0
 35 34  2  0  0  0  0
 35 36  1  0  0  0  0
 36 30  2  0  0  0  0
 37 35  1  0  0  0  0
 38 39  1  0  0  0  0
 38 37  1  0  0  0  0
 40 38  2  0  0  0  0
 41 40  1  0  0  0  0
 42 40  1  0  0  0  0
 42 44  2  0  0  0  0
 43 42  1  0  0  0  0
 44 46  1  0  0  0  0
 45 44  1  0  0  0  0
 46 37  2  0  0  0  0
 46 47  1  0  0  0  0
 47 34  1  0  0  0  0
 48 47  2  0  0  0  0
 48 49  1  0  0  0  0
 49 33  1  0  0  0  0
 50 49  2  0  0  0  0
 50 59  1  0  0  0  0
 51 53  2  0  0  0  0
 51 50  1  0  0  0  0
 52 51  1  0  0  0  0
 53 55  1  0  0  0  0
 54 53  1  0  0  0  0
 55 56  1  0  0  0  0
 55 57  2  0  0  0  0
 57 58  1  0  0  0  0
 59 57  1  0  0  0  0
 59 32  2  0  0  0  0
M  END
$$$$
