CSD_code = UGUMUF | q = 0 | S = 0 | Stoichiometry = C19H24Cl2OTi | MND = 8
 OpenBabel04212202103D

 47 49  0  0  1  0  0  0  0  0999 V2000
    5.2085    5.4526    1.8353 Ti  0  0  0  0  0  0  0  0  0  0  0  0
    3.4825    4.4201    0.9961 Cl  0  0  0  0  0  0  0  0  0  0  0  0
    6.3940    5.4757    0.0141 Cl  0  0  0  0  0  0  0  0  0  0  0  0
    5.8456    4.2518    2.8050 O   0  0  0  0  0  0  0  0  0  0  0  0
    5.8080    4.6301    5.1400 C   0  0  0  0  0  0  0  0  0  0  0  0
    6.3283    3.9574    4.0094 C   0  0  0  0  0  0  0  0  0  0  0  0
    7.3592    3.0054    4.1429 C   0  0  0  0  0  0  0  0  0  0  0  0
    7.8398    2.7421    5.4172 C   0  0  0  0  0  0  0  0  0  0  0  0
    7.3445    3.3878    6.5389 C   0  0  0  0  0  0  0  0  0  0  0  0
    6.3330    4.3263    6.3837 C   0  0  0  0  0  0  0  0  0  0  0  0
    7.8780    3.0852    7.9067 C   0  0  0  0  0  0  0  0  0  0  0  0
    7.9447    2.3466    2.8984 C   0  0  0  0  0  0  0  0  0  0  0  0
    6.8391    1.6932    2.0523 C   0  0  0  0  0  0  0  0  0  0  0  0
    8.6669    3.4315    2.0832 C   0  0  0  0  0  0  0  0  0  0  0  0
    8.9644    1.2554    3.2450 C   0  0  0  0  0  0  0  0  0  0  0  0
    3.3803    4.6951    4.7809 C   0  0  0  0  0  0  0  0  0  0  0  0
    4.4098    6.4892    6.2026 C   0  0  0  0  0  0  0  0  0  0  0  0
    4.8235    6.4824    3.7769 C   0  0  1  0  0  0  0  0  0  0  0  0
    6.0656    6.9966    3.3225 C   0  0  0  0  0  0  0  0  0  0  0  0
    5.8359    7.7209    2.1316 C   0  0  0  0  0  0  0  0  0  0  0  0
    4.4581    7.6645    1.8420 C   0  0  0  0  0  0  0  0  0  0  0  0
    3.8265    6.9143    2.8614 C   0  0  0  0  0  0  0  0  0  0  0  0
    4.6241    5.5836    4.9797 C   0  0  0  0  0  0  0  0  0  0  0  0
    8.6234    2.0163    5.5558 H   0  0  0  0  0  0  0  0  0  0  0  0
    5.9556    4.8194    7.2649 H   0  0  0  0  0  0  0  0  0  0  0  0
    8.6813    2.3552    7.8596 H   0  0  0  0  0  0  0  0  0  0  0  0
    7.0872    2.6895    8.5427 H   0  0  0  0  0  0  0  0  0  0  0  0
    8.2581    3.9916    8.3757 H   0  0  0  0  0  0  0  0  0  0  0  0
    6.2597    1.0021    2.6621 H   0  0  0  0  0  0  0  0  0  0  0  0
    7.2890    1.1364    1.2329 H   0  0  0  0  0  0  0  0  0  0  0  0
    6.1601    2.4335    1.6214 H   0  0  0  0  0  0  0  0  0  0  0  0
    9.0935    2.9964    1.1822 H   0  0  0  0  0  0  0  0  0  0  0  0
    9.4721    3.8682    2.6722 H   0  0  0  0  0  0  0  0  0  0  0  0
    7.9805    4.2289    1.7865 H   0  0  0  0  0  0  0  0  0  0  0  0
    8.5094    0.4715    3.8459 H   0  0  0  0  0  0  0  0  0  0  0  0
    9.8197    1.6654    3.7763 H   0  0  0  0  0  0  0  0  0  0  0  0
    9.3315    0.8051    2.3255 H   0  0  0  0  0  0  0  0  0  0  0  0
    3.3135    3.9764    5.5960 H   0  0  0  0  0  0  0  0  0  0  0  0
    3.4482    4.1472    3.8352 H   0  0  0  0  0  0  0  0  0  0  0  0
    2.4726    5.2944    4.7801 H   0  0  0  0  0  0  0  0  0  0  0  0
    4.0855    5.9164    7.0672 H   0  0  0  0  0  0  0  0  0  0  0  0
    3.6367    7.2189    5.9707 H   0  0  0  0  0  0  0  0  0  0  0  0
    5.3231    7.0264    6.4467 H   0  0  0  0  0  0  0  0  0  0  0  0
    7.0119    6.9155    3.8464 H   0  0  0  0  0  0  0  0  0  0  0  0
    6.5768    8.2959    1.5900 H   0  0  0  0  0  0  0  0  0  0  0  0
    3.9525    8.2072    1.0520 H   0  0  0  0  0  0  0  0  0  0  0  0
    2.7571    6.7825    2.9653 H   0  0  0  0  0  0  0  0  0  0  0  0
  1  4  1  0  0  0  0
  1 18  1  0  0  0  0
  2  1  1  0  0  0  0
  3  1  1  0  0  0  0
  4  6  1  0  0  0  0
  5 10  1  0  0  0  0
  6  7  1  0  0  0  0
  6  5  2  0  0  0  0
  7  8  2  0  0  0  0
  8 24  1  0  0  0  0
  8  9  1  0  0  0  0
  9 11  1  0  0  0  0
 10  9  2  0  0  0  0
 10 25  1  0  0  0  0
 11 28  1  0  0  0  0
 11 27  1  0  0  0  0
 12 15  1  0  0  0  0
 12  7  1  0  0  0  0
 13 29  1  0  0  0  0
 13 12  1  0  0  0  0
 14 33  1  0  0  0  0
 14 12  1  0  0  0  0
 15 36  1  0  0  0  0
 15 35  1  0  0  0  0
 16 23  1  0  0  0  0
 16 38  1  0  0  0  0
 17 43  1  0  0  0  0
 17 41  1  0  0  0  0
 18 22  1  6  0  0  0
 18 23  1  0  0  0  0
 19 18  1  0  0  0  0
 19 44  1  0  0  0  0
 20 19  2  0  0  0  0
 21 20  1  0  0  0  0
 21 22  2  0  0  0  0
 22 47  1  0  0  0  0
 23  5  1  0  0  0  0
 23 17  1  0  0  0  0
 26 11  1  0  0  0  0
 30 13  1  0  0  0  0
 31 13  1  0  0  0  0
 32 14  1  0  0  0  0
 34 14  1  0  0  0  0
 37 15  1  0  0  0  0
 39 16  1  0  0  0  0
 40 16  1  0  0  0  0
 42 17  1  0  0  0  0
 45 20  1  0  0  0  0
 46 21  1  0  0  0  0
M  END
$$$$
