CSD_code = UGUNAM | q = 0 | S = 0 | Stoichiometry = C22H32Cl2OSiTi | MND = 8
 OpenBabel04212202103D

 59 61  0  0  1  0  0  0  0  0999 V2000
    2.5470    3.9600    5.1395 Ti  0  0  0  0  0  0  0  0  0  0  0  0
    2.3611    6.1353    4.9030 Cl  0  0  0  0  0  0  0  0  0  0  0  0
    4.6081    3.8762    4.4037 Cl  0  0  0  0  0  0  0  0  0  0  0  0
   -0.6585    3.3842    5.8158 Si  0  0  0  0  0  0  0  0  0  0  0  0
    1.5840    3.4667    3.8710 O   0  0  0  0  0  0  0  0  0  0  0  0
   -0.6015    2.6525    4.0548 C   0  0  0  0  0  0  0  0  0  0  0  0
    0.5648    2.8433    3.2934 C   0  0  0  0  0  0  0  0  0  0  0  0
    0.6571    2.3715    1.9669 C   0  0  0  0  0  0  0  0  0  0  0  0
   -0.4506    1.7254    1.4424 C   0  0  0  0  0  0  0  0  0  0  0  0
   -1.6173    1.5255    2.1732 C   0  0  0  0  0  0  0  0  0  0  0  0
   -1.6735    1.9892    3.4765 C   0  0  0  0  0  0  0  0  0  0  0  0
   -2.7849    0.8292    1.5408 C   0  0  0  0  0  0  0  0  0  0  0  0
    1.9536    2.5489    1.1857 C   0  0  0  0  0  0  0  0  0  0  0  0
    2.3424    4.0354    1.1303 C   0  0  0  0  0  0  0  0  0  0  0  0
    3.0553    1.7365    1.8860 C   0  0  0  0  0  0  0  0  0  0  0  0
    1.8388    2.0451   -0.2573 C   0  0  0  0  0  0  0  0  0  0  0  0
   -1.1418    5.2189    5.5630 C   0  0  0  0  0  0  0  0  0  0  0  0
   -1.9711    2.4738    6.8614 C   0  0  0  0  0  0  0  0  0  0  0  0
    1.0469    3.1865    6.6067 C   0  0  1  0  0  0  0  0  0  0  0  0
    1.9641    2.1252    6.3240 C   0  0  0  0  0  0  0  0  0  0  0  0
    3.2471    2.5010    6.7998 C   0  0  0  0  0  0  0  0  0  0  0  0
    3.1396    3.8033    7.3671 C   0  0  0  0  0  0  0  0  0  0  0  0
    1.7891    4.2156    7.2726 C   0  0  0  0  0  0  0  0  0  0  0  0
    1.6182    0.7771    5.7573 C   0  0  0  0  0  0  0  0  0  0  0  0
    4.4677    1.6295    6.8398 C   0  0  0  0  0  0  0  0  0  0  0  0
    4.2511    4.5596    8.0357 C   0  0  0  0  0  0  0  0  0  0  0  0
    1.2089    5.4278    7.9406 C   0  0  0  0  0  0  0  0  0  0  0  0
   -3.5586    0.6243    2.2760 H   0  0  0  0  0  0  0  0  0  0  0  0
   -2.4726   -0.1107    1.0885 H   0  0  0  0  0  0  0  0  0  0  0  0
   -3.2130    1.4502    0.7542 H   0  0  0  0  0  0  0  0  0  0  0  0
    1.5355    4.6173    0.6875 H   0  0  0  0  0  0  0  0  0  0  0  0
    3.2343    4.1587    0.5190 H   0  0  0  0  0  0  0  0  0  0  0  0
    2.5570    4.4398    2.1232 H   0  0  0  0  0  0  0  0  0  0  0  0
    3.2146    2.0844    2.9103 H   0  0  0  0  0  0  0  0  0  0  0  0
    3.9937    1.8395    1.3452 H   0  0  0  0  0  0  0  0  0  0  0  0
    2.7830    0.6819    1.9116 H   0  0  0  0  0  0  0  0  0  0  0  0
    1.0646    2.5832   -0.7992 H   0  0  0  0  0  0  0  0  0  0  0  0
    1.6242    0.9794   -0.2886 H   0  0  0  0  0  0  0  0  0  0  0  0
    2.7844    2.2094   -0.7694 H   0  0  0  0  0  0  0  0  0  0  0  0
   -0.2985    5.7901    5.1759 H   0  0  0  0  0  0  0  0  0  0  0  0
   -1.4783    5.6920    6.4798 H   0  0  0  0  0  0  0  0  0  0  0  0
   -1.9515    5.2968    4.8418 H   0  0  0  0  0  0  0  0  0  0  0  0
   -1.8230    1.3993    6.8696 H   0  0  0  0  0  0  0  0  0  0  0  0
   -2.9635    2.6709    6.4738 H   0  0  0  0  0  0  0  0  0  0  0  0
   -1.9495    2.8158    7.8901 H   0  0  0  0  0  0  0  0  0  0  0  0
    0.5790    0.7483    5.4352 H   0  0  0  0  0  0  0  0  0  0  0  0
    1.7630    0.0067    6.5182 H   0  0  0  0  0  0  0  0  0  0  0  0
    2.2519    0.5301    4.9017 H   0  0  0  0  0  0  0  0  0  0  0  0
    4.3377    0.7521    6.2085 H   0  0  0  0  0  0  0  0  0  0  0  0
    4.6531    1.2960    7.8637 H   0  0  0  0  0  0  0  0  0  0  0  0
    5.3493    2.1713    6.4952 H   0  0  0  0  0  0  0  0  0  0  0  0
    4.0792    5.6343    7.9702 H   0  0  0  0  0  0  0  0  0  0  0  0
    5.2073    4.3334    7.5628 H   0  0  0  0  0  0  0  0  0  0  0  0
    4.3220    4.2841    9.0912 H   0  0  0  0  0  0  0  0  0  0  0  0
    0.1640    5.2514    8.1862 H   0  0  0  0  0  0  0  0  0  0  0  0
    1.2725    6.3130    7.3050 H   0  0  0  0  0  0  0  0  0  0  0  0
    1.7498    5.6348    8.8641 H   0  0  0  0  0  0  0  0  0  0  0  0
   -0.4263    1.3544    0.4306 H   0  0  0  0  0  0  0  0  0  0  0  0
   -2.5688    1.8383    4.0613 H   0  0  0  0  0  0  0  0  0  0  0  0
  1 19  1  0  0  0  0
  2  1  1  0  0  0  0
  3  1  1  0  0  0  0
  4 19  1  0  0  0  0
  4 18  1  0  0  0  0
  5  1  1  0  0  0  0
  6  4  1  0  0  0  0
  7  5  1  0  0  0  0
  7  6  2  0  0  0  0
  8  7  1  0  0  0  0
  9  8  2  0  0  0  0
  9 10  1  0  0  0  0
 10 11  2  0  0  0  0
 11  6  1  0  0  0  0
 11 59  1  0  0  0  0
 12 10  1  0  0  0  0
 12 28  1  0  0  0  0
 13 15  1  0  0  0  0
 13  8  1  0  0  0  0
 14 13  1  0  0  0  0
 14 33  1  0  0  0  0
 15 36  1  0  0  0  0
 15 34  1  0  0  0  0
 16 13  1  0  0  0  0
 17  4  1  0  0  0  0
 17 41  1  0  0  0  0
 18 43  1  0  0  0  0
 18 45  1  0  0  0  0
 19 20  1  1  0  0  0
 19 23  1  0  0  0  0
 20 21  2  0  0  0  0
 21 25  1  0  0  0  0
 21 22  1  0  0  0  0
 22 26  1  0  0  0  0
 23 22  2  0  0  0  0
 23 27  1  0  0  0  0
 24 20  1  0  0  0  0
 24 47  1  0  0  0  0
 25 50  1  0  0  0  0
 26 54  1  0  0  0  0
 27 55  1  0  0  0  0
 27 57  1  0  0  0  0
 29 12  1  0  0  0  0
 30 12  1  0  0  0  0
 31 14  1  0  0  0  0
 32 14  1  0  0  0  0
 35 15  1  0  0  0  0
 37 16  1  0  0  0  0
 38 16  1  0  0  0  0
 39 16  1  0  0  0  0
 40 17  1  0  0  0  0
 42 17  1  0  0  0  0
 44 18  1  0  0  0  0
 46 24  1  0  0  0  0
 48 24  1  0  0  0  0
 49 25  1  0  0  0  0
 51 25  1  0  0  0  0
 52 26  1  0  0  0  0
 53 26  1  0  0  0  0
 56 27  1  0  0  0  0
 58  9  1  0  0  0  0
M  END
$$$$
