CSD_code = UGUSAQ | q = 0 | S = 0 | Stoichiometry = C15H8ClN2O3Re | MND = 6
 OpenBabel04212202103D

 30 33  0  0  0  0  0  0  0  0999 V2000
    1.0924    5.6859    3.6392 Re  0  0  0  0  0  0  0  0  0  0  0  0
   -0.1846    5.7044    1.6322 Cl  0  0  0  0  0  0  0  0  0  0  0  0
    2.0971    4.1150    2.5686 N   0  0  0  0  0  0  0  0  0  0  0  0
    3.2086    4.2011    1.8616 C   0  0  0  0  0  0  0  0  0  0  0  0
    3.7915    5.1051    1.9818 H   0  0  0  0  0  0  0  0  0  0  0  0
    3.6388    3.1992    0.9911 C   0  0  0  0  0  0  0  0  0  0  0  0
    4.5523    3.3385    0.4353 H   0  0  0  0  0  0  0  0  0  0  0  0
    2.8865    2.0572    0.8498 C   0  0  0  0  0  0  0  0  0  0  0  0
    3.1851    1.2657    0.1787 H   0  0  0  0  0  0  0  0  0  0  0  0
    1.7038    1.9303    1.5940 C   0  0  0  0  0  0  0  0  0  0  0  0
   -0.6800    1.7822    3.1096 C   0  0  0  0  0  0  0  0  0  0  0  0
   -1.8604    1.7622    3.8679 C   0  0  0  0  0  0  0  0  0  0  0  0
   -2.5222    0.9111    3.8073 H   0  0  0  0  0  0  0  0  0  0  0  0
   -2.1498    2.8394    4.6716 C   0  0  0  0  0  0  0  0  0  0  0  0
   -3.0480    2.8661    5.2677 H   0  0  0  0  0  0  0  0  0  0  0  0
   -1.2712    3.9227    4.7100 C   0  0  0  0  0  0  0  0  0  0  0  0
   -1.4875    4.7770    5.3383 H   0  0  0  0  0  0  0  0  0  0  0  0
   -0.1580    3.9748    4.0024 N   0  0  0  0  0  0  0  0  0  0  0  0
    0.1429    2.9232    3.2114 C   0  0  0  0  0  0  0  0  0  0  0  0
    1.3491    2.9982    2.4445 C   0  0  0  0  0  0  0  0  0  0  0  0
    0.8511    0.7917    1.5175 C   0  0  0  0  0  0  0  0  0  0  0  0
    1.1391   -0.0128    0.8572 H   0  0  0  0  0  0  0  0  0  0  0  0
   -0.2901    0.7207    2.2430 C   0  0  0  0  0  0  0  0  0  0  0  0
   -0.9365   -0.1418    2.1768 H   0  0  0  0  0  0  0  0  0  0  0  0
   -0.9207    7.7125    4.8189 O   0  0  0  0  0  1  0  0  0  0  0  0
   -0.1294    6.9845    4.4276 C   0  0  0  0  0  2  0  0  0  0  0  0
    2.2047    7.1293    2.9459 C   0  0  0  0  0  2  0  0  0  0  0  0
    2.8271    7.9460    2.4409 O   0  0  0  0  0  1  0  0  0  0  0  0
    2.1370    5.4526    5.2596 C   0  0  0  0  0  2  0  0  0  0  0  0
    2.7542    5.2773    6.2133 O   0  0  0  0  0  1  0  0  0  0  0  0
  1 18  1  0  0  0  0
  1 26  1  0  0  0  0
  1 29  1  0  0  0  0
  2  1  1  0  0  0  0
  3  1  1  0  0  0  0
  4  5  1  0  0  0  0
  4  3  1  0  0  0  0
  6  4  2  0  0  0  0
  7  6  1  0  0  0  0
  8  6  1  0  0  0  0
  8 10  2  0  0  0  0
  9  8  1  0  0  0  0
 10 20  1  0  0  0  0
 11 19  1  0  0  0  0
 11 12  2  0  0  0  0
 12 14  1  0  0  0  0
 13 12  1  0  0  0  0
 14 16  2  0  0  0  0
 14 15  1  0  0  0  0
 16 17  1  0  0  0  0
 18 16  1  0  0  0  0
 19 18  1  0  0  0  0
 20  3  1  0  0  0  0
 20 19  2  0  0  0  0
 21 10  1  0  0  0  0
 21 23  2  0  0  0  0
 22 21  1  0  0  0  0
 23 11  1  0  0  0  0
 24 23  1  0  0  0  0
 26 25  1  0  0  0  0
 27  1  1  0  0  0  0
 28 27  1  0  0  0  0
 29 30  1  0  0  0  0
M  END
$$$$
