CSD_code = UGUXUQ | q = 0 | S = 0 | Stoichiometry = C20H26ClN3OPd | MND = 4
 OpenBabel04212202103D

 52 55  0  0  1  0  0  0  0  0999 V2000
    0.7688    7.1370    0.9737 Pd  0  0  2  0  0  0  0  0  0  0  0  0
    0.1694    5.0051    1.0223 Cl  0  0  0  0  0  0  0  0  0  0  0  0
    1.2990    9.1242    1.0381 N   0  0  0  0  0  0  0  0  0  0  0  0
    0.9500    6.8980   -1.1888 N   0  0  0  0  0  0  0  0  0  0  0  0
    1.8269    5.4152   -4.9929 N   0  0  0  0  0  0  0  0  0  0  0  0
    2.0921   10.7444    2.3487 O   0  0  0  0  0  0  0  0  0  0  0  0
    1.0080    7.2967    2.9541 C   0  0  0  0  0  0  0  0  0  0  0  0
    1.6214    8.5231    3.3007 C   0  0  0  0  0  0  0  0  0  0  0  0
    2.0170    8.8153    4.6050 C   0  0  0  0  0  0  0  0  0  0  0  0
    2.4803    9.7674    4.8201 H   0  0  0  0  0  0  0  0  0  0  0  0
    1.8039    7.8780    5.5948 C   0  0  0  0  0  0  0  0  0  0  0  0
    2.1038    8.0855    6.6119 H   0  0  0  0  0  0  0  0  0  0  0  0
    1.2001    6.6681    5.2795 C   0  0  0  0  0  0  0  0  0  0  0  0
    1.0315    5.9392    6.0601 H   0  0  0  0  0  0  0  0  0  0  0  0
    0.8129    6.3756    3.9789 C   0  0  0  0  0  0  0  0  0  0  0  0
    0.3488    5.4210    3.7666 H   0  0  0  0  0  0  0  0  0  0  0  0
    1.7022    9.4650    2.2126 C   0  0  0  0  0  0  0  0  0  0  0  0
    1.1983   10.3051    0.2104 C   0  0  2  0  0  0  0  0  0  0  0  0
    1.6909   10.1415   -0.7552 H   0  0  0  0  0  0  0  0  0  0  0  0
    1.9603   11.3481    1.0643 C   0  0  0  0  0  0  0  0  0  0  0  0
    2.9633   11.5449    0.6697 H   0  0  0  0  0  0  0  0  0  0  0  0
    1.4347   12.2956    1.1826 H   0  0  0  0  0  0  0  0  0  0  0  0
   -0.2967   10.6475   -0.0543 C   0  0  0  0  0  0  0  0  0  0  0  0
   -0.9544    9.4654   -0.7739 C   0  0  0  0  0  0  0  0  0  0  0  0
   -0.9264    8.5662   -0.1346 H   0  0  0  0  0  0  0  0  0  0  0  0
   -0.4445    9.2520   -1.7121 H   0  0  0  0  0  0  0  0  0  0  0  0
   -1.9950    9.6960   -0.9912 H   0  0  0  0  0  0  0  0  0  0  0  0
   -0.3802   11.8864   -0.9489 C   0  0  0  0  0  0  0  0  0  0  0  0
   -1.4201   12.1078   -1.1766 H   0  0  0  0  0  0  0  0  0  0  0  0
    0.1462   11.7171   -1.8861 H   0  0  0  0  0  0  0  0  0  0  0  0
    0.0521   12.7603   -0.4678 H   0  0  0  0  0  0  0  0  0  0  0  0
   -1.0426   10.8806    1.2616 C   0  0  0  0  0  0  0  0  0  0  0  0
   -1.0150    9.9784    1.8742 H   0  0  0  0  0  0  0  0  0  0  0  0
   -2.0836   11.1187    1.0561 H   0  0  0  0  0  0  0  0  0  0  0  0
   -0.6169   11.7009    1.8343 H   0  0  0  0  0  0  0  0  0  0  0  0
    0.0154    6.3137   -1.9396 C   0  0  0  0  0  3  0  0  0  0  0  0
   -0.9754    6.2472   -1.5044 H   0  0  0  0  0  0  0  0  0  0  0  0
    0.2553    5.8089   -3.1962 C   0  0  0  0  0  0  0  0  0  0  0  0
   -0.5588    5.3539   -3.7330 H   0  0  0  0  0  0  0  0  0  0  0  0
    1.5473    5.8807   -3.7501 C   0  0  0  0  0  0  0  0  0  0  0  0
    2.5269    6.4793   -2.9349 C   0  0  0  0  0  0  0  0  0  0  0  0
    3.5500    6.5644   -3.2596 H   0  0  0  0  0  0  0  0  0  0  0  0
    2.1841    6.9564   -1.6901 C   0  0  0  0  0  0  0  0  0  0  0  0
    2.9395    7.4196   -1.0579 H   0  0  0  0  0  0  0  0  0  0  0  0
    3.1709    5.4832   -5.5135 C   0  0  0  0  0  0  0  0  0  0  0  0
    3.8647    4.8926   -4.9073 H   0  0  0  0  0  0  0  0  0  0  0  0
    3.5240    6.5177   -5.5426 H   0  0  0  0  0  0  0  0  0  0  0  0
    3.1879    5.0932   -6.5278 H   0  0  0  0  0  0  0  0  0  0  0  0
    0.8054    4.7517   -5.7676 C   0  0  0  0  0  0  0  0  0  0  0  0
    0.4258    3.8671   -5.2480 H   0  0  0  0  0  0  0  0  0  0  0  0
    1.2204    4.4349   -6.7208 H   0  0  0  0  0  0  0  0  0  0  0  0
   -0.0315    5.4266   -5.9681 H   0  0  0  0  0  0  0  0  0  0  0  0
  1  2  1  1  0  0  0
  1  3  1  0  0  0  0
  1  7  2  0  0  0  0
  3 17  1  0  0  0  0
  4  1  1  0  0  0  0
  5 40  1  0  0  0  0
  7  8  1  0  0  0  0
  7 15  1  0  0  0  0
  8  9  1  0  0  0  0
  9 10  1  0  0  0  0
  9 11  2  0  0  0  0
 11 12  1  0  0  0  0
 13 11  1  0  0  0  0
 13 14  1  0  0  0  0
 15 13  2  0  0  0  0
 16 15  1  0  0  0  0
 17  6  1  0  0  0  0
 17  8  2  0  0  0  0
 18 19  1  6  0  0  0
 18  3  1  0  0  0  0
 18 20  1  0  0  0  0
 20 22  1  0  0  0  0
 20  6  1  0  0  0  0
 21 20  1  0  0  0  0
 23 18  1  0  0  0  0
 23 32  1  0  0  0  0
 24 25  1  0  0  0  0
 24 23  1  0  0  0  0
 26 24  1  0  0  0  0
 27 24  1  0  0  0  0
 28 31  1  0  0  0  0
 28 23  1  0  0  0  0
 29 28  1  0  0  0  0
 30 28  1  0  0  0  0
 32 35  1  0  0  0  0
 32 33  1  0  0  0  0
 34 32  1  0  0  0  0
 36 37  1  0  0  0  0
 36  4  1  0  0  0  0
 38 36  1  0  0  0  0
 39 38  1  0  0  0  0
 40 38  2  0  0  0  0
 40 41  1  0  0  0  0
 41 43  2  0  0  0  0
 42 41  1  0  0  0  0
 43  4  1  0  0  0  0
 43 44  1  0  0  0  0
 45  5  1  0  0  0  0
 45 46  1  0  0  0  0
 47 45  1  0  0  0  0
 48 45  1  0  0  0  0
 49 50  1  0  0  0  0
 49  5  1  0  0  0  0
 51 49  1  0  0  0  0
 52 49  1  0  0  0  0
M  END
$$$$
