CSD_code = UHABUA | q = 0 | S = 0 | Stoichiometry = C14H10Br2HgN2S4 | MND = 4
 OpenBabel04212202103D

 33 34  0  0  0  0  0  0  0  0999 V2000
    1.0394    2.1962    2.5382 Hg  0  0  0  0  0  0  0  0  0  0  0  0
    0.0131   -0.0038    3.1492 Br  0  0  0  0  0  0  0  0  0  0  0  0
    1.6771    3.9148    0.8335 Br  0  0  0  0  0  0  0  0  0  0  0  0
    3.3420    2.2392    4.2805 S   0  0  0  0  0  0  0  0  0  0  0  0
    3.3112    2.4594    7.2656 S   0  0  0  0  0  0  0  0  0  0  0  0
    0.1073    3.8745    4.6970 S   0  0  0  0  0  0  0  0  0  0  0  0
    1.7840    5.7056    6.3695 S   0  0  0  0  0  0  0  0  0  0  0  0
    2.7009    1.8212    5.7576 C   0  0  0  0  0  0  0  0  0  0  0  0
    1.6913    0.9723    5.9733 N   0  0  0  0  0  0  0  0  0  0  0  0
    1.2009    0.5021    5.2112 H   0  0  0  0  0  0  0  0  0  0  0  0
    1.3174    0.8047    7.2840 C   0  0  0  0  0  0  0  0  0  0  0  0
    2.1098    1.5516    8.1627 C   0  0  0  0  0  0  0  0  0  0  0  0
    1.8925    1.5132    9.5286 C   0  0  0  0  0  0  0  0  0  0  0  0
    2.5073    2.0917   10.1985 H   0  0  0  0  0  0  0  0  0  0  0  0
    0.8650    0.7147    9.9982 C   0  0  0  0  0  0  0  0  0  0  0  0
    0.6746    0.6693   11.0590 H   0  0  0  0  0  0  0  0  0  0  0  0
    0.0733   -0.0273    9.1263 C   0  0  0  0  0  0  0  0  0  0  0  0
   -0.7223   -0.6388    9.5221 H   0  0  0  0  0  0  0  0  0  0  0  0
    0.2875    0.0064    7.7620 C   0  0  0  0  0  0  0  0  0  0  0  0
   -0.3201   -0.5603    7.0747 H   0  0  0  0  0  0  0  0  0  0  0  0
    1.3170    5.0077    4.8366 C   0  0  0  0  0  0  0  0  0  0  0  0
    2.0460    5.5178    3.8391 N   0  0  0  0  0  0  0  0  0  0  0  0
    1.9223    5.2265    2.8685 H   0  0  0  0  0  0  0  0  0  0  0  0
    3.0104    6.4250    4.2032 C   0  0  0  0  0  0  0  0  0  0  0  0
    3.0192    6.6675    5.5814 C   0  0  0  0  0  0  0  0  0  0  0  0
    3.9183    7.5558    6.1446 C   0  0  0  0  0  0  0  0  0  0  0  0
    3.9185    7.7365    7.2070 H   0  0  0  0  0  0  0  0  0  0  0  0
    4.8101    8.1952    5.3023 C   0  0  0  0  0  0  0  0  0  0  0  0
    5.5223    8.8907    5.7178 H   0  0  0  0  0  0  0  0  0  0  0  0
    4.8053    7.9544    3.9313 C   0  0  0  0  0  0  0  0  0  0  0  0
    5.5147    8.4662    3.3002 H   0  0  0  0  0  0  0  0  0  0  0  0
    3.9086    7.0697    3.3641 C   0  0  0  0  0  0  0  0  0  0  0  0
    3.8959    6.8709    2.3044 H   0  0  0  0  0  0  0  0  0  0  0  0
  1  2  1  0  0  0  0
  3  1  1  0  0  0  0
  4  8  2  0  0  0  0
  5 12  1  0  0  0  0
  6 21  2  0  0  0  0
  8  9  1  0  0  0  0
  8  5  1  0  0  0  0
  9 11  1  0  0  0  0
 10  9  1  0  0  0  0
 11 19  2  0  0  0  0
 11 12  1  0  0  0  0
 12 13  2  0  0  0  0
 13 15  1  0  0  0  0
 13 14  1  0  0  0  0
 15 16  1  0  0  0  0
 17 18  1  0  0  0  0
 17 15  2  0  0  0  0
 19 17  1  0  0  0  0
 20 19  1  0  0  0  0
 21  7  1  0  0  0  0
 22 24  1  0  0  0  0
 22 21  1  0  0  0  0
 23 22  1  0  0  0  0
 24 25  1  0  0  0  0
 25 26  2  0  0  0  0
 25  7  1  0  0  0  0
 26 27  1  0  0  0  0
 28 29  1  0  0  0  0
 28 26  1  0  0  0  0
 30 28  2  0  0  0  0
 31 30  1  0  0  0  0
 32 30  1  0  0  0  0
 32 24  2  0  0  0  0
 33 32  1  0  0  0  0
M  END
$$$$
