CSD_code = UHAJIX | q = 0 | S = 0 | Stoichiometry = C18H31F5NiP2 | MND = 4
 OpenBabel04212202103D

 57 57  0  0  0  0  0  0  0  0999 V2000
    6.5749    5.7807    3.7432 Ni  0  0  0  0  0  0  0  0  0  0  0  0
    8.0879    7.3475    3.7319 P   0  0  0  0  0  4  0  0  0  0  0  0
    4.9562    4.3437    3.9579 P   0  0  0  0  0  4  0  0  0  0  0  0
    5.4334    6.9723    4.4526 F   0  0  0  0  0  0  0  0  0  0  0  0
    6.6652    5.5198    1.1520 F   0  0  0  0  0  0  0  0  0  0  0  0
    8.0642    3.9166   -0.6280 F   0  0  0  0  0  0  0  0  0  0  0  0
    9.8572    2.0870    0.3576 F   0  0  0  0  0  0  0  0  0  0  0  0
   10.2210    1.8903    3.0614 F   0  0  0  0  0  0  0  0  0  0  0  0
    7.7194    4.5278    2.9809 C   0  0  0  0  0  0  0  0  0  0  0  0
    7.5660    4.5951    1.5972 C   0  0  0  0  0  0  0  0  0  0  0  0
    8.2556    3.8042    0.6974 C   0  0  0  0  0  0  0  0  0  0  0  0
    9.1654    2.8762    1.1971 C   0  0  0  0  0  0  0  0  0  0  0  0
    9.3410    2.7858    2.5718 C   0  0  0  0  0  0  0  0  0  0  0  0
    8.6367    3.5907    3.4509 C   0  0  0  0  0  0  0  0  0  0  0  0
    8.8244    3.4693    4.5074 H   0  0  0  0  0  0  0  0  0  0  0  0
    8.7463    7.7826    5.3967 C   0  0  0  0  0  0  0  0  0  0  0  0
    9.3352    8.7005    5.3266 H   0  0  0  0  0  0  0  0  0  0  0  0
    7.8711    7.9864    6.0192 H   0  0  0  0  0  0  0  0  0  0  0  0
    9.5608    6.6468    6.0020 C   0  0  0  0  0  0  0  0  0  0  0  0
    8.9737    5.7295    6.0043 H   0  0  0  0  0  0  0  0  0  0  0  0
    9.8406    6.8792    7.0278 H   0  0  0  0  0  0  0  0  0  0  0  0
   10.4696    6.4680    5.4317 H   0  0  0  0  0  0  0  0  0  0  0  0
    9.5923    7.1597    2.6710 C   0  0  0  0  0  0  0  0  0  0  0  0
   10.0554    6.2077    2.9443 H   0  0  0  0  0  0  0  0  0  0  0  0
    9.2305    7.0523    1.6446 H   0  0  0  0  0  0  0  0  0  0  0  0
   10.6215    8.2794    2.7421 C   0  0  0  0  0  0  0  0  0  0  0  0
   10.1917    9.2335    2.4480 H   0  0  0  0  0  0  0  0  0  0  0  0
   11.4440    8.0611    2.0633 H   0  0  0  0  0  0  0  0  0  0  0  0
   11.0313    8.3769    3.7441 H   0  0  0  0  0  0  0  0  0  0  0  0
    7.3559    8.9511    3.2054 C   0  0  0  0  0  0  0  0  0  0  0  0
    6.6609    9.2407    3.9967 H   0  0  0  0  0  0  0  0  0  0  0  0
    8.1338    9.7142    3.1238 H   0  0  0  0  0  0  0  0  0  0  0  0
    6.5915    8.7820    1.8987 C   0  0  0  0  0  0  0  0  0  0  0  0
    7.2573    8.5153    1.0804 H   0  0  0  0  0  0  0  0  0  0  0  0
    6.0692    9.6989    1.6343 H   0  0  0  0  0  0  0  0  0  0  0  0
    5.8557    7.9855    2.0182 H   0  0  0  0  0  0  0  0  0  0  0  0
    4.6648    4.1848    5.7703 C   0  0  0  0  0  0  0  0  0  0  0  0
    4.1211    5.0816    6.0748 H   0  0  0  0  0  0  0  0  0  0  0  0
    4.0540    3.3080    5.9948 H   0  0  0  0  0  0  0  0  0  0  0  0
    6.0064    4.1335    6.4914 C   0  0  0  0  0  0  0  0  0  0  0  0
    6.5485    3.2221    6.2446 H   0  0  0  0  0  0  0  0  0  0  0  0
    5.8773    4.1788    7.5709 H   0  0  0  0  0  0  0  0  0  0  0  0
    6.6051    4.9954    6.1735 H   0  0  0  0  0  0  0  0  0  0  0  0
    5.1206    2.5997    3.3621 C   0  0  0  0  0  0  0  0  0  0  0  0
    5.4005    2.6494    2.3065 H   0  0  0  0  0  0  0  0  0  0  0  0
    5.9754    2.1742    3.8952 H   0  0  0  0  0  0  0  0  0  0  0  0
    3.8985    1.7078    3.5321 C   0  0  0  0  0  0  0  0  0  0  0  0
    3.5771    1.6666    4.5701 H   0  0  0  0  0  0  0  0  0  0  0  0
    4.1391    0.6944    3.2159 H   0  0  0  0  0  0  0  0  0  0  0  0
    3.0670    2.0587    2.9268 H   0  0  0  0  0  0  0  0  0  0  0  0
    3.3094    4.8952    3.3538 C   0  0  0  0  0  0  0  0  0  0  0  0
    2.5405    4.2132    3.7271 H   0  0  0  0  0  0  0  0  0  0  0  0
    3.1482    5.8798    3.7988 H   0  0  0  0  0  0  0  0  0  0  0  0
    3.2723    5.0073    1.8350 C   0  0  0  0  0  0  0  0  0  0  0  0
    4.0697    5.6653    1.4947 H   0  0  0  0  0  0  0  0  0  0  0  0
    2.3213    5.4213    1.5059 H   0  0  0  0  0  0  0  0  0  0  0  0
    3.4053    4.0363    1.3621 H   0  0  0  0  0  0  0  0  0  0  0  0
  1  3  1  0  0  0  0
  1  4  1  0  0  0  0
  2  1  1  0  0  0  0
  2 16  1  0  0  0  0
  3 37  1  0  0  0  0
  5 10  1  0  0  0  0
  6 11  1  0  0  0  0
  7 12  1  0  0  0  0
  9 14  1  0  0  0  0
  9  1  1  0  0  0  0
 10  9  2  0  0  0  0
 11 12  2  0  0  0  0
 11 10  1  0  0  0  0
 12 13  1  0  0  0  0
 13  8  1  0  0  0  0
 13 14  2  0  0  0  0
 14 15  1  0  0  0  0
 16 19  1  0  0  0  0
 16 18  1  0  0  0  0
 17 16  1  0  0  0  0
 19 20  1  0  0  0  0
 19 21  1  0  0  0  0
 22 19  1  0  0  0  0
 23 26  1  0  0  0  0
 23 24  1  0  0  0  0
 23  2  1  0  0  0  0
 25 23  1  0  0  0  0
 26 29  1  0  0  0  0
 27 26  1  0  0  0  0
 28 26  1  0  0  0  0
 30  2  1  0  0  0  0
 30 31  1  0  0  0  0
 32 30  1  0  0  0  0
 33 36  1  0  0  0  0
 33 30  1  0  0  0  0
 34 33  1  0  0  0  0
 35 33  1  0  0  0  0
 37 39  1  0  0  0  0
 37 38  1  0  0  0  0
 37 40  1  0  0  0  0
 40 42  1  0  0  0  0
 41 40  1  0  0  0  0
 43 40  1  0  0  0  0
 44 47  1  0  0  0  0
 44 46  1  0  0  0  0
 44  3  1  0  0  0  0
 45 44  1  0  0  0  0
 47 48  1  0  0  0  0
 49 47  1  0  0  0  0
 50 47  1  0  0  0  0
 51 52  1  0  0  0  0
 51 53  1  0  0  0  0
 51  3  1  0  0  0  0
 54 51  1  0  0  0  0
 55 54  1  0  0  0  0
 56 54  1  0  0  0  0
 57 54  1  0  0  0  0
M  END
$$$$
