CSD_code = UHAQEA | q = 0 | S = 0 | Stoichiometry = C20H32I2N6Zn | MND = 4
 OpenBabel04212202103D

 61 64  0  0  0  0  0  0  0  0999 V2000
    0.7508    3.3586   -4.1127 C   0  0  0  0  0  0  0  0  0  0  0  0
    0.2186    4.5732   -3.6890 C   0  0  0  0  0  0  0  0  0  0  0  0
   -0.6170    4.5609   -3.0029 H   0  0  0  0  0  0  0  0  0  0  0  0
    0.7381    5.7700   -4.1437 C   0  0  0  0  0  0  0  0  0  0  0  0
    0.3127    6.7025   -3.8035 H   0  0  0  0  0  0  0  0  0  0  0  0
   -0.2070    1.9219   -2.5033 C   0  0  0  0  0  3  0  0  0  0  0  0
    1.5640    3.0599   -1.1897 C   0  0  0  0  0  0  0  0  0  0  0  0
    2.0153    3.1954   -2.1731 H   0  0  0  0  0  0  0  0  0  0  0  0
    2.1777    2.3421   -0.6289 H   0  0  0  0  0  0  0  0  0  0  0  0
    1.5279    4.3947   -0.4572 C   0  0  0  0  0  0  0  0  0  0  0  0
    0.9395    5.1175   -1.0161 H   0  0  0  0  0  0  0  0  0  0  0  0
    2.5392    4.7776   -0.3540 H   0  0  0  0  0  0  0  0  0  0  0  0
    1.0985    4.2798    0.5348 H   0  0  0  0  0  0  0  0  0  0  0  0
   -0.3689    1.8646   -0.2019 C   0  0  0  0  0  0  0  0  0  0  0  0
   -0.8406    2.6123    0.4418 H   0  0  0  0  0  0  0  0  0  0  0  0
    0.4012    1.3405    0.3753 H   0  0  0  0  0  0  0  0  0  0  0  0
   -1.3850    0.8881   -0.8024 C   0  0  0  0  0  0  0  0  0  0  0  0
   -1.2298   -0.1365   -0.4528 H   0  0  0  0  0  0  0  0  0  0  0  0
   -2.4201    1.1790   -0.5852 H   0  0  0  0  0  0  0  0  0  0  0  0
   -2.0322    0.3791   -3.1732 C   0  0  0  0  0  0  0  0  0  0  0  0
   -1.7864    0.7770   -4.1595 H   0  0  0  0  0  0  0  0  0  0  0  0
   -3.0595    0.6823   -2.9295 H   0  0  0  0  0  0  0  0  0  0  0  0
   -1.9317   -1.1422   -3.1752 C   0  0  0  0  0  0  0  0  0  0  0  0
   -2.2917   -1.5589   -2.2378 H   0  0  0  0  0  0  0  0  0  0  0  0
   -0.9015   -1.4594   -3.3173 H   0  0  0  0  0  0  0  0  0  0  0  0
   -2.5282   -1.5451   -3.9889 H   0  0  0  0  0  0  0  0  0  0  0  0
    0.1913    2.1408   -3.7293 N   0  0  0  0  0  0  0  0  0  0  0  0
    0.2362    2.5063   -1.3574 N   0  0  0  0  0  0  0  0  0  0  0  0
   -1.1323    0.9833   -2.2223 N   0  0  0  0  0  0  0  0  0  0  0  0
    1.2705    0.5968   -4.5862 Zn  0  0  0  0  0  0  0  0  0  0  0  0
    2.3828   -0.5362   -2.5945 I   0  0  0  0  0  0  0  0  0  0  0  0
    1.7902    3.3586   -5.0596 C   0  0  0  0  0  0  0  0  0  0  0  0
    2.3225    4.5732   -5.4833 C   0  0  0  0  0  0  0  0  0  0  0  0
    3.1581    4.5609   -6.1694 H   0  0  0  0  0  0  0  0  0  0  0  0
    1.8030    5.7700   -5.0287 C   0  0  0  0  0  0  0  0  0  0  0  0
    2.2284    6.7024   -5.3689 H   0  0  0  0  0  0  0  0  0  0  0  0
    2.7480    1.9219   -6.6691 C   0  0  0  0  0  3  0  0  0  0  0  0
    0.9769    3.0599   -7.9826 C   0  0  0  0  0  0  0  0  0  0  0  0
    0.5256    3.1953   -6.9992 H   0  0  0  0  0  0  0  0  0  0  0  0
    0.3632    2.3421   -8.5433 H   0  0  0  0  0  0  0  0  0  0  0  0
    1.0130    4.3947   -8.7151 C   0  0  0  0  0  0  0  0  0  0  0  0
    1.6014    5.1175   -8.1562 H   0  0  0  0  0  0  0  0  0  0  0  0
    0.0017    4.7776   -8.8182 H   0  0  0  0  0  0  0  0  0  0  0  0
    1.4423    4.2798   -9.7071 H   0  0  0  0  0  0  0  0  0  0  0  0
    2.9098    1.8646   -8.9704 C   0  0  0  0  0  0  0  0  0  0  0  0
    3.3815    2.6123   -9.6142 H   0  0  0  0  0  0  0  0  0  0  0  0
    2.1397    1.3405   -9.5477 H   0  0  0  0  0  0  0  0  0  0  0  0
    3.9259    0.8881   -8.3700 C   0  0  0  0  0  0  0  0  0  0  0  0
    3.7707   -0.1365   -8.7196 H   0  0  0  0  0  0  0  0  0  0  0  0
    4.9610    1.1790   -8.5872 H   0  0  0  0  0  0  0  0  0  0  0  0
    4.5732    0.3791   -5.9993 C   0  0  0  0  0  0  0  0  0  0  0  0
    4.3275    0.7769   -5.0129 H   0  0  0  0  0  0  0  0  0  0  0  0
    5.6005    0.6823   -6.2429 H   0  0  0  0  0  0  0  0  0  0  0  0
    4.4728   -1.1422   -5.9972 C   0  0  0  0  0  0  0  0  0  0  0  0
    4.8327   -1.5590   -6.9347 H   0  0  0  0  0  0  0  0  0  0  0  0
    3.4425   -1.4595   -5.8550 H   0  0  0  0  0  0  0  0  0  0  0  0
    5.0692   -1.5451   -5.1836 H   0  0  0  0  0  0  0  0  0  0  0  0
    2.3497    2.1408   -5.4430 N   0  0  0  0  0  0  0  0  0  0  0  0
    2.3047    2.5063   -7.8150 N   0  0  0  0  0  0  0  0  0  0  0  0
    3.6732    0.9833   -6.9501 N   0  0  0  0  0  0  0  0  0  0  0  0
    0.1583   -0.5363   -6.5777 I   0  0  0  0  0  0  0  0  0  0  0  0
  1 27  1  0  0  0  0
  1  2  1  0  0  0  0
  2  3  1  0  0  0  0
  4  5  1  0  0  0  0
  4  2  2  0  0  0  0
  6 29  1  0  0  0  0
  6 28  1  0  0  0  0
  7  9  1  0  0  0  0
  7 10  1  0  0  0  0
  8  7  1  0  0  0  0
 10 12  1  0  0  0  0
 10 13  1  0  0  0  0
 11 10  1  0  0  0  0
 14 16  1  0  0  0  0
 14 15  1  0  0  0  0
 17 19  1  0  0  0  0
 17 18  1  0  0  0  0
 17 14  1  0  0  0  0
 20 22  1  0  0  0  0
 20 29  1  0  0  0  0
 21 20  1  0  0  0  0
 23 20  1  0  0  0  0
 23 24  1  0  0  0  0
 25 23  1  0  0  0  0
 26 23  1  0  0  0  0
 27  6  1  0  0  0  0
 28  7  1  0  0  0  0
 28 14  1  0  0  0  0
 29 17  1  0  0  0  0
 30 27  1  0  0  0  0
 30 31  1  0  0  0  0
 32  1  2  0  0  0  0
 33 32  1  0  0  0  0
 33 35  2  0  0  0  0
 34 33  1  0  0  0  0
 35  4  1  0  0  0  0
 36 35  1  0  0  0  0
 37 58  1  0  0  0  0
 38 59  1  0  0  0  0
 38 39  1  0  0  0  0
 40 38  1  0  0  0  0
 41 42  1  0  0  0  0
 41 38  1  0  0  0  0
 43 41  1  0  0  0  0
 44 41  1  0  0  0  0
 45 48  1  0  0  0  0
 45 59  1  0  0  0  0
 46 45  1  0  0  0  0
 47 45  1  0  0  0  0
 48 60  1  0  0  0  0
 49 48  1  0  0  0  0
 50 48  1  0  0  0  0
 51 54  1  0  0  0  0
 51 52  1  0  0  0  0
 53 51  1  0  0  0  0
 54 56  1  0  0  0  0
 54 57  1  0  0  0  0
 55 54  1  0  0  0  0
 58 32  1  0  0  0  0
 58 30  1  0  0  0  0
 59 37  1  0  0  0  0
 60 37  1  0  0  0  0
 60 51  1  0  0  0  0
 61 30  1  0  0  0  0
M  END
$$$$
