CSD_code = UHEFIY | q = 0 | S = 0 | Stoichiometry = C21H15Cl3N4OPt | MND = 4
 OpenBabel04212202103D

 45 49  0  0  1  0  0  0  0  0999 V2000
   -0.4751    4.2925    5.8578 Pt  0  0  2  0  0  0  0  0  0  0  0  0
   -2.3615    5.3769    5.2937 Cl  0  0  0  0  0  0  0  0  0  0  0  0
    3.7269    1.7102    3.6092 Cl  0  0  0  0  0  0  0  0  0  0  0  0
    1.5652    2.4691    5.1860 O   0  0  0  0  0  0  0  0  0  0  0  0
   -0.2660    3.3260    4.1571 N   0  0  0  0  0  0  0  0  0  0  0  0
   -0.8434    3.3646    3.3228 H   0  0  0  0  0  0  0  0  0  0  0  0
   -0.5007    5.0986    7.6148 N   0  0  0  0  0  0  0  0  0  0  0  0
   -1.2366    5.7523    7.8829 H   0  0  0  0  0  0  0  0  0  0  0  0
    0.7562    2.5242    4.1317 C   0  0  2  0  0  3  0  0  0  0  0  0
    1.1511    3.3105    6.2469 N   0  0  0  0  0  0  0  0  0  0  0  0
    0.0108    1.1759    2.2110 C   0  0  0  0  0  0  0  0  0  0  0  0
   -1.0006    1.4626    2.4576 H   0  0  0  0  0  0  0  0  0  0  0  0
    0.3960    4.8338    8.5364 C   0  0  2  0  0  3  0  0  0  0  0  0
    0.2325    0.3393    1.1372 C   0  0  0  0  0  0  0  0  0  0  0  0
   -0.6002    0.0002    0.5414 H   0  0  0  0  0  0  0  0  0  0  0  0
    1.5228   -0.0658    0.8318 C   0  0  0  0  0  0  0  0  0  0  0  0
    1.7046   -0.7180   -0.0080 H   0  0  0  0  0  0  0  0  0  0  0  0
    2.3618    1.2002    2.6946 C   0  0  0  0  0  0  0  0  0  0  0  0
    2.5814    0.3637    1.6096 C   0  0  0  0  0  0  0  0  0  0  0  0
    3.5897    0.0558    1.3831 H   0  0  0  0  0  0  0  0  0  0  0  0
    1.0671    1.6293    3.0100 C   0  0  0  0  0  0  0  0  0  0  0  0
   -0.2989    7.8818    8.7887 Cl  0  0  0  0  0  0  0  0  0  0  0  0
    1.4473    4.0196    8.4334 N   0  0  0  0  0  0  0  0  0  0  0  0
    3.0777    2.5513    7.5259 C   0  0  0  0  0  0  0  0  0  0  0  0
    0.2840    5.4450    9.8853 C   0  0  0  0  0  0  0  0  0  0  0  0
    4.1372    2.7607    6.6509 C   0  0  0  0  0  0  0  0  0  0  0  0
    4.0526    3.5064    5.8741 H   0  0  0  0  0  0  0  0  0  0  0  0
    0.5402    4.6402   10.9941 C   0  0  0  0  0  0  0  0  0  0  0  0
    0.8259    3.6159   10.8170 H   0  0  0  0  0  0  0  0  0  0  0  0
    1.8256    3.3258    7.3762 C   0  0  0  0  0  0  0  0  0  0  0  0
    0.4326    5.1341   12.2788 C   0  0  0  0  0  0  0  0  0  0  0  0
    0.6271    4.4901   13.1227 H   0  0  0  0  0  0  0  0  0  0  0  0
    3.2052    1.6262    8.5549 C   0  0  0  0  0  0  0  0  0  0  0  0
    2.3824    1.4811    9.2378 H   0  0  0  0  0  0  0  0  0  0  0  0
    5.3063    2.0360    6.7945 C   0  0  0  0  0  0  0  0  0  0  0  0
    6.1287    2.2044    6.1147 H   0  0  0  0  0  0  0  0  0  0  0  0
   -0.1537    7.2829   11.3949 C   0  0  0  0  0  0  0  0  0  0  0  0
   -0.4109    8.3206   11.5381 H   0  0  0  0  0  0  0  0  0  0  0  0
    0.0781    6.4583   12.4802 C   0  0  0  0  0  0  0  0  0  0  0  0
   -0.0092    6.8547   13.4803 H   0  0  0  0  0  0  0  0  0  0  0  0
   -0.0533    6.7805   10.1062 C   0  0  0  0  0  0  0  0  0  0  0  0
    4.3725    0.8974    8.6878 C   0  0  0  0  0  0  0  0  0  0  0  0
    4.4658    0.1718    9.4823 H   0  0  0  0  0  0  0  0  0  0  0  0
    5.4221    1.0976    7.8060 C   0  0  0  0  0  0  0  0  0  0  0  0
    6.3333    0.5274    7.9114 H   0  0  0  0  0  0  0  0  0  0  0  0
  1  2  1  6  0  0  0
  1 10  1  0  0  0  0
  1  7  1  0  0  0  0
  4 10  1  0  0  0  0
  5  1  1  0  0  0  0
  6  5  1  0  0  0  0
  7  8  1  0  0  0  0
  7 13  1  0  0  0  0
  9 21  1  1  0  0  0
  9  5  1  0  0  0  0
  9  4  1  0  0  0  0
 10 30  1  0  0  0  0
 11 12  1  0  0  0  0
 11 21  1  0  0  0  0
 13 25  1  1  0  0  0
 14 11  2  0  0  0  0
 15 14  1  0  0  0  0
 16 14  1  0  0  0  0
 16 19  2  0  0  0  0
 17 16  1  0  0  0  0
 18 21  2  0  0  0  0
 18  3  1  0  0  0  0
 19 18  1  0  0  0  0
 20 19  1  0  0  0  0
 22 41  1  0  0  0  0
 23 13  1  0  0  0  0
 24 33  1  0  0  0  0
 25 41  2  0  0  0  0
 25 28  1  0  0  0  0
 26 35  1  0  0  0  0
 26 24  2  0  0  0  0
 27 26  1  0  0  0  0
 28 31  2  0  0  0  0
 29 28  1  0  0  0  0
 30 24  1  0  0  0  0
 30 23  2  0  0  0  0
 31 39  1  0  0  0  0
 31 32  1  0  0  0  0
 33 42  2  0  0  0  0
 33 34  1  0  0  0  0
 35 44  2  0  0  0  0
 36 35  1  0  0  0  0
 37 38  1  0  0  0  0
 37 39  2  0  0  0  0
 39 40  1  0  0  0  0
 41 37  1  0  0  0  0
 42 43  1  0  0  0  0
 44 45  1  0  0  0  0
 44 42  1  0  0  0  0
M  END
$$$$
