CSD_code = UHEGOD | q = 1 | S = 0 | Stoichiometry = C24H30ClFeN4O7(1+) | MND = 6
 OpenBabel04212202103D

 67 73  0  0  1  0  0  0  0  0999 V2000
    1.2315    2.5627   11.5331 Fe  0  0  0  0  0  0  0  0  0  0  0  0
    1.5241    0.4321   11.3396 Cl  0  0  0  0  0  0  0  0  0  0  0  0
    2.1441    5.3690   11.9948 C   0  0  0  0  0  0  0  0  0  0  0  0
    1.9910    6.4530   11.9191 H   0  0  0  0  0  0  0  0  0  0  0  0
    3.0376    5.1090   11.4278 H   0  0  0  0  0  0  0  0  0  0  0  0
    2.3599    5.0245   13.4634 C   0  0  1  0  0  0  0  0  0  0  0  0
    1.1178    5.4908   14.2676 C   0  0  0  0  0  0  0  0  0  0  0  0
   -0.0882    4.7171   13.6596 C   0  0  1  0  0  0  0  0  0  0  0  0
    0.1119    3.2153   13.9442 C   0  0  1  0  0  0  0  0  0  0  0  0
   -0.0078    3.0903   15.0283 H   0  0  0  0  0  0  0  0  0  0  0  0
    2.5976    3.5243   13.7149 C   0  0  2  0  0  0  0  0  0  0  0  0
    2.9555    3.4204   14.7491 H   0  0  0  0  0  0  0  0  0  0  0  0
    3.5539    5.7839   14.0474 C   0  0  0  0  0  0  0  0  0  0  0  0
    5.3593    7.2049   13.6360 C   0  0  0  0  0  0  0  0  0  0  0  0
    5.8658    7.5960   12.7586 H   0  0  0  0  0  0  0  0  0  0  0  0
    6.0275    6.5721   14.2212 H   0  0  0  0  0  0  0  0  0  0  0  0
    4.9985    8.0184   14.2662 H   0  0  0  0  0  0  0  0  0  0  0  0
   -1.3511    5.1640   14.4094 C   0  0  0  0  0  0  0  0  0  0  0  0
   -2.7925    6.9628   14.8301 C   0  0  0  0  0  0  0  0  0  0  0  0
   -2.8966    7.9899   14.4932 H   0  0  0  0  0  0  0  0  0  0  0  0
   -2.6387    6.9209   15.9088 H   0  0  0  0  0  0  0  0  0  0  0  0
   -3.6793    6.3817   14.5779 H   0  0  0  0  0  0  0  0  0  0  0  0
   -0.9179    2.3981   13.1997 C   0  0  2  0  0  3  0  0  0  0  0  0
   -2.0737    1.8945   13.7675 C   0  0  0  0  0  0  0  0  0  0  0  0
   -2.3011    2.1034   14.7994 H   0  0  0  0  0  0  0  0  0  0  0  0
   -2.9222    1.1244   12.9831 C   0  0  0  0  0  0  0  0  0  0  0  0
   -3.8274    0.7139   13.4009 H   0  0  0  0  0  0  0  0  0  0  0  0
   -2.5688    0.8753   11.6663 C   0  0  0  0  0  0  0  0  0  0  0  0
   -3.1869    0.2658   11.0282 H   0  0  0  0  0  0  0  0  0  0  0  0
   -1.3875    1.4068   11.1811 C   0  0  0  0  0  0  0  0  0  0  0  0
   -1.0439    1.2102   10.1784 H   0  0  0  0  0  0  0  0  0  0  0  0
    3.6316    3.0267   12.7331 C   0  0  2  0  0  3  0  0  0  0  0  0
    4.9790    2.9374   13.0234 C   0  0  0  0  0  0  0  0  0  0  0  0
    5.3398    3.2183   14.0003 H   0  0  0  0  0  0  0  0  0  0  0  0
    5.8466    2.4608   12.0485 C   0  0  0  0  0  0  0  0  0  0  0  0
    6.9017    2.3716   12.2495 H   0  0  0  0  0  0  0  0  0  0  0  0
    5.3177    2.0811   10.8250 C   0  0  0  0  0  0  0  0  0  0  0  0
    5.9475    1.6833   10.0467 H   0  0  0  0  0  0  0  0  0  0  0  0
    3.9560    2.2053   10.6172 C   0  0  0  0  0  0  0  0  0  0  0  0
    3.4986    1.8846    9.6949 H   0  0  0  0  0  0  0  0  0  0  0  0
   -0.2002    5.0599   12.1714 C   0  0  0  0  0  0  0  0  0  0  0  0
   -1.0664    4.5537   11.7456 H   0  0  0  0  0  0  0  0  0  0  0  0
   -0.3476    6.1453   12.0823 H   0  0  0  0  0  0  0  0  0  0  0  0
    0.8857    4.9664   10.0152 C   0  0  0  0  0  0  0  0  0  0  0  0
    1.8979    5.0416    9.6107 H   0  0  0  0  0  0  0  0  0  0  0  0
    0.3829    5.9283    9.8648 H   0  0  0  0  0  0  0  0  0  0  0  0
    0.1556    3.8625    9.2567 C   0  0  0  0  0  0  0  0  0  0  0  0
   -0.8495    3.7185    9.6577 H   0  0  0  0  0  0  0  0  0  0  0  0
    0.0769    4.1189    8.1962 H   0  0  0  0  0  0  0  0  0  0  0  0
    1.6370    1.4066   14.1763 C   0  0  0  0  0  0  0  0  0  0  0  0
    1.7088    1.5438   15.2592 H   0  0  0  0  0  0  0  0  0  0  0  0
    2.5514    0.9553   13.8003 H   0  0  0  0  0  0  0  0  0  0  0  0
    0.8202    0.7274   13.9485 H   0  0  0  0  0  0  0  0  0  0  0  0
    1.0447    6.8698   14.0638 O   0  0  0  0  0  0  0  0  0  0  0  0
    0.2881    7.2382   14.5418 H   0  0  0  0  0  0  0  0  0  0  0  0
    1.1788    5.1734   15.6115 O   0  0  0  0  0  0  0  0  0  0  0  0
    2.0306    5.4770   15.9791 H   0  0  0  0  0  0  0  0  0  0  0  0
    3.8024    5.7573   15.2284 O   0  0  0  0  0  0  0  0  0  0  0  0
    4.2543    6.4394   13.1471 O   0  0  0  0  0  0  0  0  0  0  0  0
   -1.9775    4.4699   15.1572 O   0  0  0  0  0  0  0  0  0  0  0  0
   -1.6505    6.4355   14.1484 O   0  0  0  0  0  0  0  0  0  0  0  0
    0.8244    2.6278    9.4342 O   0  0  0  0  0  0  0  0  0  0  0  0
    0.9988    4.6461   11.4464 N   0  0  2  0  0  4  0  0  0  0  0  0
    1.4116    2.6866   13.4994 N   0  0  2  0  0  4  0  0  0  0  0  0
   -0.5841    2.1616   11.9233 N   0  0  0  0  0  0  0  0  0  0  0  0
    3.1234    2.6839   11.5376 N   0  0  0  0  0  0  0  0  0  0  0  0
    1.5579    2.5483    8.8133 H   0  0  0  0  0  0  0  0  0  0  0  0
  1 66  1  0  0  0  0
  1 65  1  0  0  0  0
  1 64  1  0  0  0  0
  2  1  1  0  0  0  0
  3  6  1  0  0  0  0
  4  3  1  0  0  0  0
  5  3  1  0  0  0  0
  6 11  1  0  0  0  0
  6 13  1  1  0  0  0
  6  7  1  0  0  0  0
  7 56  1  0  0  0  0
  8  9  1  0  0  0  0
  8  7  1  0  0  0  0
  8 18  1  1  0  0  0
  9 10  1  1  0  0  0
 11 12  1  1  0  0  0
 13 58  2  0  0  0  0
 14 16  1  0  0  0  0
 14 17  1  0  0  0  0
 15 14  1  0  0  0  0
 18 60  2  0  0  0  0
 19 21  1  0  0  0  0
 20 19  1  0  0  0  0
 22 19  1  0  0  0  0
 23 24  1  1  0  0  0
 23  9  1  0  0  0  0
 24 25  1  0  0  0  0
 26 27  1  0  0  0  0
 26 24  2  0  0  0  0
 28 26  1  0  0  0  0
 29 28  1  0  0  0  0
 30 28  2  0  0  0  0
 30 65  1  0  0  0  0
 31 30  1  0  0  0  0
 32 33  1  6  0  0  0
 32 11  1  0  0  0  0
 33 34  1  0  0  0  0
 35 36  1  0  0  0  0
 35 33  2  0  0  0  0
 37 35  1  0  0  0  0
 38 37  1  0  0  0  0
 39 37  2  0  0  0  0
 39 66  1  0  0  0  0
 40 39  1  0  0  0  0
 41  8  1  0  0  0  0
 42 41  1  0  0  0  0
 43 41  1  0  0  0  0
 45 44  1  0  0  0  0
 46 44  1  0  0  0  0
 47 62  1  0  0  0  0
 47 48  1  0  0  0  0
 47 44  1  0  0  0  0
 49 47  1  0  0  0  0
 50 51  1  0  0  0  0
 52 50  1  0  0  0  0
 53 50  1  0  0  0  0
 54  7  1  0  0  0  0
 54 55  1  0  0  0  0
 56 57  1  0  0  0  0
 59 14  1  0  0  0  0
 59 13  1  0  0  0  0
 61 18  1  0  0  0  0
 61 19  1  0  0  0  0
 63 44  1  6  0  0  0
 63  1  1  0  0  0  0
 63  3  1  0  0  0  0
 63 41  1  0  0  0  0
 64 11  1  0  0  0  0
 64  9  1  0  0  0  0
 64 50  1  1  0  0  0
 65 23  1  0  0  0  0
 66 32  1  0  0  0  0
 67 62  1  0  0  0  0
M  END
$$$$
