CSD_code = UHEHOE | q = 0 | S = 0 | Stoichiometry = C17H14Br2FeN4O2 | MND = 6
 OpenBabel04212202103D

 40 44  0  0  1  0  0  0  0  0999 V2000
   -2.0858    2.1721    8.9212 Fe  0  0  0  0  0  0  0  0  0  0  0  0
    0.2299    2.1254    8.4442 Br  0  0  0  0  0  0  0  0  0  0  0  0
   -2.1861    4.4937    9.1184 Br  0  0  0  0  0  0  0  0  0  0  0  0
   -3.7822   -1.0019   11.0028 O   0  0  0  0  0  0  0  0  0  0  0  0
   -2.0749    0.2531    8.6754 O   0  0  0  0  0  0  0  0  0  0  0  0
   -3.9779    2.0346    9.2074 N   0  0  0  0  0  0  0  0  0  0  0  0
   -1.7822    1.9077   10.7693 N   0  0  0  0  0  0  0  0  0  0  0  0
   -2.3142    2.0812    6.9052 N   0  0  0  0  0  0  0  0  0  0  0  0
   -2.0079   -1.4887    7.2431 N   0  0  0  0  0  0  0  0  0  0  0  0
   -1.8569   -2.0966    8.0329 H   0  0  0  0  0  0  0  0  0  0  0  0
   -1.7579   -1.8299    6.3330 H   0  0  0  0  0  0  0  0  0  0  0  0
   -4.4222    0.9715    9.8935 C   0  0  2  0  0  3  0  0  0  0  0  0
   -4.8792    2.7786    8.5619 C   0  0  0  0  0  0  0  0  0  0  0  0
   -4.4980    3.6473    8.0484 H   0  0  0  0  0  0  0  0  0  0  0  0
   -6.2280    2.4915    8.5402 C   0  0  0  0  0  0  0  0  0  0  0  0
   -6.9013    3.1367    7.9995 H   0  0  0  0  0  0  0  0  0  0  0  0
   -6.6895    1.3670    9.2149 C   0  0  0  0  0  0  0  0  0  0  0  0
   -7.7353    1.1025    9.2085 H   0  0  0  0  0  0  0  0  0  0  0  0
   -5.7673    0.6036    9.9006 C   0  0  0  0  0  0  0  0  0  0  0  0
   -6.0481   -0.2782   10.4551 H   0  0  0  0  0  0  0  0  0  0  0  0
   -3.5017    0.1532   10.7234 C   0  0  0  0  0  0  0  0  0  0  0  0
   -2.3598    0.8455   11.3530 C   0  0  2  0  0  3  0  0  0  0  0  0
   -0.8285    2.5510   11.4502 C   0  0  0  0  0  0  0  0  0  0  0  0
   -0.3975    3.4205   10.9763 H   0  0  0  0  0  0  0  0  0  0  0  0
   -0.3839    2.1527   12.6931 C   0  0  0  0  0  0  0  0  0  0  0  0
    0.3927    2.7157   13.1845 H   0  0  0  0  0  0  0  0  0  0  0  0
   -0.9354    1.0177   13.2768 C   0  0  0  0  0  0  0  0  0  0  0  0
   -0.5928    0.6611   14.2356 H   0  0  0  0  0  0  0  0  0  0  0  0
   -1.9408    0.3660   12.5952 C   0  0  0  0  0  0  0  0  0  0  0  0
   -2.4293   -0.5117   12.9891 H   0  0  0  0  0  0  0  0  0  0  0  0
   -2.1637    0.8229    6.4291 C   0  0  0  0  0  0  0  0  0  0  0  0
   -2.4459    3.0751    6.0382 C   0  0  0  0  0  0  0  0  0  0  0  0
   -2.5284    4.0671    6.4592 H   0  0  0  0  0  0  0  0  0  0  0  0
   -2.4395    2.8835    4.6668 C   0  0  0  0  0  0  0  0  0  0  0  0
   -2.5324    3.7305    4.0075 H   0  0  0  0  0  0  0  0  0  0  0  0
   -2.2951    1.5950    4.1692 C   0  0  0  0  0  0  0  0  0  0  0  0
   -2.2778    1.4114    3.1061 H   0  0  0  0  0  0  0  0  0  0  0  0
   -2.1580    0.5496    5.0633 C   0  0  0  0  0  0  0  0  0  0  0  0
   -2.0336   -0.4614    4.7087 H   0  0  0  0  0  0  0  0  0  0  0  0
   -2.0456   -0.1627    7.5016 C   0  0  0  0  0  0  0  0  0  0  0  0
  1  3  1  0  0  0  0
  1  6  1  0  0  0  0
  1  7  1  0  0  0  0
  2  1  1  0  0  0  0
  5  1  1  0  0  0  0
  6 12  1  0  0  0  0
  7 22  1  0  0  0  0
  7 23  1  0  0  0  0
  8  1  1  0  0  0  0
  9 40  1  0  0  0  0
  9 10  1  0  0  0  0
 11  9  1  0  0  0  0
 12 19  1  1  0  0  0
 12 21  1  0  0  0  0
 13  6  1  0  0  0  0
 14 13  1  0  0  0  0
 15 13  2  0  0  0  0
 15 17  1  0  0  0  0
 16 15  1  0  0  0  0
 17 19  2  0  0  0  0
 18 17  1  0  0  0  0
 19 20  1  0  0  0  0
 21  4  2  0  0  0  0
 22 21  1  1  0  0  0
 22 29  1  0  0  0  0
 23 25  2  0  0  0  0
 24 23  1  0  0  0  0
 25 26  1  0  0  0  0
 25 27  1  0  0  0  0
 27 28  1  0  0  0  0
 29 30  1  0  0  0  0
 29 27  2  0  0  0  0
 31  8  1  0  0  0  0
 31 40  2  0  0  0  0
 32 33  1  0  0  0  0
 32  8  1  0  0  0  0
 34 32  2  0  0  0  0
 35 34  1  0  0  0  0
 36 34  1  0  0  0  0
 36 38  2  0  0  0  0
 37 36  1  0  0  0  0
 38 31  1  0  0  0  0
 39 38  1  0  0  0  0
 40  5  1  0  0  0  0
M  END
$$$$
