CSD_code = UHEJAS | q = 0 | S = 0 | Stoichiometry = C26H26Cl2Zr | MND = 12
 OpenBabel04212202103D

 55 58  0  0  1  0  0  0  0  0999 V2000
    3.8949    1.0359    4.0354 Zr  0  0  0  0  0  0  0  0  0  0  0  0
    1.9749    2.3818    3.9144 Cl  0  0  0  0  0  0  0  0  0  0  0  0
    5.1480    3.0049    4.0170 Cl  0  0  0  0  0  0  0  0  0  0  0  0
    4.9256    0.7463    6.2227 C   0  0  1  0  0  0  0  0  0  0  0  0
    3.6027    1.2337    6.4606 C   0  0  0  0  0  0  0  0  0  0  0  0
    2.6880    0.2111    6.0867 C   0  0  0  0  0  0  0  0  0  0  0  0
    3.4351   -0.8932    5.6166 C   0  0  0  0  0  0  0  0  0  0  0  0
    3.0252   -1.8686    5.3842 H   0  0  0  0  0  0  0  0  0  0  0  0
    4.8079   -0.5658    5.6772 C   0  0  0  0  0  0  0  0  0  0  0  0
    5.6323   -1.2549    5.5371 H   0  0  0  0  0  0  0  0  0  0  0  0
    3.2227    2.5810    7.0086 C   0  0  0  0  0  0  0  0  0  0  0  0
    2.2612    2.8981    6.6014 H   0  0  0  0  0  0  0  0  0  0  0  0
    3.9751    3.3281    6.7469 H   0  0  0  0  0  0  0  0  0  0  0  0
    3.1302    2.5485    8.0969 H   0  0  0  0  0  0  0  0  0  0  0  0
    1.1996    0.2313    6.2861 C   0  0  0  0  0  0  0  0  0  0  0  0
    0.7571   -0.6902    5.9096 H   0  0  0  0  0  0  0  0  0  0  0  0
    0.7387    1.0753    5.7703 H   0  0  0  0  0  0  0  0  0  0  0  0
    0.9638    0.3172    7.3480 H   0  0  0  0  0  0  0  0  0  0  0  0
    6.2074    1.4007    6.5032 C   0  0  0  0  0  0  0  0  0  0  0  0
    6.4041    2.2115    7.6204 C   0  0  0  0  0  0  0  0  0  0  0  0
    5.5979    2.3628    8.3211 H   0  0  0  0  0  0  0  0  0  0  0  0
    7.6325    2.8047    7.8492 C   0  0  0  0  0  0  0  0  0  0  0  0
    7.7670    3.4355    8.7158 H   0  0  0  0  0  0  0  0  0  0  0  0
    8.6861    2.5947    6.9767 C   0  0  0  0  0  0  0  0  0  0  0  0
    9.6409    3.0663    7.1549 H   0  0  0  0  0  0  0  0  0  0  0  0
    8.5086    1.7748    5.8735 C   0  0  0  0  0  0  0  0  0  0  0  0
    9.3241    1.6011    5.1870 H   0  0  0  0  0  0  0  0  0  0  0  0
    7.2842    1.1818    5.6394 C   0  0  0  0  0  0  0  0  0  0  0  0
    7.1488    0.5534    4.7652 H   0  0  0  0  0  0  0  0  0  0  0  0
    5.1925    0.0320    2.2213 C   0  0  2  0  0  0  0  0  0  0  0  0
    4.3546    1.0117    1.5854 C   0  0  0  0  0  0  0  0  0  0  0  0
    3.0126    0.5795    1.7042 C   0  0  0  0  0  0  0  0  0  0  0  0
    2.9997   -0.6392    2.4316 C   0  0  0  0  0  0  0  0  0  0  0  0
    2.1241   -1.2570    2.5973 H   0  0  0  0  0  0  0  0  0  0  0  0
    4.3358   -0.9975    2.7111 C   0  0  0  0  0  0  0  0  0  0  0  0
    4.6590   -1.9423    3.1291 H   0  0  0  0  0  0  0  0  0  0  0  0
    4.7936    2.1849    0.7534 C   0  0  0  0  0  0  0  0  0  0  0  0
    4.1008    2.3274   -0.0754 H   0  0  0  0  0  0  0  0  0  0  0  0
    5.7879    2.0108    0.3445 H   0  0  0  0  0  0  0  0  0  0  0  0
    4.8161    3.1086    1.3383 H   0  0  0  0  0  0  0  0  0  0  0  0
    1.8245    1.2045    1.0324 C   0  0  0  0  0  0  0  0  0  0  0  0
    1.8136    0.9361   -0.0269 H   0  0  0  0  0  0  0  0  0  0  0  0
    1.8496    2.2910    1.1089 H   0  0  0  0  0  0  0  0  0  0  0  0
    0.9003    0.8494    1.4856 H   0  0  0  0  0  0  0  0  0  0  0  0
    6.6581   -0.0262    2.2173 C   0  0  0  0  0  0  0  0  0  0  0  0
    7.4418    1.1314    2.2755 C   0  0  0  0  0  0  0  0  0  0  0  0
    6.9704    2.0973    2.3828 H   0  0  0  0  0  0  0  0  0  0  0  0
    8.8219    1.0480    2.2489 C   0  0  0  0  0  0  0  0  0  0  0  0
    9.4088    1.9537    2.2939 H   0  0  0  0  0  0  0  0  0  0  0  0
    9.4520   -0.1833    2.1742 C   0  0  0  0  0  0  0  0  0  0  0  0
   10.5299   -0.2446    2.1570 H   0  0  0  0  0  0  0  0  0  0  0  0
    8.6881   -1.3376    2.1234 C   0  0  0  0  0  0  0  0  0  0  0  0
    9.1700   -2.3027    2.0641 H   0  0  0  0  0  0  0  0  0  0  0  0
    7.3086   -1.2617    2.1386 C   0  0  0  0  0  0  0  0  0  0  0  0
    6.7252   -2.1684    2.0707 H   0  0  0  0  0  0  0  0  0  0  0  0
  2  1  1  0  0  0  0
  3  1  1  0  0  0  0
  4  1  1  6  0  0  0
  4  5  1  0  0  0  0
  4 19  1  0  0  0  0
  5 11  1  0  0  0  0
  6 15  1  0  0  0  0
  6  5  2  0  0  0  0
  7  9  2  0  0  0  0
  7  6  1  0  0  0  0
  8  7  1  0  0  0  0
  9  4  1  0  0  0  0
 10  9  1  0  0  0  0
 11 14  1  0  0  0  0
 12 11  1  0  0  0  0
 13 11  1  0  0  0  0
 15 18  1  0  0  0  0
 16 15  1  0  0  0  0
 17 15  1  0  0  0  0
 19 20  1  0  0  0  0
 20 22  2  0  0  0  0
 20 21  1  0  0  0  0
 22 23  1  0  0  0  0
 24 25  1  0  0  0  0
 24 22  1  0  0  0  0
 26 24  2  0  0  0  0
 27 26  1  0  0  0  0
 28 26  1  0  0  0  0
 28 19  2  0  0  0  0
 29 28  1  0  0  0  0
 30 35  1  0  0  0  0
 30  1  1  1  0  0  0
 31 32  2  0  0  0  0
 31 30  1  0  0  0  0
 32 33  1  0  0  0  0
 33 34  1  0  0  0  0
 33 35  2  0  0  0  0
 35 36  1  0  0  0  0
 37 40  1  0  0  0  0
 37 31  1  0  0  0  0
 38 37  1  0  0  0  0
 39 37  1  0  0  0  0
 41 43  1  0  0  0  0
 41 44  1  0  0  0  0
 41 32  1  0  0  0  0
 42 41  1  0  0  0  0
 45 30  1  0  0  0  0
 45 46  1  0  0  0  0
 46 47  1  0  0  0  0
 48 46  2  0  0  0  0
 48 49  1  0  0  0  0
 50 48  1  0  0  0  0
 51 50  1  0  0  0  0
 52 54  1  0  0  0  0
 52 50  2  0  0  0  0
 53 52  1  0  0  0  0
 54 45  2  0  0  0  0
 55 54  1  0  0  0  0
M  END
$$$$
