CSD_code = UHEJOG | q = 0 | S = 0 | Stoichiometry = C26H24Cl2F2Zr | MND = 12
 OpenBabel04212202103D

 55 58  0  0  1  0  0  0  0  0999 V2000
    2.0299    9.0239    0.1370 Zr  0  0  0  0  0  0  0  0  0  0  0  0
    1.9238    7.0728   -1.1630 Cl  0  0  0  0  0  0  0  0  0  0  0  0
    4.1685    9.5247   -0.6639 Cl  0  0  0  0  0  0  0  0  0  0  0  0
    2.2979    9.4256    2.5277 C   0  0  2  0  0  0  0  0  0  0  0  0
    3.4021    8.5808    2.1858 C   0  0  0  0  0  0  0  0  0  0  0  0
    2.8778    7.3281    1.7938 C   0  0  0  0  0  0  0  0  0  0  0  0
    1.4624    7.3798    1.9106 C   0  0  0  0  0  0  0  0  0  0  0  0
    0.7922    6.5385    1.7740 H   0  0  0  0  0  0  0  0  0  0  0  0
    1.1038    8.6575    2.3841 C   0  0  0  0  0  0  0  0  0  0  0  0
    0.1174    8.9544    2.7127 H   0  0  0  0  0  0  0  0  0  0  0  0
    4.8574    8.8483    2.4476 C   0  0  0  0  0  0  0  0  0  0  0  0
    5.2951    7.9887    2.9566 H   0  0  0  0  0  0  0  0  0  0  0  0
    4.9773    9.7225    3.0850 H   0  0  0  0  0  0  0  0  0  0  0  0
    5.4176    9.0086    1.5249 H   0  0  0  0  0  0  0  0  0  0  0  0
    3.7018    6.1399    1.3934 C   0  0  0  0  0  0  0  0  0  0  0  0
    4.2627    5.7576    2.2489 H   0  0  0  0  0  0  0  0  0  0  0  0
    4.4188    6.4164    0.6155 H   0  0  0  0  0  0  0  0  0  0  0  0
    3.0652    5.3420    1.0142 H   0  0  0  0  0  0  0  0  0  0  0  0
    2.3958   10.8335    2.9110 C   0  0  0  0  0  0  0  0  0  0  0  0
    1.5744   11.4126    3.8796 C   0  0  0  0  0  0  0  0  0  0  0  0
    0.6394   10.6464    4.4907 F   0  0  0  0  0  0  0  0  0  0  0  0
    1.6649   12.7434    4.2355 C   0  0  0  0  0  0  0  0  0  0  0  0
    1.0044   13.1334    4.9938 H   0  0  0  0  0  0  0  0  0  0  0  0
    2.6038   13.5451    3.6097 C   0  0  0  0  0  0  0  0  0  0  0  0
    2.6852   14.5861    3.8798 H   0  0  0  0  0  0  0  0  0  0  0  0
    3.4263   13.0079    2.6314 C   0  0  0  0  0  0  0  0  0  0  0  0
    4.1470   13.6363    2.1308 H   0  0  0  0  0  0  0  0  0  0  0  0
    3.3229   11.6745    2.2814 C   0  0  0  0  0  0  0  0  0  0  0  0
    3.9503   11.2679    1.4942 H   0  0  0  0  0  0  0  0  0  0  0  0
    1.3496   10.6016   -1.6262 C   0  0  0  0  0  0  0  0  0  0  0  0
    0.2810    9.6565   -1.5580 C   0  0  0  0  0  0  0  0  0  0  0  0
   -0.3137    9.7709   -0.2765 C   0  0  0  0  0  0  0  0  0  0  0  0
    0.3516   10.8073    0.4302 C   0  0  0  0  0  0  0  0  0  0  0  0
    0.0286   11.2391    1.3694 H   0  0  0  0  0  0  0  0  0  0  0  0
    1.3839   11.3127   -0.3901 C   0  0  1  0  0  0  0  0  0  0  0  0
    2.0034   12.1747   -0.1760 H   0  0  0  0  0  0  0  0  0  0  0  0
   -0.3005    8.8667   -2.6961 C   0  0  0  0  0  0  0  0  0  0  0  0
    0.0892    9.2275   -3.6461 H   0  0  0  0  0  0  0  0  0  0  0  0
   -1.3850    8.9844   -2.7019 H   0  0  0  0  0  0  0  0  0  0  0  0
   -0.0803    7.8012   -2.6126 H   0  0  0  0  0  0  0  0  0  0  0  0
   -1.5193    8.9976    0.1793 C   0  0  0  0  0  0  0  0  0  0  0  0
   -1.8084    9.2864    1.1883 H   0  0  0  0  0  0  0  0  0  0  0  0
   -1.3256    7.9211    0.1564 H   0  0  0  0  0  0  0  0  0  0  0  0
   -2.3669    9.1940   -0.4802 H   0  0  0  0  0  0  0  0  0  0  0  0
    2.2483   10.8066   -2.7652 C   0  0  0  0  0  0  0  0  0  0  0  0
    2.6988   12.0738   -3.1346 C   0  0  0  0  0  0  0  0  0  0  0  0
    2.2855   13.1541   -2.4293 F   0  0  0  0  0  0  0  0  0  0  0  0
    3.5492   12.2801   -4.2025 C   0  0  0  0  0  0  0  0  0  0  0  0
    3.8621   13.2844   -4.4414 H   0  0  0  0  0  0  0  0  0  0  0  0
    3.9827   11.1911   -4.9377 C   0  0  0  0  0  0  0  0  0  0  0  0
    4.6509   11.3386   -5.7719 H   0  0  0  0  0  0  0  0  0  0  0  0
    3.5664    9.9159   -4.5897 C   0  0  0  0  0  0  0  0  0  0  0  0
    3.9186    9.0630   -5.1495 H   0  0  0  0  0  0  0  0  0  0  0  0
    2.7143    9.7238   -3.5187 C   0  0  0  0  0  0  0  0  0  0  0  0
    2.4294    8.7192   -3.2302 H   0  0  0  0  0  0  0  0  0  0  0  0
  2  1  1  0  0  0  0
  3  1  1  0  0  0  0
  4  1  1  6  0  0  0
  4 19  1  0  0  0  0
  5 11  1  0  0  0  0
  5  4  1  0  0  0  0
  6  7  1  0  0  0  0
  6  5  2  0  0  0  0
  7  9  2  0  0  0  0
  8  7  1  0  0  0  0
  9  4  1  0  0  0  0
  9 10  1  0  0  0  0
 11 12  1  0  0  0  0
 11 13  1  0  0  0  0
 14 11  1  0  0  0  0
 15  6  1  0  0  0  0
 15 16  1  0  0  0  0
 17 15  1  0  0  0  0
 18 15  1  0  0  0  0
 19 20  1  0  0  0  0
 20 22  2  0  0  0  0
 20 21  1  0  0  0  0
 22 23  1  0  0  0  0
 24 25  1  0  0  0  0
 24 22  1  0  0  0  0
 26 24  2  0  0  0  0
 27 26  1  0  0  0  0
 28 26  1  0  0  0  0
 28 19  2  0  0  0  0
 29 28  1  0  0  0  0
 30 31  2  0  0  0  0
 30 35  1  0  0  0  0
 31 32  1  0  0  0  0
 32 41  1  0  0  0  0
 32 33  2  0  0  0  0
 33 34  1  0  0  0  0
 35 36  1  1  0  0  0
 35  1  1  0  0  0  0
 35 33  1  0  0  0  0
 37 40  1  0  0  0  0
 37 31  1  0  0  0  0
 38 37  1  0  0  0  0
 39 37  1  0  0  0  0
 41 42  1  0  0  0  0
 43 41  1  0  0  0  0
 44 41  1  0  0  0  0
 45 30  1  0  0  0  0
 46 45  1  0  0  0  0
 46 47  1  0  0  0  0
 48 46  2  0  0  0  0
 49 48  1  0  0  0  0
 50 52  2  0  0  0  0
 50 48  1  0  0  0  0
 51 50  1  0  0  0  0
 52 54  1  0  0  0  0
 53 52  1  0  0  0  0
 54 55  1  0  0  0  0
 54 45  2  0  0  0  0
M  END
$$$$
