CSD_code = UHEKAU | q = 0 | S = 0 | Stoichiometry = C11H8Cl2N2O2Zn | MND = 4
 OpenBabel04212202103D

 26 27  0  0  0  0  0  0  0  0999 V2000
    1.0787    2.9585    2.9841 Zn  0  0  0  0  0  0  0  0  0  0  0  0
    2.2248    1.5246    4.1419 Cl  0  0  0  0  0  0  0  0  0  0  0  0
    1.3409    3.7293    0.9109 Cl  0  0  0  0  0  0  0  0  0  0  0  0
    2.9528    7.1770    4.3023 C   0  0  0  0  0  0  0  0  0  0  0  0
    3.5569    8.0674    4.3891 H   0  0  0  0  0  0  0  0  0  0  0  0
    3.2448    6.0108    5.0054 C   0  0  0  0  0  0  0  0  0  0  0  0
    4.0854    5.9693    5.6792 H   0  0  0  0  0  0  0  0  0  0  0  0
    2.4666    4.8812    4.8141 C   0  0  0  0  0  3  0  0  0  0  0  0
    2.6937    3.9524    5.3194 H   0  0  0  0  0  0  0  0  0  0  0  0
    1.4077    4.8402    3.9984 N   0  0  0  0  0  0  0  0  0  0  0  0
    1.0907    5.9616    3.3742 C   0  0  0  0  0  0  0  0  0  0  0  0
   -0.0295    6.2107    2.4575 C   0  0  0  0  0  0  0  0  0  0  0  0
   -1.0303    5.4090    2.1524 N   0  0  0  0  0  0  0  0  0  0  0  0
   -1.9125    5.8627    1.2655 C   0  0  0  0  0  0  0  0  0  0  0  0
   -2.7175    5.1818    1.0248 H   0  0  0  0  0  0  0  0  0  0  0  0
   -1.8453    7.1135    0.6717 C   0  0  0  0  0  0  0  0  0  0  0  0
   -2.5901    7.4076   -0.0501 H   0  0  0  0  0  0  0  0  0  0  0  0
   -0.8171    7.9819    1.0280 C   0  0  0  0  0  0  0  0  0  0  0  0
    0.1020    7.5162    1.9478 C   0  0  0  0  0  0  0  0  0  0  0  0
   -0.7343    8.9736    0.6099 H   0  0  0  0  0  0  0  0  0  0  0  0
    1.2761    8.1848    2.5725 C   0  0  0  0  0  0  0  0  0  0  0  0
    1.6698    9.3085    2.4017 O   0  0  0  0  0  0  0  0  0  0  0  0
    1.8464    7.1432    3.4775 C   0  0  0  0  0  0  0  0  0  0  0  0
   -1.0790    2.8732    3.0576 O   0  0  0  0  0  0  0  0  0  0  0  0
   -1.2278    3.7986    2.7350 H   0  0  0  0  0  0  0  0  0  0  0  0
   -1.5012    2.2866    2.4223 H   0  0  0  0  0  0  0  0  0  0  0  0
  1 10  1  0  0  0  0
  1  2  1  0  0  0  0
  3  1  1  0  0  0  0
  4  5  1  0  0  0  0
  4  6  2  0  0  0  0
  6  7  1  0  0  0  0
  8  6  1  0  0  0  0
  8  9  1  0  0  0  0
 10  8  1  0  0  0  0
 11 23  2  0  0  0  0
 11 10  1  0  0  0  0
 12 11  1  0  0  0  0
 13 12  1  0  0  0  0
 14 13  2  0  0  0  0
 15 14  1  0  0  0  0
 16 18  2  0  0  0  0
 16 14  1  0  0  0  0
 17 16  1  0  0  0  0
 18 19  1  0  0  0  0
 19 12  2  0  0  0  0
 19 21  1  0  0  0  0
 20 18  1  0  0  0  0
 21 23  1  0  0  0  0
 22 21  2  0  0  0  0
 23  4  1  0  0  0  0
 25 24  1  0  0  0  0
 26 24  1  0  0  0  0
M  END
$$$$
