CSD_code = UHIMIH | q = 0 | S = 0 | Stoichiometry = C15H15Cl2N3O4PtS2 | MND = 5
 OpenBabel04212202103D

 42 42  0  0  1  0  0  0  0  0999 V2000
    7.4979    2.7740   12.0158 Pt  0  0  0  0  0  0  0  0  0  0  0  0
    7.6551    0.5903   12.8499 Cl  0  0  0  0  0 15  0  0  0  0  0  0
    7.5980    4.9444   11.2123 Cl  0  0  0  0  0 15  0  0  0  0  0  0
    6.6956    0.7466    7.9152 S   0  0  0  0  0  0  0  0  0  0  0  0
    8.8413   -1.0916    4.7566 S   0  0  0  0  0  0  0  0  0  0  0  0
    9.4684    2.9498   12.3261 N   0  0  0  0  0  0  0  0  0  0  0  0
    7.9529    0.3666    8.9560 N   0  0  0  0  0  0  0  0  0  0  0  0
    9.7134    1.7652   10.3876 N   0  0  0  0  0  0  0  0  0  0  0  0
    8.6913    1.6620   10.4908 H   0  0  0  0  0  0  0  0  0  0  0  0
    6.8168    2.1350    7.6066 O   0  0  0  0  0  0  0  0  0  0  0  0
    5.4715    0.2683    8.4778 O   0  0  0  0  0  0  0  0  0  0  0  0
   11.4093    1.3954    8.8874 O   0  0  0  0  0  0  0  0  0  0  0  0
   10.7378    0.4603    6.5608 O   0  0  0  0  0  0  0  0  0  0  0  0
   11.3342    0.8416    7.2574 H   0  0  0  0  0  0  0  0  0  0  0  0
   10.3148    2.4570   11.4083 C   0  0  2  0  0  3  0  0  0  0  0  0
    9.2299    0.6147    8.3934 C   0  0  0  0  0  0  0  0  0  0  0  0
   11.6939    2.6389   11.5227 C   0  0  0  0  0  0  0  0  0  0  0  0
   12.3408    2.2424   10.7583 H   0  0  0  0  0  0  0  0  0  0  0  0
    9.5327    0.2925    7.0936 C   0  0  0  0  0  0  0  0  0  0  0  0
   12.1814    3.3342   12.6104 C   0  0  0  0  0  0  0  0  0  0  0  0
   13.2432    3.4900   12.7196 H   0  0  0  0  0  0  0  0  0  0  0  0
   11.2939    3.8296   13.5593 C   0  0  0  0  0  0  0  0  0  0  0  0
   11.6431    4.3743   14.4206 H   0  0  0  0  0  0  0  0  0  0  0  0
    7.1633   -1.3450    4.5044 C   0  0  0  0  0  0  0  0  0  0  0  0
    6.8371   -1.8793    3.6342 H   0  0  0  0  0  0  0  0  0  0  0  0
    9.9425    3.6189   13.3748 C   0  0  0  0  0  0  0  0  0  0  0  0
    9.2076    3.9951   14.0772 H   0  0  0  0  0  0  0  0  0  0  0  0
    6.3876   -0.8082    5.4903 C   0  0  0  0  0  0  0  0  0  0  0  0
    5.3151   -0.8497    5.5216 H   0  0  0  0  0  0  0  0  0  0  0  0
    7.1655   -0.1862    6.4770 C   0  0  0  0  0  0  0  0  0  0  0  0
    8.5153   -0.2534    6.2331 C   0  0  0  0  0  0  0  0  0  0  0  0
    7.8134   -0.8858    9.6842 C   0  0  0  0  0  0  0  0  0  0  0  0
    6.7495   -1.0347    9.8485 H   0  0  0  0  0  0  0  0  0  0  0  0
    8.3129   -0.8166   10.6500 H   0  0  0  0  0  0  0  0  0  0  0  0
    8.2178   -1.7297    9.1178 H   0  0  0  0  0  0  0  0  0  0  0  0
   10.2335    1.2746    9.2265 C   0  0  0  0  0  0  0  0  0  0  0  0
    5.6011    2.4110   11.0507 C   0  0  0  0  0  3  0  0  0  0  0  0
    5.3666    2.8839   12.3215 C   0  0  0  0  0  0  0  0  0  0  0  0
    5.5137    1.3517   10.8254 H   0  0  0  0  0  0  0  0  0  0  0  0
    5.5478    3.0734   10.1906 H   0  0  0  0  0  0  0  0  0  0  0  0
    5.1128    3.9292   12.4801 H   0  0  0  0  0  0  0  0  0  0  0  0
    5.0906    2.1977   13.1188 H   0  0  0  0  0  0  0  0  0  0  0  0
  1 38  1  0  0  0  0
  1  6  1  0  0  0  0
  4 11  2  0  0  0  0
  4  7  1  0  0  0  0
  5 31  1  0  0  0  0
  6 26  1  0  0  0  0
  7 32  1  0  0  0  0
  8  9  1  0  0  0  0
 10  4  2  0  0  0  0
 12 36  2  0  0  0  0
 13 19  1  0  0  0  0
 13 14  1  0  0  0  0
 15  8  1  1  0  0  0
 15 17  1  0  0  0  0
 15  6  1  0  0  0  0
 16  7  1  0  0  0  0
 16 36  1  0  0  0  0
 17 20  2  0  0  0  0
 18 17  1  0  0  0  0
 19 16  2  0  0  0  0
 20 21  1  0  0  0  0
 20 22  1  0  0  0  0
 22 23  1  0  0  0  0
 24  5  1  0  0  0  0
 24 28  2  0  0  0  0
 25 24  1  0  0  0  0
 26 22  2  0  0  0  0
 26 27  1  0  0  0  0
 28 29  1  0  0  0  0
 28 30  1  0  0  0  0
 30  4  1  0  0  0  0
 31 30  2  0  0  0  0
 31 19  1  0  0  0  0
 32 33  1  0  0  0  0
 32 34  1  0  0  0  0
 35 32  1  0  0  0  0
 36  8  1  0  0  0  0
 37 38  1  0  0  0  0
 38 41  1  0  0  0  0
 38 42  1  0  0  0  0
 39 37  1  0  0  0  0
 40 37  1  0  0  0  0
M  END
$$$$
