CSD_code = UHUPUI | q = 0 | S = 0 | Stoichiometry = C7H10Cl2N2Pt | MND = 4
 OpenBabel04212202103D

 22 23  0  0  1  0  0  0  0  0999 V2000
   -1.3835   -3.3155   -4.8226 Pt  0  0  0  0  0  0  0  0  0  0  0  0
   -1.1485   -1.4142   -5.9743 Cl  0  0  0  0  0  0  0  0  0  0  0  0
   -1.3828   -4.5349   -6.6950 Cl  0  0  0  0  0  0  0  0  0  0  0  0
   -1.4279   -2.4559   -3.0249 N   0  0  0  0  0  0  0  0  0  0  0  0
   -1.6023   -5.0567   -3.6386 N   0  0  0  0  0  4  0  0  0  0  0  0
   -1.3244   -3.3024   -1.9807 C   0  0  2  0  0  3  0  0  0  0  0  0
   -1.4576   -2.8508   -0.6791 C   0  0  0  0  0  0  0  0  0  0  0  0
   -1.6989   -1.5048   -0.4404 C   0  0  0  0  0  0  0  0  0  0  0  0
   -1.7957   -0.6457   -1.5235 C   0  0  0  0  0  0  0  0  0  0  0  0
   -1.6562   -1.1614   -2.7979 C   0  0  0  0  0  0  0  0  0  0  0  0
   -1.0075   -4.7483   -2.3293 C   0  0  1  0  0  0  0  0  0  0  0  0
   -1.4564   -5.7573   -1.2724 C   0  0  0  0  0  0  0  0  0  0  0  0
   -1.1587   -5.8519   -4.0966 H   0  0  0  0  0  0  0  0  0  0  0  0
   -2.5975   -5.2640   -3.5479 H   0  0  0  0  0  0  0  0  0  0  0  0
   -1.3706   -3.5366    0.1470 H   0  0  0  0  0  0  0  0  0  0  0  0
   -1.8044   -1.1419    0.5698 H   0  0  0  0  0  0  0  0  0  0  0  0
   -1.9756    0.4079   -1.3871 H   0  0  0  0  0  0  0  0  0  0  0  0
   -1.7123   -0.5380   -3.6812 H   0  0  0  0  0  0  0  0  0  0  0  0
    0.0837   -4.8142   -2.4508 H   0  0  0  0  0  0  0  0  0  0  0  0
   -2.5110   -5.6255   -1.0385 H   0  0  0  0  0  0  0  0  0  0  0  0
   -0.8789   -5.6546   -0.3589 H   0  0  0  0  0  0  0  0  0  0  0  0
   -1.3063   -6.7681   -1.6463 H   0  0  0  0  0  0  0  0  0  0  0  0
  1  5  1  0  0  0  0
  1  4  1  0  0  0  0
  2  1  1  0  0  0  0
  3  1  1  0  0  0  0
  4 10  1  0  0  0  0
  4  6  1  0  0  0  0
  5 14  1  0  0  0  0
  5 11  1  0  0  0  0
  6  7  1  1  0  0  0
  7  8  2  0  0  0  0
  7 15  1  0  0  0  0
  8 16  1  0  0  0  0
  9 17  1  0  0  0  0
  9  8  1  0  0  0  0
 10  9  2  0  0  0  0
 11 19  1  6  0  0  0
 11  6  1  0  0  0  0
 11 12  1  0  0  0  0
 12 20  1  0  0  0  0
 12 21  1  0  0  0  0
 13  5  1  0  0  0  0
 18 10  1  0  0  0  0
 22 12  1  0  0  0  0
M  END
$$$$
