CSD_code = UHUZIG | q = 0 | S = 0 | Stoichiometry = C10H20Cl4N4O2Pt | MND = 6
 OpenBabel04212202103D

 41 40  0  0  1  0  0  0  0  0999 V2000
    7.4847    7.4846   -0.0000 Pt  0  0  0  0  0  0  0  0  0  0  0  0
    6.6891    8.5148    1.9877 Cl  0  0  0  0  0  0  0  0  0  0  0  0
    5.8397    5.7882    0.2354 Cl  0  0  0  0  0  0  0  0  0  0  0  0
    8.9024    6.4264    0.9925 N   0  0  0  0  0  0  0  0  0  0  0  0
    9.8171    6.4734    0.5450 H   0  0  0  0  0  0  0  0  0  0  0  0
    7.6970    5.6462    2.7558 N   0  0  0  0  0  0  0  0  0  0  0  0
    6.9096    6.1222    2.3036 H   0  0  0  0  0  0  0  0  0  0  0  0
    8.1902    4.3455    4.5776 O   0  0  0  0  0  0  0  0  0  0  0  0
    8.8664    5.7548    2.0953 C   0  0  2  0  0  3  0  0  0  0  0  0
   10.1197    5.1522    2.6522 C   0  0  0  0  0  0  0  0  0  0  0  0
    9.8909    4.2007    3.1312 H   0  0  0  0  0  0  0  0  0  0  0  0
   10.8342    4.9905    1.8432 H   0  0  0  0  0  0  0  0  0  0  0  0
   10.7174    6.1053    3.6929 C   0  0  0  0  0  0  0  0  0  0  0  0
   10.8819    7.0914    3.2646 H   0  0  0  0  0  0  0  0  0  0  0  0
   11.6675    5.7116    4.0420 H   0  0  0  0  0  0  0  0  0  0  0  0
   10.0499    6.1973    4.5448 H   0  0  0  0  0  0  0  0  0  0  0  0
    7.3841    4.9511    3.9230 C   0  0  0  0  0  0  0  0  0  0  0  0
    5.9231    5.0743    4.2365 C   0  0  0  0  0  0  0  0  0  0  0  0
    5.3347    4.6917    3.4049 H   0  0  0  0  0  0  0  0  0  0  0  0
    5.6681    6.1234    4.3745 H   0  0  0  0  0  0  0  0  0  0  0  0
    5.6900    4.5185    5.1396 H   0  0  0  0  0  0  0  0  0  0  0  0
    8.2804    6.4539   -1.9878 Cl  0  0  0  0  0  0  0  0  0  0  0  0
    9.1295    9.1809   -0.2361 Cl  0  0  0  0  0  0  0  0  0  0  0  0
    6.0670    8.5430   -0.9923 N   0  0  0  0  0  0  0  0  0  0  0  0
    5.1524    8.4961   -0.5446 H   0  0  0  0  0  0  0  0  0  0  0  0
    6.1029    9.2146   -2.0952 C   0  0  1  0  0  3  0  0  0  0  0  0
    7.2722    9.3228   -2.7560 N   0  0  0  0  0  0  0  0  0  0  0  0
    8.0595    8.8464   -2.3041 H   0  0  0  0  0  0  0  0  0  0  0  0
    7.5850   10.0180   -3.9231 C   0  0  0  0  0  0  0  0  0  0  0  0
    6.7791   10.6241   -4.5773 O   0  0  0  0  0  0  0  0  0  0  0  0
    9.0459    9.8943   -4.2368 C   0  0  0  0  0  0  0  0  0  0  0  0
    9.6347   10.2766   -3.4053 H   0  0  0  0  0  0  0  0  0  0  0  0
    9.3005    8.8451   -4.3752 H   0  0  0  0  0  0  0  0  0  0  0  0
    9.2791   10.4503   -5.1399 H   0  0  0  0  0  0  0  0  0  0  0  0
    4.8496    9.8173   -2.6518 C   0  0  0  0  0  0  0  0  0  0  0  0
    5.0784   10.7688   -3.1308 H   0  0  0  0  0  0  0  0  0  0  0  0
    4.1352    9.9790   -1.8428 H   0  0  0  0  0  0  0  0  0  0  0  0
    4.2516    8.8644   -3.6926 C   0  0  0  0  0  0  0  0  0  0  0  0
    4.0872    7.8783   -3.2644 H   0  0  0  0  0  0  0  0  0  0  0  0
    3.3016    9.2582   -4.0416 H   0  0  0  0  0  0  0  0  0  0  0  0
    4.9190    8.7725   -4.5446 H   0  0  0  0  0  0  0  0  0  0  0  0
  1  3  1  0  0  0  0
  1  4  1  0  0  0  0
  1  2  1  0  0  0  0
  5  4  1  0  0  0  0
  6 17  1  0  0  0  0
  7  6  1  0  0  0  0
  9  4  1  1  0  0  0
  9 10  1  0  0  0  0
  9  6  1  0  0  0  0
 10 11  1  0  0  0  0
 10 13  1  0  0  0  0
 12 10  1  0  0  0  0
 13 15  1  0  0  0  0
 13 16  1  0  0  0  0
 14 13  1  0  0  0  0
 17 18  1  0  0  0  0
 17  8  2  0  0  0  0
 18 20  1  0  0  0  0
 18 21  1  0  0  0  0
 19 18  1  0  0  0  0
 22  1  1  0  0  0  0
 23  1  1  0  0  0  0
 24 25  1  0  0  0  0
 24  1  1  0  0  0  0
 26 27  1  6  0  0  0
 26 24  1  0  0  0  0
 27 28  1  0  0  0  0
 29 27  1  0  0  0  0
 30 29  2  0  0  0  0
 31 29  1  0  0  0  0
 31 32  1  0  0  0  0
 33 31  1  0  0  0  0
 34 31  1  0  0  0  0
 35 26  1  0  0  0  0
 35 37  1  0  0  0  0
 36 35  1  0  0  0  0
 38 39  1  0  0  0  0
 38 35  1  0  0  0  0
 40 38  1  0  0  0  0
 41 38  1  0  0  0  0
M  END
$$$$
