CSD_code = UHUZEC | q = 0 | S = 0 | Stoichiometry = C11H21Cl2N3OPt | MND = 4
 OpenBabel04212202103D

 39 38  0  0  1  0  0  0  0  0999 V2000
    0.4545   10.7631    9.0747 C   0  0  1  0  0  3  0  0  0  0  0  0
   -0.2084   11.6448   10.1011 C   0  0  0  0  0  0  0  0  0  0  0  0
   -1.1006   11.1453   10.4812 H   0  0  0  0  0  0  0  0  0  0  0  0
   -0.5023   12.5879    9.6363 H   0  0  0  0  0  0  0  0  0  0  0  0
    0.7632   11.9078   11.2535 C   0  0  0  0  0  0  0  0  0  0  0  0
    1.0564   10.9688   11.7151 H   0  0  0  0  0  0  0  0  0  0  0  0
    0.2933   12.5388   12.0039 H   0  0  0  0  0  0  0  0  0  0  0  0
    1.6604   12.4041   10.8916 H   0  0  0  0  0  0  0  0  0  0  0  0
    0.0988    8.4236    8.6449 C   0  0  1  0  0  3  0  0  0  0  0  0
   -0.7438    8.4209    7.3964 C   0  0  0  0  0  0  0  0  0  0  0  0
   -1.0201    9.4457    7.1446 H   0  0  0  0  0  0  0  0  0  0  0  0
   -1.6484    7.8402    7.5918 H   0  0  0  0  0  0  0  0  0  0  0  0
    0.0332    7.7909    6.2404 C   0  0  0  0  0  0  0  0  0  0  0  0
    0.9362    8.3808    6.0404 H   0  0  0  0  0  0  0  0  0  0  0  0
   -0.5788    7.7835    5.3427 H   0  0  0  0  0  0  0  0  0  0  0  0
    0.3257    6.7741    6.4872 H   0  0  0  0  0  0  0  0  0  0  0  0
    1.3208    7.1423   10.1784 C   0  0  0  0  0  0  0  0  0  0  0  0
    0.8463    7.5942   11.0566 H   0  0  0  0  0  0  0  0  0  0  0  0
    2.2190    7.7173    9.9278 H   0  0  0  0  0  0  0  0  0  0  0  0
    1.6445    5.6793   10.4137 C   0  0  0  0  0  0  0  0  0  0  0  0
    0.7389    5.1196   10.6338 H   0  0  0  0  0  0  0  0  0  0  0  0
    2.3308    5.5896   11.2501 H   0  0  0  0  0  0  0  0  0  0  0  0
    2.1112    5.2567    9.5287 H   0  0  0  0  0  0  0  0  0  0  0  0
    4.0043    9.3710    4.4888 C   0  0  0  0  0  2  0  0  0  0  0  0
    4.8950    8.9960    3.4275 C   0  0  0  0  0  0  0  0  0  0  0  0
    4.3144    8.9009    2.5050 H   0  0  0  0  0  0  0  0  0  0  0  0
    5.3303    8.0212    3.6667 H   0  0  0  0  0  0  0  0  0  0  0  0
    5.9981   10.0457    3.2569 C   0  0  0  0  0  0  0  0  0  0  0  0
    5.5665   11.0134    3.0143 H   0  0  0  0  0  0  0  0  0  0  0  0
    6.6662    9.7482    2.4531 H   0  0  0  0  0  0  0  0  0  0  0  0
    6.5740   10.1437    4.1737 H   0  0  0  0  0  0  0  0  0  0  0  0
    1.1805   11.2569    8.1259 N   0  0  0  0  0  0  0  0  0  0  0  0
    1.2218   12.2768    8.1174 H   0  0  0  0  0  0  0  0  0  0  0  0
    0.4071    9.4572    9.3209 N   0  0  0  0  0  2  0  0  0  0  0  0
    3.3069    9.6902    5.3478 N   0  0  0  0  0  2  0  0  0  0  0  0
    0.4112    7.2252    9.0751 O   0  0  0  0  0  0  0  0  0  0  0  0
    3.4964    9.2110    8.2845 Cl  0  0  0  0  0  0  0  0  0  0  0  0
    0.9870   11.5687    5.1707 Cl  0  0  0  0  0  0  0  0  0  0  0  0
    2.2474   10.3824    6.7144 Pt  0  0  0  0  0  0  0  0  0  0  0  0
  1 34  1  1  0  0  0
  1  2  1  0  0  0  0
  2  3  1  0  0  0  0
  2  5  1  0  0  0  0
  4  2  1  0  0  0  0
  5  6  1  0  0  0  0
  5  7  1  0  0  0  0
  8  5  1  0  0  0  0
  9 36  1  1  0  0  0
  9 34  1  0  0  0  0
 10 12  1  0  0  0  0
 10  9  1  0  0  0  0
 11 10  1  0  0  0  0
 13 16  1  0  0  0  0
 13 10  1  0  0  0  0
 14 13  1  0  0  0  0
 15 13  1  0  0  0  0
 17 20  1  0  0  0  0
 17 18  1  0  0  0  0
 19 17  1  0  0  0  0
 20 21  1  0  0  0  0
 20 22  1  0  0  0  0
 23 20  1  0  0  0  0
 24 35  1  0  0  0  0
 25 27  1  0  0  0  0
 25 24  1  0  0  0  0
 26 25  1  0  0  0  0
 28 25  1  0  0  0  0
 28 31  1  0  0  0  0
 29 28  1  0  0  0  0
 30 28  1  0  0  0  0
 32  1  1  0  0  0  0
 33 32  1  0  0  0  0
 35 39  1  0  0  0  0
 36 17  1  0  0  0  0
 38 39  1  0  0  0  0
 39 32  1  0  0  0  0
 39 37  1  0  0  0  0
M  END
$$$$
