CSD_code = UJALEY | q = 0 | S = 0 | Stoichiometry = C20H35FeIN2O3P2 | MND = 6
 OpenBabel04212202103D

 64 66  0  0  1  0  0  0  0  0999 V2000
    3.1429    5.6182    5.2914 I   0  0  0  0  0  0  0  0  0  0  0  0
    2.7092    6.2951    7.7364 Fe  0  0  0  0  0  0  0  0  0  0  0  0
    4.0340    4.6983    8.4662 P   0  0  0  0  0  4  0  0  0  0  0  0
    2.2435    6.8969    9.7461 P   0  0  0  0  0  4  0  0  0  0  0  0
    0.3846    4.5208    7.5536 O   0  0  0  0  0  1  0  0  0  0  0  0
   -0.1823    7.2894    7.4661 O   0  0  0  0  0  0  0  0  0  0  0  0
    5.2893    7.2936    8.4243 O   0  0  0  0  0  0  0  0  0  0  0  0
    3.8666    5.3222   11.1714 N   0  0  0  0  0  0  0  0  0  0  0  0
    1.8792    8.0193    7.0153 N   0  0  0  0  0  0  0  0  0  0  0  0
    1.2636    5.2531    7.6410 C   0  0  0  0  0  2  0  0  0  0  0  0
    5.5654    4.3325    7.5013 C   0  0  0  0  0  0  0  0  0  0  0  0
    5.2354    3.9538    6.5305 H   0  0  0  0  0  0  0  0  0  0  0  0
    6.0488    5.2979    7.3285 H   0  0  0  0  0  0  0  0  0  0  0  0
    6.5635    3.3559    8.1138 C   0  0  0  0  0  0  0  0  0  0  0  0
    7.0331    3.7634    9.0053 H   0  0  0  0  0  0  0  0  0  0  0  0
    7.3488    3.1587    7.3857 H   0  0  0  0  0  0  0  0  0  0  0  0
    6.0962    2.4057    8.3632 H   0  0  0  0  0  0  0  0  0  0  0  0
    3.2876    3.0176    8.6848 C   0  0  0  0  0  0  0  0  0  0  0  0
    3.9869    2.3973    9.2549 H   0  0  0  0  0  0  0  0  0  0  0  0
    2.3937    3.1562    9.3022 H   0  0  0  0  0  0  0  0  0  0  0  0
    2.9220    2.3201    7.3812 C   0  0  0  0  0  0  0  0  0  0  0  0
    2.2475    2.9243    6.7820 H   0  0  0  0  0  0  0  0  0  0  0  0
    2.4281    1.3726    7.5920 H   0  0  0  0  0  0  0  0  0  0  0  0
    3.8084    2.1158    6.7851 H   0  0  0  0  0  0  0  0  0  0  0  0
    4.7922    4.8822   10.1446 C   0  0  0  0  0  0  0  0  0  0  0  0
    5.1656    3.8907   10.4219 H   0  0  0  0  0  0  0  0  0  0  0  0
    5.6497    5.5686   10.0499 H   0  0  0  0  0  0  0  0  0  0  0  0
    4.4146    5.0406   12.4871 C   0  0  0  0  0  0  0  0  0  0  0  0
    4.5533    3.9650   12.5945 H   0  0  0  0  0  0  0  0  0  0  0  0
    3.7152    5.3709   13.2547 H   0  0  0  0  0  0  0  0  0  0  0  0
    5.3807    5.5387   12.6577 H   0  0  0  0  0  0  0  0  0  0  0  0
    3.5673    6.7345   11.0136 C   0  0  0  0  0  0  0  0  0  0  0  0
    4.4538    7.3141   10.7104 H   0  0  0  0  0  0  0  0  0  0  0  0
    3.1845    7.1443   11.9548 H   0  0  0  0  0  0  0  0  0  0  0  0
    0.8947    5.8866   10.5054 C   0  0  0  0  0  0  0  0  0  0  0  0
    0.0031    6.1224    9.9151 H   0  0  0  0  0  0  0  0  0  0  0  0
    1.1654    4.8485   10.2888 H   0  0  0  0  0  0  0  0  0  0  0  0
    0.5994    6.0243   11.9930 C   0  0  0  0  0  0  0  0  0  0  0  0
    1.4470    5.6931   12.5854 H   0  0  0  0  0  0  0  0  0  0  0  0
   -0.2525    5.3954   12.2471 H   0  0  0  0  0  0  0  0  0  0  0  0
    0.3499    7.0461   12.2697 H   0  0  0  0  0  0  0  0  0  0  0  0
    1.6495    8.6104   10.1349 C   0  0  0  0  0  0  0  0  0  0  0  0
    0.7856    8.8083    9.4932 H   0  0  0  0  0  0  0  0  0  0  0  0
    1.3028    8.6108   11.1733 H   0  0  0  0  0  0  0  0  0  0  0  0
    2.7045    9.6928    9.9493 C   0  0  0  0  0  0  0  0  0  0  0  0
    3.5346    9.5476   10.6367 H   0  0  0  0  0  0  0  0  0  0  0  0
    2.2726   10.6750   10.1384 H   0  0  0  0  0  0  0  0  0  0  0  0
    3.0962    9.6828    8.9368 H   0  0  0  0  0  0  0  0  0  0  0  0
    0.5697    8.2488    6.8941 C   0  0  2  0  0  3  0  0  0  0  0  0
    0.0690    9.3865    6.2722 C   0  0  0  0  0  0  0  0  0  0  0  0
   -0.9923    9.5408    6.1723 H   0  0  0  0  0  0  0  0  0  0  0  0
    0.9683   10.3229    5.7908 C   0  0  0  0  0  0  0  0  0  0  0  0
    0.6082   11.2148    5.3017 H   0  0  0  0  0  0  0  0  0  0  0  0
    2.3238   10.1036    5.9509 C   0  0  0  0  0  0  0  0  0  0  0  0
    3.0516   10.8146    5.5952 H   0  0  0  0  0  0  0  0  0  0  0  0
    2.7483    8.9316    6.5597 C   0  0  0  0  0  0  0  0  0  0  0  0
   -1.5647    7.2319    7.1889 C   0  0  0  0  0  0  0  0  0  0  0  0
   -2.1044    8.0511    7.6745 H   0  0  0  0  0  0  0  0  0  0  0  0
   -1.9038    6.2812    7.5978 H   0  0  0  0  0  0  0  0  0  0  0  0
   -1.7543    7.2485    6.1129 H   0  0  0  0  0  0  0  0  0  0  0  0
    4.1766    8.5954    6.7813 C   0  0  0  0  0  0  0  0  0  0  0  0
    4.7657    9.4594    7.1031 H   0  0  0  0  0  0  0  0  0  0  0  0
    4.6206    8.2260    5.8517 H   0  0  0  0  0  0  0  0  0  0  0  0
    4.2667    7.4176    7.7736 C   0  0  0  0  0  0  0  0  0  0  0  0
  1  2  1  0  0  0  0
  2 64  1  0  0  0  0
  2  3  1  0  0  0  0
  2  4  1  0  0  0  0
  3 18  1  0  0  0  0
  3 25  1  0  0  0  0
  4 42  1  0  0  0  0
  4 35  1  0  0  0  0
  4 32  1  0  0  0  0
  5 10  1  0  0  0  0
  8 28  1  0  0  0  0
  9  2  1  0  0  0  0
 10  2  1  0  0  0  0
 11 14  1  0  0  0  0
 11  3  1  0  0  0  0
 12 11  1  0  0  0  0
 13 11  1  0  0  0  0
 14 17  1  0  0  0  0
 14 15  1  0  0  0  0
 16 14  1  0  0  0  0
 18 19  1  0  0  0  0
 18 20  1  0  0  0  0
 21 23  1  0  0  0  0
 21 18  1  0  0  0  0
 22 21  1  0  0  0  0
 24 21  1  0  0  0  0
 25 26  1  0  0  0  0
 25  8  1  0  0  0  0
 27 25  1  0  0  0  0
 28 29  1  0  0  0  0
 28 31  1  0  0  0  0
 28 30  1  0  0  0  0
 32  8  1  0  0  0  0
 32 34  1  0  0  0  0
 33 32  1  0  0  0  0
 35 38  1  0  0  0  0
 36 35  1  0  0  0  0
 37 35  1  0  0  0  0
 38 40  1  0  0  0  0
 38 41  1  0  0  0  0
 38 39  1  0  0  0  0
 42 44  1  0  0  0  0
 43 42  1  0  0  0  0
 45 42  1  0  0  0  0
 45 47  1  0  0  0  0
 45 46  1  0  0  0  0
 48 45  1  0  0  0  0
 49  9  1  0  0  0  0
 49  6  1  1  0  0  0
 50 49  1  0  0  0  0
 51 50  1  0  0  0  0
 52 54  1  0  0  0  0
 52 50  2  0  0  0  0
 53 52  1  0  0  0  0
 54 56  2  0  0  0  0
 55 54  1  0  0  0  0
 56 61  1  0  0  0  0
 56  9  1  0  0  0  0
 57  6  1  0  0  0  0
 57 59  1  0  0  0  0
 57 58  1  0  0  0  0
 60 57  1  0  0  0  0
 61 62  1  0  0  0  0
 61 64  1  0  0  0  0
 63 61  1  0  0  0  0
 64  7  2  0  0  0  0
M  END
$$$$
