CSD_code = UJAQIF | q = 1 | S = 0 | Stoichiometry = C23H27ClN5OZn(1+) | MND = 5
 OpenBabel04212202103D

 58 63  0  0  1  0  0  0  0  0999 V2000
    3.7578   12.8767    2.5059 Zn  0  0  0  0  0  0  0  0  0  0  0  0
    5.1417   14.4490    1.8634 Cl  0  0  0  0  0  0  0  0  0  0  0  0
    2.3141   11.2756    2.8160 N   0  0  2  0  0  4  0  0  0  0  0  0
    2.9704   10.4421    3.8137 C   0  0  0  0  0  0  0  0  0  0  0  0
    3.7709    9.8824    3.3197 H   0  0  0  0  0  0  0  0  0  0  0  0
    2.2747    9.7171    4.2568 H   0  0  0  0  0  0  0  0  0  0  0  0
    4.0903   12.4760    4.5356 N   0  0  0  0  0  0  0  0  0  0  0  0
    3.5902   11.2846    4.8991 C   0  0  2  0  0  3  0  0  0  0  0  0
    3.6459   10.8161    6.1939 C   0  0  0  0  0  0  0  0  0  0  0  0
    3.2312    9.8530    6.4431 H   0  0  0  0  0  0  0  0  0  0  0  0
    4.2553   11.6093    7.1630 C   0  0  0  0  0  0  0  0  0  0  0  0
    4.3274   11.2657    8.1825 H   0  0  0  0  0  0  0  0  0  0  0  0
    4.7589   12.8353    6.8062 C   0  0  0  0  0  0  0  0  0  0  0  0
    5.2229   13.4845    7.5286 H   0  0  0  0  0  0  0  0  0  0  0  0
    4.6589   13.2644    5.4702 C   0  0  0  0  0  0  0  0  0  0  0  0
    5.1245   14.4776    5.0578 N   0  0  0  0  0  0  0  0  0  0  0  0
    5.1611   14.6260    4.0491 H   0  0  0  0  0  0  0  0  0  0  0  0
    5.4677   15.4963    7.0666 O   0  0  0  0  0  0  0  0  0  0  0  0
    5.5229   15.5431    5.8645 C   0  0  0  0  0  0  0  0  0  0  0  0
    6.0064   16.7610    5.0878 C   0  0  0  0  0  0  0  0  0  0  0  0
    6.4105   17.8336    6.1022 C   0  0  0  0  0  0  0  0  0  0  0  0
    7.2024   17.4655    6.7488 H   0  0  0  0  0  0  0  0  0  0  0  0
    5.5642   18.1040    6.7282 H   0  0  0  0  0  0  0  0  0  0  0  0
    6.7642   18.7221    5.5871 H   0  0  0  0  0  0  0  0  0  0  0  0
    7.2201   16.3783    4.2327 C   0  0  0  0  0  0  0  0  0  0  0  0
    7.9875   15.9123    4.8467 H   0  0  0  0  0  0  0  0  0  0  0  0
    7.6406   17.2772    3.7891 H   0  0  0  0  0  0  0  0  0  0  0  0
    6.9525   15.7020    3.4259 H   0  0  0  0  0  0  0  0  0  0  0  0
    4.8709   17.2931    4.2041 C   0  0  0  0  0  0  0  0  0  0  0  0
    3.9693   17.4501    4.7929 H   0  0  0  0  0  0  0  0  0  0  0  0
    4.6485   16.6166    3.3838 H   0  0  0  0  0  0  0  0  0  0  0  0
    5.1697   18.2476    3.7785 H   0  0  0  0  0  0  0  0  0  0  0  0
    2.1295   10.5750    1.5538 C   0  0  0  0  0  0  0  0  0  0  0  0
    1.4317   11.1516    0.9371 H   0  0  0  0  0  0  0  0  0  0  0  0
    1.7024    9.5733    1.7018 H   0  0  0  0  0  0  0  0  0  0  0  0
    4.3375   11.4206    1.0693 N   0  0  0  0  0  0  0  0  0  0  0  0
    3.4328   10.4788    0.8049 C   0  0  2  0  0  3  0  0  0  0  0  0
    3.6651    9.4820   -0.1319 C   0  0  0  0  0  0  0  0  0  0  0  0
    2.9115    8.7343   -0.3236 H   0  0  0  0  0  0  0  0  0  0  0  0
    4.8720    9.4692   -0.8127 C   0  0  0  0  0  0  0  0  0  0  0  0
    5.0767    8.7057   -1.5469 H   0  0  0  0  0  0  0  0  0  0  0  0
    5.8083   10.4525   -0.5302 C   0  0  0  0  0  0  0  0  0  0  0  0
    6.7600   10.4796   -1.0344 H   0  0  0  0  0  0  0  0  0  0  0  0
    5.4980   11.4091    0.4194 C   0  0  0  0  0  0  0  0  0  0  0  0
    6.1924   12.1976    0.6717 H   0  0  0  0  0  0  0  0  0  0  0  0
    1.0807   11.8712    3.3102 C   0  0  0  0  0  0  0  0  0  0  0  0
    1.1875   12.0384    4.3871 H   0  0  0  0  0  0  0  0  0  0  0  0
    0.2165   11.2120    3.1571 H   0  0  0  0  0  0  0  0  0  0  0  0
    0.8386   13.2138    2.6709 C   0  0  1  0  0  3  0  0  0  0  0  0
   -0.4395   13.7382    2.5380 C   0  0  0  0  0  0  0  0  0  0  0  0
   -1.2949   13.1652    2.8598 H   0  0  0  0  0  0  0  0  0  0  0  0
   -0.5933   15.0031    1.9935 C   0  0  0  0  0  0  0  0  0  0  0  0
   -1.5763   15.4328    1.8802 H   0  0  0  0  0  0  0  0  0  0  0  0
    0.5377   15.7021    1.5986 C   0  0  0  0  0  0  0  0  0  0  0  0
    0.4645   16.6891    1.1730 H   0  0  0  0  0  0  0  0  0  0  0  0
    1.7747   15.1050    1.7600 C   0  0  0  0  0  0  0  0  0  0  0  0
    2.6862   15.6053    1.4655 H   0  0  0  0  0  0  0  0  0  0  0  0
    1.9190   13.8901    2.2827 N   0  0  0  0  0  0  0  0  0  0  0  0
  1  3  1  0  0  0  0
  1  7  1  0  0  0  0
  2  1  1  0  0  0  0
  3 33  1  6  0  0  0
  3 46  1  0  0  0  0
  3  4  1  0  0  0  0
  4  6  1  0  0  0  0
  4  8  1  0  0  0  0
  5  4  1  0  0  0  0
  7  8  1  0  0  0  0
  7 15  1  0  0  0  0
  8  9  1  6  0  0  0
  9 10  1  0  0  0  0
  9 11  2  0  0  0  0
 11 12  1  0  0  0  0
 13 11  1  0  0  0  0
 13 14  1  0  0  0  0
 15 13  2  0  0  0  0
 16 15  1  0  0  0  0
 16 19  1  0  0  0  0
 17 16  1  0  0  0  0
 19 18  2  0  0  0  0
 20 19  1  0  0  0  0
 20 21  1  0  0  0  0
 21 23  1  0  0  0  0
 21 22  1  0  0  0  0
 24 21  1  0  0  0  0
 25 26  1  0  0  0  0
 25 20  1  0  0  0  0
 27 25  1  0  0  0  0
 28 25  1  0  0  0  0
 29 30  1  0  0  0  0
 29 20  1  0  0  0  0
 31 29  1  0  0  0  0
 32 29  1  0  0  0  0
 33 35  1  0  0  0  0
 34 33  1  0  0  0  0
 36  1  1  0  0  0  0
 37 38  1  6  0  0  0
 37 36  1  0  0  0  0
 37 33  1  0  0  0  0
 39 38  1  0  0  0  0
 40 42  1  0  0  0  0
 40 38  2  0  0  0  0
 41 40  1  0  0  0  0
 42 44  2  0  0  0  0
 43 42  1  0  0  0  0
 44 45  1  0  0  0  0
 44 36  1  0  0  0  0
 46 47  1  0  0  0  0
 48 46  1  0  0  0  0
 49 50  1  1  0  0  0
 49 46  1  0  0  0  0
 50 51  1  0  0  0  0
 52 50  2  0  0  0  0
 53 52  1  0  0  0  0
 54 56  2  0  0  0  0
 54 52  1  0  0  0  0
 55 54  1  0  0  0  0
 56 58  1  0  0  0  0
 57 56  1  0  0  0  0
 58  1  1  0  0  0  0
 58 49  1  0  0  0  0
M  END
$$$$
