CSD_code = UJATAA | q = 0 | S = 0 | Stoichiometry = C22H16Cl2N2O2Pd | MND = 4
 OpenBabel04212202103D

 45 48  0  0  1  0  0  0  0  0999 V2000
    2.7642    5.3348    6.6024 Pd  0  0  0  0  0  0  0  0  0  0  0  0
    3.7109    4.1729    8.3250 Cl  0  0  0  0  0  0  0  0  0  0  0  0
    1.8070    6.5042    4.8908 Cl  0  0  0  0  0  0  0  0  0  0  0  0
    3.6612    7.7560    7.7672 C   0  0  0  0  0  3  0  0  0  0  0  0
    2.6897    7.6589    8.2544 H   0  0  0  0  0  0  0  0  0  0  0  0
    4.4982    8.8244    8.0303 C   0  0  0  0  0  0  0  0  0  0  0  0
    4.1984    9.5872    8.7306 H   0  0  0  0  0  0  0  0  0  0  0  0
    5.7258    8.8944    7.3787 C   0  0  0  0  0  0  0  0  0  0  0  0
    6.3986    9.7174    7.5661 H   0  0  0  0  0  0  0  0  0  0  0  0
    6.0701    7.8962    6.4902 C   0  0  0  0  0  0  0  0  0  0  0  0
    7.0101    7.9065    5.9614 H   0  0  0  0  0  0  0  0  0  0  0  0
    5.1719    6.8467    6.2761 C   0  0  0  0  0  0  0  0  0  0  0  0
    5.4368    5.7815    5.3916 C   0  0  0  0  0  0  0  0  0  0  0  0
    5.7229    4.8901    4.6202 C   0  0  0  0  0  0  0  0  0  0  0  0
    6.0183    3.8328    3.7470 C   0  0  0  0  0  0  0  0  0  0  0  0
    7.2178    3.8102    3.0274 C   0  0  0  0  0  0  0  0  0  0  0  0
    7.9049    4.6311    3.1565 H   0  0  0  0  0  0  0  0  0  0  0  0
    7.5108    2.7634    2.1762 C   0  0  0  0  0  0  0  0  0  0  0  0
    6.5847    1.6927    2.0334 C   0  0  0  0  0  0  0  0  0  0  0  0
    5.3984    1.7179    2.7394 C   0  0  0  0  0  0  0  0  0  0  0  0
    4.6781    0.9212    2.6452 H   0  0  0  0  0  0  0  0  0  0  0  0
    5.0989    2.7817    3.5972 C   0  0  0  0  0  0  0  0  0  0  0  0
    9.6010    3.6736    1.5140 C   0  0  0  0  0  0  0  0  0  0  0  0
    9.1933    4.6349    1.1849 H   0  0  0  0  0  0  0  0  0  0  0  0
   10.4027    3.3734    0.8415 H   0  0  0  0  0  0  0  0  0  0  0  0
    9.9988    3.7747    2.5289 H   0  0  0  0  0  0  0  0  0  0  0  0
    6.1114   -0.3897    0.9966 C   0  0  0  0  0  0  0  0  0  0  0  0
    5.9450   -0.9329    1.9325 H   0  0  0  0  0  0  0  0  0  0  0  0
    6.6214   -1.0403    0.2884 H   0  0  0  0  0  0  0  0  0  0  0  0
    5.1478   -0.0830    0.5770 H   0  0  0  0  0  0  0  0  0  0  0  0
    3.8890    2.8154    4.3059 C   0  0  0  0  0  0  0  0  0  0  0  0
    2.8501    2.8878    4.9281 C   0  0  0  0  0  0  0  0  0  0  0  0
    1.6183    2.9071    5.6134 C   0  0  2  0  0  3  0  0  0  0  0  0
    0.6559    1.9032    5.4724 C   0  0  0  0  0  0  0  0  0  0  0  0
    0.8511    1.0690    4.8172 H   0  0  0  0  0  0  0  0  0  0  0  0
   -0.5241    2.0104    6.1798 C   0  0  0  0  0  0  0  0  0  0  0  0
   -1.2870    1.2519    6.0913 H   0  0  0  0  0  0  0  0  0  0  0  0
   -0.7167    3.1112    7.0091 C   0  0  0  0  0  0  0  0  0  0  0  0
   -1.6270    3.2260    7.5750 H   0  0  0  0  0  0  0  0  0  0  0  0
    0.2811    4.0637    7.0988 C   0  0  0  0  0  0  0  0  0  0  0  0
    0.1746    4.9433    7.7357 H   0  0  0  0  0  0  0  0  0  0  0  0
    3.9909    6.7925    6.9122 N   0  0  0  0  0  0  0  0  0  0  0  0
    1.4187    3.9633    6.4178 N   0  0  0  0  0  0  0  0  0  0  0  0
    8.6388    2.6502    1.4351 O   0  0  0  0  0  0  0  0  0  0  0  0
    6.9681    0.7106    1.1833 O   0  0  0  0  0  0  0  0  0  0  0  0
  1 42  1  0  0  0  0
  1  2  1  0  0  0  0
  3  1  1  0  0  0  0
  4  6  1  0  0  0  0
  4  5  1  0  0  0  0
  6  7  1  0  0  0  0
  8  9  1  0  0  0  0
  8  6  2  0  0  0  0
 10  8  1  0  0  0  0
 11 10  1  0  0  0  0
 12 10  2  0  0  0  0
 12 42  1  0  0  0  0
 13 12  1  0  0  0  0
 14 13  3  0  0  0  0
 15 14  1  0  0  0  0
 16 17  1  0  0  0  0
 16 15  2  0  0  0  0
 18 16  1  0  0  0  0
 19 18  2  0  0  0  0
 19 20  1  0  0  0  0
 20 22  2  0  0  0  0
 21 20  1  0  0  0  0
 22 15  1  0  0  0  0
 22 31  1  0  0  0  0
 23 26  1  0  0  0  0
 24 23  1  0  0  0  0
 25 23  1  0  0  0  0
 27 45  1  0  0  0  0
 27 28  1  0  0  0  0
 29 27  1  0  0  0  0
 30 27  1  0  0  0  0
 31 32  3  0  0  0  0
 33 32  1  6  0  0  0
 33 43  1  0  0  0  0
 34 33  1  0  0  0  0
 34 36  2  0  0  0  0
 35 34  1  0  0  0  0
 36 38  1  0  0  0  0
 37 36  1  0  0  0  0
 38 40  2  0  0  0  0
 38 39  1  0  0  0  0
 40 41  1  0  0  0  0
 42  4  1  0  0  0  0
 43  1  1  0  0  0  0
 43 40  1  0  0  0  0
 44 23  1  0  0  0  0
 44 18  1  0  0  0  0
 45 19  1  0  0  0  0
M  END
$$$$
