CSD_code = UJAVOR | q = 0 | S = 0 | Stoichiometry = C27H28Cl2NPPd | MND = 4
 OpenBabel04212202103D

 60 64  0  0  0  0  0  0  0  0999 V2000
    8.3656    8.4543    6.0741 Pd  0  0  0  0  0  0  0  0  0  0  0  0
   10.1938    7.2679    5.5714 P   0  0  0  0  0  4  0  0  0  0  0  0
    6.6292    9.9350    5.9925 Cl  0  0  0  0  0  0  0  0  0  0  0  0
    9.7910   10.0913    6.6514 Cl  0  0  0  0  0  0  0  0  0  0  0  0
    7.1993    6.8968    5.8615 N   0  0  0  0  0  0  0  0  0  0  0  0
    7.4093    5.7289    5.3686 C   0  0  0  0  0  3  0  0  0  0  0  0
    6.6311    4.9751    5.5225 H   0  0  0  0  0  0  0  0  0  0  0  0
    8.5417    5.2456    4.6086 C   0  0  0  0  0  0  0  0  0  0  0  0
    9.7868    5.7684    4.6244 C   0  0  0  0  0  0  0  0  0  0  0  0
   10.9238    5.1833    3.8342 C   0  0  0  0  0  0  0  0  0  0  0  0
   11.8495    5.2733    4.4092 H   0  0  0  0  0  0  0  0  0  0  0  0
   11.0540    5.7859    2.9285 H   0  0  0  0  0  0  0  0  0  0  0  0
   10.6719    3.7324    3.4425 C   0  0  0  0  0  0  0  0  0  0  0  0
   11.4415    3.3989    2.7452 H   0  0  0  0  0  0  0  0  0  0  0  0
   10.7185    3.0940    4.3274 H   0  0  0  0  0  0  0  0  0  0  0  0
    9.2911    3.6273    2.8099 C   0  0  0  0  0  0  0  0  0  0  0  0
    9.1145    2.6193    2.4315 H   0  0  0  0  0  0  0  0  0  0  0  0
    9.2277    4.3196    1.9682 H   0  0  0  0  0  0  0  0  0  0  0  0
    8.2281    3.9784    3.8434 C   0  0  0  0  0  0  0  0  0  0  0  0
    8.1353    3.1597    4.5655 H   0  0  0  0  0  0  0  0  0  0  0  0
    7.2569    4.0862    3.3541 H   0  0  0  0  0  0  0  0  0  0  0  0
    5.9990    7.0836    6.5904 C   0  0  0  0  0  0  0  0  0  0  0  0
    4.7832    7.1674    5.9047 C   0  0  0  0  0  0  0  0  0  0  0  0
    3.6197    7.3328    6.6405 C   0  0  0  0  0  0  0  0  0  0  0  0
    2.6771    7.4175    6.1206 H   0  0  0  0  0  0  0  0  0  0  0  0
    3.6571    7.4042    8.0206 C   0  0  0  0  0  0  0  0  0  0  0  0
    2.7423    7.5304    8.5794 H   0  0  0  0  0  0  0  0  0  0  0  0
    4.8689    7.3430    8.6845 C   0  0  0  0  0  0  0  0  0  0  0  0
    4.8993    7.4284    9.7607 H   0  0  0  0  0  0  0  0  0  0  0  0
    6.0570    7.1915    7.9859 C   0  0  0  0  0  0  0  0  0  0  0  0
    4.7640    7.1666    4.4054 C   0  0  0  0  0  0  0  0  0  0  0  0
    5.5044    7.8791    4.0370 H   0  0  0  0  0  0  0  0  0  0  0  0
    3.7840    7.4621    4.0416 H   0  0  0  0  0  0  0  0  0  0  0  0
    5.0017    6.1841    3.9967 H   0  0  0  0  0  0  0  0  0  0  0  0
    7.3798    7.1958    8.7024 C   0  0  0  0  0  0  0  0  0  0  0  0
    8.0145    6.3594    8.3889 H   0  0  0  0  0  0  0  0  0  0  0  0
    7.2267    7.1307    9.7772 H   0  0  0  0  0  0  0  0  0  0  0  0
    7.9128    8.1488    8.4957 H   0  0  0  0  0  0  0  0  0  0  0  0
   11.4992    6.7590    6.7160 C   0  0  0  0  0  0  0  0  0  0  0  0
   12.3174    7.7464    7.2622 C   0  0  0  0  0  0  0  0  0  0  0  0
   12.1779    8.7743    6.9559 H   0  0  0  0  0  0  0  0  0  0  0  0
   13.2722    7.4034    8.2009 C   0  0  0  0  0  0  0  0  0  0  0  0
   13.9102    8.1668    8.6205 H   0  0  0  0  0  0  0  0  0  0  0  0
   13.4068    6.0849    8.6087 C   0  0  0  0  0  0  0  0  0  0  0  0
   14.1549    5.8194    9.3408 H   0  0  0  0  0  0  0  0  0  0  0  0
   12.5725    5.1076    8.0900 C   0  0  0  0  0  0  0  0  0  0  0  0
   12.6670    4.0836    8.4211 H   0  0  0  0  0  0  0  0  0  0  0  0
   11.6128    5.4416    7.1517 C   0  0  0  0  0  0  0  0  0  0  0  0
   10.9489    4.6843    6.7551 H   0  0  0  0  0  0  0  0  0  0  0  0
   11.0123    8.2434    4.2678 C   0  0  0  0  0  0  0  0  0  0  0  0
   12.3802    8.2367    4.0247 C   0  0  0  0  0  0  0  0  0  0  0  0
   13.0407    7.6493    4.6473 H   0  0  0  0  0  0  0  0  0  0  0  0
   12.8984    9.0034    2.9947 C   0  0  0  0  0  0  0  0  0  0  0  0
   13.9635    9.0064    2.8147 H   0  0  0  0  0  0  0  0  0  0  0  0
   12.0591    9.7686    2.2031 C   0  0  0  0  0  0  0  0  0  0  0  0
   12.4701   10.3702    1.4061 H   0  0  0  0  0  0  0  0  0  0  0  0
   10.6924    9.7727    2.4386 C   0  0  0  0  0  0  0  0  0  0  0  0
   10.0396   10.3775    1.8270 H   0  0  0  0  0  0  0  0  0  0  0  0
   10.1677    9.0134    3.4669 C   0  0  0  0  0  0  0  0  0  0  0  0
    9.0881    9.0327    3.6735 H   0  0  0  0  0  0  0  0  0  0  0  0
  1  4  1  0  0  0  0
  2  1  1  0  0  0  0
  2 39  1  0  0  0  0
  3  1  1  0  0  0  0
  5  1  1  0  0  0  0
  5 22  1  0  0  0  0
  6  7  1  0  0  0  0
  6  5  1  0  0  0  0
  8  9  2  0  0  0  0
  8  6  1  0  0  0  0
  9  2  1  0  0  0  0
 10 11  1  0  0  0  0
 10  9  1  0  0  0  0
 12 10  1  0  0  0  0
 13 10  1  0  0  0  0
 13 15  1  0  0  0  0
 14 13  1  0  0  0  0
 16 13  1  0  0  0  0
 16 19  1  0  0  0  0
 17 16  1  0  0  0  0
 18 16  1  0  0  0  0
 19 20  1  0  0  0  0
 19  8  1  0  0  0  0
 21 19  1  0  0  0  0
 22 30  1  0  0  0  0
 23 22  2  0  0  0  0
 23 24  1  0  0  0  0
 24 26  2  0  0  0  0
 25 24  1  0  0  0  0
 26 27  1  0  0  0  0
 26 28  1  0  0  0  0
 28 29  1  0  0  0  0
 30 28  2  0  0  0  0
 30 35  1  0  0  0  0
 31 23  1  0  0  0  0
 32 31  1  0  0  0  0
 33 31  1  0  0  0  0
 34 31  1  0  0  0  0
 35 37  1  0  0  0  0
 36 35  1  0  0  0  0
 38 35  1  0  0  0  0
 39 48  2  0  0  0  0
 39 40  1  0  0  0  0
 40 42  2  0  0  0  0
 41 40  1  0  0  0  0
 42 44  1  0  0  0  0
 42 43  1  0  0  0  0
 44 45  1  0  0  0  0
 46 47  1  0  0  0  0
 46 44  2  0  0  0  0
 48 46  1  0  0  0  0
 49 48  1  0  0  0  0
 50  2  1  0  0  0  0
 51 50  1  0  0  0  0
 51 52  1  0  0  0  0
 53 51  2  0  0  0  0
 54 53  1  0  0  0  0
 55 57  2  0  0  0  0
 55 53  1  0  0  0  0
 56 55  1  0  0  0  0
 57 59  1  0  0  0  0
 58 57  1  0  0  0  0
 59 60  1  0  0  0  0
 59 50  2  0  0  0  0
M  END
$$$$
