CSD_code = UJITAI | q = 0 | S = 0 | Stoichiometry = C30H34ClNP2Zr | MND = 13
 OpenBabel04212202103D

 69 73  0  0  1  0  0  0  0  0999 V2000
    5.3773    0.6604    6.1634 Zr  0  0  0  0  0  0  0  0  0  0  0  0
    4.6795    1.4410    3.4907 P   0  0  1  0  0  0  0  0  0  0  0  0
    1.6395    0.4783    2.9395 P   0  0  1  0  0  0  0  0  0  0  0  0
    4.7189    1.1371    8.4059 Cl  0  0  0  0  0  0  0  0  0  0  0  0
    4.1474    1.8440    5.0058 N   0  0  0  0  0  0  0  0  0  0  0  0
    3.4129    0.5433    2.3514 C   0  0  1  0  0  0  0  0  0  0  0  0
    1.0689    1.4185    1.4282 C   0  0  0  0  0  0  0  0  0  0  0  0
    0.0520    1.1252    1.1619 H   0  0  0  0  0  0  0  0  0  0  0  0
    1.0710    2.4879    1.6559 H   0  0  0  0  0  0  0  0  0  0  0  0
    2.0773    1.1078    0.3316 C   0  0  0  0  0  0  0  0  0  0  0  0
    1.9673    1.7905   -0.5117 H   0  0  0  0  0  0  0  0  0  0  0  0
    1.9199    0.0901   -0.0335 H   0  0  0  0  0  0  0  0  0  0  0  0
    3.4677    1.2099    0.9646 C   0  0  1  0  0  0  0  0  0  0  0  0
    3.9538    2.6236    1.1518 C   0  0  0  0  0  0  0  0  0  0  0  0
    3.8921    3.6192    0.1908 C   0  0  0  0  0  0  0  0  0  0  0  0
    3.4462    3.4231   -0.7740 H   0  0  0  0  0  0  0  0  0  0  0  0
    4.4127    4.8743    0.4598 C   0  0  0  0  0  0  0  0  0  0  0  0
    4.3541    5.6499   -0.2896 H   0  0  0  0  0  0  0  0  0  0  0  0
    5.0181    5.1374    1.6788 C   0  0  0  0  0  0  0  0  0  0  0  0
    5.4313    6.1159    1.8763 H   0  0  0  0  0  0  0  0  0  0  0  0
    5.1011    4.1425    2.6355 C   0  0  0  0  0  0  0  0  0  0  0  0
    5.5816    4.3329    3.5868 H   0  0  0  0  0  0  0  0  0  0  0  0
    4.5502    2.8943    2.3811 C   0  0  0  0  0  0  0  0  0  0  0  0
    5.9754   -1.8189    5.8790 C   0  0  0  0  0  0  0  0  0  0  0  0
    6.9673   -2.2424    5.7819 H   0  0  0  0  0  0  0  0  0  0  0  0
    5.2383   -1.7014    7.0733 C   0  0  0  0  0  3  0  0  0  0  0  0
    5.5807   -1.9701    8.0661 H   0  0  0  0  0  0  0  0  0  0  0  0
    3.9239   -1.3065    6.7367 C   0  0  0  0  0  0  0  0  0  0  0  0
    3.0897   -1.2395    7.4253 H   0  0  0  0  0  0  0  0  0  0  0  0
    3.8533   -1.1724    5.3345 C   0  0  0  0  0  0  0  0  0  0  0  0
    2.9474   -1.0014    4.7639 H   0  0  0  0  0  0  0  0  0  0  0  0
    5.1268   -1.4800    4.8045 C   0  0  0  0  0  0  0  0  0  0  0  0
    5.3738   -1.5940    3.7565 H   0  0  0  0  0  0  0  0  0  0  0  0
    7.8778    0.3788    6.6055 C   0  0  0  0  0  0  0  0  0  0  0  0
    8.3591   -0.5199    6.9722 H   0  0  0  0  0  0  0  0  0  0  0  0
    7.5141    1.4807    7.3963 C   0  0  0  0  0  0  0  0  0  0  0  0
    7.6178    1.5519    8.4711 H   0  0  0  0  0  0  0  0  0  0  0  0
    7.0887    2.5189    6.5417 C   0  0  0  0  0  0  0  0  0  0  0  0
    6.8518    3.5292    6.8518 H   0  0  0  0  0  0  0  0  0  0  0  0
    7.2240    2.0664    5.2110 C   0  0  0  0  0  0  0  0  0  0  0  0
    7.1275    2.6728    4.3191 H   0  0  0  0  0  0  0  0  0  0  0  0
    7.6945    0.7341    5.2472 C   0  0  2  0  0  0  0  0  0  0  0  0
    8.0040    0.1524    4.3862 H   0  0  0  0  0  0  0  0  0  0  0  0
    1.0706   -1.1837    2.3665 C   0  0  0  0  0  0  0  0  0  0  0  0
   -0.2419   -1.4745    2.7341 C   0  0  0  0  0  0  0  0  0  0  0  0
   -0.7986   -0.7412    3.3044 H   0  0  0  0  0  0  0  0  0  0  0  0
   -0.8337   -2.6706    2.3790 C   0  0  0  0  0  0  0  0  0  0  0  0
   -1.8544   -2.8760    2.6676 H   0  0  0  0  0  0  0  0  0  0  0  0
   -0.1123   -3.6073    1.6571 C   0  0  0  0  0  0  0  0  0  0  0  0
   -0.5671   -4.5464    1.3782 H   0  0  0  0  0  0  0  0  0  0  0  0
    1.1961   -3.3359    1.2991 C   0  0  0  0  0  0  0  0  0  0  0  0
    1.7644   -4.0645    0.7384 H   0  0  0  0  0  0  0  0  0  0  0  0
    1.7869   -2.1344    1.6518 C   0  0  0  0  0  0  0  0  0  0  0  0
    2.8103   -1.9558    1.3552 H   0  0  0  0  0  0  0  0  0  0  0  0
    3.7722    3.7749    6.4371 C   0  0  0  0  0  0  0  0  0  0  0  0
    4.2553    3.2802    7.2821 H   0  0  0  0  0  0  0  0  0  0  0  0
    3.0276    4.4692    6.8207 H   0  0  0  0  0  0  0  0  0  0  0  0
    4.5158    4.3408    5.8755 H   0  0  0  0  0  0  0  0  0  0  0  0
    3.0993    2.7425    5.5124 C   0  0  0  0  0  0  0  0  0  0  0  0
    2.0927    1.9027    6.3196 C   0  0  0  0  0  0  0  0  0  0  0  0
    1.5778    1.2083    5.6559 H   0  0  0  0  0  0  0  0  0  0  0  0
    1.3539    2.5499    6.7873 H   0  0  0  0  0  0  0  0  0  0  0  0
    2.6072    1.3394    7.1014 H   0  0  0  0  0  0  0  0  0  0  0  0
    2.3398    3.5040    4.4236 C   0  0  0  0  0  0  0  0  0  0  0  0
    2.9655    4.2642    3.9656 H   0  0  0  0  0  0  0  0  0  0  0  0
    1.4671    3.9863    4.8578 H   0  0  0  0  0  0  0  0  0  0  0  0
    2.0056    2.8145    3.6534 H   0  0  0  0  0  0  0  0  0  0  0  0
    4.1977    0.6915    0.3302 H   0  0  0  0  0  0  0  0  0  0  0  0
    3.7697   -0.4904    2.3055 H   0  0  0  0  0  0  0  0  0  0  0  0
  1  4  1  0  0  0  0
  2  5  1  1  0  0  0
  3 44  1  6  0  0  0
  5 59  1  0  0  0  0
  5  1  1  0  0  0  0
  6 69  1  6  0  0  0
  6  3  1  0  0  0  0
  6  2  1  0  0  0  0
  7  9  1  0  0  0  0
  7  3  1  0  0  0  0
  8  7  1  0  0  0  0
 10 13  1  0  0  0  0
 10  7  1  0  0  0  0
 11 10  1  0  0  0  0
 12 10  1  0  0  0  0
 13 68  1  6  0  0  0
 13 14  1  0  0  0  0
 13  6  1  0  0  0  0
 14 23  1  0  0  0  0
 15 17  1  0  0  0  0
 15 14  2  0  0  0  0
 16 15  1  0  0  0  0
 17 19  2  0  0  0  0
 18 17  1  0  0  0  0
 19 20  1  0  0  0  0
 19 21  1  0  0  0  0
 21 22  1  0  0  0  0
 23 21  2  0  0  0  0
 23  2  1  0  0  0  0
 24 26  1  0  0  0  0
 25 24  1  0  0  0  0
 26 27  1  0  0  0  0
 28 26  1  0  0  0  0
 28 29  1  0  0  0  0
 30 28  2  0  0  0  0
 31 30  1  0  0  0  0
 32 30  1  0  0  0  0
 32 24  2  0  0  0  0
 33 32  1  0  0  0  0
 34 35  1  0  0  0  0
 34 36  2  0  0  0  0
 36 37  1  0  0  0  0
 38 39  1  0  0  0  0
 38 36  1  0  0  0  0
 40 42  1  0  0  0  0
 40 38  2  0  0  0  0
 41 40  1  0  0  0  0
 42 43  1  6  0  0  0
 42  1  1  0  0  0  0
 42 34  1  0  0  0  0
 44 45  1  0  0  0  0
 45 46  1  0  0  0  0
 47 48  1  0  0  0  0
 47 45  2  0  0  0  0
 49 47  1  0  0  0  0
 50 49  1  0  0  0  0
 51 53  1  0  0  0  0
 51 49  2  0  0  0  0
 52 51  1  0  0  0  0
 53 44  2  0  0  0  0
 54 53  1  0  0  0  0
 55 57  1  0  0  0  0
 55 56  1  0  0  0  0
 58 55  1  0  0  0  0
 59 60  1  0  0  0  0
 59 55  1  0  0  0  0
 60 62  1  0  0  0  0
 60 63  1  0  0  0  0
 61 60  1  0  0  0  0
 64 66  1  0  0  0  0
 64 59  1  0  0  0  0
 65 64  1  0  0  0  0
 67 64  1  0  0  0  0
M  END
$$$$
