CSD_code = UJIZIW | q = 0 | S = 0 | Stoichiometry = C20H24Cl2SiTi | MND = 12
 OpenBabel04212202103D

 48 52  0  0  1  0  0  0  0  0999 V2000
    9.3832    3.0564    2.4476 Ti  0  0  0  0  0  0  0  0  0  0  0  0
    8.9248    3.0788    0.2981 Cl  0  0  0  0  0  0  0  0  0  0  0  0
   11.4699    2.3685    2.1130 Cl  0  0  0  0  0  0  0  0  0  0  0  0
    7.2593    3.4063    4.8398 Si  0  0  0  0  0  0  0  0  0  0  0  0
    7.8339    2.0118    3.7066 C   0  0  2  0  0  0  0  0  0  0  0  0
    9.0605    1.2979    3.9182 C   0  0  0  0  0  0  0  0  0  0  0  0
    9.6424    1.3208    4.8341 H   0  0  0  0  0  0  0  0  0  0  0  0
    9.2897    0.4204    2.8573 C   0  0  0  0  0  0  0  0  0  0  0  0
   10.1118   -0.2761    2.7718 H   0  0  0  0  0  0  0  0  0  0  0  0
    7.9470   -0.0813    0.7161 C   0  0  0  0  0  0  0  0  0  0  0  0
    8.6349   -0.8169    0.3226 H   0  0  0  0  0  0  0  0  0  0  0  0
    6.8004    0.2538    0.0363 C   0  0  0  0  0  0  0  0  0  0  0  0
    6.5772   -0.2190   -0.9087 H   0  0  0  0  0  0  0  0  0  0  0  0
    5.9025    1.1998    0.5509 C   0  0  0  0  0  0  0  0  0  0  0  0
    5.0051    1.4252   -0.0071 H   0  0  0  0  0  0  0  0  0  0  0  0
    6.1404    1.8396    1.7447 C   0  0  0  0  0  0  0  0  0  0  0  0
    5.4271    2.5509    2.1369 H   0  0  0  0  0  0  0  0  0  0  0  0
    7.3115    1.5407    2.4549 C   0  0  0  0  0  0  0  0  0  0  0  0
    8.2165    0.5497    1.9363 C   0  0  0  0  0  0  0  0  0  0  0  0
    5.4236    3.9187    4.7605 C   0  0  0  0  0  0  0  0  0  0  0  0
    5.2770    4.8746    5.2535 H   0  0  0  0  0  0  0  0  0  0  0  0
    4.8261    3.1845    5.2910 H   0  0  0  0  0  0  0  0  0  0  0  0
    5.0253    3.9958    3.7568 H   0  0  0  0  0  0  0  0  0  0  0  0
    7.5683    3.0263    6.6892 C   0  0  0  0  0  0  0  0  0  0  0  0
    6.6737    2.5881    7.1193 H   0  0  0  0  0  0  0  0  0  0  0  0
    7.7848    3.9296    7.2504 H   0  0  0  0  0  0  0  0  0  0  0  0
    8.3776    2.3227    6.8523 H   0  0  0  0  0  0  0  0  0  0  0  0
    8.5225    4.5474    3.9855 C   0  0  2  0  0  3  0  0  0  0  0  0
    8.3245    5.0756    2.6719 C   0  0  1  0  0  0  0  0  0  0  0  0
    9.5928    5.3757    2.1057 C   0  0  0  0  0  0  0  0  0  0  0  0
   10.5878    5.0138    3.0507 C   0  0  0  0  0  0  0  0  0  0  0  0
    9.9363    4.4636    4.1842 C   0  0  2  0  0  0  0  0  0  0  0  0
    7.0164    5.4334    2.0313 C   0  0  0  0  0  0  0  0  0  0  0  0
    6.2391    5.5353    2.7828 H   0  0  0  0  0  0  0  0  0  0  0  0
    6.7157    4.6760    1.3025 H   0  0  0  0  0  0  0  0  0  0  0  0
    7.1089    6.3839    1.5059 H   0  0  0  0  0  0  0  0  0  0  0  0
    9.8480    6.0868    0.8129 C   0  0  0  0  0  0  0  0  0  0  0  0
   10.0057    7.1521    0.9985 H   0  0  0  0  0  0  0  0  0  0  0  0
    9.0086    5.9677    0.1311 H   0  0  0  0  0  0  0  0  0  0  0  0
   10.7396    5.6891    0.3277 H   0  0  0  0  0  0  0  0  0  0  0  0
   12.0478    5.3201    2.9388 C   0  0  0  0  0  0  0  0  0  0  0  0
   12.3813    5.2508    1.9046 H   0  0  0  0  0  0  0  0  0  0  0  0
   12.6396    4.6301    3.5365 H   0  0  0  0  0  0  0  0  0  0  0  0
   12.2351    6.3372    3.2920 H   0  0  0  0  0  0  0  0  0  0  0  0
   10.6738    4.0638    5.4278 C   0  0  0  0  0  0  0  0  0  0  0  0
    9.9941    3.7177    6.1990 H   0  0  0  0  0  0  0  0  0  0  0  0
   11.2262    4.9204    5.8193 H   0  0  0  0  0  0  0  0  0  0  0  0
   11.3989    3.2762    5.2062 H   0  0  0  0  0  0  0  0  0  0  0  0
  1 29  1  0  0  0  0
  1  5  1  0  0  0  0
  1 32  1  0  0  0  0
  2  1  1  0  0  0  0
  3  1  1  0  0  0  0
  4 24  1  0  0  0  0
  5 18  1  6  0  0  0
  5  6  1  0  0  0  0
  5  4  1  0  0  0  0
  6  7  1  0  0  0  0
  8  6  2  0  0  0  0
  9  8  1  0  0  0  0
 10 19  1  0  0  0  0
 11 10  1  0  0  0  0
 12 14  1  0  0  0  0
 12 10  2  0  0  0  0
 13 12  1  0  0  0  0
 14 16  2  0  0  0  0
 15 14  1  0  0  0  0
 16 17  1  0  0  0  0
 16 18  1  0  0  0  0
 19 18  2  0  0  0  0
 19  8  1  0  0  0  0
 20  4  1  0  0  0  0
 20 21  1  0  0  0  0
 20 22  1  0  0  0  0
 23 20  1  0  0  0  0
 24 27  1  0  0  0  0
 24 25  1  0  0  0  0
 24 26  1  0  0  0  0
 28 32  1  0  0  0  0
 28  4  1  6  0  0  0
 29 33  1  6  0  0  0
 29 28  1  0  0  0  0
 30 29  1  0  0  0  0
 30 31  2  0  0  0  0
 31 32  1  0  0  0  0
 32 45  1  1  0  0  0
 33 34  1  0  0  0  0
 35 33  1  0  0  0  0
 36 33  1  0  0  0  0
 37 38  1  0  0  0  0
 37 30  1  0  0  0  0
 39 37  1  0  0  0  0
 40 37  1  0  0  0  0
 41 31  1  0  0  0  0
 41 44  1  0  0  0  0
 41 43  1  0  0  0  0
 42 41  1  0  0  0  0
 45 47  1  0  0  0  0
 45 46  1  0  0  0  0
 48 45  1  0  0  0  0
M  END
$$$$
