CSD_code = UJIZOC | q = 0 | S = 0 | Stoichiometry = C21H26Cl2SiTi | MND = 12
 OpenBabel04212202103D

 51 54  0  0  1  0  0  0  0  0999 V2000
    6.5635    0.6624    4.1005 Ti  0  0  0  0  0  0  0  0  0  0  0  0
    8.4103    1.0680    5.2263 Cl  0  0  0  0  0  0  0  0  0  0  0  0
    6.1683   -1.2390    5.1755 Cl  0  0  0  0  0  0  0  0  0  0  0  0
    5.0650    1.7592    1.5200 Si  0  0  0  0  0  0  0  0  0  0  0  0
    6.5682    0.6607    1.8668 C   0  0  2  0  0  0  0  0  0  0  0  0
    6.5531   -0.7411    2.1949 C   0  0  0  0  0  0  0  0  0  0  0  0
    7.8367   -1.1465    2.5692 C   0  0  0  0  0  0  0  0  0  0  0  0
    8.1239   -2.1530    2.8402 H   0  0  0  0  0  0  0  0  0  0  0  0
   10.0975    0.0744    2.6494 C   0  0  0  0  0  0  0  0  0  0  0  0
   10.6704   -0.7811    2.9789 H   0  0  0  0  0  0  0  0  0  0  0  0
   10.7021    1.2884    2.4186 C   0  0  0  0  0  0  0  0  0  0  0  0
   11.7655    1.3996    2.5705 H   0  0  0  0  0  0  0  0  0  0  0  0
    9.9588    2.3850    1.9685 C   0  0  0  0  0  0  0  0  0  0  0  0
   10.4679    3.3168    1.7673 H   0  0  0  0  0  0  0  0  0  0  0  0
    8.5993    2.2975    1.7622 C   0  0  0  0  0  0  0  0  0  0  0  0
    8.0620    3.1470    1.3689 H   0  0  0  0  0  0  0  0  0  0  0  0
    7.9407    1.0897    2.0238 C   0  0  0  0  0  0  0  0  0  0  0  0
    8.7197   -0.0421    2.4461 C   0  0  0  0  0  0  0  0  0  0  0  0
    5.3180    3.3034    0.4204 C   0  0  0  0  0  0  0  0  0  0  0  0
    6.2596    3.8182    0.5609 H   0  0  0  0  0  0  0  0  0  0  0  0
    4.5199    4.0190    0.5929 H   0  0  0  0  0  0  0  0  0  0  0  0
    5.2697    3.0087   -0.6229 H   0  0  0  0  0  0  0  0  0  0  0  0
    3.5876    0.9154    0.6447 C   0  0  0  0  0  0  0  0  0  0  0  0
    3.8087    0.8261   -0.4142 H   0  0  0  0  0  0  0  0  0  0  0  0
    2.7009    1.5351    0.7352 H   0  0  0  0  0  0  0  0  0  0  0  0
    3.3426   -0.0750    1.0051 H   0  0  0  0  0  0  0  0  0  0  0  0
    4.8959    2.0800    3.3931 C   0  0  2  0  0  3  0  0  0  0  0  0
    5.8560    2.8476    4.1326 C   0  0  1  0  0  0  0  0  0  0  0  0
    5.8097    2.4484    5.4922 C   0  0  0  0  0  0  0  0  0  0  0  0
    4.8664    1.3984    5.6075 C   0  0  0  0  0  0  0  0  0  0  0  0
    4.3135    1.1607    4.3195 C   0  0  1  0  0  3  0  0  0  0  0  0
    6.6090    4.0636    3.6833 C   0  0  0  0  0  0  0  0  0  0  0  0
    7.6876    3.9068    3.7571 H   0  0  0  0  0  0  0  0  0  0  0  0
    6.3507    4.9061    4.3278 H   0  0  0  0  0  0  0  0  0  0  0  0
    6.3526    4.3292    2.6634 H   0  0  0  0  0  0  0  0  0  0  0  0
    6.5011    3.1321    6.6298 C   0  0  0  0  0  0  0  0  0  0  0  0
    5.8601    3.9240    7.0255 H   0  0  0  0  0  0  0  0  0  0  0  0
    7.4411    3.5743    6.3057 H   0  0  0  0  0  0  0  0  0  0  0  0
    6.7121    2.4293    7.4341 H   0  0  0  0  0  0  0  0  0  0  0  0
    4.4158    0.7731    6.8901 C   0  0  0  0  0  0  0  0  0  0  0  0
    3.6882    1.4224    7.3828 H   0  0  0  0  0  0  0  0  0  0  0  0
    5.2591    0.6311    7.5659 H   0  0  0  0  0  0  0  0  0  0  0  0
    3.9541   -0.1953    6.7105 H   0  0  0  0  0  0  0  0  0  0  0  0
    3.1306    0.2642    4.1055 C   0  0  0  0  0  0  0  0  0  0  0  0
    2.7832    0.3059    3.0782 H   0  0  0  0  0  0  0  0  0  0  0  0
    2.3122    0.5897    4.7511 H   0  0  0  0  0  0  0  0  0  0  0  0
    3.3687   -0.7673    4.3741 H   0  0  0  0  0  0  0  0  0  0  0  0
    5.4151   -1.6970    1.9914 C   0  0  0  0  0  0  0  0  0  0  0  0
    5.2249   -1.8200    0.9233 H   0  0  0  0  0  0  0  0  0  0  0  0
    4.5004   -1.3540    2.4703 H   0  0  0  0  0  0  0  0  0  0  0  0
    5.6738   -2.6687    2.4097 H   0  0  0  0  0  0  0  0  0  0  0  0
  1 28  1  0  0  0  0
  1  3  1  0  0  0  0
  1  2  1  0  0  0  0
  4  5  1  0  0  0  0
  5 17  1  6  0  0  0
  5  6  1  0  0  0  0
  5  1  1  0  0  0  0
  6  7  2  0  0  0  0
  7  8  1  0  0  0  0
  9 10  1  0  0  0  0
 11 12  1  0  0  0  0
 11  9  2  0  0  0  0
 13 11  1  0  0  0  0
 14 13  1  0  0  0  0
 15 13  2  0  0  0  0
 15 17  1  0  0  0  0
 16 15  1  0  0  0  0
 17 18  2  0  0  0  0
 18  7  1  0  0  0  0
 18  9  1  0  0  0  0
 19 20  1  0  0  0  0
 19 21  1  0  0  0  0
 19  4  1  0  0  0  0
 22 19  1  0  0  0  0
 23 25  1  0  0  0  0
 23 26  1  0  0  0  0
 23  4  1  0  0  0  0
 24 23  1  0  0  0  0
 27  4  1  6  0  0  0
 27 28  1  0  0  0  0
 27 31  1  0  0  0  0
 28 32  1  6  0  0  0
 28 29  1  0  0  0  0
 29 30  2  0  0  0  0
 29 36  1  0  0  0  0
 30 40  1  0  0  0  0
 31 44  1  1  0  0  0
 31 30  1  0  0  0  0
 32 33  1  0  0  0  0
 32 34  1  0  0  0  0
 35 32  1  0  0  0  0
 36 37  1  0  0  0  0
 36 39  1  0  0  0  0
 38 36  1  0  0  0  0
 40 41  1  0  0  0  0
 40 42  1  0  0  0  0
 43 40  1  0  0  0  0
 44 47  1  0  0  0  0
 44 46  1  0  0  0  0
 45 44  1  0  0  0  0
 48  6  1  0  0  0  0
 48 51  1  0  0  0  0
 48 50  1  0  0  0  0
 49 48  1  0  0  0  0
M  END
$$$$
