CSD_code = UJOBIE | q = 0 | S = 0 | Stoichiometry = C28H35ClO2Ti | MND = 8
 OpenBabel04212202103D

 67 70  0  0  1  0  0  0  0  0999 V2000
    5.7177    4.0558    3.5986 Ti  0  0  0  0  0  0  0  0  0  0  0  0
    3.6760    4.8934    3.7634 Cl  0  0  0  0  0  0  0  0  0  0  0  0
    6.3473    4.5816    5.0734 O   0  0  0  0  0  0  0  0  0  0  0  0
    6.3996    5.1568    2.5109 O   0  0  0  0  0  0  0  0  0  0  0  0
    7.2603    5.2064    5.8133 C   0  0  0  0  0  0  0  0  0  0  0  0
    8.5500    5.3863    5.2786 C   0  0  0  0  0  0  0  0  0  0  0  0
    9.5329    5.9918    6.0438 C   0  0  0  0  0  0  0  0  0  0  0  0
    9.2720    6.4254    7.3315 C   0  0  0  0  0  0  0  0  0  0  0  0
    7.9902    6.2570    7.8409 C   0  0  0  0  0  0  0  0  0  0  0  0
    6.9683    5.6617    7.1191 C   0  0  0  0  0  0  0  0  0  0  0  0
    5.5483    5.5633    7.6651 C   0  0  0  0  0  0  0  0  0  0  0  0
    5.4532    5.9956    9.1329 C   0  0  0  0  0  0  0  0  0  0  0  0
    5.0205    4.1228    7.5710 C   0  0  0  0  0  0  0  0  0  0  0  0
    4.6658    6.5018    6.8280 C   0  0  0  0  0  0  0  0  0  0  0  0
   10.3348    7.0669    8.1722 C   0  0  0  0  0  0  0  0  0  0  0  0
    8.8645    4.9307    3.8720 C   0  0  0  0  0  0  0  0  0  0  0  0
    7.3098    6.0866    2.2289 C   0  0  0  0  0  0  0  0  0  0  0  0
    8.5648    6.0187    2.8647 C   0  0  0  0  0  0  0  0  0  0  0  0
    9.5371    6.9586    2.5672 C   0  0  0  0  0  0  0  0  0  0  0  0
    9.3048    7.9648    1.6457 C   0  0  0  0  0  0  0  0  0  0  0  0
    8.0635    8.0202    1.0256 C   0  0  0  0  0  0  0  0  0  0  0  0
    7.0515    7.1104    1.2892 C   0  0  0  0  0  0  0  0  0  0  0  0
    5.6689    7.2465    0.6604 C   0  0  0  0  0  0  0  0  0  0  0  0
    5.6313    8.3027   -0.4506 C   0  0  0  0  0  0  0  0  0  0  0  0
    5.2015    5.9158    0.0486 C   0  0  0  0  0  0  0  0  0  0  0  0
    4.7028    7.6805    1.7730 C   0  0  0  0  0  0  0  0  0  0  0  0
   10.3531    8.9919    1.3393 C   0  0  0  0  0  0  0  0  0  0  0  0
    6.5925    1.9244    3.8833 C   0  0  1  0  0  0  0  0  0  0  0  0
    5.2273    1.8340    4.2277 C   0  0  0  0  0  0  0  0  0  0  0  0
    4.4692    2.0852    3.0672 C   0  0  0  0  0  0  0  0  0  0  0  0
    5.3561    2.3467    2.0058 C   0  0  0  0  0  0  0  0  0  0  0  0
    6.6725    2.2432    2.5037 C   0  0  0  0  0  0  0  0  0  0  0  0
   10.5206    6.1209    5.6246 H   0  0  0  0  0  0  0  0  0  0  0  0
    7.8042    6.6110    8.8414 H   0  0  0  0  0  0  0  0  0  0  0  0
    4.4248    5.8872    9.4710 H   0  0  0  0  0  0  0  0  0  0  0  0
    6.0846    5.3754    9.7654 H   0  0  0  0  0  0  0  0  0  0  0  0
    5.7329    7.0385    9.2587 H   0  0  0  0  0  0  0  0  0  0  0  0
    4.0830    4.0389    8.1172 H   0  0  0  0  0  0  0  0  0  0  0  0
    4.8315    3.8396    6.5340 H   0  0  0  0  0  0  0  0  0  0  0  0
    5.7378    3.4279    8.0056 H   0  0  0  0  0  0  0  0  0  0  0  0
    3.6294    6.4299    7.1502 H   0  0  0  0  0  0  0  0  0  0  0  0
    4.9974    7.5321    6.9455 H   0  0  0  0  0  0  0  0  0  0  0  0
    4.7147    6.2432    5.7690 H   0  0  0  0  0  0  0  0  0  0  0  0
   10.0204    8.0595    8.4916 H   0  0  0  0  0  0  0  0  0  0  0  0
   10.5206    6.4737    9.0670 H   0  0  0  0  0  0  0  0  0  0  0  0
   11.2656    7.1591    7.6189 H   0  0  0  0  0  0  0  0  0  0  0  0
    9.9267    4.6818    3.8126 H   0  0  0  0  0  0  0  0  0  0  0  0
    8.2742    4.0339    3.6339 H   0  0  0  0  0  0  0  0  0  0  0  0
   10.4952    6.8983    3.0633 H   0  0  0  0  0  0  0  0  0  0  0  0
    7.8990    8.8113    0.3130 H   0  0  0  0  0  0  0  0  0  0  0  0
    4.6315    8.3349   -0.8784 H   0  0  0  0  0  0  0  0  0  0  0  0
    5.8549    9.2942   -0.0651 H   0  0  0  0  0  0  0  0  0  0  0  0
    6.3329    8.0595   -1.2456 H   0  0  0  0  0  0  0  0  0  0  0  0
    4.3159    6.0831   -0.5614 H   0  0  0  0  0  0  0  0  0  0  0  0
    5.9821    5.4945   -0.5835 H   0  0  0  0  0  0  0  0  0  0  0  0
    4.9421    5.1942    0.8252 H   0  0  0  0  0  0  0  0  0  0  0  0
    3.6872    7.7404    1.3880 H   0  0  0  0  0  0  0  0  0  0  0  0
    4.7162    6.9682    2.5996 H   0  0  0  0  0  0  0  0  0  0  0  0
    4.9889    8.6579    2.1578 H   0  0  0  0  0  0  0  0  0  0  0  0
   10.3276    9.2703    0.2881 H   0  0  0  0  0  0  0  0  0  0  0  0
   10.1765    9.8920    1.9289 H   0  0  0  0  0  0  0  0  0  0  0  0
   11.3451    8.6187    1.5814 H   0  0  0  0  0  0  0  0  0  0  0  0
    7.4263    1.6663    4.5270 H   0  0  0  0  0  0  0  0  0  0  0  0
    4.8343    1.5044    5.1821 H   0  0  0  0  0  0  0  0  0  0  0  0
    3.3921    2.0067    2.9867 H   0  0  0  0  0  0  0  0  0  0  0  0
    5.0814    2.4787    0.9661 H   0  0  0  0  0  0  0  0  0  0  0  0
    7.5769    2.2667    1.9060 H   0  0  0  0  0  0  0  0  0  0  0  0
  1  2  1  0  0  0  0
  1 28  1  0  0  0  0
  1  3  1  0  0  0  0
  3  5  1  0  0  0  0
  4  1  1  0  0  0  0
  5 10  1  0  0  0  0
  6  5  2  0  0  0  0
  6  7  1  0  0  0  0
  7  8  2  0  0  0  0
  8  9  1  0  0  0  0
  8 15  1  0  0  0  0
  9 34  1  0  0  0  0
 10 11  1  0  0  0  0
 10  9  2  0  0  0  0
 11 12  1  0  0  0  0
 12 37  1  0  0  0  0
 12 35  1  0  0  0  0
 12 36  1  0  0  0  0
 13 11  1  0  0  0  0
 13 40  1  0  0  0  0
 13 38  1  0  0  0  0
 14 42  1  0  0  0  0
 14 41  1  0  0  0  0
 14 11  1  0  0  0  0
 15 44  1  0  0  0  0
 15 45  1  0  0  0  0
 16  6  1  0  0  0  0
 17  4  1  0  0  0  0
 17 18  1  0  0  0  0
 18 16  1  0  0  0  0
 19 18  2  0  0  0  0
 19 49  1  0  0  0  0
 20 19  1  0  0  0  0
 21 22  1  0  0  0  0
 21 20  2  0  0  0  0
 22 17  2  0  0  0  0
 23 22  1  0  0  0  0
 23 26  1  0  0  0  0
 24 52  1  0  0  0  0
 24 23  1  0  0  0  0
 25 23  1  0  0  0  0
 25 56  1  0  0  0  0
 26 59  1  0  0  0  0
 26 58  1  0  0  0  0
 27 62  1  0  0  0  0
 27 20  1  0  0  0  0
 27 61  1  0  0  0  0
 28 29  1  0  0  0  0
 28 63  1  1  0  0  0
 29 64  1  0  0  0  0
 30 29  2  0  0  0  0
 31 32  2  0  0  0  0
 31 30  1  0  0  0  0
 32 28  1  0  0  0  0
 33  7  1  0  0  0  0
 39 13  1  0  0  0  0
 43 14  1  0  0  0  0
 46 15  1  0  0  0  0
 47 16  1  0  0  0  0
 48 16  1  0  0  0  0
 50 21  1  0  0  0  0
 51 24  1  0  0  0  0
 53 24  1  0  0  0  0
 54 25  1  0  0  0  0
 55 25  1  0  0  0  0
 57 26  1  0  0  0  0
 60 27  1  0  0  0  0
 65 30  1  0  0  0  0
 66 31  1  0  0  0  0
 67 32  1  0  0  0  0
M  END
$$$$
