CSD_code = UJOKEK | q = 0 | S = 0 | Stoichiometry = C28H24Cl2N4O2PdS2 | MND = 4
 OpenBabel04212202103D

 63 66  0  0  1  0  0  0  0  0999 V2000
    2.8395    4.8765   -0.0000 Pd  0  0  0  0  0  0  0  0  0  0  0  0
    2.1255    3.2500    1.4845 Cl  0  0  0  0  0  0  0  0  0  0  0  0
    0.8451    6.1482    0.3291 S   0  0  0  0  0  0  0  0  0  0  0  0
    2.5453    7.6903    4.2315 O   0  0  0  0  0  0  0  0  0  0  0  0
    0.6044    7.8453    2.4087 N   0  0  0  0  0  0  0  0  0  0  0  0
    1.0725    8.1342    3.2815 H   0  0  0  0  0  0  0  0  0  0  0  0
    1.1842    6.7870    1.8445 C   0  0  2  0  0  3  0  0  0  0  0  0
    2.2006    6.1875    2.5452 N   0  0  0  0  0  0  0  0  0  0  0  0
    2.4162    5.2112    2.2365 H   0  0  0  0  0  0  0  0  0  0  0  0
    2.9119    6.7126    3.6016 C   0  0  0  0  0  0  0  0  0  0  0  0
   -0.3735    8.7245    1.9398 C   0  0  0  0  0  0  0  0  0  0  0  0
   -1.2606    8.4207    0.9130 C   0  0  0  0  0  0  0  0  0  0  0  0
   -1.2213    7.4613    0.4266 H   0  0  0  0  0  0  0  0  0  0  0  0
   -2.2039    9.3558    0.5251 C   0  0  0  0  0  0  0  0  0  0  0  0
   -2.8876    9.1142   -0.2744 H   0  0  0  0  0  0  0  0  0  0  0  0
   -2.2794   10.5868    1.1526 C   0  0  0  0  0  0  0  0  0  0  0  0
   -3.0172   11.3105    0.8418 H   0  0  0  0  0  0  0  0  0  0  0  0
   -1.4067   10.8837    2.1878 C   0  0  0  0  0  0  0  0  0  0  0  0
   -1.4624   11.8390    2.6873 H   0  0  0  0  0  0  0  0  0  0  0  0
   -0.4615    9.9592    2.5839 C   0  0  0  0  0  0  0  0  0  0  0  0
    0.2212   10.1875    3.3896 H   0  0  0  0  0  0  0  0  0  0  0  0
    4.1742    5.9810    3.8389 C   0  0  0  0  0  0  0  0  0  0  0  0
    4.9008    5.4708    2.7612 C   0  0  0  0  0  0  0  0  0  0  0  0
    4.5729    5.6423    1.7283 H   0  0  0  0  0  0  0  0  0  0  0  0
    6.0851    4.7970    2.9919 C   0  0  0  0  0  0  0  0  0  0  0  0
    6.6438    4.4021    2.1573 H   0  0  0  0  0  0  0  0  0  0  0  0
    6.5487    4.6285    4.2878 C   0  0  0  0  0  0  0  0  0  0  0  0
    7.4689    4.0915    4.4637 H   0  0  0  0  0  0  0  0  0  0  0  0
    5.8428    5.1576    5.3564 C   0  0  0  0  0  0  0  0  0  0  0  0
    6.2137    5.0372    6.3631 H   0  0  0  0  0  0  0  0  0  0  0  0
    4.6621    5.8412    5.1349 C   0  0  0  0  0  0  0  0  0  0  0  0
    4.0977    6.2596    5.9545 H   0  0  0  0  0  0  0  0  0  0  0  0
    3.5536    6.5033   -1.4844 Cl  0  0  0  0  0  0  0  0  0  0  0  0
    4.8339    3.6049   -0.3290 S   0  0  0  0  0  0  0  0  0  0  0  0
    3.1337    2.0628   -4.2314 O   0  0  0  0  0  0  0  0  0  0  0  0
    5.0745    1.9078   -2.4087 N   0  0  0  0  0  0  0  0  0  0  0  0
    4.6065    1.6189   -3.2814 H   0  0  0  0  0  0  0  0  0  0  0  0
    4.4947    2.9661   -1.8445 C   0  0  1  0  0  3  0  0  0  0  0  0
    3.4785    3.5657   -2.5452 N   0  0  0  0  0  0  0  0  0  0  0  0
    3.2628    4.5420   -2.2365 H   0  0  0  0  0  0  0  0  0  0  0  0
    2.7671    3.0406   -3.6016 C   0  0  0  0  0  0  0  0  0  0  0  0
    6.0524    1.0286   -1.9397 C   0  0  0  0  0  0  0  0  0  0  0  0
    6.9395    1.3325   -0.9129 C   0  0  0  0  0  0  0  0  0  0  0  0
    6.9002    2.2920   -0.4265 H   0  0  0  0  0  0  0  0  0  0  0  0
    7.8828    0.3975   -0.5249 C   0  0  0  0  0  0  0  0  0  0  0  0
    8.5666    0.6392    0.2745 H   0  0  0  0  0  0  0  0  0  0  0  0
    7.9584   -0.8336   -1.1524 C   0  0  0  0  0  0  0  0  0  0  0  0
    8.6962   -1.5572   -0.8417 H   0  0  0  0  0  0  0  0  0  0  0  0
    7.0857   -1.1305   -2.1876 C   0  0  0  0  0  0  0  0  0  0  0  0
    7.1413   -2.0859   -2.6870 H   0  0  0  0  0  0  0  0  0  0  0  0
    6.1405   -0.2060   -2.5837 C   0  0  0  0  0  0  0  0  0  0  0  0
    5.4577   -0.4343   -3.3894 H   0  0  0  0  0  0  0  0  0  0  0  0
    1.5049    3.7723   -3.8390 C   0  0  0  0  0  0  0  0  0  0  0  0
    0.7783    4.2826   -2.7613 C   0  0  0  0  0  0  0  0  0  0  0  0
    1.1061    4.1109   -1.7284 H   0  0  0  0  0  0  0  0  0  0  0  0
   -0.4059    4.9566   -2.9922 C   0  0  0  0  0  0  0  0  0  0  0  0
   -0.9645    5.3516   -2.1575 H   0  0  0  0  0  0  0  0  0  0  0  0
   -0.8694    5.1252   -4.2880 C   0  0  0  0  0  0  0  0  0  0  0  0
   -1.7894    5.6622   -4.4641 H   0  0  0  0  0  0  0  0  0  0  0  0
   -0.1634    4.5960   -5.3566 C   0  0  0  0  0  0  0  0  0  0  0  0
   -0.5342    4.7165   -6.3634 H   0  0  0  0  0  0  0  0  0  0  0  0
    1.0173    3.9123   -5.1350 C   0  0  0  0  0  0  0  0  0  0  0  0
    1.5816    3.4939   -5.9546 H   0  0  0  0  0  0  0  0  0  0  0  0
  1  3  1  0  0  0  0
  1  2  1  0  0  0  0
  5  6  1  0  0  0  0
  7  3  1  6  0  0  0
  7  5  1  0  0  0  0
  7  8  1  0  0  0  0
  8 10  1  0  0  0  0
  9  8  1  0  0  0  0
 10 22  1  0  0  0  0
 10  4  2  0  0  0  0
 11  5  1  0  0  0  0
 11 20  1  0  0  0  0
 12 11  2  0  0  0  0
 13 12  1  0  0  0  0
 14 12  1  0  0  0  0
 14 16  2  0  0  0  0
 15 14  1  0  0  0  0
 16 18  1  0  0  0  0
 17 16  1  0  0  0  0
 18 20  2  0  0  0  0
 18 19  1  0  0  0  0
 20 21  1  0  0  0  0
 22 31  1  0  0  0  0
 23 25  1  0  0  0  0
 23 22  2  0  0  0  0
 24 23  1  0  0  0  0
 25 27  2  0  0  0  0
 26 25  1  0  0  0  0
 27 28  1  0  0  0  0
 27 29  1  0  0  0  0
 29 30  1  0  0  0  0
 31 29  2  0  0  0  0
 31 32  1  0  0  0  0
 33  1  1  0  0  0  0
 34  1  1  0  0  0  0
 35 41  2  0  0  0  0
 36 42  1  0  0  0  0
 36 38  1  0  0  0  0
 37 36  1  0  0  0  0
 38 34  1  1  0  0  0
 39 40  1  0  0  0  0
 39 38  1  0  0  0  0
 41 39  1  0  0  0  0
 42 43  1  0  0  0  0
 43 45  2  0  0  0  0
 43 44  1  0  0  0  0
 45 46  1  0  0  0  0
 47 48  1  0  0  0  0
 47 45  1  0  0  0  0
 49 47  2  0  0  0  0
 50 49  1  0  0  0  0
 51 49  1  0  0  0  0
 51 42  2  0  0  0  0
 52 51  1  0  0  0  0
 53 41  1  0  0  0  0
 53 54  1  0  0  0  0
 54 55  1  0  0  0  0
 56 54  2  0  0  0  0
 56 57  1  0  0  0  0
 58 56  1  0  0  0  0
 59 58  1  0  0  0  0
 60 62  1  0  0  0  0
 60 58  2  0  0  0  0
 61 60  1  0  0  0  0
 62 53  2  0  0  0  0
 63 62  1  0  0  0  0
M  END
$$$$
