CSD_code = UJUCEH | q = 0 | S = 0 | Stoichiometry = C15H11ClN3O3Re | MND = 6
 OpenBabel04212202103D

 34 36  0  0  0  0  0  0  0  0999 V2000
    7.1306    1.9221    3.3427 Re  0  0  0  0  0  0  0  0  0  0  0  0
    7.1352   -0.0878    2.0635 Cl  0  0  0  0  0  0  0  0  0  0  0  0
    9.5078    0.6989    4.8915 O   0  0  0  0  0  1  0  0  0  0  0  0
    5.0319    0.5431    5.1424 O   0  0  0  0  0  1  0  0  0  0  0  0
    7.1347    4.6642    4.7691 O   0  0  0  0  0  1  0  0  0  0  0  0
    8.3227    2.5833    1.6823 N   0  0  0  0  0  0  0  0  0  0  0  0
    5.6777    2.4800    1.8606 N   0  0  0  0  0  0  0  0  0  0  0  0
    0.1886    2.0213    2.6156 N   0  0  0  0  0  0  0  0  0  0  0  0
   -0.3210    1.3555    2.0599 H   0  0  0  0  0  0  0  0  0  0  0  0
   -0.1714    2.1939    3.5389 H   0  0  0  0  0  0  0  0  0  0  0  0
    7.6127    2.7255    0.5438 C   0  0  0  0  0  0  0  0  0  0  0  0
    8.2298    2.9238   -0.6937 C   0  0  0  0  0  0  0  0  0  0  0  0
    7.6214    3.0261   -1.5791 H   0  0  0  0  0  0  0  0  0  0  0  0
    9.6069    2.9668   -0.7590 C   0  0  0  0  0  0  0  0  0  0  0  0
   10.1104    3.1047   -1.7037 H   0  0  0  0  0  0  0  0  0  0  0  0
   10.3302    2.8259    0.4190 C   0  0  0  0  0  0  0  0  0  0  0  0
   11.4078    2.8524    0.4174 H   0  0  0  0  0  0  0  0  0  0  0  0
    9.6469    2.6392    1.6080 C   0  0  0  0  0  0  0  0  0  0  0  0
   10.1863    2.5265    2.5398 H   0  0  0  0  0  0  0  0  0  0  0  0
    6.1820    2.6607    0.6871 C   0  0  0  0  0  0  0  0  0  0  0  0
    5.5632    2.7861   -0.1983 H   0  0  0  0  0  0  0  0  0  0  0  0
    4.3009    2.3650    2.0178 C   0  0  0  0  0  0  0  0  0  0  0  0
    3.4956    1.7182    1.0748 C   0  0  0  0  0  0  0  0  0  0  0  0
    3.9462    1.2619    0.2055 H   0  0  0  0  0  0  0  0  0  0  0  0
    2.1441    1.5780    1.2876 C   0  0  0  0  0  0  0  0  0  0  0  0
    1.5385    1.0454    0.5688 H   0  0  0  0  0  0  0  0  0  0  0  0
    1.5413    2.1038    2.4351 C   0  0  0  0  0  0  0  0  0  0  0  0
    2.3484    2.7612    3.3725 C   0  0  0  0  0  0  0  0  0  0  0  0
    1.8964    3.1706    4.2636 H   0  0  0  0  0  0  0  0  0  0  0  0
    3.7027    2.8742    3.1767 C   0  0  0  0  0  0  0  0  0  0  0  0
    4.3204    3.3771    3.9080 H   0  0  0  0  0  0  0  0  0  0  0  0
    8.6141    1.1956    4.3791 C   0  0  0  0  0  2  0  0  0  0  0  0
    5.8304    1.0997    4.5418 C   0  0  0  0  0  2  0  0  0  0  0  0
    7.1386    3.6352    4.2543 C   0  0  0  0  0  2  0  0  0  0  0  0
  1 34  1  0  0  0  0
  1 32  1  0  0  0  0
  1 33  1  0  0  0  0
  2  1  1  0  0  0  0
  6  1  1  0  0  0  0
  7 22  1  0  0  0  0
  7  1  1  0  0  0  0
  8 10  1  0  0  0  0
  9  8  1  0  0  0  0
 11 20  2  0  0  0  0
 11  6  1  0  0  0  0
 12 11  1  0  0  0  0
 13 12  1  0  0  0  0
 14 12  2  0  0  0  0
 14 16  1  0  0  0  0
 15 14  1  0  0  0  0
 16 18  2  0  0  0  0
 17 16  1  0  0  0  0
 18  6  1  0  0  0  0
 18 19  1  0  0  0  0
 20  7  1  0  0  0  0
 21 20  1  0  0  0  0
 22 30  1  0  0  0  0
 23 25  1  0  0  0  0
 23 22  2  0  0  0  0
 24 23  1  0  0  0  0
 25 27  2  0  0  0  0
 26 25  1  0  0  0  0
 27  8  1  0  0  0  0
 27 28  1  0  0  0  0
 28 29  1  0  0  0  0
 30 28  2  0  0  0  0
 30 31  1  0  0  0  0
 32  3  1  0  0  0  0
 33  4  1  0  0  0  0
 34  5  1  0  0  0  0
M  END
$$$$
