CSD_code = UJUHAI | q = 0 | S = 0 | Stoichiometry = C12H11Br2N3Ni | MND = 4
 OpenBabel04212202103D

 29 31  0  0  0  0  0  0  0  0999 V2000
    2.9668    7.3334    1.4589 Ni  0  0  0  0  0  0  0  0  0  0  0  0
    2.5811    5.2595    2.2260 Br  0  0  0  0  0  0  0  0  0  0  0  0
    3.3379    8.7268   -0.2153 Br  0  0  0  0  0  0  0  0  0  0  0  0
    1.0686    8.2682    2.3881 N   0  0  0  0  0  0  0  0  0  0  0  0
    2.1165    8.1775    4.4820 N   0  0  0  0  0  0  0  0  0  0  0  0
    1.9522    8.1676    5.4791 H   0  0  0  0  0  0  0  0  0  0  0  0
    3.8803    7.9779    2.9152 N   0  0  0  0  0  0  0  0  0  0  0  0
   -0.0431    8.3302    1.6607 C   0  0  0  0  0  3  0  0  0  0  0  0
    0.1015    8.4270    0.5918 H   0  0  0  0  0  0  0  0  0  0  0  0
   -1.3095    8.2828    2.2138 C   0  0  0  0  0  0  0  0  0  0  0  0
   -2.1817    8.3298    1.5831 H   0  0  0  0  0  0  0  0  0  0  0  0
   -1.4245    8.1678    3.5926 C   0  0  0  0  0  0  0  0  0  0  0  0
   -2.3948    8.1183    4.0626 H   0  0  0  0  0  0  0  0  0  0  0  0
   -0.2770    8.1232    4.3598 C   0  0  0  0  0  0  0  0  0  0  0  0
   -0.3269    8.0414    5.4348 H   0  0  0  0  0  0  0  0  0  0  0  0
    0.9581    8.1771    3.7118 C   0  0  0  0  0  0  0  0  0  0  0  0
    3.4132    8.1629    4.0990 C   0  0  0  0  0  3  0  0  0  0  0  0
    4.1102    8.3139    4.9243 H   0  0  0  0  0  0  0  0  0  0  0  0
    5.2674    8.0848    2.6954 C   0  0  0  0  0  0  0  0  0  0  0  0
    6.0298    9.0744    3.3107 C   0  0  0  0  0  0  0  0  0  0  0  0
    5.5562    9.7991    3.9568 H   0  0  0  0  0  0  0  0  0  0  0  0
    7.3858    9.1563    3.0511 C   0  0  0  0  0  0  0  0  0  0  0  0
    7.9693    9.9324    3.5230 H   0  0  0  0  0  0  0  0  0  0  0  0
    7.9901    8.2622    2.1839 C   0  0  0  0  0  0  0  0  0  0  0  0
    9.0472    8.3374    1.9812 H   0  0  0  0  0  0  0  0  0  0  0  0
    7.2310    7.2843    1.5600 C   0  0  0  0  0  0  0  0  0  0  0  0
    7.6943    6.5940    0.8723 H   0  0  0  0  0  0  0  0  0  0  0  0
    5.8760    7.1973    1.8066 C   0  0  0  0  0  0  0  0  0  0  0  0
    5.2755    6.4353    1.3064 H   0  0  0  0  0  0  0  0  0  0  0  0
  1  2  1  0  0  0  0
  1  4  1  0  0  0  0
  1  7  1  0  0  0  0
  3  1  1  0  0  0  0
  4 16  1  0  0  0  0
  5  6  1  0  0  0  0
  7 17  1  0  0  0  0
  8 10  1  0  0  0  0
  8  4  1  0  0  0  0
  9  8  1  0  0  0  0
 10 12  2  0  0  0  0
 11 10  1  0  0  0  0
 12 13  1  0  0  0  0
 12 14  1  0  0  0  0
 14 15  1  0  0  0  0
 16 14  2  0  0  0  0
 16  5  1  0  0  0  0
 17  5  1  0  0  0  0
 17 18  1  0  0  0  0
 19  7  1  0  0  0  0
 19 20  1  0  0  0  0
 20 21  1  0  0  0  0
 22 20  2  0  0  0  0
 22 23  1  0  0  0  0
 24 22  1  0  0  0  0
 25 24  1  0  0  0  0
 26 28  1  0  0  0  0
 26 24  2  0  0  0  0
 27 26  1  0  0  0  0
 28 19  2  0  0  0  0
 29 28  1  0  0  0  0
M  END
$$$$
