CSD_code = UJUPIZ | q = 1 | S = 0 | Stoichiometry = C12H30ClFeN4(1+) | MND = 5
 OpenBabel04212202103D

 48 50  0  0  0  0  0  0  0  0999 V2000
    7.0536   11.9978    3.5112 C   0  0  0  0  0  0  0  0  0  0  0  0
    6.4287   12.0183    2.6089 H   0  0  0  0  0  0  0  0  0  0  0  0
    7.6256   11.0712    3.4966 H   0  0  0  0  0  0  0  0  0  0  0  0
    8.0304   13.1743    3.4780 C   0  0  0  0  0  0  0  0  0  0  0  0
    8.6556   13.0865    2.5775 H   0  0  0  0  0  0  0  0  0  0  0  0
    7.4818   14.1149    3.4032 H   0  0  0  0  0  0  0  0  0  0  0  0
    9.9577   12.2717    4.6197 C   0  0  0  0  0  0  0  0  0  0  0  0
    9.5893   11.2660    4.4339 H   0  0  0  0  0  0  0  0  0  0  0  0
   10.4905   12.2755    5.5677 H   0  0  0  0  0  0  0  0  0  0  0  0
   10.6578   12.5413    3.8196 H   0  0  0  0  0  0  0  0  0  0  0  0
    9.3823   14.5590    4.9138 C   0  0  0  0  0  0  0  0  0  0  0  0
   10.0253   14.8757    4.0844 H   0  0  0  0  0  0  0  0  0  0  0  0
    9.9660   14.5616    5.8308 H   0  0  0  0  0  0  0  0  0  0  0  0
    8.5694   15.2731    5.0246 H   0  0  0  0  0  0  0  0  0  0  0  0
    5.6378   10.6476    4.9219 C   0  0  0  0  0  0  0  0  0  0  0  0
    5.2765   10.2415    3.9680 H   0  0  0  0  0  0  0  0  0  0  0  0
    4.7815   10.7379    5.5887 H   0  0  0  0  0  0  0  0  0  0  0  0
    6.6372    9.6697    5.5415 C   0  0  0  0  0  0  0  0  0  0  0  0
    6.1314    8.7060    5.7004 H   0  0  0  0  0  0  0  0  0  0  0  0
    7.4650    9.4924    4.8525 H   0  0  0  0  0  0  0  0  0  0  0  0
    8.4629    9.5543    7.1089 C   0  0  0  0  0  0  0  0  0  0  0  0
    8.3457    8.4726    7.2424 H   0  0  0  0  0  0  0  0  0  0  0  0
    8.8558    9.9807    8.0283 H   0  0  0  0  0  0  0  0  0  0  0  0
    9.1818    9.7369    6.3135 H   0  0  0  0  0  0  0  0  0  0  0  0
    6.2664    9.9899    7.9061 C   0  0  0  0  0  0  0  0  0  0  0  0
    5.3028   10.4449    7.6908 H   0  0  0  0  0  0  0  0  0  0  0  0
    6.6775   10.4564    8.7982 H   0  0  0  0  0  0  0  0  0  0  0  0
    6.1130    8.9219    8.1043 H   0  0  0  0  0  0  0  0  0  0  0  0
    5.1097   12.9708    4.5542 C   0  0  0  0  0  0  0  0  0  0  0  0
    4.3357   12.5626    3.8913 H   0  0  0  0  0  0  0  0  0  0  0  0
    5.5175   13.8611    4.0776 H   0  0  0  0  0  0  0  0  0  0  0  0
    4.4737   13.3779    5.8841 C   0  0  0  0  0  0  0  0  0  0  0  0
    3.6959   14.1296    5.6850 H   0  0  0  0  0  0  0  0  0  0  0  0
    3.9846   12.5175    6.3444 H   0  0  0  0  0  0  0  0  0  0  0  0
    5.8182   15.2764    6.5313 C   0  0  0  0  0  0  0  0  0  0  0  0
    6.1578   15.3799    5.5040 H   0  0  0  0  0  0  0  0  0  0  0  0
    6.6204   15.5913    7.1946 H   0  0  0  0  0  0  0  0  0  0  0  0
    4.9551   15.9363    6.6824 H   0  0  0  0  0  0  0  0  0  0  0  0
    5.0016   13.7917    8.1978 C   0  0  0  0  0  0  0  0  0  0  0  0
    5.7756   14.1574    8.8676 H   0  0  0  0  0  0  0  0  0  0  0  0
    4.7924   12.7549    8.4516 H   0  0  0  0  0  0  0  0  0  0  0  0
    4.0933   14.3866    8.3487 H   0  0  0  0  0  0  0  0  0  0  0  0
    8.4781   13.0224    8.0195 Cl  0  0  0  0  0  0  0  0  0  0  0  0
    7.3823   12.5282    6.4139 Fe  0  0  0  0  0  0  0  0  0  0  0  0
    6.2063   11.9956    4.7207 N   0  0  0  0  0  4  0  0  0  0  0  0
    8.8446   13.2167    4.6949 N   0  0  0  0  0  4  0  0  0  0  0  0
    7.1891   10.1983    6.7911 N   0  0  0  0  0  4  0  0  0  0  0  0
    5.4815   13.8832    6.8193 N   0  0  0  0  0  4  0  0  0  0  0  0
  1 45  1  0  0  0  0
  2  1  1  0  0  0  0
  3  1  1  0  0  0  0
  4  1  1  0  0  0  0
  4 46  1  0  0  0  0
  5  4  1  0  0  0  0
  6  4  1  0  0  0  0
  7 46  1  0  0  0  0
  7  9  1  0  0  0  0
  8  7  1  0  0  0  0
 10  7  1  0  0  0  0
 11 14  1  0  0  0  0
 11 13  1  0  0  0  0
 12 11  1  0  0  0  0
 15 18  1  0  0  0  0
 15 17  1  0  0  0  0
 16 15  1  0  0  0  0
 18 19  1  0  0  0  0
 18 47  1  0  0  0  0
 20 18  1  0  0  0  0
 21 22  1  0  0  0  0
 21 23  1  0  0  0  0
 24 21  1  0  0  0  0
 25 28  1  0  0  0  0
 25 27  1  0  0  0  0
 26 25  1  0  0  0  0
 29 45  1  0  0  0  0
 29 32  1  0  0  0  0
 30 29  1  0  0  0  0
 31 29  1  0  0  0  0
 32 34  1  0  0  0  0
 32 48  1  0  0  0  0
 33 32  1  0  0  0  0
 35 38  1  0  0  0  0
 35 48  1  0  0  0  0
 35 37  1  0  0  0  0
 36 35  1  0  0  0  0
 39 42  1  0  0  0  0
 39 41  1  0  0  0  0
 39 40  1  0  0  0  0
 44 47  1  0  0  0  0
 44 48  1  0  0  0  0
 44 43  1  0  0  0  0
 45 15  1  0  0  0  0
 45 44  1  0  0  0  0
 46 11  1  0  0  0  0
 46 44  1  0  0  0  0
 47 21  1  0  0  0  0
 47 25  1  0  0  0  0
 48 39  1  0  0  0  0
M  END
$$$$
