CSD_code = UJUPOF | q = 1 | S = 0 | Stoichiometry = C24H30ClFeN4(1+) | MND = 5
 OpenBabel04212202103D

 60 64  0  0  0  0  0  0  0  0999 V2000
    0.0238    7.3147    5.7646 C   0  0  0  0  0  0  0  0  0  0  0  0
    0.2176    7.2180    4.3918 C   0  0  0  0  0  0  0  0  0  0  0  0
    0.6149    8.0580    3.8417 H   0  0  0  0  0  0  0  0  0  0  0  0
   -0.1158    6.0477    3.7299 C   0  0  0  0  0  0  0  0  0  0  0  0
    0.0311    5.9784    2.6639 H   0  0  0  0  0  0  0  0  0  0  0  0
   -0.6271    4.9708    4.4333 C   0  0  0  0  0  0  0  0  0  0  0  0
   -0.8744    4.0567    3.9182 H   0  0  0  0  0  0  0  0  0  0  0  0
   -0.8367    5.0674    5.7993 C   0  0  0  0  0  0  0  0  0  0  0  0
   -1.2516    4.2280    6.3344 H   0  0  0  0  0  0  0  0  0  0  0  0
   -0.5265    6.2427    6.4666 C   0  0  0  0  0  0  0  0  0  0  0  0
    0.2339    5.8188    8.7025 C   0  0  0  0  0  0  0  0  0  0  0  0
    0.1922    4.7293    8.6049 H   0  0  0  0  0  0  0  0  0  0  0  0
    0.0586    6.0848    9.7439 H   0  0  0  0  0  0  0  0  0  0  0  0
    1.2269    6.1555    8.4094 H   0  0  0  0  0  0  0  0  0  0  0  0
   -2.1203    6.0216    8.2670 C   0  0  0  0  0  0  0  0  0  0  0  0
   -2.2110    4.9322    8.2636 H   0  0  0  0  0  0  0  0  0  0  0  0
   -2.8607    6.4401    7.5859 H   0  0  0  0  0  0  0  0  0  0  0  0
   -2.3243    6.3768    9.2781 H   0  0  0  0  0  0  0  0  0  0  0  0
    0.2049    9.6968    5.7710 C   0  0  0  0  0  0  0  0  0  0  0  0
    1.2896   10.3421    5.1868 C   0  0  0  0  0  0  0  0  0  0  0  0
    2.2855    9.9507    5.3265 H   0  0  0  0  0  0  0  0  0  0  0  0
    1.1122   11.4884    4.4330 C   0  0  0  0  0  0  0  0  0  0  0  0
    1.9673   11.9768    3.9941 H   0  0  0  0  0  0  0  0  0  0  0  0
   -0.1610   11.9913    4.2412 C   0  0  0  0  0  0  0  0  0  0  0  0
   -0.3138   12.8767    3.6451 H   0  0  0  0  0  0  0  0  0  0  0  0
   -1.2447   11.3569    4.8211 C   0  0  0  0  0  0  0  0  0  0  0  0
   -2.2302   11.7652    4.6672 H   0  0  0  0  0  0  0  0  0  0  0  0
   -1.0860   10.2160    5.5995 C   0  0  0  0  0  0  0  0  0  0  0  0
   -2.9189    8.6893    5.3513 C   0  0  0  0  0  0  0  0  0  0  0  0
   -3.3665    9.2379    4.5139 H   0  0  0  0  0  0  0  0  0  0  0  0
   -3.7176    8.1985    5.9042 H   0  0  0  0  0  0  0  0  0  0  0  0
   -2.2484    7.9350    4.9486 H   0  0  0  0  0  0  0  0  0  0  0  0
   -3.1567   10.5690    6.7868 C   0  0  0  0  0  0  0  0  0  0  0  0
   -3.7624   11.0324    6.0018 H   0  0  0  0  0  0  0  0  0  0  0  0
   -2.6210   11.3418    7.3331 H   0  0  0  0  0  0  0  0  0  0  0  0
   -3.8282   10.0588    7.4738 H   0  0  0  0  0  0  0  0  0  0  0  0
    1.7327    8.3318    7.0684 C   0  0  0  0  0  0  0  0  0  0  0  0
    2.7162    7.6709    6.3390 C   0  0  0  0  0  0  0  0  0  0  0  0
    2.4833    7.2614    5.3682 H   0  0  0  0  0  0  0  0  0  0  0  0
    3.9968    7.5219    6.8414 C   0  0  0  0  0  0  0  0  0  0  0  0
    4.7416    7.0034    6.2593 H   0  0  0  0  0  0  0  0  0  0  0  0
    4.3115    8.0443    8.0821 C   0  0  0  0  0  0  0  0  0  0  0  0
    5.3083    7.9421    8.4802 H   0  0  0  0  0  0  0  0  0  0  0  0
    3.3405    8.7002    8.8162 C   0  0  0  0  0  0  0  0  0  0  0  0
    3.5968    9.1003    9.7834 H   0  0  0  0  0  0  0  0  0  0  0  0
    2.0443    8.8475    8.3330 C   0  0  0  0  0  0  0  0  0  0  0  0
    1.1371    9.2339   10.5443 C   0  0  0  0  0  0  0  0  0  0  0  0
    1.9235    9.8379   11.0071 H   0  0  0  0  0  0  0  0  0  0  0  0
    1.3416    8.1807   10.7219 H   0  0  0  0  0  0  0  0  0  0  0  0
    0.1905    9.4927   11.0137 H   0  0  0  0  0  0  0  0  0  0  0  0
    0.9684   10.9173    8.8503 C   0  0  0  0  0  0  0  0  0  0  0  0
    1.8944   11.4060    9.1759 H   0  0  0  0  0  0  0  0  0  0  0  0
    0.1333   11.3469    9.3996 H   0  0  0  0  0  0  0  0  0  0  0  0
    0.8290   11.1073    7.7877 H   0  0  0  0  0  0  0  0  0  0  0  0
   -2.1052    9.4681    9.5793 Cl  0  0  0  0  0  0  0  0  0  0  0  0
   -1.0004    8.5507    8.1898 Fe  0  0  0  0  0  0  0  0  0  0  0  0
    0.3844    8.4799    6.5369 N   0  0  0  0  0  4  0  0  0  0  0  0
    1.0114    9.4738    9.1060 N   0  0  0  0  0  4  0  0  0  0  0  0
   -0.7806    6.4683    7.8685 N   0  0  0  0  0  4  0  0  0  0  0  0
   -2.2026    9.5864    6.2603 N   0  0  0  0  0  0  0  0  0  0  0  0
  1 10  1  0  0  0  0
  1 57  1  0  0  0  0
  2  1  2  0  0  0  0
  3  2  1  0  0  0  0
  4  2  1  0  0  0  0
  4  6  2  0  0  0  0
  5  4  1  0  0  0  0
  6  8  1  0  0  0  0
  7  6  1  0  0  0  0
  8  9  1  0  0  0  0
  8 10  2  0  0  0  0
 10 59  1  0  0  0  0
 11 13  1  0  0  0  0
 12 11  1  0  0  0  0
 14 11  1  0  0  0  0
 15 18  1  0  0  0  0
 16 15  1  0  0  0  0
 17 15  1  0  0  0  0
 19 57  1  0  0  0  0
 20 21  1  0  0  0  0
 20 19  2  0  0  0  0
 22 20  1  0  0  0  0
 23 22  1  0  0  0  0
 24 22  2  0  0  0  0
 24 26  1  0  0  0  0
 25 24  1  0  0  0  0
 26 28  2  0  0  0  0
 27 26  1  0  0  0  0
 28 19  1  0  0  0  0
 28 60  1  0  0  0  0
 29 31  1  0  0  0  0
 29 60  1  0  0  0  0
 30 29  1  0  0  0  0
 32 29  1  0  0  0  0
 33 35  1  0  0  0  0
 33 36  1  0  0  0  0
 34 33  1  0  0  0  0
 37 46  1  0  0  0  0
 38 40  1  0  0  0  0
 38 37  2  0  0  0  0
 39 38  1  0  0  0  0
 40 42  2  0  0  0  0
 41 40  1  0  0  0  0
 42 43  1  0  0  0  0
 42 44  1  0  0  0  0
 44 45  1  0  0  0  0
 46 44  2  0  0  0  0
 46 58  1  0  0  0  0
 47 49  1  0  0  0  0
 47 48  1  0  0  0  0
 47 50  1  0  0  0  0
 51 58  1  0  0  0  0
 51 52  1  0  0  0  0
 51 53  1  0  0  0  0
 54 51  1  0  0  0  0
 56 58  1  0  0  0  0
 56 55  1  0  0  0  0
 57 37  1  0  0  0  0
 57 56  1  0  0  0  0
 58 47  1  0  0  0  0
 59 56  1  0  0  0  0
 59 15  1  0  0  0  0
 59 11  1  0  0  0  0
 60 33  1  0  0  0  0
M  END
$$$$
