CSD_code = UJUQEW | q = 1 | S = 0 | Stoichiometry = C24H30ClN4Ni(1+) | MND = 5
 OpenBabel04212202103D

 60 65  0  0  0  0  0  0  0  0999 V2000
    8.3359    3.8168    9.1216 C   0  0  0  0  0  0  0  0  0  0  0  0
    7.6359    3.0337    8.2119 C   0  0  0  0  0  0  0  0  0  0  0  0
    7.1205    3.4961    7.3835 H   0  0  0  0  0  0  0  0  0  0  0  0
    7.6074    1.6574    8.3552 C   0  0  0  0  0  0  0  0  0  0  0  0
    7.0656    1.0588    7.6405 H   0  0  0  0  0  0  0  0  0  0  0  0
    8.2659    1.0596    9.4143 C   0  0  0  0  0  0  0  0  0  0  0  0
    8.2357   -0.0110    9.5378 H   0  0  0  0  0  0  0  0  0  0  0  0
    8.9828    1.8328   10.3115 C   0  0  0  0  0  0  0  0  0  0  0  0
    9.5085    1.3482   11.1178 H   0  0  0  0  0  0  0  0  0  0  0  0
    9.0437    3.2119   10.1645 C   0  0  0  0  0  0  0  0  0  0  0  0
   11.1346    3.4202   11.3608 C   0  0  0  0  0  0  0  0  0  0  0  0
   11.0128    2.5910   12.0625 H   0  0  0  0  0  0  0  0  0  0  0  0
   11.7858    4.1626   11.8188 H   0  0  0  0  0  0  0  0  0  0  0  0
   11.6065    3.0570   10.4496 H   0  0  0  0  0  0  0  0  0  0  0  0
    9.1223    4.3138   12.2881 C   0  0  0  0  0  0  0  0  0  0  0  0
    8.1582    4.7803   12.0849 H   0  0  0  0  0  0  0  0  0  0  0  0
    9.7209    4.9773   12.9106 H   0  0  0  0  0  0  0  0  0  0  0  0
    8.9474    3.3809   12.8355 H   0  0  0  0  0  0  0  0  0  0  0  0
    7.2777    5.8578    9.8221 C   0  0  0  0  0  0  0  0  0  0  0  0
    6.0315    5.2545    9.9380 C   0  0  0  0  0  0  0  0  0  0  0  0
    5.8501    4.2948    9.4781 H   0  0  0  0  0  0  0  0  0  0  0  0
    5.0222    5.8740   10.6545 C   0  0  0  0  0  0  0  0  0  0  0  0
    4.0598    5.3957   10.7409 H   0  0  0  0  0  0  0  0  0  0  0  0
    5.2507    7.1023   11.2481 C   0  0  0  0  0  0  0  0  0  0  0  0
    4.4642    7.5940   11.7976 H   0  0  0  0  0  0  0  0  0  0  0  0
    6.4967    7.6982   11.1537 C   0  0  0  0  0  0  0  0  0  0  0  0
    6.6632    8.6447   11.6411 H   0  0  0  0  0  0  0  0  0  0  0  0
    7.5258    7.0772   10.4591 C   0  0  0  0  0  0  0  0  0  0  0  0
    9.2724    8.2255   11.6768 C   0  0  0  0  0  0  0  0  0  0  0  0
    8.7514    9.1668   11.8702 H   0  0  0  0  0  0  0  0  0  0  0  0
   10.3418    8.4268   11.6491 H   0  0  0  0  0  0  0  0  0  0  0  0
    9.0700    7.5266   12.4862 H   0  0  0  0  0  0  0  0  0  0  0  0
    8.9287    8.6699    9.3543 C   0  0  0  0  0  0  0  0  0  0  0  0
    8.6272    8.2651    8.3879 H   0  0  0  0  0  0  0  0  0  0  0  0
    9.9499    9.0428    9.2872 H   0  0  0  0  0  0  0  0  0  0  0  0
    8.2647    9.5054    9.6028 H   0  0  0  0  0  0  0  0  0  0  0  0
    8.3272    5.7242    7.6611 C   0  0  0  0  0  0  0  0  0  0  0  0
    7.1399    5.9893    6.9900 C   0  0  0  0  0  0  0  0  0  0  0  0
    6.1962    5.9119    7.5085 H   0  0  0  0  0  0  0  0  0  0  0  0
    7.1622    6.3649    5.6580 C   0  0  0  0  0  0  0  0  0  0  0  0
    6.2354    6.5719    5.1475 H   0  0  0  0  0  0  0  0  0  0  0  0
    8.3685    6.4634    4.9884 C   0  0  0  0  0  0  0  0  0  0  0  0
    8.3899    6.7400    3.9466 H   0  0  0  0  0  0  0  0  0  0  0  0
    9.5560    6.2240    5.6586 C   0  0  0  0  0  0  0  0  0  0  0  0
   10.4875    6.3282    5.1269 H   0  0  0  0  0  0  0  0  0  0  0  0
    9.5508    5.8746    7.0020 C   0  0  0  0  0  0  0  0  0  0  0  0
   11.7870    6.6972    7.4085 C   0  0  0  0  0  0  0  0  0  0  0  0
   12.2142    6.5097    6.4200 H   0  0  0  0  0  0  0  0  0  0  0  0
   12.5916    6.6616    8.1407 H   0  0  0  0  0  0  0  0  0  0  0  0
   11.3414    7.6902    7.4276 H   0  0  0  0  0  0  0  0  0  0  0  0
   11.3298    4.3538    7.5087 C   0  0  0  0  0  0  0  0  0  0  0  0
   10.5983    3.5820    7.7487 H   0  0  0  0  0  0  0  0  0  0  0  0
   12.2168    4.2159    8.1257 H   0  0  0  0  0  0  0  0  0  0  0  0
   11.6138    4.2469    6.4559 H   0  0  0  0  0  0  0  0  0  0  0  0
   11.7510    6.4833   10.6098 Cl  0  0  0  0  0  0  0  0  0  0  0  0
    8.3471    5.2663    9.0383 N   0  0  0  0  0  4  0  0  0  0  0  0
    9.8470    4.0543   11.0338 N   0  0  0  0  0  4  0  0  0  0  0  0
    8.8680    7.6292   10.3934 N   0  0  0  0  0  4  0  0  0  0  0  0
   10.7732    5.6916    7.7661 N   0  0  0  0  0  4  0  0  0  0  0  0
   10.0107    5.8605    9.8065 Ni  0  0  0  0  0  0  0  0  0  0  0  0
  1 10  1  0  0  0  0
  2  4  1  0  0  0  0
  2  1  2  0  0  0  0
  3  2  1  0  0  0  0
  4  6  2  0  0  0  0
  5  4  1  0  0  0  0
  6  7  1  0  0  0  0
  6  8  1  0  0  0  0
  8  9  1  0  0  0  0
 10  8  2  0  0  0  0
 10 57  1  0  0  0  0
 11 13  1  0  0  0  0
 11 12  1  0  0  0  0
 14 11  1  0  0  0  0
 15 18  1  0  0  0  0
 15 17  1  0  0  0  0
 16 15  1  0  0  0  0
 19 20  2  0  0  0  0
 19 28  1  0  0  0  0
 20 22  1  0  0  0  0
 21 20  1  0  0  0  0
 22 23  1  0  0  0  0
 22 24  2  0  0  0  0
 24 25  1  0  0  0  0
 26 24  1  0  0  0  0
 26 27  1  0  0  0  0
 28 26  2  0  0  0  0
 29 30  1  0  0  0  0
 29 32  1  0  0  0  0
 31 29  1  0  0  0  0
 33 36  1  0  0  0  0
 33 58  1  0  0  0  0
 34 33  1  0  0  0  0
 35 33  1  0  0  0  0
 37 56  1  0  0  0  0
 38 39  1  0  0  0  0
 38 37  2  0  0  0  0
 40 38  1  0  0  0  0
 41 40  1  0  0  0  0
 42 40  2  0  0  0  0
 42 44  1  0  0  0  0
 43 42  1  0  0  0  0
 44 46  2  0  0  0  0
 45 44  1  0  0  0  0
 46 37  1  0  0  0  0
 46 59  1  0  0  0  0
 47 50  1  0  0  0  0
 47 59  1  0  0  0  0
 47 49  1  0  0  0  0
 48 47  1  0  0  0  0
 51 52  1  0  0  0  0
 51 59  1  0  0  0  0
 51 53  1  0  0  0  0
 54 51  1  0  0  0  0
 56  1  1  0  0  0  0
 56 60  1  0  0  0  0
 56 19  1  0  0  0  0
 57 11  1  0  0  0  0
 57 15  1  0  0  0  0
 58 28  1  0  0  0  0
 58 29  1  0  0  0  0
 59 60  1  0  0  0  0
 60 58  1  0  0  0  0
 60 55  1  0  0  0  0
 60 57  1  0  0  0  0
M  END
$$$$
