CSD_code = UKAWIO | q = 0 | S = 0 | Stoichiometry = C10H16Cl2N4Pt | MND = 4
 OpenBabel04212202103D

 33 34  0  0  0  0  0  0  0  0999 V2000
    3.2949   -0.0052    7.1044 Pt  0  0  0  0  0  0  0  0  0  0  0  0
    1.1410    0.6659    6.5919 Cl  0  0  0  0  0  0  0  0  0  0  0  0
    3.9558    1.6207    6.4459 N   0  0  0  0  0  2  0  0  0  0  0  0
    4.8184    3.7468    5.5945 N   0  0  0  0  0  0  0  0  0  0  0  0
    6.2256    4.1215    5.6441 C   0  0  0  0  0  0  0  0  0  0  0  0
    6.8567    3.3064    5.2837 H   0  0  0  0  0  0  0  0  0  0  0  0
    6.5152    4.3550    6.6755 H   0  0  0  0  0  0  0  0  0  0  0  0
    6.2814    5.3638    4.7586 C   0  0  0  0  0  0  0  0  0  0  0  0
    7.0940    6.0298    5.0388 H   0  0  0  0  0  0  0  0  0  0  0  0
    6.4082    5.0764    3.7144 H   0  0  0  0  0  0  0  0  0  0  0  0
    4.3636    2.6288    6.0448 C   0  0  0  0  0  2  0  0  0  0  0  0
    4.9033    5.9925    4.9653 C   0  0  0  0  0  0  0  0  0  0  0  0
    4.6355    6.6891    4.1744 H   0  0  0  0  0  0  0  0  0  0  0  0
    4.8711    6.5173    5.9206 H   0  0  0  0  0  0  0  0  0  0  0  0
    3.9790    4.7785    5.0001 C   0  0  0  0  0  0  0  0  0  0  0  0
    3.0783    4.9374    5.5966 H   0  0  0  0  0  0  0  0  0  0  0  0
    3.6782    4.4797    3.9888 H   0  0  0  0  0  0  0  0  0  0  0  0
    5.4491   -0.6756    7.6181 Cl  0  0  0  0  0  0  0  0  0  0  0  0
    2.6327   -1.6314    7.7608 N   0  0  0  0  0  2  0  0  0  0  0  0
    1.7679   -3.7458    8.6387 N   0  0  0  0  0  0  0  0  0  0  0  0
    0.3602   -4.1195    8.5923 C   0  0  0  0  0  0  0  0  0  0  0  0
   -0.2694   -3.3039    8.9544 H   0  0  0  0  0  0  0  0  0  0  0  0
    0.0679   -4.3524    7.5616 H   0  0  0  0  0  0  0  0  0  0  0  0
    0.3053   -5.3618    9.4779 C   0  0  0  0  0  0  0  0  0  0  0  0
   -0.5073   -6.0279    9.1981 H   0  0  0  0  0  0  0  0  0  0  0  0
    0.1788   -5.0743   10.5221 H   0  0  0  0  0  0  0  0  0  0  0  0
    2.2239   -2.6328    8.1774 C   0  0  0  0  0  2  0  0  0  0  0  0
    1.6834   -5.9904    9.2710 C   0  0  0  0  0  0  0  0  0  0  0  0
    1.9516   -6.6866   10.0620 H   0  0  0  0  0  0  0  0  0  0  0  0
    1.7155   -6.5154    8.3158 H   0  0  0  0  0  0  0  0  0  0  0  0
    2.6072   -4.7760    9.2356 C   0  0  0  0  0  0  0  0  0  0  0  0
    3.5089   -4.9351    8.6409 H   0  0  0  0  0  0  0  0  0  0  0  0
    2.9060   -4.4756   10.2471 H   0  0  0  0  0  0  0  0  0  0  0  0
  1 18  1  0  0  0  0
  1 19  1  0  0  0  0
  2  1  1  0  0  0  0
  3  1  1  0  0  0  0
  4  5  1  0  0  0  0
  4 11  1  0  0  0  0
  5  7  1  0  0  0  0
  6  5  1  0  0  0  0
  8 12  1  0  0  0  0
  8  9  1  0  0  0  0
  8  5  1  0  0  0  0
 10  8  1  0  0  0  0
 11  3  1  0  0  0  0
 12 15  1  0  0  0  0
 12 14  1  0  0  0  0
 13 12  1  0  0  0  0
 15  4  1  0  0  0  0
 15 16  1  0  0  0  0
 17 15  1  0  0  0  0
 19 27  1  0  0  0  0
 20 31  1  0  0  0  0
 21 20  1  0  0  0  0
 21 22  1  0  0  0  0
 21 24  1  0  0  0  0
 23 21  1  0  0  0  0
 24 26  1  0  0  0  0
 25 24  1  0  0  0  0
 27 20  1  0  0  0  0
 28 24  1  0  0  0  0
 28 29  1  0  0  0  0
 30 28  1  0  0  0  0
 31 28  1  0  0  0  0
 31 33  1  0  0  0  0
 32 31  1  0  0  0  0
M  END
$$$$
