CSD_code = UKAYUB | q = 0 | S = 0 | Stoichiometry = C14H12Cl2N4Pt | MND = 4
 OpenBabel04212202103D

 33 36  0  0  1  0  0  0  0  0999 V2000
    3.8607    1.9885   12.0078 Pt  0  0  0  0  0  0  0  0  0  0  0  0
    4.7486    1.0927   10.1672 Cl  0  0  0  0  0  0  0  0  0  0  0  0
    3.3283   -0.0293   12.7759 Cl  0  0  0  0  0  0  0  0  0  0  0  0
    2.3903    3.9668   13.5106 N   0  0  0  0  0  0  0  0  0  0  0  0
    3.0927    2.8371   13.6243 N   0  0  2  0  0  0  0  0  0  0  0  0
    3.2474    2.5403   14.8533 N   0  0  0  0  0  2  0  0  0  0  0  0
    4.3061    3.8757   11.3401 N   0  0  0  0  0  0  0  0  0  0  0  0
    2.1385    4.5293   12.2106 C   0  0  0  0  0  0  0  0  0  0  0  0
    1.4940    5.4030   12.3139 H   0  0  0  0  0  0  0  0  0  0  0  0
    1.6323    3.7648   11.5992 H   0  0  0  0  0  0  0  0  0  0  0  0
    3.4511    4.8888   11.5509 C   0  0  1  0  0  3  0  0  0  0  0  0
    3.7551    6.1909   11.1944 C   0  0  0  0  0  0  0  0  0  0  0  0
    3.0455    6.9818   11.3820 H   0  0  0  0  0  0  0  0  0  0  0  0
    4.9717    6.4593   10.5833 C   0  0  0  0  0  0  0  0  0  0  0  0
    5.2270    7.4656   10.2911 H   0  0  0  0  0  0  0  0  0  0  0  0
    5.8432    5.4044   10.3574 C   0  0  0  0  0  0  0  0  0  0  0  0
    6.7966    5.5631    9.8809 H   0  0  0  0  0  0  0  0  0  0  0  0
    5.4767    4.1313   10.7523 C   0  0  0  0  0  0  0  0  0  0  0  0
    6.1155    3.2754   10.5815 H   0  0  0  0  0  0  0  0  0  0  0  0
    2.6376    3.4802   15.6113 C   0  0  0  0  0  0  0  0  0  0  0  0
    2.0848    4.4135   14.7474 C   0  0  0  0  0  0  0  0  0  0  0  0
    1.5161    5.3031   14.9132 H   0  0  0  0  0  0  0  0  0  0  0  0
    2.6287    3.4115   17.0622 C   0  0  0  0  0  0  0  0  0  0  0  0
    3.1875    2.2992   17.6904 C   0  0  0  0  0  0  0  0  0  0  0  0
    3.6112    1.5189   17.0782 H   0  0  0  0  0  0  0  0  0  0  0  0
    3.1874    2.2098   19.0687 C   0  0  0  0  0  0  0  0  0  0  0  0
    3.6202    1.3460   19.5504 H   0  0  0  0  0  0  0  0  0  0  0  0
    2.6325    3.2242   19.8329 C   0  0  0  0  0  0  0  0  0  0  0  0
    2.6319    3.1527   20.9104 H   0  0  0  0  0  0  0  0  0  0  0  0
    2.0766    4.3318   19.2135 C   0  0  0  0  0  0  0  0  0  0  0  0
    1.6442    5.1232   19.8080 H   0  0  0  0  0  0  0  0  0  0  0  0
    2.0727    4.4292   17.8348 C   0  0  0  0  0  0  0  0  0  0  0  0
    1.6397    5.2967   17.3592 H   0  0  0  0  0  0  0  0  0  0  0  0
  1  3  1  0  0  0  0
  1  5  1  0  0  0  0
  2  1  1  0  0  0  0
  4  5  1  0  0  0  0
  4 21  1  0  0  0  0
  5  6  1  1  0  0  0
  6 20  1  0  0  0  0
  7 11  1  0  0  0  0
  7  1  1  0  0  0  0
  8  9  1  0  0  0  0
  8  4  1  0  0  0  0
 10  8  1  0  0  0  0
 11 12  1  1  0  0  0
 11  8  1  0  0  0  0
 12 13  1  0  0  0  0
 14 12  2  0  0  0  0
 15 14  1  0  0  0  0
 16 14  1  0  0  0  0
 16 18  2  0  0  0  0
 17 16  1  0  0  0  0
 18  7  1  0  0  0  0
 19 18  1  0  0  0  0
 20 23  1  0  0  0  0
 21 22  1  0  0  0  0
 21 20  2  0  0  0  0
 23 24  2  0  0  0  0
 23 32  1  0  0  0  0
 24 26  1  0  0  0  0
 25 24  1  0  0  0  0
 26 27  1  0  0  0  0
 26 28  2  0  0  0  0
 28 29  1  0  0  0  0
 30 31  1  0  0  0  0
 30 28  1  0  0  0  0
 32 30  2  0  0  0  0
 33 32  1  0  0  0  0
M  END
$$$$
