CSD_code = UKEBES | q = 0 | S = 0 | Stoichiometry = C14H23AuClN3O2 | MND = 2
 OpenBabel04212202103D

 44 44  0  0  1  0  0  0  0  0999 V2000
    4.4734    2.7094   10.0714 C   0  0  2  0  0  3  0  0  0  0  0  0
    6.0874    4.1828   10.2514 C   0  0  0  0  0  0  0  0  0  0  0  0
    7.0473    4.6443   10.1541 H   0  0  0  0  0  0  0  0  0  0  0  0
    6.6251    2.0548    9.0541 C   0  0  0  0  0  0  0  0  0  0  0  0
    7.2664    2.5921    8.3492 H   0  0  0  0  0  0  0  0  0  0  0  0
    6.0076    1.3372    8.5119 H   0  0  0  0  0  0  0  0  0  0  0  0
    7.5204    1.3437   10.0825 C   0  0  0  0  0  0  0  0  0  0  0  0
    8.0899    0.0009    9.6646 C   0  0  0  0  0  0  0  0  0  0  0  0
    9.3118   -0.3110   10.5328 C   0  0  0  0  0  0  0  0  0  0  0  0
   10.1160    0.3908   10.3234 H   0  0  0  0  0  0  0  0  0  0  0  0
    9.6669   -1.3182   10.3336 H   0  0  0  0  0  0  0  0  0  0  0  0
    9.0558   -0.2307   11.5857 H   0  0  0  0  0  0  0  0  0  0  0  0
    8.4771   -0.0411    8.1854 C   0  0  0  0  0  0  0  0  0  0  0  0
    7.6130    0.0525    7.5337 H   0  0  0  0  0  0  0  0  0  0  0  0
    8.9520   -0.9952    7.9702 H   0  0  0  0  0  0  0  0  0  0  0  0
    9.1864    0.7489    7.9474 H   0  0  0  0  0  0  0  0  0  0  0  0
    6.9808   -1.0260    9.9534 C   0  0  0  0  0  0  0  0  0  0  0  0
    6.7023   -1.0004   11.0043 H   0  0  0  0  0  0  0  0  0  0  0  0
    7.3444   -2.0231    9.7182 H   0  0  0  0  0  0  0  0  0  0  0  0
    6.0892   -0.8391    9.3591 H   0  0  0  0  0  0  0  0  0  0  0  0
    2.7880    4.0438   11.2650 C   0  0  0  0  0  0  0  0  0  0  0  0
    2.8233    4.9920   11.8060 H   0  0  0  0  0  0  0  0  0  0  0  0
    2.4728    3.2444   11.9386 H   0  0  0  0  0  0  0  0  0  0  0  0
    1.8040    4.1586   10.0880 C   0  0  0  0  0  0  0  0  0  0  0  0
    0.3280    4.1268   10.4427 C   0  0  0  0  0  0  0  0  0  0  0  0
   -0.0286    2.6526   10.6985 C   0  0  0  0  0  0  0  0  0  0  0  0
    0.2837    2.0258    9.8663 H   0  0  0  0  0  0  0  0  0  0  0  0
   -1.1056    2.5580   10.8122 H   0  0  0  0  0  0  0  0  0  0  0  0
    0.4425    2.2774   11.6039 H   0  0  0  0  0  0  0  0  0  0  0  0
   -0.4737    4.6407    9.2446 C   0  0  0  0  0  0  0  0  0  0  0  0
   -0.2266    5.6796    9.0388 H   0  0  0  0  0  0  0  0  0  0  0  0
   -1.5391    4.5669    9.4448 H   0  0  0  0  0  0  0  0  0  0  0  0
   -0.2412    4.0538    8.3605 H   0  0  0  0  0  0  0  0  0  0  0  0
    0.0154    4.9682   11.6825 C   0  0  0  0  0  0  0  0  0  0  0  0
    0.4876    4.5662   12.5748 H   0  0  0  0  0  0  0  0  0  0  0  0
   -1.0594    4.9742   11.8475 H   0  0  0  0  0  0  0  0  0  0  0  0
    0.3413    5.9967   11.5432 H   0  0  0  0  0  0  0  0  0  0  0  0
    3.3736    1.1122    9.6377 Au  0  0  0  0  0  0  0  0  0  0  0  0
    2.1199   -0.6808    9.1576 Cl  0  0  0  0  0  0  0  0  0  0  0  0
    2.2200    4.2284    8.9629 O   0  0  0  0  0  0  0  0  0  0  0  0
    7.6971    1.8407   11.1632 O   0  0  0  0  0  0  0  0  0  0  0  0
    4.1047    3.7813   10.7708 N   0  0  0  0  0  0  0  0  0  0  0  0
    5.0819    4.6973   10.8809 N   0  0  0  0  0  0  0  0  0  0  0  0
    5.7550    2.9725    9.7261 N   0  0  0  0  0  0  0  0  0  0  0  0
  1 38  1  6  0  0  0
  1 42  1  0  0  0  0
  2 43  2  0  0  0  0
  3  2  1  0  0  0  0
  4 44  1  0  0  0  0
  4  7  1  0  0  0  0
  5  4  1  0  0  0  0
  6  4  1  0  0  0  0
  7 41  2  0  0  0  0
  8 17  1  0  0  0  0
  8  7  1  0  0  0  0
  8  9  1  0  0  0  0
  9 12  1  0  0  0  0
 10  9  1  0  0  0  0
 11  9  1  0  0  0  0
 13  8  1  0  0  0  0
 14 13  1  0  0  0  0
 15 13  1  0  0  0  0
 16 13  1  0  0  0  0
 17 18  1  0  0  0  0
 19 17  1  0  0  0  0
 20 17  1  0  0  0  0
 21 22  1  0  0  0  0
 21 23  1  0  0  0  0
 24 25  1  0  0  0  0
 24 21  1  0  0  0  0
 25 26  1  0  0  0  0
 25 34  1  0  0  0  0
 26 28  1  0  0  0  0
 26 29  1  0  0  0  0
 27 26  1  0  0  0  0
 30 32  1  0  0  0  0
 30 25  1  0  0  0  0
 31 30  1  0  0  0  0
 33 30  1  0  0  0  0
 34 36  1  0  0  0  0
 34 35  1  0  0  0  0
 37 34  1  0  0  0  0
 39 38  1  0  0  0  0
 40 24  2  0  0  0  0
 42 43  1  0  0  0  0
 42 21  1  0  0  0  0
 44  1  1  0  0  0  0
 44  2  1  0  0  0  0
M  END
$$$$
