CSD_code = UKEDUK | q = 0 | S = 0 | Stoichiometry = C12H32CrI2P4 | MND = 6
 OpenBabel04212202103D

 51 52  0  0  0  0  0  0  0  0999 V2000
    1.9250    1.3571    1.3357 I   0  0  0  0  0  0  0  0  0  0  0  0
    0.2737    0.2835   -3.5985 C   0  0  0  0  0  0  0  0  0  0  0  0
    0.9689    0.5385   -4.4003 H   0  0  0  0  0  0  0  0  0  0  0  0
   -0.5674    0.9808   -3.6048 H   0  0  0  0  0  0  0  0  0  0  0  0
   -0.1136   -0.7241   -3.7501 H   0  0  0  0  0  0  0  0  0  0  0  0
    0.0000    0.0000   -0.0000 Cr  0  0  0  0  0  0  0  0  0  0  0  0
    2.4395   -0.8929   -2.2002 C   0  0  0  0  0  0  0  0  0  0  0  0
    2.7359   -0.9479   -3.2539 H   0  0  0  0  0  0  0  0  0  0  0  0
    3.3066   -0.5731   -1.6072 H   0  0  0  0  0  0  0  0  0  0  0  0
    1.2457   -1.9507    0.0217 P   0  0  0  0  0  4  0  0  0  0  0  0
    1.9071   -2.2199   -1.6825 C   0  0  0  0  0  0  0  0  0  0  0  0
    1.0741   -2.5723   -2.3050 H   0  0  0  0  0  0  0  0  0  0  0  0
    2.6816   -2.9953   -1.6611 H   0  0  0  0  0  0  0  0  0  0  0  0
    1.1345    0.4010   -1.9856 P   0  0  0  0  0  4  0  0  0  0  0  0
    2.1428    1.8926   -2.3212 C   0  0  0  0  0  0  0  0  0  0  0  0
    2.7552    1.7124   -3.2073 H   0  0  0  0  0  0  0  0  0  0  0  0
    2.7860    2.1219   -1.4720 H   0  0  0  0  0  0  0  0  0  0  0  0
    1.4782    2.7389   -2.5038 H   0  0  0  0  0  0  0  0  0  0  0  0
    2.7839   -2.0890    1.0030 C   0  0  0  0  0  0  0  0  0  0  0  0
    3.2340   -3.0693    0.8351 H   0  0  0  0  0  0  0  0  0  0  0  0
    3.4864   -1.3030    0.7252 H   0  0  0  0  0  0  0  0  0  0  0  0
    2.5420   -1.9706    2.0615 H   0  0  0  0  0  0  0  0  0  0  0  0
    0.5537   -3.6129    0.3578 C   0  0  0  0  0  0  0  0  0  0  0  0
    1.2592   -4.3712    0.0118 H   0  0  0  0  0  0  0  0  0  0  0  0
    0.4078   -3.7190    1.4351 H   0  0  0  0  0  0  0  0  0  0  0  0
   -0.4016   -3.7435   -0.1505 H   0  0  0  0  0  0  0  0  0  0  0  0
   -1.9249   -1.3572   -1.3354 I   0  0  0  0  0  0  0  0  0  0  0  0
   -0.2737   -0.2835    3.5984 C   0  0  0  0  0  0  0  0  0  0  0  0
   -0.9689   -0.5384    4.4003 H   0  0  0  0  0  0  0  0  0  0  0  0
    0.5674   -0.9808    3.6048 H   0  0  0  0  0  0  0  0  0  0  0  0
    0.1136    0.7241    3.7501 H   0  0  0  0  0  0  0  0  0  0  0  0
   -2.4395    0.8929    2.2002 C   0  0  0  0  0  0  0  0  0  0  0  0
   -2.7359    0.9478    3.2539 H   0  0  0  0  0  0  0  0  0  0  0  0
   -3.3066    0.5731    1.6072 H   0  0  0  0  0  0  0  0  0  0  0  0
   -1.2457    1.9507   -0.0217 P   0  0  0  0  0  4  0  0  0  0  0  0
   -1.9071    2.2199    1.6825 C   0  0  0  0  0  0  0  0  0  0  0  0
   -1.0741    2.5723    2.3050 H   0  0  0  0  0  0  0  0  0  0  0  0
   -2.6816    2.9953    1.6611 H   0  0  0  0  0  0  0  0  0  0  0  0
   -1.1344   -0.4011    1.9856 P   0  0  0  0  0  4  0  0  0  0  0  0
   -2.1428   -1.8926    2.3212 C   0  0  0  0  0  0  0  0  0  0  0  0
   -2.7552   -1.7124    3.2072 H   0  0  0  0  0  0  0  0  0  0  0  0
   -2.7860   -2.1219    1.4719 H   0  0  0  0  0  0  0  0  0  0  0  0
   -1.4782   -2.7389    2.5038 H   0  0  0  0  0  0  0  0  0  0  0  0
   -2.7839    2.0890   -1.0031 C   0  0  0  0  0  0  0  0  0  0  0  0
   -3.2340    3.0693   -0.8351 H   0  0  0  0  0  0  0  0  0  0  0  0
   -3.4864    1.3030   -0.7252 H   0  0  0  0  0  0  0  0  0  0  0  0
   -2.5421    1.9706   -2.0615 H   0  0  0  0  0  0  0  0  0  0  0  0
   -0.5537    3.6129   -0.3578 C   0  0  0  0  0  0  0  0  0  0  0  0
   -1.2592    4.3712   -0.0118 H   0  0  0  0  0  0  0  0  0  0  0  0
   -0.4078    3.7190   -1.4351 H   0  0  0  0  0  0  0  0  0  0  0  0
    0.4016    3.7435    0.1505 H   0  0  0  0  0  0  0  0  0  0  0  0
  2 14  1  0  0  0  0
  3  2  1  0  0  0  0
  4  2  1  0  0  0  0
  5  2  1  0  0  0  0
  6 10  1  0  0  0  0
  6  1  1  0  0  0  0
  6 39  1  0  0  0  0
  7 14  1  0  0  0  0
  7 11  1  0  0  0  0
  7  9  1  0  0  0  0
  8  7  1  0  0  0  0
 10 23  1  0  0  0  0
 10 19  1  0  0  0  0
 11 13  1  0  0  0  0
 11 10  1  0  0  0  0
 12 11  1  0  0  0  0
 14  6  1  0  0  0  0
 15 14  1  0  0  0  0
 15 17  1  0  0  0  0
 16 15  1  0  0  0  0
 18 15  1  0  0  0  0
 19 22  1  0  0  0  0
 20 19  1  0  0  0  0
 21 19  1  0  0  0  0
 23 25  1  0  0  0  0
 24 23  1  0  0  0  0
 26 23  1  0  0  0  0
 27  6  1  0  0  0  0
 28 30  1  0  0  0  0
 28 31  1  0  0  0  0
 28 29  1  0  0  0  0
 32 33  1  0  0  0  0
 34 32  1  0  0  0  0
 35  6  1  0  0  0  0
 35 36  1  0  0  0  0
 36 32  1  0  0  0  0
 36 37  1  0  0  0  0
 38 36  1  0  0  0  0
 39 32  1  0  0  0  0
 39 40  1  0  0  0  0
 39 28  1  0  0  0  0
 40 43  1  0  0  0  0
 40 41  1  0  0  0  0
 42 40  1  0  0  0  0
 44 45  1  0  0  0  0
 44 46  1  0  0  0  0
 44 35  1  0  0  0  0
 47 44  1  0  0  0  0
 48 35  1  0  0  0  0
 48 49  1  0  0  0  0
 48 51  1  0  0  0  0
 50 48  1  0  0  0  0
M  END
$$$$
