CSD_code = UKEKUS | q = 0 | S = 0 | Stoichiometry = C6H12Br2N4Pt | MND = 4
 OpenBabel04212202103D

 25 24  0  0  0  0  0  0  0  0999 V2000
   -1.4275    5.9075    4.3832 Pt  0  0  0  0  0  0  0  0  0  0  0  0
    0.5015    6.5515    3.0228 Br  0  0  0  0  0  0  0  0  0  0  0  0
   -0.6114    6.6677    5.9001 N   0  0  0  0  0  2  0  0  0  0  0  0
    0.4695    7.6322    7.8755 N   0  0  0  0  0  0  0  0  0  0  0  0
   -0.1066    7.1363    6.8318 C   0  0  0  0  0  2  0  0  0  0  0  0
   -0.2157    7.6751    9.1483 C   0  0  0  0  0  0  0  0  0  0  0  0
   -0.4395    8.7087    9.4270 H   0  0  0  0  0  0  0  0  0  0  0  0
    0.4170    7.2303    9.9196 H   0  0  0  0  0  0  0  0  0  0  0  0
   -1.1466    7.1153    9.0850 H   0  0  0  0  0  0  0  0  0  0  0  0
    1.7444    8.3060    7.7639 C   0  0  0  0  0  0  0  0  0  0  0  0
    2.1402    8.1814    6.7581 H   0  0  0  0  0  0  0  0  0  0  0  0
    2.4485    7.8778    8.4807 H   0  0  0  0  0  0  0  0  0  0  0  0
    1.6316    9.3734    7.9729 H   0  0  0  0  0  0  0  0  0  0  0  0
   -3.3564    5.2622    5.7429 Br  0  0  0  0  0  0  0  0  0  0  0  0
   -2.2436    5.1473    2.8663 N   0  0  0  0  0  2  0  0  0  0  0  0
   -3.3257    4.1846    0.8907 N   0  0  0  0  0  0  0  0  0  0  0  0
   -2.7488    4.6796    1.9343 C   0  0  0  0  0  2  0  0  0  0  0  0
   -2.6410    4.1419   -0.3823 C   0  0  0  0  0  0  0  0  0  0  0  0
   -2.4175    3.1082   -0.6614 H   0  0  0  0  0  0  0  0  0  0  0  0
   -3.2739    4.5869   -1.1533 H   0  0  0  0  0  0  0  0  0  0  0  0
   -1.7101    4.7015   -0.3193 H   0  0  0  0  0  0  0  0  0  0  0  0
   -4.6009    3.5113    1.0024 C   0  0  0  0  0  0  0  0  0  0  0  0
   -4.9964    3.6358    2.0083 H   0  0  0  0  0  0  0  0  0  0  0  0
   -5.3051    3.9398    0.2859 H   0  0  0  0  0  0  0  0  0  0  0  0
   -4.4887    2.4439    0.7931 H   0  0  0  0  0  0  0  0  0  0  0  0
  1 14  1  0  0  0  0
  1  3  1  0  0  0  0
  2  1  1  0  0  0  0
  3  5  1  0  0  0  0
  4  6  1  0  0  0  0
  5  4  1  0  0  0  0
  6  7  1  0  0  0  0
  6  8  1  0  0  0  0
  9  6  1  0  0  0  0
 10  4  1  0  0  0  0
 10 13  1  0  0  0  0
 10 12  1  0  0  0  0
 11 10  1  0  0  0  0
 15  1  1  0  0  0  0
 16 22  1  0  0  0  0
 16 17  1  0  0  0  0
 17 15  1  0  0  0  0
 18 21  1  0  0  0  0
 18 16  1  0  0  0  0
 19 18  1  0  0  0  0
 20 18  1  0  0  0  0
 22 23  1  0  0  0  0
 24 22  1  0  0  0  0
 25 22  1  0  0  0  0
M  END
$$$$
