CSD_code = UKELED | q = 0 | S = 0 | Stoichiometry = C10H20Cl2N4Pt | MND = 4
 OpenBabel04212202103D

 37 36  0  0  0  0  0  0  0  0999 V2000
   -2.8233    1.9695    5.2625 Pt  0  0  0  0  0  0  0  0  0  0  0  0
   -3.2448    0.3510    3.6644 Cl  0  0  0  0  0  0  0  0  0  0  0  0
   -1.1228    2.3290    4.5505 N   0  0  0  0  0  2  0  0  0  0  0  0
    1.1241    3.0959    3.9459 N   0  0  0  0  0  0  0  0  0  0  0  0
   -0.0606    2.6955    4.2689 C   0  0  0  0  0  2  0  0  0  0  0  0
    1.8202    2.4733    2.8318 C   0  0  0  0  0  0  0  0  0  0  0  0
    1.4754    1.4401    2.7430 H   0  0  0  0  0  0  0  0  0  0  0  0
    2.8886    2.4633    3.0661 H   0  0  0  0  0  0  0  0  0  0  0  0
    1.5646    3.2147    1.5226 C   0  0  0  0  0  0  0  0  0  0  0  0
    2.1046    2.7320    0.7128 H   0  0  0  0  0  0  0  0  0  0  0  0
    1.8945    4.2490    1.5904 H   0  0  0  0  0  0  0  0  0  0  0  0
    0.5029    3.2029    1.2883 H   0  0  0  0  0  0  0  0  0  0  0  0
    1.7423    4.1991    4.6729 C   0  0  0  0  0  0  0  0  0  0  0  0
    2.3345    3.7944    5.5043 H   0  0  0  0  0  0  0  0  0  0  0  0
    2.4216    4.7043    3.9807 H   0  0  0  0  0  0  0  0  0  0  0  0
    0.7088    5.1821    5.2027 C   0  0  0  0  0  0  0  0  0  0  0  0
    0.1295    5.6048    4.3849 H   0  0  0  0  0  0  0  0  0  0  0  0
    1.2100    5.9900    5.7287 H   0  0  0  0  0  0  0  0  0  0  0  0
    0.0209    4.6961    5.8918 H   0  0  0  0  0  0  0  0  0  0  0  0
   -2.4041    3.5881    6.8631 Cl  0  0  0  0  0  0  0  0  0  0  0  0
   -4.5231    1.6077    5.9756 N   0  0  0  0  0  2  0  0  0  0  0  0
   -6.7694    0.8365    6.5775 N   0  0  0  0  0  0  0  0  0  0  0  0
   -5.5849    1.2386    6.2558 C   0  0  0  0  0  2  0  0  0  0  0  0
   -7.4650    1.4528    7.6954 C   0  0  0  0  0  0  0  0  0  0  0  0
   -7.1221    2.4863    7.7883 H   0  0  0  0  0  0  0  0  0  0  0  0
   -8.5337    1.4619    7.4627 H   0  0  0  0  0  0  0  0  0  0  0  0
   -7.2063    0.7061    9.0010 C   0  0  0  0  0  0  0  0  0  0  0  0
   -7.7452    1.1844    9.8141 H   0  0  0  0  0  0  0  0  0  0  0  0
   -7.5348   -0.3283    8.9292 H   0  0  0  0  0  0  0  0  0  0  0  0
   -6.1440    0.7183    9.2330 H   0  0  0  0  0  0  0  0  0  0  0  0
   -7.3837   -0.2684    5.8497 C   0  0  0  0  0  0  0  0  0  0  0  0
   -7.9702    0.1341    5.0133 H   0  0  0  0  0  0  0  0  0  0  0  0
   -8.0677   -0.7711    6.5390 H   0  0  0  0  0  0  0  0  0  0  0  0
   -6.3471   -1.2533    5.3294 C   0  0  0  0  0  0  0  0  0  0  0  0
   -5.7720   -1.6723    6.1521 H   0  0  0  0  0  0  0  0  0  0  0  0
   -6.8452   -2.0637    4.8041 H   0  0  0  0  0  0  0  0  0  0  0  0
   -5.6559   -0.7698    4.6420 H   0  0  0  0  0  0  0  0  0  0  0  0
  1 21  1  0  0  0  0
  1 20  1  0  0  0  0
  2  1  1  0  0  0  0
  3  1  1  0  0  0  0
  4  5  1  0  0  0  0
  4 13  1  0  0  0  0
  5  3  1  0  0  0  0
  6  8  1  0  0  0  0
  6  4  1  0  0  0  0
  7  6  1  0  0  0  0
  9 11  1  0  0  0  0
  9  6  1  0  0  0  0
 10  9  1  0  0  0  0
 12  9  1  0  0  0  0
 13 16  1  0  0  0  0
 13 14  1  0  0  0  0
 15 13  1  0  0  0  0
 16 18  1  0  0  0  0
 16 19  1  0  0  0  0
 17 16  1  0  0  0  0
 21 23  1  0  0  0  0
 22 24  1  0  0  0  0
 23 22  1  0  0  0  0
 24 25  1  0  0  0  0
 24 27  1  0  0  0  0
 26 24  1  0  0  0  0
 27 30  1  0  0  0  0
 27 28  1  0  0  0  0
 29 27  1  0  0  0  0
 31 33  1  0  0  0  0
 31 22  1  0  0  0  0
 32 31  1  0  0  0  0
 34 31  1  0  0  0  0
 34 35  1  0  0  0  0
 36 34  1  0  0  0  0
 37 34  1  0  0  0  0
M  END
$$$$
