CSD_code = UKEXUE | q = 0 | S = 0 | Stoichiometry = C29H34ClIrN2O2 | MND = 6
 OpenBabel04212202103D

 69 71  0  0  1  0  0  0  0  0999 V2000
    1.2884    1.2622    3.1223 Ir  0  0  0  0  0  0  0  0  0  0  0  0
    1.5961   -0.9477    3.7247 Cl  0  0  0  0  0 15  0  0  0  0  0  0
    6.4844    2.3518    2.7156 O   0  0  0  0  0  0  0  0  0  0  0  0
    5.7866    2.0565    5.6650 O   0  0  0  0  0  0  0  0  0  0  0  0
    4.2249    1.8834    2.5712 N   0  0  0  0  0  0  0  0  0  0  0  0
    3.7232    1.6706    4.6939 N   0  0  0  0  0  0  0  0  0  0  0  0
    3.1885    1.6306    3.4307 C   0  0  0  0  0  3  0  0  0  0  0  0
    5.4234    2.0975    3.2289 C   0  0  0  0  0  0  0  0  0  0  0  0
    5.0747    1.9480    4.6974 C   0  0  0  0  0  0  0  0  0  0  0  0
    4.1304    1.9423    1.1490 C   0  0  0  0  0  0  0  0  0  0  0  0
    4.0293    0.7607    0.4149 C   0  0  0  0  0  0  0  0  0  0  0  0
    3.9352    0.8568   -0.9650 C   0  0  0  0  0  0  0  0  0  0  0  0
    3.8512   -0.0486   -1.5484 H   0  0  0  0  0  0  0  0  0  0  0  0
    3.9646    2.0826   -1.6160 C   0  0  0  0  0  0  0  0  0  0  0  0
    4.1074    3.2362   -0.8598 C   0  0  0  0  0  0  0  0  0  0  0  0
    4.1557    4.1956   -1.3542 H   0  0  0  0  0  0  0  0  0  0  0  0
    4.1977    3.1871    0.5238 C   0  0  0  0  0  0  0  0  0  0  0  0
    4.0567   -0.5689    1.0958 C   0  0  0  0  0  0  0  0  0  0  0  0
    4.9447   -0.6541    1.7211 H   0  0  0  0  0  0  0  0  0  0  0  0
    4.0672   -1.3728    0.3655 H   0  0  0  0  0  0  0  0  0  0  0  0
    3.1850   -0.6939    1.7379 H   0  0  0  0  0  0  0  0  0  0  0  0
    3.8454    2.1468   -3.1080 C   0  0  0  0  0  0  0  0  0  0  0  0
    4.4943    1.4092   -3.5755 H   0  0  0  0  0  0  0  0  0  0  0  0
    4.1102    3.1333   -3.4790 H   0  0  0  0  0  0  0  0  0  0  0  0
    2.8213    1.9288   -3.4112 H   0  0  0  0  0  0  0  0  0  0  0  0
    4.3793    4.4413    1.3241 C   0  0  0  0  0  0  0  0  0  0  0  0
    4.1709    5.3176    0.7160 H   0  0  0  0  0  0  0  0  0  0  0  0
    5.4088    4.5044    1.6764 H   0  0  0  0  0  0  0  0  0  0  0  0
    3.7250    4.4536    2.1953 H   0  0  0  0  0  0  0  0  0  0  0  0
    2.9854    1.3530    5.8764 C   0  0  0  0  0  0  0  0  0  0  0  0
    3.1455    0.0823    6.4399 C   0  0  0  0  0  0  0  0  0  0  0  0
    2.3761   -0.2447    7.5427 C   0  0  0  0  0  0  0  0  0  0  0  0
    2.4741   -1.2287    7.9771 H   0  0  0  0  0  0  0  0  0  0  0  0
    1.4805    0.6579    8.1034 C   0  0  0  0  0  0  0  0  0  0  0  0
    1.4059    1.9334    7.5719 C   0  0  0  0  0  0  0  0  0  0  0  0
    0.7558    2.6672    8.0277 H   0  0  0  0  0  0  0  0  0  0  0  0
    2.1643    2.3075    6.4684 C   0  0  0  0  0  0  0  0  0  0  0  0
    4.1366   -0.8886    5.8812 C   0  0  0  0  0  0  0  0  0  0  0  0
    4.1090   -1.8200    6.4396 H   0  0  0  0  0  0  0  0  0  0  0  0
    5.1431   -0.4762    5.9408 H   0  0  0  0  0  0  0  0  0  0  0  0
    3.9119   -1.1062    4.8385 H   0  0  0  0  0  0  0  0  0  0  0  0
    0.6447    0.2535    9.2793 C   0  0  0  0  0  0  0  0  0  0  0  0
    1.2813   -0.0573   10.1061 H   0  0  0  0  0  0  0  0  0  0  0  0
    0.0082   -0.5900    9.0161 H   0  0  0  0  0  0  0  0  0  0  0  0
    0.0156    1.0741    9.6140 H   0  0  0  0  0  0  0  0  0  0  0  0
    2.1278    3.7361    6.0139 C   0  0  0  0  0  0  0  0  0  0  0  0
    2.7755    3.9039    5.1585 H   0  0  0  0  0  0  0  0  0  0  0  0
    2.4691    4.3754    6.8278 H   0  0  0  0  0  0  0  0  0  0  0  0
    1.1142    4.0362    5.7589 H   0  0  0  0  0  0  0  0  0  0  0  0
    0.9194    2.7712    1.6337 C   0  0  2  0  0  0  0  0  0  0  0  0
    1.8368    3.0947    1.1520 H   0  0  0  0  0  0  0  0  0  0  0  0
    0.6325    3.3169    2.8919 C   0  0  0  0  0  3  0  0  0  0  0  0
    1.3640    4.0187    3.2819 H   0  0  0  0  0  0  0  0  0  0  0  0
   -0.7716    3.5584    3.4106 C   0  0  0  0  0  0  0  0  0  0  0  0
   -1.4262    3.7962    2.5713 H   0  0  0  0  0  0  0  0  0  0  0  0
   -0.7638    4.4351    4.0617 H   0  0  0  0  0  0  0  0  0  0  0  0
   -1.3243    2.3636    4.2086 C   0  0  0  0  0  0  0  0  0  0  0  0
   -1.0127    2.4580    5.2510 H   0  0  0  0  0  0  0  0  0  0  0  0
   -2.4193    2.3793    4.1962 H   0  0  0  0  0  0  0  0  0  0  0  0
   -0.8448    1.0251    3.7071 C   0  0  0  0  0  3  0  0  0  0  0  0
   -0.8148    0.2548    4.4734 H   0  0  0  0  0  0  0  0  0  0  0  0
   -0.7820    0.6391    2.3986 C   0  0  0  0  0  3  0  0  0  0  0  0
   -0.6627   -0.4191    2.1868 H   0  0  0  0  0  0  0  0  0  0  0  0
   -1.2459    1.4719    1.2316 C   0  0  0  0  0  0  0  0  0  0  0  0
   -2.0609    2.1229    1.5497 H   0  0  0  0  0  0  0  0  0  0  0  0
   -1.6449    0.8090    0.4616 H   0  0  0  0  0  0  0  0  0  0  0  0
   -0.0973    2.2951    0.6250 C   0  0  0  0  0  0  0  0  0  0  0  0
    0.4335    1.6826   -0.1071 H   0  0  0  0  0  0  0  0  0  0  0  0
   -0.4985    3.1621    0.0892 H   0  0  0  0  0  0  0  0  0  0  0  0
  1  7  1  0  0  0  0
  3  8  2  0  0  0  0
  5  8  1  0  0  0  0
  5  7  1  0  0  0  0
  6  9  1  0  0  0  0
  6 30  1  0  0  0  0
  7  6  1  0  0  0  0
  8  9  1  0  0  0  0
  9  4  2  0  0  0  0
 10  5  1  0  0  0  0
 11 18  1  0  0  0  0
 11 10  2  0  0  0  0
 12 11  1  0  0  0  0
 13 12  1  0  0  0  0
 14 12  2  0  0  0  0
 14 15  1  0  0  0  0
 15 17  2  0  0  0  0
 16 15  1  0  0  0  0
 17 10  1  0  0  0  0
 17 26  1  0  0  0  0
 18 19  1  0  0  0  0
 18 21  1  0  0  0  0
 20 18  1  0  0  0  0
 22 14  1  0  0  0  0
 23 22  1  0  0  0  0
 24 22  1  0  0  0  0
 25 22  1  0  0  0  0
 26 28  1  0  0  0  0
 26 29  1  0  0  0  0
 27 26  1  0  0  0  0
 30 31  2  0  0  0  0
 30 37  1  0  0  0  0
 31 32  1  0  0  0  0
 32 33  1  0  0  0  0
 32 34  2  0  0  0  0
 34 42  1  0  0  0  0
 35 36  1  0  0  0  0
 35 34  1  0  0  0  0
 37 35  2  0  0  0  0
 38 40  1  0  0  0  0
 38 39  1  0  0  0  0
 38 31  1  0  0  0  0
 41 38  1  0  0  0  0
 42 45  1  0  0  0  0
 42 43  1  0  0  0  0
 44 42  1  0  0  0  0
 46 37  1  0  0  0  0
 46 48  1  0  0  0  0
 47 46  1  0  0  0  0
 49 46  1  0  0  0  0
 50 51  1  6  0  0  0
 50 52  1  0  0  0  0
 50  1  1  0  0  0  0
 52 53  1  0  0  0  0
 52 54  1  0  0  0  0
 54 56  1  0  0  0  0
 54 57  1  0  0  0  0
 55 54  1  0  0  0  0
 57 58  1  0  0  0  0
 59 57  1  0  0  0  0
 60 57  1  0  0  0  0
 60 61  1  0  0  0  0
 62 60  1  0  0  0  0
 63 62  1  0  0  0  0
 64 65  1  0  0  0  0
 64 62  1  0  0  0  0
 66 64  1  0  0  0  0
 67 64  1  0  0  0  0
 67 50  1  0  0  0  0
 68 67  1  0  0  0  0
 69 67  1  0  0  0  0
M  END
$$$$
