CSD_code = UKEYEO | q = 0 | S = 0 | Stoichiometry = C17H30Cl2N2NiO2 | MND = 4
 OpenBabel04212202103D

 54 56  0  0  1  0  0  0  0  0999 V2000
    1.0000   17.8054    2.7710 Ni  0  0  0  0  0  0  0  0  0  0  0  0
    0.7723   18.1267    0.7391 Cl  0  0  0  0  0  0  0  0  0  0  0  0
    1.3922   17.9378    4.8003 Cl  0  0  0  0  0  0  0  0  0  0  0  0
    1.9113   16.0421    2.4082 N   0  0  1  0  0  0  0  0  0  0  0  0
   -0.8590   16.6492    3.3059 N   0  0  1  0  0  0  0  0  0  0  0  0
    2.1470   13.8752    2.0210 O   0  0  0  0  0  0  0  0  0  0  0  0
    1.4431   14.8696    2.5708 C   0  0  1  0  0  3  0  0  0  0  0  0
   -0.8866   15.3905    3.4484 C   0  0  2  0  0  3  0  0  0  0  0  0
    3.1243   15.9669    1.5935 C   0  0  1  0  0  0  0  0  0  0  0  0
    2.9055   16.4509    0.6336 H   0  0  0  0  0  0  0  0  0  0  0  0
   -2.1422   17.1941    3.7343 C   0  0  1  0  0  0  0  0  0  0  0  0
   -1.9632   17.6576    4.7152 H   0  0  0  0  0  0  0  0  0  0  0  0
   -2.0601   14.8551    3.8281 O   0  0  0  0  0  0  0  0  0  0  0  0
    0.7820   14.3216    4.8473 C   0  0  0  0  0  0  0  0  0  0  0  0
    1.1062   15.3010    5.1946 H   0  0  0  0  0  0  0  0  0  0  0  0
    1.6190   13.6294    4.8924 H   0  0  0  0  0  0  0  0  0  0  0  0
   -0.0135   13.9579    5.4925 H   0  0  0  0  0  0  0  0  0  0  0  0
    5.5819   16.4394    1.4186 C   0  0  0  0  0  0  0  0  0  0  0  0
    5.8997   15.4034    1.5036 H   0  0  0  0  0  0  0  0  0  0  0  0
    6.3914   17.0696    1.7781 H   0  0  0  0  0  0  0  0  0  0  0  0
    5.4157   16.6631    0.3672 H   0  0  0  0  0  0  0  0  0  0  0  0
    0.2651   14.4249    3.3940 C   0  0  0  0  0  0  0  0  0  0  0  0
   -0.2274   13.0598    2.9025 C   0  0  0  0  0  0  0  0  0  0  0  0
   -0.5636   13.1274    1.8707 H   0  0  0  0  0  0  0  0  0  0  0  0
   -1.0567   12.7278    3.5200 H   0  0  0  0  0  0  0  0  0  0  0  0
    0.5757   12.3311    2.9595 H   0  0  0  0  0  0  0  0  0  0  0  0
   -4.0615   18.7358    3.2662 C   0  0  0  0  0  0  0  0  0  0  0  0
   -4.7891   17.9366    3.1476 H   0  0  0  0  0  0  0  0  0  0  0  0
   -4.3937   19.5880    2.6785 H   0  0  0  0  0  0  0  0  0  0  0  0
   -4.0411   19.0295    4.3136 H   0  0  0  0  0  0  0  0  0  0  0  0
   -1.7057   19.4799    2.9081 C   0  0  0  0  0  0  0  0  0  0  0  0
   -1.8965   20.2121    2.1280 H   0  0  0  0  0  0  0  0  0  0  0  0
   -0.6593   19.1332    2.7976 H   0  0  0  0  0  0  0  0  0  0  0  0
   -1.7934   19.9629    3.8796 H   0  0  0  0  0  0  0  0  0  0  0  0
    4.3166   16.7158    2.2368 C   0  0  0  0  0  0  0  0  0  0  0  0
    3.3019   14.4450    1.4102 C   0  0  0  0  0  0  0  0  0  0  0  0
    3.3267   14.1419    0.3621 H   0  0  0  0  0  0  0  0  0  0  0  0
    4.1825   14.0478    1.9219 H   0  0  0  0  0  0  0  0  0  0  0  0
   -2.6719   18.2962    2.7966 C   0  0  0  0  0  0  0  0  0  0  0  0
    4.5128   16.2829    3.6903 C   0  0  0  0  0  0  0  0  0  0  0  0
    4.6416   15.2056    3.7738 H   0  0  0  0  0  0  0  0  0  0  0  0
    3.6545   16.5784    4.2897 H   0  0  0  0  0  0  0  0  0  0  0  0
    5.3979   16.7613    4.1017 H   0  0  0  0  0  0  0  0  0  0  0  0
    4.0220   18.2177    2.1828 C   0  0  0  0  0  0  0  0  0  0  0  0
    3.0383   18.4407    2.6396 H   0  0  0  0  0  0  0  0  0  0  0  0
    4.0071   18.5716    1.1540 H   0  0  0  0  0  0  0  0  0  0  0  0
    4.7733   18.7734    2.7379 H   0  0  0  0  0  0  0  0  0  0  0  0
   -3.0032   15.9235    3.9000 C   0  0  0  0  0  0  0  0  0  0  0  0
   -3.5151   15.8729    4.8613 H   0  0  0  0  0  0  0  0  0  0  0  0
   -3.7302   15.7915    3.0928 H   0  0  0  0  0  0  0  0  0  0  0  0
   -2.7330   17.8060    1.3505 C   0  0  0  0  0  0  0  0  0  0  0  0
   -3.3877   16.9430    1.2493 H   0  0  0  0  0  0  0  0  0  0  0  0
   -1.7393   17.5333    1.0036 H   0  0  0  0  0  0  0  0  0  0  0  0
   -3.1137   18.5956    0.7079 H   0  0  0  0  0  0  0  0  0  0  0  0
  1  3  1  0  0  0  0
  2  1  1  0  0  0  0
  4  7  1  0  0  0  0
  4  1  1  6  0  0  0
  5  1  1  1  0  0  0
  5  8  1  0  0  0  0
  5 11  1  0  0  0  0
  7  6  1  1  0  0  0
  7 22  1  0  0  0  0
  8 13  1  1  0  0  0
  9 10  1  6  0  0  0
  9 35  1  0  0  0  0
  9  4  1  0  0  0  0
 11 48  1  0  0  0  0
 11 12  1  1  0  0  0
 13 48  1  0  0  0  0
 14 16  1  0  0  0  0
 14 15  1  0  0  0  0
 14 17  1  0  0  0  0
 18 19  1  0  0  0  0
 18 20  1  0  0  0  0
 18 35  1  0  0  0  0
 21 18  1  0  0  0  0
 22  8  1  0  0  0  0
 22 14  1  0  0  0  0
 23 26  1  0  0  0  0
 23 22  1  0  0  0  0
 23 25  1  0  0  0  0
 24 23  1  0  0  0  0
 27 30  1  0  0  0  0
 28 27  1  0  0  0  0
 29 27  1  0  0  0  0
 31 34  1  0  0  0  0
 32 31  1  0  0  0  0
 33 31  1  0  0  0  0
 35 40  1  0  0  0  0
 36  9  1  0  0  0  0
 36 38  1  0  0  0  0
 36  6  1  0  0  0  0
 37 36  1  0  0  0  0
 39 31  1  0  0  0  0
 39 27  1  0  0  0  0
 39 11  1  0  0  0  0
 40 41  1  0  0  0  0
 40 43  1  0  0  0  0
 40 42  1  0  0  0  0
 44 35  1  0  0  0  0
 44 45  1  0  0  0  0
 44 47  1  0  0  0  0
 46 44  1  0  0  0  0
 48 49  1  0  0  0  0
 50 48  1  0  0  0  0
 51 39  1  0  0  0  0
 52 51  1  0  0  0  0
 53 51  1  0  0  0  0
 54 51  1  0  0  0  0
M  END
$$$$
