CSD_code = UKOHUZ | q = 1 | S = 0 | Stoichiometry = C29H27ClN5O2Os(1+) | MND = 6
 OpenBabel04212202103D

 65 71  0  0  1  0  0  0  0  0999 V2000
   11.3883    9.7935    3.1097 C   0  0  0  0  0  3  0  0  0  0  0  0
   11.9039    9.7474    2.1589 H   0  0  0  0  0  0  0  0  0  0  0  0
   12.0460    9.4211    4.2621 C   0  0  0  0  0  0  0  0  0  0  0  0
   13.0692    9.0811    4.2186 H   0  0  0  0  0  0  0  0  0  0  0  0
   11.3877    9.4948    5.4892 C   0  0  0  0  0  0  0  0  0  0  0  0
   10.0723    9.9418    5.4664 C   0  0  0  0  0  0  0  0  0  0  0  0
    9.5035   10.0276    6.3788 H   0  0  0  0  0  0  0  0  0  0  0  0
    9.4842   10.2930    4.2657 C   0  0  0  0  0  0  0  0  0  0  0  0
    8.4693   10.6669    4.2423 H   0  0  0  0  0  0  0  0  0  0  0  0
   12.0819    9.0745    6.7411 C   0  0  0  0  0  0  0  0  0  0  0  0
   13.1143    9.4239    6.7020 H   0  0  0  0  0  0  0  0  0  0  0  0
   11.5932    9.5059    7.6152 H   0  0  0  0  0  0  0  0  0  0  0  0
   12.0953    7.5409    6.8553 C   0  0  0  0  0  0  0  0  0  0  0  0
   12.3429    7.1129    5.8819 H   0  0  0  0  0  0  0  0  0  0  0  0
   11.1053    7.1858    7.1440 H   0  0  0  0  0  0  0  0  0  0  0  0
   13.1333    7.0667    7.8668 C   0  0  0  0  0  0  0  0  0  0  0  0
   13.0445    7.6024    8.8134 H   0  0  0  0  0  0  0  0  0  0  0  0
   13.0036    6.0045    8.0834 H   0  0  0  0  0  0  0  0  0  0  0  0
   14.5414    7.2499    7.3481 C   0  0  0  0  0  0  0  0  0  0  0  0
   11.3033    9.8518   -0.5275 C   0  0  0  0  0  3  0  0  0  0  0  0
   11.5584   10.9034   -0.5493 H   0  0  0  0  0  0  0  0  0  0  0  0
   12.0424    8.9382   -1.2470 C   0  0  0  0  0  0  0  0  0  0  0  0
   12.8755    9.2693   -1.8449 H   0  0  0  0  0  0  0  0  0  0  0  0
   11.6965    7.5911   -1.1815 C   0  0  0  0  0  0  0  0  0  0  0  0
   12.2581    6.8496   -1.7257 H   0  0  0  0  0  0  0  0  0  0  0  0
   10.6109    7.2287   -0.4086 C   0  0  0  0  0  0  0  0  0  0  0  0
   10.3103    6.1959   -0.3498 H   0  0  0  0  0  0  0  0  0  0  0  0
    9.8995    8.2035    0.2889 C   0  0  0  0  0  0  0  0  0  0  0  0
    8.7023    7.9424    1.0791 C   0  0  2  0  0  3  0  0  0  0  0  0
    8.1621    6.6784    1.3118 C   0  0  0  0  0  0  0  0  0  0  0  0
    8.6555    5.7984    0.9340 H   0  0  0  0  0  0  0  0  0  0  0  0
    6.9904    6.5611    2.0357 C   0  0  0  0  0  0  0  0  0  0  0  0
    6.5601    5.5909    2.2263 H   0  0  0  0  0  0  0  0  0  0  0  0
    6.3779    7.7168    2.5059 C   0  0  0  0  0  0  0  0  0  0  0  0
    5.4584    7.6714    3.0655 H   0  0  0  0  0  0  0  0  0  0  0  0
    6.9695    8.9383    2.2477 C   0  0  0  0  0  0  0  0  0  0  0  0
    6.5273    9.8640    2.5933 H   0  0  0  0  0  0  0  0  0  0  0  0
   11.1165   12.9806    1.7008 C   0  0  0  0  0  3  0  0  0  0  0  0
   11.5593   12.3068    2.4219 H   0  0  0  0  0  0  0  0  0  0  0  0
   11.5949   14.2688    1.5727 C   0  0  0  0  0  0  0  0  0  0  0  0
   12.4100   14.6045    2.1926 H   0  0  0  0  0  0  0  0  0  0  0  0
   10.9998   15.1171    0.6467 C   0  0  0  0  0  0  0  0  0  0  0  0
   11.3390   16.1335    0.5290 H   0  0  0  0  0  0  0  0  0  0  0  0
    9.9570   14.6290   -0.1162 C   0  0  0  0  0  0  0  0  0  0  0  0
    9.4717   15.2659   -0.8363 H   0  0  0  0  0  0  0  0  0  0  0  0
    9.5243   13.3161    0.0635 C   0  0  0  0  0  0  0  0  0  0  0  0
    8.4380   12.7007   -0.6922 C   0  0  1  0  0  3  0  0  0  0  0  0
    7.7234   13.3399   -1.7050 C   0  0  0  0  0  0  0  0  0  0  0  0
    7.9443   14.3621   -1.9623 H   0  0  0  0  0  0  0  0  0  0  0  0
    6.7213   12.6607   -2.3688 C   0  0  0  0  0  0  0  0  0  0  0  0
    6.1512   13.1439   -3.1457 H   0  0  0  0  0  0  0  0  0  0  0  0
    6.4629   11.3424   -2.0110 C   0  0  0  0  0  0  0  0  0  0  0  0
    5.6911   10.7729   -2.5021 H   0  0  0  0  0  0  0  0  0  0  0  0
    7.2059   10.7702   -0.9991 C   0  0  0  0  0  0  0  0  0  0  0  0
    7.0158    9.7493   -0.6937 H   0  0  0  0  0  0  0  0  0  0  0  0
    7.6345   12.1484    2.4736 Cl  0  0  0  0  0  0  0  0  0  0  0  0
   10.1206   10.2285    3.0923 N   0  0  0  0  0  0  0  0  0  0  0  0
   10.2574    9.5150    0.2377 N   0  0  0  0  0  0  0  0  0  0  0  0
    8.1076    9.0619    1.5635 N   0  0  0  0  0  0  0  0  0  0  0  0
   10.1037   12.4965    0.9776 N   0  0  0  0  0  0  0  0  0  0  0  0
    8.1685   11.4197   -0.3419 N   0  0  0  0  0  0  0  0  0  0  0  0
   14.8328    7.6699    6.2588 O   0  0  0  0  0  0  0  0  0  0  0  0
   15.4465    6.8791    8.2517 O   0  0  0  0  0  0  0  0  0  0  0  0
   16.3499    6.9857    7.9130 H   0  0  0  0  0  0  0  0  0  0  0  0
    9.1238   10.7727    1.2889 Os  0  0  0  0  0  0  0  0  0  0  0  0
  1  3  1  0  0  0  0
  2  1  1  0  0  0  0
  3  5  2  0  0  0  0
  4  3  1  0  0  0  0
  5 10  1  0  0  0  0
  6  5  1  0  0  0  0
  6  7  1  0  0  0  0
  8  6  2  0  0  0  0
  9  8  1  0  0  0  0
 10 13  1  0  0  0  0
 10 12  1  0  0  0  0
 11 10  1  0  0  0  0
 13 15  1  0  0  0  0
 13 16  1  0  0  0  0
 14 13  1  0  0  0  0
 16 18  1  0  0  0  0
 16 17  1  0  0  0  0
 19 16  1  0  0  0  0
 19 63  1  0  0  0  0
 20 58  1  0  0  0  0
 21 20  1  0  0  0  0
 22 24  2  0  0  0  0
 22 20  1  0  0  0  0
 23 22  1  0  0  0  0
 24 26  1  0  0  0  0
 25 24  1  0  0  0  0
 26 27  1  0  0  0  0
 26 28  2  0  0  0  0
 29 28  1  6  0  0  0
 29 30  1  0  0  0  0
 29 59  1  0  0  0  0
 30 32  2  0  0  0  0
 31 30  1  0  0  0  0
 32 33  1  0  0  0  0
 32 34  1  0  0  0  0
 34 35  1  0  0  0  0
 36 34  2  0  0  0  0
 36 37  1  0  0  0  0
 38 39  1  0  0  0  0
 40 38  1  0  0  0  0
 40 41  1  0  0  0  0
 42 40  2  0  0  0  0
 43 42  1  0  0  0  0
 44 46  2  0  0  0  0
 44 42  1  0  0  0  0
 45 44  1  0  0  0  0
 46 60  1  0  0  0  0
 47 48  1  6  0  0  0
 47 61  1  0  0  0  0
 47 46  1  0  0  0  0
 49 48  1  0  0  0  0
 50 52  1  0  0  0  0
 50 48  2  0  0  0  0
 51 50  1  0  0  0  0
 52 54  2  0  0  0  0
 53 52  1  0  0  0  0
 54 55  1  0  0  0  0
 54 61  1  0  0  0  0
 57  1  1  0  0  0  0
 57  8  1  0  0  0  0
 58 28  1  0  0  0  0
 58 65  1  0  0  0  0
 59 36  1  0  0  0  0
 60 65  1  0  0  0  0
 60 38  1  0  0  0  0
 61 65  1  0  0  0  0
 62 19  2  0  0  0  0
 64 63  1  0  0  0  0
 65 59  1  0  0  0  0
 65 56  1  0  0  0  0
 65 57  1  0  0  0  0
M  END
$$$$
