CSD_code = ULALIC | q = 0 | S = 0 | Stoichiometry = C31H32Cl2Zr | MND = 12
 OpenBabel04212202103D

 66 70  0  0  1  0  0  0  0  0999 V2000
    2.3069    2.5606   12.0658 Zr  0  0  0  0  0  0  0  0  0  0  0  0
    4.3189    2.5746   13.2918 Cl  0  0  0  0  0  0  0  0  0  0  0  0
    2.0576    0.2851   12.5748 Cl  0  0  0  0  0  0  0  0  0  0  0  0
    3.1130    3.7259   10.0776 C   0  0  0  0  0  0  0  0  0  0  0  0
    4.0662    2.7092   10.3030 C   0  0  0  0  0  0  0  0  0  0  0  0
    3.4490    1.4484   10.0334 C   0  0  0  0  0  0  0  0  0  0  0  0
    3.9566    0.1490   10.0741 C   0  0  0  0  0  0  0  0  0  0  0  0
    3.1105   -0.9041    9.6800 C   0  0  0  0  0  0  0  0  0  0  0  0
    3.5779   -2.2433    9.6446 C   0  0  0  0  0  0  0  0  0  0  0  0
    2.7727   -3.2762    9.2743 C   0  0  0  0  0  0  0  0  0  0  0  0
    1.4351   -3.0319    8.9158 C   0  0  0  0  0  0  0  0  0  0  0  0
    0.9448   -1.7622    8.9295 C   0  0  0  0  0  0  0  0  0  0  0  0
    1.7470   -0.6518    9.3016 C   0  0  0  0  0  0  0  0  0  0  0  0
    1.2196    0.6536    9.3089 C   0  0  0  0  0  0  0  0  0  0  0  0
    2.0627    1.7079    9.6709 C   0  0  0  0  0  0  0  0  0  0  0  0
    1.8619    3.1290    9.7461 C   0  0  1  0  0  0  0  0  0  0  0  0
    3.4247    5.1570   10.1664 C   0  0  0  0  0  0  0  0  0  0  0  0
    4.2299    5.6146   11.2132 C   0  0  0  0  0  0  0  0  0  0  0  0
    4.5566    6.9555   11.3025 C   0  0  0  0  0  0  0  0  0  0  0  0
    4.0880    7.8539   10.3560 C   0  0  0  0  0  0  0  0  0  0  0  0
    3.2940    7.4060    9.3134 C   0  0  0  0  0  0  0  0  0  0  0  0
    2.9642    6.0664    9.2160 C   0  0  0  0  0  0  0  0  0  0  0  0
    5.3553   -0.0957   10.5634 C   0  0  0  0  0  0  0  0  0  0  0  0
   -0.2068    0.9168    8.9092 C   0  0  0  0  0  0  0  0  0  0  0  0
    1.6902    4.3507   13.6342 C   0  0  0  0  0  0  0  0  0  0  0  0
    0.9134    4.6392   12.4768 C   0  0  0  0  0  0  0  0  0  0  0  0
    0.0066    3.5560   12.2763 C   0  0  0  0  0  0  0  0  0  0  0  0
    0.2058    2.6100   13.3184 C   0  0  0  0  0  0  0  0  0  0  0  0
    1.2561    3.0908   14.1525 C   0  0  1  0  0  0  0  0  0  0  0  0
    2.6522    5.2779   14.3255 C   0  0  0  0  0  0  0  0  0  0  0  0
    0.8011    5.9709   11.7873 C   0  0  0  0  0  0  0  0  0  0  0  0
   -1.1779    3.5512   11.3512 C   0  0  0  0  0  0  0  0  0  0  0  0
   -0.6743    1.4200   13.5773 C   0  0  0  0  0  0  0  0  0  0  0  0
    1.7604    2.4173   15.3992 C   0  0  0  0  0  0  0  0  0  0  0  0
    5.1225    2.8838   10.4590 H   0  0  0  0  0  0  0  0  0  0  0  0
    4.6030   -2.4423    9.9138 H   0  0  0  0  0  0  0  0  0  0  0  0
    3.1529   -4.2871    9.2551 H   0  0  0  0  0  0  0  0  0  0  0  0
    0.8010   -3.8589    8.6307 H   0  0  0  0  0  0  0  0  0  0  0  0
   -0.0843   -1.5941    8.6534 H   0  0  0  0  0  0  0  0  0  0  0  0
    1.0162    3.6712    9.3440 H   0  0  0  0  0  0  0  0  0  0  0  0
    4.5866    4.9112   11.9597 H   0  0  0  0  0  0  0  0  0  0  0  0
    5.1774    7.3036   12.1151 H   0  0  0  0  0  0  0  0  0  0  0  0
    4.3440    8.9002   10.4296 H   0  0  0  0  0  0  0  0  0  0  0  0
    2.9342    8.1031    8.5711 H   0  0  0  0  0  0  0  0  0  0  0  0
    2.3605    5.7151    8.3914 H   0  0  0  0  0  0  0  0  0  0  0  0
    6.0148   -0.3789    9.7424 H   0  0  0  0  0  0  0  0  0  0  0  0
    5.3613   -0.8956   11.3019 H   0  0  0  0  0  0  0  0  0  0  0  0
    5.7549    0.7971   11.0387 H   0  0  0  0  0  0  0  0  0  0  0  0
   -0.4069    0.5153    7.9163 H   0  0  0  0  0  0  0  0  0  0  0  0
   -0.4113    1.9833    8.8849 H   0  0  0  0  0  0  0  0  0  0  0  0
   -0.8972    0.4436    9.6089 H   0  0  0  0  0  0  0  0  0  0  0  0
    2.2338    5.6003   15.2809 H   0  0  0  0  0  0  0  0  0  0  0  0
    2.8404    6.1641   13.7234 H   0  0  0  0  0  0  0  0  0  0  0  0
    3.6052    4.7848   14.5242 H   0  0  0  0  0  0  0  0  0  0  0  0
   -0.0398    6.5274   12.2087 H   0  0  0  0  0  0  0  0  0  0  0  0
    0.6208    5.8625   10.7187 H   0  0  0  0  0  0  0  0  0  0  0  0
    1.6975    6.5720   11.9186 H   0  0  0  0  0  0  0  0  0  0  0  0
   -1.4055    2.5427   11.0091 H   0  0  0  0  0  0  0  0  0  0  0  0
   -1.0211    4.1949   10.4875 H   0  0  0  0  0  0  0  0  0  0  0  0
   -2.0577    3.9260   11.8804 H   0  0  0  0  0  0  0  0  0  0  0  0
   -0.2321    0.7680   14.3270 H   0  0  0  0  0  0  0  0  0  0  0  0
   -0.8287    0.8356   12.6685 H   0  0  0  0  0  0  0  0  0  0  0  0
   -1.6506    1.7517   13.9397 H   0  0  0  0  0  0  0  0  0  0  0  0
    1.9681    1.3608   15.2067 H   0  0  0  0  0  0  0  0  0  0  0  0
    1.0172    2.4800   16.1972 H   0  0  0  0  0  0  0  0  0  0  0  0
    2.6780    2.8899   15.7465 H   0  0  0  0  0  0  0  0  0  0  0  0
  1  3  1  0  0  0  0
  1  2  1  0  0  0  0
  1 29  1  0  0  0  0
  4 17  1  0  0  0  0
  4  5  2  0  0  0  0
  5 35  1  0  0  0  0
  6  7  1  0  0  0  0
  6  5  1  0  0  0  0
  7 23  1  0  0  0  0
  8  7  2  0  0  0  0
  9  8  1  0  0  0  0
  9 36  1  0  0  0  0
 10  9  2  0  0  0  0
 11 12  2  0  0  0  0
 11 10  1  0  0  0  0
 12 13  1  0  0  0  0
 13 14  2  0  0  0  0
 13  8  1  0  0  0  0
 14 15  1  0  0  0  0
 15 16  1  0  0  0  0
 15  6  2  0  0  0  0
 16 40  1  6  0  0  0
 16  4  1  0  0  0  0
 16  1  1  0  0  0  0
 17 18  1  0  0  0  0
 18 19  2  0  0  0  0
 18 41  1  0  0  0  0
 19 42  1  0  0  0  0
 20 43  1  0  0  0  0
 20 19  1  0  0  0  0
 21 20  2  0  0  0  0
 22 21  1  0  0  0  0
 22 17  2  0  0  0  0
 23 48  1  0  0  0  0
 23 47  1  0  0  0  0
 24 14  1  0  0  0  0
 24 51  1  0  0  0  0
 25 29  1  0  0  0  0
 25 30  1  0  0  0  0
 26 25  2  0  0  0  0
 27 26  1  0  0  0  0
 27 28  2  0  0  0  0
 28 33  1  0  0  0  0
 28 29  1  0  0  0  0
 29 34  1  1  0  0  0
 30 54  1  0  0  0  0
 30 52  1  0  0  0  0
 31 57  1  0  0  0  0
 31 55  1  0  0  0  0
 31 26  1  0  0  0  0
 32 60  1  0  0  0  0
 32 27  1  0  0  0  0
 33 63  1  0  0  0  0
 33 61  1  0  0  0  0
 34 66  1  0  0  0  0
 34 65  1  0  0  0  0
 37 10  1  0  0  0  0
 38 11  1  0  0  0  0
 39 12  1  0  0  0  0
 44 21  1  0  0  0  0
 45 22  1  0  0  0  0
 46 23  1  0  0  0  0
 49 24  1  0  0  0  0
 50 24  1  0  0  0  0
 53 30  1  0  0  0  0
 56 31  1  0  0  0  0
 58 32  1  0  0  0  0
 59 32  1  0  0  0  0
 62 33  1  0  0  0  0
 64 34  1  0  0  0  0
M  END
$$$$
