CSD_code = ULAPAZ | q = 0 | S = 0 | Stoichiometry = C26H26Cl2N4Zn | MND = 5
 OpenBabel04212202103D

 59 64  0  0  1  0  0  0  0  0999 V2000
    4.3580    2.5994   -1.0298 Zn  0  0  0  0  0  0  0  0  0  0  0  0
    4.1785    3.9597   -2.7804 Cl  0  0  0  0  0  0  0  0  0  0  0  0
    3.3885    0.7273   -0.1845 Cl  0  0  0  0  0  0  0  0  0  0  0  0
    3.6489    3.9634    0.5946 N   0  0  0  0  0  4  0  0  0  0  0  0
    3.8698    4.9274    0.3360 H   0  0  0  0  0  0  0  0  0  0  0  0
    4.3607    3.6775    1.8329 C   0  0  1  0  0  0  0  0  0  0  0  0
    3.9773    2.7346    2.2370 H   0  0  0  0  0  0  0  0  0  0  0  0
    5.8677    3.5056    1.5200 C   0  0  2  0  0  0  0  0  0  0  0  0
    6.2312    4.4576    1.1126 H   0  0  0  0  0  0  0  0  0  0  0  0
    5.9968    2.5016    0.4775 N   0  0  2  0  0  4  0  0  0  0  0  0
    5.7167    1.5944    0.8476 H   0  0  0  0  0  0  0  0  0  0  0  0
    2.1895    3.8833    0.7603 C   0  0  0  0  0  0  0  0  0  0  0  0
    1.9406    2.8553    1.0338 H   0  0  0  0  0  0  0  0  0  0  0  0
    1.8566    4.5598    1.5613 H   0  0  0  0  0  0  0  0  0  0  0  0
    1.5316    4.2476   -0.5406 C   0  0  0  0  0  0  0  0  0  0  0  0
    1.0059    3.2671   -1.3708 C   0  0  0  0  0  0  0  0  0  0  0  0
    1.0265    2.2331   -1.0584 H   0  0  0  0  0  0  0  0  0  0  0  0
    0.4544    3.6119   -2.5928 C   0  0  0  0  0  0  0  0  0  0  0  0
    0.0548    2.8424   -3.2372 H   0  0  0  0  0  0  0  0  0  0  0  0
    0.4266    4.9355   -2.9942 C   0  0  0  0  0  0  0  0  0  0  0  0
    0.0079    5.2018   -3.9537 H   0  0  0  0  0  0  0  0  0  0  0  0
    0.9438    5.9183   -2.1678 C   0  0  0  0  0  0  0  0  0  0  0  0
    0.9276    6.9522   -2.4804 H   0  0  0  0  0  0  0  0  0  0  0  0
    1.4930    5.5759   -0.9466 C   0  0  0  0  0  0  0  0  0  0  0  0
    1.9013    6.3437   -0.3029 H   0  0  0  0  0  0  0  0  0  0  0  0
    4.2115    4.7894    2.8450 C   0  0  0  0  0  0  0  0  0  0  0  0
    4.1945    6.0172    2.3412 N   0  0  0  0  0  0  0  0  0  0  0  0
    4.1063    7.0432    3.1676 C   0  0  0  0  0  0  0  0  0  0  0  0
    4.0907    8.0179    2.6976 H   0  0  0  0  0  0  0  0  0  0  0  0
    4.0395    6.9040    4.5449 C   0  0  0  0  0  0  0  0  0  0  0  0
    3.9719    7.7710    5.1827 H   0  0  0  0  0  0  0  0  0  0  0  0
    4.0580    5.6226    5.0738 C   0  0  0  0  0  0  0  0  0  0  0  0
    4.0043    5.4668    6.1412 H   0  0  0  0  0  0  0  0  0  0  0  0
    4.1427    4.5427    4.2113 C   0  0  0  0  0  0  0  0  0  0  0  0
    4.1570    3.5304    4.5841 H   0  0  0  0  0  0  0  0  0  0  0  0
    6.6198    3.1753    2.7884 C   0  0  0  0  0  0  0  0  0  0  0  0
    7.4117    4.1355    3.4041 C   0  0  0  0  0  0  0  0  0  0  0  0
    7.5031    5.1154    2.9572 H   0  0  0  0  0  0  0  0  0  0  0  0
    8.0746    3.8500    4.5846 C   0  0  0  0  0  0  0  0  0  0  0  0
    8.6849    4.6068    5.0543 H   0  0  0  0  0  0  0  0  0  0  0  0
    7.9562    2.5968    5.1606 C   0  0  0  0  0  0  0  0  0  0  0  0
    8.4741    2.3719    6.0808 H   0  0  0  0  0  0  0  0  0  0  0  0
    7.1691    1.6330    4.5533 C   0  0  0  0  0  0  0  0  0  0  0  0
    7.0703    0.6547    4.9997 H   0  0  0  0  0  0  0  0  0  0  0  0
    6.5015    1.9211    3.3764 C   0  0  0  0  0  0  0  0  0  0  0  0
    5.8785    1.1632    2.9216 H   0  0  0  0  0  0  0  0  0  0  0  0
    7.3124    2.3873   -0.1215 C   0  0  0  0  0  0  0  0  0  0  0  0
    8.0534    1.9445    0.5612 H   0  0  0  0  0  0  0  0  0  0  0  0
    7.6574    3.3949   -0.3840 H   0  0  0  0  0  0  0  0  0  0  0  0
    7.2359    1.5793   -1.3912 C   0  0  1  0  0  3  0  0  0  0  0  0
    6.0453    1.4881   -1.9681 N   0  0  0  0  0  0  0  0  0  0  0  0
    5.9178    0.8141   -3.1005 C   0  0  0  0  0  0  0  0  0  0  0  0
    4.9224    0.7834   -3.5201 H   0  0  0  0  0  0  0  0  0  0  0  0
    6.9865    0.1874   -3.7178 C   0  0  0  0  0  0  0  0  0  0  0  0
    6.8433   -0.3545   -4.6386 H   0  0  0  0  0  0  0  0  0  0  0  0
    8.2362    0.2764   -3.1242 C   0  0  0  0  0  0  0  0  0  0  0  0
    9.0961   -0.1975   -3.5740 H   0  0  0  0  0  0  0  0  0  0  0  0
    8.3645    0.9835   -1.9413 C   0  0  0  0  0  0  0  0  0  0  0  0
    9.3202    1.0765   -1.4482 H   0  0  0  0  0  0  0  0  0  0  0  0
  1  3  1  0  0  0  0
  1 10  1  0  0  0  0
  1  4  1  0  0  0  0
  2  1  1  0  0  0  0
  4 12  1  0  0  0  0
  4  6  1  0  0  0  0
  5  4  1  0  0  0  0
  6  7  1  1  0  0  0
  6 26  1  0  0  0  0
  8  9  1  6  0  0  0
  8  6  1  0  0  0  0
  8 36  1  0  0  0  0
 10 11  1  1  0  0  0
 10  8  1  0  0  0  0
 12 13  1  0  0  0  0
 12 14  1  0  0  0  0
 15 12  1  0  0  0  0
 16 17  1  0  0  0  0
 16 15  2  0  0  0  0
 18 16  1  0  0  0  0
 19 18  1  0  0  0  0
 20 18  2  0  0  0  0
 20 22  1  0  0  0  0
 21 20  1  0  0  0  0
 22 24  2  0  0  0  0
 23 22  1  0  0  0  0
 24 15  1  0  0  0  0
 24 25  1  0  0  0  0
 26 34  1  0  0  0  0
 27 26  2  0  0  0  0
 27 28  1  0  0  0  0
 28 30  2  0  0  0  0
 29 28  1  0  0  0  0
 30 32  1  0  0  0  0
 30 31  1  0  0  0  0
 32 33  1  0  0  0  0
 34 35  1  0  0  0  0
 34 32  2  0  0  0  0
 36 45  2  0  0  0  0
 36 37  1  0  0  0  0
 37 39  2  0  0  0  0
 38 37  1  0  0  0  0
 39 40  1  0  0  0  0
 39 41  1  0  0  0  0
 41 42  1  0  0  0  0
 43 44  1  0  0  0  0
 43 41  2  0  0  0  0
 45 43  1  0  0  0  0
 46 45  1  0  0  0  0
 47 10  1  0  0  0  0
 47 48  1  0  0  0  0
 49 47  1  0  0  0  0
 50 58  1  6  0  0  0
 50 47  1  0  0  0  0
 51 50  1  0  0  0  0
 51  1  1  0  0  0  0
 52 51  1  0  0  0  0
 53 52  1  0  0  0  0
 54 56  1  0  0  0  0
 54 52  2  0  0  0  0
 55 54  1  0  0  0  0
 56 58  2  0  0  0  0
 57 56  1  0  0  0  0
 58 59  1  0  0  0  0
M  END
$$$$
