CSD_code = ULAQUU | q = 0 | S = 0 | Stoichiometry = C13H19Br2CdN3O | MND = 5
 OpenBabel04212202103D

 39 41  0  0  1  0  0  0  0  0999 V2000
    0.2892    0.0811   13.6443 Cd  0  0  0  0  0  0  0  0  0  0  0  0
   -2.1154    0.0779   12.9340 Br  0  0  0  0  0  0  0  0  0  0  0  0
    1.7615    0.0979   15.7132 Br  0  0  0  0  0  0  0  0  0  0  0  0
    0.0206   -4.2907   13.9076 O   0  0  0  0  0  0  0  0  0  0  0  0
    0.4987    2.5044   13.3573 N   0  0  0  0  0  0  0  0  0  0  0  0
    2.2137    0.7152   12.3042 N   0  0  0  0  0  0  0  0  0  0  0  0
    1.2727   -2.0799   12.5630 N   0  0  0  0  0  0  0  0  0  0  0  0
   -0.4334    3.4076   13.6030 C   0  0  0  0  0  3  0  0  0  0  0  0
   -1.4013    3.0250   13.9057 H   0  0  0  0  0  0  0  0  0  0  0  0
   -0.2076    4.7716   13.4787 C   0  0  0  0  0  0  0  0  0  0  0  0
   -0.9944    5.4768   13.6925 H   0  0  0  0  0  0  0  0  0  0  0  0
    1.0458    5.1941   13.0688 C   0  0  0  0  0  0  0  0  0  0  0  0
    1.2609    6.2452   12.9461 H   0  0  0  0  0  0  0  0  0  0  0  0
    2.0256    4.2478   12.8148 C   0  0  0  0  0  0  0  0  0  0  0  0
    3.0013    4.5536   12.4718 H   0  0  0  0  0  0  0  0  0  0  0  0
    1.7162    2.8997   12.9782 C   0  0  0  0  0  0  0  0  0  0  0  0
    2.6932    1.8206   12.7169 C   0  0  1  0  0  3  0  0  0  0  0  0
    4.1453    2.0628   12.9764 C   0  0  0  0  0  0  0  0  0  0  0  0
    4.7265    1.9136   12.0658 H   0  0  0  0  0  0  0  0  0  0  0  0
    4.4875    1.3315   13.7109 H   0  0  0  0  0  0  0  0  0  0  0  0
    4.3323    3.0552   13.3714 H   0  0  0  0  0  0  0  0  0  0  0  0
    3.0568   -0.4152   12.0368 C   0  0  0  0  0  0  0  0  0  0  0  0
    3.6112   -0.6977   12.9415 H   0  0  0  0  0  0  0  0  0  0  0  0
    3.7947   -0.1678   11.2622 H   0  0  0  0  0  0  0  0  0  0  0  0
    2.1968   -1.5805   11.5428 C   0  0  0  0  0  0  0  0  0  0  0  0
    1.6017   -1.2204   10.6974 H   0  0  0  0  0  0  0  0  0  0  0  0
    2.8558   -2.3888   11.1858 H   0  0  0  0  0  0  0  0  0  0  0  0
    1.9797   -2.9141   13.5423 C   0  0  0  0  0  0  0  0  0  0  0  0
    2.7119   -2.3131   14.0837 H   0  0  0  0  0  0  0  0  0  0  0  0
    2.4986   -3.7407   13.0298 H   0  0  0  0  0  0  0  0  0  0  0  0
    0.9915   -3.5032   14.5492 C   0  0  0  0  0  0  0  0  0  0  0  0
    1.5131   -4.1553   15.2511 H   0  0  0  0  0  0  0  0  0  0  0  0
    0.5037   -2.6878   15.1119 H   0  0  0  0  0  0  0  0  0  0  0  0
   -0.6934   -3.5099   12.9810 C   0  0  0  0  0  0  0  0  0  0  0  0
   -1.2350   -2.7074   13.5075 H   0  0  0  0  0  0  0  0  0  0  0  0
   -1.4176   -4.1722   12.5046 H   0  0  0  0  0  0  0  0  0  0  0  0
    0.2372   -2.9059   11.9280 C   0  0  0  0  0  0  0  0  0  0  0  0
    0.7056   -3.7257   11.3593 H   0  0  0  0  0  0  0  0  0  0  0  0
   -0.3498   -2.2866   11.2449 H   0  0  0  0  0  0  0  0  0  0  0  0
  1  3  1  0  0  0  0
  2  1  1  0  0  0  0
  4 31  1  0  0  0  0
  5  8  1  0  0  0  0
  5  1  1  0  0  0  0
  6 17  1  0  0  0  0
  6  1  1  0  0  0  0
  7 28  1  0  0  0  0
  8  9  1  0  0  0  0
 10  8  1  0  0  0  0
 10 11  1  0  0  0  0
 12 10  2  0  0  0  0
 13 12  1  0  0  0  0
 14 16  2  0  0  0  0
 14 12  1  0  0  0  0
 15 14  1  0  0  0  0
 16  5  1  0  0  0  0
 17 18  1  1  0  0  0
 17 16  1  0  0  0  0
 18 21  1  0  0  0  0
 18 20  1  0  0  0  0
 19 18  1  0  0  0  0
 22  6  1  0  0  0  0
 22 23  1  0  0  0  0
 24 22  1  0  0  0  0
 25 22  1  0  0  0  0
 25  7  1  0  0  0  0
 26 25  1  0  0  0  0
 27 25  1  0  0  0  0
 28 29  1  0  0  0  0
 28 31  1  0  0  0  0
 30 28  1  0  0  0  0
 31 33  1  0  0  0  0
 31 32  1  0  0  0  0
 34 35  1  0  0  0  0
 34  4  1  0  0  0  0
 36 34  1  0  0  0  0
 37  7  1  0  0  0  0
 37 34  1  0  0  0  0
 38 37  1  0  0  0  0
 39 37  1  0  0  0  0
M  END
$$$$
