CSD_code = ULATEI | q = 0 | S = 0 | Stoichiometry = C17H38ClNOP2Ru | MND = 6
 OpenBabel04212202103D

 61 62  0  0  0  0  0  0  0  0999 V2000
    2.2874    4.0026    8.3048 Ru  0  0  0  0  0  0  0  0  0  0  0  0
    3.9225    4.8681    9.8289 Cl  0  0  0  0  0  0  0  0  0  0  0  0
    3.2528    5.2952    6.6828 P   0  0  0  0  0  4  0  0  0  0  0  0
    1.1230    3.2537   10.1257 P   0  0  0  0  0  4  0  0  0  0  0  0
    3.7344    1.4600    7.6926 O   0  0  0  0  0  1  0  0  0  0  0  0
    1.3151    5.8862    8.8201 N   0  0  0  0  0  4  0  0  0  0  0  0
    2.0411    6.2286    9.4695 H   0  0  0  0  0  0  0  0  0  0  0  0
    3.1724    2.4414    7.9268 C   0  0  0  0  0  2  0  0  0  0  0  0
    2.8730    5.0277    4.8789 C   0  0  0  0  0  0  0  0  0  0  0  0
    3.4873    5.7123    4.2832 H   0  0  0  0  0  0  0  0  0  0  0  0
    5.0766    5.6832    6.7590 C   0  0  0  0  0  0  0  0  0  0  0  0
    5.1725    6.1461    7.7517 H   0  0  0  0  0  0  0  0  0  0  0  0
    2.5652    6.9913    7.0350 C   0  0  0  0  0  0  0  0  0  0  0  0
    3.2673    7.4824    7.7185 H   0  0  0  0  0  0  0  0  0  0  0  0
    2.4803    7.5944    6.1283 H   0  0  0  0  0  0  0  0  0  0  0  0
    1.2105    6.8457    7.7224 C   0  0  0  0  0  0  0  0  0  0  0  0
    0.8695    7.8266    8.0954 H   0  0  0  0  0  0  0  0  0  0  0  0
    0.4632    6.4693    7.0157 H   0  0  0  0  0  0  0  0  0  0  0  0
    5.9191    4.4115    6.7733 C   0  0  0  0  0  0  0  0  0  0  0  0
    5.4863    3.6835    7.4595 H   0  0  0  0  0  0  0  0  0  0  0  0
    6.9299    4.6378    7.1094 H   0  0  0  0  0  0  0  0  0  0  0  0
    5.9844    3.9625    5.7847 H   0  0  0  0  0  0  0  0  0  0  0  0
   -0.2666    2.0257    9.9489 C   0  0  0  0  0  0  0  0  0  0  0  0
   -0.6440    1.7731   10.9462 H   0  0  0  0  0  0  0  0  0  0  0  0
    1.3988    5.2868    4.5886 C   0  0  0  0  0  0  0  0  0  0  0  0
    0.7856    4.6990    5.2709 H   0  0  0  0  0  0  0  0  0  0  0  0
    1.1633    4.9815    3.5702 H   0  0  0  0  0  0  0  0  0  0  0  0
    1.1432    6.3396    4.6901 H   0  0  0  0  0  0  0  0  0  0  0  0
    0.0699    5.7532    9.5738 C   0  0  0  0  0  0  0  0  0  0  0  0
   -0.6964    5.3666    8.8935 H   0  0  0  0  0  0  0  0  0  0  0  0
   -0.2644    6.7362    9.9472 H   0  0  0  0  0  0  0  0  0  0  0  0
    0.2746    4.7940   10.7433 C   0  0  0  0  0  0  0  0  0  0  0  0
   -0.6750    4.5680   11.2333 H   0  0  0  0  0  0  0  0  0  0  0  0
    0.9467    5.2545   11.4764 H   0  0  0  0  0  0  0  0  0  0  0  0
    2.0334    2.7625   11.6790 C   0  0  0  0  0  0  0  0  0  0  0  0
    2.5913    3.6790   11.9195 H   0  0  0  0  0  0  0  0  0  0  0  0
    3.2150    3.5786    4.5459 C   0  0  0  0  0  0  0  0  0  0  0  0
    4.2762    3.3797    4.6716 H   0  0  0  0  0  0  0  0  0  0  0  0
    2.9412    3.3455    3.5180 H   0  0  0  0  0  0  0  0  0  0  0  0
    2.6629    2.9181    5.2170 H   0  0  0  0  0  0  0  0  0  0  0  0
   -1.3999    2.6061    9.1104 C   0  0  0  0  0  0  0  0  0  0  0  0
   -1.9166    3.4120    9.6276 H   0  0  0  0  0  0  0  0  0  0  0  0
   -2.1295    1.8295    8.8865 H   0  0  0  0  0  0  0  0  0  0  0  0
   -0.9997    2.9797    8.1685 H   0  0  0  0  0  0  0  0  0  0  0  0
    5.5686    6.6656    5.7016 C   0  0  0  0  0  0  0  0  0  0  0  0
    5.6200    6.1921    4.7232 H   0  0  0  0  0  0  0  0  0  0  0  0
    6.5724    6.9999    5.9602 H   0  0  0  0  0  0  0  0  0  0  0  0
    4.9266    7.5421    5.6350 H   0  0  0  0  0  0  0  0  0  0  0  0
    3.0627    1.6707   11.4035 C   0  0  0  0  0  0  0  0  0  0  0  0
    2.5924    0.6993   11.2678 H   0  0  0  0  0  0  0  0  0  0  0  0
    3.7587    1.5964   12.2378 H   0  0  0  0  0  0  0  0  0  0  0  0
    3.6312    1.9111   10.5051 H   0  0  0  0  0  0  0  0  0  0  0  0
    0.2975    0.7854    9.2629 C   0  0  0  0  0  0  0  0  0  0  0  0
    0.7604    1.0784    8.3187 H   0  0  0  0  0  0  0  0  0  0  0  0
   -0.4936    0.0655    9.0587 H   0  0  0  0  0  0  0  0  0  0  0  0
    1.0528    0.2995    9.8751 H   0  0  0  0  0  0  0  0  0  0  0  0
    1.1382    2.4005   12.8591 C   0  0  0  0  0  0  0  0  0  0  0  0
    0.3536    3.1395   13.0112 H   0  0  0  0  0  0  0  0  0  0  0  0
    1.7392    2.3534   13.7661 H   0  0  0  0  0  0  0  0  0  0  0  0
    0.6794    1.4245   12.7154 H   0  0  0  0  0  0  0  0  0  0  0  0
    1.1280    3.6414    7.3730 H   0  0  0  0  0  0  0  0  0  0  0  0
  1  6  1  0  0  0  0
  1  2  1  0  0  0  0
  1  4  1  0  0  0  0
  3 11  1  0  0  0  0
  3 13  1  0  0  0  0
  3  1  1  0  0  0  0
  4 32  1  0  0  0  0
  4 35  1  0  0  0  0
  5  8  1  0  0  0  0
  6  7  1  0  0  0  0
  6 29  1  0  0  0  0
  8  1  1  0  0  0  0
  9  3  1  0  0  0  0
 10  9  1  0  0  0  0
 11 19  1  0  0  0  0
 11 12  1  0  0  0  0
 13 14  1  0  0  0  0
 13 16  1  0  0  0  0
 15 13  1  0  0  0  0
 16 17  1  0  0  0  0
 16  6  1  0  0  0  0
 18 16  1  0  0  0  0
 19 21  1  0  0  0  0
 19 20  1  0  0  0  0
 22 19  1  0  0  0  0
 23  4  1  0  0  0  0
 23 24  1  0  0  0  0
 25 28  1  0  0  0  0
 25  9  1  0  0  0  0
 25 26  1  0  0  0  0
 27 25  1  0  0  0  0
 29 31  1  0  0  0  0
 29 32  1  0  0  0  0
 30 29  1  0  0  0  0
 32 33  1  0  0  0  0
 32 34  1  0  0  0  0
 35 36  1  0  0  0  0
 35 57  1  0  0  0  0
 37 38  1  0  0  0  0
 37  9  1  0  0  0  0
 37 40  1  0  0  0  0
 39 37  1  0  0  0  0
 41 42  1  0  0  0  0
 41 23  1  0  0  0  0
 43 41  1  0  0  0  0
 44 41  1  0  0  0  0
 45 47  1  0  0  0  0
 45 11  1  0  0  0  0
 46 45  1  0  0  0  0
 48 45  1  0  0  0  0
 49 35  1  0  0  0  0
 49 51  1  0  0  0  0
 50 49  1  0  0  0  0
 52 49  1  0  0  0  0
 53 56  1  0  0  0  0
 53 23  1  0  0  0  0
 54 53  1  0  0  0  0
 55 53  1  0  0  0  0
 57 58  1  0  0  0  0
 57 59  1  0  0  0  0
 60 57  1  0  0  0  0
 61  1  1  0  0  0  0
M  END
$$$$
