CSD_code = ULAXIP | q = 0 | S = 0 | Stoichiometry = C12H12HgI2N2 | MND = 4
 OpenBabel04212202103D

 29 29  0  0  0  0  0  0  0  0999 V2000
    5.0724    6.0991    1.8842 C   0  0  0  0  0  0  0  0  0  0  0  0
    4.8262    7.1408    2.0993 H   0  0  0  0  0  0  0  0  0  0  0  0
    5.5166    5.6547    2.7768 H   0  0  0  0  0  0  0  0  0  0  0  0
    4.1551    5.5597    1.6609 H   0  0  0  0  0  0  0  0  0  0  0  0
    6.0341    6.0010    0.7465 C   0  0  0  0  0  0  0  0  0  0  0  0
    6.1182    4.8320   -0.0072 C   0  0  0  0  0  0  0  0  0  0  0  0
    5.4746    3.9986    0.2260 H   0  0  0  0  0  0  0  0  0  0  0  0
    7.0420    4.7560   -1.0309 C   0  0  0  0  0  0  0  0  0  0  0  0
    7.1459    3.8534   -1.6139 H   0  0  0  0  0  0  0  0  0  0  0  0
    7.8342    5.8594   -1.3002 C   0  0  0  0  0  0  0  0  0  0  0  0
    8.5769    5.8251   -2.0805 H   0  0  0  0  0  0  0  0  0  0  0  0
    7.6818    7.0018   -0.5210 C   0  0  0  0  0  0  0  0  0  0  0  0
    8.4921    8.2050   -0.7956 C   0  0  0  0  0  0  0  0  0  0  0  0
    8.8743    8.5123   -2.0975 C   0  0  0  0  0  0  0  0  0  0  0  0
    8.5446    7.9020   -2.9224 H   0  0  0  0  0  0  0  0  0  0  0  0
    9.6535    9.6357   -2.3178 C   0  0  0  0  0  0  0  0  0  0  0  0
    9.9565    9.9027   -3.3190 H   0  0  0  0  0  0  0  0  0  0  0  0
   10.0360   10.4047   -1.2364 C   0  0  0  0  0  0  0  0  0  0  0  0
   10.6523   11.2804   -1.3650 H   0  0  0  0  0  0  0  0  0  0  0  0
    9.5992   10.0493    0.0383 C   0  0  0  0  0  0  0  0  0  0  0  0
    9.9651   10.8829    1.2216 C   0  0  0  0  0  0  0  0  0  0  0  0
    9.9108   10.2995    2.1428 H   0  0  0  0  0  0  0  0  0  0  0  0
    9.2758   11.7252    1.3017 H   0  0  0  0  0  0  0  0  0  0  0  0
   10.9713   11.2807    1.1162 H   0  0  0  0  0  0  0  0  0  0  0  0
    6.8109    7.0508    0.4921 N   0  0  0  0  0  0  0  0  0  0  0  0
    8.8365    8.9780    0.2394 N   0  0  0  0  0  0  0  0  0  0  0  0
    8.5248    7.1282    3.8992 I   0  0  0  0  0  0  0  0  0  0  0  0
    5.8688   10.8615    1.7226 I   0  0  0  0  0  0  0  0  0  0  0  0
    7.3471    8.7589    2.2225 Hg  0  0  0  0  0  0  0  0  0  0  0  0
  1  2  1  0  0  0  0
  1  3  1  0  0  0  0
  4  1  1  0  0  0  0
  5  1  1  0  0  0  0
  6  7  1  0  0  0  0
  6  5  2  0  0  0  0
  8  6  1  0  0  0  0
  9  8  1  0  0  0  0
 10  8  2  0  0  0  0
 10 12  1  0  0  0  0
 11 10  1  0  0  0  0
 12 25  2  0  0  0  0
 13 12  1  0  0  0  0
 13 26  1  0  0  0  0
 14 13  2  0  0  0  0
 15 14  1  0  0  0  0
 16 14  1  0  0  0  0
 16 18  2  0  0  0  0
 17 16  1  0  0  0  0
 18 20  1  0  0  0  0
 19 18  1  0  0  0  0
 20 26  2  0  0  0  0
 20 21  1  0  0  0  0
 21 23  1  0  0  0  0
 21 22  1  0  0  0  0
 24 21  1  0  0  0  0
 25  5  1  0  0  0  0
 28 29  1  0  0  0  0
 29 27  1  0  0  0  0
M  END
$$$$
