CSD_code = ULIGUT | q = 0 | S = 0 | Stoichiometry = C24H24Cl2N4Ni | MND = 6
 OpenBabel04212202103D

 55 60  0  0  1  0  0  0  0  0999 V2000
    4.6305    4.3207    3.7804 C   0  0  0  0  0  3  0  0  0  0  0  0
    5.1159    4.5912    4.7101 H   0  0  0  0  0  0  0  0  0  0  0  0
    3.4000    4.8742    3.4347 C   0  0  0  0  0  0  0  0  0  0  0  0
    2.7354    5.8720    4.3253 C   0  0  0  0  0  0  0  0  0  0  0  0
    3.1897    6.8510    4.1726 H   0  0  0  0  0  0  0  0  0  0  0  0
    2.8687    5.6050    5.3714 H   0  0  0  0  0  0  0  0  0  0  0  0
    1.6730    5.9482    4.1049 H   0  0  0  0  0  0  0  0  0  0  0  0
    2.8419    4.4773    2.2256 C   0  0  0  0  0  0  0  0  0  0  0  0
    1.8914    4.8813    1.9070 H   0  0  0  0  0  0  0  0  0  0  0  0
    3.5178    3.5753    1.4227 C   0  0  0  0  0  0  0  0  0  0  0  0
    3.1124    3.2839    0.4666 H   0  0  0  0  0  0  0  0  0  0  0  0
    4.7518    3.0953    1.8463 C   0  0  0  0  0  0  0  0  0  0  0  0
    5.5937    2.2119    1.0293 C   0  0  1  0  0  3  0  0  0  0  0  0
    5.0737    1.3373    0.0778 C   0  0  0  0  0  0  0  0  0  0  0  0
    4.0063    1.2514   -0.0505 H   0  0  0  0  0  0  0  0  0  0  0  0
    5.9355    0.5767   -0.6872 C   0  0  0  0  0  0  0  0  0  0  0  0
    5.5495   -0.1008   -1.4354 H   0  0  0  0  0  0  0  0  0  0  0  0
    7.3077    0.6915   -0.4882 C   0  0  0  0  0  0  0  0  0  0  0  0
    8.2890   -0.0754   -1.3149 C   0  0  0  0  0  0  0  0  0  0  0  0
    9.2268   -0.2075   -0.7808 H   0  0  0  0  0  0  0  0  0  0  0  0
    8.4985    0.4687   -2.2363 H   0  0  0  0  0  0  0  0  0  0  0  0
    7.8897   -1.0507   -1.5845 H   0  0  0  0  0  0  0  0  0  0  0  0
    7.7356    1.5674    0.5025 C   0  0  0  0  0  0  0  0  0  0  0  0
    8.7921    1.6923    0.7039 H   0  0  0  0  0  0  0  0  0  0  0  0
    5.2940    3.4708    3.0149 N   0  0  0  0  0  0  0  0  0  0  0  0
    6.9148    2.3014    1.2351 N   0  0  0  0  0  0  0  0  0  0  0  0
    7.5304    3.6554    2.5386 Ni  0  0  0  0  0  0  0  0  0  0  0  0
    7.9443    5.1301    4.0002 Cl  0  0  0  0  0  0  0  0  0  0  0  0
   10.4304    4.3206    1.2968 C   0  0  0  0  0  3  0  0  0  0  0  0
    9.9450    4.5912    0.3672 H   0  0  0  0  0  0  0  0  0  0  0  0
   11.6609    4.8742    1.6426 C   0  0  0  0  0  0  0  0  0  0  0  0
   12.3254    5.8720    0.7520 C   0  0  0  0  0  0  0  0  0  0  0  0
   11.8711    6.8510    0.9046 H   0  0  0  0  0  0  0  0  0  0  0  0
   12.1922    5.6049   -0.2941 H   0  0  0  0  0  0  0  0  0  0  0  0
   13.3878    5.9483    0.9725 H   0  0  0  0  0  0  0  0  0  0  0  0
   12.2189    4.4773    2.8517 C   0  0  0  0  0  0  0  0  0  0  0  0
   13.1695    4.8813    3.1703 H   0  0  0  0  0  0  0  0  0  0  0  0
   11.5430    3.5754    3.6546 C   0  0  0  0  0  0  0  0  0  0  0  0
   11.9484    3.2839    4.6107 H   0  0  0  0  0  0  0  0  0  0  0  0
   10.3090    3.0953    3.2310 C   0  0  0  0  0  0  0  0  0  0  0  0
    9.4671    2.2119    4.0481 C   0  0  1  0  0  3  0  0  0  0  0  0
    9.9871    1.3374    4.9995 C   0  0  0  0  0  0  0  0  0  0  0  0
   11.0545    1.2514    5.1278 H   0  0  0  0  0  0  0  0  0  0  0  0
    9.1254    0.5767    5.7645 C   0  0  0  0  0  0  0  0  0  0  0  0
    9.5114   -0.1008    6.5127 H   0  0  0  0  0  0  0  0  0  0  0  0
    7.7532    0.6915    5.5655 C   0  0  0  0  0  0  0  0  0  0  0  0
    6.7718   -0.0754    6.3922 C   0  0  0  0  0  0  0  0  0  0  0  0
    5.8340   -0.2074    5.8582 H   0  0  0  0  0  0  0  0  0  0  0  0
    6.5626    0.4685    7.3137 H   0  0  0  0  0  0  0  0  0  0  0  0
    7.1711   -1.0508    6.6616 H   0  0  0  0  0  0  0  0  0  0  0  0
    7.3252    1.5674    4.5748 C   0  0  0  0  0  0  0  0  0  0  0  0
    6.2688    1.6923    4.3734 H   0  0  0  0  0  0  0  0  0  0  0  0
    9.7669    3.4708    2.0624 N   0  0  0  0  0  0  0  0  0  0  0  0
    8.1460    2.3014    3.8423 N   0  0  0  0  0  0  0  0  0  0  0  0
    7.1165    5.1300    1.0769 Cl  0  0  0  0  0  0  0  0  0  0  0  0
  1  2  1  0  0  0  0
  3  1  1  0  0  0  0
  3  4  1  0  0  0  0
  4  6  1  0  0  0  0
  5  4  1  0  0  0  0
  7  4  1  0  0  0  0
  8  3  2  0  0  0  0
  9  8  1  0  0  0  0
 10 12  2  0  0  0  0
 10  8  1  0  0  0  0
 11 10  1  0  0  0  0
 12 25  1  0  0  0  0
 13 14  1  6  0  0  0
 13 26  1  0  0  0  0
 13 12  1  0  0  0  0
 15 14  1  0  0  0  0
 16 18  1  0  0  0  0
 16 14  2  0  0  0  0
 17 16  1  0  0  0  0
 18 23  2  0  0  0  0
 19 20  1  0  0  0  0
 19 18  1  0  0  0  0
 21 19  1  0  0  0  0
 22 19  1  0  0  0  0
 23 24  1  0  0  0  0
 23 26  1  0  0  0  0
 25  1  1  0  0  0  0
 26 27  1  0  0  0  0
 27 25  1  0  0  0  0
 27 54  1  0  0  0  0
 27 28  1  0  0  0  0
 29 31  1  0  0  0  0
 29 53  1  0  0  0  0
 30 29  1  0  0  0  0
 31 36  2  0  0  0  0
 32 33  1  0  0  0  0
 32 35  1  0  0  0  0
 32 31  1  0  0  0  0
 34 32  1  0  0  0  0
 36 37  1  0  0  0  0
 36 38  1  0  0  0  0
 38 39  1  0  0  0  0
 40 38  2  0  0  0  0
 41 40  1  1  0  0  0
 41 42  1  0  0  0  0
 42 43  1  0  0  0  0
 42 44  2  0  0  0  0
 44 45  1  0  0  0  0
 46 44  1  0  0  0  0
 46 47  1  0  0  0  0
 47 50  1  0  0  0  0
 47 49  1  0  0  0  0
 48 47  1  0  0  0  0
 51 46  2  0  0  0  0
 52 51  1  0  0  0  0
 53 27  1  0  0  0  0
 53 40  1  0  0  0  0
 54 41  1  0  0  0  0
 54 51  1  0  0  0  0
 55 27  1  0  0  0  0
M  END
$$$$
