CSD_code = ULIVES | q = 0 | S = 0 | Stoichiometry = C17H13ClN2O2Pd | MND = 4
 OpenBabel04212202103D

 36 39  0  0  1  0  0  0  0  0999 V2000
    0.9581    2.1197    5.7012 Pd  0  0  0  0  0  0  0  0  0  0  0  0
    1.4583    3.5120    7.3953 Cl  0  0  0  0  0  0  0  0  0  0  0  0
    1.7925    3.4293    4.2446 O   0  0  0  0  0  0  0  0  0  0  0  0
    0.1468    0.7896    6.8835 O   0  0  0  0  0  0  0  0  0  0  0  0
    0.6061    1.0502    4.1148 N   0  0  0  0  0  0  0  0  0  0  0  0
    0.0310   -0.0885    4.0485 N   0  0  0  0  0  0  0  0  0  0  0  0
    1.0464    1.6231    2.9252 C   0  0  0  0  0  0  0  0  0  0  0  0
    1.6776    2.8861    2.9895 C   0  0  0  0  0  0  0  0  0  0  0  0
    2.1315    3.4909    1.8273 C   0  0  0  0  0  0  0  0  0  0  0  0
    1.9657    2.8552    0.6071 C   0  0  0  0  0  0  0  0  0  0  0  0
    1.3483    1.6164    0.5354 C   0  0  0  0  0  0  0  0  0  0  0  0
    0.8914    1.0037    1.6833 C   0  0  0  0  0  0  0  0  0  0  0  0
   -0.4354   -0.7532    5.1015 C   0  0  0  0  0  0  0  0  0  0  0  0
   -0.3653   -0.3072    6.4726 C   0  0  0  0  0  0  0  0  0  0  0  0
   -0.9183   -1.1690    7.4753 C   0  0  0  0  0  0  0  0  0  0  0  0
   -1.4931   -2.3561    7.1764 C   0  0  0  0  0  0  0  0  0  0  0  0
   -1.5826   -2.8218    5.8350 C   0  0  0  0  0  0  0  0  0  0  0  0
   -1.0548   -2.0234    4.7981 C   0  0  1  0  0  3  0  0  0  0  0  0
   -1.1482   -2.4908    3.4800 C   0  0  0  0  0  0  0  0  0  0  0  0
   -1.7400   -3.6985    3.1988 C   0  0  0  0  0  0  0  0  0  0  0  0
   -2.2617   -4.4865    4.2256 C   0  0  0  0  0  0  0  0  0  0  0  0
   -2.1825   -4.0518    5.5251 C   0  0  0  0  0  0  0  0  0  0  0  0
    2.4226    4.6933    4.4084 C   0  0  0  0  0  0  0  0  0  0  0  0
    2.6142    4.4539    1.8620 H   0  0  0  0  0  0  0  0  0  0  0  0
    2.3236    3.3357   -0.2899 H   0  0  0  0  0  0  0  0  0  0  0  0
    1.2244    1.1290   -0.4188 H   0  0  0  0  0  0  0  0  0  0  0  0
    0.4088    0.0404    1.6511 H   0  0  0  0  0  0  0  0  0  0  0  0
   -0.8489   -0.8105    8.4911 H   0  0  0  0  0  0  0  0  0  0  0  0
   -1.8987   -2.9759    7.9632 H   0  0  0  0  0  0  0  0  0  0  0  0
   -0.7459   -1.8815    2.6870 H   0  0  0  0  0  0  0  0  0  0  0  0
   -1.8036   -4.0428    2.1770 H   0  0  0  0  0  0  0  0  0  0  0  0
   -2.7252   -5.4338    3.9942 H   0  0  0  0  0  0  0  0  0  0  0  0
   -2.5823   -4.6518    6.3298 H   0  0  0  0  0  0  0  0  0  0  0  0
    2.3897    4.8893    5.4844 H   0  0  0  0  0  0  0  0  0  0  0  0
    3.4607    4.6548    4.0674 H   0  0  0  0  0  0  0  0  0  0  0  0
    1.8743    5.4712    3.8702 H   0  0  0  0  0  0  0  0  0  0  0  0
  1  4  1  0  0  0  0
  1  2  1  0  0  0  0
  3 23  1  0  0  0  0
  5  1  1  0  0  0  0
  6  5  1  0  0  0  0
  6 13  2  0  0  0  0
  7  8  1  0  0  0  0
  7  5  1  0  0  0  0
  8  3  1  0  0  0  0
  9 24  1  0  0  0  0
  9  8  2  0  0  0  0
 10  9  1  0  0  0  0
 11 10  2  0  0  0  0
 11 12  1  0  0  0  0
 12  7  2  0  0  0  0
 13 14  1  0  0  0  0
 14  4  1  0  0  0  0
 14 15  2  0  0  0  0
 15 28  1  0  0  0  0
 16 15  1  0  0  0  0
 16 29  1  0  0  0  0
 17 16  2  0  0  0  0
 18 19  1  6  0  0  0
 18 13  1  0  0  0  0
 18 17  1  0  0  0  0
 20 19  2  0  0  0  0
 20 21  1  0  0  0  0
 21 22  2  0  0  0  0
 22 17  1  0  0  0  0
 22 33  1  0  0  0  0
 23 34  1  0  0  0  0
 25 10  1  0  0  0  0
 26 11  1  0  0  0  0
 27 12  1  0  0  0  0
 30 19  1  0  0  0  0
 31 20  1  0  0  0  0
 32 21  1  0  0  0  0
 35 23  1  0  0  0  0
 36 23  1  0  0  0  0
M  END
$$$$
