CSD_code = ULOFUW | q = 0 | S = 0 | Stoichiometry = C20H35B10ClZr | MND = 12
 OpenBabel04212202103D

 67 73  0  0  1  0  0  0  0  0999 V2000
    5.5731    1.3066    4.7702 Zr  0  0  0  0  0  0  0  0  0  0  0  0
    3.2165    1.3966    4.8126 Cl  0  0  0  0  0  0  0  0  0  0  0  0
    5.7969    2.3593    6.7135 C   0  0  1  0  0  0  0  0  0  0  0  0
    6.2599    1.5044    8.0604 C   0  0  2  0  0  0  0  0  0  0  0  0
    4.6398    2.0306    7.9467 B   0  0  1  0  0  0  0  0  0  0  0  0
    3.8035    1.2366    7.7118 H   0  0  0  0  0  0  0  0  0  0  0  0
    4.6964    3.6127    7.1993 B   0  0  1  0  0  0  0  0  0  0  0  0
    3.8532    3.9106    6.4305 H   0  0  0  0  0  0  0  0  0  0  0  0
    6.3663    3.9971    6.8699 B   0  0  2  0  0  0  0  0  0  0  0  0
    6.6515    4.5741    5.8902 H   0  0  0  0  0  0  0  0  0  0  0  0
    7.3479    2.6296    7.3668 B   0  0  2  0  0  0  0  0  0  0  0  0
    8.2618    2.2168    6.7330 H   0  0  0  0  0  0  0  0  0  0  0  0
    5.5091    2.1207    9.4853 B   0  0  1  0  0  0  0  0  0  0  0  0
    5.2400    1.3749   10.3505 H   0  0  0  0  0  0  0  0  0  0  0  0
    4.5003    3.4776    8.9582 B   0  0  0  0  0  0  0  0  0  0  0  0
    3.4927    3.7444    9.5024 H   0  0  0  0  0  0  0  0  0  0  0  0
    5.5926    4.7108    8.2832 B   0  0  1  0  0  0  0  0  0  0  0  0
    5.3524    5.8616    8.3304 H   0  0  0  0  0  0  0  0  0  0  0  0
    7.2733    4.0871    8.3804 B   0  0  0  0  0  2  0  0  0  0  0  0
    8.2118    4.7865    8.5038 H   0  0  0  0  0  0  0  0  0  0  0  0
    7.1925    2.4841    9.1266 B   0  0  1  0  0  0  0  0  0  0  0  0
    8.0528    1.9829    9.7496 H   0  0  0  0  0  0  0  0  0  0  0  0
    6.1079    3.7708    9.6925 B   0  0  2  0  0  0  0  0  0  0  0  0
    6.2303    4.2414   10.7641 H   0  0  0  0  0  0  0  0  0  0  0  0
    6.5427   -0.0065    7.8730 C   0  0  0  0  0  0  0  0  0  0  0  0
    6.2425   -0.4087    6.4386 C   0  0  0  0  0  0  0  0  0  0  0  0
    4.9994   -0.8633    5.9400 C   0  0  0  0  0  3  0  0  0  0  0  0
    4.0867   -1.0004    6.5035 H   0  0  0  0  0  0  0  0  0  0  0  0
    5.1656   -1.2267    4.5878 C   0  0  0  0  0  0  0  0  0  0  0  0
    4.4112   -1.7021    3.9718 H   0  0  0  0  0  0  0  0  0  0  0  0
    6.5151   -1.0244    4.2471 C   0  0  0  0  0  0  0  0  0  0  0  0
    6.9943   -1.3750    3.3452 H   0  0  0  0  0  0  0  0  0  0  0  0
    7.1802   -0.4863    5.3715 C   0  0  0  0  0  0  0  0  0  0  0  0
    8.2516   -0.3520    5.4505 H   0  0  0  0  0  0  0  0  0  0  0  0
    8.0042   -0.3730    8.1977 C   0  0  0  0  0  0  0  0  0  0  0  0
    8.1929   -0.2691    9.2627 H   0  0  0  0  0  0  0  0  0  0  0  0
    8.7176    0.2514    7.6689 H   0  0  0  0  0  0  0  0  0  0  0  0
    8.1823   -1.4112    7.9230 H   0  0  0  0  0  0  0  0  0  0  0  0
    5.6798   -0.8762    8.8081 C   0  0  0  0  0  0  0  0  0  0  0  0
    4.6257   -0.6278    8.7416 H   0  0  0  0  0  0  0  0  0  0  0  0
    5.9933   -0.7517    9.8412 H   0  0  0  0  0  0  0  0  0  0  0  0
    5.8057   -1.9234    8.5387 H   0  0  0  0  0  0  0  0  0  0  0  0
    6.9828    2.8644    3.4501 C   0  0  0  0  0  0  0  0  0  0  0  0
    7.2285    1.6004    2.8312 C   0  0  0  0  0  0  0  0  0  0  0  0
    6.0271    1.1621    2.2185 C   0  0  0  0  0  0  0  0  0  0  0  0
    5.0327    2.1434    2.4569 C   0  0  0  0  0  0  0  0  0  0  0  0
    5.6083    3.1997    3.2160 C   0  0  1  0  0  0  0  0  0  0  0  0
    8.1072    3.7979    3.8254 C   0  0  0  0  0  0  0  0  0  0  0  0
    7.7480    4.8171    3.9396 H   0  0  0  0  0  0  0  0  0  0  0  0
    8.8477    3.8010    3.0230 H   0  0  0  0  0  0  0  0  0  0  0  0
    8.6175    3.5093    4.7457 H   0  0  0  0  0  0  0  0  0  0  0  0
    8.6105    1.0320    2.6532 C   0  0  0  0  0  0  0  0  0  0  0  0
    9.1976    1.1194    3.5685 H   0  0  0  0  0  0  0  0  0  0  0  0
    9.1398    1.5832    1.8713 H   0  0  0  0  0  0  0  0  0  0  0  0
    8.5895   -0.0141    2.3558 H   0  0  0  0  0  0  0  0  0  0  0  0
    5.8367    0.0106    1.2673 C   0  0  0  0  0  0  0  0  0  0  0  0
    6.7590   -0.5490    1.1267 H   0  0  0  0  0  0  0  0  0  0  0  0
    5.5338    0.3949    0.2913 H   0  0  0  0  0  0  0  0  0  0  0  0
    5.0567   -0.6763    1.6046 H   0  0  0  0  0  0  0  0  0  0  0  0
    3.6730    2.1505    1.8179 C   0  0  0  0  0  0  0  0  0  0  0  0
    3.7520    2.4862    0.7801 H   0  0  0  0  0  0  0  0  0  0  0  0
    2.9960    2.8218    2.3415 H   0  0  0  0  0  0  0  0  0  0  0  0
    3.2317    1.1533    1.8169 H   0  0  0  0  0  0  0  0  0  0  0  0
    4.9015    4.5006    3.4921 C   0  0  0  0  0  0  0  0  0  0  0  0
    5.5128    5.1762    4.0850 H   0  0  0  0  0  0  0  0  0  0  0  0
    3.9637    4.3304    4.0267 H   0  0  0  0  0  0  0  0  0  0  0  0
    4.6632    4.9985    2.5498 H   0  0  0  0  0  0  0  0  0  0  0  0
  1  2  1  0  0  0  0
  3  7  1  0  0  0  0
  3 11  1  0  0  0  0
  3  5  1  0  0  0  0
  3  4  1  0  0  0  0
  5  4  1  0  0  0  0
  6  5  1  0  0  0  0
  7  5  1  0  0  0  0
  8  7  1  0  0  0  0
  9  7  1  0  0  0  0
  9 11  1  0  0  0  0
  9 17  1  0  0  0  0
 10  9  1  0  0  0  0
 11  4  1  0  0  0  0
 12 11  1  0  0  0  0
 13 23  1  0  0  0  0
 13 14  1  0  0  0  0
 15 13  1  0  0  0  0
 15 16  1  0  0  0  0
 17 18  1  0  0  0  0
 17 15  1  0  0  0  0
 17 23  1  0  0  0  0
 19 20  1  0  0  0  0
 19 21  1  0  0  0  0
 21 13  1  0  0  0  0
 21 23  1  0  0  0  0
 21 22  1  0  0  0  0
 23 24  1  0  0  0  0
 25  4  1  0  0  0  0
 25 35  1  0  0  0  0
 25 39  1  0  0  0  0
 26 25  1  0  0  0  0
 27 26  1  0  0  0  0
 27 28  1  0  0  0  0
 29 27  1  0  0  0  0
 30 29  1  0  0  0  0
 31 29  2  0  0  0  0
 31 33  1  0  0  0  0
 32 31  1  0  0  0  0
 33 34  1  0  0  0  0
 33 26  2  0  0  0  0
 35 36  1  0  0  0  0
 37 35  1  0  0  0  0
 38 35  1  0  0  0  0
 39 41  1  0  0  0  0
 40 39  1  0  0  0  0
 42 39  1  0  0  0  0
 43 48  1  0  0  0  0
 44 43  2  0  0  0  0
 45 46  2  0  0  0  0
 45 44  1  0  0  0  0
 46 47  1  0  0  0  0
 47 43  1  0  0  0  0
 47 64  1  0  0  0  0
 47  1  1  0  0  0  0
 48 49  1  0  0  0  0
 48 51  1  0  0  0  0
 50 48  1  0  0  0  0
 52 44  1  0  0  0  0
 52 53  1  0  0  0  0
 54 52  1  0  0  0  0
 55 52  1  0  0  0  0
 56 59  1  0  0  0  0
 56 45  1  0  0  0  0
 57 56  1  0  0  0  0
 58 56  1  0  0  0  0
 60 62  1  0  0  0  0
 60 46  1  0  0  0  0
 61 60  1  0  0  0  0
 63 60  1  0  0  0  0
 64 66  1  0  0  0  0
 64 65  1  0  0  0  0
 67 64  1  0  0  0  0
M  END
$$$$
