CSD_code = ULOMOX | q = 1 | S = 0 | Stoichiometry = C28H26ClN4Ru(1+) | MND = 9
 OpenBabel04212202103D

 60 64  0  0  1  0  0  0  0  0999 V2000
    3.8220    6.4575    3.3722 Ru  0  0  0  0  0  0  0  0  0  0  0  0
    5.8273    5.5842    2.5830 Cl  0  0  0  0  0 15  0  0  0  0  0  0
    3.4444    6.9335    1.4984 N   0  0  0  0  0  0  0  0  0  0  0  0
    4.5488    8.2699    3.2683 N   0  0  0  0  0  0  0  0  0  0  0  0
    4.8423   11.0229    3.3339 N   0  0  0  0  0  0  0  0  0  0  0  0
    2.1415   10.8321    1.1376 N   0  0  0  0  0  0  0  0  0  0  0  0
    3.1443    6.0386    0.5633 C   0  0  0  0  0  3  0  0  0  0  0  0
    2.9490    6.3900   -0.7587 C   0  0  0  0  0  0  0  0  0  0  0  0
    3.1053    7.7211   -1.1269 C   0  0  0  0  0  0  0  0  0  0  0  0
    3.4426    8.6510   -0.1619 C   0  0  0  0  0  0  0  0  0  0  0  0
    3.5880    8.2351    1.1606 C   0  0  0  0  0  0  0  0  0  0  0  0
    4.0778    9.0344    2.2724 C   0  0  0  0  0  0  0  0  0  0  0  0
    4.1368   10.4560    2.3892 C   0  0  0  0  0  0  0  0  0  0  0  0
    3.2909   11.3437    1.5791 C   0  0  0  0  0  0  0  0  0  0  0  0
    3.6522   12.6743    1.3803 C   0  0  0  0  0  0  0  0  0  0  0  0
    2.7814   13.4941    0.6811 C   0  0  0  0  0  0  0  0  0  0  0  0
    1.5861   12.9633    0.2218 C   0  0  0  0  0  0  0  0  0  0  0  0
    1.3167   11.6255    0.4822 C   0  0  0  0  0  0  0  0  0  0  0  0
    5.5321   10.2541    4.1904 C   0  0  0  0  0  0  0  0  0  0  0  0
    6.3945   10.8411    5.1336 C   0  0  0  0  0  0  0  0  0  0  0  0
    7.0743   10.0540    6.0253 C   0  0  0  0  0  0  0  0  0  0  0  0
    6.9315    8.6581    6.0023 C   0  0  0  0  0  0  0  0  0  0  0  0
    6.0821    8.0535    5.1118 C   0  0  0  0  0  0  0  0  0  0  0  0
    5.3574    8.8358    4.1968 C   0  0  2  0  0  3  0  0  0  0  0  0
    4.9754    4.2224    5.9291 C   0  0  0  0  0  0  0  0  0  0  0  0
    3.8537    4.9760    5.2914 C   0  0  0  0  0  0  0  0  0  0  0  0
    3.1255    4.3845    4.2144 C   0  0  0  0  0  0  0  0  0  0  0  0
    2.0245    5.0328    3.6537 C   0  0  0  0  0  0  0  0  0  0  0  0
    1.6298    6.3321    4.0864 C   0  0  1  0  0  0  0  0  0  0  0  0
    2.3766    6.9260    5.1208 C   0  0  0  0  0  3  0  0  0  0  0  0
    3.4505    6.2376    5.7415 C   0  0  0  0  0  0  0  0  0  0  0  0
    0.3649    6.9564    3.5478 C   0  0  0  0  0  0  0  0  0  0  0  0
   -0.7727    6.6697    4.5366 C   0  0  0  0  0  0  0  0  0  0  0  0
   -0.8876    5.5998    4.6952 H   0  0  0  0  0  0  0  0  0  0  0  0
   -1.7075    7.0620    4.1466 H   0  0  0  0  0  0  0  0  0  0  0  0
   -0.5744    7.1417    5.4961 H   0  0  0  0  0  0  0  0  0  0  0  0
    0.4973    8.4590    3.2962 C   0  0  0  0  0  0  0  0  0  0  0  0
    1.3422    8.6824    2.6455 H   0  0  0  0  0  0  0  0  0  0  0  0
    0.6153    9.0100    4.2258 H   0  0  0  0  0  0  0  0  0  0  0  0
   -0.4030    8.8241    2.8098 H   0  0  0  0  0  0  0  0  0  0  0  0
    0.1228    6.4711    2.5951 H   0  0  0  0  0  0  0  0  0  0  0  0
    3.9263    6.6784    6.6103 H   0  0  0  0  0  0  0  0  0  0  0  0
    3.3828    3.3775    3.9016 H   0  0  0  0  0  0  0  0  0  0  0  0
    3.6138    9.6805   -0.4227 H   0  0  0  0  0  0  0  0  0  0  0  0
    2.9884    8.0223   -2.1555 H   0  0  0  0  0  0  0  0  0  0  0  0
    6.0174    6.9752    5.0404 H   0  0  0  0  0  0  0  0  0  0  0  0
    7.7427   10.5042    6.7426 H   0  0  0  0  0  0  0  0  0  0  0  0
    6.5079   11.9127    5.1158 H   0  0  0  0  0  0  0  0  0  0  0  0
    2.0611    7.8771    5.5344 H   0  0  0  0  0  0  0  0  0  0  0  0
    5.3816    4.7604    6.7820 H   0  0  0  0  0  0  0  0  0  0  0  0
    2.7028    5.6344   -1.4862 H   0  0  0  0  0  0  0  0  0  0  0  0
    3.0863    5.0055    0.8849 H   0  0  0  0  0  0  0  0  0  0  0  0
    3.0293   14.5293    0.5028 H   0  0  0  0  0  0  0  0  0  0  0  0
    1.4121    4.5172    2.9203 H   0  0  0  0  0  0  0  0  0  0  0  0
    4.6294    3.2440    6.2606 H   0  0  0  0  0  0  0  0  0  0  0  0
    7.5118    8.0562    6.6842 H   0  0  0  0  0  0  0  0  0  0  0  0
    5.7729    4.0595    5.2018 H   0  0  0  0  0  0  0  0  0  0  0  0
    0.3957   11.1633    0.1530 H   0  0  0  0  0  0  0  0  0  0  0  0
    0.8778   13.5683   -0.3207 H   0  0  0  0  0  0  0  0  0  0  0  0
    4.5898   13.0352    1.7692 H   0  0  0  0  0  0  0  0  0  0  0  0
  1 29  1  0  0  0  0
  3  1  1  0  0  0  0
  4  1  1  0  0  0  0
  4 24  1  0  0  0  0
  5 19  2  0  0  0  0
  6 14  1  0  0  0  0
  7 52  1  0  0  0  0
  7  3  1  0  0  0  0
  8  7  1  0  0  0  0
  9  8  2  0  0  0  0
  9 10  1  0  0  0  0
 10 11  2  0  0  0  0
 11  3  1  0  0  0  0
 11 12  1  0  0  0  0
 12 13  2  0  0  0  0
 12  4  1  0  0  0  0
 13  5  1  0  0  0  0
 14 13  1  0  0  0  0
 15 14  2  0  0  0  0
 15 60  1  0  0  0  0
 16 15  1  0  0  0  0
 17 18  1  0  0  0  0
 17 16  2  0  0  0  0
 18  6  2  0  0  0  0
 19 20  1  0  0  0  0
 20 21  2  0  0  0  0
 21 47  1  0  0  0  0
 22 21  1  0  0  0  0
 22 56  1  0  0  0  0
 23 22  2  0  0  0  0
 24 19  1  6  0  0  0
 24 23  1  0  0  0  0
 25 55  1  0  0  0  0
 25 50  1  0  0  0  0
 26 31  2  0  0  0  0
 26 25  1  0  0  0  0
 27 26  1  0  0  0  0
 28 29  1  0  0  0  0
 28 27  2  0  0  0  0
 29 32  1  6  0  0  0
 29 30  1  0  0  0  0
 30 49  1  0  0  0  0
 30 31  1  0  0  0  0
 31 42  1  0  0  0  0
 32 33  1  0  0  0  0
 33 34  1  0  0  0  0
 33 36  1  0  0  0  0
 35 33  1  0  0  0  0
 37 32  1  0  0  0  0
 37 39  1  0  0  0  0
 38 37  1  0  0  0  0
 40 37  1  0  0  0  0
 41 32  1  0  0  0  0
 43 27  1  0  0  0  0
 44 10  1  0  0  0  0
 45  9  1  0  0  0  0
 46 23  1  0  0  0  0
 48 20  1  0  0  0  0
 51  8  1  0  0  0  0
 53 16  1  0  0  0  0
 54 28  1  0  0  0  0
 57 25  1  0  0  0  0
 58 18  1  0  0  0  0
 59 17  1  0  0  0  0
M  END
$$$$
