CSD_code = ULONIS | q = 0 | S = 0 | Stoichiometry = C12H19Cl3OTi | MND = 9
 OpenBabel04212202103D

 36 36  0  0  1  0  0  0  0  0999 V2000
    2.3064    0.6920   10.8450 Ti  0  0  0  0  0  0  0  0  0  0  0  0
    2.9183    2.7894   10.9463 Cl  0  0  0  0  0  0  0  0  0  0  0  0
    4.4342    0.1099   11.0011 Cl  0  0  0  0  0  0  0  0  0  0  0  0
    1.9601   -0.2134   12.8132 Cl  0  0  0  0  0  0  0  0  0  0  0  0
    0.2772    1.8810   11.7074 O   0  0  0  0  0  0  0  0  0  0  0  0
    0.3702    0.2104    9.6623 C   0  0  0  0  0  0  0  0  0  0  0  0
    1.0563   -1.0167    9.8540 C   0  0  0  0  0  0  0  0  0  0  0  0
    2.2980   -0.9275    9.1693 C   0  0  0  0  0  0  0  0  0  0  0  0
    2.3937    0.3687    8.5803 C   0  0  0  0  0  0  0  0  0  0  0  0
    1.2030    1.0793    8.8956 C   0  0  2  0  0  0  0  0  0  0  0  0
   -0.9908    0.5650   10.1854 C   0  0  0  0  0  0  0  0  0  0  0  0
   -1.6645   -0.2929   10.1372 H   0  0  0  0  0  0  0  0  0  0  0  0
   -1.4113    1.3697    9.5792 H   0  0  0  0  0  0  0  0  0  0  0  0
   -0.8633    1.0357   11.6399 C   0  0  0  0  0  0  0  0  0  0  0  0
   -1.7578    1.5948   11.9510 H   0  0  0  0  0  0  0  0  0  0  0  0
   -0.7223    0.1785   12.3163 H   0  0  0  0  0  0  0  0  0  0  0  0
    0.3579    2.5690   12.9429 C   0  0  0  0  0  0  0  0  0  0  0  0
   -0.5223    3.2094   13.0767 H   0  0  0  0  0  0  0  0  0  0  0  0
    1.2562    3.1856   12.9021 H   0  0  0  0  0  0  0  0  0  0  0  0
    0.4284    1.8658   13.7806 H   0  0  0  0  0  0  0  0  0  0  0  0
    0.5329   -2.2603   10.5105 C   0  0  0  0  0  0  0  0  0  0  0  0
    0.4970   -3.0758    9.7858 H   0  0  0  0  0  0  0  0  0  0  0  0
   -0.4678   -2.1023   10.9066 H   0  0  0  0  0  0  0  0  0  0  0  0
    1.1801   -2.5667   11.3338 H   0  0  0  0  0  0  0  0  0  0  0  0
    3.2547   -2.0648    8.9889 C   0  0  0  0  0  0  0  0  0  0  0  0
    2.8940   -2.7279    8.1988 H   0  0  0  0  0  0  0  0  0  0  0  0
    3.3427   -2.6430    9.9084 H   0  0  0  0  0  0  0  0  0  0  0  0
    4.2425   -1.7041    8.7124 H   0  0  0  0  0  0  0  0  0  0  0  0
    3.5264    0.8441    7.7209 C   0  0  0  0  0  0  0  0  0  0  0  0
    3.4530    0.4072    6.7227 H   0  0  0  0  0  0  0  0  0  0  0  0
    4.4824    0.5502    8.1556 H   0  0  0  0  0  0  0  0  0  0  0  0
    3.5150    1.9286    7.6260 H   0  0  0  0  0  0  0  0  0  0  0  0
    0.8035    2.4364    8.3944 C   0  0  0  0  0  0  0  0  0  0  0  0
    0.1090    2.3389    7.5563 H   0  0  0  0  0  0  0  0  0  0  0  0
    1.6732    2.9948    8.0547 H   0  0  0  0  0  0  0  0  0  0  0  0
    0.3223    3.0127    9.1844 H   0  0  0  0  0  0  0  0  0  0  0  0
  1  2  1  0  0  0  0
  1  3  1  0  0  0  0
  1  4  1  0  0  0  0
  5 17  1  0  0  0  0
  6  7  2  0  0  0  0
  6 11  1  0  0  0  0
  7 21  1  0  0  0  0
  8  7  1  0  0  0  0
  9 10  1  0  0  0  0
  9  8  2  0  0  0  0
 10 33  1  6  0  0  0
 10  6  1  0  0  0  0
 10  1  1  0  0  0  0
 11 14  1  0  0  0  0
 12 11  1  0  0  0  0
 13 11  1  0  0  0  0
 14  5  1  0  0  0  0
 14 15  1  0  0  0  0
 14 16  1  0  0  0  0
 17 18  1  0  0  0  0
 17 20  1  0  0  0  0
 19 17  1  0  0  0  0
 21 23  1  0  0  0  0
 21 24  1  0  0  0  0
 22 21  1  0  0  0  0
 25  8  1  0  0  0  0
 25 27  1  0  0  0  0
 26 25  1  0  0  0  0
 28 25  1  0  0  0  0
 29 31  1  0  0  0  0
 29  9  1  0  0  0  0
 30 29  1  0  0  0  0
 32 29  1  0  0  0  0
 33 36  1  0  0  0  0
 34 33  1  0  0  0  0
 35 33  1  0  0  0  0
M  END
$$$$
