CSD_code = ULONOZ | q = 1 | S = 0 | Stoichiometry = C18H36Cl2CoN4O4(1+) | MND = 6
 OpenBabel04212202103D

 65 68  0  0  1  0  0  0  0  0999 V2000
    1.0820   -0.5839    3.4384 Co  0  0  0  0  0  0  0  0  0  0  0  0
    3.0065   -1.2998    4.1716 Cl  0  0  0  0  0  0  0  0  0  0  0  0
    0.3288   -1.6834    4.9001 N   0  0  1  0  0  4  0  0  0  0  0  0
    1.2183   -2.0392    5.2728 H   0  0  0  0  0  0  0  0  0  0  0  0
    4.6665    6.2934    5.3614 O   0  0  0  0  0  0  0  0  0  0  0  0
   -0.2662   -0.8499    5.9375 C   0  0  0  0  0  0  0  0  0  0  0  0
   -0.3499   -1.3774    6.8946 H   0  0  0  0  0  0  0  0  0  0  0  0
   -1.2729   -0.5442    5.6374 H   0  0  0  0  0  0  0  0  0  0  0  0
    2.1123    0.5452    1.9139 Cl  0  0  0  0  0  0  0  0  0  0  0  0
    4.9312    6.5551    7.5615 O   0  0  0  0  0  0  0  0  0  0  0  0
    5.5088    7.2927    7.3069 H   0  0  0  0  0  0  0  0  0  0  0  0
    0.9120    0.9910    4.7707 N   0  0  2  0  0  4  0  0  0  0  0  0
    0.6709    0.3510    6.0838 C   0  0  0  0  0  0  0  0  0  0  0  0
    0.2669    1.0732    6.7990 H   0  0  0  0  0  0  0  0  0  0  0  0
    1.6332   -0.0081    6.4542 H   0  0  0  0  0  0  0  0  0  0  0  0
   -0.6544    0.0742    2.7609 N   0  0  1  0  0  4  0  0  0  0  0  0
   -1.4340   -0.2986    3.3037 H   0  0  0  0  0  0  0  0  0  0  0  0
    3.9733   -6.5774   -2.7761 O   0  0  0  0  0  0  0  0  0  0  0  0
    4.5202   -6.5586   -3.5780 H   0  0  0  0  0  0  0  0  0  0  0  0
   -0.2666    1.8095    4.3717 C   0  0  0  0  0  0  0  0  0  0  0  0
   -1.1080    1.5697    5.0255 H   0  0  0  0  0  0  0  0  0  0  0  0
   -0.0470    2.8715    4.4879 H   0  0  0  0  0  0  0  0  0  0  0  0
    0.6827   -2.2218    2.2372 N   0  0  2  0  0  4  0  0  0  0  0  0
   -0.6572    1.5290    2.9233 C   0  0  0  0  0  0  0  0  0  0  0  0
   -1.6349    1.9664    2.6933 H   0  0  0  0  0  0  0  0  0  0  0  0
    0.0883    1.9435    2.2429 H   0  0  0  0  0  0  0  0  0  0  0  0
    4.0028   -4.3546   -2.9709 O   0  0  0  0  0  0  0  0  0  0  0  0
   -0.7954   -0.4170    1.3891 C   0  0  0  0  0  0  0  0  0  0  0  0
   -0.0424    0.0806    0.7760 H   0  0  0  0  0  0  0  0  0  0  0  0
   -1.7887   -0.2073    0.9773 H   0  0  0  0  0  0  0  0  0  0  0  0
   -0.5341   -1.9199    1.4333 C   0  0  0  0  0  0  0  0  0  0  0  0
   -0.4202   -2.2980    0.4167 H   0  0  0  0  0  0  0  0  0  0  0  0
   -1.3940   -2.4226    1.8814 H   0  0  0  0  0  0  0  0  0  0  0  0
   -0.4049   -2.8300    4.3786 C   0  0  0  0  0  0  0  0  0  0  0  0
   -1.4126   -2.5237    4.0828 H   0  0  0  0  0  0  0  0  0  0  0  0
   -0.5046   -3.6297    5.1215 H   0  0  0  0  0  0  0  0  0  0  0  0
    0.4105   -3.3276    3.1831 C   0  0  0  0  0  0  0  0  0  0  0  0
    1.3734   -3.6879    3.5508 H   0  0  0  0  0  0  0  0  0  0  0  0
   -0.1035   -4.1512    2.6794 H   0  0  0  0  0  0  0  0  0  0  0  0
    2.1268    1.8350    4.8257 C   0  0  0  0  0  0  0  0  0  0  0  0
    2.1957    2.3639    3.8742 H   0  0  0  0  0  0  0  0  0  0  0  0
    2.9916    1.1742    4.8968 H   0  0  0  0  0  0  0  0  0  0  0  0
    2.1894    2.8453    5.9745 C   0  0  0  0  0  0  0  0  0  0  0  0
    1.2520    3.3980    6.0673 H   0  0  0  0  0  0  0  0  0  0  0  0
    2.3736    2.3355    6.9214 H   0  0  0  0  0  0  0  0  0  0  0  0
    3.3230    3.8370    5.7176 C   0  0  0  0  0  0  0  0  0  0  0  0
    4.2571    3.2943    5.5676 H   0  0  0  0  0  0  0  0  0  0  0  0
    3.1258    4.4045    4.8067 H   0  0  0  0  0  0  0  0  0  0  0  0
    3.4946    4.8212    6.8709 C   0  0  0  0  0  0  0  0  0  0  0  0
    2.5348    5.2766    7.1301 H   0  0  0  0  0  0  0  0  0  0  0  0
    3.8859    4.3387    7.7664 H   0  0  0  0  0  0  0  0  0  0  0  0
    4.4225    5.9533    6.4853 C   0  0  0  0  0  0  0  0  0  0  0  0
    1.8114   -2.5729    1.3462 C   0  0  0  0  0  0  0  0  0  0  0  0
    2.7245   -2.5659    1.9428 H   0  0  0  0  0  0  0  0  0  0  0  0
    1.8977   -1.7770    0.6053 H   0  0  0  0  0  0  0  0  0  0  0  0
    1.7065   -3.9230    0.6319 C   0  0  0  0  0  0  0  0  0  0  0  0
    0.7230   -4.0542    0.1753 H   0  0  0  0  0  0  0  0  0  0  0  0
    1.8609   -4.7410    1.3373 H   0  0  0  0  0  0  0  0  0  0  0  0
    2.7719   -4.0049   -0.4603 C   0  0  0  0  0  0  0  0  0  0  0  0
    2.6014   -3.2308   -1.2101 H   0  0  0  0  0  0  0  0  0  0  0  0
    3.7562   -3.8260   -0.0262 H   0  0  0  0  0  0  0  0  0  0  0  0
    2.7708   -5.3620   -1.1574 C   0  0  0  0  0  0  0  0  0  0  0  0
    3.1143   -6.1598   -0.4988 H   0  0  0  0  0  0  0  0  0  0  0  0
    1.7624   -5.6194   -1.4929 H   0  0  0  0  0  0  0  0  0  0  0  0
    3.6488   -5.3422   -2.3902 C   0  0  0  0  0  0  0  0  0  0  0  0
  1  2  1  0  0  0  0
  1 12  1  0  0  0  0
  1  3  1  0  0  0  0
  3  4  1  1  0  0  0
  3  6  1  0  0  0  0
  5 52  2  0  0  0  0
  6 13  1  0  0  0  0
  6  7  1  0  0  0  0
  8  6  1  0  0  0  0
  9  1  1  0  0  0  0
 11 10  1  0  0  0  0
 12 40  1  1  0  0  0
 12 13  1  0  0  0  0
 13 15  1  0  0  0  0
 13 14  1  0  0  0  0
 16 24  1  0  0  0  0
 16 17  1  1  0  0  0
 16  1  1  0  0  0  0
 18 65  1  0  0  0  0
 19 18  1  0  0  0  0
 20 22  1  0  0  0  0
 20 12  1  0  0  0  0
 20 21  1  0  0  0  0
 23 53  1  6  0  0  0
 23 37  1  0  0  0  0
 23  1  1  0  0  0  0
 24 20  1  0  0  0  0
 25 24  1  0  0  0  0
 26 24  1  0  0  0  0
 27 65  2  0  0  0  0
 28 31  1  0  0  0  0
 28 16  1  0  0  0  0
 29 28  1  0  0  0  0
 30 28  1  0  0  0  0
 31 33  1  0  0  0  0
 31 23  1  0  0  0  0
 32 31  1  0  0  0  0
 34  3  1  0  0  0  0
 34 36  1  0  0  0  0
 35 34  1  0  0  0  0
 37 38  1  0  0  0  0
 37 34  1  0  0  0  0
 39 37  1  0  0  0  0
 40 42  1  0  0  0  0
 40 43  1  0  0  0  0
 41 40  1  0  0  0  0
 43 44  1  0  0  0  0
 43 45  1  0  0  0  0
 46 43  1  0  0  0  0
 46 49  1  0  0  0  0
 47 46  1  0  0  0  0
 48 46  1  0  0  0  0
 49 50  1  0  0  0  0
 49 51  1  0  0  0  0
 52 49  1  0  0  0  0
 52 10  1  0  0  0  0
 53 54  1  0  0  0  0
 55 53  1  0  0  0  0
 56 58  1  0  0  0  0
 56 53  1  0  0  0  0
 57 56  1  0  0  0  0
 59 61  1  0  0  0  0
 59 56  1  0  0  0  0
 60 59  1  0  0  0  0
 62 63  1  0  0  0  0
 62 59  1  0  0  0  0
 64 62  1  0  0  0  0
 65 62  1  0  0  0  0
M  END
$$$$
