CSD_code = ULOTOE | q = 0 | S = 0 | Stoichiometry = C13H20Cl2N4Pd | MND = 4
 OpenBabel04212202103D

 40 42  0  0  1  0  0  0  0  0999 V2000
    2.8468    3.0171    8.2392 Pd  0  0  0  0  0  0  0  0  0  0  0  0
    4.4774    2.1461    9.4718 Cl  0  0  0  0  0  0  0  0  0  0  0  0
    4.3028    4.0540    6.9310 Cl  0  0  0  0  0  0  0  0  0  0  0  0
    1.2548    3.6235    7.0449 N   0  0  2  0  0  0  0  0  0  0  0  0
    0.0251    3.8206    7.5394 N   0  0  0  0  0  0  0  0  0  0  0  0
    1.4026    2.1394    9.4041 N   0  0  1  0  0  0  0  0  0  0  0  0
    0.1788    2.6632    9.5641 N   0  0  0  0  0  0  0  0  0  0  0  0
    1.1418    3.4617    5.7414 C   0  0  0  0  0  3  0  0  0  0  0  0
   -0.2054    3.5473    5.3706 C   0  0  0  0  0  0  0  0  0  0  0  0
   -0.8885    3.7639    6.5419 C   0  0  0  0  0  0  0  0  0  0  0  0
    1.4232    0.9722   10.0157 C   0  0  0  0  0  3  0  0  0  0  0  0
    0.1740    0.7193   10.5927 C   0  0  0  0  0  0  0  0  0  0  0  0
   -0.5940    1.8138   10.2817 C   0  0  0  0  0  0  0  0  0  0  0  0
   -0.1535    3.9683    8.9830 C   0  0  0  0  0  0  0  0  0  0  0  0
    0.8271    5.0483    9.4998 C   0  0  0  0  0  0  0  0  0  0  0  0
    1.0590    5.0135   11.0192 C   0  0  0  0  0  0  0  0  0  0  0  0
    2.5530    4.9796   11.3304 C   0  0  0  0  0  0  0  0  0  0  0  0
   -1.6060    4.3248    9.3277 C   0  0  0  0  0  0  0  0  0  0  0  0
   -2.0633    5.7093    8.8523 C   0  0  0  0  0  0  0  0  0  0  0  0
   -3.5843    5.8126    8.8887 C   0  0  0  0  0  0  0  0  0  0  0  0
    2.0161    3.3102    5.1352 H   0  0  0  0  0  0  0  0  0  0  0  0
   -0.6175    3.4601    4.3872 H   0  0  0  0  0  0  0  0  0  0  0  0
   -1.9391    3.8778    6.7043 H   0  0  0  0  0  0  0  0  0  0  0  0
    2.3212    0.3836   10.0299 H   0  0  0  0  0  0  0  0  0  0  0  0
   -0.1219   -0.1408   11.1557 H   0  0  0  0  0  0  0  0  0  0  0  0
   -1.6126    2.0203   10.5331 H   0  0  0  0  0  0  0  0  0  0  0  0
    1.8075    4.9070    9.0041 H   0  0  0  0  0  0  0  0  0  0  0  0
    0.4539    6.0200    9.1812 H   0  0  0  0  0  0  0  0  0  0  0  0
    0.6054    5.8884   11.4890 H   0  0  0  0  0  0  0  0  0  0  0  0
    0.5909    4.1302   11.4591 H   0  0  0  0  0  0  0  0  0  0  0  0
    2.7215    4.8855   12.3998 H   0  0  0  0  0  0  0  0  0  0  0  0
    3.0283    4.1258   10.8305 H   0  0  0  0  0  0  0  0  0  0  0  0
    3.0343    5.8920   10.9852 H   0  0  0  0  0  0  0  0  0  0  0  0
   -2.2680    3.5651    8.9061 H   0  0  0  0  0  0  0  0  0  0  0  0
   -1.7063    4.2917   10.4135 H   0  0  0  0  0  0  0  0  0  0  0  0
   -1.6487    6.4778    9.5050 H   0  0  0  0  0  0  0  0  0  0  0  0
   -1.7113    5.9059    7.8387 H   0  0  0  0  0  0  0  0  0  0  0  0
   -3.9006    6.8076    8.5883 H   0  0  0  0  0  0  0  0  0  0  0  0
   -4.0416    5.0925    8.2133 H   0  0  0  0  0  0  0  0  0  0  0  0
   -3.9565    5.6242    9.8929 H   0  0  0  0  0  0  0  0  0  0  0  0
  1  6  1  0  0  0  0
  1  2  1  0  0  0  0
  3  1  1  0  0  0  0
  4  8  1  6  0  0  0
  4  5  1  0  0  0  0
  4  1  1  0  0  0  0
  5 14  1  0  0  0  0
  6  7  1  0  0  0  0
  6 11  1  6  0  0  0
  7 13  1  0  0  0  0
  9  8  1  0  0  0  0
  9 10  2  0  0  0  0
 10 23  1  0  0  0  0
 10  5  1  0  0  0  0
 11 24  1  0  0  0  0
 11 12  1  0  0  0  0
 12 25  1  0  0  0  0
 13 26  1  0  0  0  0
 13 12  2  0  0  0  0
 14 18  1  0  0  0  0
 14 15  1  0  0  0  0
 14  7  1  0  0  0  0
 15 16  1  0  0  0  0
 16 17  1  0  0  0  0
 16 30  1  0  0  0  0
 16 29  1  0  0  0  0
 17 31  1  0  0  0  0
 18 35  1  0  0  0  0
 19 20  1  0  0  0  0
 19 18  1  0  0  0  0
 19 36  1  0  0  0  0
 20 40  1  0  0  0  0
 21  8  1  0  0  0  0
 22  9  1  0  0  0  0
 27 15  1  0  0  0  0
 28 15  1  0  0  0  0
 32 17  1  0  0  0  0
 33 17  1  0  0  0  0
 34 18  1  0  0  0  0
 37 19  1  0  0  0  0
 38 20  1  0  0  0  0
 39 20  1  0  0  0  0
M  END
$$$$
