CSD_code = ULULAO | q = 0 | S = 0 | Stoichiometry = C18H24Cl2SiZr | MND = 12
 OpenBabel04212202103D

 46 47  0  0  1  0  0  0  0  0999 V2000
   12.6890    1.1361    3.4240 Zr  0  0  0  0  0  0  0  0  0  0  0  0
   15.8798    0.3503    3.8362 Si  0  0  2  0  0  0  0  0  0  0  0  0
   10.8085    1.6417    4.7190 Cl  0  0  0  0  0  0  0  0  0  0  0  0
   11.5042    1.2225    1.4100 Cl  0  0  0  0  0  0  0  0  0  0  0  0
   16.9148    0.1873    5.4377 C   0  0  0  0  0  0  0  0  0  0  0  0
   17.3632    1.1336    5.7224 H   0  0  0  0  0  0  0  0  0  0  0  0
   17.7222   -0.5206    5.2826 H   0  0  0  0  0  0  0  0  0  0  0  0
   16.3311   -0.1760    6.2771 H   0  0  0  0  0  0  0  0  0  0  0  0
   17.0277   -0.2545    2.4160 C   0  0  0  0  0  0  0  0  0  0  0  0
   17.3872   -1.2381    2.7258 H   0  0  0  0  0  0  0  0  0  0  0  0
   16.4976   -0.3929    1.4757 H   0  0  0  0  0  0  0  0  0  0  0  0
   18.2040    0.6337    2.2134 C   0  0  0  0  0  0  0  0  0  0  0  0
   18.7924    0.8271    3.0999 H   0  0  0  0  0  0  0  0  0  0  0  0
   18.5552    1.1750    1.0607 C   0  0  0  0  0  0  0  0  0  0  0  0
   18.0049    0.9907    0.1518 H   0  0  0  0  0  0  0  0  0  0  0  0
   19.4153    1.8155    0.9701 H   0  0  0  0  0  0  0  0  0  0  0  0
   14.9505    1.9943    3.6357 C   0  0  2  0  0  3  0  0  0  0  0  0
   14.1577    2.5931    4.6719 C   0  0  1  0  0  0  0  0  0  0  0  0
   13.2302    3.4833    4.0749 C   0  0  0  0  0  0  0  0  0  0  0  0
   13.3905    3.4060    2.6629 C   0  0  0  0  0  0  0  0  0  0  0  0
   14.4309    2.4820    2.3920 C   0  0  1  0  0  3  0  0  0  0  0  0
   14.2819    2.4128    6.1608 C   0  0  0  0  0  0  0  0  0  0  0  0
   14.5263    3.3637    6.6382 H   0  0  0  0  0  0  0  0  0  0  0  0
   15.0630    1.7018    6.4103 H   0  0  0  0  0  0  0  0  0  0  0  0
   13.3316    2.0640    6.5817 H   0  0  0  0  0  0  0  0  0  0  0  0
   12.3291    4.4459    4.7926 C   0  0  0  0  0  0  0  0  0  0  0  0
   12.1156    4.1035    5.8036 H   0  0  0  0  0  0  0  0  0  0  0  0
   11.3822    4.5580    4.2637 H   0  0  0  0  0  0  0  0  0  0  0  0
   12.8017    5.4292    4.8524 H   0  0  0  0  0  0  0  0  0  0  0  0
   12.6321    4.2392    1.6695 C   0  0  0  0  0  0  0  0  0  0  0  0
   13.0000    5.2677    1.6742 H   0  0  0  0  0  0  0  0  0  0  0  0
   11.5693    4.2588    1.9208 H   0  0  0  0  0  0  0  0  0  0  0  0
   12.7326    3.8361    0.6638 H   0  0  0  0  0  0  0  0  0  0  0  0
   14.9356    2.1336    1.0194 C   0  0  0  0  0  0  0  0  0  0  0  0
   14.8590    2.9970    0.3594 H   0  0  0  0  0  0  0  0  0  0  0  0
   14.3468    1.3214    0.5761 H   0  0  0  0  0  0  0  0  0  0  0  0
   15.9804    1.8394    1.0659 H   0  0  0  0  0  0  0  0  0  0  0  0
   14.2827   -0.6617    3.8387 C   0  0  0  0  0  0  0  0  0  0  0  0
   13.3551   -0.6991    4.9185 C   0  0  0  0  0  3  0  0  0  0  0  0
   13.6007   -0.5636    5.9658 H   0  0  0  0  0  0  0  0  0  0  0  0
   12.1145   -1.1589    4.4293 C   0  0  0  0  0  0  0  0  0  0  0  0
   11.2443   -1.3984    5.0283 H   0  0  0  0  0  0  0  0  0  0  0  0
   12.2387   -1.3566    3.0399 C   0  0  0  0  0  0  0  0  0  0  0  0
   11.4795   -1.7705    2.3870 H   0  0  0  0  0  0  0  0  0  0  0  0
   13.5598   -1.0269    2.6680 C   0  0  0  0  0  0  0  0  0  0  0  0
   13.9858   -1.1725    1.6811 H   0  0  0  0  0  0  0  0  0  0  0  0
  1  3  1  0  0  0  0
  2  9  1  6  0  0  0
  2 38  1  0  0  0  0
  2  5  1  0  0  0  0
  4  1  1  0  0  0  0
  5  6  1  0  0  0  0
  5  8  1  0  0  0  0
  7  5  1  0  0  0  0
  9 10  1  0  0  0  0
 11  9  1  0  0  0  0
 12  9  1  0  0  0  0
 12 13  1  0  0  0  0
 14 12  2  0  0  0  0
 15 14  1  0  0  0  0
 16 14  1  0  0  0  0
 17  2  1  6  0  0  0
 17 18  1  0  0  0  0
 18  1  1  6  0  0  0
 18 22  1  0  0  0  0
 19 18  1  0  0  0  0
 19 26  1  0  0  0  0
 20 19  2  0  0  0  0
 21 34  1  1  0  0  0
 21 20  1  0  0  0  0
 21 17  1  0  0  0  0
 22 24  1  0  0  0  0
 22 25  1  0  0  0  0
 22 23  1  0  0  0  0
 26 29  1  0  0  0  0
 26 27  1  0  0  0  0
 28 26  1  0  0  0  0
 30 31  1  0  0  0  0
 30 32  1  0  0  0  0
 30 20  1  0  0  0  0
 33 30  1  0  0  0  0
 34 37  1  0  0  0  0
 35 34  1  0  0  0  0
 36 34  1  0  0  0  0
 38 39  1  0  0  0  0
 39 40  1  0  0  0  0
 41 39  1  0  0  0  0
 41 42  1  0  0  0  0
 43 41  2  0  0  0  0
 44 43  1  0  0  0  0
 45 43  1  0  0  0  0
 45 38  2  0  0  0  0
 46 45  1  0  0  0  0
M  END
$$$$
