CSD_code = UMAHUN | q = 0 | S = 0 | Stoichiometry = C24H34ClN3Pd | MND = 4
 OpenBabel04212202103D

 63 66  0  0  0  0  0  0  0  0999 V2000
    6.2318   15.4371   16.3162 Pd  0  0  1  0  0  0  0  0  0  0  0  0
    6.1532   13.9318   18.1685 Cl  0  0  0  0  0  0  0  0  0  0  0  0
    7.4344   13.2032   14.8296 N   0  0  0  0  0  0  0  0  0  0  0  0
    5.2392   13.1125   14.7672 N   0  0  0  0  0  0  0  0  0  0  0  0
    6.2131   17.1783   17.5024 N   0  0  0  0  0  4  0  0  0  0  0  0
    6.2966   13.8423   15.1946 C   0  0  0  0  0  0  0  0  0  0  0  0
    7.1059   12.0405   14.1510 C   0  0  0  0  0  0  0  0  0  0  0  0
    5.7002   11.9794   14.1170 C   0  0  0  0  0  0  0  0  0  0  0  0
    6.7536   18.2706   16.6794 C   0  0  0  0  0  0  0  0  0  0  0  0
    7.8489   18.2548   16.7628 H   0  0  0  0  0  0  0  0  0  0  0  0
    6.4062   19.2473   17.0541 H   0  0  0  0  0  0  0  0  0  0  0  0
    6.3854   18.0657   15.2316 C   0  0  0  0  0  0  0  0  0  0  0  0
    6.2833   19.1373   14.3577 C   0  0  0  0  0  0  0  0  0  0  0  0
    6.4250   20.1462   14.7235 H   0  0  0  0  0  0  0  0  0  0  0  0
    6.0051   18.9165   13.0201 C   0  0  0  0  0  0  0  0  0  0  0  0
    5.9247   19.7507   12.3379 H   0  0  0  0  0  0  0  0  0  0  0  0
    5.8352   17.6216   12.5656 C   0  0  0  0  0  0  0  0  0  0  0  0
    5.6249   17.4399   11.5202 H   0  0  0  0  0  0  0  0  0  0  0  0
    5.9291   16.5533   13.4459 C   0  0  0  0  0  0  0  0  0  0  0  0
    5.7933   15.5499   13.0557 H   0  0  0  0  0  0  0  0  0  0  0  0
    6.2036   16.7458   14.7971 C   0  0  0  0  0  0  0  0  0  0  0  0
    4.8015   17.4275   17.7925 C   0  0  0  0  0  0  0  0  0  0  0  0
    4.6816   18.3338   18.4063 H   0  0  0  0  0  0  0  0  0  0  0  0
    4.3873   16.5781   18.3422 H   0  0  0  0  0  0  0  0  0  0  0  0
    4.2485   17.5631   16.8588 H   0  0  0  0  0  0  0  0  0  0  0  0
    6.9511   17.0726   18.7577 C   0  0  0  0  0  0  0  0  0  0  0  0
    6.8614   17.9948   19.3498 H   0  0  0  0  0  0  0  0  0  0  0  0
    8.0076   16.8839   18.5531 H   0  0  0  0  0  0  0  0  0  0  0  0
    6.5608   16.2364   19.3395 H   0  0  0  0  0  0  0  0  0  0  0  0
    7.8655   11.0358   13.5590 C   0  0  0  0  0  0  0  0  0  0  0  0
    8.9420   11.0401   13.5607 H   0  0  0  0  0  0  0  0  0  0  0  0
    7.2130    9.9856   12.9463 C   0  0  0  0  0  0  0  0  0  0  0  0
    7.7929    9.2018   12.4837 H   0  0  0  0  0  0  0  0  0  0  0  0
    5.8265    9.9208   12.9215 C   0  0  0  0  0  0  0  0  0  0  0  0
    5.3391    9.0857   12.4422 H   0  0  0  0  0  0  0  0  0  0  0  0
    5.0580   10.9080   13.5035 C   0  0  0  0  0  0  0  0  0  0  0  0
    3.9862   10.8134   13.4685 H   0  0  0  0  0  0  0  0  0  0  0  0
    8.8384   13.5594   15.1231 C   0  0  0  0  0  0  0  0  0  0  0  0
    9.4357   12.4367   15.9841 C   0  0  0  0  0  0  0  0  0  0  0  0
    8.8782   12.3789   16.9174 H   0  0  0  0  0  0  0  0  0  0  0  0
   10.4742   12.6600   16.2140 H   0  0  0  0  0  0  0  0  0  0  0  0
    9.3924   11.4643   15.5083 H   0  0  0  0  0  0  0  0  0  0  0  0
    9.5714   13.7724   13.7908 C   0  0  0  0  0  0  0  0  0  0  0  0
    9.1267   14.6188   13.2701 H   0  0  0  0  0  0  0  0  0  0  0  0
    9.5209   12.9121   13.1344 H   0  0  0  0  0  0  0  0  0  0  0  0
   10.6179   13.9955   13.9814 H   0  0  0  0  0  0  0  0  0  0  0  0
    9.0156   14.8536   15.9279 C   0  0  0  0  0  0  0  0  0  0  0  0
    8.6583   15.7250   15.3650 H   0  0  0  0  0  0  0  0  0  0  0  0
   10.0811   14.9842   16.1110 H   0  0  0  0  0  0  0  0  0  0  0  0
    8.5141   14.7787   16.9038 H   0  0  0  0  0  0  0  0  0  0  0  0
    3.7988   13.3531   14.9858 C   0  0  0  0  0  0  0  0  0  0  0  0
    3.2597   12.2042   15.8500 C   0  0  0  0  0  0  0  0  0  0  0  0
    3.7929   12.2025   16.7990 H   0  0  0  0  0  0  0  0  0  0  0  0
    3.3867   11.2306   15.3912 H   0  0  0  0  0  0  0  0  0  0  0  0
    2.2018   12.3556   16.0478 H   0  0  0  0  0  0  0  0  0  0  0  0
    3.1045   13.4707   13.6211 C   0  0  0  0  0  0  0  0  0  0  0  0
    3.4450   14.3750   13.1201 H   0  0  0  0  0  0  0  0  0  0  0  0
    2.0299   13.5436   13.7665 H   0  0  0  0  0  0  0  0  0  0  0  0
    3.3042   12.6311   12.9662 H   0  0  0  0  0  0  0  0  0  0  0  0
    3.4912   14.6484   15.7444 C   0  0  0  0  0  0  0  0  0  0  0  0
    3.8325   15.5263   15.1846 H   0  0  0  0  0  0  0  0  0  0  0  0
    3.9355   14.6220   16.7475 H   0  0  0  0  0  0  0  0  0  0  0  0
    2.4109   14.7190   15.8585 H   0  0  0  0  0  0  0  0  0  0  0  0
  1  5  1  0  0  0  0
  1  2  1  1  0  0  0
  3 38  1  0  0  0  0
  3  6  1  0  0  0  0
  4 51  1  0  0  0  0
  4  6  1  0  0  0  0
  5 22  1  0  0  0  0
  5 26  1  0  0  0  0
  6  1  2  0  0  0  0
  7  3  1  0  0  0  0
  8  7  1  0  0  0  0
  8  4  1  0  0  0  0
  9 10  1  0  0  0  0
  9 11  1  0  0  0  0
  9  5  1  0  0  0  0
 12  9  1  0  0  0  0
 13 14  1  0  0  0  0
 13 12  2  0  0  0  0
 15 13  1  0  0  0  0
 16 15  1  0  0  0  0
 17 15  2  0  0  0  0
 17 19  1  0  0  0  0
 18 17  1  0  0  0  0
 19 21  2  0  0  0  0
 20 19  1  0  0  0  0
 21 12  1  0  0  0  0
 21  1  1  0  0  0  0
 22 24  1  0  0  0  0
 22 23  1  0  0  0  0
 25 22  1  0  0  0  0
 26 29  1  0  0  0  0
 26 27  1  0  0  0  0
 28 26  1  0  0  0  0
 30 31  1  0  0  0  0
 30  7  2  0  0  0  0
 32 30  1  0  0  0  0
 33 32  1  0  0  0  0
 34 32  2  0  0  0  0
 34 36  1  0  0  0  0
 35 34  1  0  0  0  0
 36  8  2  0  0  0  0
 37 36  1  0  0  0  0
 38 47  1  0  0  0  0
 38 39  1  0  0  0  0
 39 41  1  0  0  0  0
 39 40  1  0  0  0  0
 42 39  1  0  0  0  0
 43 46  1  0  0  0  0
 43 38  1  0  0  0  0
 44 43  1  0  0  0  0
 45 43  1  0  0  0  0
 47 49  1  0  0  0  0
 47 50  1  0  0  0  0
 48 47  1  0  0  0  0
 51 60  1  0  0  0  0
 51 52  1  0  0  0  0
 52 55  1  0  0  0  0
 52 53  1  0  0  0  0
 54 52  1  0  0  0  0
 56 58  1  0  0  0  0
 56 51  1  0  0  0  0
 57 56  1  0  0  0  0
 59 56  1  0  0  0  0
 60 63  1  0  0  0  0
 60 62  1  0  0  0  0
 61 60  1  0  0  0  0
M  END
$$$$
