CSD_code = UMAPOP | q = 0 | S = 0 | Stoichiometry = C12H13AuClN3OS | MND = 4
 OpenBabel04212202103D

 32 34  0  0  1  0  0  0  0  0999 V2000
   10.6679   23.3558    5.3091 S   0  0  0  0  0  0  0  0  0  0  0  0
    7.4653   23.0343    4.8473 Cl  0  0  0  0  0  0  0  0  0  0  0  0
    9.2049   21.6466    5.1626 Au  0  0  2  0  0  0  0  0  0  0  0  0
   10.7516   19.1386    5.4216 C   0  0  1  0  0  3  0  0  0  0  0  0
    7.1673   17.9206    4.9613 C   0  0  0  0  0  0  0  0  0  0  0  0
    8.2878   18.8754    5.1134 C   0  0  0  0  0  0  0  0  0  0  0  0
    7.9397   20.1124    5.0544 O   0  0  0  0  0  0  0  0  0  0  0  0
   12.0799   22.3160    5.5654 C   0  0  0  0  0  0  0  0  0  0  0  0
    9.5756   18.3956    5.2723 C   0  0  0  0  0  0  0  0  0  0  0  0
    9.6994   17.3254    5.2606 H   0  0  0  0  0  0  0  0  0  0  0  0
   12.0102   21.0354    5.5877 N   0  0  0  0  0  0  0  0  0  0  0  0
   10.7998   20.4552    5.4236 N   0  0  0  0  0  0  0  0  0  0  0  0
   13.2318   22.9684    5.7704 N   0  0  0  0  0  0  0  0  0  0  0  0
   13.2126   23.9657    5.6254 H   0  0  0  0  0  0  0  0  0  0  0  0
    6.0570   18.3130    4.2139 C   0  0  0  0  0  0  0  0  0  0  0  0
    6.0500   19.2974    3.7718 H   0  0  0  0  0  0  0  0  0  0  0  0
    7.1739   16.6612    5.5581 C   0  0  0  0  0  0  0  0  0  0  0  0
    8.0013   16.3569    6.1808 H   0  0  0  0  0  0  0  0  0  0  0  0
   12.0513   18.4139    5.5920 C   0  0  0  0  0  0  0  0  0  0  0  0
   12.7490   18.7394    4.8223 H   0  0  0  0  0  0  0  0  0  0  0  0
   11.9127   17.3396    5.5363 H   0  0  0  0  0  0  0  0  0  0  0  0
   12.4872   18.6805    6.5535 H   0  0  0  0  0  0  0  0  0  0  0  0
    5.0106   16.1959    4.6236 C   0  0  0  0  0  0  0  0  0  0  0  0
    4.1764   15.5231    4.4915 H   0  0  0  0  0  0  0  0  0  0  0  0
    4.9901   17.4527    4.0412 C   0  0  0  0  0  0  0  0  0  0  0  0
    4.1391   17.7646    3.4546 H   0  0  0  0  0  0  0  0  0  0  0  0
    6.0999   15.8077    5.3870 C   0  0  0  0  0  0  0  0  0  0  0  0
    6.1102   14.8353    5.8571 H   0  0  0  0  0  0  0  0  0  0  0  0
   14.5081   22.3052    5.8419 C   0  0  0  0  0  0  0  0  0  0  0  0
   14.3487   21.3003    6.2255 H   0  0  0  0  0  0  0  0  0  0  0  0
   15.1624   22.8564    6.5157 H   0  0  0  0  0  0  0  0  0  0  0  0
   14.9830   22.2371    4.8587 H   0  0  0  0  0  0  0  0  0  0  0  0
  1  8  1  0  0  0  0
  3  2  1  6  0  0  0
  3  1  1  0  0  0  0
  3 12  1  0  0  0  0
  4 12  1  0  0  0  0
  4 19  1  1  0  0  0
  5  6  1  0  0  0  0
  5 17  1  0  0  0  0
  6  9  2  0  0  0  0
  7  6  1  0  0  0  0
  7  3  1  0  0  0  0
  8 11  2  0  0  0  0
  8 13  1  0  0  0  0
  9  4  1  0  0  0  0
 10  9  1  0  0  0  0
 12 11  1  0  0  0  0
 13 29  1  0  0  0  0
 14 13  1  0  0  0  0
 15  5  2  0  0  0  0
 16 15  1  0  0  0  0
 17 18  1  0  0  0  0
 19 22  1  0  0  0  0
 20 19  1  0  0  0  0
 21 19  1  0  0  0  0
 23 27  1  0  0  0  0
 24 23  1  0  0  0  0
 25 15  1  0  0  0  0
 25 23  2  0  0  0  0
 26 25  1  0  0  0  0
 27 17  2  0  0  0  0
 27 28  1  0  0  0  0
 29 30  1  0  0  0  0
 29 31  1  0  0  0  0
 32 29  1  0  0  0  0
M  END
$$$$
