CSD_code = UMAZIS | q = 0 | S = 0 | Stoichiometry = C24H18Cl2FeN6O4 | MND = 6
 OpenBabel04212202103D

 55 60  0  0  0  0  0  0  0  0999 V2000
    6.3206    4.1728    9.0631 Fe  0  0  0  0  0  0  0  0  0  0  0  0
    7.8615    4.1914   10.2160 N   0  0  0  0  0  0  0  0  0  0  0  0
    8.8546    5.0734   10.2588 C   0  0  0  0  0  3  0  0  0  0  0  0
    8.8009    5.8773    9.5393 H   0  0  0  0  0  0  0  0  0  0  0  0
    9.8876    4.9955   11.1731 C   0  0  0  0  0  0  0  0  0  0  0  0
   10.6677    5.7383   11.1574 H   0  0  0  0  0  0  0  0  0  0  0  0
    9.8976    3.9568   12.1011 C   0  0  0  0  0  0  0  0  0  0  0  0
   10.6954    3.8711   12.8226 H   0  0  0  0  0  0  0  0  0  0  0  0
    8.8575    3.0537   12.0903 C   0  0  0  0  0  0  0  0  0  0  0  0
    8.8010    2.2459   12.8026 H   0  0  0  0  0  0  0  0  0  0  0  0
    7.8433    3.1989   11.1372 C   0  0  0  0  0  0  0  0  0  0  0  0
    6.7065    2.3556   11.0158 C   0  0  0  0  0  3  0  0  0  0  0  0
    6.5136    1.5424   11.7064 H   0  0  0  0  0  0  0  0  0  0  0  0
    5.9277    2.6183   10.0106 N   0  0  0  0  0  0  0  0  0  0  0  0
    4.6972    2.0060    9.8416 C   0  0  0  0  0  0  0  0  0  0  0  0
    3.7051    2.1319   10.8188 C   0  0  0  0  0  0  0  0  0  0  0  0
    3.9445    2.6516   11.7330 H   0  0  0  0  0  0  0  0  0  0  0  0
    2.4243    1.6649   10.5803 C   0  0  0  0  0  0  0  0  0  0  0  0
    1.6656    1.7814   11.3381 H   0  0  0  0  0  0  0  0  0  0  0  0
    2.1040    1.0705    9.3727 C   0  0  0  0  0  0  0  0  0  0  0  0
    1.1071    0.7200    9.1569 H   0  0  0  0  0  0  0  0  0  0  0  0
    3.0979    0.9390    8.4096 C   0  0  0  0  0  0  0  0  0  0  0  0
    4.3905    1.3824    8.6373 C   0  0  0  0  0  0  0  0  0  0  0  0
    5.1390    1.2588    7.8711 H   0  0  0  0  0  0  0  0  0  0  0  0
    2.7823    0.3737    7.1230 N   0  0  0  0  0  0  0  0  0  0  0  0
    1.6668   -0.0652    6.9545 O   0  0  0  0  0  0  0  0  0  0  0  0
    3.6535    0.3914    6.2763 O   0  0  0  0  0  0  0  0  0  0  0  0
    4.8023    4.1181    7.8730 N   0  0  0  0  0  0  0  0  0  0  0  0
    3.5615    4.5426    8.0783 C   0  0  0  0  0  3  0  0  0  0  0  0
    3.3522    4.9065    9.0738 H   0  0  0  0  0  0  0  0  0  0  0  0
    2.5965    4.5357    7.0888 C   0  0  0  0  0  0  0  0  0  0  0  0
    1.6031    4.8909    7.3088 H   0  0  0  0  0  0  0  0  0  0  0  0
    2.9288    4.0784    5.8160 C   0  0  0  0  0  0  0  0  0  0  0  0
    2.1930    4.0648    5.0270 H   0  0  0  0  0  0  0  0  0  0  0  0
    4.2172    3.6480    5.5841 C   0  0  0  0  0  0  0  0  0  0  0  0
    4.5292    3.2877    4.6174 H   0  0  0  0  0  0  0  0  0  0  0  0
    5.1372    3.6783    6.6358 C   0  0  0  0  0  0  0  0  0  0  0  0
    6.4698    3.1798    6.5723 C   0  0  0  0  0  3  0  0  0  0  0  0
    6.8691    2.7158    5.6782 H   0  0  0  0  0  0  0  0  0  0  0  0
    7.1340    3.2542    7.6821 N   0  0  0  0  0  0  0  0  0  0  0  0
    8.3955    2.6925    7.8504 C   0  0  0  0  0  0  0  0  0  0  0  0
    8.5236    1.3375    8.1545 C   0  0  0  0  0  0  0  0  0  0  0  0
    7.6406    0.7165    8.1726 H   0  0  0  0  0  0  0  0  0  0  0  0
    9.7650    0.7959    8.4413 C   0  0  0  0  0  0  0  0  0  0  0  0
    9.8512   -0.2545    8.6714 H   0  0  0  0  0  0  0  0  0  0  0  0
   10.8909    1.5975    8.4414 C   0  0  0  0  0  0  0  0  0  0  0  0
   11.8676    1.2043    8.6760 H   0  0  0  0  0  0  0  0  0  0  0  0
   10.7543    2.9468    8.1371 C   0  0  0  0  0  0  0  0  0  0  0  0
    9.5252    3.5045    7.8255 C   0  0  0  0  0  0  0  0  0  0  0  0
    9.4327    4.5514    7.5812 H   0  0  0  0  0  0  0  0  0  0  0  0
   11.9225    3.7971    8.1845 N   0  0  0  0  0  0  0  0  0  0  0  0
   13.0044    3.2560    8.2512 O   0  0  0  0  0  0  0  0  0  0  0  0
   11.7433    4.9935    8.1790 O   0  0  0  0  0  0  0  0  0  0  0  0
    6.8594    6.0083    8.0674 Cl  0  0  0  0  0  0  0  0  0  0  0  0
    5.2517    5.2461   10.6079 Cl  0  0  0  0  0  0  0  0  0  0  0  0
  1 14  1  0  0  0  0
  1  2  1  0  0  0  0
  1 55  1  0  0  0  0
  2  3  1  0  0  0  0
  2 11  1  0  0  0  0
  3  5  1  0  0  0  0
  4  3  1  0  0  0  0
  5  7  2  0  0  0  0
  6  5  1  0  0  0  0
  7  8  1  0  0  0  0
  9  7  1  0  0  0  0
  9 10  1  0  0  0  0
 11  9  2  0  0  0  0
 12 11  1  0  0  0  0
 12 13  1  0  0  0  0
 14 12  1  0  0  0  0
 15 14  1  0  0  0  0
 15 16  1  0  0  0  0
 16 17  1  0  0  0  0
 18 16  2  0  0  0  0
 18 19  1  0  0  0  0
 20 18  1  0  0  0  0
 21 20  1  0  0  0  0
 22 23  1  0  0  0  0
 22 20  2  0  0  0  0
 23 15  2  0  0  0  0
 24 23  1  0  0  0  0
 25 22  1  0  0  0  0
 26 25  2  0  0  0  0
 27 25  2  0  0  0  0
 28 29  1  0  0  0  0
 28  1  1  0  0  0  0
 29 30  1  0  0  0  0
 31 32  1  0  0  0  0
 31 29  1  0  0  0  0
 33 31  2  0  0  0  0
 34 33  1  0  0  0  0
 35 33  1  0  0  0  0
 35 37  2  0  0  0  0
 36 35  1  0  0  0  0
 37 28  1  0  0  0  0
 38 37  1  0  0  0  0
 38 40  1  0  0  0  0
 39 38  1  0  0  0  0
 40 41  1  0  0  0  0
 40  1  1  0  0  0  0
 41 42  1  0  0  0  0
 42 43  1  0  0  0  0
 42 44  2  0  0  0  0
 44 46  1  0  0  0  0
 44 45  1  0  0  0  0
 46 47  1  0  0  0  0
 48 51  1  0  0  0  0
 48 46  2  0  0  0  0
 49 41  2  0  0  0  0
 49 48  1  0  0  0  0
 50 49  1  0  0  0  0
 51 52  2  0  0  0  0
 53 51  2  0  0  0  0
 54  1  1  0  0  0  0
M  END
$$$$
