CSD_code = UMECOE | q = 0 | S = 0 | Stoichiometry = C12H30Cl2N2Pd | MND = 4
 OpenBabel04212202103D

 47 46  0  0  0  0  0  0  0  0999 V2000
   -0.0829    5.4671    5.2471 Pd  0  0  0  0  0  0  0  0  0  0  0  0
    0.8160    5.9213    7.3203 Cl  0  0  0  0  0  0  0  0  0  0  0  0
    0.5847    7.4108    4.4743 N   0  0  0  0  0  4  0  0  0  0  0  0
    1.4509    7.1032    3.3206 C   0  0  0  0  0  0  0  0  0  0  0  0
    1.7676    8.0302    2.8264 H   0  0  0  0  0  0  0  0  0  0  0  0
    0.8520    6.5313    2.6066 H   0  0  0  0  0  0  0  0  0  0  0  0
    2.6686    6.2727    3.7202 C   0  0  0  0  0  0  0  0  0  0  0  0
    3.4596    6.8851    4.1473 H   0  0  0  0  0  0  0  0  0  0  0  0
    3.0666    5.7610    2.8472 H   0  0  0  0  0  0  0  0  0  0  0  0
    2.3686    5.5184    4.4642 H   0  0  0  0  0  0  0  0  0  0  0  0
   -0.6362    8.0947    4.0081 C   0  0  0  0  0  0  0  0  0  0  0  0
   -1.1027    7.4531    3.2556 H   0  0  0  0  0  0  0  0  0  0  0  0
   -0.3768    9.0451    3.5251 H   0  0  0  0  0  0  0  0  0  0  0  0
   -1.6317    8.3298    5.1419 C   0  0  0  0  0  0  0  0  0  0  0  0
   -1.6603    7.4428    5.7932 H   0  0  0  0  0  0  0  0  0  0  0  0
   -2.6249    8.4916    4.7302 H   0  0  0  0  0  0  0  0  0  0  0  0
   -1.3670    9.1949    5.7458 H   0  0  0  0  0  0  0  0  0  0  0  0
    1.3045    8.2410    5.4635 C   0  0  0  0  0  0  0  0  0  0  0  0
    2.1708    7.6755    5.8100 H   0  0  0  0  0  0  0  0  0  0  0  0
    0.6521    8.3778    6.3272 H   0  0  0  0  0  0  0  0  0  0  0  0
    1.7761    9.6153    4.9869 C   0  0  0  0  0  0  0  0  0  0  0  0
    2.4668    9.5466    4.1505 H   0  0  0  0  0  0  0  0  0  0  0  0
    2.3010   10.0915    5.8116 H   0  0  0  0  0  0  0  0  0  0  0  0
    0.9469   10.2595    4.7064 H   0  0  0  0  0  0  0  0  0  0  0  0
   -0.9817    5.0129    3.1735 Cl  0  0  0  0  0  0  0  0  0  0  0  0
   -0.7505    3.5232    6.0194 N   0  0  0  0  0  4  0  0  0  0  0  0
   -1.6167    3.8307    7.1731 C   0  0  0  0  0  0  0  0  0  0  0  0
   -1.9335    2.9036    7.6671 H   0  0  0  0  0  0  0  0  0  0  0  0
   -1.0179    4.4025    7.8872 H   0  0  0  0  0  0  0  0  0  0  0  0
   -2.8345    4.6613    6.7735 C   0  0  0  0  0  0  0  0  0  0  0  0
   -3.6254    4.0488    6.3463 H   0  0  0  0  0  0  0  0  0  0  0  0
   -3.2325    5.1728    7.6466 H   0  0  0  0  0  0  0  0  0  0  0  0
   -2.5344    5.4156    6.0296 H   0  0  0  0  0  0  0  0  0  0  0  0
    0.4705    2.8394    6.4856 C   0  0  0  0  0  0  0  0  0  0  0  0
    0.9370    3.4811    7.2381 H   0  0  0  0  0  0  0  0  0  0  0  0
    0.2111    1.8890    6.9687 H   0  0  0  0  0  0  0  0  0  0  0  0
    1.4660    2.6043    5.3518 C   0  0  0  0  0  0  0  0  0  0  0  0
    1.4946    3.4914    4.7005 H   0  0  0  0  0  0  0  0  0  0  0  0
    2.4592    2.4426    5.7636 H   0  0  0  0  0  0  0  0  0  0  0  0
    1.2014    1.7392    4.7479 H   0  0  0  0  0  0  0  0  0  0  0  0
   -1.4703    2.6929    5.0301 C   0  0  0  0  0  0  0  0  0  0  0  0
   -2.3364    3.2585    4.6836 H   0  0  0  0  0  0  0  0  0  0  0  0
   -0.8178    2.5560    4.1665 H   0  0  0  0  0  0  0  0  0  0  0  0
   -1.9419    1.3187    5.5068 C   0  0  0  0  0  0  0  0  0  0  0  0
   -2.6326    1.3874    6.3432 H   0  0  0  0  0  0  0  0  0  0  0  0
   -2.4667    0.8424    4.6821 H   0  0  0  0  0  0  0  0  0  0  0  0
   -1.1126    0.6745    5.7874 H   0  0  0  0  0  0  0  0  0  0  0  0
  1 26  1  0  0  0  0
  1  2  1  0  0  0  0
  3  1  1  0  0  0  0
  3 18  1  0  0  0  0
  4  7  1  0  0  0  0
  4  3  1  0  0  0  0
  5  4  1  0  0  0  0
  6  4  1  0  0  0  0
  7  8  1  0  0  0  0
  7 10  1  0  0  0  0
  9  7  1  0  0  0  0
 11  3  1  0  0  0  0
 11 14  1  0  0  0  0
 12 11  1  0  0  0  0
 13 11  1  0  0  0  0
 14 17  1  0  0  0  0
 14 15  1  0  0  0  0
 16 14  1  0  0  0  0
 18 19  1  0  0  0  0
 18 20  1  0  0  0  0
 21 18  1  0  0  0  0
 21 23  1  0  0  0  0
 22 21  1  0  0  0  0
 24 21  1  0  0  0  0
 25  1  1  0  0  0  0
 26 34  1  0  0  0  0
 26 27  1  0  0  0  0
 27 28  1  0  0  0  0
 27 29  1  0  0  0  0
 30 27  1  0  0  0  0
 30 32  1  0  0  0  0
 31 30  1  0  0  0  0
 33 30  1  0  0  0  0
 34 36  1  0  0  0  0
 34 35  1  0  0  0  0
 37 39  1  0  0  0  0
 37 34  1  0  0  0  0
 38 37  1  0  0  0  0
 40 37  1  0  0  0  0
 41 44  1  0  0  0  0
 41 26  1  0  0  0  0
 42 41  1  0  0  0  0
 43 41  1  0  0  0  0
 44 47  1  0  0  0  0
 44 45  1  0  0  0  0
 46 44  1  0  0  0  0
M  END
$$$$
