CSD_code = UMELAZ | q = 0 | S = 0 | Stoichiometry = C18H18Cl2CrN4 | MND = 5
 OpenBabel04212202103D

 43 48  0  0  1  0  0  0  0  0999 V2000
    2.8751    3.8356    6.5738 Cr  0  0  0  0  0  0  0  0  0  0  0  0
    2.7473    1.8039    7.5496 Cl  0  0  0  0  0  0  0  0  0  0  0  0
    2.9486    4.9510    8.5306 Cl  0  0  0  0  0  0  0  0  0  0  0  0
    3.1901    5.4324    5.5076 N   0  0  0  0  0  0  0  0  0  0  0  0
    0.9175    3.8550    6.3817 N   0  0  0  0  0  0  0  0  0  0  0  0
    4.8193    3.6596    6.3243 N   0  0  0  0  0  0  0  0  0  0  0  0
    2.7525    2.9368    4.7384 N   0  0  2  0  0  4  0  0  0  0  0  0
    2.6871    3.9557    3.6943 C   0  0  0  0  0  0  0  0  0  0  0  0
    1.6326    4.1791    3.4875 H   0  0  0  0  0  0  0  0  0  0  0  0
    3.1477    3.6102    2.7579 H   0  0  0  0  0  0  0  0  0  0  0  0
    3.3274    5.2243    4.1792 C   0  0  1  0  0  3  0  0  0  0  0  0
    3.9435    6.1180    3.3282 C   0  0  0  0  0  0  0  0  0  0  0  0
    4.0373    5.8775    2.2796 H   0  0  0  0  0  0  0  0  0  0  0  0
    4.4296    7.3177    3.8315 C   0  0  0  0  0  0  0  0  0  0  0  0
    4.9235    8.0300    3.1913 H   0  0  0  0  0  0  0  0  0  0  0  0
    4.2391    7.5653    5.1870 C   0  0  0  0  0  0  0  0  0  0  0  0
    4.5725    8.4887    5.6323 H   0  0  0  0  0  0  0  0  0  0  0  0
    3.6245    6.6173    5.9739 C   0  0  0  0  0  0  0  0  0  0  0  0
    3.4717    6.7743    7.0316 H   0  0  0  0  0  0  0  0  0  0  0  0
    1.5170    2.1531    4.7777 C   0  0  0  0  0  0  0  0  0  0  0  0
    1.6966    1.2681    5.3979 H   0  0  0  0  0  0  0  0  0  0  0  0
    1.1920    1.8345    3.7770 H   0  0  0  0  0  0  0  0  0  0  0  0
    0.4581    2.9808    5.4645 C   0  0  2  0  0  3  0  0  0  0  0  0
   -0.8852    2.8553    5.1702 C   0  0  0  0  0  0  0  0  0  0  0  0
   -1.2072    2.1397    4.4285 H   0  0  0  0  0  0  0  0  0  0  0  0
   -1.8094    3.6462    5.8435 C   0  0  0  0  0  0  0  0  0  0  0  0
   -2.8640    3.5567    5.6373 H   0  0  0  0  0  0  0  0  0  0  0  0
   -1.3326    4.5489    6.7830 C   0  0  0  0  0  0  0  0  0  0  0  0
   -2.0062    5.1837    7.3357 H   0  0  0  0  0  0  0  0  0  0  0  0
    0.0269    4.6199    7.0164 C   0  0  0  0  0  0  0  0  0  0  0  0
    0.4429    5.2943    7.7521 H   0  0  0  0  0  0  0  0  0  0  0  0
    3.9850    2.1572    4.6461 C   0  0  0  0  0  0  0  0  0  0  0  0
    4.1962    1.8281    3.6185 H   0  0  0  0  0  0  0  0  0  0  0  0
    3.8692    1.2791    5.2912 H   0  0  0  0  0  0  0  0  0  0  0  0
    5.1228    2.9703    5.2070 C   0  0  2  0  0  3  0  0  0  0  0  0
    6.3821    2.9959    4.6411 C   0  0  0  0  0  0  0  0  0  0  0  0
    6.5777    2.4378    3.7376 H   0  0  0  0  0  0  0  0  0  0  0  0
    7.3875    3.7380    5.2492 C   0  0  0  0  0  0  0  0  0  0  0  0
    8.3787    3.7730    4.8257 H   0  0  0  0  0  0  0  0  0  0  0  0
    7.0788    4.4228    6.4164 C   0  0  0  0  0  0  0  0  0  0  0  0
    7.8256    5.0039    6.9331 H   0  0  0  0  0  0  0  0  0  0  0  0
    5.7936    4.3545    6.9160 C   0  0  0  0  0  0  0  0  0  0  0  0
    5.5061    4.8684    7.8227 H   0  0  0  0  0  0  0  0  0  0  0  0
  1  2  1  0  0  0  0
  1  3  1  0  0  0  0
  4 18  1  0  0  0  0
  4  1  1  0  0  0  0
  5  1  1  0  0  0  0
  5 30  1  0  0  0  0
  6  1  1  0  0  0  0
  6 42  1  0  0  0  0
  7  8  1  6  0  0  0
  7 20  1  0  0  0  0
  7  1  1  0  0  0  0
  8 11  1  0  0  0  0
  9  8  1  0  0  0  0
 10  8  1  0  0  0  0
 11 12  1  6  0  0  0
 11  4  1  0  0  0  0
 12 14  2  0  0  0  0
 13 12  1  0  0  0  0
 14 16  1  0  0  0  0
 15 14  1  0  0  0  0
 16 17  1  0  0  0  0
 16 18  2  0  0  0  0
 18 19  1  0  0  0  0
 20 21  1  0  0  0  0
 20 23  1  0  0  0  0
 22 20  1  0  0  0  0
 23 24  1  6  0  0  0
 23  5  1  0  0  0  0
 24 26  2  0  0  0  0
 25 24  1  0  0  0  0
 26 28  1  0  0  0  0
 27 26  1  0  0  0  0
 28 30  2  0  0  0  0
 28 29  1  0  0  0  0
 30 31  1  0  0  0  0
 32  7  1  0  0  0  0
 32 35  1  0  0  0  0
 32 34  1  0  0  0  0
 33 32  1  0  0  0  0
 35 36  1  1  0  0  0
 35  6  1  0  0  0  0
 36 38  2  0  0  0  0
 37 36  1  0  0  0  0
 38 40  1  0  0  0  0
 39 38  1  0  0  0  0
 40 42  2  0  0  0  0
 40 41  1  0  0  0  0
 42 43  1  0  0  0  0
M  END
$$$$
