CSD_code = UMESEL | q = 0 | S = 0 | Stoichiometry = C24H21Cl2IrN6 | MND = 6
 OpenBabel04212202103D

 54 59  0  0  0  0  0  0  0  0999 V2000
    7.4394    4.3286    4.4991 N   0  0  0  0  0  4  0  0  0  0  0  0
    8.0129    4.7895    3.7786 H   0  0  0  0  0  0  0  0  0  0  0  0
    7.8994    3.4883    4.8480 H   0  0  0  0  0  0  0  0  0  0  0  0
    9.0822    4.4203    7.5546 N   0  0  0  0  0  4  0  0  0  0  0  0
    8.2123    4.0182    7.9230 H   0  0  0  0  0  0  0  0  0  0  0  0
    9.7516    3.6777    7.3778 H   0  0  0  0  0  0  0  0  0  0  0  0
    7.9405    6.9295    7.6880 N   0  0  0  0  0  0  0  0  0  0  0  0
    6.2989    7.2302    5.8172 C   0  0  0  0  0  0  0  0  0  0  0  0
    6.8443    5.4768    2.1833 N   0  0  0  0  0  0  0  0  0  0  0  0
    5.8505    4.6756    2.7096 C   0  0  0  0  0  0  0  0  0  0  0  0
    7.3166    8.0231    7.8146 N   0  0  0  0  0  2  0  0  0  0  0  0
    6.1922    4.0161    3.9064 C   0  0  0  0  0  0  0  0  0  0  0  0
    6.5346    6.2268    1.2091 N   0  0  0  0  0  0  0  0  0  0  0  0
    4.6062    4.4327    2.1178 C   0  0  0  0  0  0  0  0  0  0  0  0
    4.3697    4.9460    1.1983 H   0  0  0  0  0  0  0  0  0  0  0  0
    6.3982    8.2240    6.8279 C   0  0  0  0  0  0  0  0  0  0  0  0
    5.3027    3.1167    4.4734 C   0  0  0  0  0  0  0  0  0  0  0  0
    5.5619    2.6177    5.3943 H   0  0  0  0  0  0  0  0  0  0  0  0
    8.9727    6.6289    8.5655 C   0  0  0  0  0  0  0  0  0  0  0  0
    9.6110    5.3801    8.4472 C   0  0  0  0  0  0  0  0  0  0  0  0
    5.3583    7.4068    4.8220 C   0  0  0  0  0  0  0  0  0  0  0  0
    5.2377    6.6694    4.0441 H   0  0  0  0  0  0  0  0  0  0  0  0
    7.5187    7.0487    0.7125 C   0  0  0  0  0  0  0  0  0  0  0  0
    4.6668    9.5110    5.7974 C   0  0  0  0  0  0  0  0  0  0  0  0
    4.0281   10.3810    5.7679 H   0  0  0  0  0  0  0  0  0  0  0  0
    5.5836    9.3602    6.8131 C   0  0  0  0  0  0  0  0  0  0  0  0
    5.6882   10.0886    7.6016 H   0  0  0  0  0  0  0  0  0  0  0  0
    8.5879    7.5217    1.4853 C   0  0  0  0  0  0  0  0  0  0  0  0
    8.6698    7.2145    2.5172 H   0  0  0  0  0  0  0  0  0  0  0  0
    3.7272    3.5471    2.7018 C   0  0  0  0  0  0  0  0  0  0  0  0
    2.7669    3.3597    2.2451 H   0  0  0  0  0  0  0  0  0  0  0  0
    4.0757    2.8898    3.8754 C   0  0  0  0  0  0  0  0  0  0  0  0
    3.3856    2.1934    4.3268 H   0  0  0  0  0  0  0  0  0  0  0  0
    4.5557    8.5392    4.8091 C   0  0  0  0  0  0  0  0  0  0  0  0
    3.8337    8.6636    4.0154 H   0  0  0  0  0  0  0  0  0  0  0  0
    7.3715    7.4873   -0.6089 C   0  0  0  0  0  0  0  0  0  0  0  0
    6.5429    7.1145   -1.1919 H   0  0  0  0  0  0  0  0  0  0  0  0
    9.3585    8.8120   -0.3866 C   0  0  0  0  0  0  0  0  0  0  0  0
   10.0749    9.4972   -0.8158 H   0  0  0  0  0  0  0  0  0  0  0  0
    8.2978    8.3506   -1.1543 C   0  0  0  0  0  0  0  0  0  0  0  0
    8.1936    8.6738   -2.1798 H   0  0  0  0  0  0  0  0  0  0  0  0
    9.4930    8.4029    0.9321 C   0  0  0  0  0  0  0  0  0  0  0  0
   10.3104    8.7718    1.5336 H   0  0  0  0  0  0  0  0  0  0  0  0
    9.4443    7.5676    9.4858 C   0  0  0  0  0  0  0  0  0  0  0  0
    8.9284    8.5118    9.5583 H   0  0  0  0  0  0  0  0  0  0  0  0
   10.5592    7.2905   10.2478 C   0  0  0  0  0  0  0  0  0  0  0  0
   10.9246    8.0213   10.9523 H   0  0  0  0  0  0  0  0  0  0  0  0
   11.2263    6.0838   10.0891 C   0  0  0  0  0  0  0  0  0  0  0  0
   12.1138    5.8755   10.6669 H   0  0  0  0  0  0  0  0  0  0  0  0
   10.7530    5.1372    9.1984 C   0  0  0  0  0  0  0  0  0  0  0  0
   11.2705    4.1946    9.0849 H   0  0  0  0  0  0  0  0  0  0  0  0
    7.6130    5.7495    6.2131 Ir  0  0  0  0  0  0  0  0  0  0  0  0
    9.3394    6.7038    4.9894 Cl  0  0  0  0  0  0  0  0  0  0  0  0
    6.0230    4.5131    7.4420 Cl  0  0  0  0  0  0  0  0  0  0  0  0
  1  3  1  0  0  0  0
  1 52  1  0  0  0  0
  2  1  1  0  0  0  0
  4  5  1  0  0  0  0
  4 20  1  0  0  0  0
  6  4  1  0  0  0  0
  7 11  1  0  0  0  0
  7 19  1  0  0  0  0
  8 52  1  0  0  0  0
  8 16  1  0  0  0  0
  9 10  1  0  0  0  0
 10 12  1  0  0  0  0
 12 17  2  0  0  0  0
 12  1  1  0  0  0  0
 13  9  2  0  0  0  0
 14 30  1  0  0  0  0
 14 10  2  0  0  0  0
 15 14  1  0  0  0  0
 16 11  1  0  0  0  0
 17 18  1  0  0  0  0
 19 44  1  0  0  0  0
 20 19  2  0  0  0  0
 20 50  1  0  0  0  0
 21  8  2  0  0  0  0
 22 21  1  0  0  0  0
 23 13  1  0  0  0  0
 23 28  1  0  0  0  0
 24 26  1  0  0  0  0
 25 24  1  0  0  0  0
 26 16  2  0  0  0  0
 26 27  1  0  0  0  0
 28 29  1  0  0  0  0
 30 32  2  0  0  0  0
 31 30  1  0  0  0  0
 32 33  1  0  0  0  0
 32 17  1  0  0  0  0
 34 21  1  0  0  0  0
 34 24  2  0  0  0  0
 35 34  1  0  0  0  0
 36 23  2  0  0  0  0
 37 36  1  0  0  0  0
 38 42  1  0  0  0  0
 39 38  1  0  0  0  0
 40 36  1  0  0  0  0
 40 38  2  0  0  0  0
 41 40  1  0  0  0  0
 42 28  2  0  0  0  0
 42 43  1  0  0  0  0
 44 45  1  0  0  0  0
 44 46  2  0  0  0  0
 46 47  1  0  0  0  0
 48 46  1  0  0  0  0
 48 49  1  0  0  0  0
 50 48  2  0  0  0  0
 51 50  1  0  0  0  0
 52 54  1  0  0  0  0
 52  4  1  0  0  0  0
 52  7  1  0  0  0  0
 53 52  1  0  0  0  0
M  END
$$$$
