CSD_code = UMEXIT | q = 1 | S = 0 | Stoichiometry = C17H28Cl2CoN4O2(1+) | MND = 6
 OpenBabel04212202103D

 54 58  0  0  1  0  0  0  0  0999 V2000
    4.5943    5.2384    2.5731 Co  0  0  0  0  0  0  0  0  0  0  0  0
    2.9840    6.1560    1.4527 Cl  0  0  0  0  0  0  0  0  0  0  0  0
    3.9414    3.3016    1.8060 Cl  0  0  0  0  0  0  0  0  0  0  0  0
    3.6444    5.1302    4.3715 N   0  0  2  0  0  4  0  0  0  0  0  0
    3.7848    6.4517    5.0451 C   0  0  0  0  0  0  0  0  0  0  0  0
    2.8727    6.6911    5.5940 H   0  0  0  0  0  0  0  0  0  0  0  0
    4.5967    6.3954    5.7728 H   0  0  0  0  0  0  0  0  0  0  0  0
    4.1022    7.5449    4.0297 C   0  0  0  0  0  0  0  0  0  0  0  0
    3.2412    7.7320    3.3862 H   0  0  0  0  0  0  0  0  0  0  0  0
    4.3803    8.4757    4.5358 H   0  0  0  0  0  0  0  0  0  0  0  0
    5.1861    7.0270    3.1910 N   0  0  2  0  0  4  0  0  0  0  0  0
    6.0257    6.9698    3.7678 H   0  0  0  0  0  0  0  0  0  0  0  0
    5.5140    7.8173    2.0002 C   0  0  0  0  0  0  0  0  0  0  0  0
    6.0118    8.7583    2.2558 H   0  0  0  0  0  0  0  0  0  0  0  0
    4.5825    8.0359    1.4767 H   0  0  0  0  0  0  0  0  0  0  0  0
    6.4148    6.9449    1.1234 C   0  0  0  0  0  0  0  0  0  0  0  0
    6.4477    7.3460    0.1087 H   0  0  0  0  0  0  0  0  0  0  0  0
    7.4312    6.9556    1.5237 H   0  0  0  0  0  0  0  0  0  0  0  0
    5.9257    5.5426    1.1240 N   0  0  1  0  0  4  0  0  0  0  0  0
    5.4689    5.3549    0.2312 H   0  0  0  0  0  0  0  0  0  0  0  0
    7.0206    4.5708    1.3125 C   0  0  0  0  0  0  0  0  0  0  0  0
    7.9092    4.8581    0.7425 H   0  0  0  0  0  0  0  0  0  0  0  0
    6.6775    3.5973    0.9559 H   0  0  0  0  0  0  0  0  0  0  0  0
    7.3255    4.4644    2.8113 C   0  0  0  0  0  0  0  0  0  0  0  0
    8.0497    3.6646    2.9988 H   0  0  0  0  0  0  0  0  0  0  0  0
    7.7451    5.3972    3.1986 H   0  0  0  0  0  0  0  0  0  0  0  0
    6.0344    4.1999    3.4401 N   0  0  1  0  0  4  0  0  0  0  0  0
    5.7338    3.2701    3.1211 H   0  0  0  0  0  0  0  0  0  0  0  0
    5.8901    4.2210    4.8905 C   0  0  0  0  0  0  0  0  0  0  0  0
    6.3009    5.1510    5.2933 H   0  0  0  0  0  0  0  0  0  0  0  0
    6.4150    3.3886    5.3726 H   0  0  0  0  0  0  0  0  0  0  0  0
    4.3835    4.1019    5.1404 C   0  0  0  0  0  0  0  0  0  0  0  0
    4.0599    3.1244    4.7784 H   0  0  0  0  0  0  0  0  0  0  0  0
    4.1476    4.1757    6.2062 H   0  0  0  0  0  0  0  0  0  0  0  0
    2.2088    4.7581    4.2500 C   0  0  0  0  0  0  0  0  0  0  0  0
    2.1613    3.8195    3.6953 H   0  0  0  0  0  0  0  0  0  0  0  0
    1.7281    5.5311    3.6484 H   0  0  0  0  0  0  0  0  0  0  0  0
    1.4781    4.6122    5.5607 C   0  0  0  0  0  0  0  0  0  0  0  0
    1.5001    3.4099    6.2620 C   0  0  0  0  0  0  0  0  0  0  0  0
    2.0218    2.5568    5.8546 H   0  0  0  0  0  0  0  0  0  0  0  0
    0.8323    3.2786    7.4649 C   0  0  0  0  0  0  0  0  0  0  0  0
    0.8489    2.3429    7.9999 H   0  0  0  0  0  0  0  0  0  0  0  0
    0.1261    4.3568    7.9870 C   0  0  0  0  0  0  0  0  0  0  0  0
    0.0730    5.5521    7.2778 C   0  0  0  0  0  0  0  0  0  0  0  0
   -0.5025    6.3698    7.6834 H   0  0  0  0  0  0  0  0  0  0  0  0
    0.7373    5.6745    6.0726 C   0  0  0  0  0  0  0  0  0  0  0  0
    0.6497    6.5947    5.5119 H   0  0  0  0  0  0  0  0  0  0  0  0
   -0.6011    4.2775    9.2854 C   0  0  0  0  0  0  0  0  0  0  0  0
   -1.1404    5.2216    9.8041 O   0  0  0  0  0  0  0  0  0  0  0  0
   -0.5815    3.0475    9.8044 O   0  0  0  0  0  0  0  0  0  0  0  0
   -1.2607    2.8783   11.0429 C   0  0  0  0  0  0  0  0  0  0  0  0
   -1.3320    1.8066   11.2079 H   0  0  0  0  0  0  0  0  0  0  0  0
   -2.2530    3.3298   10.9951 H   0  0  0  0  0  0  0  0  0  0  0  0
   -0.6967    3.3520   11.8486 H   0  0  0  0  0  0  0  0  0  0  0  0
  1 11  1  0  0  0  0
  1 27  1  0  0  0  0
  1  4  1  0  0  0  0
  2  1  1  0  0  0  0
  3  1  1  0  0  0  0
  4 35  1  6  0  0  0
  4  5  1  0  0  0  0
  4 32  1  0  0  0  0
  5  6  1  0  0  0  0
  5  7  1  0  0  0  0
  8 10  1  0  0  0  0
  8  5  1  0  0  0  0
  9  8  1  0  0  0  0
 11 12  1  1  0  0  0
 11  8  1  0  0  0  0
 13 14  1  0  0  0  0
 13 11  1  0  0  0  0
 15 13  1  0  0  0  0
 16 19  1  0  0  0  0
 16 18  1  0  0  0  0
 16 13  1  0  0  0  0
 17 16  1  0  0  0  0
 19 20  1  6  0  0  0
 19 21  1  0  0  0  0
 19  1  1  0  0  0  0
 21 24  1  0  0  0  0
 22 21  1  0  0  0  0
 23 21  1  0  0  0  0
 24 25  1  0  0  0  0
 24 26  1  0  0  0  0
 24 27  1  0  0  0  0
 27 28  1  6  0  0  0
 27 29  1  0  0  0  0
 29 32  1  0  0  0  0
 29 30  1  0  0  0  0
 29 31  1  0  0  0  0
 32 34  1  0  0  0  0
 33 32  1  0  0  0  0
 35 38  1  0  0  0  0
 36 35  1  0  0  0  0
 37 35  1  0  0  0  0
 38 46  2  0  0  0  0
 38 39  1  0  0  0  0
 39 41  2  0  0  0  0
 40 39  1  0  0  0  0
 41 43  1  0  0  0  0
 41 42  1  0  0  0  0
 43 48  1  0  0  0  0
 44 45  1  0  0  0  0
 44 43  2  0  0  0  0
 46 44  1  0  0  0  0
 47 46  1  0  0  0  0
 48 49  2  0  0  0  0
 48 50  1  0  0  0  0
 50 51  1  0  0  0  0
 51 52  1  0  0  0  0
 51 54  1  0  0  0  0
 53 51  1  0  0  0  0
M  END
$$$$
