CSD_code = UMIMUA | q = 0 | S = 0 | Stoichiometry = C10H6Br2Cl2N2Pt | MND = 4
 OpenBabel04212202103D

 23 25  0  0  0  0  0  0  0  0999 V2000
   13.7427    3.6477    6.9974 C   0  0  0  0  0  0  0  0  0  0  0  0
   14.5840   -2.2436    7.7707 C   0  0  0  0  0  0  0  0  0  0  0  0
   15.2479   -2.8383    8.3869 H   0  0  0  0  0  0  0  0  0  0  0  0
   15.9790    0.0266    9.1115 Pt  0  0  0  0  0  0  0  0  0  0  0  0
   17.3401    1.2110   10.4203 Cl  0  0  0  0  0  0  0  0  0  0  0  0
   13.9185   -0.1049    7.1620 C   0  0  0  0  0  0  0  0  0  0  0  0
   14.7096   -0.9216    7.8985 N   0  0  0  0  0  0  0  0  0  0  0  0
   12.9741   -0.6242    6.2788 C   0  0  0  0  0  0  0  0  0  0  0  0
   12.3430    0.0253    5.6958 H   0  0  0  0  0  0  0  0  0  0  0  0
   13.6739   -2.8289    6.9166 C   0  0  0  0  0  0  0  0  0  0  0  0
   13.6023   -3.9012    6.8413 H   0  0  0  0  0  0  0  0  0  0  0  0
   12.8533   -1.9970    6.1588 C   0  0  0  0  0  0  0  0  0  0  0  0
   14.1406    1.3199    7.3763 C   0  0  0  0  0  0  0  0  0  0  0  0
   11.5762   -2.7323    4.9693 Br  0  0  0  0  0  0  0  0  0  0  0  0
   16.8819   -1.8330    9.9461 Cl  0  0  0  0  0  0  0  0  0  0  0  0
   15.0969    1.6162    8.2889 N   0  0  0  0  0  0  0  0  0  0  0  0
   15.3724    2.8939    8.5564 C   0  0  0  0  0  0  0  0  0  0  0  0
   16.1459    3.0606    9.2968 H   0  0  0  0  0  0  0  0  0  0  0  0
   13.4447    2.3275    6.7113 C   0  0  0  0  0  0  0  0  0  0  0  0
   12.6864    2.0917    5.9838 H   0  0  0  0  0  0  0  0  0  0  0  0
   14.7249    3.9429    7.9396 C   0  0  0  0  0  0  0  0  0  0  0  0
   14.9759    4.9622    8.1824 H   0  0  0  0  0  0  0  0  0  0  0  0
   12.8159    5.0394    6.1079 Br  0  0  0  0  0  0  0  0  0  0  0  0
  1 21  1  0  0  0  0
  2  7  1  0  0  0  0
  2  3  1  0  0  0  0
  4 15  1  0  0  0  0
  4  5  1  0  0  0  0
  6 13  2  0  0  0  0
  6  7  1  0  0  0  0
  7  4  1  0  0  0  0
  8  6  1  0  0  0  0
  9  8  1  0  0  0  0
 10  2  2  0  0  0  0
 11 10  1  0  0  0  0
 12  8  2  0  0  0  0
 12 10  1  0  0  0  0
 13 16  1  0  0  0  0
 14 12  1  0  0  0  0
 16 17  1  0  0  0  0
 16  4  1  0  0  0  0
 17 18  1  0  0  0  0
 19  1  2  0  0  0  0
 19 13  1  0  0  0  0
 20 19  1  0  0  0  0
 21 22  1  0  0  0  0
 21 17  2  0  0  0  0
 23  1  1  0  0  0  0
M  END
$$$$
