CSD_code = UMIREO | q = 0 | S = 0 | Stoichiometry = C16H15AuClPS2Si | MND = 2
 OpenBabel04212202103D

 37 40  0  0  0  0  0  0  0  0999 V2000
    3.5242    2.9991    5.9212 C   0  0  0  0  0  0  0  0  0  0  0  0
    3.5709    2.5208    6.8794 H   0  0  0  0  0  0  0  0  0  0  0  0
    2.7040    2.7232    4.8797 C   0  0  0  0  0  0  0  0  0  0  0  0
    1.9589    1.9455    4.8795 H   0  0  0  0  0  0  0  0  0  0  0  0
    2.9326    3.5887    3.7752 C   0  0  0  0  0  0  0  0  0  0  0  0
    3.9391    4.4948    3.9873 C   0  0  0  0  0  0  0  0  0  0  0  0
    3.1906    5.8236    1.5122 C   0  0  0  0  0  0  0  0  0  0  0  0
    2.1968    4.8946    1.3444 C   0  0  0  0  0  0  0  0  0  0  0  0
    1.3081    5.1983    0.2772 C   0  0  0  0  0  0  0  0  0  0  0  0
    0.4775    4.5711   -0.0000 H   0  0  0  0  0  0  0  0  0  0  0  0
    1.6268    6.3633   -0.3350 C   0  0  0  0  0  0  0  0  0  0  0  0
    1.1327    6.8429   -1.1565 H   0  0  0  0  0  0  0  0  0  0  0  0
    0.3189    3.3560    2.7583 C   0  0  0  0  0  0  0  0  0  0  0  0
   -0.5195    2.3042    2.4117 C   0  0  0  0  0  0  0  0  0  0  0  0
   -0.1245    1.4789    1.8319 H   0  0  0  0  0  0  0  0  0  0  0  0
   -1.8451    2.3232    2.8103 C   0  0  0  0  0  0  0  0  0  0  0  0
   -2.4991    1.5071    2.5418 H   0  0  0  0  0  0  0  0  0  0  0  0
   -2.3291    3.3881    3.5517 C   0  0  0  0  0  0  0  0  0  0  0  0
   -3.3633    3.4017    3.8618 H   0  0  0  0  0  0  0  0  0  0  0  0
   -1.4914    4.4383    3.8987 C   0  0  0  0  0  0  0  0  0  0  0  0
   -1.8739    5.2662    4.4773 H   0  0  0  0  0  0  0  0  0  0  0  0
   -0.1680    4.4267    3.5041 C   0  0  0  0  0  0  0  0  0  0  0  0
    0.4978    5.2387    3.7660 H   0  0  0  0  0  0  0  0  0  0  0  0
    6.1917    5.1580    1.9544 C   0  0  0  0  0  0  0  0  0  0  0  0
    6.0534    4.1853    1.4893 H   0  0  0  0  0  0  0  0  0  0  0  0
    6.9883    5.0658    2.6865 H   0  0  0  0  0  0  0  0  0  0  0  0
    6.5255    5.8489    1.1861 H   0  0  0  0  0  0  0  0  0  0  0  0
    4.7761    7.4608    3.6188 C   0  0  0  0  0  0  0  0  0  0  0  0
    5.5283    7.4141    4.3997 H   0  0  0  0  0  0  0  0  0  0  0  0
    3.8478    7.7955    4.0728 H   0  0  0  0  0  0  0  0  0  0  0  0
    5.0853    8.2159    2.9033 H   0  0  0  0  0  0  0  0  0  0  0  0
    4.5867    5.7719    2.7696 Si  0  0  0  0  0  0  0  0  0  0  0  0
    2.0531    3.3410    2.2310 P   0  0  0  0  0  4  0  0  0  0  0  0
    2.6833    1.5302    1.0694 Au  0  0  0  0  0  0  0  0  0  0  0  0
    3.2703   -0.3179   -0.0978 Cl  0  0  0  0  0  0  0  0  0  0  0  0
    4.5942    4.2994    5.5730 S   0  0  0  0  0  0  0  0  0  0  0  0
    3.0153    7.0998    0.3622 S   0  0  0  0  0  0  0  0  0  0  0  0
  1  2  1  0  0  0  0
  3  1  2  0  0  0  0
  4  3  1  0  0  0  0
  5  6  2  0  0  0  0
  5  3  1  0  0  0  0
  6 36  1  0  0  0  0
  7 32  1  0  0  0  0
  8  7  2  0  0  0  0
  8 33  1  0  0  0  0
  9  8  1  0  0  0  0
 10  9  1  0  0  0  0
 11  9  2  0  0  0  0
 11 37  1  0  0  0  0
 12 11  1  0  0  0  0
 13 22  1  0  0  0  0
 14 13  2  0  0  0  0
 14 16  1  0  0  0  0
 15 14  1  0  0  0  0
 16 18  2  0  0  0  0
 17 16  1  0  0  0  0
 18 19  1  0  0  0  0
 18 20  1  0  0  0  0
 20 21  1  0  0  0  0
 22 23  1  0  0  0  0
 22 20  2  0  0  0  0
 24 26  1  0  0  0  0
 24 32  1  0  0  0  0
 25 24  1  0  0  0  0
 27 24  1  0  0  0  0
 28 30  1  0  0  0  0
 28 29  1  0  0  0  0
 31 28  1  0  0  0  0
 32 28  1  0  0  0  0
 32  6  1  0  0  0  0
 33 13  1  0  0  0  0
 33  5  1  0  0  0  0
 34 33  1  0  0  0  0
 35 34  1  0  0  0  0
 36  1  1  0  0  0  0
 37  7  1  0  0  0  0
M  END
$$$$
