CSD_code = UMOBII | q = 0 | S = 0 | Stoichiometry = C4H16Cl2N2O2Pt | MND = 6
 OpenBabel04212202103D

 27 26  0  0  0  0  0  0  0  0999 V2000
    0.0350    0.1240    4.1026 Pt  0  0  0  0  0  0  0  0  0  0  0  0
   -0.4290   -1.9386    3.0720 Cl  0  0  0  0  0  0  0  0  0  0  0  0
    0.5060    2.1896    5.1201 Cl  0  0  0  0  0  0  0  0  0  0  0  0
   -1.6156    0.8776    3.1597 O   0  0  0  0  0  0  0  0  0  0  0  0
   -1.9219    0.2140    2.5352 H   0  0  0  0  0  0  0  0  0  0  0  0
    1.6350   -0.6559    5.0918 O   0  0  0  0  0  0  0  0  0  0  0  0
    1.9441    0.0079    5.7145 H   0  0  0  0  0  0  0  0  0  0  0  0
    1.5009    0.5549    2.7154 N   0  0  0  0  0  4  0  0  0  0  0  0
    1.9338    1.4375    3.0134 H   0  0  0  0  0  0  0  0  0  0  0  0
    2.1756   -0.1989    2.9048 H   0  0  0  0  0  0  0  0  0  0  0  0
    1.1899    0.6334    1.2757 C   0  0  0  0  0  0  0  0  0  0  0  0
    0.5585   -0.2277    1.0284 H   0  0  0  0  0  0  0  0  0  0  0  0
    2.4837    0.5578    0.4673 C   0  0  0  0  0  0  0  0  0  0  0  0
    2.2588    0.6104   -0.5940 H   0  0  0  0  0  0  0  0  0  0  0  0
    3.0067   -0.3768    0.6579 H   0  0  0  0  0  0  0  0  0  0  0  0
    3.1420    1.3875    0.7185 H   0  0  0  0  0  0  0  0  0  0  0  0
    0.4314    1.9266    1.0088 C   0  0  0  0  0  0  0  0  0  0  0  0
   -0.4308    1.9880    1.6724 H   0  0  0  0  0  0  0  0  0  0  0  0
    0.0835    1.9570   -0.0192 H   0  0  0  0  0  0  0  0  0  0  0  0
    1.0724    2.7882    1.1848 H   0  0  0  0  0  0  0  0  0  0  0  0
   -1.3832   -0.3566    5.5156 N   0  0  0  0  0  4  0  0  0  0  0  0
   -2.1558    0.2868    5.2991 H   0  0  0  0  0  0  0  0  0  0  0  0
   -1.6877   -1.3087    5.2863 H   0  0  0  0  0  0  0  0  0  0  0  0
   -0.9961   -0.2747    6.9250 C   0  0  0  0  0  0  0  0  0  0  0  0
   -1.8221   -0.5690    7.5774 H   0  0  0  0  0  0  0  0  0  0  0  0
   -0.7001    0.7472    7.1612 H   0  0  0  0  0  0  0  0  0  0  0  0
   -0.1478   -0.9372    7.0982 H   0  0  0  0  0  0  0  0  0  0  0  0
  1  6  1  0  0  0  0
  1  3  1  0  0  0  0
  1 21  1  0  0  0  0
  2  1  1  0  0  0  0
  4  1  1  0  0  0  0
  5  4  1  0  0  0  0
  6  7  1  0  0  0  0
  8 10  1  0  0  0  0
  8  9  1  0  0  0  0
  8  1  1  0  0  0  0
 11  8  1  0  0  0  0
 12 11  1  0  0  0  0
 13 15  1  0  0  0  0
 13 16  1  0  0  0  0
 13 11  1  0  0  0  0
 14 13  1  0  0  0  0
 17 20  1  0  0  0  0
 17 11  1  0  0  0  0
 17 18  1  0  0  0  0
 19 17  1  0  0  0  0
 21 24  1  0  0  0  0
 22 21  1  0  0  0  0
 23 21  1  0  0  0  0
 24 27  1  0  0  0  0
 24 26  1  0  0  0  0
 24 25  1  0  0  0  0
M  END
$$$$
