CSD_code = UMODUV | q = 0 | S = 0 | Stoichiometry = C14H18Cl2N2Pd | MND = 4
 OpenBabel04212202103D

 37 38  0  0  0  0  0  0  0  0999 V2000
   -0.0003    0.0001   -0.0001 Pd  0  0  0  0  0  0  0  0  0  0  0  0
   -1.7286   -1.4640    0.3241 Cl  0  0  0  0  0  0  0  0  0  0  0  0
   -0.0777    0.5068    1.8686 N   0  0  0  0  0  0  0  0  0  0  0  0
   -0.6143    1.6720    2.2240 C   0  0  0  0  0  3  0  0  0  0  0  0
   -0.9861    2.2958    1.4107 H   0  0  0  0  0  0  0  0  0  0  0  0
   -0.7005    2.0981    3.5405 C   0  0  0  0  0  0  0  0  0  0  0  0
   -0.1953    1.2572    4.5417 C   0  0  0  0  0  0  0  0  0  0  0  0
    0.3619    0.0454    4.1503 C   0  0  0  0  0  0  0  0  0  0  0  0
    0.7623   -0.6322    4.8886 H   0  0  0  0  0  0  0  0  0  0  0  0
    0.4039   -0.2977    2.8123 C   0  0  0  0  0  0  0  0  0  0  0  0
    0.8268   -1.2436    2.4774 H   0  0  0  0  0  0  0  0  0  0  0  0
   -1.3142    3.4194    3.8720 C   0  0  0  0  0  0  0  0  0  0  0  0
   -1.6418    3.9291    2.9705 H   0  0  0  0  0  0  0  0  0  0  0  0
   -0.5943    4.0528    4.3885 H   0  0  0  0  0  0  0  0  0  0  0  0
   -2.1717    3.2862    4.5303 H   0  0  0  0  0  0  0  0  0  0  0  0
   -0.2538    1.6511    5.9802 C   0  0  0  0  0  0  0  0  0  0  0  0
    0.1802    0.8801    6.6107 H   0  0  0  0  0  0  0  0  0  0  0  0
   -1.2862    1.8149    6.2869 H   0  0  0  0  0  0  0  0  0  0  0  0
    0.2887    2.5820    6.1407 H   0  0  0  0  0  0  0  0  0  0  0  0
    1.7284    1.4642   -0.3240 Cl  0  0  0  0  0  0  0  0  0  0  0  0
    0.0774   -0.5068   -1.8687 N   0  0  0  0  0  0  0  0  0  0  0  0
    0.6141   -1.6719   -2.2240 C   0  0  0  0  0  3  0  0  0  0  0  0
    0.9858   -2.2957   -1.4106 H   0  0  0  0  0  0  0  0  0  0  0  0
    0.7004   -2.0981   -3.5405 C   0  0  0  0  0  0  0  0  0  0  0  0
    0.1954   -1.2572   -4.5418 C   0  0  0  0  0  0  0  0  0  0  0  0
   -0.3619   -0.0454   -4.1504 C   0  0  0  0  0  0  0  0  0  0  0  0
   -0.7623    0.6322   -4.8888 H   0  0  0  0  0  0  0  0  0  0  0  0
   -0.4041    0.2977   -2.8125 C   0  0  0  0  0  0  0  0  0  0  0  0
   -0.8270    1.2436   -2.4776 H   0  0  0  0  0  0  0  0  0  0  0  0
    0.2541   -1.6512   -5.9803 C   0  0  0  0  0  0  0  0  0  0  0  0
   -0.1799   -0.8803   -6.6108 H   0  0  0  0  0  0  0  0  0  0  0  0
    1.2865   -1.8149   -6.2868 H   0  0  0  0  0  0  0  0  0  0  0  0
   -0.2883   -2.5822   -6.1407 H   0  0  0  0  0  0  0  0  0  0  0  0
    1.3142   -3.4193   -3.8718 C   0  0  0  0  0  0  0  0  0  0  0  0
    1.6418   -3.9290   -2.9703 H   0  0  0  0  0  0  0  0  0  0  0  0
    0.5945   -4.0528   -4.3884 H   0  0  0  0  0  0  0  0  0  0  0  0
    2.1718   -3.2862   -4.5300 H   0  0  0  0  0  0  0  0  0  0  0  0
  1  2  1  0  0  0  0
  1  3  1  0  0  0  0
  3  4  1  0  0  0  0
  3 10  1  0  0  0  0
  4  6  1  0  0  0  0
  5  4  1  0  0  0  0
  6 12  1  0  0  0  0
  6  7  2  0  0  0  0
  7 16  1  0  0  0  0
  8  7  1  0  0  0  0
  8  9  1  0  0  0  0
 10  8  2  0  0  0  0
 11 10  1  0  0  0  0
 12 14  1  0  0  0  0
 12 15  1  0  0  0  0
 13 12  1  0  0  0  0
 16 19  1  0  0  0  0
 16 18  1  0  0  0  0
 16 17  1  0  0  0  0
 20  1  1  0  0  0  0
 21  1  1  0  0  0  0
 22 21  1  0  0  0  0
 22 23  1  0  0  0  0
 24 22  1  0  0  0  0
 25 26  1  0  0  0  0
 25 24  2  0  0  0  0
 26 28  2  0  0  0  0
 27 26  1  0  0  0  0
 28 29  1  0  0  0  0
 28 21  1  0  0  0  0
 30 25  1  0  0  0  0
 31 30  1  0  0  0  0
 32 30  1  0  0  0  0
 33 30  1  0  0  0  0
 34 24  1  0  0  0  0
 34 35  1  0  0  0  0
 36 34  1  0  0  0  0
 37 34  1  0  0  0  0
M  END
$$$$
