CSD_code = UMOZEC | q = 0 | S = 0 | Stoichiometry = C26H30IN5Pd | MND = 4
 OpenBabel04212202103D

 63 68  0  0  1  0  0  0  0  0999 V2000
   26.1516    3.5863    7.5430 Pd  0  0  2  0  0  0  0  0  0  0  0  0
   26.2863    6.1847    7.3823 I   0  0  0  0  0  0  0  0  0  0  0  0
   26.0114    1.5781    7.7771 N   0  0  0  0  0  0  0  0  0  0  0  0
   28.2216    2.4525    9.2931 N   0  0  0  0  0  0  0  0  0  0  0  0
   29.2455    3.7251    7.8869 N   0  0  0  0  0  0  0  0  0  0  0  0
   23.9858    2.3874    5.9927 N   0  0  0  0  0  0  0  0  0  0  0  0
   23.0850    4.0128    7.0829 N   0  0  0  0  0  0  0  0  0  0  0  0
   26.2513    1.0507    9.0105 C   0  0  0  0  0  0  0  0  0  0  0  0
   27.2556    1.5846    9.8528 C   0  0  0  0  0  0  0  0  0  0  0  0
   27.3808    1.1596   11.1651 C   0  0  0  0  0  0  0  0  0  0  0  0
   28.1295    1.6118   11.7998 H   0  0  0  0  0  0  0  0  0  0  0  0
   26.5620    0.1610   11.6598 C   0  0  0  0  0  0  0  0  0  0  0  0
   26.6605   -0.1597   12.6850 H   0  0  0  0  0  0  0  0  0  0  0  0
   25.6307   -0.4359   10.8215 C   0  0  0  0  0  0  0  0  0  0  0  0
   25.0084   -1.2372   11.1924 H   0  0  0  0  0  0  0  0  0  0  0  0
   25.4757   -0.0020    9.5242 C   0  0  0  0  0  0  0  0  0  0  0  0
   24.7332   -0.4510    8.8788 H   0  0  0  0  0  0  0  0  0  0  0  0
   28.0182    3.3316    8.2864 C   0  0  1  0  0  3  0  0  0  0  0  0
   29.5672    2.3228    9.5388 C   0  0  0  0  0  0  0  0  0  0  0  0
   29.9544    1.6683   10.2914 H   0  0  0  0  0  0  0  0  0  0  0  0
   30.2053    3.1175    8.6506 C   0  0  0  0  0  0  0  0  0  0  0  0
   31.2507    3.3004    8.5084 H   0  0  0  0  0  0  0  0  0  0  0  0
   25.7333    0.8343    6.6741 C   0  0  0  0  0  0  0  0  0  0  0  0
   26.3727   -0.3935    6.4278 C   0  0  0  0  0  0  0  0  0  0  0  0
   27.0212   -0.7945    7.1947 H   0  0  0  0  0  0  0  0  0  0  0  0
   26.2089   -1.0582    5.2335 C   0  0  0  0  0  0  0  0  0  0  0  0
   26.7284   -1.9907    5.0684 H   0  0  0  0  0  0  0  0  0  0  0  0
   25.4027   -0.5302    4.2348 C   0  0  0  0  0  0  0  0  0  0  0  0
   25.3006   -1.0367    3.2879 H   0  0  0  0  0  0  0  0  0  0  0  0
   24.7102    0.6438    4.4712 C   0  0  0  0  0  0  0  0  0  0  0  0
   24.0544    1.0482    3.7132 H   0  0  0  0  0  0  0  0  0  0  0  0
   24.8435    1.3082    5.6788 C   0  0  0  0  0  0  0  0  0  0  0  0
   24.2613    3.4033    6.8437 C   0  0  0  0  0  0  0  0  0  0  0  0
   22.6475    2.3884    5.6818 C   0  0  0  0  0  0  0  0  0  0  0  0
   22.2050    1.6583    5.0367 H   0  0  0  0  0  0  0  0  0  0  0  0
   22.0862    3.4094    6.3675 C   0  0  0  0  0  0  0  0  0  0  0  0
   21.0694    3.7412    6.4105 H   0  0  0  0  0  0  0  0  0  0  0  0
   29.5437    4.5327    6.7288 C   0  0  0  0  0  0  0  0  0  0  0  0
   30.5294    4.9820    6.8725 H   0  0  0  0  0  0  0  0  0  0  0  0
   28.8045    5.3317    6.6529 H   0  0  0  0  0  0  0  0  0  0  0  0
   29.5315    3.7098    5.4340 C   0  0  0  0  0  0  0  0  0  0  0  0
   29.7684    4.3913    4.6147 H   0  0  0  0  0  0  0  0  0  0  0  0
   30.3133    2.9460    5.4736 H   0  0  0  0  0  0  0  0  0  0  0  0
   28.1841    3.0385    5.1591 C   0  0  0  0  0  0  0  0  0  0  0  0
   27.3655    3.7755    5.2846 H   0  0  0  0  0  0  0  0  0  0  0  0
   28.0362    2.2109    5.8663 H   0  0  0  0  0  0  0  0  0  0  0  0
   28.1197    2.4708    3.7461 C   0  0  0  0  0  0  0  0  0  0  0  0
   28.2078    3.2654    3.0083 H   0  0  0  0  0  0  0  0  0  0  0  0
   27.1759    1.9540    3.5891 H   0  0  0  0  0  0  0  0  0  0  0  0
   28.9279    1.7600    3.5842 H   0  0  0  0  0  0  0  0  0  0  0  0
   22.8592    5.0884    8.0192 C   0  0  0  0  0  0  0  0  0  0  0  0
   23.7718    5.2089    8.6150 H   0  0  0  0  0  0  0  0  0  0  0  0
   22.0457    4.7964    8.6926 H   0  0  0  0  0  0  0  0  0  0  0  0
   22.5094    6.3979    7.3135 C   0  0  0  0  0  0  0  0  0  0  0  0
   23.2828    6.6235    6.5778 H   0  0  0  0  0  0  0  0  0  0  0  0
   21.5588    6.2893    6.7851 H   0  0  0  0  0  0  0  0  0  0  0  0
   22.4202    7.5521    8.3068 C   0  0  0  0  0  0  0  0  0  0  0  0
   23.3822    7.6575    8.8105 H   0  0  0  0  0  0  0  0  0  0  0  0
   21.6625    7.3288    9.0622 H   0  0  0  0  0  0  0  0  0  0  0  0
   22.0789    8.8607    7.6071 C   0  0  0  0  0  0  0  0  0  0  0  0
   22.8473    9.1043    6.8780 H   0  0  0  0  0  0  0  0  0  0  0  0
   22.0195    9.6724    8.3273 H   0  0  0  0  0  0  0  0  0  0  0  0
   21.1228    8.7862    7.0927 H   0  0  0  0  0  0  0  0  0  0  0  0
  1  2  1  1  0  0  0
  1  3  1  0  0  0  0
  1 18  1  0  0  0  0
  3  8  1  0  0  0  0
  4 19  1  0  0  0  0
  4  9  1  0  0  0  0
  5 21  1  0  0  0  0
  6 33  1  0  0  0  0
  7 51  1  0  0  0  0
  8 16  2  0  0  0  0
  8  9  1  0  0  0  0
  9 10  2  0  0  0  0
 10 12  1  0  0  0  0
 10 11  1  0  0  0  0
 12 13  1  0  0  0  0
 14 15  1  0  0  0  0
 14 12  2  0  0  0  0
 16 14  1  0  0  0  0
 17 16  1  0  0  0  0
 18  5  1  6  0  0  0
 18  4  1  0  0  0  0
 19 20  1  0  0  0  0
 21 19  2  0  0  0  0
 22 21  1  0  0  0  0
 23  3  1  0  0  0  0
 24 23  1  0  0  0  0
 24 25  1  0  0  0  0
 26 24  2  0  0  0  0
 27 26  1  0  0  0  0
 28 30  2  0  0  0  0
 28 26  1  0  0  0  0
 29 28  1  0  0  0  0
 30 32  1  0  0  0  0
 31 30  1  0  0  0  0
 32  6  1  0  0  0  0
 32 23  2  0  0  0  0
 33  7  1  0  0  0  0
 33  1  2  0  0  0  0
 34  6  1  0  0  0  0
 34 36  2  0  0  0  0
 35 34  1  0  0  0  0
 36 37  1  0  0  0  0
 36  7  1  0  0  0  0
 38 39  1  0  0  0  0
 38  5  1  0  0  0  0
 40 38  1  0  0  0  0
 41 43  1  0  0  0  0
 41 38  1  0  0  0  0
 42 41  1  0  0  0  0
 44 45  1  0  0  0  0
 44 41  1  0  0  0  0
 44 46  1  0  0  0  0
 47 44  1  0  0  0  0
 48 47  1  0  0  0  0
 49 47  1  0  0  0  0
 50 47  1  0  0  0  0
 51 52  1  0  0  0  0
 51 53  1  0  0  0  0
 54 51  1  0  0  0  0
 54 57  1  0  0  0  0
 55 54  1  0  0  0  0
 56 54  1  0  0  0  0
 57 58  1  0  0  0  0
 57 59  1  0  0  0  0
 60 57  1  0  0  0  0
 60 62  1  0  0  0  0
 61 60  1  0  0  0  0
 63 60  1  0  0  0  0
M  END
$$$$
