CSD_code = UNADUJ | q = 0 | S = 0 | Stoichiometry = C14H17ClN2OPd | MND = 4
 OpenBabel04212202103D

 36 38  0  0  1  0  0  0  0  0999 V2000
    6.5379    8.8194    4.0486 Cl  0  0  0  0  0  0  0  0  0  0  0  0
    7.9038    7.1890    5.0057 Pd  0  0  1  0  0  0  0  0  0  0  0  0
   10.4878    2.6510    6.5444 O   0  0  0  0  0  0  0  0  0  0  0  0
    6.5836    5.8448    4.5973 N   0  0  0  0  0  0  0  0  0  0  0  0
    9.3282    8.6091    5.4431 N   0  0  0  0  0  4  0  0  0  0  0  0
   10.0956    8.5791    4.7674 H   0  0  0  0  0  0  0  0  0  0  0  0
    8.9104    9.5441    5.4194 H   0  0  0  0  0  0  0  0  0  0  0  0
    6.3878    5.5390    3.3125 C   0  0  0  0  0  3  0  0  0  0  0  0
    7.1187    5.9303    2.6055 H   0  0  0  0  0  0  0  0  0  0  0  0
    5.3115    4.7813    2.8890 C   0  0  0  0  0  0  0  0  0  0  0  0
    5.1862    4.5615    1.8406 H   0  0  0  0  0  0  0  0  0  0  0  0
    4.3989    4.3232    3.8282 C   0  0  0  0  0  0  0  0  0  0  0  0
    3.5446    3.7361    3.5283 H   0  0  0  0  0  0  0  0  0  0  0  0
    4.6092    4.6415    5.1614 C   0  0  0  0  0  0  0  0  0  0  0  0
    3.9249    4.3097    5.9262 H   0  0  0  0  0  0  0  0  0  0  0  0
    5.7132    5.4013    5.5046 C   0  0  0  0  0  0  0  0  0  0  0  0
    5.9147    5.6668    6.5397 H   0  0  0  0  0  0  0  0  0  0  0  0
    9.7955    8.2473    6.7944 C   0  0  2  0  0  0  0  0  0  0  0  0
   10.6944    8.8183    7.0768 H   0  0  0  0  0  0  0  0  0  0  0  0
   10.0663    6.7580    6.7719 C   0  0  0  0  0  0  0  0  0  0  0  0
    9.2090    5.9944    5.9561 C   0  0  0  0  0  0  0  0  0  0  0  0
    9.4019    4.6249    5.9184 C   0  0  0  0  0  0  0  0  0  0  0  0
    8.7790    3.9818    5.3093 H   0  0  0  0  0  0  0  0  0  0  0  0
   10.4103    4.0108    6.6692 C   0  0  0  0  0  0  0  0  0  0  0  0
   11.4798    1.9670    7.2669 C   0  0  0  0  0  0  0  0  0  0  0  0
   12.4853    2.2928    6.9798 H   0  0  0  0  0  0  0  0  0  0  0  0
   11.3582    0.9148    7.0135 H   0  0  0  0  0  0  0  0  0  0  0  0
   11.3525    2.0948    8.3473 H   0  0  0  0  0  0  0  0  0  0  0  0
   11.2431    4.7820    7.4678 C   0  0  0  0  0  0  0  0  0  0  0  0
   12.0297    4.3349    8.0551 H   0  0  0  0  0  0  0  0  0  0  0  0
   11.0652    6.1571    7.5122 C   0  0  0  0  0  0  0  0  0  0  0  0
   11.7184    6.7551    8.1337 H   0  0  0  0  0  0  0  0  0  0  0  0
    8.6576    8.5600    7.7718 C   0  0  0  0  0  0  0  0  0  0  0  0
    7.7395    8.0621    7.4116 H   0  0  0  0  0  0  0  0  0  0  0  0
    8.4793    9.6328    7.8313 H   0  0  0  0  0  0  0  0  0  0  0  0
    8.8978    8.1873    8.7642 H   0  0  0  0  0  0  0  0  0  0  0  0
  2  1  1  1  0  0  0
  2  5  1  0  0  0  0
  2 21  1  0  0  0  0
  3 24  1  0  0  0  0
  3 25  1  0  0  0  0
  4  2  1  0  0  0  0
  4 16  1  0  0  0  0
  5 18  1  0  0  0  0
  6  5  1  0  0  0  0
  7  5  1  0  0  0  0
  8  4  1  0  0  0  0
  9  8  1  0  0  0  0
 10  8  1  0  0  0  0
 10 12  2  0  0  0  0
 11 10  1  0  0  0  0
 12 14  1  0  0  0  0
 13 12  1  0  0  0  0
 14 16  2  0  0  0  0
 14 15  1  0  0  0  0
 16 17  1  0  0  0  0
 18 19  1  1  0  0  0
 18 33  1  0  0  0  0
 20 18  1  0  0  0  0
 20 31  1  0  0  0  0
 21 20  2  0  0  0  0
 22 21  1  0  0  0  0
 22 24  2  0  0  0  0
 23 22  1  0  0  0  0
 24 29  1  0  0  0  0
 25 28  1  0  0  0  0
 26 25  1  0  0  0  0
 27 25  1  0  0  0  0
 29 31  2  0  0  0  0
 29 30  1  0  0  0  0
 31 32  1  0  0  0  0
 33 35  1  0  0  0  0
 33 36  1  0  0  0  0
 34 33  1  0  0  0  0
M  END
$$$$
