CSD_code = UNADOD | q = 0 | S = 0 | Stoichiometry = C14H17ClN2OPd | MND = 4
 OpenBabel04212202103D

 36 38  0  0  1  0  0  0  0  0999 V2000
    0.0766   18.5830    7.4839 Pd  0  0  2  0  0  0  0  0  0  0  0  0
   -0.0151   16.8877    9.0835 Cl  0  0  0  0  0  0  0  0  0  0  0  0
   -0.2955   23.2902    4.6247 O   0  0  0  0  0  0  0  0  0  0  0  0
    0.0213   17.2004    5.9896 N   0  0  0  0  0  4  0  0  0  0  0  0
    0.4197   16.3104    6.3030 H   0  0  0  0  0  0  0  0  0  0  0  0
   -0.9764   17.0440    5.8030 H   0  0  0  0  0  0  0  0  0  0  0  0
    0.1236   19.8697    8.9267 N   0  0  0  0  0  0  0  0  0  0  0  0
    0.6764   17.7092    4.7634 C   0  0  1  0  0  0  0  0  0  0  0  0
    1.7586   17.5511    4.8854 H   0  0  0  0  0  0  0  0  0  0  0  0
    0.1911   16.9293    3.5416 C   0  0  0  0  0  0  0  0  0  0  0  0
    0.2916   15.8583    3.7132 H   0  0  0  0  0  0  0  0  0  0  0  0
    0.7768   17.1831    2.6633 H   0  0  0  0  0  0  0  0  0  0  0  0
   -0.8534   17.1582    3.3374 H   0  0  0  0  0  0  0  0  0  0  0  0
    0.4063   19.2035    4.7017 C   0  0  0  0  0  0  0  0  0  0  0  0
    0.1419   19.8469    5.9217 C   0  0  0  0  0  0  0  0  0  0  0  0
   -0.1020   21.2179    5.9120 C   0  0  0  0  0  0  0  0  0  0  0  0
   -0.3117   21.7238    6.8463 H   0  0  0  0  0  0  0  0  0  0  0  0
   -0.0717   21.9439    4.7247 C   0  0  0  0  0  0  0  0  0  0  0  0
    0.2063   21.2891    3.5274 C   0  0  0  0  0  0  0  0  0  0  0  0
    0.2306   21.8657    2.6165 H   0  0  0  0  0  0  0  0  0  0  0  0
    0.4432   19.9299    3.5199 C   0  0  0  0  0  0  0  0  0  0  0  0
    0.6594   19.4419    2.5811 H   0  0  0  0  0  0  0  0  0  0  0  0
   -0.5897   24.0115    5.7927 C   0  0  0  0  0  0  0  0  0  0  0  0
   -1.5092   23.6531    6.2683 H   0  0  0  0  0  0  0  0  0  0  0  0
   -0.7297   25.0439    5.4747 H   0  0  0  0  0  0  0  0  0  0  0  0
    0.2326   23.9654    6.5151 H   0  0  0  0  0  0  0  0  0  0  0  0
    1.2636   20.0492    9.5966 C   0  0  0  0  0  3  0  0  0  0  0  0
    2.1677   19.6760    9.1181 H   0  0  0  0  0  0  0  0  0  0  0  0
    1.3051   20.6639   10.8348 C   0  0  0  0  0  0  0  0  0  0  0  0
    2.2467   20.7819   11.3471 H   0  0  0  0  0  0  0  0  0  0  0  0
    0.1217   21.1102   11.4050 C   0  0  0  0  0  0  0  0  0  0  0  0
    0.1201   21.5858   12.3737 H   0  0  0  0  0  0  0  0  0  0  0  0
   -1.0604   20.9230   10.7040 C   0  0  0  0  0  0  0  0  0  0  0  0
   -2.0048   21.2468   11.1123 H   0  0  0  0  0  0  0  0  0  0  0  0
   -1.0169   20.3005    9.4694 C   0  0  0  0  0  0  0  0  0  0  0  0
   -1.9221   20.1289    8.8889 H   0  0  0  0  0  0  0  0  0  0  0  0
  1  7  1  0  0  0  0
  1  2  1  6  0  0  0
  3 18  1  0  0  0  0
  3 23  1  0  0  0  0
  4  5  1  0  0  0  0
  4  1  1  0  0  0  0
  6  4  1  0  0  0  0
  7 35  1  0  0  0  0
  7 27  1  0  0  0  0
  8  9  1  1  0  0  0
  8  4  1  0  0  0  0
 10 11  1  0  0  0  0
 10  8  1  0  0  0  0
 12 10  1  0  0  0  0
 13 10  1  0  0  0  0
 14  8  1  0  0  0  0
 14 15  1  0  0  0  0
 15  1  1  0  0  0  0
 16 15  2  0  0  0  0
 16 17  1  0  0  0  0
 18 16  1  0  0  0  0
 19 18  2  0  0  0  0
 20 19  1  0  0  0  0
 21 19  1  0  0  0  0
 21 14  2  0  0  0  0
 22 21  1  0  0  0  0
 23 24  1  0  0  0  0
 23 26  1  0  0  0  0
 25 23  1  0  0  0  0
 27 29  1  0  0  0  0
 28 27  1  0  0  0  0
 29 30  1  0  0  0  0
 29 31  2  0  0  0  0
 31 32  1  0  0  0  0
 33 34  1  0  0  0  0
 33 31  1  0  0  0  0
 35 33  2  0  0  0  0
 36 35  1  0  0  0  0
M  END
$$$$
