CSD_code = UNIVOE | q = 0 | S = 0 | Stoichiometry = C21H36BF2IN2P2Pt | MND = 4
 OpenBabel04212202103D

 66 68  0  0  0  0  0  0  0  0999 V2000
    6.7419   11.6300   10.3852 Pt  0  0  0  0  0  0  0  0  0  0  0  0
    6.7423   13.0545    8.1675 I   0  0  0  0  0  0  0  0  0  0  0  0
    6.7419    8.3060   13.0529 N   0  0  0  0  0  0  0  0  0  0  0  0
    6.7420   10.3380   14.4712 N   0  0  0  0  0  0  0  0  0  0  0  0
    6.7420    8.7959   14.5152 B   0  0  0  0  0  0  0  0  0  0  0  0
    5.6088    8.3427   15.1650 F   0  0  0  0  0  0  0  0  0  0  0  0
    6.7416   10.5264   12.0432 C   0  0  0  0  0  0  0  0  0  0  0  0
    6.7417    9.1311   11.9475 C   0  0  0  0  0  0  0  0  0  0  0  0
    6.7418    8.3094   10.8029 C   0  0  0  0  0  0  0  0  0  0  0  0
    6.7417    8.6609    9.7880 H   0  0  0  0  0  0  0  0  0  0  0  0
    6.7418    6.9988   11.2395 C   0  0  0  0  0  0  0  0  0  0  0  0
    6.7417    6.1118   10.6369 H   0  0  0  0  0  0  0  0  0  0  0  0
    6.7419    7.0417   12.6332 C   0  0  0  0  0  0  0  0  0  0  0  0
    6.7419    6.2319   13.3372 H   0  0  0  0  0  0  0  0  0  0  0  0
    6.7418   11.0972   13.3188 C   0  0  0  0  0  0  0  0  0  0  0  0
    6.7421   12.4533   13.7029 C   0  0  0  0  0  0  0  0  0  0  0  0
    6.7420   13.2891   13.0297 H   0  0  0  0  0  0  0  0  0  0  0  0
    6.7421   12.4874   15.0837 C   0  0  0  0  0  0  0  0  0  0  0  0
    6.7421   13.3555   15.7134 H   0  0  0  0  0  0  0  0  0  0  0  0
    6.7421   11.1621   15.5171 C   0  0  0  0  0  0  0  0  0  0  0  0
    6.7421   10.7752   16.5180 H   0  0  0  0  0  0  0  0  0  0  0  0
    4.4330   11.6511   10.3614 P   0  0  0  0  0  4  0  0  0  0  0  0
    3.6179   10.7488   11.7506 C   0  0  0  0  0  0  0  0  0  0  0  0
    4.0739    9.7553   11.7947 H   0  0  0  0  0  0  0  0  0  0  0  0
    3.9192   11.2713   12.6644 H   0  0  0  0  0  0  0  0  0  0  0  0
    2.1018   10.6152   11.6999 C   0  0  0  0  0  0  0  0  0  0  0  0
    1.7547   10.1471   12.6188 H   0  0  0  0  0  0  0  0  0  0  0  0
    1.7866    9.9889   10.8687 H   0  0  0  0  0  0  0  0  0  0  0  0
    1.6129   11.5831   11.6130 H   0  0  0  0  0  0  0  0  0  0  0  0
    3.6522   10.9834    8.8354 C   0  0  0  0  0  0  0  0  0  0  0  0
    2.5704   10.9393    8.9841 H   0  0  0  0  0  0  0  0  0  0  0  0
    3.8545   11.6937    8.0290 H   0  0  0  0  0  0  0  0  0  0  0  0
    4.3979   14.2070   11.4563 C   0  0  0  0  0  0  0  0  0  0  0  0
    5.4624   14.2677   11.2236 H   0  0  0  0  0  0  0  0  0  0  0  0
    4.2824   13.7934   12.4567 H   0  0  0  0  0  0  0  0  0  0  0  0
    3.9926   15.2168   11.4498 H   0  0  0  0  0  0  0  0  0  0  0  0
    4.2220    9.6194    8.4708 C   0  0  0  0  0  0  0  0  0  0  0  0
    3.7439    9.2298    7.5743 H   0  0  0  0  0  0  0  0  0  0  0  0
    4.0827    8.9028    9.2787 H   0  0  0  0  0  0  0  0  0  0  0  0
    5.2894    9.7141    8.2698 H   0  0  0  0  0  0  0  0  0  0  0  0
    3.7021   13.3396   10.4162 C   0  0  0  0  0  0  0  0  0  0  0  0
    3.8297   13.7816    9.4241 H   0  0  0  0  0  0  0  0  0  0  0  0
    2.6309   13.2626   10.6187 H   0  0  0  0  0  0  0  0  0  0  0  0
    7.8752    8.3427   15.1649 F   0  0  0  0  0  0  0  0  0  0  0  0
    9.0509   11.6512   10.3615 P   0  0  0  0  0  4  0  0  0  0  0  0
    9.8660   10.7489   11.7507 C   0  0  0  0  0  0  0  0  0  0  0  0
    9.4100    9.7554   11.7949 H   0  0  0  0  0  0  0  0  0  0  0  0
    9.5647   11.2714   12.6645 H   0  0  0  0  0  0  0  0  0  0  0  0
   11.3820   10.6153   11.7000 C   0  0  0  0  0  0  0  0  0  0  0  0
   11.7292   10.1472   12.6189 H   0  0  0  0  0  0  0  0  0  0  0  0
   11.6973    9.9890   10.8689 H   0  0  0  0  0  0  0  0  0  0  0  0
   11.8710   11.5833   11.6131 H   0  0  0  0  0  0  0  0  0  0  0  0
    9.8315   10.9834    8.8355 C   0  0  0  0  0  0  0  0  0  0  0  0
   10.9134   10.9391    8.9841 H   0  0  0  0  0  0  0  0  0  0  0  0
    9.6293   11.6939    8.0291 H   0  0  0  0  0  0  0  0  0  0  0  0
    9.0860   14.2071   11.4566 C   0  0  0  0  0  0  0  0  0  0  0  0
    8.0214   14.2677   11.2240 H   0  0  0  0  0  0  0  0  0  0  0  0
    9.2016   13.7934   12.4569 H   0  0  0  0  0  0  0  0  0  0  0  0
    9.4913   15.2168   11.4502 H   0  0  0  0  0  0  0  0  0  0  0  0
    9.2614    9.6195    8.4708 C   0  0  0  0  0  0  0  0  0  0  0  0
    9.7393    9.2300    7.5743 H   0  0  0  0  0  0  0  0  0  0  0  0
    9.4008    8.9028    9.2787 H   0  0  0  0  0  0  0  0  0  0  0  0
    8.1940    9.7145    8.2701 H   0  0  0  0  0  0  0  0  0  0  0  0
    9.7818   13.3398   10.4164 C   0  0  0  0  0  0  0  0  0  0  0  0
    9.6540   13.7818    9.4243 H   0  0  0  0  0  0  0  0  0  0  0  0
   10.8530   13.2627   10.6188 H   0  0  0  0  0  0  0  0  0  0  0  0
  1  7  2  0  0  0  0
  2  1  1  0  0  0  0
  3  5  1  0  0  0  0
  4  5  1  0  0  0  0
  4 20  1  0  0  0  0
  5 44  1  0  0  0  0
  5  6  1  0  0  0  0
  7 15  1  0  0  0  0
  8  7  1  0  0  0  0
  8  3  1  0  0  0  0
  9 11  1  0  0  0  0
  9  8  2  0  0  0  0
 10  9  1  0  0  0  0
 11 13  2  0  0  0  0
 12 11  1  0  0  0  0
 13  3  1  0  0  0  0
 13 14  1  0  0  0  0
 15 16  2  0  0  0  0
 15  4  1  0  0  0  0
 16 18  1  0  0  0  0
 17 16  1  0  0  0  0
 18 20  2  0  0  0  0
 18 19  1  0  0  0  0
 20 21  1  0  0  0  0
 22  1  1  0  0  0  0
 22 41  1  0  0  0  0
 22 23  1  0  0  0  0
 23 24  1  0  0  0  0
 23 25  1  0  0  0  0
 26 23  1  0  0  0  0
 26 27  1  0  0  0  0
 28 26  1  0  0  0  0
 29 26  1  0  0  0  0
 30 31  1  0  0  0  0
 30 22  1  0  0  0  0
 32 30  1  0  0  0  0
 33 35  1  0  0  0  0
 34 33  1  0  0  0  0
 36 33  1  0  0  0  0
 37 30  1  0  0  0  0
 37 39  1  0  0  0  0
 38 37  1  0  0  0  0
 40 37  1  0  0  0  0
 41 43  1  0  0  0  0
 41 33  1  0  0  0  0
 42 41  1  0  0  0  0
 45  1  1  0  0  0  0
 45 64  1  0  0  0  0
 45 46  1  0  0  0  0
 46 47  1  0  0  0  0
 46 48  1  0  0  0  0
 49 46  1  0  0  0  0
 49 50  1  0  0  0  0
 51 49  1  0  0  0  0
 52 49  1  0  0  0  0
 53 54  1  0  0  0  0
 53 45  1  0  0  0  0
 55 53  1  0  0  0  0
 56 58  1  0  0  0  0
 57 56  1  0  0  0  0
 59 56  1  0  0  0  0
 60 53  1  0  0  0  0
 60 62  1  0  0  0  0
 61 60  1  0  0  0  0
 63 60  1  0  0  0  0
 64 66  1  0  0  0  0
 64 56  1  0  0  0  0
 65 64  1  0  0  0  0
M  END
$$$$
