CSD_code = UNIVEU | q = 0 | S = 0 | Stoichiometry = C21H36BClF2N2P2Pt | MND = 4
 OpenBabel04212202103D

 66 68  0  0  0  0  0  0  0  0999 V2000
    9.3125   11.8034    6.6824 C   0  0  0  0  0  0  0  0  0  0  0  0
    9.5456   11.2365    5.4236 C   0  0  0  0  0  0  0  0  0  0  0  0
    8.9000   11.4894    4.1969 C   0  0  0  0  0  0  0  0  0  0  0  0
    8.1052   12.1992    4.0577 H   0  0  0  0  0  0  0  0  0  0  0  0
    9.4707   10.6518    3.2572 C   0  0  0  0  0  0  0  0  0  0  0  0
    9.2202   10.5717    2.2175 H   0  0  0  0  0  0  0  0  0  0  0  0
   10.4506    9.9134    3.9200 C   0  0  0  0  0  0  0  0  0  0  0  0
   11.1157    9.1660    3.5322 H   0  0  0  0  0  0  0  0  0  0  0  0
   10.0269   11.2882    7.7698 C   0  0  0  0  0  0  0  0  0  0  0  0
    9.9077   11.5821    9.1430 C   0  0  0  0  0  0  0  0  0  0  0  0
    9.2231   12.2978    9.5624 H   0  0  0  0  0  0  0  0  0  0  0  0
   10.8084   10.7757    9.8122 C   0  0  0  0  0  0  0  0  0  0  0  0
   10.9848   10.7317   10.8692 H   0  0  0  0  0  0  0  0  0  0  0  0
   11.4605   10.0133    8.8434 C   0  0  0  0  0  0  0  0  0  0  0  0
   12.2302    9.2757    8.9651 H   0  0  0  0  0  0  0  0  0  0  0  0
    6.5626   10.3960    8.3719 C   0  0  0  0  0  0  0  0  0  0  0  0
    7.4299   10.2923    9.0294 H   0  0  0  0  0  0  0  0  0  0  0  0
    5.6716   10.0896    8.9257 H   0  0  0  0  0  0  0  0  0  0  0  0
    6.7393    9.5139    7.1437 C   0  0  0  0  0  0  0  0  0  0  0  0
    7.5626    9.8730    6.5298 H   0  0  0  0  0  0  0  0  0  0  0  0
    5.8344    9.4991    6.5406 H   0  0  0  0  0  0  0  0  0  0  0  0
    6.9619    8.4925    7.4455 H   0  0  0  0  0  0  0  0  0  0  0  0
    4.8731   12.3101    6.9616 C   0  0  0  0  0  0  0  0  0  0  0  0
    4.2060   11.4749    7.1914 H   0  0  0  0  0  0  0  0  0  0  0  0
    4.3811   13.2463    7.2383 H   0  0  0  0  0  0  0  0  0  0  0  0
    5.2247   12.3484    5.4774 C   0  0  0  0  0  0  0  0  0  0  0  0
    5.7095   11.4275    5.1607 H   0  0  0  0  0  0  0  0  0  0  0  0
    5.9086   13.1823    5.2969 H   0  0  0  0  0  0  0  0  0  0  0  0
    4.3324   12.4998    4.8725 H   0  0  0  0  0  0  0  0  0  0  0  0
    5.9494   12.9327    9.5929 C   0  0  0  0  0  0  0  0  0  0  0  0
    6.8048   12.8045   10.2631 H   0  0  0  0  0  0  0  0  0  0  0  0
    5.8346   14.0038    9.4029 H   0  0  0  0  0  0  0  0  0  0  0  0
    4.6880   12.3821   10.2479 C   0  0  0  0  0  0  0  0  0  0  0  0
    4.4605   12.9652   11.1382 H   0  0  0  0  0  0  0  0  0  0  0  0
    4.8142   11.3461   10.5528 H   0  0  0  0  0  0  0  0  0  0  0  0
    3.8353   12.4481    9.5766 H   0  0  0  0  0  0  0  0  0  0  0  0
   11.1848   14.1338    5.3348 C   0  0  0  0  0  0  0  0  0  0  0  0
   11.6513   13.5856    6.1588 H   0  0  0  0  0  0  0  0  0  0  0  0
   10.9141   13.3895    4.5818 H   0  0  0  0  0  0  0  0  0  0  0  0
   12.1689   15.1332    4.7418 C   0  0  0  0  0  0  0  0  0  0  0  0
   12.4406   15.9049    5.4587 H   0  0  0  0  0  0  0  0  0  0  0  0
   11.7615   15.6112    3.8542 H   0  0  0  0  0  0  0  0  0  0  0  0
   13.0787   14.6107    4.4535 H   0  0  0  0  0  0  0  0  0  0  0  0
   10.1275   15.9660    7.3452 C   0  0  0  0  0  0  0  0  0  0  0  0
   11.0462   16.4886    7.0688 H   0  0  0  0  0  0  0  0  0  0  0  0
    9.3307   16.7044    7.4648 H   0  0  0  0  0  0  0  0  0  0  0  0
   10.3003   15.1818    8.6406 C   0  0  0  0  0  0  0  0  0  0  0  0
   10.5702   15.8412    9.4631 H   0  0  0  0  0  0  0  0  0  0  0  0
   11.0701   14.4184    8.5396 H   0  0  0  0  0  0  0  0  0  0  0  0
    9.3543   14.6907    8.8865 H   0  0  0  0  0  0  0  0  0  0  0  0
    9.0105   15.9916    4.7116 C   0  0  0  0  0  0  0  0  0  0  0  0
    8.1710   16.5347    5.1532 H   0  0  0  0  0  0  0  0  0  0  0  0
    9.8065   16.7086    4.4915 H   0  0  0  0  0  0  0  0  0  0  0  0
    8.5500   15.2659    3.4542 C   0  0  0  0  0  0  0  0  0  0  0  0
    7.7255   14.5980    3.6977 H   0  0  0  0  0  0  0  0  0  0  0  0
    9.3547   14.6760    3.0195 H   0  0  0  0  0  0  0  0  0  0  0  0
    8.2016   15.9785    2.7091 H   0  0  0  0  0  0  0  0  0  0  0  0
   11.4886    9.7694    6.2773 B   0  0  0  0  0  0  0  0  0  0  0  0
    6.7261   15.2679    7.1963 Cl  0  0  0  0  0  0  0  0  0  0  0  0
   12.7440   10.2953    6.0039 F   0  0  0  0  0  0  0  0  0  0  0  0
   11.5494    8.3932    6.2987 F   0  0  0  0  0  0  0  0  0  0  0  0
   10.4895   10.2556    5.2072 N   0  0  0  0  0  0  0  0  0  0  0  0
   10.9911   10.3124    7.6335 N   0  0  0  0  0  0  0  0  0  0  0  0
    9.6081   14.8249    6.0004 P   0  0  0  0  0  4  0  0  0  0  0  0
    6.4100   12.1898    7.9693 P   0  0  0  0  0  4  0  0  0  0  0  0
    8.0894   13.3520    6.9129 Pt  0  0  0  0  0  0  0  0  0  0  0  0
  1 66  2  0  0  0  0
  1  9  1  0  0  0  0
  2  1  1  0  0  0  0
  3  2  2  0  0  0  0
  4  3  1  0  0  0  0
  5  7  2  0  0  0  0
  5  3  1  0  0  0  0
  6  5  1  0  0  0  0
  7 62  1  0  0  0  0
  8  7  1  0  0  0  0
  9 10  2  0  0  0  0
 10 11  1  0  0  0  0
 10 12  1  0  0  0  0
 12 13  1  0  0  0  0
 14 15  1  0  0  0  0
 14 12  2  0  0  0  0
 16 18  1  0  0  0  0
 16 17  1  0  0  0  0
 19 22  1  0  0  0  0
 19 16  1  0  0  0  0
 20 19  1  0  0  0  0
 21 19  1  0  0  0  0
 23 24  1  0  0  0  0
 23 25  1  0  0  0  0
 23 65  1  0  0  0  0
 26 23  1  0  0  0  0
 27 26  1  0  0  0  0
 28 26  1  0  0  0  0
 29 26  1  0  0  0  0
 30 33  1  0  0  0  0
 30 31  1  0  0  0  0
 32 30  1  0  0  0  0
 33 35  1  0  0  0  0
 33 34  1  0  0  0  0
 36 33  1  0  0  0  0
 37 64  1  0  0  0  0
 37 38  1  0  0  0  0
 39 37  1  0  0  0  0
 40 37  1  0  0  0  0
 40 41  1  0  0  0  0
 42 40  1  0  0  0  0
 43 40  1  0  0  0  0
 44 46  1  0  0  0  0
 44 47  1  0  0  0  0
 45 44  1  0  0  0  0
 47 50  1  0  0  0  0
 47 48  1  0  0  0  0
 49 47  1  0  0  0  0
 51 52  1  0  0  0  0
 51 64  1  0  0  0  0
 53 51  1  0  0  0  0
 54 55  1  0  0  0  0
 54 51  1  0  0  0  0
 56 54  1  0  0  0  0
 57 54  1  0  0  0  0
 58 61  1  0  0  0  0
 58 63  1  0  0  0  0
 60 58  1  0  0  0  0
 62  2  1  0  0  0  0
 62 58  1  0  0  0  0
 63  9  1  0  0  0  0
 63 14  1  0  0  0  0
 64 66  1  0  0  0  0
 64 44  1  0  0  0  0
 65 16  1  0  0  0  0
 65 30  1  0  0  0  0
 66 59  1  0  0  0  0
 66 65  1  0  0  0  0
M  END
$$$$
