CSD_code = UNONIV | q = 0 | S = 0 | Stoichiometry = C14H32Cl2NiP2 | MND = 4
 OpenBabel04212202103D

 51 51  0  0  0  0  0  0  0  0999 V2000
    1.5926    7.7775    6.5805 C   0  0  0  0  0  0  0  0  0  0  0  0
    1.7683    6.7129    6.7897 H   0  0  0  0  0  0  0  0  0  0  0  0
    2.5264    8.2374    5.4632 C   0  0  0  0  0  0  0  0  0  0  0  0
    2.2896    9.2663    5.1943 H   0  0  0  0  0  0  0  0  0  0  0  0
    2.4299    7.6127    4.5773 H   0  0  0  0  0  0  0  0  0  0  0  0
    3.5630    8.1986    5.7923 H   0  0  0  0  0  0  0  0  0  0  0  0
    1.8474    8.6001    7.8389 C   0  0  0  0  0  0  0  0  0  0  0  0
    2.9132    8.5962    8.0619 H   0  0  0  0  0  0  0  0  0  0  0  0
    1.3247    8.1958    8.7021 H   0  0  0  0  0  0  0  0  0  0  0  0
    1.5338    9.6294    7.6789 H   0  0  0  0  0  0  0  0  0  0  0  0
   -1.2052    7.8561    7.4927 C   0  0  0  0  0  0  0  0  0  0  0  0
   -0.8035    8.6811    8.0929 H   0  0  0  0  0  0  0  0  0  0  0  0
   -1.1193    6.5539    8.2799 C   0  0  0  0  0  0  0  0  0  0  0  0
   -1.5960    6.6823    9.2504 H   0  0  0  0  0  0  0  0  0  0  0  0
   -0.0870    6.2532    8.4465 H   0  0  0  0  0  0  0  0  0  0  0  0
   -1.6369    5.7483    7.7619 H   0  0  0  0  0  0  0  0  0  0  0  0
   -2.6478    8.2072    7.1367 C   0  0  0  0  0  0  0  0  0  0  0  0
   -3.1443    7.3703    6.6490 H   0  0  0  0  0  0  0  0  0  0  0  0
   -2.6662    9.0741    6.4623 H   0  0  0  0  0  0  0  0  0  0  0  0
   -3.2135    8.4635    8.0304 H   0  0  0  0  0  0  0  0  0  0  0  0
   -0.3501    6.2458    5.1164 C   0  0  0  0  0  0  0  0  0  0  0  0
    0.5715    6.0919    4.5482 H   0  0  0  0  0  0  0  0  0  0  0  0
   -0.4207    5.4431    5.8535 H   0  0  0  0  0  0  0  0  0  0  0  0
   -1.7983   10.7478    3.2771 Cl  0  0  0  0  0  0  0  0  0  0  0  0
   -0.9487    9.3847    4.6447 Ni  0  0  0  0  0  0  0  0  0  0  0  0
   -0.1588    7.9057    5.9575 P   0  0  0  0  0  4  0  0  0  0  0  0
   -3.4900    7.7776    2.7092 C   0  0  0  0  0  0  0  0  0  0  0  0
   -3.6657    6.7131    2.4995 H   0  0  0  0  0  0  0  0  0  0  0  0
   -4.4238    8.2372    3.8266 C   0  0  0  0  0  0  0  0  0  0  0  0
   -4.1872    9.2660    4.0958 H   0  0  0  0  0  0  0  0  0  0  0  0
   -4.3272    7.6122    4.7122 H   0  0  0  0  0  0  0  0  0  0  0  0
   -5.4605    8.1984    3.4975 H   0  0  0  0  0  0  0  0  0  0  0  0
   -3.7448    8.6008    1.4511 C   0  0  0  0  0  0  0  0  0  0  0  0
   -4.8107    8.5976    1.2284 H   0  0  0  0  0  0  0  0  0  0  0  0
   -3.2226    8.1964    0.5877 H   0  0  0  0  0  0  0  0  0  0  0  0
   -3.4305    9.6298    1.6113 H   0  0  0  0  0  0  0  0  0  0  0  0
   -0.6923    7.8559    1.7968 C   0  0  0  0  0  0  0  0  0  0  0  0
   -1.0944    8.6805    1.1964 H   0  0  0  0  0  0  0  0  0  0  0  0
   -0.7780    6.5532    1.0102 C   0  0  0  0  0  0  0  0  0  0  0  0
   -0.3016    6.6815    0.0395 H   0  0  0  0  0  0  0  0  0  0  0  0
   -1.8102    6.2521    0.8440 H   0  0  0  0  0  0  0  0  0  0  0  0
   -0.2599    5.7481    1.5283 H   0  0  0  0  0  0  0  0  0  0  0  0
    0.7501    8.2075    2.1526 C   0  0  0  0  0  0  0  0  0  0  0  0
    1.2471    7.3710    2.6404 H   0  0  0  0  0  0  0  0  0  0  0  0
    0.7684    9.0746    2.8268 H   0  0  0  0  0  0  0  0  0  0  0  0
    1.3156    8.4639    1.2587 H   0  0  0  0  0  0  0  0  0  0  0  0
   -1.5474    6.2457    4.1732 C   0  0  0  0  0  0  0  0  0  0  0  0
   -2.4690    6.0919    4.7415 H   0  0  0  0  0  0  0  0  0  0  0  0
   -1.4769    5.4430    3.4362 H   0  0  0  0  0  0  0  0  0  0  0  0
   -0.0992   10.7477    6.0126 Cl  0  0  0  0  0  0  0  0  0  0  0  0
   -1.7385    7.9056    3.3321 P   0  0  0  0  0  4  0  0  0  0  0  0
  1  2  1  0  0  0  0
  1  7  1  0  0  0  0
  3  6  1  0  0  0  0
  3  1  1  0  0  0  0
  4  3  1  0  0  0  0
  5  3  1  0  0  0  0
  7  8  1  0  0  0  0
  7  9  1  0  0  0  0
 10  7  1  0  0  0  0
 11 12  1  0  0  0  0
 11 13  1  0  0  0  0
 13 15  1  0  0  0  0
 13 14  1  0  0  0  0
 16 13  1  0  0  0  0
 17 11  1  0  0  0  0
 17 20  1  0  0  0  0
 18 17  1  0  0  0  0
 19 17  1  0  0  0  0
 21 23  1  0  0  0  0
 21 26  1  0  0  0  0
 22 21  1  0  0  0  0
 24 25  1  0  0  0  0
 25 26  1  0  0  0  0
 25 50  1  0  0  0  0
 26  1  1  0  0  0  0
 26 11  1  0  0  0  0
 27 51  1  0  0  0  0
 27 29  1  0  0  0  0
 28 27  1  0  0  0  0
 29 30  1  0  0  0  0
 29 31  1  0  0  0  0
 32 29  1  0  0  0  0
 33 36  1  0  0  0  0
 33 27  1  0  0  0  0
 34 33  1  0  0  0  0
 35 33  1  0  0  0  0
 37 43  1  0  0  0  0
 37 51  1  0  0  0  0
 38 37  1  0  0  0  0
 39 42  1  0  0  0  0
 39 37  1  0  0  0  0
 40 39  1  0  0  0  0
 41 39  1  0  0  0  0
 43 44  1  0  0  0  0
 43 45  1  0  0  0  0
 46 43  1  0  0  0  0
 47 48  1  0  0  0  0
 47 21  1  0  0  0  0
 49 47  1  0  0  0  0
 51 47  1  0  0  0  0
 51 25  1  0  0  0  0
M  END
$$$$
