CSD_code = UNOPUK | q = 0 | S = 0 | Stoichiometry = C14H12Cl2PdS2 | MND = 4
 OpenBabel04212202103D

 31 34  0  0  0  0  0  0  0  0999 V2000
    4.1628    1.8499    5.4810 Pd  0  0  0  0  0  0  0  0  0  0  0  0
    5.7268    2.7148    6.8173 Cl  0  0  0  0  0  0  0  0  0  0  0  0
    3.2200    0.8020    7.2111 Cl  0  0  0  0  0  0  0  0  0  0  0  0
    2.3673    1.1957    4.1121 S   0  0  2  0  0  3  0  0  0  0  0  0
    2.9324    1.6918    2.4824 C   0  0  0  0  0  0  0  0  0  0  0  0
    4.0292    2.5295    2.3106 C   0  0  0  0  0  0  0  0  0  0  0  0
    4.9567    3.1717    3.7068 S   0  0  1  0  0  3  0  0  0  0  0  0
    3.8099    4.5689    4.2252 C   0  0  0  0  0  0  0  0  0  0  0  0
    3.5971    4.4135    5.2932 H   0  0  0  0  0  0  0  0  0  0  0  0
    4.4137    5.4691    4.1152 H   0  0  0  0  0  0  0  0  0  0  0  0
    2.5927    4.6392    3.3668 C   0  0  0  0  0  0  0  0  0  0  0  0
    2.5813    5.5576    2.3208 C   0  0  0  0  0  0  0  0  0  0  0  0
    3.4342    6.2063    2.1865 H   0  0  0  0  0  0  0  0  0  0  0  0
    1.5071    5.6545    1.4580 C   0  0  0  0  0  0  0  0  0  0  0  0
    1.5233    6.3758    0.6559 H   0  0  0  0  0  0  0  0  0  0  0  0
    0.4150    4.8218    1.6293 C   0  0  0  0  0  0  0  0  0  0  0  0
   -0.4306    4.8859    0.9624 H   0  0  0  0  0  0  0  0  0  0  0  0
    0.4123    3.9034    2.6609 C   0  0  0  0  0  0  0  0  0  0  0  0
   -0.4390    3.2522    2.7941 H   0  0  0  0  0  0  0  0  0  0  0  0
    1.4862    3.7950    3.5402 C   0  0  0  0  0  0  0  0  0  0  0  0
    1.4227    2.7471    4.5991 C   0  0  0  0  0  0  0  0  0  0  0  0
    0.3986    2.4051    4.7446 H   0  0  0  0  0  0  0  0  0  0  0  0
    1.8312    3.0650    5.5697 H   0  0  0  0  0  0  0  0  0  0  0  0
    2.2545    1.2059    1.3752 C   0  0  0  0  0  0  0  0  0  0  0  0
    1.4101    0.5513    1.5245 H   0  0  0  0  0  0  0  0  0  0  0  0
    2.6682    1.5544    0.1012 C   0  0  0  0  0  0  0  0  0  0  0  0
    2.1388    1.1697   -0.7565 H   0  0  0  0  0  0  0  0  0  0  0  0
    3.7602    2.3894   -0.0698 C   0  0  0  0  0  0  0  0  0  0  0  0
    4.0875    2.6593   -1.0618 H   0  0  0  0  0  0  0  0  0  0  0  0
    4.4401    2.8763    1.0330 C   0  0  0  0  0  0  0  0  0  0  0  0
    5.2968    3.5214    0.9157 H   0  0  0  0  0  0  0  0  0  0  0  0
  1  2  1  0  0  0  0
  1  3  1  0  0  0  0
  4  5  1  6  0  0  0
  4 21  1  0  0  0  0
  4  1  1  0  0  0  0
  6  5  1  0  0  0  0
  7  6  1  6  0  0  0
  7  8  1  0  0  0  0
  7  1  1  0  0  0  0
  8  9  1  0  0  0  0
 10  8  1  0  0  0  0
 11 20  1  0  0  0  0
 11  8  1  0  0  0  0
 12 11  2  0  0  0  0
 13 12  1  0  0  0  0
 14 16  2  0  0  0  0
 14 12  1  0  0  0  0
 15 14  1  0  0  0  0
 16 18  1  0  0  0  0
 17 16  1  0  0  0  0
 18 19  1  0  0  0  0
 18 20  2  0  0  0  0
 20 21  1  0  0  0  0
 21 22  1  0  0  0  0
 21 23  1  0  0  0  0
 24 25  1  0  0  0  0
 24  5  2  0  0  0  0
 26 24  1  0  0  0  0
 27 26  1  0  0  0  0
 28 26  2  0  0  0  0
 28 30  1  0  0  0  0
 29 28  1  0  0  0  0
 30  6  2  0  0  0  0
 31 30  1  0  0  0  0
M  END
$$$$
