CSD_code = UPAFAU | q = 0 | S = 0 | Stoichiometry = C19H20AgClN2O2 | MND = 2
 OpenBabel04212202103D

 45 47  0  0  1  0  0  0  0  0999 V2000
    8.6333    7.2068    0.6538 Ag  0  0  0  0  0  0  0  0  0  0  0  0
    7.9932    8.5930   -1.0020 Cl  0  0  0  0  0  0  0  0  0  0  0  0
    9.5308    4.5329    2.0090 N   0  0  0  0  0  0  0  0  0  0  0  0
   10.2864    6.1958    3.1229 N   0  0  0  0  0  0  0  0  0  0  0  0
   12.3468    2.3978   -3.1975 O   0  0  0  0  0  0  0  0  0  0  0  0
   15.0574    9.6069    0.8317 O   0  0  0  0  0  0  0  0  0  0  0  0
    9.4532    5.8751    2.1117 C   0  0  1  0  0  3  0  0  0  0  0  0
   10.4028    4.0245    2.9299 C   0  0  0  0  0  0  0  0  0  0  0  0
   10.6098    2.9776    3.0122 H   0  0  0  0  0  0  0  0  0  0  0  0
   10.8810    5.0772    3.6345 C   0  0  0  0  0  0  0  0  0  0  0  0
   11.5778    5.1126    4.4463 H   0  0  0  0  0  0  0  0  0  0  0  0
    8.8318    3.7349    1.0283 C   0  0  0  0  0  0  0  0  0  0  0  0
    7.9845    4.3280    0.6645 H   0  0  0  0  0  0  0  0  0  0  0  0
    8.4584    2.8279    1.5117 H   0  0  0  0  0  0  0  0  0  0  0  0
    9.7452    3.3838   -0.1194 C   0  0  0  0  0  0  0  0  0  0  0  0
   10.0569    4.3388   -1.0745 C   0  0  0  0  0  0  0  0  0  0  0  0
    9.6095    5.3299   -1.0080 H   0  0  0  0  0  0  0  0  0  0  0  0
   10.9194    4.0562   -2.1172 C   0  0  0  0  0  0  0  0  0  0  0  0
   11.1320    4.8257   -2.8412 H   0  0  0  0  0  0  0  0  0  0  0  0
   11.4905    2.7904   -2.2197 C   0  0  0  0  0  0  0  0  0  0  0  0
   11.1793    1.8258   -1.2595 C   0  0  0  0  0  0  0  0  0  0  0  0
   11.6253    0.8484   -1.3519 H   0  0  0  0  0  0  0  0  0  0  0  0
   10.3206    2.1225   -0.2231 C   0  0  0  0  0  0  0  0  0  0  0  0
   10.0871    1.3609    0.5071 H   0  0  0  0  0  0  0  0  0  0  0  0
   12.6851    3.3180   -4.2086 C   0  0  0  0  0  0  0  0  0  0  0  0
   11.8018    3.6454   -4.7653 H   0  0  0  0  0  0  0  0  0  0  0  0
   13.3557    2.7835   -4.8795 H   0  0  0  0  0  0  0  0  0  0  0  0
   13.2028    4.1912   -3.7995 H   0  0  0  0  0  0  0  0  0  0  0  0
   10.5576    7.5426    3.5730 C   0  0  0  0  0  0  0  0  0  0  0  0
   10.7489    7.5163    4.6491 H   0  0  0  0  0  0  0  0  0  0  0  0
    9.6653    8.1463    3.3770 H   0  0  0  0  0  0  0  0  0  0  0  0
   11.7411    8.1251    2.8403 C   0  0  0  0  0  0  0  0  0  0  0  0
   11.5650    8.7764    1.6294 C   0  0  0  0  0  0  0  0  0  0  0  0
   10.5629    8.9012    1.2227 H   0  0  0  0  0  0  0  0  0  0  0  0
   12.6409    9.2846    0.9241 C   0  0  0  0  0  0  0  0  0  0  0  0
   12.4574    9.7874   -0.0113 H   0  0  0  0  0  0  0  0  0  0  0  0
   13.9298    9.1453    1.4307 C   0  0  0  0  0  0  0  0  0  0  0  0
   14.1119    8.4884    2.6497 C   0  0  0  0  0  0  0  0  0  0  0  0
   15.1149    8.3887    3.0331 H   0  0  0  0  0  0  0  0  0  0  0  0
   13.0312    7.9855    3.3410 C   0  0  0  0  0  0  0  0  0  0  0  0
   13.1928    7.4848    4.2849 H   0  0  0  0  0  0  0  0  0  0  0  0
   14.9369   10.3022   -0.3876 C   0  0  0  0  0  0  0  0  0  0  0  0
   14.5087    9.6689   -1.1706 H   0  0  0  0  0  0  0  0  0  0  0  0
   15.9511   10.5839   -0.6662 H   0  0  0  0  0  0  0  0  0  0  0  0
   14.3282   11.2047   -0.2760 H   0  0  0  0  0  0  0  0  0  0  0  0
  2  1  1  0  0  0  0
  3  7  1  0  0  0  0
  3  8  1  0  0  0  0
  4 29  1  0  0  0  0
  4 10  1  0  0  0  0
  5 20  1  0  0  0  0
  6 37  1  0  0  0  0
  7  1  1  6  0  0  0
  7  4  1  0  0  0  0
  8  9  1  0  0  0  0
  8 10  2  0  0  0  0
 10 11  1  0  0  0  0
 12 14  1  0  0  0  0
 12  3  1  0  0  0  0
 13 12  1  0  0  0  0
 15 12  1  0  0  0  0
 16 17  1  0  0  0  0
 16 15  2  0  0  0  0
 18 16  1  0  0  0  0
 19 18  1  0  0  0  0
 20 18  2  0  0  0  0
 20 21  1  0  0  0  0
 21 23  2  0  0  0  0
 22 21  1  0  0  0  0
 23 15  1  0  0  0  0
 23 24  1  0  0  0  0
 25 28  1  0  0  0  0
 25  5  1  0  0  0  0
 26 25  1  0  0  0  0
 27 25  1  0  0  0  0
 29 30  1  0  0  0  0
 31 29  1  0  0  0  0
 32 40  1  0  0  0  0
 32 29  1  0  0  0  0
 33 32  2  0  0  0  0
 34 33  1  0  0  0  0
 35 37  2  0  0  0  0
 35 33  1  0  0  0  0
 36 35  1  0  0  0  0
 37 38  1  0  0  0  0
 38 39  1  0  0  0  0
 38 40  2  0  0  0  0
 40 41  1  0  0  0  0
 42 45  1  0  0  0  0
 42  6  1  0  0  0  0
 43 42  1  0  0  0  0
 44 42  1  0  0  0  0
M  END
$$$$
