CSD_code = UPAMAB | q = 0 | S = 0 | Stoichiometry = C19H20AgClN2O2 | MND = 2
 OpenBabel04212202103D

 45 47  0  0  1  0  0  0  0  0999 V2000
    3.1310    4.3860    2.7806 Ag  0  0  0  0  0  0  0  0  0  0  0  0
    2.2998    4.0647    4.8513 Cl  0  0  0  0  0  0  0  0  0  0  0  0
    3.8004    5.7180   -0.0062 N   0  0  0  0  0  0  0  0  0  0  0  0
    4.5167    3.7040    0.0602 N   0  0  0  0  0  0  0  0  0  0  0  0
   -0.2557    8.3532   -2.9938 O   0  0  0  0  0  0  0  0  0  0  0  0
    6.6040    2.3786    5.1922 O   0  0  0  0  0  0  0  0  0  0  0  0
    3.8717    4.6348    0.7914 C   0  0  2  0  0  3  0  0  0  0  0  0
    4.3851    5.4692   -1.2158 C   0  0  0  0  0  0  0  0  0  0  0  0
    4.4282    6.1983   -1.9982 H   0  0  0  0  0  0  0  0  0  0  0  0
    4.8468    4.1965   -1.1693 C   0  0  0  0  0  0  0  0  0  0  0  0
    5.3683    3.6184   -1.9044 H   0  0  0  0  0  0  0  0  0  0  0  0
    3.1312    6.9511    0.3359 C   0  0  0  0  0  0  0  0  0  0  0  0
    3.7101    7.7892   -0.0608 H   0  0  0  0  0  0  0  0  0  0  0  0
    3.0996    7.0183    1.4296 H   0  0  0  0  0  0  0  0  0  0  0  0
    1.7264    6.9587   -0.2182 C   0  0  0  0  0  0  0  0  0  0  0  0
    1.4286    7.6914   -1.3604 C   0  0  0  0  0  0  0  0  0  0  0  0
    2.2049    8.2828   -1.8217 H   0  0  0  0  0  0  0  0  0  0  0  0
    0.1422    7.6691   -1.8881 C   0  0  0  0  0  0  0  0  0  0  0  0
   -0.8381    6.8953   -1.2643 C   0  0  0  0  0  0  0  0  0  0  0  0
   -1.8296    6.8883   -1.6878 H   0  0  0  0  0  0  0  0  0  0  0  0
   -0.5349    6.1683   -0.1323 C   0  0  0  0  0  0  0  0  0  0  0  0
   -1.3007    5.5781    0.3466 H   0  0  0  0  0  0  0  0  0  0  0  0
    0.7451    6.1974    0.3961 C   0  0  0  0  0  0  0  0  0  0  0  0
    0.9845    5.6323    1.2927 H   0  0  0  0  0  0  0  0  0  0  0  0
    0.6742    9.1783   -3.6521 C   0  0  0  0  0  0  0  0  0  0  0  0
    1.0485    9.9684   -2.9930 H   0  0  0  0  0  0  0  0  0  0  0  0
    0.1318    9.6303   -4.4809 H   0  0  0  0  0  0  0  0  0  0  0  0
    1.5171    8.6013   -4.0466 H   0  0  0  0  0  0  0  0  0  0  0  0
    4.8782    2.3950    0.5562 C   0  0  0  0  0  0  0  0  0  0  0  0
    5.1905    1.7822   -0.2933 H   0  0  0  0  0  0  0  0  0  0  0  0
    3.9972    1.9419    1.0214 H   0  0  0  0  0  0  0  0  0  0  0  0
    5.9950    2.5155    1.5666 C   0  0  0  0  0  0  0  0  0  0  0  0
    5.7279    2.3580    2.9215 C   0  0  0  0  0  0  0  0  0  0  0  0
    4.7316    2.0721    3.2351 H   0  0  0  0  0  0  0  0  0  0  0  0
    6.7471    2.5195    3.8590 C   0  0  0  0  0  0  0  0  0  0  0  0
    8.0340    2.8404    3.4134 C   0  0  0  0  0  0  0  0  0  0  0  0
    8.8129    2.9606    4.1493 H   0  0  0  0  0  0  0  0  0  0  0  0
    8.2900    2.9937    2.0690 C   0  0  0  0  0  0  0  0  0  0  0  0
    9.2878    3.2398    1.7382 H   0  0  0  0  0  0  0  0  0  0  0  0
    7.2744    2.8349    1.1389 C   0  0  0  0  0  0  0  0  0  0  0  0
    7.4790    2.9602    0.0857 H   0  0  0  0  0  0  0  0  0  0  0  0
    5.3209    2.1082    5.7228 C   0  0  0  0  0  0  0  0  0  0  0  0
    4.5975    2.8828    5.4529 H   0  0  0  0  0  0  0  0  0  0  0  0
    5.4495    2.0972    6.8033 H   0  0  0  0  0  0  0  0  0  0  0  0
    4.9524    1.1320    5.3937 H   0  0  0  0  0  0  0  0  0  0  0  0
  1  2  1  0  0  0  0
  3 12  1  0  0  0  0
  3  7  1  0  0  0  0
  4 29  1  0  0  0  0
  4  7  1  0  0  0  0
  5 18  1  0  0  0  0
  6 42  1  0  0  0  0
  7  1  1  6  0  0  0
  8 10  2  0  0  0  0
  8  3  1  0  0  0  0
  9  8  1  0  0  0  0
 10  4  1  0  0  0  0
 11 10  1  0  0  0  0
 12 14  1  0  0  0  0
 13 12  1  0  0  0  0
 15 12  1  0  0  0  0
 15 23  1  0  0  0  0
 16 15  2  0  0  0  0
 17 16  1  0  0  0  0
 18 16  1  0  0  0  0
 18 19  2  0  0  0  0
 19 21  1  0  0  0  0
 20 19  1  0  0  0  0
 21 22  1  0  0  0  0
 21 23  2  0  0  0  0
 23 24  1  0  0  0  0
 25  5  1  0  0  0  0
 25 26  1  0  0  0  0
 27 25  1  0  0  0  0
 28 25  1  0  0  0  0
 29 31  1  0  0  0  0
 29 32  1  0  0  0  0
 30 29  1  0  0  0  0
 32 33  1  0  0  0  0
 33 34  1  0  0  0  0
 33 35  2  0  0  0  0
 35  6  1  0  0  0  0
 36 35  1  0  0  0  0
 36 37  1  0  0  0  0
 38 36  2  0  0  0  0
 39 38  1  0  0  0  0
 40 32  2  0  0  0  0
 40 38  1  0  0  0  0
 41 40  1  0  0  0  0
 42 44  1  0  0  0  0
 43 42  1  0  0  0  0
 45 42  1  0  0  0  0
M  END
$$$$
