CSD_code = UPEBOI | q = 0 | S = 0 | Stoichiometry = C6H6Cl2N6O4Pd | MND = 4
 OpenBabel04212202103D

 25 26  0  0  0  0  0  0  0  0999 V2000
    4.3216    5.2188    7.8847 Pd  0  0  0  0  0  0  0  0  0  0  0  0
    2.4579    5.4952    6.5541 Cl  0  0  0  0  0  0  0  0  0  0  0  0
    6.1856    4.9706    9.2206 Cl  0  0  0  0  0  0  0  0  0  0  0  0
    7.9173    6.1126    2.6223 O   0  0  0  0  0  0  0  0  0  0  0  0
    5.7901    6.1014    2.2704 O   0  0  0  0  0  0  0  0  0  0  0  0
    0.7361    4.2718   13.1446 O   0  0  0  0  0  0  0  0  0  0  0  0
    2.8618    4.0808   13.4514 O   0  0  0  0  0  0  0  0  0  0  0  0
    5.5193    5.4922    6.3125 N   0  0  0  0  0  0  0  0  0  0  0  0
    6.8475    5.4977    6.5043 N   0  0  0  0  0  0  0  0  0  0  0  0
    7.1551    5.3371    7.4900 H   0  0  0  0  0  0  0  0  0  0  0  0
    6.7645    6.0237    2.9826 N   0  0  0  0  0  0  0  0  0  0  0  0
    3.1245    4.9405    9.4560 N   0  0  0  0  0  0  0  0  0  0  0  0
    1.7971    5.0400    9.2860 N   0  0  0  0  0  0  0  0  0  0  0  0
    1.4885    5.2444    8.3088 H   0  0  0  0  0  0  0  0  0  0  0  0
    1.8865    4.2864   12.7664 N   0  0  0  0  0  0  0  0  0  0  0  0
    1.1423    4.8258   10.4216 C   0  0  0  0  0  3  0  0  0  0  0  0
    0.0751    4.8564   10.5118 H   0  0  0  0  0  0  0  0  0  0  0  0
    6.5401    5.8109    4.3711 C   0  0  0  0  0  0  0  0  0  0  0  0
    3.3440    4.6566   10.7287 C   0  0  0  0  0  0  0  0  0  0  0  0
    4.3245    4.5211   11.1486 H   0  0  0  0  0  0  0  0  0  0  0  0
    2.1071    4.5728   11.3905 C   0  0  0  0  0  0  0  0  0  0  0  0
    5.3014    5.6813    5.0220 C   0  0  0  0  0  3  0  0  0  0  0  0
    4.3207    5.7234    4.5832 H   0  0  0  0  0  0  0  0  0  0  0  0
    7.5043    5.6851    5.3652 C   0  0  0  0  0  0  0  0  0  0  0  0
    8.5724    5.7234    5.2900 H   0  0  0  0  0  0  0  0  0  0  0  0
  1  3  1  0  0  0  0
  1 12  1  0  0  0  0
  2  1  1  0  0  0  0
  4 11  2  0  0  0  0
  5 11  2  0  0  0  0
  8  9  1  0  0  0  0
  8  1  1  0  0  0  0
  9 10  1  0  0  0  0
 11 18  1  0  0  0  0
 12 19  1  0  0  0  0
 13 12  1  0  0  0  0
 13 16  1  0  0  0  0
 14 13  1  0  0  0  0
 15  6  2  0  0  0  0
 15  7  2  0  0  0  0
 16 17  1  0  0  0  0
 16 21  1  0  0  0  0
 18 22  1  0  0  0  0
 18 24  2  0  0  0  0
 19 20  1  0  0  0  0
 19 21  2  0  0  0  0
 21 15  1  0  0  0  0
 22  8  1  0  0  0  0
 23 22  1  0  0  0  0
 24  9  1  0  0  0  0
 25 24  1  0  0  0  0
M  END
$$$$
