CSD_code = UPIKAH | q = 0 | S = 0 | Stoichiometry = C20H16ClN3O3Ru | MND = 6
 OpenBabel04212202103D

 44 49  0  0  1  0  0  0  0  0999 V2000
    8.6150    2.2554    8.2784 Ru  0  0  0  0  0  0  0  0  0  0  0  0
    8.6043    0.1709    7.4568 Cl  0  0  0  0  0  0  0  0  0  0  0  0
    8.1469    2.8645    6.3386 O   0  0  0  0  0  0  0  0  0  0  0  0
    9.0764    1.3746   10.1106 O   0  0  0  0  0  0  0  0  0  0  0  0
    8.6325    4.8957    9.3135 O   0  0  0  0  0  1  0  0  0  0  0  0
    6.5218    2.0735    8.3243 N   0  0  0  0  0  0  0  0  0  0  0  0
   10.7082    2.1312    8.1176 N   0  0  0  0  0  0  0  0  0  0  0  0
    8.6246    3.8132    8.8900 N   0  0  0  0  0  2  0  0  0  0  0  0
    6.0159    2.1639    7.0676 C   0  0  0  0  0  0  0  0  0  0  0  0
    6.9143    2.5849    6.0393 C   0  0  0  0  0  0  0  0  0  0  0  0
    6.4113    2.7050    4.7452 C   0  0  0  0  0  0  0  0  0  0  0  0
    7.0778    3.0262    3.9602 H   0  0  0  0  0  0  0  0  0  0  0  0
    5.0785    2.4144    4.4692 C   0  0  0  0  0  0  0  0  0  0  0  0
    4.7279    2.5124    3.4522 H   0  0  0  0  0  0  0  0  0  0  0  0
    4.2068    2.0090    5.4510 C   0  0  0  0  0  3  0  0  0  0  0  0
    3.1761    1.7856    5.2240 H   0  0  0  0  0  0  0  0  0  0  0  0
    4.6577    1.8814    6.7748 C   0  0  0  0  0  0  0  0  0  0  0  0
    3.8483    1.4828    7.8583 C   0  0  0  0  0  0  0  0  0  0  0  0
    2.8119    1.2339    7.6827 H   0  0  0  0  0  0  0  0  0  0  0  0
    4.3829    1.4274    9.1137 C   0  0  0  0  0  0  0  0  0  0  0  0
    3.7796    1.1390    9.9604 H   0  0  0  0  0  0  0  0  0  0  0  0
    5.7405    1.7421    9.3325 C   0  0  0  0  0  0  0  0  0  0  0  0
    6.3032    1.7095   10.7102 C   0  0  0  0  0  0  0  0  0  0  0  0
    6.9706    0.8539   10.8143 H   0  0  0  0  0  0  0  0  0  0  0  0
    5.5118    1.6377   11.4509 H   0  0  0  0  0  0  0  0  0  0  0  0
    6.9018    2.6010   10.8984 H   0  0  0  0  0  0  0  0  0  0  0  0
   11.2070    1.3383    9.1005 C   0  0  2  0  0  3  0  0  0  0  0  0
   10.3048    0.9542   10.1398 C   0  0  0  0  0  0  0  0  0  0  0  0
   10.7990    0.1553   11.1689 C   0  0  0  0  0  0  0  0  0  0  0  0
   10.1286   -0.1387   11.9612 H   0  0  0  0  0  0  0  0  0  0  0  0
   12.1282   -0.2573   11.1744 C   0  0  0  0  0  0  0  0  0  0  0  0
   12.4721   -0.8820   11.9857 H   0  0  0  0  0  0  0  0  0  0  0  0
   13.0041    0.1080   10.1808 C   0  0  0  0  0  0  0  0  0  0  0  0
   14.0321   -0.2190   10.1962 H   0  0  0  0  0  0  0  0  0  0  0  0
   12.5616    0.9204    9.1242 C   0  0  0  0  0  0  0  0  0  0  0  0
   13.3759    1.3598    8.0603 C   0  0  0  0  0  0  0  0  0  0  0  0
   14.4101    1.0504    8.0214 H   0  0  0  0  0  0  0  0  0  0  0  0
   12.8486    2.1769    7.1015 C   0  0  0  0  0  0  0  0  0  0  0  0
   13.4559    2.5368    6.2856 H   0  0  0  0  0  0  0  0  0  0  0  0
   11.4936    2.5664    7.1531 C   0  0  0  0  0  0  0  0  0  0  0  0
   10.9373    3.4812    6.1192 C   0  0  0  0  0  0  0  0  0  0  0  0
   10.2600    2.9298    5.4668 H   0  0  0  0  0  0  0  0  0  0  0  0
   11.7312    3.9202    5.5216 H   0  0  0  0  0  0  0  0  0  0  0  0
   10.3503    4.2723    6.5865 H   0  0  0  0  0  0  0  0  0  0  0  0
  1  6  1  0  0  0  0
  1  8  1  0  0  0  0
  1  4  1  0  0  0  0
  2  1  1  0  0  0  0
  3  1  1  0  0  0  0
  4 28  1  0  0  0  0
  6 22  1  0  0  0  0
  7  1  1  0  0  0  0
  7 27  1  0  0  0  0
  8  5  1  0  0  0  0
  9  6  1  0  0  0  0
 10  3  1  0  0  0  0
 10  9  2  0  0  0  0
 11 10  1  0  0  0  0
 12 11  1  0  0  0  0
 13 11  2  0  0  0  0
 13 15  1  0  0  0  0
 14 13  1  0  0  0  0
 15 17  1  0  0  0  0
 16 15  1  0  0  0  0
 17  9  1  0  0  0  0
 17 18  2  0  0  0  0
 18 20  1  0  0  0  0
 19 18  1  0  0  0  0
 20 22  2  0  0  0  0
 20 21  1  0  0  0  0
 22 23  1  0  0  0  0
 23 24  1  0  0  0  0
 23 26  1  0  0  0  0
 23 25  1  0  0  0  0
 27 35  1  1  0  0  0
 27 28  1  0  0  0  0
 28 29  2  0  0  0  0
 29 31  1  0  0  0  0
 29 30  1  0  0  0  0
 31 32  1  0  0  0  0
 33 34  1  0  0  0  0
 33 31  2  0  0  0  0
 35 33  1  0  0  0  0
 36 35  2  0  0  0  0
 37 36  1  0  0  0  0
 38 40  2  0  0  0  0
 38 36  1  0  0  0  0
 39 38  1  0  0  0  0
 40  7  1  0  0  0  0
 41 44  1  0  0  0  0
 41 40  1  0  0  0  0
 42 41  1  0  0  0  0
 43 41  1  0  0  0  0
M  END
$$$$
