CSD_code = UPIKIO | q = 0 | S = 0 | Stoichiometry = C25H34Cl2N2O2PtS | MND = 5
 OpenBabel04212202103D

 67 67  0  0  1  0  0  0  0  0999 V2000
   -0.2217    4.0346    6.0167 Pt  0  0  0  0  0  0  0  0  0  0  0  0
   -1.7680    5.7855    5.8841 Cl  0  0  0  0  0 15  0  0  0  0  0  0
    1.1981    2.1738    5.7400 Cl  0  0  0  0  0 15  0  0  0  0  0  0
    2.1562    2.5298   10.9774 S   0  0  0  0  0  0  0  0  0  0  0  0
    0.9467    1.7913   11.1928 O   0  0  0  0  0  0  0  0  0  0  0  0
    2.8323    3.0894   12.1112 O   0  0  0  0  0  0  0  0  0  0  0  0
    1.7762    3.7909    9.9482 N   0  0  0  0  0  0  0  0  0  0  0  0
   -1.3154    3.2067    4.5596 N   0  0  0  0  0  0  0  0  0  0  0  0
    1.0975    3.3355    8.7451 C   0  0  0  0  0  0  0  0  0  0  0  0
    0.4991    4.5343    8.0390 C   0  0  2  0  0  3  0  0  0  0  0  0
    1.2705    5.1619    7.0672 C   0  0  2  0  0  0  0  0  0  0  0  0
    1.3386    6.6413    6.8111 C   0  0  0  0  0  0  0  0  0  0  0  0
    2.4316    7.2171    7.7389 C   0  0  0  0  0  0  0  0  0  0  0  0
    1.9967    7.1956    9.1791 C   0  0  0  0  0  0  0  0  0  0  0  0
    2.1549    6.1810   10.0226 C   0  0  0  0  0  0  0  0  0  0  0  0
    2.7806    4.8338    9.8036 C   0  0  0  0  0  0  0  0  0  0  0  0
   -0.6225    5.1623    8.8223 C   0  0  0  0  0  0  0  0  0  0  0  0
    1.3070    8.4531    9.6228 C   0  0  0  0  0  0  0  0  0  0  0  0
    3.3007    1.5254   10.0378 C   0  0  0  0  0  0  0  0  0  0  0  0
    2.8102    0.5495    9.1901 C   0  0  0  0  0  0  0  0  0  0  0  0
    3.6883   -0.1565    8.3893 C   0  0  0  0  0  0  0  0  0  0  0  0
    5.0552    0.1061    8.4302 C   0  0  0  0  0  0  0  0  0  0  0  0
    5.5273    1.0835    9.2992 C   0  0  0  0  0  0  0  0  0  0  0  0
    4.6525    1.7984   10.0998 C   0  0  0  0  0  0  0  0  0  0  0  0
    5.9917   -0.6694    7.5565 C   0  0  0  0  0  0  0  0  0  0  0  0
   -2.3115    2.3762    4.8763 C   0  0  2  0  0  3  0  0  0  0  0  0
   -3.0794    1.7834    3.8861 C   0  0  0  0  0  0  0  0  0  0  0  0
   -2.8189    2.0502    2.5481 C   0  0  0  0  0  0  0  0  0  0  0  0
   -1.7738    2.9213    2.2586 C   0  0  0  0  0  0  0  0  0  0  0  0
   -1.0354    3.4884    3.2835 C   0  0  0  0  0  0  0  0  0  0  0  0
   -2.5546    2.1380    6.3303 C   0  0  0  0  0  0  0  0  0  0  0  0
   -3.6326    1.4429    1.4538 C   0  0  0  0  0  0  0  0  0  0  0  0
    0.0926    4.4335    3.0331 C   0  0  0  0  0  0  0  0  0  0  0  0
    1.7994    2.8035    8.0892 H   0  0  0  0  0  0  0  0  0  0  0  0
    0.3287    2.6406    9.0905 H   0  0  0  0  0  0  0  0  0  0  0  0
    1.6212    6.8324    5.7733 H   0  0  0  0  0  0  0  0  0  0  0  0
    0.3878    7.1351    7.0025 H   0  0  0  0  0  0  0  0  0  0  0  0
    3.3518    6.6478    7.6000 H   0  0  0  0  0  0  0  0  0  0  0  0
    2.6265    8.2490    7.4418 H   0  0  0  0  0  0  0  0  0  0  0  0
    3.5010    4.6617   10.6075 H   0  0  0  0  0  0  0  0  0  0  0  0
    3.2934    4.7517    8.8400 H   0  0  0  0  0  0  0  0  0  0  0  0
    2.2096    4.6616    6.8113 H   0  0  0  0  0  0  0  0  0  0  0  0
    1.7701    6.2861   11.0290 H   0  0  0  0  0  0  0  0  0  0  0  0
    1.7512    0.3478    9.1794 H   0  0  0  0  0  0  0  0  0  0  0  0
    3.3119   -0.9145    7.7188 H   0  0  0  0  0  0  0  0  0  0  0  0
    6.5866    1.2896    9.3478 H   0  0  0  0  0  0  0  0  0  0  0  0
    5.0046    2.5532   10.7852 H   0  0  0  0  0  0  0  0  0  0  0  0
   -3.8796    1.1154    4.1639 H   0  0  0  0  0  0  0  0  0  0  0  0
   -1.5338    3.1597    1.2342 H   0  0  0  0  0  0  0  0  0  0  0  0
   -0.3292    5.2089    9.8688 H   0  0  0  0  0  0  0  0  0  0  0  0
   -0.8745    6.1560    8.4684 H   0  0  0  0  0  0  0  0  0  0  0  0
   -1.5139    4.5352    8.7616 H   0  0  0  0  0  0  0  0  0  0  0  0
    2.0054    9.2898    9.6083 H   0  0  0  0  0  0  0  0  0  0  0  0
    0.4906    8.6943    8.9438 H   0  0  0  0  0  0  0  0  0  0  0  0
    0.9080    8.3537   10.6279 H   0  0  0  0  0  0  0  0  0  0  0  0
    6.0199   -1.7121    7.8713 H   0  0  0  0  0  0  0  0  0  0  0  0
    5.6523   -0.6445    6.5226 H   0  0  0  0  0  0  0  0  0  0  0  0
    6.9997   -0.2665    7.6066 H   0  0  0  0  0  0  0  0  0  0  0  0
   -2.8749    3.0719    6.7987 H   0  0  0  0  0  0  0  0  0  0  0  0
   -3.3223    1.3850    6.4846 H   0  0  0  0  0  0  0  0  0  0  0  0
   -1.6284    1.8097    6.8111 H   0  0  0  0  0  0  0  0  0  0  0  0
   -4.2447    2.2104    0.9808 H   0  0  0  0  0  0  0  0  0  0  0  0
   -2.9851    1.0181    0.6892 H   0  0  0  0  0  0  0  0  0  0  0  0
   -4.2877    0.6658    1.8374 H   0  0  0  0  0  0  0  0  0  0  0  0
    1.0061    4.0391    3.4863 H   0  0  0  0  0  0  0  0  0  0  0  0
    0.2561    4.5801    1.9693 H   0  0  0  0  0  0  0  0  0  0  0  0
   -0.1326    5.3972    3.4974 H   0  0  0  0  0  0  0  0  0  0  0  0
  1 11  1  0  0  0  0
  4  5  2  0  0  0  0
  4  6  2  0  0  0  0
  7  4  1  0  0  0  0
  8 26  1  0  0  0  0
  8  1  1  0  0  0  0
  9 35  1  0  0  0  0
  9  7  1  0  0  0  0
 10  9  1  0  0  0  0
 10 17  1  1  0  0  0
 11 42  1  6  0  0  0
 11 10  1  0  0  0  0
 12 37  1  0  0  0  0
 12 11  1  0  0  0  0
 12 13  1  0  0  0  0
 13 14  1  0  0  0  0
 14 18  1  0  0  0  0
 14 15  2  0  0  0  0
 15 43  1  0  0  0  0
 16  7  1  0  0  0  0
 16 15  1  0  0  0  0
 16 40  1  0  0  0  0
 17 50  1  0  0  0  0
 18 55  1  0  0  0  0
 19 24  1  0  0  0  0
 19  4  1  0  0  0  0
 20 19  2  0  0  0  0
 21 22  2  0  0  0  0
 21 20  1  0  0  0  0
 22 23  1  0  0  0  0
 23 46  1  0  0  0  0
 23 24  2  0  0  0  0
 24 47  1  0  0  0  0
 25 58  1  0  0  0  0
 25 56  1  0  0  0  0
 25 22  1  0  0  0  0
 26 31  1  1  0  0  0
 27 48  1  0  0  0  0
 27 26  1  0  0  0  0
 28 27  2  0  0  0  0
 29 28  1  0  0  0  0
 29 30  2  0  0  0  0
 30  8  1  0  0  0  0
 31 60  1  0  0  0  0
 31 59  1  0  0  0  0
 31 61  1  0  0  0  0
 32 64  1  0  0  0  0
 32 28  1  0  0  0  0
 33 30  1  0  0  0  0
 33 65  1  0  0  0  0
 33 67  1  0  0  0  0
 34  9  1  0  0  0  0
 36 12  1  0  0  0  0
 38 13  1  0  0  0  0
 39 13  1  0  0  0  0
 41 16  1  0  0  0  0
 44 20  1  0  0  0  0
 45 21  1  0  0  0  0
 49 29  1  0  0  0  0
 51 17  1  0  0  0  0
 52 17  1  0  0  0  0
 53 18  1  0  0  0  0
 54 18  1  0  0  0  0
 57 25  1  0  0  0  0
 62 32  1  0  0  0  0
 63 32  1  0  0  0  0
 66 33  1  0  0  0  0
M  END
$$$$
