CSD_code = UPIKOU | q = 0 | S = 0 | Stoichiometry = C25H34Cl2N2O3PtS | MND = 5
 OpenBabel04212202103D

 68 69  0  0  1  0  0  0  0  0999 V2000
    6.6154   11.6381   17.3768 Pt  0  0  0  0  0  0  0  0  0  0  0  0
    8.2398    9.9558   17.4870 Cl  0  0  0  0  0 15  0  0  0  0  0  0
    5.1401   13.3947   16.8555 Cl  0  0  0  0  0 15  0  0  0  0  0  0
    4.1634   13.2759   22.3126 S   0  0  0  0  0  0  0  0  0  0  0  0
    3.0019    8.6489   21.4604 O   0  0  0  0  0  0  0  0  0  0  0  0
    5.3869   14.0199   22.3788 O   0  0  0  0  0  0  0  0  0  0  0  0
    3.6930   12.6099   23.4900 O   0  0  0  0  0  0  0  0  0  0  0  0
    4.3757   12.1072   21.1422 N   0  0  0  0  0  0  0  0  0  0  0  0
    7.7532   12.3837   15.9108 N   0  0  0  0  0  0  0  0  0  0  0  0
    5.0676   12.5289   19.9397 C   0  0  0  0  0  0  0  0  0  0  0  0
    5.7910   11.3152   19.3865 C   0  0  2  0  0  3  0  0  0  0  0  0
    5.1216   10.5315   18.4545 C   0  0  2  0  0  0  0  0  0  0  0  0
    5.1630    9.0304   18.3661 C   0  0  0  0  0  0  0  0  0  0  0  0
    3.9999    8.4710   19.2030 C   0  0  0  0  0  0  0  0  0  0  0  0
    4.1938    8.5637   20.7078 C   0  0  1  0  0  0  0  0  0  0  0  0
    3.8616    9.7545   21.5120 C   0  0  1  0  0  0  0  0  0  0  0  0
    3.3448   11.1013   21.0313 C   0  0  0  0  0  0  0  0  0  0  0  0
    6.8817   10.8368   20.3068 C   0  0  0  0  0  0  0  0  0  0  0  0
    5.2336    7.6071   21.2584 C   0  0  0  0  0  0  0  0  0  0  0  0
    2.8638   14.3190   21.6641 C   0  0  0  0  0  0  0  0  0  0  0  0
    1.5627   14.1316   22.0902 C   0  0  0  0  0  0  0  0  0  0  0  0
    0.5520   14.8971   21.5380 C   0  0  0  0  0  0  0  0  0  0  0  0
    0.8333   15.8453   20.5577 C   0  0  0  0  0  0  0  0  0  0  0  0
    2.1509   16.0184   20.1475 C   0  0  0  0  0  0  0  0  0  0  0  0
    3.1681   15.2579   20.6979 C   0  0  0  0  0  0  0  0  0  0  0  0
   -0.2732   16.6542   19.9554 C   0  0  0  0  0  0  0  0  0  0  0  0
    7.5600   11.9847   14.6513 C   0  0  1  0  0  3  0  0  0  0  0  0
    8.3281   12.5046   13.6212 C   0  0  0  0  0  0  0  0  0  0  0  0
    9.3097   13.4499   13.8907 C   0  0  0  0  0  0  0  0  0  0  0  0
    9.4817   13.8379   15.2154 C   0  0  0  0  0  0  0  0  0  0  0  0
    8.6899   13.2888   16.2096 C   0  0  0  0  0  0  0  0  0  0  0  0
    6.4937   10.9656   14.4222 C   0  0  0  0  0  0  0  0  0  0  0  0
    8.8339   13.6583   17.6495 C   0  0  0  0  0  0  0  0  0  0  0  0
   10.1664   14.0176   12.8082 C   0  0  0  0  0  0  0  0  0  0  0  0
    5.7659   13.3033   20.2613 H   0  0  0  0  0  0  0  0  0  0  0  0
    4.3631   12.9469   19.2099 H   0  0  0  0  0  0  0  0  0  0  0  0
    4.1772   10.9367   18.0785 H   0  0  0  0  0  0  0  0  0  0  0  0
    6.1110    8.6252   18.7120 H   0  0  0  0  0  0  0  0  0  0  0  0
    5.0187    8.7137   17.3303 H   0  0  0  0  0  0  0  0  0  0  0  0
    3.8709    7.4133   18.9609 H   0  0  0  0  0  0  0  0  0  0  0  0
    3.0724    8.9792   18.9325 H   0  0  0  0  0  0  0  0  0  0  0  0
    4.3805    9.8664   22.4646 H   0  0  0  0  0  0  0  0  0  0  0  0
    2.5304   11.3843   21.7044 H   0  0  0  0  0  0  0  0  0  0  0  0
    2.9501   11.0507   20.0134 H   0  0  0  0  0  0  0  0  0  0  0  0
    7.6477   11.6077   20.3994 H   0  0  0  0  0  0  0  0  0  0  0  0
    6.4597   10.6837   21.2983 H   0  0  0  0  0  0  0  0  0  0  0  0
    7.3498    9.9218   19.9593 H   0  0  0  0  0  0  0  0  0  0  0  0
    5.2361    7.6410   22.3444 H   0  0  0  0  0  0  0  0  0  0  0  0
    5.0041    6.5898   20.9479 H   0  0  0  0  0  0  0  0  0  0  0  0
    6.2232    7.8699   20.8958 H   0  0  0  0  0  0  0  0  0  0  0  0
    4.1946   15.3969   20.3996 H   0  0  0  0  0  0  0  0  0  0  0  0
    2.3838   16.7533   19.3912 H   0  0  0  0  0  0  0  0  0  0  0  0
   -0.4670   14.7616   21.8699 H   0  0  0  0  0  0  0  0  0  0  0  0
    1.3656   13.4046   22.8625 H   0  0  0  0  0  0  0  0  0  0  0  0
    0.1198   17.5015   19.4002 H   0  0  0  0  0  0  0  0  0  0  0  0
   -0.9468   17.0185   20.7281 H   0  0  0  0  0  0  0  0  0  0  0  0
   -0.8550   16.0367   19.2712 H   0  0  0  0  0  0  0  0  0  0  0  0
    8.1562   12.1699   12.6102 H   0  0  0  0  0  0  0  0  0  0  0  0
   10.2320   14.5683   15.4748 H   0  0  0  0  0  0  0  0  0  0  0  0
    5.5379   11.3486   14.7902 H   0  0  0  0  0  0  0  0  0  0  0  0
    6.7358   10.0561   14.9782 H   0  0  0  0  0  0  0  0  0  0  0  0
    6.3987   10.7235   13.3676 H   0  0  0  0  0  0  0  0  0  0  0  0
   10.3108   15.0859   12.9534 H   0  0  0  0  0  0  0  0  0  0  0  0
   11.1473   13.5428   12.8314 H   0  0  0  0  0  0  0  0  0  0  0  0
    9.7259   13.8453   11.8300 H   0  0  0  0  0  0  0  0  0  0  0  0
    9.5838   14.4324   17.7853 H   0  0  0  0  0  0  0  0  0  0  0  0
    7.8757   14.0171   18.0360 H   0  0  0  0  0  0  0  0  0  0  0  0
    9.1277   12.7743   18.2214 H   0  0  0  0  0  0  0  0  0  0  0  0
  1 12  1  0  0  0  0
  4  6  2  0  0  0  0
  4  7  2  0  0  0  0
  5 16  1  0  0  0  0
  8  4  1  0  0  0  0
  9 31  1  0  0  0  0
  9  1  1  0  0  0  0
 10 35  1  0  0  0  0
 10  8  1  0  0  0  0
 11 10  1  0  0  0  0
 11 18  1  1  0  0  0
 12 37  1  6  0  0  0
 12 11  1  0  0  0  0
 13 12  1  0  0  0  0
 13 38  1  0  0  0  0
 13 14  1  0  0  0  0
 14 15  1  0  0  0  0
 15 19  1  1  0  0  0
 15  5  1  0  0  0  0
 15 16  1  0  0  0  0
 16 42  1  1  0  0  0
 17  8  1  0  0  0  0
 17 16  1  0  0  0  0
 17 43  1  0  0  0  0
 18 45  1  0  0  0  0
 18 46  1  0  0  0  0
 19 48  1  0  0  0  0
 20 21  1  0  0  0  0
 20  4  1  0  0  0  0
 21 54  1  0  0  0  0
 22 53  1  0  0  0  0
 22 21  2  0  0  0  0
 23 22  1  0  0  0  0
 24 23  2  0  0  0  0
 24 25  1  0  0  0  0
 25 20  2  0  0  0  0
 26 23  1  0  0  0  0
 26 56  1  0  0  0  0
 27 32  1  1  0  0  0
 27  9  1  0  0  0  0
 28 29  2  0  0  0  0
 28 27  1  0  0  0  0
 29 30  1  0  0  0  0
 30 59  1  0  0  0  0
 30 31  2  0  0  0  0
 31 33  1  0  0  0  0
 32 60  1  0  0  0  0
 32 61  1  0  0  0  0
 33 66  1  0  0  0  0
 33 67  1  0  0  0  0
 33 68  1  0  0  0  0
 34 64  1  0  0  0  0
 34 63  1  0  0  0  0
 34 29  1  0  0  0  0
 36 10  1  0  0  0  0
 39 13  1  0  0  0  0
 40 14  1  0  0  0  0
 41 14  1  0  0  0  0
 44 17  1  0  0  0  0
 47 18  1  0  0  0  0
 49 19  1  0  0  0  0
 50 19  1  0  0  0  0
 51 25  1  0  0  0  0
 52 24  1  0  0  0  0
 55 26  1  0  0  0  0
 57 26  1  0  0  0  0
 58 28  1  0  0  0  0
 62 32  1  0  0  0  0
 65 34  1  0  0  0  0
M  END
$$$$
