CSD_code = UPOPEW | q = 0 | S = 0 | Stoichiometry = C14H19ClOZr | MND = 12
 OpenBabel04212202103D

 36 36  0  0  1  0  0  0  0  0999 V2000
    2.7028    9.7846    3.9967 Zr  0  0  0  0  0  0  0  0  0  0  0  0
    2.7226   10.0468    6.3403 Cl  0  0  0  0  0  0  0  0  0  0  0  0
    1.6100   11.1488    3.3542 O   0  0  0  0  0  0  0  0  0  0  0  0
    0.9024   12.1693    3.9948 C   0  0  0  0  0  0  0  0  0  0  0  0
    5.1926    9.6049    4.2213 C   0  0  0  0  0  0  0  0  0  0  0  0
    5.6845    9.0432    5.0081 H   0  0  0  0  0  0  0  0  0  0  0  0
    0.7605    8.2328    4.3809 C   0  0  0  0  0  3  0  0  0  0  0  0
   -0.0953    8.4671    5.0026 H   0  0  0  0  0  0  0  0  0  0  0  0
    2.0692    7.8510    2.5466 C   0  0  0  0  0  3  0  0  0  0  0  0
    2.3762    7.7397    1.5129 H   0  0  0  0  0  0  0  0  0  0  0  0
    4.4041   11.3682    2.9970 C   0  0  0  0  0  0  0  0  0  0  0  0
    4.1799   12.3769    2.6746 H   0  0  0  0  0  0  0  0  0  0  0  0
    0.8610    8.4372    2.9859 C   0  0  2  0  0  0  0  0  0  0  0  0
    0.1023    8.8770    2.3490 H   0  0  0  0  0  0  0  0  0  0  0  0
    2.6990    7.2594    3.6690 C   0  0  0  0  0  0  0  0  0  0  0  0
    3.5654    6.6095    3.6453 H   0  0  0  0  0  0  0  0  0  0  0  0
    4.8805   10.9860    4.2685 C   0  0  0  0  0  3  0  0  0  0  0  0
    5.0892   11.6518    5.0986 H   0  0  0  0  0  0  0  0  0  0  0  0
    4.9105    9.1424    2.9204 C   0  0  0  0  0  0  0  0  0  0  0  0
    5.1795    8.1735    2.5187 H   0  0  0  0  0  0  0  0  0  0  0  0
    4.3969   10.2244    2.1697 C   0  0  0  0  0  0  0  0  0  0  0  0
    4.1789   10.2155    1.1085 H   0  0  0  0  0  0  0  0  0  0  0  0
    1.8935    7.4965    4.7960 C   0  0  0  0  0  0  0  0  0  0  0  0
    2.0545    7.0962    5.7898 H   0  0  0  0  0  0  0  0  0  0  0  0
   -0.1339   11.5514    4.9548 C   0  0  0  0  0  0  0  0  0  0  0  0
   -0.8079   10.9033    4.3940 H   0  0  0  0  0  0  0  0  0  0  0  0
   -0.7182   12.3329    5.4350 H   0  0  0  0  0  0  0  0  0  0  0  0
    0.3795   10.9674    5.7226 H   0  0  0  0  0  0  0  0  0  0  0  0
    0.1831   13.0112    2.9258 C   0  0  0  0  0  0  0  0  0  0  0  0
    0.9133   13.4077    2.2238 H   0  0  0  0  0  0  0  0  0  0  0  0
   -0.3576   13.8344    3.3839 H   0  0  0  0  0  0  0  0  0  0  0  0
   -0.5158   12.3847    2.3762 H   0  0  0  0  0  0  0  0  0  0  0  0
    1.8759   13.0614    4.7920 C   0  0  0  0  0  0  0  0  0  0  0  0
    2.4339   12.4504    5.5060 H   0  0  0  0  0  0  0  0  0  0  0  0
    1.3252   13.8263    5.3345 H   0  0  0  0  0  0  0  0  0  0  0  0
    2.5742   13.5499    4.1136 H   0  0  0  0  0  0  0  0  0  0  0  0
  1  2  1  0  0  0  0
  3  4  1  0  0  0  0
  3  1  1  0  0  0  0
  4 33  1  0  0  0  0
  4 25  1  0  0  0  0
  5 17  1  0  0  0  0
  5  6  1  0  0  0  0
  7 23  1  0  0  0  0
  7  8  1  0  0  0  0
  9 13  1  0  0  0  0
  9 15  1  0  0  0  0
 10  9  1  0  0  0  0
 11 17  1  0  0  0  0
 12 11  1  0  0  0  0
 13 14  1  6  0  0  0
 13  1  1  0  0  0  0
 13  7  1  0  0  0  0
 15 23  2  0  0  0  0
 16 15  1  0  0  0  0
 17 18  1  0  0  0  0
 19  5  2  0  0  0  0
 20 19  1  0  0  0  0
 21 19  1  0  0  0  0
 21 11  2  0  0  0  0
 22 21  1  0  0  0  0
 23 24  1  0  0  0  0
 25 27  1  0  0  0  0
 25 28  1  0  0  0  0
 26 25  1  0  0  0  0
 29 31  1  0  0  0  0
 29  4  1  0  0  0  0
 30 29  1  0  0  0  0
 32 29  1  0  0  0  0
 33 35  1  0  0  0  0
 33 34  1  0  0  0  0
 36 33  1  0  0  0  0
M  END
$$$$
