CSD_code = UPUDUG | q = 0 | S = 0 | Stoichiometry = C34H24Cl2N4OZn | MND = 5
 OpenBabel04212202103D

 66 73  0  0  1  0  0  0  0  0999 V2000
    4.7368   16.6596   10.3213 Zn  0  0  0  0  0  0  0  0  0  0  0  0
    6.1405   18.2860    9.7791 Cl  0  0  0  0  0  0  0  0  0  0  0  0
    3.0969   16.7599   11.8626 Cl  0  0  0  0  0  0  0  0  0  0  0  0
   -0.6870    7.9418   11.3894 N   0  0  0  0  0  0  0  0  0  0  0  0
    4.1937   14.6447    9.9150 N   0  0  0  0  0  0  0  0  0  0  0  0
    3.4894   16.7117    8.5010 N   0  0  0  0  0  0  0  0  0  0  0  0
    1.7275   11.2962   10.6510 C   0  0  0  0  0  0  0  0  0  0  0  0
    6.1459   15.4022   11.4611 N   0  0  0  0  0  0  0  0  0  0  0  0
    3.7565   12.6562   11.1202 C   0  0  0  0  0  0  0  0  0  0  0  0
    4.0385   11.9531   11.8865 H   0  0  0  0  0  0  0  0  0  0  0  0
    2.2372   13.4043    9.4280 C   0  0  0  0  0  0  0  0  0  0  0  0
    1.3048   13.3125    8.8954 H   0  0  0  0  0  0  0  0  0  0  0  0
    2.5824   12.4566   10.3927 C   0  0  0  0  0  0  0  0  0  0  0  0
    3.0719   14.4961    9.2228 C   0  0  1  0  0  3  0  0  0  0  0  0
    2.7780   15.6015    8.2968 C   0  0  1  0  0  3  0  0  0  0  0  0
    1.5533   10.8104   11.9475 C   0  0  0  0  0  0  0  0  0  0  0  0
    2.0172   11.3221   12.7769 H   0  0  0  0  0  0  0  0  0  0  0  0
    5.7443   14.1390   11.6133 C   0  0  2  0  0  3  0  0  0  0  0  0
    4.5355   13.7758   10.8569 C   0  0  0  0  0  0  0  0  0  0  0  0
   -0.2919    7.0338   12.3905 C   0  0  0  0  0  0  0  0  0  0  0  0
    0.2794    9.5429    9.8424 C   0  0  0  0  0  0  0  0  0  0  0  0
   -0.2014    9.0350    9.0196 H   0  0  0  0  0  0  0  0  0  0  0  0
    0.1045    9.0633   11.1424 C   0  0  0  0  0  0  0  0  0  0  0  0
    0.7525    9.7169   12.1926 C   0  0  0  0  0  0  0  0  0  0  0  0
    0.6138    9.3630   13.2032 H   0  0  0  0  0  0  0  0  0  0  0  0
    6.4293   13.2577   12.4456 C   0  0  0  0  0  0  0  0  0  0  0  0
    6.1112   12.2323   12.5461 H   0  0  0  0  0  0  0  0  0  0  0  0
    3.2961   17.7692    7.7363 C   0  0  0  0  0  0  0  0  0  0  0  0
    3.9157   18.6274    7.9579 H   0  0  0  0  0  0  0  0  0  0  0  0
    1.8300   15.5268    7.2798 C   0  0  0  0  0  0  0  0  0  0  0  0
    1.2740   14.6190    7.1086 H   0  0  0  0  0  0  0  0  0  0  0  0
   -1.8504    7.7141   10.6647 C   0  0  0  0  0  0  0  0  0  0  0  0
    1.0716   10.6447    9.6057 C   0  0  0  0  0  0  0  0  0  0  0  0
    1.2166   10.9820    8.5902 H   0  0  0  0  0  0  0  0  0  0  0  0
    7.2059   15.8406   12.1129 C   0  0  0  0  0  0  0  0  0  0  0  0
    7.4738   16.8726   11.9319 H   0  0  0  0  0  0  0  0  0  0  0  0
   -2.2676    6.4075   10.3837 C   0  0  0  0  0  0  0  0  0  0  0  0
   -1.6684    5.5756   10.7227 H   0  0  0  0  0  0  0  0  0  0  0  0
    1.6219   16.6367    6.4772 C   0  0  0  0  0  0  0  0  0  0  0  0
    0.8908   16.6037    5.6830 H   0  0  0  0  0  0  0  0  0  0  0  0
    1.0489    6.6811   12.5249 C   0  0  0  0  0  0  0  0  0  0  0  0
    1.7800    7.1018   11.8500 H   0  0  0  0  0  0  0  0  0  0  0  0
   -1.2348    6.4860   13.2569 C   0  0  0  0  0  0  0  0  0  0  0  0
   -2.2736    6.7645   13.1585 H   0  0  0  0  0  0  0  0  0  0  0  0
    2.3656   17.7826    6.7068 C   0  0  0  0  0  0  0  0  0  0  0  0
    2.2319   18.6663    6.1040 H   0  0  0  0  0  0  0  0  0  0  0  0
    7.5402   13.7159   13.1347 C   0  0  0  0  0  0  0  0  0  0  0  0
    8.0863   13.0515   13.7882 H   0  0  0  0  0  0  0  0  0  0  0  0
    7.9390   15.0322   12.9702 C   0  0  0  0  0  0  0  0  0  0  0  0
    8.7973   15.4256   13.4903 H   0  0  0  0  0  0  0  0  0  0  0  0
    0.4955    5.2475   14.3692 C   0  0  0  0  0  0  0  0  0  0  0  0
    0.8010    4.5533   15.1369 H   0  0  0  0  0  0  0  0  0  0  0  0
   -3.4221    6.1869    9.6711 C   0  0  0  0  0  0  0  0  0  0  0  0
   -3.7468    5.1835    9.4402 H   0  0  0  0  0  0  0  0  0  0  0  0
   -5.8602    5.9204    8.1734 O   0  0  0  0  0  0  0  0  0  0  0  0
   -4.1992    7.2574    9.2178 C   0  0  0  0  0  0  0  0  0  0  0  0
   -0.8388    5.5951   14.2363 C   0  0  0  0  0  0  0  0  0  0  0  0
   -1.5765    5.1762   14.9040 H   0  0  0  0  0  0  0  0  0  0  0  0
   -2.6283    8.7875   10.2139 C   0  0  0  0  0  0  0  0  0  0  0  0
   -2.3216    9.7972   10.4442 H   0  0  0  0  0  0  0  0  0  0  0  0
    1.4360    5.7952   13.5124 C   0  0  0  0  0  0  0  0  0  0  0  0
    2.4771    5.5252   13.6073 H   0  0  0  0  0  0  0  0  0  0  0  0
   -5.4236    7.0081    8.4614 C   0  0  0  0  0  0  0  0  0  0  0  0
   -5.9528    7.9333    8.1536 H   0  0  0  0  0  0  0  0  0  0  0  0
   -3.7835    8.5599    9.5024 C   0  0  0  0  0  0  0  0  0  0  0  0
   -4.3825    9.3952    9.1690 H   0  0  0  0  0  0  0  0  0  0  0  0
  1  8  1  0  0  0  0
  1  3  1  0  0  0  0
  2  1  1  0  0  0  0
  4 20  1  0  0  0  0
  5  1  1  0  0  0  0
  5 19  1  0  0  0  0
  6  1  1  0  0  0  0
  7 16  1  0  0  0  0
  8 18  1  0  0  0  0
  8 35  1  0  0  0  0
  9 10  1  0  0  0  0
 11 13  2  0  0  0  0
 12 11  1  0  0  0  0
 13  7  1  0  0  0  0
 13  9  1  0  0  0  0
 14 11  1  1  0  0  0
 14  5  1  0  0  0  0
 15 30  1  1  0  0  0
 15  6  1  0  0  0  0
 15 14  1  0  0  0  0
 16 24  2  0  0  0  0
 16 17  1  0  0  0  0
 18 19  1  1  0  0  0
 18 26  1  0  0  0  0
 19  9  2  0  0  0  0
 20 41  2  0  0  0  0
 20 43  1  0  0  0  0
 21 23  2  0  0  0  0
 22 21  1  0  0  0  0
 23  4  1  0  0  0  0
 23 24  1  0  0  0  0
 24 25  1  0  0  0  0
 26 27  1  0  0  0  0
 26 47  2  0  0  0  0
 28 29  1  0  0  0  0
 28  6  1  0  0  0  0
 31 30  1  0  0  0  0
 32  4  1  0  0  0  0
 33 21  1  0  0  0  0
 33  7  2  0  0  0  0
 34 33  1  0  0  0  0
 35 49  2  0  0  0  0
 36 35  1  0  0  0  0
 37 32  1  0  0  0  0
 37 38  1  0  0  0  0
 39 45  1  0  0  0  0
 39 30  2  0  0  0  0
 40 39  1  0  0  0  0
 41 61  1  0  0  0  0
 42 41  1  0  0  0  0
 43 57  2  0  0  0  0
 44 43  1  0  0  0  0
 45 28  2  0  0  0  0
 46 45  1  0  0  0  0
 47 48  1  0  0  0  0
 49 47  1  0  0  0  0
 49 50  1  0  0  0  0
 51 52  1  0  0  0  0
 53 37  2  0  0  0  0
 54 53  1  0  0  0  0
 55 63  2  0  0  0  0
 56 65  2  0  0  0  0
 56 53  1  0  0  0  0
 57 51  1  0  0  0  0
 57 58  1  0  0  0  0
 59 60  1  0  0  0  0
 59 32  2  0  0  0  0
 61 62  1  0  0  0  0
 61 51  2  0  0  0  0
 63 56  1  0  0  0  0
 64 63  1  0  0  0  0
 65 59  1  0  0  0  0
 66 65  1  0  0  0  0
M  END
$$$$
