CSD_code = UPURII | q = 0 | S = 0 | Stoichiometry = C34H25Cl2N5OZn | MND = 5
 OpenBabel04212202103D

 68 75  0  0  1  0  0  0  0  0999 V2000
    4.5994    3.7447   22.2963 Zn  0  0  0  0  0  0  0  0  0  0  0  0
    3.9156    4.2712   20.2170 Cl  0  0  0  0  0  0  0  0  0  0  0  0
    3.5633    2.3904   23.7135 Cl  0  0  0  0  0  0  0  0  0  0  0  0
   10.9384   10.2529   17.3814 N   0  0  0  0  0  0  0  0  0  0  0  0
    4.1378    5.6491   23.3070 N   0  0  0  0  0  0  0  0  0  0  0  0
   13.1687    9.9168   14.4675 C   0  0  0  0  0  0  0  0  0  0  0  0
   13.3688   10.3937   13.5219 H   0  0  0  0  0  0  0  0  0  0  0  0
    8.0235    5.3283   20.4462 C   0  0  0  0  0  0  0  0  0  0  0  0
    8.7773    4.9262   19.7896 H   0  0  0  0  0  0  0  0  0  0  0  0
    6.3073    4.9784   22.0370 N   0  0  0  0  0  0  0  0  0  0  0  0
    6.2492    2.3979   21.7318 N   0  0  0  0  0  0  0  0  0  0  0  0
    8.6211    7.6254   19.6955 C   0  0  0  0  0  0  0  0  0  0  0  0
    9.7495    9.7436   19.4298 C   0  0  0  0  0  0  0  0  0  0  0  0
   10.0388   10.7032   19.8316 H   0  0  0  0  0  0  0  0  0  0  0  0
    6.0739    6.2828   22.1011 C   0  0  2  0  0  3  0  0  0  0  0  0
   11.9265    9.7623   16.5247 C   0  0  0  0  0  0  0  0  0  0  0  0
   13.9263    8.7965   14.8212 C   0  0  0  0  0  0  0  0  0  0  0  0
    4.9439    6.6563   22.9667 C   0  0  1  0  0  3  0  0  0  0  0  0
   15.2375    8.8430   12.8469 N   0  0  0  0  0  0  0  0  0  0  0  0
    6.8162    7.1862   21.3515 C   0  0  0  0  0  0  0  0  0  0  0  0
    6.5882    8.2393   21.3718 H   0  0  0  0  0  0  0  0  0  0  0  0
    7.2331    4.4900   21.2220 C   0  0  0  0  0  0  0  0  0  0  0  0
   12.1847   10.3917   15.3033 C   0  0  0  0  0  0  0  0  0  0  0  0
   11.5992   11.2532   15.0183 H   0  0  0  0  0  0  0  0  0  0  0  0
    8.9863    8.8812   20.1842 C   0  0  0  0  0  0  0  0  0  0  0  0
    8.7015    9.1690   21.1854 H   0  0  0  0  0  0  0  0  0  0  0  0
    4.7050    7.9546   23.4096 C   0  0  0  0  0  0  0  0  0  0  0  0
    5.3727    8.7594   23.1467 H   0  0  0  0  0  0  0  0  0  0  0  0
   10.1692    9.3830   18.1464 C   0  0  0  0  0  0  0  0  0  0  0  0
   10.7285   11.6395   17.4769 C   0  0  0  0  0  0  0  0  0  0  0  0
   13.6644    8.1693   16.0399 C   0  0  0  0  0  0  0  0  0  0  0  0
   14.2452    7.3068   16.3351 H   0  0  0  0  0  0  0  0  0  0  0  0
    8.3333    2.3035   20.5941 C   0  0  0  0  0  0  0  0  0  0  0  0
    9.1823    2.8119   20.1662 H   0  0  0  0  0  0  0  0  0  0  0  0
    7.8206    6.7086   20.5071 C   0  0  0  0  0  0  0  0  0  0  0  0
    7.2916    3.0200   21.1778 C   0  0  2  0  0  3  0  0  0  0  0  0
    9.7947    8.1320   17.6478 C   0  0  0  0  0  0  0  0  0  0  0  0
   10.0910    7.8502   16.6484 H   0  0  0  0  0  0  0  0  0  0  0  0
   12.6824    8.6442   16.8818 C   0  0  0  0  0  0  0  0  0  0  0  0
   12.4998    8.1590   17.8295 H   0  0  0  0  0  0  0  0  0  0  0  0
   16.2169    8.3302   12.0720 O   0  0  0  0  0  0  0  0  0  0  0  0
   16.6298    7.5396   12.4772 H   0  0  0  0  0  0  0  0  0  0  0  0
    9.0404    7.2703   18.4119 C   0  0  0  0  0  0  0  0  0  0  0  0
    8.7328    6.3249   17.9913 H   0  0  0  0  0  0  0  0  0  0  0  0
   14.9653    8.2878   13.9524 C   0  0  0  0  0  0  0  0  0  0  0  0
   15.5093    7.3957   14.2990 H   0  0  0  0  0  0  0  0  0  0  0  0
    8.2692    0.9197   20.5826 C   0  0  0  0  0  0  0  0  0  0  0  0
    9.0634    0.3428   20.1320 H   0  0  0  0  0  0  0  0  0  0  0  0
    3.6004    8.1950   24.2101 C   0  0  0  0  0  0  0  0  0  0  0  0
    3.3939    9.1938   24.5655 H   0  0  0  0  0  0  0  0  0  0  0  0
    6.1875    1.0801   21.7269 C   0  0  0  0  0  0  0  0  0  0  0  0
    5.3160    0.6500   22.2010 H   0  0  0  0  0  0  0  0  0  0  0  0
    3.0864    5.8742   24.0714 C   0  0  0  0  0  0  0  0  0  0  0  0
    2.4860    5.0070   24.3097 H   0  0  0  0  0  0  0  0  0  0  0  0
    2.7711    7.1384   24.5489 C   0  0  0  0  0  0  0  0  0  0  0  0
    1.9024    7.2858   25.1699 H   0  0  0  0  0  0  0  0  0  0  0  0
    7.1767    0.2911   21.1572 C   0  0  0  0  0  0  0  0  0  0  0  0
    7.0904   -0.7834   21.1663 H   0  0  0  0  0  0  0  0  0  0  0  0
   11.8106   12.5171   17.4757 C   0  0  0  0  0  0  0  0  0  0  0  0
   12.8143   12.1242   17.4068 H   0  0  0  0  0  0  0  0  0  0  0  0
    9.4351   12.1493   17.5708 C   0  0  0  0  0  0  0  0  0  0  0  0
    8.5942   11.4713   17.5623 H   0  0  0  0  0  0  0  0  0  0  0  0
   11.5976   13.8795   17.5636 C   0  0  0  0  0  0  0  0  0  0  0  0
   12.4430   14.5512   17.5627 H   0  0  0  0  0  0  0  0  0  0  0  0
    9.2330   13.5128   17.6662 C   0  0  0  0  0  0  0  0  0  0  0  0
    8.2266   13.8981   17.7349 H   0  0  0  0  0  0  0  0  0  0  0  0
   10.3108   14.3830   17.6615 C   0  0  0  0  0  0  0  0  0  0  0  0
   10.1487   15.4476   17.7320 H   0  0  0  0  0  0  0  0  0  0  0  0
  1  5  1  0  0  0  0
  1  3  1  0  0  0  0
  2  1  1  0  0  0  0
  4 30  1  0  0  0  0
  4 29  1  0  0  0  0
  5 53  1  0  0  0  0
  6 17  2  0  0  0  0
  6 23  1  0  0  0  0
  7  6  1  0  0  0  0
  8 35  1  0  0  0  0
  8 22  2  0  0  0  0
  9  8  1  0  0  0  0
 10 15  1  0  0  0  0
 10  1  1  0  0  0  0
 11  1  1  0  0  0  0
 12 25  1  0  0  0  0
 12 35  1  0  0  0  0
 13 14  1  0  0  0  0
 13 25  2  0  0  0  0
 15 20  1  6  0  0  0
 15 18  1  0  0  0  0
 16 39  1  0  0  0  0
 16  4  1  0  0  0  0
 17 31  1  0  0  0  0
 18  5  1  0  0  0  0
 18 27  1  6  0  0  0
 19 45  2  0  0  0  0
 20 21  1  0  0  0  0
 22 10  1  0  0  0  0
 23 16  2  0  0  0  0
 24 23  1  0  0  0  0
 25 26  1  0  0  0  0
 27 49  2  0  0  0  0
 28 27  1  0  0  0  0
 29 13  1  0  0  0  0
 30 61  1  0  0  0  0
 31 32  1  0  0  0  0
 31 39  2  0  0  0  0
 34 33  1  0  0  0  0
 35 20  2  0  0  0  0
 36 33  1  6  0  0  0
 36 22  1  0  0  0  0
 36 11  1  0  0  0  0
 37 29  2  0  0  0  0
 37 43  1  0  0  0  0
 38 37  1  0  0  0  0
 39 40  1  0  0  0  0
 41 42  1  0  0  0  0
 41 19  1  0  0  0  0
 43 12  2  0  0  0  0
 44 43  1  0  0  0  0
 45 46  1  0  0  0  0
 45 17  1  0  0  0  0
 47 33  2  0  0  0  0
 47 57  1  0  0  0  0
 48 47  1  0  0  0  0
 49 55  1  0  0  0  0
 49 50  1  0  0  0  0
 51 11  1  0  0  0  0
 51 52  1  0  0  0  0
 53 54  1  0  0  0  0
 53 55  2  0  0  0  0
 55 56  1  0  0  0  0
 57 58  1  0  0  0  0
 57 51  2  0  0  0  0
 59 30  2  0  0  0  0
 59 63  1  0  0  0  0
 60 59  1  0  0  0  0
 61 65  2  0  0  0  0
 62 61  1  0  0  0  0
 63 67  2  0  0  0  0
 64 63  1  0  0  0  0
 65 66  1  0  0  0  0
 67 65  1  0  0  0  0
 67 68  1  0  0  0  0
M  END
$$$$
