CSD_code = UQEZOH | q = 0 | S = 0 | Stoichiometry = C15H15I2N3Pd | MND = 4
 OpenBabel04212202103D

 36 38  0  0  0  0  0  0  0  0999 V2000
    7.8695    0.5623   18.8546 C   0  0  0  0  0  0  0  0  0  0  0  0
    6.8474   -1.3942   19.0598 C   0  0  0  0  0  0  0  0  0  0  0  0
    6.6598   -2.3697   19.4585 H   0  0  0  0  0  0  0  0  0  0  0  0
    6.2109   -0.7037   18.0860 C   0  0  0  0  0  0  0  0  0  0  0  0
    5.3580   -0.9616   17.4935 H   0  0  0  0  0  0  0  0  0  0  0  0
    8.8376   -0.9415   20.5252 C   0  0  0  0  0  0  0  0  0  0  0  0
    9.1914   -1.9624   20.3808 H   0  0  0  0  0  0  0  0  0  0  0  0
    8.4004   -0.8431   21.5222 H   0  0  0  0  0  0  0  0  0  0  0  0
    9.6906   -0.2462   20.4390 H   0  0  0  0  0  0  0  0  0  0  0  0
    6.6303    1.5048   16.9983 C   0  0  0  0  0  0  0  0  0  0  0  0
    6.2984    1.1439   15.6987 C   0  0  0  0  0  0  0  0  0  0  0  0
    6.1754    0.1021   15.4444 H   0  0  0  0  0  0  0  0  0  0  0  0
    6.1671    2.1202   14.7279 C   0  0  0  0  0  0  0  0  0  0  0  0
    5.9199    1.8348   13.7170 H   0  0  0  0  0  0  0  0  0  0  0  0
    6.3708    3.4522   15.0444 C   0  0  0  0  0  0  0  0  0  0  0  0
    6.2804    4.2094   14.2808 H   0  0  0  0  0  0  0  0  0  0  0  0
    6.6897    3.8136   16.3429 C   0  0  0  0  0  0  0  0  0  0  0  0
    6.8281    4.8553   16.5944 H   0  0  0  0  0  0  0  0  0  0  0  0
    6.8220    2.8478   17.3271 C   0  0  0  0  0  0  0  0  0  0  0  0
    7.0026    3.1493   18.3647 H   0  0  0  0  0  0  0  0  0  0  0  0
   10.2709    4.6599   18.5758 C   0  0  0  0  0  3  0  0  0  0  0  0
    9.3996    4.7093   17.9221 H   0  0  0  0  0  0  0  0  0  0  0  0
   11.1603    5.7148   18.6732 C   0  0  0  0  0  0  0  0  0  0  0  0
   10.9933    6.6160   18.1050 H   0  0  0  0  0  0  0  0  0  0  0  0
   12.2608    5.5845   19.5067 C   0  0  0  0  0  0  0  0  0  0  0  0
   12.9743    6.3883   19.6043 H   0  0  0  0  0  0  0  0  0  0  0  0
   12.4288    4.4017   20.2102 C   0  0  0  0  0  0  0  0  0  0  0  0
   13.2717    4.2562   20.8667 H   0  0  0  0  0  0  0  0  0  0  0  0
   11.4880    3.3992   20.0591 C   0  0  0  0  0  0  0  0  0  0  0  0
   11.5751    2.4541   20.5967 H   0  0  0  0  0  0  0  0  0  0  0  0
    7.8722   -0.6024   19.5121 N   0  0  0  0  0  0  0  0  0  0  0  0
    6.8493    0.5085   17.9725 N   0  0  0  0  0  0  0  0  0  0  0  0
   10.4347    3.5330   19.2601 N   0  0  0  0  0  0  0  0  0  0  0  0
    9.1307    2.0361   19.0682 Pd  0  0  0  0  0  0  0  0  0  0  0  0
   10.3848    1.2017   16.9385 I   0  0  0  0  0  0  0  0  0  0  0  0
    8.0526    2.6575   21.3771 I   0  0  0  0  0  0  0  0  0  0  0  0
  1 34  2  0  0  0  0
  1 31  1  0  0  0  0
  2  3  1  0  0  0  0
  2 31  1  0  0  0  0
  4  2  2  0  0  0  0
  5  4  1  0  0  0  0
  6  8  1  0  0  0  0
  7  6  1  0  0  0  0
  9  6  1  0  0  0  0
 10 19  1  0  0  0  0
 10 32  1  0  0  0  0
 11 10  2  0  0  0  0
 12 11  1  0  0  0  0
 13 15  2  0  0  0  0
 13 11  1  0  0  0  0
 14 13  1  0  0  0  0
 15 17  1  0  0  0  0
 16 15  1  0  0  0  0
 17 18  1  0  0  0  0
 17 19  2  0  0  0  0
 19 20  1  0  0  0  0
 21 23  1  0  0  0  0
 21 33  1  0  0  0  0
 22 21  1  0  0  0  0
 23 25  2  0  0  0  0
 24 23  1  0  0  0  0
 25 26  1  0  0  0  0
 25 27  1  0  0  0  0
 27 28  1  0  0  0  0
 29 27  2  0  0  0  0
 29 30  1  0  0  0  0
 31  6  1  0  0  0  0
 32  4  1  0  0  0  0
 32  1  1  0  0  0  0
 33 29  1  0  0  0  0
 34 33  1  0  0  0  0
 34 36  1  0  0  0  0
 35 34  1  0  0  0  0
M  END
$$$$
