CSD_code = UQIBAY | q = 1 | S = 0 | Stoichiometry = C10H8AuCl2N2S(1+) | MND = 4
 OpenBabel04212202103D

 24 26  0  0  0  0  0  0  0  0999 V2000
    5.7939    3.0202    9.4147 Au  0  0  0  0  0  0  0  0  0  0  0  0
    6.4123    0.4549   10.8385 C   0  0  0  0  0  3  0  0  0  0  0  0
    5.3366    0.4562   10.9204 H   0  0  0  0  0  0  0  0  0  0  0  0
    7.1705   -0.6219   11.2508 C   0  0  0  0  0  0  0  0  0  0  0  0
    6.6856   -1.4824   11.6821 H   0  0  0  0  0  0  0  0  0  0  0  0
    8.5495   -0.5772   11.0806 C   0  0  0  0  0  0  0  0  0  0  0  0
    9.1706   -1.4104   11.3718 H   0  0  0  0  0  0  0  0  0  0  0  0
    9.1191    0.5606   10.5377 C   0  0  0  0  0  0  0  0  0  0  0  0
   10.1842    0.6532   10.3969 H   0  0  0  0  0  0  0  0  0  0  0  0
    8.2891    1.6107   10.1597 C   0  0  0  0  0  0  0  0  0  0  0  0
    4.5417    1.4461    8.4423 Cl  0  0  0  0  0  0  0  0  0  0  0  0
    6.9639    1.5409   10.2894 N   0  0  0  0  0  0  0  0  0  0  0  0
    9.0739    3.0203    9.4259 S   0  0  0  0  0  0  0  0  0  0  0  0
    6.4123    5.5856   10.8385 C   0  0  0  0  0  3  0  0  0  0  0  0
    5.3366    5.5843   10.9204 H   0  0  0  0  0  0  0  0  0  0  0  0
    7.1705    6.6624   11.2508 C   0  0  0  0  0  0  0  0  0  0  0  0
    6.6856    7.5229   11.6821 H   0  0  0  0  0  0  0  0  0  0  0  0
    8.5495    6.6177   11.0806 C   0  0  0  0  0  0  0  0  0  0  0  0
    9.1706    7.4509   11.3718 H   0  0  0  0  0  0  0  0  0  0  0  0
    9.1191    5.4799   10.5376 C   0  0  0  0  0  0  0  0  0  0  0  0
   10.1842    5.3873   10.3969 H   0  0  0  0  0  0  0  0  0  0  0  0
    8.2891    4.4298   10.1597 C   0  0  0  0  0  0  0  0  0  0  0  0
    4.5417    4.5945    8.4423 Cl  0  0  0  0  0  0  0  0  0  0  0  0
    6.9639    4.4996   10.2894 N   0  0  0  0  0  0  0  0  0  0  0  0
  1 24  1  0  0  0  0
  1 12  1  0  0  0  0
  2  3  1  0  0  0  0
  2  4  1  0  0  0  0
  4  5  1  0  0  0  0
  6  4  2  0  0  0  0
  6  7  1  0  0  0  0
  8  6  1  0  0  0  0
  9  8  1  0  0  0  0
 10 12  1  0  0  0  0
 10  8  2  0  0  0  0
 11  1  1  0  0  0  0
 12  2  1  0  0  0  0
 13 22  1  0  0  0  0
 13 10  1  0  0  0  0
 14 15  1  0  0  0  0
 14 16  1  0  0  0  0
 16 17  1  0  0  0  0
 18 16  2  0  0  0  0
 18 19  1  0  0  0  0
 20 18  1  0  0  0  0
 21 20  1  0  0  0  0
 22 24  1  0  0  0  0
 22 20  2  0  0  0  0
 23  1  1  0  0  0  0
 24 14  1  0  0  0  0
M  END
$$$$
