CSD_code = UQIJEL | q = 0 | S = 0 | Stoichiometry = C15H19Cl3N3O2Rh | MND = 6
 OpenBabel04212202103D

 43 45  0  0  0  0  0  0  0  0999 V2000
    2.2758    1.6927   14.4827 Rh  0  0  0  0  0  0  0  0  0  0  0  0
    2.8525    1.8521   12.3112 Cl  0  0  0  0  0  0  0  0  0  0  0  0
    0.1038    1.2689   14.0644 Cl  0  0  0  0  0  0  0  0  0  0  0  0
    2.8679   -0.4655   14.6940 Cl  0  0  0  0  0  0  0  0  0  0  0  0
    3.6351    3.3942   17.1393 O   0  0  0  0  0  0  0  0  0  0  0  0
    1.7635    3.7911   14.4456 O   0  0  0  0  0  0  0  0  0  0  0  0
    4.3931    2.0931   14.8909 N   0  0  0  0  0  4  0  0  0  0  0  0
    4.6276    1.5902   15.7453 H   0  0  0  0  0  0  0  0  0  0  0  0
    4.8701    1.6756   14.0909 H   0  0  0  0  0  0  0  0  0  0  0  0
    1.7121    1.5314   16.5868 N   0  0  0  0  0  4  0  0  0  0  0  0
    0.9247    0.8819   16.5396 H   0  0  0  0  0  0  0  0  0  0  0  0
    2.5092    1.0772   17.0319 H   0  0  0  0  0  0  0  0  0  0  0  0
    0.7336    5.5502   13.4975 N   0  0  0  0  0  0  0  0  0  0  0  0
    4.2029    4.1676   16.1336 C   0  0  0  0  0  0  0  0  0  0  0  0
    4.6239    3.4808   14.9845 C   0  0  0  0  0  0  0  0  0  0  0  0
    5.1859    4.1839   13.9289 C   0  0  0  0  0  0  0  0  0  0  0  0
    5.4655    3.6486   13.0339 H   0  0  0  0  0  0  0  0  0  0  0  0
    5.3437    5.5557   14.0081 C   0  0  0  0  0  0  0  0  0  0  0  0
    5.7748    6.0956   13.1794 H   0  0  0  0  0  0  0  0  0  0  0  0
    4.9527    6.2276   15.1510 C   0  0  0  0  0  0  0  0  0  0  0  0
    5.0827    7.2966   15.2258 H   0  0  0  0  0  0  0  0  0  0  0  0
    4.3854    5.5378   16.2112 C   0  0  0  0  0  0  0  0  0  0  0  0
    4.0845    6.0816   17.0908 H   0  0  0  0  0  0  0  0  0  0  0  0
    2.3335    3.6917   17.5219 C   0  0  0  0  0  0  0  0  0  0  0  0
    1.3481    2.7399   17.2183 C   0  0  0  0  0  0  0  0  0  0  0  0
    0.0207    3.0127   17.5186 C   0  0  0  0  0  0  0  0  0  0  0  0
   -0.7366    2.2968   17.2356 H   0  0  0  0  0  0  0  0  0  0  0  0
   -0.3279    4.1924   18.1510 C   0  0  0  0  0  0  0  0  0  0  0  0
   -1.3636    4.3956   18.3750 H   0  0  0  0  0  0  0  0  0  0  0  0
    0.6547    5.0934   18.5181 C   0  0  0  0  0  0  0  0  0  0  0  0
    0.3952    5.9980   19.0462 H   0  0  0  0  0  0  0  0  0  0  0  0
    1.9816    4.8439   18.2058 C   0  0  0  0  0  0  0  0  0  0  0  0
    2.7405    5.5456   18.5112 H   0  0  0  0  0  0  0  0  0  0  0  0
    1.1204    4.2826   13.5174 C   0  0  0  0  0  3  0  0  0  0  0  0
    0.8263    3.7018   12.6367 H   0  0  0  0  0  0  0  0  0  0  0  0
    1.0445    6.4384   14.5930 C   0  0  0  0  0  0  0  0  0  0  0  0
    1.5425    5.8658   15.3724 H   0  0  0  0  0  0  0  0  0  0  0  0
    0.1279    6.8747   14.9928 H   0  0  0  0  0  0  0  0  0  0  0  0
    1.7051    7.2392   14.2556 H   0  0  0  0  0  0  0  0  0  0  0  0
   -0.0070    6.1138   12.3994 C   0  0  0  0  0  0  0  0  0  0  0  0
   -0.1710    5.3581   11.6351 H   0  0  0  0  0  0  0  0  0  0  0  0
    0.5464    6.9477   11.9618 H   0  0  0  0  0  0  0  0  0  0  0  0
   -0.9746    6.4820   12.7478 H   0  0  0  0  0  0  0  0  0  0  0  0
  1  4  1  0  0  0  0
  1  7  1  0  0  0  0
  1 10  1  0  0  0  0
  2  1  1  0  0  0  0
  3  1  1  0  0  0  0
  5 24  1  0  0  0  0
  6  1  1  0  0  0  0
  7 15  1  0  0  0  0
  7  8  1  0  0  0  0
  9  7  1  0  0  0  0
 10 12  1  0  0  0  0
 10 25  1  0  0  0  0
 11 10  1  0  0  0  0
 13 34  1  0  0  0  0
 13 36  1  0  0  0  0
 14 22  1  0  0  0  0
 14  5  1  0  0  0  0
 15 14  2  0  0  0  0
 16 18  2  0  0  0  0
 16 15  1  0  0  0  0
 17 16  1  0  0  0  0
 18 20  1  0  0  0  0
 19 18  1  0  0  0  0
 20 21  1  0  0  0  0
 20 22  2  0  0  0  0
 22 23  1  0  0  0  0
 24 32  1  0  0  0  0
 25 26  1  0  0  0  0
 25 24  2  0  0  0  0
 26 28  2  0  0  0  0
 27 26  1  0  0  0  0
 28 29  1  0  0  0  0
 28 30  1  0  0  0  0
 30 31  1  0  0  0  0
 32 33  1  0  0  0  0
 32 30  2  0  0  0  0
 34  6  1  0  0  0  0
 35 34  1  0  0  0  0
 36 38  1  0  0  0  0
 36 37  1  0  0  0  0
 39 36  1  0  0  0  0
 40 43  1  0  0  0  0
 40 13  1  0  0  0  0
 41 40  1  0  0  0  0
 42 40  1  0  0  0  0
M  END
$$$$
