CSD_code = UQIJIP | q = 0 | S = 0 | Stoichiometry = C18H24Cl3N2RhS | MND = 6
 OpenBabel04212202103D

 49 52  0  0  0  0  0  0  0  0999 V2000
    6.4933    1.3046    3.7003 Rh  0  0  0  0  0  0  0  0  0  0  0  0
    7.1630   -0.7005    4.5651 Cl  0  0  0  0  0  0  0  0  0  0  0  0
    5.6518    0.2299    1.7928 Cl  0  0  0  0  0  0  0  0  0  0  0  0
    7.0990    2.3943    5.6931 Cl  0  0  0  0  0  0  0  0  0  0  0  0
    5.8910    3.2853    2.6286 S   0  0  0  0  0  3  0  0  0  0  0  0
    4.5439    1.0101    4.4323 N   0  0  0  0  0  4  0  0  0  0  0  0
    4.3029    0.1609    3.9056 H   0  0  0  0  0  0  0  0  0  0  0  0
    8.4597    1.5487    3.0006 N   0  0  0  0  0  4  0  0  0  0  0  0
    8.9094    0.8686    3.6276 H   0  0  0  0  0  0  0  0  0  0  0  0
    5.0997    4.0953    3.9979 C   0  0  0  0  0  0  0  0  0  0  0  0
    4.0070    3.4171    4.5456 C   0  0  0  0  0  0  0  0  0  0  0  0
    3.3454    3.9945    5.6185 C   0  0  0  0  0  0  0  0  0  0  0  0
    2.5002    3.4833    6.0570 H   0  0  0  0  0  0  0  0  0  0  0  0
    3.7569    5.2117    6.1357 C   0  0  0  0  0  0  0  0  0  0  0  0
    3.2347    5.6425    6.9761 H   0  0  0  0  0  0  0  0  0  0  0  0
    4.8449    5.8640    5.5841 C   0  0  0  0  0  0  0  0  0  0  0  0
    5.1793    6.8054    5.9921 H   0  0  0  0  0  0  0  0  0  0  0  0
    5.5187    5.3099    4.5098 C   0  0  0  0  0  0  0  0  0  0  0  0
    6.3760    5.8116    4.0879 H   0  0  0  0  0  0  0  0  0  0  0  0
    7.2745    4.3351    2.2095 C   0  0  0  0  0  0  0  0  0  0  0  0
    8.6076    4.0124    2.4615 C   0  0  0  0  0  0  0  0  0  0  0  0
    9.5782    4.8835    1.9679 C   0  0  0  0  0  0  0  0  0  0  0  0
   10.6193    4.6612    2.1528 H   0  0  0  0  0  0  0  0  0  0  0  0
    9.2484    6.0232    1.2599 C   0  0  0  0  0  0  0  0  0  0  0  0
   10.0290    6.6724    0.8940 H   0  0  0  0  0  0  0  0  0  0  0  0
    7.9188    6.3251    1.0167 C   0  0  0  0  0  0  0  0  0  0  0  0
    7.6479    7.2097    0.4616 H   0  0  0  0  0  0  0  0  0  0  0  0
    6.9385    5.4710    1.4817 C   0  0  0  0  0  0  0  0  0  0  0  0
    5.8959    5.6764    1.2896 H   0  0  0  0  0  0  0  0  0  0  0  0
    3.6025    2.0692    4.0083 C   0  0  0  0  0  0  0  0  0  0  0  0
    2.5914    1.8281    4.3533 H   0  0  0  0  0  0  0  0  0  0  0  0
    3.5969    2.0889    2.9118 H   0  0  0  0  0  0  0  0  0  0  0  0
    9.0649    2.8573    3.3070 C   0  0  0  0  0  0  0  0  0  0  0  0
   10.1550    2.7816    3.2298 H   0  0  0  0  0  0  0  0  0  0  0  0
    8.8180    3.0859    4.3545 H   0  0  0  0  0  0  0  0  0  0  0  0
    4.4153    0.6818    5.8633 C   0  0  0  0  0  0  0  0  0  0  0  0
    4.4415    1.6128    6.4342 H   0  0  0  0  0  0  0  0  0  0  0  0
    5.2837    0.0827    6.1484 H   0  0  0  0  0  0  0  0  0  0  0  0
    3.1530   -0.1146    6.1722 C   0  0  0  0  0  0  0  0  0  0  0  0
    3.1224   -1.0220    5.5719 H   0  0  0  0  0  0  0  0  0  0  0  0
    2.2466    0.4581    5.9873 H   0  0  0  0  0  0  0  0  0  0  0  0
    3.1589   -0.4020    7.2200 H   0  0  0  0  0  0  0  0  0  0  0  0
    8.7257    1.1017    1.6235 C   0  0  0  0  0  0  0  0  0  0  0  0
    8.2866    1.8271    0.9321 H   0  0  0  0  0  0  0  0  0  0  0  0
    8.2147    0.1463    1.4845 H   0  0  0  0  0  0  0  0  0  0  0  0
   10.2097    0.9144    1.3251 C   0  0  0  0  0  0  0  0  0  0  0  0
   10.3185    0.4129    0.3675 H   0  0  0  0  0  0  0  0  0  0  0  0
   10.6763    0.2929    2.0873 H   0  0  0  0  0  0  0  0  0  0  0  0
   10.7372    1.8633    1.2656 H   0  0  0  0  0  0  0  0  0  0  0  0
  1  6  1  0  0  0  0
  1  2  1  0  0  0  0
  1  4  1  0  0  0  0
  3  1  1  0  0  0  0
  5  1  1  0  0  0  0
  5 10  1  0  0  0  0
  6 36  1  0  0  0  0
  7  6  1  0  0  0  0
  8 33  1  0  0  0  0
  8  9  1  0  0  0  0
  8  1  1  0  0  0  0
 10 18  2  0  0  0  0
 10 11  1  0  0  0  0
 11 12  2  0  0  0  0
 12 13  1  0  0  0  0
 12 14  1  0  0  0  0
 14 15  1  0  0  0  0
 16 17  1  0  0  0  0
 16 14  2  0  0  0  0
 18 16  1  0  0  0  0
 19 18  1  0  0  0  0
 20 21  1  0  0  0  0
 20  5  1  0  0  0  0
 21 33  1  0  0  0  0
 22 23  1  0  0  0  0
 22 21  2  0  0  0  0
 24 22  1  0  0  0  0
 25 24  1  0  0  0  0
 26 24  2  0  0  0  0
 26 28  1  0  0  0  0
 27 26  1  0  0  0  0
 28 20  2  0  0  0  0
 29 28  1  0  0  0  0
 30 31  1  0  0  0  0
 30  6  1  0  0  0  0
 30 11  1  0  0  0  0
 32 30  1  0  0  0  0
 33 35  1  0  0  0  0
 34 33  1  0  0  0  0
 36 38  1  0  0  0  0
 36 39  1  0  0  0  0
 36 37  1  0  0  0  0
 39 42  1  0  0  0  0
 40 39  1  0  0  0  0
 41 39  1  0  0  0  0
 43  8  1  0  0  0  0
 44 43  1  0  0  0  0
 45 43  1  0  0  0  0
 46 43  1  0  0  0  0
 46 48  1  0  0  0  0
 47 46  1  0  0  0  0
 49 46  1  0  0  0  0
M  END
$$$$
