CSD_code = UQIJOV | q = 0 | S = 0 | Stoichiometry = C18H25Cl4N2RhS | MND = 6
 OpenBabel04212202103D

 51 53  0  0  0  0  0  0  0  0999 V2000
    1.9337    7.4567    4.0861 Rh  0  0  0  0  0  0  0  0  0  0  0  0
    1.6555    6.2489    5.9873 Cl  0  0  0  0  0  0  0  0  0  0  0  0
    3.4156    5.9581    3.1794 Cl  0  0  0  0  0  0  0  0  0  0  0  0
    0.5035    9.1721    4.9824 Cl  0  0  0  0  0  0  0  0  0  0  0  0
    0.2061    6.3884    3.0630 Cl  0  0  0  0  0  0  0  0  0  0  0  0
    2.3082    8.6021    1.9814 S   0  0  2  0  0  3  0  0  0  0  0  0
    3.5438    8.4602    5.1313 N   0  0  0  0  0  4  0  0  0  0  0  0
    3.0291    8.7265    5.9762 H   0  0  0  0  0  0  0  0  0  0  0  0
   -1.4978    9.2310    2.8641 N   0  0  0  0  0  4  0  0  0  0  0  0
   -1.9181   10.1511    3.0148 H   0  0  0  0  0  0  0  0  0  0  0  0
   -0.7885    9.0948    3.6926 H   0  0  0  0  0  0  0  0  0  0  0  0
    4.0656    8.9101    2.0392 C   0  0  0  0  0  0  0  0  0  0  0  0
    4.7125    9.3832    3.1800 C   0  0  0  0  0  0  0  0  0  0  0  0
    6.0927    9.5392    3.1248 C   0  0  0  0  0  0  0  0  0  0  0  0
    6.6155    9.9077    3.9958 H   0  0  0  0  0  0  0  0  0  0  0  0
    6.8082    9.2235    1.9833 C   0  0  0  0  0  0  0  0  0  0  0  0
    7.8806    9.3459    1.9731 H   0  0  0  0  0  0  0  0  0  0  0  0
    6.1510    8.7405    0.8651 C   0  0  0  0  0  0  0  0  0  0  0  0
    6.7037    8.4800   -0.0241 H   0  0  0  0  0  0  0  0  0  0  0  0
    4.7771    8.5871    0.8942 C   0  0  0  0  0  0  0  0  0  0  0  0
    4.2449    8.2033    0.0378 H   0  0  0  0  0  0  0  0  0  0  0  0
    1.6300   10.2441    1.8181 C   0  0  0  0  0  0  0  0  0  0  0  0
    0.2529   10.3954    1.6265 C   0  0  0  0  0  0  0  0  0  0  0  0
   -0.2634   11.6745    1.4574 C   0  0  0  0  0  0  0  0  0  0  0  0
   -1.3260   11.7952    1.2959 H   0  0  0  0  0  0  0  0  0  0  0  0
    0.5507   12.7915    1.4705 C   0  0  0  0  0  0  0  0  0  0  0  0
    0.1276   13.7752    1.3404 H   0  0  0  0  0  0  0  0  0  0  0  0
    1.9147   12.6307    1.6401 C   0  0  0  0  0  0  0  0  0  0  0  0
    2.5694   13.4887    1.6397 H   0  0  0  0  0  0  0  0  0  0  0  0
    2.4499   11.3674    1.8033 C   0  0  0  0  0  0  0  0  0  0  0  0
    3.5179   11.2575    1.9126 H   0  0  0  0  0  0  0  0  0  0  0  0
    3.9692    9.6942    4.4520 C   0  0  0  0  0  0  0  0  0  0  0  0
    4.6179   10.2891    5.1076 H   0  0  0  0  0  0  0  0  0  0  0  0
    3.0734   10.2904    4.2392 H   0  0  0  0  0  0  0  0  0  0  0  0
   -0.7063    9.2354    1.6163 C   0  0  0  0  0  0  0  0  0  0  0  0
   -1.3864    9.3211    0.7632 H   0  0  0  0  0  0  0  0  0  0  0  0
   -0.1883    8.2726    1.5694 H   0  0  0  0  0  0  0  0  0  0  0  0
    4.6640    7.6222    5.5832 C   0  0  0  0  0  0  0  0  0  0  0  0
    5.3230    7.4354    4.7330 H   0  0  0  0  0  0  0  0  0  0  0  0
    4.2422    6.6659    5.9014 H   0  0  0  0  0  0  0  0  0  0  0  0
    5.4342    8.2324    6.7493 C   0  0  0  0  0  0  0  0  0  0  0  0
    5.9496    9.1490    6.4697 H   0  0  0  0  0  0  0  0  0  0  0  0
    6.1800    7.5221    7.0948 H   0  0  0  0  0  0  0  0  0  0  0  0
    4.7615    8.4469    7.5781 H   0  0  0  0  0  0  0  0  0  0  0  0
   -2.5286    8.1791    2.9396 C   0  0  0  0  0  0  0  0  0  0  0  0
   -3.2533    8.3253    2.1341 H   0  0  0  0  0  0  0  0  0  0  0  0
   -2.0110    7.2250    2.8083 H   0  0  0  0  0  0  0  0  0  0  0  0
   -3.1989    8.2233    4.2999 C   0  0  0  0  0  0  0  0  0  0  0  0
   -3.9393    7.4331    4.3716 H   0  0  0  0  0  0  0  0  0  0  0  0
   -3.6945    9.1773    4.4714 H   0  0  0  0  0  0  0  0  0  0  0  0
   -2.4577    8.0657    5.0781 H   0  0  0  0  0  0  0  0  0  0  0  0
  1  4  1  0  0  0  0
  1  7  1  0  0  0  0
  1  2  1  0  0  0  0
  3  1  1  0  0  0  0
  5  1  1  0  0  0  0
  6 22  1  1  0  0  0
  6 12  1  0  0  0  0
  6  1  1  0  0  0  0
  7 38  1  0  0  0  0
  7  8  1  0  0  0  0
  9 45  1  0  0  0  0
  9 10  1  0  0  0  0
  9 11  1  0  0  0  0
 12 13  1  0  0  0  0
 13 32  1  0  0  0  0
 14 13  2  0  0  0  0
 14 15  1  0  0  0  0
 16 14  1  0  0  0  0
 17 16  1  0  0  0  0
 18 20  1  0  0  0  0
 18 16  2  0  0  0  0
 19 18  1  0  0  0  0
 20 12  2  0  0  0  0
 21 20  1  0  0  0  0
 23 22  2  0  0  0  0
 24 26  2  0  0  0  0
 24 23  1  0  0  0  0
 25 24  1  0  0  0  0
 26 28  1  0  0  0  0
 27 26  1  0  0  0  0
 28 30  2  0  0  0  0
 29 28  1  0  0  0  0
 30 22  1  0  0  0  0
 30 31  1  0  0  0  0
 32 33  1  0  0  0  0
 32  7  1  0  0  0  0
 34 32  1  0  0  0  0
 35 23  1  0  0  0  0
 35  9  1  0  0  0  0
 36 35  1  0  0  0  0
 37 35  1  0  0  0  0
 38 40  1  0  0  0  0
 38 41  1  0  0  0  0
 39 38  1  0  0  0  0
 41 43  1  0  0  0  0
 41 44  1  0  0  0  0
 42 41  1  0  0  0  0
 45 48  1  0  0  0  0
 46 45  1  0  0  0  0
 47 45  1  0  0  0  0
 48 49  1  0  0  0  0
 48 50  1  0  0  0  0
 48 51  1  0  0  0  0
M  END
$$$$
