CSD_code = UQUSIJ | q = 0 | S = 0 | Stoichiometry = C22H22Cl2NPPd | MND = 4
 OpenBabel04212202103D

 49 52  0  0  0  0  0  0  0  0999 V2000
    3.7462    8.7684   10.8003 Pd  0  0  0  0  0  0  0  0  0  0  0  0
    4.9068   10.1458    9.4090 Cl  0  0  0  0  0  0  0  0  0  0  0  0
    3.9772   10.2481   12.4533 Cl  0  0  0  0  0  0  0  0  0  0  0  0
    2.9605    7.2047   12.1801 P   0  0  0  0  0  4  0  0  0  0  0  0
    1.2029    6.8120   11.9497 C   0  0  0  0  0  0  0  0  0  0  0  0
    0.6839    5.5231   11.9378 C   0  0  0  0  0  0  0  0  0  0  0  0
    1.3402    4.6757   12.0823 H   0  0  0  0  0  0  0  0  0  0  0  0
   -0.6734    5.3359   11.7395 C   0  0  0  0  0  0  0  0  0  0  0  0
   -1.0810    4.3357   11.7288 H   0  0  0  0  0  0  0  0  0  0  0  0
   -1.5094    6.4260   11.5564 C   0  0  0  0  0  0  0  0  0  0  0  0
   -2.5669    6.2716   11.4020 H   0  0  0  0  0  0  0  0  0  0  0  0
   -0.9931    7.7133   11.5680 C   0  0  0  0  0  0  0  0  0  0  0  0
   -1.6466    8.5605   11.4227 H   0  0  0  0  0  0  0  0  0  0  0  0
    0.3622    7.9067   11.7592 C   0  0  0  0  0  0  0  0  0  0  0  0
    0.7952    8.9047   11.7668 H   0  0  0  0  0  0  0  0  0  0  0  0
    3.1987    7.3273   13.9691 C   0  0  0  0  0  0  0  0  0  0  0  0
    2.1876    7.1258   14.8999 C   0  0  0  0  0  0  0  0  0  0  0  0
    1.1942    6.8527   14.5716 H   0  0  0  0  0  0  0  0  0  0  0  0
    2.4627    7.2821   16.2479 C   0  0  0  0  0  0  0  0  0  0  0  0
    1.6792    7.1281   16.9753 H   0  0  0  0  0  0  0  0  0  0  0  0
    3.7337    7.6424   16.6632 C   0  0  0  0  0  0  0  0  0  0  0  0
    3.9383    7.7704   17.7158 H   0  0  0  0  0  0  0  0  0  0  0  0
    4.7417    7.8509   15.7330 C   0  0  0  0  0  0  0  0  0  0  0  0
    5.7278    8.1440   16.0600 H   0  0  0  0  0  0  0  0  0  0  0  0
    4.4763    7.6987   14.3867 C   0  0  0  0  0  0  0  0  0  0  0  0
    5.2428    7.8815   13.6399 H   0  0  0  0  0  0  0  0  0  0  0  0
    3.8331    5.6749   11.7226 C   0  0  0  0  0  0  0  0  0  0  0  0
    4.2675    4.7813   12.6959 C   0  0  0  0  0  0  0  0  0  0  0  0
    4.0732    5.0004   13.7366 H   0  0  0  0  0  0  0  0  0  0  0  0
    4.9433    3.6243   12.3518 C   0  0  0  0  0  0  0  0  0  0  0  0
    5.2807    2.9481   13.1227 H   0  0  0  0  0  0  0  0  0  0  0  0
    5.1779    3.3355   11.0162 C   0  0  0  0  0  0  0  0  0  0  0  0
    5.7019    2.4334   10.7393 H   0  0  0  0  0  0  0  0  0  0  0  0
    4.7327    4.2018   10.0381 C   0  0  0  0  0  0  0  0  0  0  0  0
    4.9122    3.9712    8.9975 H   0  0  0  0  0  0  0  0  0  0  0  0
    4.0734    5.3912   10.3644 C   0  0  0  0  0  0  0  0  0  0  0  0
    3.6166    6.2193    9.2594 C   0  0  0  0  0  3  0  0  0  0  0  0
    3.4892    5.6596    8.3330 H   0  0  0  0  0  0  0  0  0  0  0  0
    3.3737    7.4726    9.2848 N   0  0  0  0  0  0  0  0  0  0  0  0
    2.8443    8.1808    8.1365 C   0  0  0  0  0  0  0  0  0  0  0  0
    3.6392    8.8921    7.8491 H   0  0  0  0  0  0  0  0  0  0  0  0
    2.4603    7.3236    6.9330 C   0  0  0  0  0  0  0  0  0  0  0  0
    3.3239    6.8142    6.5114 H   0  0  0  0  0  0  0  0  0  0  0  0
    2.0542    7.9739    6.1632 H   0  0  0  0  0  0  0  0  0  0  0  0
    1.6986    6.5911    7.1977 H   0  0  0  0  0  0  0  0  0  0  0  0
    1.6393    9.0119    8.6064 C   0  0  0  0  0  0  0  0  0  0  0  0
    0.8397    8.3571    8.9557 H   0  0  0  0  0  0  0  0  0  0  0  0
    1.2680    9.6136    7.7811 H   0  0  0  0  0  0  0  0  0  0  0  0
    1.9428    9.6974    9.4183 H   0  0  0  0  0  0  0  0  0  0  0  0
  1  4  1  0  0  0  0
  1  3  1  0  0  0  0
  2  1  1  0  0  0  0
  4 16  1  0  0  0  0
  5  4  1  0  0  0  0
  6  5  1  0  0  0  0
  6  7  1  0  0  0  0
  8  6  2  0  0  0  0
  9  8  1  0  0  0  0
 10 12  2  0  0  0  0
 10  8  1  0  0  0  0
 11 10  1  0  0  0  0
 12 14  1  0  0  0  0
 13 12  1  0  0  0  0
 14 15  1  0  0  0  0
 14  5  2  0  0  0  0
 16 25  2  0  0  0  0
 16 17  1  0  0  0  0
 17 19  2  0  0  0  0
 18 17  1  0  0  0  0
 19 21  1  0  0  0  0
 19 20  1  0  0  0  0
 21 22  1  0  0  0  0
 23 24  1  0  0  0  0
 23 21  2  0  0  0  0
 25 23  1  0  0  0  0
 26 25  1  0  0  0  0
 27  4  1  0  0  0  0
 27 28  1  0  0  0  0
 28 29  1  0  0  0  0
 30 28  2  0  0  0  0
 30 31  1  0  0  0  0
 32 30  1  0  0  0  0
 33 32  1  0  0  0  0
 34 36  1  0  0  0  0
 34 32  2  0  0  0  0
 35 34  1  0  0  0  0
 36 27  2  0  0  0  0
 37 39  1  0  0  0  0
 37 36  1  0  0  0  0
 38 37  1  0  0  0  0
 39  1  1  0  0  0  0
 40 46  1  0  0  0  0
 40 39  1  0  0  0  0
 41 40  1  0  0  0  0
 42 45  1  0  0  0  0
 42 40  1  0  0  0  0
 43 42  1  0  0  0  0
 44 42  1  0  0  0  0
 46 47  1  0  0  0  0
 46 49  1  0  0  0  0
 48 46  1  0  0  0  0
M  END
$$$$
