CSD_code = UQUWEJ | q = 0 | S = 0 | Stoichiometry = C13H10CdCl2N6 | MND = 5
 OpenBabel04212202103D

 32 36  0  0  1  0  0  0  0  0999 V2000
    5.5920    4.2104    7.5411 Cd  0  0  0  0  0  0  0  0  0  0  0  0
    6.8308    2.8146    8.9364 Cl  0  0  0  0  0  0  0  0  0  0  0  0
    5.7338    4.0294    5.1938 Cl  0  0  0  0  0  0  0  0  0  0  0  0
    6.6377    6.4197    7.7335 N   0  0  0  0  0  0  0  0  0  0  0  0
    4.0694    5.9132    7.1808 N   0  0  0  0  0  0  0  0  0  0  0  0
    3.9150    7.8863    5.9315 N   0  0  0  0  0  0  0  0  0  0  0  0
    2.1585    6.2950    5.8850 N   0  0  0  0  0  0  0  0  0  0  0  0
    3.2825    3.4060    7.6794 N   0  0  0  0  0  0  0  0  0  0  0  0
    1.9498    8.3232    4.8402 N   0  0  0  0  0  0  0  0  0  0  0  0
    2.3672    9.1745    4.5079 H   0  0  0  0  0  0  0  0  0  0  0  0
    1.0712    8.0047    4.4720 H   0  0  0  0  0  0  0  0  0  0  0  0
    7.9063    6.6323    8.0373 C   0  0  0  0  0  3  0  0  0  0  0  0
    8.4074    5.8262    8.5611 H   0  0  0  0  0  0  0  0  0  0  0  0
    8.5681    7.8112    7.7142 C   0  0  0  0  0  0  0  0  0  0  0  0
    9.6054    7.9418    7.9784 H   0  0  0  0  0  0  0  0  0  0  0  0
    7.8699    8.8036    7.0443 C   0  0  0  0  0  0  0  0  0  0  0  0
    8.3522    9.7306    6.7719 H   0  0  0  0  0  0  0  0  0  0  0  0
    6.5411    8.5831    6.7220 C   0  0  0  0  0  0  0  0  0  0  0  0
    5.9484    9.3121    6.1940 H   0  0  0  0  0  0  0  0  0  0  0  0
    5.9617    7.3709    7.0855 C   0  0  0  0  0  0  0  0  0  0  0  0
    4.5709    7.0560    6.7199 C   0  0  2  0  0  3  0  0  0  0  0  0
    2.6886    7.4846    5.5695 C   0  0  0  0  0  0  0  0  0  0  0  0
    2.8972    5.5385    6.6746 C   0  0  0  0  0  0  0  0  0  0  0  0
    2.4385    4.1756    6.9884 C   0  0  1  0  0  3  0  0  0  0  0  0
    1.2075    3.7126    6.5329 C   0  0  0  0  0  0  0  0  0  0  0  0
    0.5696    4.3776    5.9742 H   0  0  0  0  0  0  0  0  0  0  0  0
    0.8528    2.4015    6.8040 C   0  0  0  0  0  0  0  0  0  0  0  0
   -0.0911    2.0072    6.4581 H   0  0  0  0  0  0  0  0  0  0  0  0
    1.7343    1.6055    7.5184 C   0  0  0  0  0  0  0  0  0  0  0  0
    1.4983    0.5778    7.7447 H   0  0  0  0  0  0  0  0  0  0  0  0
    2.9410    2.1550    7.9354 C   0  0  0  0  0  0  0  0  0  0  0  0
    3.6635    1.5746    8.4979 H   0  0  0  0  0  0  0  0  0  0  0  0
  1  8  1  0  0  0  0
  1  4  1  0  0  0  0
  1  2  1  0  0  0  0
  3  1  1  0  0  0  0
  4 12  1  0  0  0  0
  5  1  1  0  0  0  0
  7 23  2  0  0  0  0
  8 31  1  0  0  0  0
  9 22  1  0  0  0  0
 10  9  1  0  0  0  0
 11  9  1  0  0  0  0
 12 13  1  0  0  0  0
 14 15  1  0  0  0  0
 14 12  1  0  0  0  0
 16 14  2  0  0  0  0
 17 16  1  0  0  0  0
 18 16  1  0  0  0  0
 18 20  2  0  0  0  0
 19 18  1  0  0  0  0
 20  4  1  0  0  0  0
 21  6  1  6  0  0  0
 21 20  1  0  0  0  0
 21  5  1  0  0  0  0
 22  7  1  0  0  0  0
 22  6  2  0  0  0  0
 23 24  1  0  0  0  0
 23  5  1  0  0  0  0
 24 25  1  6  0  0  0
 24  8  1  0  0  0  0
 25 27  2  0  0  0  0
 26 25  1  0  0  0  0
 27 29  1  0  0  0  0
 28 27  1  0  0  0  0
 29 30  1  0  0  0  0
 29 31  2  0  0  0  0
 31 32  1  0  0  0  0
M  END
$$$$
