CSD_code = URAJEE | q = 0 | S = 0 | Stoichiometry = C17H12Cl2N3O4Re | MND = 6
 OpenBabel04212202103D

 39 41  0  0  0  0  0  0  0  0999 V2000
    3.1396   -0.2201    2.8860 Re  0  0  0  0  0  0  0  0  0  0  0  0
    1.0609   -1.2364    3.5153 Cl  0  0  0  0  0  0  0  0  0  0  0  0
    3.8948    0.4164   11.9868 Cl  0  0  0  0  0  0  0  0  0  0  0  0
    4.6472    0.9042    5.3567 O   0  0  0  0  0  0  0  0  0  0  0  0
    4.2581   -1.9965    5.1542 O   0  0  0  0  0  1  0  0  0  0  0  0
    3.6728   -2.4460    0.8170 O   0  0  0  0  0  1  0  0  0  0  0  0
    5.7266    1.3595    2.2856 O   0  0  0  0  0  1  0  0  0  0  0  0
    1.9018    0.9355    1.6191 N   0  0  0  0  0  0  0  0  0  0  0  0
    2.2345    1.3205    4.1746 N   0  0  0  0  0  0  0  0  0  0  0  0
    2.4466    1.3997    5.5083 N   0  0  0  0  0  0  0  0  0  0  0  0
    1.6404    1.4830    6.1185 H   0  0  0  0  0  0  0  0  0  0  0  0
    0.9965    1.7266    2.2393 C   0  0  0  0  0  0  0  0  0  0  0  0
   -0.0409    2.3322    1.5237 C   0  0  0  0  0  0  0  0  0  0  0  0
   -0.7692    2.9479    2.0249 H   0  0  0  0  0  0  0  0  0  0  0  0
   -0.1475    2.1284    0.1641 C   0  0  0  0  0  0  0  0  0  0  0  0
   -0.9530    2.5787   -0.3952 H   0  0  0  0  0  0  0  0  0  0  0  0
    0.8022    1.3340   -0.4647 C   0  0  0  0  0  0  0  0  0  0  0  0
    0.7644    1.1488   -1.5257 H   0  0  0  0  0  0  0  0  0  0  0  0
    1.8000    0.7660    0.3025 C   0  0  0  0  0  0  0  0  0  0  0  0
    2.5525    0.1387   -0.1579 H   0  0  0  0  0  0  0  0  0  0  0  0
    1.1870    1.8948    3.6718 C   0  0  0  0  0  0  0  0  0  0  0  0
    3.6699    1.0831    6.0540 C   0  0  0  0  0  0  0  0  0  0  0  0
    3.6797    0.9660    7.5316 C   0  0  0  0  0  0  0  0  0  0  0  0
    4.6011    0.0799    8.0885 C   0  0  0  0  0  0  0  0  0  0  0  0
    5.2523   -0.4693    7.4262 H   0  0  0  0  0  0  0  0  0  0  0  0
    4.6681   -0.0993    9.4552 C   0  0  0  0  0  0  0  0  0  0  0  0
    5.3730   -0.7935    9.8840 H   0  0  0  0  0  0  0  0  0  0  0  0
    3.8187    0.6273   10.2782 C   0  0  0  0  0  0  0  0  0  0  0  0
    2.9127    1.5316    9.7422 C   0  0  0  0  0  0  0  0  0  0  0  0
    2.2713    2.1013   10.3961 H   0  0  0  0  0  0  0  0  0  0  0  0
    2.8421    1.6963    8.3718 C   0  0  0  0  0  0  0  0  0  0  0  0
    2.1523    2.4271    7.9742 H   0  0  0  0  0  0  0  0  0  0  0  0
    0.2317    2.6698    4.5284 C   0  0  0  0  0  0  0  0  0  0  0  0
    0.7804    3.3404    5.1919 H   0  0  0  0  0  0  0  0  0  0  0  0
   -0.3641    1.9833    5.1346 H   0  0  0  0  0  0  0  0  0  0  0  0
   -0.4515    3.2684    3.9380 H   0  0  0  0  0  0  0  0  0  0  0  0
    4.7788    0.7571    2.5014 C   0  0  0  0  0  2  0  0  0  0  0  0
    3.5344   -1.6166    1.5958 C   0  0  0  0  0  2  0  0  0  0  0  0
    3.9395   -1.3187    4.2922 C   0  0  0  0  0  2  0  0  0  0  0  0
  1  2  1  0  0  0  0
  1  9  1  0  0  0  0
  1 39  1  0  0  0  0
  4 22  2  0  0  0  0
  6 38  1  0  0  0  0
  7 37  1  0  0  0  0
  8 12  1  0  0  0  0
  8  1  1  0  0  0  0
  9 10  1  0  0  0  0
 10 22  1  0  0  0  0
 10 11  1  0  0  0  0
 12 21  2  0  0  0  0
 13 14  1  0  0  0  0
 13 12  1  0  0  0  0
 15 13  2  0  0  0  0
 16 15  1  0  0  0  0
 17 15  1  0  0  0  0
 17 19  2  0  0  0  0
 18 17  1  0  0  0  0
 19  8  1  0  0  0  0
 20 19  1  0  0  0  0
 21  9  1  0  0  0  0
 21 33  1  0  0  0  0
 22 23  1  0  0  0  0
 23 24  2  0  0  0  0
 23 31  1  0  0  0  0
 24 26  1  0  0  0  0
 25 24  1  0  0  0  0
 26 27  1  0  0  0  0
 26 28  2  0  0  0  0
 28  3  1  0  0  0  0
 29 28  1  0  0  0  0
 29 30  1  0  0  0  0
 31 29  2  0  0  0  0
 32 31  1  0  0  0  0
 33 35  1  0  0  0  0
 33 34  1  0  0  0  0
 36 33  1  0  0  0  0
 37  1  1  0  0  0  0
 38  1  1  0  0  0  0
 39  5  1  0  0  0  0
M  END
$$$$
