CSD_code = UROFAJ | q = 0 | S = 0 | Stoichiometry = C6H12IOReS3 | MND = 5
 OpenBabel04212202103D

 24 25  0  0  0  0  0  0  0  0999 V2000
    2.9964    2.0494   10.2442 Re  0  0  0  0  0  0  0  0  0  0  0  0
    2.4893    3.5909    9.8837 O   0  0  0  0  0  1  0  0  0  0  0  0
    0.6556    0.8392   10.1218 I   0  0  0  0  0  0  0  0  0  0  0  0
    5.3312    2.7684   10.4432 S   0  0  1  0  0  3  0  0  0  0  0  0
    3.7935    0.6054    8.6412 S   0  0  0  0  0  0  0  0  0  0  0  0
    3.2038    1.3060   12.4040 S   0  0  0  0  0  0  0  0  0  0  0  0
    4.7549    2.0598   13.0089 C   0  0  0  0  0  0  0  0  0  0  0  0
    5.8558    1.9163   11.9822 C   0  0  0  0  0  0  0  0  0  0  0  0
    6.2137    1.7972    9.1655 C   0  0  0  0  0  0  0  0  0  0  0  0
    5.2965    1.4655    7.9932 C   0  0  0  0  0  0  0  0  0  0  0  0
    5.9926    0.4945    7.0441 C   0  0  0  0  0  0  0  0  0  0  0  0
    4.8543    2.7277    7.2616 C   0  0  0  0  0  0  0  0  0  0  0  0
    4.1788    2.4679    6.4499 H   0  0  0  0  0  0  0  0  0  0  0  0
    4.3232    3.4052    7.9348 H   0  0  0  0  0  0  0  0  0  0  0  0
    5.7162    3.2483    6.8468 H   0  0  0  0  0  0  0  0  0  0  0  0
    5.3180    0.2286    6.2342 H   0  0  0  0  0  0  0  0  0  0  0  0
    6.8838    0.9532    6.6198 H   0  0  0  0  0  0  0  0  0  0  0  0
    6.2787   -0.4190    7.5619 H   0  0  0  0  0  0  0  0  0  0  0  0
    6.7811    2.3915   12.3112 H   0  0  0  0  0  0  0  0  0  0  0  0
    6.0349    0.8637   11.7541 H   0  0  0  0  0  0  0  0  0  0  0  0
    5.0110    1.5366   13.9313 H   0  0  0  0  0  0  0  0  0  0  0  0
    4.5528    3.1085   13.2339 H   0  0  0  0  0  0  0  0  0  0  0  0
    7.0518    2.4147    8.8384 H   0  0  0  0  0  0  0  0  0  0  0  0
    6.5908    0.8862    9.6310 H   0  0  0  0  0  0  0  0  0  0  0  0
  1  4  1  0  0  0  0
  1  6  1  0  0  0  0
  2  1  1  0  0  0  0
  3  1  1  0  0  0  0
  4  9  1  6  0  0  0
  4  8  1  0  0  0  0
  5  1  1  0  0  0  0
  6  7  1  0  0  0  0
  7 22  1  0  0  0  0
  7 21  1  0  0  0  0
  8 19  1  0  0  0  0
  8  7  1  0  0  0  0
  9 24  1  0  0  0  0
 10  5  1  0  0  0  0
 10  9  1  0  0  0  0
 11 18  1  0  0  0  0
 11 10  1  0  0  0  0
 12 14  1  0  0  0  0
 12 10  1  0  0  0  0
 13 12  1  0  0  0  0
 15 12  1  0  0  0  0
 16 11  1  0  0  0  0
 17 11  1  0  0  0  0
 20  8  1  0  0  0  0
 23  9  1  0  0  0  0
M  END
$$$$
