CSD_code = UROGIS | q = 0 | S = 0 | Stoichiometry = C24H34F3NP2Pd | MND = 4
 OpenBabel04212202103D

 65 68  0  0  0  0  0  0  0  0999 V2000
    3.7551    0.1899    3.9353 C   0  0  0  0  0  0  0  0  0  0  0  0
    2.8862   -0.9032    3.6942 C   0  0  0  0  0  0  0  0  0  0  0  0
    2.9751   -2.0700    4.4373 C   0  0  0  0  0  0  0  0  0  0  0  0
    2.3154   -2.9039    4.2531 H   0  0  0  0  0  0  0  0  0  0  0  0
    3.9164   -2.1557    5.4426 C   0  0  0  0  0  0  0  0  0  0  0  0
    4.7348   -1.0824    5.7565 C   0  0  0  0  0  0  0  0  0  0  0  0
    5.4197   -1.1595    6.5865 H   0  0  0  0  0  0  0  0  0  0  0  0
    4.6511    0.0755    5.0162 C   0  0  0  0  0  0  0  0  0  0  0  0
    5.2548    0.9248    5.2975 H   0  0  0  0  0  0  0  0  0  0  0  0
    4.6259    2.2271    3.0062 C   0  0  0  0  0  0  0  0  0  0  0  0
    4.2886    3.5472    2.6168 C   0  0  0  0  0  0  0  0  0  0  0  0
    5.2645    4.5148    2.4355 C   0  0  0  0  0  0  0  0  0  0  0  0
    5.0089    5.5212    2.1415 H   0  0  0  0  0  0  0  0  0  0  0  0
    6.5893    4.1751    2.6193 C   0  0  0  0  0  0  0  0  0  0  0  0
    6.9640    2.8772    2.9282 C   0  0  0  0  0  0  0  0  0  0  0  0
    8.0110    2.6292    3.0064 H   0  0  0  0  0  0  0  0  0  0  0  0
    5.9955    1.9162    3.1139 C   0  0  0  0  0  0  0  0  0  0  0  0
    6.2951    0.8970    3.3043 H   0  0  0  0  0  0  0  0  0  0  0  0
    0.0343   -1.1694    3.2435 C   0  0  0  0  0  0  0  0  0  0  0  0
    0.1643   -2.1637    3.6858 H   0  0  0  0  0  0  0  0  0  0  0  0
   -0.2427   -0.1350    4.3373 C   0  0  0  0  0  0  0  0  0  0  0  0
   -0.3154    0.8610    3.8778 H   0  0  0  0  0  0  0  0  0  0  0  0
    0.5628   -0.1264    5.0748 H   0  0  0  0  0  0  0  0  0  0  0  0
   -1.1796   -0.3475    4.8490 H   0  0  0  0  0  0  0  0  0  0  0  0
   -1.0839   -1.1808    2.2073 C   0  0  0  0  0  0  0  0  0  0  0  0
   -2.0471   -1.3319    2.6917 H   0  0  0  0  0  0  0  0  0  0  0  0
   -0.9411   -1.9761    1.4783 H   0  0  0  0  0  0  0  0  0  0  0  0
   -1.1076   -0.2240    1.6858 H   0  0  0  0  0  0  0  0  0  0  0  0
    2.0014   -1.5796    0.9548 C   0  0  0  0  0  0  0  0  0  0  0  0
    1.1130   -1.5264    0.3129 H   0  0  0  0  0  0  0  0  0  0  0  0
    2.3489   -3.0338    1.2420 C   0  0  0  0  0  0  0  0  0  0  0  0
    2.5519   -3.5601    0.3105 H   0  0  0  0  0  0  0  0  0  0  0  0
    1.5263   -3.5392    1.7445 H   0  0  0  0  0  0  0  0  0  0  0  0
    3.2352   -3.0988    1.8702 H   0  0  0  0  0  0  0  0  0  0  0  0
    3.1453   -0.8270    0.2701 C   0  0  0  0  0  0  0  0  0  0  0  0
    4.0470   -0.8693    0.8832 H   0  0  0  0  0  0  0  0  0  0  0  0
    2.8658    0.2300    0.1304 H   0  0  0  0  0  0  0  0  0  0  0  0
    3.3702   -1.2587   -0.7036 H   0  0  0  0  0  0  0  0  0  0  0  0
    2.5110    4.6827    0.6293 C   0  0  0  0  0  0  0  0  0  0  0  0
    3.2164    5.5216    0.6305 H   0  0  0  0  0  0  0  0  0  0  0  0
    2.9529    3.6201   -0.3799 C   0  0  0  0  0  0  0  0  0  0  0  0
    2.2642    2.7652   -0.3242 H   0  0  0  0  0  0  0  0  0  0  0  0
    3.9649    3.2740   -0.1593 H   0  0  0  0  0  0  0  0  0  0  0  0
    2.9339    4.0122   -1.3951 H   0  0  0  0  0  0  0  0  0  0  0  0
    1.0967    5.1660    0.3289 C   0  0  0  0  0  0  0  0  0  0  0  0
    1.0257    5.5120   -0.7008 H   0  0  0  0  0  0  0  0  0  0  0  0
    0.8102    5.9864    0.9841 H   0  0  0  0  0  0  0  0  0  0  0  0
    0.3939    4.3440    0.4648 H   0  0  0  0  0  0  0  0  0  0  0  0
    1.8174    4.8506    3.5900 C   0  0  0  0  0  0  0  0  0  0  0  0
    0.8212    5.1479    3.2390 H   0  0  0  0  0  0  0  0  0  0  0  0
    1.6539    3.9147    4.7905 C   0  0  0  0  0  0  0  0  0  0  0  0
    2.6308    3.6080    5.1676 H   0  0  0  0  0  0  0  0  0  0  0  0
    1.0963    3.0134    4.4878 H   0  0  0  0  0  0  0  0  0  0  0  0
    1.1115    4.4046    5.5973 H   0  0  0  0  0  0  0  0  0  0  0  0
    2.6421    6.0867    3.9215 C   0  0  0  0  0  0  0  0  0  0  0  0
    2.1494    6.6663    4.7008 H   0  0  0  0  0  0  0  0  0  0  0  0
    2.7575    6.7240    3.0468 H   0  0  0  0  0  0  0  0  0  0  0  0
    3.6296    5.8032    4.2806 H   0  0  0  0  0  0  0  0  0  0  0  0
    0.1207    1.9720    1.3305 F   0  0  0  0  0  0  0  0  0  0  0  0
    4.0113   -3.2995    6.1655 F   0  0  0  0  0  0  0  0  0  0  0  0
    7.5454    5.1223    2.4507 F   0  0  0  0  0  0  0  0  0  0  0  0
    3.6244    1.3144    3.1726 N   0  0  0  0  0  0  0  0  0  0  0  0
    1.6004   -0.5713    2.4613 P   0  0  0  0  0  4  0  0  0  0  0  0
    2.5308    3.7857    2.2470 P   0  0  0  0  0  4  0  0  0  0  0  0
    1.8545    1.6470    2.2416 Pd  0  0  0  0  0  0  0  0  0  0  0  0
  1  8  1  0  0  0  0
  2  1  2  0  0  0  0
  2  3  1  0  0  0  0
  3  5  2  0  0  0  0
  4  3  1  0  0  0  0
  5  6  1  0  0  0  0
  5 60  1  0  0  0  0
  6  7  1  0  0  0  0
  8  9  1  0  0  0  0
  8  6  2  0  0  0  0
 10 17  1  0  0  0  0
 10 62  1  0  0  0  0
 11 10  2  0  0  0  0
 12 11  1  0  0  0  0
 12 14  2  0  0  0  0
 13 12  1  0  0  0  0
 14 15  1  0  0  0  0
 15 16  1  0  0  0  0
 15 17  2  0  0  0  0
 17 18  1  0  0  0  0
 19 20  1  0  0  0  0
 19 21  1  0  0  0  0
 21 24  1  0  0  0  0
 21 23  1  0  0  0  0
 22 21  1  0  0  0  0
 25 26  1  0  0  0  0
 25 19  1  0  0  0  0
 27 25  1  0  0  0  0
 28 25  1  0  0  0  0
 29 31  1  0  0  0  0
 29 63  1  0  0  0  0
 30 29  1  0  0  0  0
 31 33  1  0  0  0  0
 31 34  1  0  0  0  0
 32 31  1  0  0  0  0
 35 36  1  0  0  0  0
 35 29  1  0  0  0  0
 37 35  1  0  0  0  0
 38 35  1  0  0  0  0
 39 40  1  0  0  0  0
 39 64  1  0  0  0  0
 41 42  1  0  0  0  0
 41 43  1  0  0  0  0
 41 39  1  0  0  0  0
 44 41  1  0  0  0  0
 45 48  1  0  0  0  0
 45 39  1  0  0  0  0
 45 47  1  0  0  0  0
 46 45  1  0  0  0  0
 49 55  1  0  0  0  0
 49 51  1  0  0  0  0
 50 49  1  0  0  0  0
 51 52  1  0  0  0  0
 51 54  1  0  0  0  0
 53 51  1  0  0  0  0
 55 58  1  0  0  0  0
 55 56  1  0  0  0  0
 57 55  1  0  0  0  0
 59 65  1  0  0  0  0
 61 14  1  0  0  0  0
 62  1  1  0  0  0  0
 63 19  1  0  0  0  0
 63  2  1  0  0  0  0
 64 11  1  0  0  0  0
 64 49  1  0  0  0  0
 65 64  1  0  0  0  0
 65 63  1  0  0  0  0
 65 62  1  0  0  0  0
M  END
$$$$
