CSD_code = URUQIJ | q = 0 | S = 0 | Stoichiometry = C24H23AuClO2P | MND = 2
 OpenBabel04212202103D

 52 54  0  0  1  0  0  0  0  0999 V2000
    6.8873    2.2529    7.6900 Au  0  0  0  0  0  0  0  0  0  0  0  0
    4.9040   -0.2738    6.4436 C   0  0  2  0  0  0  0  0  0  0  0  0
    4.8948   -1.2857    6.0192 H   0  0  0  0  0  0  0  0  0  0  0  0
    4.4657    0.7231    5.3666 C   0  0  0  0  0  0  0  0  0  0  0  0
    4.7912    1.7403    5.6107 H   0  0  0  0  0  0  0  0  0  0  0  0
    2.9481    0.7663    5.1306 C   0  0  0  0  0  0  0  0  0  0  0  0
    2.2484   -0.5569    5.1640 C   0  0  0  0  0  0  0  0  0  0  0  0
    2.1451   -0.8927    6.1944 H   0  0  0  0  0  0  0  0  0  0  0  0
    2.8269   -1.2968    4.6143 H   0  0  0  0  0  0  0  0  0  0  0  0
    1.2581   -0.4557    4.7269 H   0  0  0  0  0  0  0  0  0  0  0  0
    5.0094    0.3405    3.9891 C   0  0  0  0  0  0  0  0  0  0  0  0
    5.2495    1.5060    3.0834 C   0  0  0  0  0  0  0  0  0  0  0  0
    5.4899    1.1642    2.0802 H   0  0  0  0  0  0  0  0  0  0  0  0
    6.0709    2.1084    3.4661 H   0  0  0  0  0  0  0  0  0  0  0  0
    4.3588    2.1332    3.0653 H   0  0  0  0  0  0  0  0  0  0  0  0
    4.0967   -0.2121    7.7133 C   0  0  0  0  0  0  0  0  0  0  0  0
    3.7949    1.0097    8.3061 C   0  0  0  0  0  0  0  0  0  0  0  0
    4.1051    1.9335    7.8403 H   0  0  0  0  0  0  0  0  0  0  0  0
    3.0847    1.0601    9.4924 C   0  0  0  0  0  0  0  0  0  0  0  0
    2.8633    2.0178    9.9376 H   0  0  0  0  0  0  0  0  0  0  0  0
    2.6649   -0.1083   10.1041 C   0  0  0  0  0  0  0  0  0  0  0  0
    2.1144   -0.0683   11.0316 H   0  0  0  0  0  0  0  0  0  0  0  0
    2.9498   -1.3289    9.5166 C   0  0  0  0  0  0  0  0  0  0  0  0
    2.6183   -2.2459    9.9806 H   0  0  0  0  0  0  0  0  0  0  0  0
    3.6589   -1.3798    8.3300 C   0  0  0  0  0  0  0  0  0  0  0  0
    3.8630   -2.3386    7.8753 H   0  0  0  0  0  0  0  0  0  0  0  0
    7.6394   -0.1924    5.4514 C   0  0  0  0  0  0  0  0  0  0  0  0
    8.2160    0.8970    4.8051 C   0  0  0  0  0  0  0  0  0  0  0  0
    8.0822    1.8896    5.2204 H   0  0  0  0  0  0  0  0  0  0  0  0
    8.9595    0.7107    3.6542 C   0  0  0  0  0  0  0  0  0  0  0  0
    9.4009    1.5607    3.1555 H   0  0  0  0  0  0  0  0  0  0  0  0
    9.1359   -0.5656    3.1472 C   0  0  0  0  0  0  0  0  0  0  0  0
    9.7123   -0.7131    2.2464 H   0  0  0  0  0  0  0  0  0  0  0  0
    8.5792   -1.6548    3.7986 C   0  0  0  0  0  0  0  0  0  0  0  0
    8.7235   -2.6502    3.4061 H   0  0  0  0  0  0  0  0  0  0  0  0
    7.8352   -1.4749    4.9488 C   0  0  0  0  0  0  0  0  0  0  0  0
    7.4097   -2.3299    5.4507 H   0  0  0  0  0  0  0  0  0  0  0  0
    7.1033   -1.1451    8.1133 C   0  0  0  0  0  0  0  0  0  0  0  0
    6.7265   -2.4807    8.0005 C   0  0  0  0  0  0  0  0  0  0  0  0
    6.1095   -2.8135    7.1789 H   0  0  0  0  0  0  0  0  0  0  0  0
    7.1389   -3.3961    8.9510 C   0  0  0  0  0  0  0  0  0  0  0  0
    6.8425   -4.4308    8.8604 H   0  0  0  0  0  0  0  0  0  0  0  0
    7.9280   -2.9927   10.0159 C   0  0  0  0  0  0  0  0  0  0  0  0
    8.2451   -3.7130   10.7549 H   0  0  0  0  0  0  0  0  0  0  0  0
    8.3067   -1.6658   10.1333 C   0  0  0  0  0  0  0  0  0  0  0  0
    8.9192   -1.3468   10.9630 H   0  0  0  0  0  0  0  0  0  0  0  0
    7.8947   -0.7459    9.1870 C   0  0  0  0  0  0  0  0  0  0  0  0
    8.1772    0.2961    9.2739 H   0  0  0  0  0  0  0  0  0  0  0  0
    7.1344    4.3855    8.4150 Cl  0  0  0  0  0  0  0  0  0  0  0  0
    5.1509   -0.8137    3.6707 O   0  0  0  0  0  0  0  0  0  0  0  0
    2.4076    1.8074    4.8681 O   0  0  0  0  0  0  0  0  0  0  0  0
    6.6476    0.1560    6.9337 P   0  0  0  0  0  4  0  0  0  0  0  0
  1 49  1  0  0  0  0
  2  3  1  6  0  0  0
  2 52  1  0  0  0  0
  2 16  1  0  0  0  0
  4  5  1  0  0  0  0
  4  2  1  0  0  0  0
  6  7  1  0  0  0  0
  6  4  1  0  0  0  0
  7  8  1  0  0  0  0
  9  7  1  0  0  0  0
 10  7  1  0  0  0  0
 11  4  1  0  0  0  0
 12 14  1  0  0  0  0
 12 11  1  0  0  0  0
 13 12  1  0  0  0  0
 15 12  1  0  0  0  0
 16 17  2  0  0  0  0
 16 25  1  0  0  0  0
 17 19  1  0  0  0  0
 18 17  1  0  0  0  0
 19 20  1  0  0  0  0
 19 21  2  0  0  0  0
 21 22  1  0  0  0  0
 23 24  1  0  0  0  0
 23 21  1  0  0  0  0
 25 23  2  0  0  0  0
 26 25  1  0  0  0  0
 27 52  1  0  0  0  0
 28 29  1  0  0  0  0
 28 27  2  0  0  0  0
 30 28  1  0  0  0  0
 31 30  1  0  0  0  0
 32 30  2  0  0  0  0
 32 34  1  0  0  0  0
 33 32  1  0  0  0  0
 34 36  2  0  0  0  0
 35 34  1  0  0  0  0
 36 37  1  0  0  0  0
 36 27  1  0  0  0  0
 38 47  1  0  0  0  0
 39 38  2  0  0  0  0
 39 41  1  0  0  0  0
 40 39  1  0  0  0  0
 41 43  2  0  0  0  0
 42 41  1  0  0  0  0
 43 45  1  0  0  0  0
 43 44  1  0  0  0  0
 45 46  1  0  0  0  0
 47 48  1  0  0  0  0
 47 45  2  0  0  0  0
 50 11  2  0  0  0  0
 51  6  2  0  0  0  0
 52  1  1  0  0  0  0
 52 38  1  0  0  0  0
M  END
$$$$
