CSD_code = USAKUW | q = 0 | S = 0 | Stoichiometry = C9H10AuClN2 | MND = 2
 OpenBabel04212202103D

 23 24  0  0  1  0  0  0  0  0999 V2000
    5.3297    5.1053    1.9501 Au  0  0  0  0  0  0  0  0  0  0  0  0
    6.6726    6.6580    1.0465 Cl  0  0  0  0  0  0  0  0  0  0  0  0
    4.3958    2.4079    2.9353 N   0  0  0  0  0  0  0  0  0  0  0  0
    2.8693    3.8888    3.1932 N   0  0  0  0  0  0  0  0  0  0  0  0
    4.1350    3.7127    2.7475 C   0  0  2  0  0  3  0  0  0  0  0  0
    2.1388    5.0403    3.2232 C   0  0  0  0  0  0  0  0  0  0  0  0
    2.6336    5.9198    2.8408 H   0  0  0  0  0  0  0  0  0  0  0  0
    0.8774    5.0232    3.7106 C   0  0  0  0  0  0  0  0  0  0  0  0
    0.2994    5.9317    3.7335 H   0  0  0  0  0  0  0  0  0  0  0  0
    0.3047    3.8138    4.1947 C   0  0  0  0  0  0  0  0  0  0  0  0
   -0.7028    3.8290    4.5781 H   0  0  0  0  0  0  0  0  0  0  0  0
    1.0214    2.6611    4.1716 C   0  0  0  0  0  0  0  0  0  0  0  0
    0.6234    1.7253    4.5289 H   0  0  0  0  0  0  0  0  0  0  0  0
    2.3395    2.6851    3.6594 C   0  0  0  0  0  0  0  0  0  0  0  0
    3.3312    1.7545    3.4807 C   0  0  0  0  0  0  0  0  0  0  0  0
    3.3470    0.7091    3.7066 H   0  0  0  0  0  0  0  0  0  0  0  0
    5.6240    1.7628    2.5452 C   0  0  0  0  0  0  0  0  0  0  0  0
    5.8380    0.9626    3.2583 H   0  0  0  0  0  0  0  0  0  0  0  0
    6.4220    2.5081    2.5864 H   0  0  0  0  0  0  0  0  0  0  0  0
    5.5168    1.2016    1.1305 C   0  0  0  0  0  0  0  0  0  0  0  0
    4.7096    0.4755    1.0635 H   0  0  0  0  0  0  0  0  0  0  0  0
    6.4486    0.7158    0.8570 H   0  0  0  0  0  0  0  0  0  0  0  0
    5.3248    2.0069    0.4260 H   0  0  0  0  0  0  0  0  0  0  0  0
  2  1  1  0  0  0  0
  3 15  1  0  0  0  0
  4  6  1  0  0  0  0
  4 14  1  0  0  0  0
  5  1  1  6  0  0  0
  5  3  1  0  0  0  0
  5  4  1  0  0  0  0
  6  8  2  0  0  0  0
  7  6  1  0  0  0  0
  8  9  1  0  0  0  0
  8 10  1  0  0  0  0
 10 11  1  0  0  0  0
 12 10  2  0  0  0  0
 12 13  1  0  0  0  0
 14 12  1  0  0  0  0
 15 14  2  0  0  0  0
 15 16  1  0  0  0  0
 17 19  1  0  0  0  0
 17  3  1  0  0  0  0
 17 18  1  0  0  0  0
 20 17  1  0  0  0  0
 21 20  1  0  0  0  0
 22 20  1  0  0  0  0
 23 20  1  0  0  0  0
M  END
$$$$
