CSD_code = USAPIO | q = 0 | S = 0 | Stoichiometry = C24H34Cl2N4O2Ru | MND = 6
 OpenBabel04212202103D

 67 72  0  0  1  0  0  0  0  0999 V2000
    0.4195   -1.4516    7.1438 C   0  0  0  0  0  0  0  0  0  0  0  0
   -0.3266   -1.0075    7.7992 H   0  0  0  0  0  0  0  0  0  0  0  0
    0.7373   -2.3937    7.5831 H   0  0  0  0  0  0  0  0  0  0  0  0
   -0.0477   -1.6583    6.1836 H   0  0  0  0  0  0  0  0  0  0  0  0
    2.2999   -0.2399    8.3131 C   0  0  0  0  0  0  0  0  0  0  0  0
    3.1988    0.3529    8.1582 H   0  0  0  0  0  0  0  0  0  0  0  0
    2.5979   -1.1777    8.7746 H   0  0  0  0  0  0  0  0  0  0  0  0
    1.6415    0.2820    9.0044 H   0  0  0  0  0  0  0  0  0  0  0  0
    1.6202   -0.5241    6.9768 C   0  0  0  0  0  0  0  0  0  0  0  0
    2.3615   -1.0050    6.3272 H   0  0  0  0  0  0  0  0  0  0  0  0
    1.1967    0.7637    6.2428 C   0  0  1  0  0  0  0  0  0  0  0  0
    0.7289    0.4784    5.2916 H   0  0  0  0  0  0  0  0  0  0  0  0
    0.2785    1.7183    7.0429 C   0  0  0  0  0  0  0  0  0  0  0  0
   -0.6413    1.9600    6.5032 H   0  0  0  0  0  0  0  0  0  0  0  0
    0.0244    1.3412    8.0352 H   0  0  0  0  0  0  0  0  0  0  0  0
    2.1729    2.7480    6.5211 C   0  0  0  0  0  0  0  0  0  0  0  0
    3.1991    3.7500    6.3908 C   0  0  0  0  0  0  0  0  0  0  0  0
    3.2718    5.0063    6.9885 C   0  0  0  0  0  0  0  0  0  0  0  0
    2.4647    5.3459    7.6164 H   0  0  0  0  0  0  0  0  0  0  0  0
    4.4019    5.7795    6.7595 C   0  0  0  0  0  0  0  0  0  0  0  0
    4.4870    6.7563    7.2092 H   0  0  0  0  0  0  0  0  0  0  0  0
    5.4311    5.2885    5.9666 C   0  0  0  0  0  0  0  0  0  0  0  0
    6.3330    5.8504    5.7883 H   0  0  0  0  0  0  0  0  0  0  0  0
    5.2804    4.0265    5.3970 C   0  0  0  0  0  0  0  0  0  0  0  0
    6.2172    3.2944    4.5817 C   0  0  2  0  0  3  0  0  0  0  0  0
    8.1224    2.6510    3.6609 C   0  0  0  0  0  0  0  0  0  0  0  0
    8.8651    2.2274    4.3446 H   0  0  0  0  0  0  0  0  0  0  0  0
    8.6275    3.0509    2.7798 H   0  0  0  0  0  0  0  0  0  0  0  0
    6.9993    1.6453    3.3125 C   0  0  2  0  0  0  0  0  0  0  0  0
    7.2422    0.6316    3.6501 H   0  0  0  0  0  0  0  0  0  0  0  0
    6.6916    1.6165    1.7983 C   0  0  0  0  0  0  0  0  0  0  0  0
    7.6538    1.4630    1.2929 H   0  0  0  0  0  0  0  0  0  0  0  0
    6.0728    2.9311    1.3285 C   0  0  0  0  0  0  0  0  0  0  0  0
    5.9831    2.9298    0.2452 H   0  0  0  0  0  0  0  0  0  0  0  0
    6.6762    3.7892    1.6185 H   0  0  0  0  0  0  0  0  0  0  0  0
    5.0750    3.0420    1.7495 H   0  0  0  0  0  0  0  0  0  0  0  0
    5.7641    0.4562    1.4615 C   0  0  0  0  0  0  0  0  0  0  0  0
    6.1902   -0.4863    1.7992 H   0  0  0  0  0  0  0  0  0  0  0  0
    5.6011    0.4055    0.3879 H   0  0  0  0  0  0  0  0  0  0  0  0
    4.8049    0.6092    1.9514 H   0  0  0  0  0  0  0  0  0  0  0  0
    3.9108   -0.2463    4.2022 C   0  0  0  0  0  2  0  0  0  0  0  0
    3.2885   -2.4976    3.1510 C   0  0  0  0  0  0  0  0  0  0  0  0
    3.9821   -3.2868    3.4705 H   0  0  0  0  0  0  0  0  0  0  0  0
    1.8652   -2.8373    3.6149 C   0  0  0  0  0  0  0  0  0  0  0  0
    1.8403   -2.8936    4.7047 H   0  0  0  0  0  0  0  0  0  0  0  0
    1.6017   -3.8191    3.2163 H   0  0  0  0  0  0  0  0  0  0  0  0
    0.8738   -1.7916    3.1132 C   0  0  0  0  0  0  0  0  0  0  0  0
   -0.1323   -2.0471    3.4522 H   0  0  0  0  0  0  0  0  0  0  0  0
    1.1411   -0.8161    3.5263 H   0  0  0  0  0  0  0  0  0  0  0  0
    0.9143   -1.7025    1.5914 C   0  0  0  0  0  0  0  0  0  0  0  0
    0.6303   -2.6650    1.1574 H   0  0  0  0  0  0  0  0  0  0  0  0
    0.2016   -0.9525    1.2471 H   0  0  0  0  0  0  0  0  0  0  0  0
    2.3196   -1.3214    1.1386 C   0  0  0  0  0  0  0  0  0  0  0  0
    2.5694   -0.3386    1.5431 H   0  0  0  0  0  0  0  0  0  0  0  0
    2.3606   -1.2569    0.0504 H   0  0  0  0  0  0  0  0  0  0  0  0
    3.3333   -2.3539    1.6232 C   0  0  0  0  0  0  0  0  0  0  0  0
    3.1049   -3.3293    1.1879 H   0  0  0  0  0  0  0  0  0  0  0  0
    4.3384   -2.0674    1.3124 H   0  0  0  0  0  0  0  0  0  0  0  0
    2.3446    1.5991    5.9514 N   0  0  0  0  0  0  0  0  0  0  0  0
    4.1778    3.2914    5.5952 N   0  0  0  0  0  0  0  0  0  0  0  0
    5.8817    2.1437    4.0953 N   0  0  1  0  0  0  0  0  0  0  0  0
    3.7113   -1.3056    3.7564 N   0  0  0  0  0  2  0  0  0  0  0  0
    1.0324    2.9213    7.2018 O   0  0  0  0  0  0  0  0  0  0  0  0
    7.4611    3.7234    4.3309 O   0  0  0  0  0  0  0  0  0  0  0  0
    5.3479    0.8409    6.7675 Cl  0  0  0  0  0  0  0  0  0  0  0  0
    2.8005    2.3047    3.0244 Cl  0  0  0  0  0  0  0  0  0  0  0  0
    4.0748    1.5366    4.8836 Ru  0  0  0  0  0  0  0  0  0  0  0  0
  1  3  1  0  0  0  0
  1  2  1  0  0  0  0
  4  1  1  0  0  0  0
  5  7  1  0  0  0  0
  5  8  1  0  0  0  0
  6  5  1  0  0  0  0
  9  1  1  0  0  0  0
  9  5  1  0  0  0  0
 10  9  1  0  0  0  0
 11 12  1  6  0  0  0
 11  9  1  0  0  0  0
 11 13  1  0  0  0  0
 13 63  1  0  0  0  0
 13 15  1  0  0  0  0
 14 13  1  0  0  0  0
 16 63  1  0  0  0  0
 17 16  2  0  0  0  0
 17 18  1  0  0  0  0
 18 19  1  0  0  0  0
 20 18  2  0  0  0  0
 20 21  1  0  0  0  0
 22 20  1  0  0  0  0
 23 22  1  0  0  0  0
 24 60  1  0  0  0  0
 24 22  2  0  0  0  0
 25 64  1  1  0  0  0
 25 24  1  0  0  0  0
 26 64  1  0  0  0  0
 26 27  1  0  0  0  0
 28 26  1  0  0  0  0
 29 30  1  1  0  0  0
 29 26  1  0  0  0  0
 29 61  1  0  0  0  0
 31 29  1  0  0  0  0
 32 31  1  0  0  0  0
 33 35  1  0  0  0  0
 33 36  1  0  0  0  0
 33 31  1  0  0  0  0
 34 33  1  0  0  0  0
 37 31  1  0  0  0  0
 37 38  1  0  0  0  0
 37 40  1  0  0  0  0
 39 37  1  0  0  0  0
 41 67  1  0  0  0  0
 42 43  1  0  0  0  0
 42 44  1  0  0  0  0
 42 62  1  0  0  0  0
 44 45  1  0  0  0  0
 46 44  1  0  0  0  0
 47 48  1  0  0  0  0
 47 49  1  0  0  0  0
 47 44  1  0  0  0  0
 50 47  1  0  0  0  0
 51 50  1  0  0  0  0
 52 50  1  0  0  0  0
 53 54  1  0  0  0  0
 53 50  1  0  0  0  0
 53 56  1  0  0  0  0
 55 53  1  0  0  0  0
 56 42  1  0  0  0  0
 57 56  1  0  0  0  0
 58 56  1  0  0  0  0
 59 11  1  0  0  0  0
 59 16  1  0  0  0  0
 60 17  1  0  0  0  0
 61 25  1  0  0  0  0
 61 67  1  0  0  0  0
 62 41  1  0  0  0  0
 66 67  1  0  0  0  0
 67 60  1  0  0  0  0
 67 59  1  0  0  0  0
 67 65  1  0  0  0  0
M  END
$$$$
