CSD_code = USEHEG | q = 0 | S = 0 | Stoichiometry = C15H17Cl2NTi | MND = 12
 OpenBabel04212202103D

 36 36  0  0  1  0  0  0  0  0999 V2000
    2.2102    8.5284    0.3953 Ti  0  0  0  0  0  0  0  0  0  0  0  0
    1.6428   10.6382    0.7978 Cl  0  0  0  0  0  0  0  0  0  0  0  0
    4.3815    9.0139    0.5014 Cl  0  0  0  0  0  0  0  0  0  0  0  0
    2.0557    8.3310    2.8080 C   0  0  0  0  0  0  0  0  0  0  0  0
    2.9096    7.3066    2.3343 C   0  0  0  0  0  0  0  0  0  0  0  0
    3.9316    7.1327    2.6442 H   0  0  0  0  0  0  0  0  0  0  0  0
    2.1764    6.4614    1.4775 C   0  0  1  0  0  0  0  0  0  0  0  0
    2.5341    5.5219    1.0750 H   0  0  0  0  0  0  0  0  0  0  0  0
    0.8460    6.9418    1.4357 C   0  0  0  0  0  0  0  0  0  0  0  0
   -0.0012    6.4318    0.9968 H   0  0  0  0  0  0  0  0  0  0  0  0
    0.7788    8.1053    2.2260 C   0  0  0  0  0  0  0  0  0  0  0  0
   -0.1263    8.6541    2.4494 H   0  0  0  0  0  0  0  0  0  0  0  0
    2.3936    9.2934    3.9258 C   0  0  0  0  0  0  0  0  0  0  0  0
    1.2274   10.2375    4.2315 C   0  0  0  0  0  0  0  0  0  0  0  0
    0.9473   10.8042    3.3462 H   0  0  0  0  0  0  0  0  0  0  0  0
    1.5196   10.9388    5.0104 H   0  0  0  0  0  0  0  0  0  0  0  0
    0.3647    9.6774    4.5856 H   0  0  0  0  0  0  0  0  0  0  0  0
    2.7058    8.4560    5.1780 C   0  0  0  0  0  0  0  0  0  0  0  0
    2.9092    9.1116    6.0218 H   0  0  0  0  0  0  0  0  0  0  0  0
    3.5740    7.8207    5.0191 H   0  0  0  0  0  0  0  0  0  0  0  0
    1.8573    7.8217    5.4256 H   0  0  0  0  0  0  0  0  0  0  0  0
    3.6385   10.1337    3.5502 C   0  0  0  0  0  0  0  0  0  0  0  0
    4.4787    9.4836    3.2884 H   0  0  0  0  0  0  0  0  0  0  0  0
    3.4087   10.7632    2.6831 H   0  0  0  0  0  0  0  0  0  0  0  0
    4.0504   10.9855    4.6320 C   0  0  0  0  0  0  0  0  0  0  0  0
    4.3749   11.6557    5.5004 N   0  0  0  0  0  0  0  0  0  0  0  0
    2.5927    9.0362   -1.8896 C   0  0  0  0  0  0  0  0  0  0  0  0
    3.3082    9.7712   -2.2374 H   0  0  0  0  0  0  0  0  0  0  0  0
    1.2193    9.2565   -1.6809 C   0  0  0  0  0  3  0  0  0  0  0  0
    0.6941   10.1885   -1.8454 H   0  0  0  0  0  0  0  0  0  0  0  0
    0.6296    8.0319   -1.3124 C   0  0  0  0  0  0  0  0  0  0  0  0
   -0.4324    7.8624   -1.1902 H   0  0  0  0  0  0  0  0  0  0  0  0
    1.6339    7.0367   -1.3549 C   0  0  0  0  0  0  0  0  0  0  0  0
    1.4714    5.9709   -1.2735 H   0  0  0  0  0  0  0  0  0  0  0  0
    2.8501    7.6580   -1.6868 C   0  0  0  0  0  0  0  0  0  0  0  0
    3.7927    7.1589   -1.8736 H   0  0  0  0  0  0  0  0  0  0  0  0
  1  3  1  0  0  0  0
  1  2  1  0  0  0  0
  1  7  1  0  0  0  0
  4 13  1  0  0  0  0
  5  6  1  0  0  0  0
  5  4  2  0  0  0  0
  7  8  1  6  0  0  0
  7  5  1  0  0  0  0
  9  7  1  0  0  0  0
  9 11  2  0  0  0  0
 10  9  1  0  0  0  0
 11 12  1  0  0  0  0
 11  4  1  0  0  0  0
 13 14  1  0  0  0  0
 13 18  1  0  0  0  0
 14 17  1  0  0  0  0
 14 16  1  0  0  0  0
 15 14  1  0  0  0  0
 18 21  1  0  0  0  0
 18 19  1  0  0  0  0
 20 18  1  0  0  0  0
 22 13  1  0  0  0  0
 22 25  1  0  0  0  0
 23 22  1  0  0  0  0
 24 22  1  0  0  0  0
 25 26  3  0  0  0  0
 27 35  2  0  0  0  0
 27 29  1  0  0  0  0
 28 27  1  0  0  0  0
 29 31  1  0  0  0  0
 30 29  1  0  0  0  0
 31 32  1  0  0  0  0
 33 31  2  0  0  0  0
 33 34  1  0  0  0  0
 35 33  1  0  0  0  0
 36 35  1  0  0  0  0
M  END
$$$$
