CSD_code = USEVUK | q = 0 | S = 0 | Stoichiometry = C35H29Cl2O2PPd | MND = 4
 OpenBabel04212202103D

 70 75  0  0  0  0  0  0  0  0999 V2000
    5.5706    2.4392    7.1425 Pd  0  0  0  0  0  0  0  0  0  0  0  0
    7.4559    2.0705    5.9545 Cl  0  0  0  0  0  0  0  0  0  0  0  0
    4.3100    2.7087    5.2645 Cl  0  0  0  0  0  0  0  0  0  0  0  0
    3.6084    2.9199    8.1058 P   0  0  0  0  0  4  0  0  0  0  0  0
    5.0290   -4.2709    9.4932 O   0  0  0  0  0  0  0  0  0  0  0  0
    8.4498    5.9201   14.0688 O   0  0  0  0  0  0  0  0  0  0  0  0
    6.4564    2.1742    8.8244 C   0  0  0  0  0  0  0  0  0  0  0  0
    6.5360    1.0593    9.6998 C   0  0  0  0  0  0  0  0  0  0  0  0
    6.9024    2.2962   10.1591 C   0  0  0  0  0  0  0  0  0  0  0  0
    6.2101   -0.3156    9.7337 C   0  0  0  0  0  0  0  0  0  0  0  0
    5.7619   -0.8846    8.5272 C   0  0  0  0  0  0  0  0  0  0  0  0
    5.7468   -0.2594    7.6266 H   0  0  0  0  0  0  0  0  0  0  0  0
    5.3780   -2.1996    8.4847 C   0  0  0  0  0  0  0  0  0  0  0  0
    5.0353   -2.6592    7.5713 H   0  0  0  0  0  0  0  0  0  0  0  0
    5.4307   -2.9906    9.6426 C   0  0  0  0  0  0  0  0  0  0  0  0
    5.8777   -2.4290   10.8402 C   0  0  0  0  0  0  0  0  0  0  0  0
    5.9265   -3.0200   11.7413 H   0  0  0  0  0  0  0  0  0  0  0  0
    6.2647   -1.1056   10.8826 C   0  0  0  0  0  0  0  0  0  0  0  0
    6.6033   -0.6734   11.8125 H   0  0  0  0  0  0  0  0  0  0  0  0
    7.3275    3.1739   11.1836 C   0  0  0  0  0  0  0  0  0  0  0  0
    7.6328    2.7191   12.4681 C   0  0  0  0  0  0  0  0  0  0  0  0
    7.5683    1.6635   12.6864 H   0  0  0  0  0  0  0  0  0  0  0  0
    8.0130    3.6031   13.4559 C   0  0  0  0  0  0  0  0  0  0  0  0
    8.2450    3.2255   14.4393 H   0  0  0  0  0  0  0  0  0  0  0  0
    8.0945    4.9685   13.1775 C   0  0  0  0  0  0  0  0  0  0  0  0
    7.7900    5.4276   11.8884 C   0  0  0  0  0  0  0  0  0  0  0  0
    7.8630    6.4862   11.6967 H   0  0  0  0  0  0  0  0  0  0  0  0
    7.4160    4.5467   10.9061 C   0  0  0  0  0  0  0  0  0  0  0  0
    7.1841    4.8905    9.9082 H   0  0  0  0  0  0  0  0  0  0  0  0
    5.0809   -5.1432   10.5982 C   0  0  0  0  0  0  0  0  0  0  0  0
    6.1018   -5.2495   10.9772 H   0  0  0  0  0  0  0  0  0  0  0  0
    4.7327   -6.1061   10.2286 H   0  0  0  0  0  0  0  0  0  0  0  0
    4.4233   -4.8072   11.4060 H   0  0  0  0  0  0  0  0  0  0  0  0
    8.7953    5.5391   15.3805 C   0  0  0  0  0  0  0  0  0  0  0  0
    7.9557    5.0600   15.8937 H   0  0  0  0  0  0  0  0  0  0  0  0
    9.0517    6.4627   15.8963 H   0  0  0  0  0  0  0  0  0  0  0  0
    9.6600    4.8686   15.3883 H   0  0  0  0  0  0  0  0  0  0  0  0
    2.1582    2.0833    7.4068 C   0  0  0  0  0  0  0  0  0  0  0  0
    2.3627    0.7575    7.0272 C   0  0  0  0  0  0  0  0  0  0  0  0
    3.3580    0.3279    7.1284 H   0  0  0  0  0  0  0  0  0  0  0  0
    1.3277    0.0232    6.4842 C   0  0  0  0  0  0  0  0  0  0  0  0
    1.4894   -1.0020    6.1851 H   0  0  0  0  0  0  0  0  0  0  0  0
    0.0854    0.6129    6.3037 C   0  0  0  0  0  0  0  0  0  0  0  0
   -0.7232    0.0442    5.8688 H   0  0  0  0  0  0  0  0  0  0  0  0
   -0.1123    1.9363    6.6569 C   0  0  0  0  0  0  0  0  0  0  0  0
   -1.0739    2.4007    6.4933 H   0  0  0  0  0  0  0  0  0  0  0  0
    0.9198    2.6766    7.2095 C   0  0  0  0  0  0  0  0  0  0  0  0
    0.7653    3.7157    7.4584 H   0  0  0  0  0  0  0  0  0  0  0  0
    3.5007    2.5450    9.8897 C   0  0  0  0  0  0  0  0  0  0  0  0
    3.1240    1.2745   10.3164 C   0  0  0  0  0  0  0  0  0  0  0  0
    2.7292    0.5657    9.6013 H   0  0  0  0  0  0  0  0  0  0  0  0
    3.2515    0.9185   11.6462 C   0  0  0  0  0  0  0  0  0  0  0  0
    2.9570   -0.0703   11.9667 H   0  0  0  0  0  0  0  0  0  0  0  0
    3.7622    1.8223   12.5636 C   0  0  0  0  0  0  0  0  0  0  0  0
    3.8656    1.5410   13.6011 H   0  0  0  0  0  0  0  0  0  0  0  0
    4.1410    3.0879   12.1466 C   0  0  0  0  0  0  0  0  0  0  0  0
    4.5430    3.7961   12.8568 H   0  0  0  0  0  0  0  0  0  0  0  0
    4.0208    3.4448   10.8169 C   0  0  0  0  0  0  0  0  0  0  0  0
    4.3338    4.4273   10.4901 H   0  0  0  0  0  0  0  0  0  0  0  0
    3.3651    4.7148    8.0496 C   0  0  0  0  0  0  0  0  0  0  0  0
    2.3265    5.3580    8.7190 C   0  0  0  0  0  0  0  0  0  0  0  0
    1.6237    4.7804    9.3047 H   0  0  0  0  0  0  0  0  0  0  0  0
    2.2161    6.7351    8.6536 C   0  0  0  0  0  0  0  0  0  0  0  0
    1.4065    7.2342    9.1662 H   0  0  0  0  0  0  0  0  0  0  0  0
    3.1440    7.4750    7.9370 C   0  0  0  0  0  0  0  0  0  0  0  0
    3.0499    8.5497    7.8863 H   0  0  0  0  0  0  0  0  0  0  0  0
    4.1973    6.8413    7.2972 C   0  0  0  0  0  0  0  0  0  0  0  0
    4.9276    7.4220    6.7535 H   0  0  0  0  0  0  0  0  0  0  0  0
    4.3133    5.4637    7.3548 C   0  0  0  0  0  0  0  0  0  0  0  0
    5.1455    4.9536    6.8513 H   0  0  0  0  0  0  0  0  0  0  0  0
  1  4  1  0  0  0  0
  1  7  2  0  0  0  0
  2  1  1  0  0  0  0
  3  1  1  0  0  0  0
  4 49  1  0  0  0  0
  5 15  1  0  0  0  0
  5 30  1  0  0  0  0
  6 34  1  0  0  0  0
  7  8  1  0  0  0  0
  7  9  1  0  0  0  0
  8 10  1  0  0  0  0
  8  9  2  0  0  0  0
  9 20  1  0  0  0  0
 10 18  1  0  0  0  0
 11 10  2  0  0  0  0
 12 11  1  0  0  0  0
 13 11  1  0  0  0  0
 13 15  2  0  0  0  0
 14 13  1  0  0  0  0
 15 16  1  0  0  0  0
 16 18  2  0  0  0  0
 16 17  1  0  0  0  0
 18 19  1  0  0  0  0
 20 21  1  0  0  0  0
 21 22  1  0  0  0  0
 21 23  2  0  0  0  0
 23 24  1  0  0  0  0
 25 23  1  0  0  0  0
 25  6  1  0  0  0  0
 26 25  2  0  0  0  0
 27 26  1  0  0  0  0
 28 20  2  0  0  0  0
 28 26  1  0  0  0  0
 29 28  1  0  0  0  0
 30 31  1  0  0  0  0
 30 33  1  0  0  0  0
 32 30  1  0  0  0  0
 34 37  1  0  0  0  0
 34 35  1  0  0  0  0
 34 36  1  0  0  0  0
 38  4  1  0  0  0  0
 39 40  1  0  0  0  0
 39 38  2  0  0  0  0
 41 39  1  0  0  0  0
 42 41  1  0  0  0  0
 43 41  2  0  0  0  0
 43 45  1  0  0  0  0
 44 43  1  0  0  0  0
 45 47  2  0  0  0  0
 46 45  1  0  0  0  0
 47 38  1  0  0  0  0
 47 48  1  0  0  0  0
 49 50  2  0  0  0  0
 49 58  1  0  0  0  0
 50 52  1  0  0  0  0
 51 50  1  0  0  0  0
 52 53  1  0  0  0  0
 52 54  2  0  0  0  0
 54 55  1  0  0  0  0
 56 54  1  0  0  0  0
 56 57  1  0  0  0  0
 58 56  2  0  0  0  0
 59 58  1  0  0  0  0
 60  4  1  0  0  0  0
 60 61  1  0  0  0  0
 61 62  1  0  0  0  0
 63 61  2  0  0  0  0
 63 64  1  0  0  0  0
 65 63  1  0  0  0  0
 66 65  1  0  0  0  0
 67 69  1  0  0  0  0
 67 65  2  0  0  0  0
 68 67  1  0  0  0  0
 69 60  2  0  0  0  0
 70 69  1  0  0  0  0
M  END
$$$$
