CSD_code = USEWAR | q = 0 | S = 0 | Stoichiometry = C33H23Cl2F2PPd | MND = 4
 OpenBabel04212202103D

 62 67  0  0  0  0  0  0  0  0999 V2000
    1.5943    8.0091   14.4527 Pd  0  0  0  0  0  0  0  0  0  0  0  0
    3.5764    7.5076   13.4566 Cl  0  0  0  0  0  0  0  0  0  0  0  0
    0.8257    9.0826   12.6283 Cl  0  0  0  0  0  0  0  0  0  0  0  0
   -0.5270    8.3343   15.1808 P   0  0  0  0  0  4  0  0  0  0  0  0
   -0.4282    2.4428   19.9594 F   0  0  0  0  0  0  0  0  0  0  0  0
    7.1709   10.9490   18.3808 F   0  0  0  0  0  0  0  0  0  0  0  0
    2.2383    7.1719   16.0458 C   0  0  0  0  0  0  0  0  0  0  0  0
    2.2897    6.3603   17.2024 C   0  0  0  0  0  0  0  0  0  0  0  0
    3.1878    7.3843   17.0797 C   0  0  0  0  0  0  0  0  0  0  0  0
    1.6476    5.3191   17.9215 C   0  0  0  0  0  0  0  0  0  0  0  0
    0.6034    4.6295   17.2924 C   0  0  0  0  0  0  0  0  0  0  0  0
    0.3560    4.8776   16.2699 H   0  0  0  0  0  0  0  0  0  0  0  0
   -0.0936    3.6550   17.9727 C   0  0  0  0  0  0  0  0  0  0  0  0
   -0.9015    3.1109   17.5101 H   0  0  0  0  0  0  0  0  0  0  0  0
    0.2579    3.3807   19.2856 C   0  0  0  0  0  0  0  0  0  0  0  0
    1.2898    4.0448   19.9307 C   0  0  0  0  0  0  0  0  0  0  0  0
    1.5278    3.7947   20.9525 H   0  0  0  0  0  0  0  0  0  0  0  0
    1.9882    5.0149   19.2432 C   0  0  0  0  0  0  0  0  0  0  0  0
    2.7913    5.5510   19.7249 H   0  0  0  0  0  0  0  0  0  0  0  0
    4.2274    8.2657   17.4656 C   0  0  0  0  0  0  0  0  0  0  0  0
    5.0077    8.0811   18.6116 C   0  0  0  0  0  0  0  0  0  0  0  0
    4.8364    7.2250   19.2464 H   0  0  0  0  0  0  0  0  0  0  0  0
    6.0024    8.9860   18.9172 C   0  0  0  0  0  0  0  0  0  0  0  0
    6.6245    8.8685   19.7905 H   0  0  0  0  0  0  0  0  0  0  0  0
    6.2045   10.0694   18.0741 C   0  0  0  0  0  0  0  0  0  0  0  0
    5.4446   10.2764   16.9316 C   0  0  0  0  0  0  0  0  0  0  0  0
    5.6439   11.1298   16.3034 H   0  0  0  0  0  0  0  0  0  0  0  0
    4.4543    9.3684   16.6266 C   0  0  0  0  0  0  0  0  0  0  0  0
    3.8401    9.4819   15.7324 H   0  0  0  0  0  0  0  0  0  0  0  0
   -0.7048    7.9701   16.9656 C   0  0  0  0  0  0  0  0  0  0  0  0
   -1.5713    7.0281   17.5026 C   0  0  0  0  0  0  0  0  0  0  0  0
   -2.2552    6.4938   16.8595 H   0  0  0  0  0  0  0  0  0  0  0  0
   -1.5537    6.7665   18.8626 C   0  0  0  0  0  0  0  0  0  0  0  0
   -2.2278    6.0301   19.2745 H   0  0  0  0  0  0  0  0  0  0  0  0
   -0.6755    7.4397   19.6936 C   0  0  0  0  0  0  0  0  0  0  0  0
   -0.6631    7.2281   20.7523 H   0  0  0  0  0  0  0  0  0  0  0  0
    0.1903    8.3854   19.1655 C   0  0  0  0  0  0  0  0  0  0  0  0
    0.8766    8.9142   19.8109 H   0  0  0  0  0  0  0  0  0  0  0  0
    0.1785    8.6428   17.8087 C   0  0  0  0  0  0  0  0  0  0  0  0
    0.8659    9.3657   17.3768 H   0  0  0  0  0  0  0  0  0  0  0  0
   -1.5668    9.8048   14.9511 C   0  0  0  0  0  0  0  0  0  0  0  0
   -1.8352   10.6838   15.9955 C   0  0  0  0  0  0  0  0  0  0  0  0
   -1.4458   10.4891   16.9849 H   0  0  0  0  0  0  0  0  0  0  0  0
   -2.6091   11.8077   15.7678 C   0  0  0  0  0  0  0  0  0  0  0  0
   -2.8184   12.4863   16.5818 H   0  0  0  0  0  0  0  0  0  0  0  0
   -3.1111   12.0647   14.5028 C   0  0  0  0  0  0  0  0  0  0  0  0
   -3.7116   12.9455   14.3299 H   0  0  0  0  0  0  0  0  0  0  0  0
   -2.8402   11.1929   13.4603 C   0  0  0  0  0  0  0  0  0  0  0  0
   -3.2268   11.3937   12.4727 H   0  0  0  0  0  0  0  0  0  0  0  0
   -2.0709   10.0657   13.6781 C   0  0  0  0  0  0  0  0  0  0  0  0
   -1.8397    9.3929   12.8657 H   0  0  0  0  0  0  0  0  0  0  0  0
   -1.4807    7.0142   14.3696 C   0  0  0  0  0  0  0  0  0  0  0  0
   -2.8724    6.9762   14.4062 C   0  0  0  0  0  0  0  0  0  0  0  0
   -3.4177    7.7681   14.9022 H   0  0  0  0  0  0  0  0  0  0  0  0
   -3.5504    5.9364   13.7961 C   0  0  0  0  0  0  0  0  0  0  0  0
   -4.6300    5.9106   13.8220 H   0  0  0  0  0  0  0  0  0  0  0  0
   -2.8481    4.9328   13.1472 C   0  0  0  0  0  0  0  0  0  0  0  0
   -3.3819    4.1258   12.6680 H   0  0  0  0  0  0  0  0  0  0  0  0
   -1.4635    4.9700   13.1009 C   0  0  0  0  0  0  0  0  0  0  0  0
   -0.9186    4.1948   12.5830 H   0  0  0  0  0  0  0  0  0  0  0  0
   -0.7786    6.0073   13.7092 C   0  0  0  0  0  0  0  0  0  0  0  0
    0.3199    6.0546   13.6499 H   0  0  0  0  0  0  0  0  0  0  0  0
  1  4  1  0  0  0  0
  1  7  2  0  0  0  0
  2  1  1  0  0  0  0
  3  1  1  0  0  0  0
  4 30  1  0  0  0  0
  7  9  1  0  0  0  0
  7  8  1  0  0  0  0
  8 10  1  0  0  0  0
  9  8  2  0  0  0  0
  9 20  1  0  0  0  0
 10 18  1  0  0  0  0
 11 10  2  0  0  0  0
 11 13  1  0  0  0  0
 12 11  1  0  0  0  0
 13 15  2  0  0  0  0
 14 13  1  0  0  0  0
 15 16  1  0  0  0  0
 15  5  1  0  0  0  0
 16 17  1  0  0  0  0
 18 19  1  0  0  0  0
 18 16  2  0  0  0  0
 20 21  1  0  0  0  0
 21 23  2  0  0  0  0
 21 22  1  0  0  0  0
 23 24  1  0  0  0  0
 25  6  1  0  0  0  0
 25 23  1  0  0  0  0
 26 25  2  0  0  0  0
 27 26  1  0  0  0  0
 28 26  1  0  0  0  0
 28 20  2  0  0  0  0
 29 28  1  0  0  0  0
 30 31  2  0  0  0  0
 30 39  1  0  0  0  0
 31 33  1  0  0  0  0
 32 31  1  0  0  0  0
 33 34  1  0  0  0  0
 33 35  2  0  0  0  0
 35 36  1  0  0  0  0
 37 35  1  0  0  0  0
 37 38  1  0  0  0  0
 39 37  2  0  0  0  0
 40 39  1  0  0  0  0
 41  4  1  0  0  0  0
 41 42  1  0  0  0  0
 42 43  1  0  0  0  0
 44 42  2  0  0  0  0
 44 45  1  0  0  0  0
 46 44  1  0  0  0  0
 47 46  1  0  0  0  0
 48 50  1  0  0  0  0
 48 46  2  0  0  0  0
 49 48  1  0  0  0  0
 50 41  2  0  0  0  0
 51 50  1  0  0  0  0
 52 53  1  0  0  0  0
 52  4  1  0  0  0  0
 53 54  1  0  0  0  0
 55 56  1  0  0  0  0
 55 53  2  0  0  0  0
 57 55  1  0  0  0  0
 58 57  1  0  0  0  0
 59 57  2  0  0  0  0
 59 61  1  0  0  0  0
 60 59  1  0  0  0  0
 61 52  2  0  0  0  0
 62 61  1  0  0  0  0
M  END
$$$$
