CSD_code = USIWUQ | q = 0 | S = 0 | Stoichiometry = C16H18ClNPtSe2 | MND = 4
 OpenBabel04212202103D

 39 40  0  0  0  0  0  0  0  0999 V2000
    4.1748    8.0451    8.8932 Pt  0  0  0  0  0  0  0  0  0  0  0  0
    4.5870    7.9241    6.5554 Se  0  0  0  0  0  0  0  0  0  0  0  0
    4.1737   10.3328    8.8931 Cl  0  0  0  0  0  0  0  0  0  0  0  0
    4.1744    6.0242    8.8929 N   0  0  0  0  0  0  0  0  0  0  0  0
    3.8760    5.3886    7.7224 C   0  0  0  0  0  0  0  0  0  0  0  0
    3.3312    4.0943    7.6426 C   0  0  0  0  0  0  0  0  0  0  0  0
    3.1013    3.5667    8.5559 H   0  0  0  0  0  0  0  0  0  0  0  0
    3.0461    3.5126    6.4284 C   0  0  0  0  0  0  0  0  0  0  0  0
    2.6235    2.5181    6.4112 H   0  0  0  0  0  0  0  0  0  0  0  0
    3.2806    4.1716    5.2232 C   0  0  0  0  0  0  0  0  0  0  0  0
    3.7666    5.4683    5.2832 C   0  0  0  0  0  0  0  0  0  0  0  0
    3.9335    6.0278    4.3720 H   0  0  0  0  0  0  0  0  0  0  0  0
    4.0290    6.0717    6.5001 C   0  0  0  0  0  0  0  0  0  0  0  0
    2.9680    3.5203    3.9102 C   0  0  0  0  0  0  0  0  0  0  0  0
    3.1421    2.4479    3.9617 H   0  0  0  0  0  0  0  0  0  0  0  0
    3.5806    3.9390    3.1151 H   0  0  0  0  0  0  0  0  0  0  0  0
    1.9203    3.6781    3.6497 H   0  0  0  0  0  0  0  0  0  0  0  0
    2.8933    8.7309    5.9957 C   0  0  0  0  0  0  0  0  0  0  0  0
    2.0807    8.2949    6.5753 H   0  0  0  0  0  0  0  0  0  0  0  0
    2.7445    8.5532    4.9329 H   0  0  0  0  0  0  0  0  0  0  0  0
    2.9679    9.7974    6.1974 H   0  0  0  0  0  0  0  0  0  0  0  0
    3.7614    7.9241   11.2306 Se  0  0  0  0  0  0  0  0  0  0  0  0
    4.4727    5.3886   10.0633 C   0  0  0  0  0  0  0  0  0  0  0  0
    5.0174    4.0943   10.1431 C   0  0  0  0  0  0  0  0  0  0  0  0
    5.2473    3.5668    9.2299 H   0  0  0  0  0  0  0  0  0  0  0  0
    5.3025    3.5126   11.3573 C   0  0  0  0  0  0  0  0  0  0  0  0
    5.7252    2.5181   11.3745 H   0  0  0  0  0  0  0  0  0  0  0  0
    5.0680    4.1716   12.5625 C   0  0  0  0  0  0  0  0  0  0  0  0
    4.5820    5.4683   12.5026 C   0  0  0  0  0  0  0  0  0  0  0  0
    4.4151    6.0277   13.4138 H   0  0  0  0  0  0  0  0  0  0  0  0
    4.3196    6.0717   11.2856 C   0  0  0  0  0  0  0  0  0  0  0  0
    5.3806    3.5203   13.8755 C   0  0  0  0  0  0  0  0  0  0  0  0
    5.2065    2.4478   13.8240 H   0  0  0  0  0  0  0  0  0  0  0  0
    4.7680    3.9389   14.6706 H   0  0  0  0  0  0  0  0  0  0  0  0
    6.4283    3.6780   14.1360 H   0  0  0  0  0  0  0  0  0  0  0  0
    5.4554    8.7307   11.7899 C   0  0  0  0  0  0  0  0  0  0  0  0
    6.2678    8.2941   11.2107 H   0  0  0  0  0  0  0  0  0  0  0  0
    5.6039    8.5539   12.8530 H   0  0  0  0  0  0  0  0  0  0  0  0
    5.3809    9.7971   11.5873 H   0  0  0  0  0  0  0  0  0  0  0  0
  3  1  1  0  0  0  0
  4  1  1  0  0  0  0
  4 23  1  0  0  0  0
  5  4  1  0  0  0  0
  6  5  1  0  0  0  0
  6  7  1  0  0  0  0
  8  6  2  0  0  0  0
  9  8  1  0  0  0  0
 10 11  2  0  0  0  0
 10  8  1  0  0  0  0
 11 13  1  0  0  0  0
 12 11  1  0  0  0  0
 13  2  1  0  0  0  0
 13  5  2  0  0  0  0
 14 15  1  0  0  0  0
 14 10  1  0  0  0  0
 16 14  1  0  0  0  0
 17 14  1  0  0  0  0
 18 21  1  0  0  0  0
 18  2  1  0  0  0  0
 18 19  1  0  0  0  0
 20 18  1  0  0  0  0
 22 31  1  0  0  0  0
 22 36  1  0  0  0  0
 23 24  2  0  0  0  0
 23 31  1  0  0  0  0
 24 26  1  0  0  0  0
 25 24  1  0  0  0  0
 26 27  1  0  0  0  0
 26 28  2  0  0  0  0
 28 32  1  0  0  0  0
 29 28  1  0  0  0  0
 29 30  1  0  0  0  0
 31 29  2  0  0  0  0
 32 35  1  0  0  0  0
 32 34  1  0  0  0  0
 33 32  1  0  0  0  0
 36 38  1  0  0  0  0
 37 36  1  0  0  0  0
 39 36  1  0  0  0  0
M  END
$$$$
