CSD_code = USOWIJ | q = 1 | S = 0 | Stoichiometry = C10H12ClN4OPtS(1+) | MND = 4
 OpenBabel04212202103D

 30 32  0  0  0  0  0  0  0  0999 V2000
    6.4670    2.4533    0.8557 Pt  0  0  1  0  0  0  0  0  0  0  0  0
    8.3073    2.3356    2.1812 S   0  0  0  0  0  0  0  0  0  0  0  0
    7.4615    0.7926   -0.2508 Cl  0  0  0  0  0  0  0  0  0  0  0  0
    8.3075    3.2912    3.2746 O   0  0  0  0  0  1  0  0  0  0  0  0
    5.4250    3.9696    1.7659 N   0  0  0  0  0  0  0  0  0  0  0  0
    3.4134    5.1895    1.5650 N   0  0  0  0  0  0  0  0  0  0  0  0
    2.8005    3.6799   -0.6705 N   0  0  0  0  0  0  0  0  0  0  0  0
    4.8342    2.5268   -0.3687 N   0  0  0  0  0  0  0  0  0  0  0  0
    5.7495    4.6810    2.8448 C   0  0  0  0  0  0  0  0  0  0  0  0
    6.6931    4.4434    3.3245 H   0  0  0  0  0  0  0  0  0  0  0  0
    4.9132    5.6781    3.3255 C   0  0  0  0  0  0  0  0  0  0  0  0
    5.1821    6.2495    4.1979 H   0  0  0  0  0  0  0  0  0  0  0  0
    3.7269    5.8998    2.6335 C   0  0  0  0  0  0  0  0  0  0  0  0
    3.0102    6.6531    2.9287 H   0  0  0  0  0  0  0  0  0  0  0  0
    4.2505    4.2613    1.1641 C   0  0  0  0  0  0  0  0  0  0  0  0
    3.9215    3.4608   -0.0230 C   0  0  0  0  0  0  0  0  0  0  0  0
    2.5363    2.9449   -1.7353 C   0  0  0  0  0  0  0  0  0  0  0  0
    1.6032    3.1583   -2.2377 H   0  0  0  0  0  0  0  0  0  0  0  0
    3.4146    1.9580   -2.1742 C   0  0  0  0  0  0  0  0  0  0  0  0
    3.2081    1.3549   -3.0425 H   0  0  0  0  0  0  0  0  0  0  0  0
    4.5787    1.7783   -1.4430 C   0  0  0  0  0  0  0  0  0  0  0  0
    5.3169    1.0321   -1.7119 H   0  0  0  0  0  0  0  0  0  0  0  0
    8.5635    0.6938    2.8948 C   0  0  0  0  0  0  0  0  0  0  0  0
    9.4415    0.7398    3.5302 H   0  0  0  0  0  0  0  0  0  0  0  0
    8.6916   -0.0219    2.0912 H   0  0  0  0  0  0  0  0  0  0  0  0
    7.6915    0.4415    3.4909 H   0  0  0  0  0  0  0  0  0  0  0  0
    9.8467    2.5634    1.2597 C   0  0  0  0  0  0  0  0  0  0  0  0
    9.8170    3.5387    0.7831 H   0  0  0  0  0  0  0  0  0  0  0  0
    9.9278    1.7811    0.5141 H   0  0  0  0  0  0  0  0  0  0  0  0
   10.6684    2.5256    1.9670 H   0  0  0  0  0  0  0  0  0  0  0  0
  1  3  1  1  0  0  0
  1  5  1  0  0  0  0
  1  2  1  0  0  0  0
  2 23  1  0  0  0  0
  2  4  1  0  0  0  0
  5  9  1  0  0  0  0
  6 13  2  0  0  0  0
  7 16  1  0  0  0  0
  8 16  1  0  0  0  0
  8  1  1  0  0  0  0
  9 10  1  0  0  0  0
  9 11  2  0  0  0  0
 11 12  1  0  0  0  0
 13 14  1  0  0  0  0
 13 11  1  0  0  0  0
 15  6  1  0  0  0  0
 15  5  1  0  0  0  0
 16 15  2  0  0  0  0
 17  7  2  0  0  0  0
 18 17  1  0  0  0  0
 19 17  1  0  0  0  0
 19 21  2  0  0  0  0
 20 19  1  0  0  0  0
 21  8  1  0  0  0  0
 22 21  1  0  0  0  0
 23 26  1  0  0  0  0
 23 24  1  0  0  0  0
 25 23  1  0  0  0  0
 27 30  1  0  0  0  0
 27  2  1  0  0  0  0
 28 27  1  0  0  0  0
 29 27  1  0  0  0  0
M  END
$$$$
