CSD_code = USUDOD | q = 0 | S = 0 | Stoichiometry = C26H21ClNOPPdS | MND = 4
 OpenBabel04212202103D

 53 58  0  0  1  0  0  0  0  0999 V2000
    7.6070    5.5356    8.3405 Pd  0  0  2  0  0  0  0  0  0  0  0  0
    5.7982    4.4511    8.2429 C   0  0  1  0  0  0  0  0  0  0  0  0
    5.2161    4.8735    9.0677 H   0  0  0  0  0  0  0  0  0  0  0  0
    5.5963    5.0885    6.9566 C   0  0  0  0  0  0  0  0  0  0  0  0
    5.4974    6.5929    7.1098 C   0  0  2  0  0  3  0  0  0  0  0  0
    4.6844    7.4329    6.3647 C   0  0  0  0  0  0  0  0  0  0  0  0
    4.0422    7.0130    5.6067 H   0  0  0  0  0  0  0  0  0  0  0  0
    4.7441    8.7955    6.6115 C   0  0  0  0  0  0  0  0  0  0  0  0
    4.1245    9.4798    6.0518 H   0  0  0  0  0  0  0  0  0  0  0  0
    5.6223    9.2697    7.5759 C   0  0  0  0  0  0  0  0  0  0  0  0
    5.6986   10.3245    7.7863 H   0  0  0  0  0  0  0  0  0  0  0  0
    6.4262    8.3715    8.2600 C   0  0  0  0  0  0  0  0  0  0  0  0
    7.1580    8.6927    8.9912 H   0  0  0  0  0  0  0  0  0  0  0  0
    5.9383    2.9434    8.2443 C   0  0  2  0  0  0  0  0  0  0  0  0
    6.1311    2.6260    7.2073 H   0  0  0  0  0  0  0  0  0  0  0  0
    4.8384    2.1204    8.8415 C   0  0  0  0  0  0  0  0  0  0  0  0
    4.5953    0.8460    8.3370 C   0  0  0  0  0  0  0  0  0  0  0  0
    5.1769    0.4819    7.5031 H   0  0  0  0  0  0  0  0  0  0  0  0
    3.6113    0.0424    8.8819 C   0  0  0  0  0  0  0  0  0  0  0  0
    3.4396   -0.9434    8.4760 H   0  0  0  0  0  0  0  0  0  0  0  0
    2.8450    0.5017    9.9398 C   0  0  0  0  0  0  0  0  0  0  0  0
    2.0747   -0.1234   10.3657 H   0  0  0  0  0  0  0  0  0  0  0  0
    3.0692    1.7713   10.4418 C   0  0  0  0  0  0  0  0  0  0  0  0
    2.4727    2.1431   11.2620 H   0  0  0  0  0  0  0  0  0  0  0  0
    4.0580    2.5738    9.9001 C   0  0  0  0  0  0  0  0  0  0  0  0
    4.2145    3.5579   10.3159 H   0  0  0  0  0  0  0  0  0  0  0  0
    8.0218    1.0070    9.3111 C   0  0  0  0  0  0  0  0  0  0  0  0
    7.9636    0.2280    8.1600 C   0  0  0  0  0  0  0  0  0  0  0  0
    7.6138    0.6684    7.2364 H   0  0  0  0  0  0  0  0  0  0  0  0
    8.3733   -1.0911    8.1963 C   0  0  0  0  0  0  0  0  0  0  0  0
    8.3221   -1.6970    7.3040 H   0  0  0  0  0  0  0  0  0  0  0  0
    8.8599   -1.6304    9.3766 C   0  0  0  0  0  0  0  0  0  0  0  0
    9.1820   -2.6605    9.4057 H   0  0  0  0  0  0  0  0  0  0  0  0
    8.9515   -0.8455   10.5143 C   0  0  0  0  0  0  0  0  0  0  0  0
    9.3528   -1.2607   11.4267 H   0  0  0  0  0  0  0  0  0  0  0  0
    8.5382    0.4747   10.4855 C   0  0  0  0  0  0  0  0  0  0  0  0
    8.6234    1.0925   11.3680 H   0  0  0  0  0  0  0  0  0  0  0  0
    7.2433    3.3889   10.8281 C   0  0  0  0  0  0  0  0  0  0  0  0
    6.4789    2.6114   11.6955 C   0  0  0  0  0  0  0  0  0  0  0  0
    6.1331    1.6366   11.3817 H   0  0  0  0  0  0  0  0  0  0  0  0
    6.1603    3.0945   12.9517 C   0  0  0  0  0  0  0  0  0  0  0  0
    5.5629    2.4923   13.6197 H   0  0  0  0  0  0  0  0  0  0  0  0
    6.6029    4.3468   13.3481 C   0  0  0  0  0  0  0  0  0  0  0  0
    6.3485    4.7216   14.3281 H   0  0  0  0  0  0  0  0  0  0  0  0
    7.3806    5.1127   12.4943 C   0  0  0  0  0  0  0  0  0  0  0  0
    7.7415    6.0801   12.8089 H   0  0  0  0  0  0  0  0  0  0  0  0
    7.7078    4.6398   11.2330 C   0  0  0  0  0  0  0  0  0  0  0  0
    8.3640    5.2391   10.5852 H   0  0  0  0  0  0  0  0  0  0  0  0
    9.3891    6.9692    8.5224 Cl  0  0  0  0  0  0  0  0  0  0  0  0
    6.3477    7.0673    8.0334 N   0  0  0  0  0  0  0  0  0  0  0  0
    5.5747    4.5419    5.8585 O   0  0  0  0  0  0  0  0  0  0  0  0
    7.5704    2.7582    9.1440 P   0  0  0  0  0  4  0  0  0  0  0  0
    9.0281    3.6740    8.1616 S   0  0  0  0  0  0  0  0  0  0  0  0
  1 49  1  1  0  0  0
  2 14  1  0  0  0  0
  2  1  1  0  0  0  0
  2  3  1  1  0  0  0
  4  5  1  0  0  0  0
  4  2  1  0  0  0  0
  5  6  1  6  0  0  0
  5 50  1  0  0  0  0
  6  8  2  0  0  0  0
  7  6  1  0  0  0  0
  8 10  1  0  0  0  0
  9  8  1  0  0  0  0
 10 11  1  0  0  0  0
 10 12  2  0  0  0  0
 12 13  1  0  0  0  0
 14 15  1  6  0  0  0
 14 16  1  0  0  0  0
 14 52  1  0  0  0  0
 16 25  1  0  0  0  0
 17 16  2  0  0  0  0
 17 19  1  0  0  0  0
 18 17  1  0  0  0  0
 19 21  2  0  0  0  0
 20 19  1  0  0  0  0
 21 22  1  0  0  0  0
 21 23  1  0  0  0  0
 23 24  1  0  0  0  0
 25 26  1  0  0  0  0
 25 23  2  0  0  0  0
 27 36  1  0  0  0  0
 28 30  1  0  0  0  0
 28 27  2  0  0  0  0
 29 28  1  0  0  0  0
 30 32  2  0  0  0  0
 31 30  1  0  0  0  0
 32 33  1  0  0  0  0
 32 34  1  0  0  0  0
 34 35  1  0  0  0  0
 36 34  2  0  0  0  0
 36 37  1  0  0  0  0
 38 47  2  0  0  0  0
 38 39  1  0  0  0  0
 39 41  2  0  0  0  0
 40 39  1  0  0  0  0
 41 43  1  0  0  0  0
 41 42  1  0  0  0  0
 43 44  1  0  0  0  0
 45 46  1  0  0  0  0
 45 43  2  0  0  0  0
 47 45  1  0  0  0  0
 48 47  1  0  0  0  0
 50 12  1  0  0  0  0
 50  1  1  0  0  0  0
 51  4  2  0  0  0  0
 52 27  1  0  0  0  0
 52 38  1  0  0  0  0
 53  1  1  0  0  0  0
 53 52  1  0  0  0  0
M  END
$$$$
