CSD_code = USUQIJ | q = 0 | S = 0 | Stoichiometry = C28H24Cl2NO2PPd | MND = 4
 OpenBabel04212202103D

 59 63  0  0  0  0  0  0  0  0999 V2000
    0.8257    5.0234    6.1899 Pd  0  0  2  0  0  0  0  0  0  0  0  0
    1.6878    7.0476    5.3830 Cl  0  0  0  0  0  0  0  0  0  0  0  0
    0.6406   -0.5350    7.8292 Cl  0  0  0  0  0  0  0  0  0  0  0  0
    1.8785    3.9212    4.5784 P   0  0  0  0  0  4  0  0  0  0  0  0
   -1.2910    6.3467    5.2864 O   0  0  0  0  0  0  0  0  0  0  0  0
   -1.1956    8.5785    5.5117 O   0  0  0  0  0  0  0  0  0  0  0  0
   -0.2219    5.9514    7.6667 N   0  0  0  0  0  0  0  0  0  0  0  0
    0.3084    3.4041    7.2691 C   0  0  0  0  0  0  0  0  0  0  0  0
    0.5949    2.0545    7.1018 C   0  0  0  0  0  0  0  0  0  0  0  0
    1.0832    1.6971    6.2036 H   0  0  0  0  0  0  0  0  0  0  0  0
    0.2507    1.1320    8.0775 C   0  0  0  0  0  0  0  0  0  0  0  0
   -0.3975    1.5066    9.2475 C   0  0  0  0  0  0  0  0  0  0  0  0
   -0.6509    0.7659    9.9894 H   0  0  0  0  0  0  0  0  0  0  0  0
   -0.7139    2.8360    9.4301 C   0  0  0  0  0  0  0  0  0  0  0  0
   -1.2270    3.1518   10.3277 H   0  0  0  0  0  0  0  0  0  0  0  0
   -0.3644    3.7770    8.4602 C   0  0  0  0  0  0  0  0  0  0  0  0
   -0.7297    5.1673    8.5382 C   0  0  0  0  0  0  0  0  0  0  0  0
   -1.4559    5.5198    9.2760 H   0  0  0  0  0  0  0  0  0  0  0  0
   -0.6880    7.2809    7.4330 C   0  0  0  0  0  0  0  0  0  0  0  0
    0.1127    8.0092    7.6001 H   0  0  0  0  0  0  0  0  0  0  0  0
   -1.5649    7.5425    8.0439 H   0  0  0  0  0  0  0  0  0  0  0  0
   -1.0641    7.3376    5.9443 C   0  0  0  0  0  0  0  0  0  0  0  0
   -1.3736    8.7252    4.1065 C   0  0  0  0  0  0  0  0  0  0  0  0
   -1.5146    9.7876    3.9275 H   0  0  0  0  0  0  0  0  0  0  0  0
   -2.2405    8.1539    3.7689 H   0  0  0  0  0  0  0  0  0  0  0  0
   -0.4778    8.3634    3.5967 H   0  0  0  0  0  0  0  0  0  0  0  0
    0.7862    2.8602    3.5845 C   0  0  0  0  0  0  0  0  0  0  0  0
   -0.5567    2.8118    3.9470 C   0  0  0  0  0  0  0  0  0  0  0  0
   -0.8919    3.3964    4.8047 H   0  0  0  0  0  0  0  0  0  0  0  0
   -1.4438    2.0478    3.2102 C   0  0  0  0  0  0  0  0  0  0  0  0
   -2.4858    2.0090    3.4913 H   0  0  0  0  0  0  0  0  0  0  0  0
   -0.9958    1.3376    2.1079 C   0  0  0  0  0  0  0  0  0  0  0  0
   -1.6867    0.7369    1.5350 H   0  0  0  0  0  0  0  0  0  0  0  0
    0.3344    1.4117    1.7249 C   0  0  0  0  0  0  0  0  0  0  0  0
    0.6752    0.8761    0.8507 H   0  0  0  0  0  0  0  0  0  0  0  0
    1.2252    2.1791    2.4532 C   0  0  0  0  0  0  0  0  0  0  0  0
    2.2551    2.2684    2.1345 H   0  0  0  0  0  0  0  0  0  0  0  0
    3.2046    2.9110    5.3103 C   0  0  0  0  0  0  0  0  0  0  0  0
    3.6556    1.6866    4.8349 C   0  0  0  0  0  0  0  0  0  0  0  0
    3.2132    1.2482    3.9525 H   0  0  0  0  0  0  0  0  0  0  0  0
    4.6599    1.0157    5.5124 C   0  0  0  0  0  0  0  0  0  0  0  0
    5.0047    0.0590    5.1479 H   0  0  0  0  0  0  0  0  0  0  0  0
    5.2181    1.5622    6.6559 C   0  0  0  0  0  0  0  0  0  0  0  0
    5.9996    1.0319    7.1796 H   0  0  0  0  0  0  0  0  0  0  0  0
    4.7678    2.7827    7.1361 C   0  0  0  0  0  0  0  0  0  0  0  0
    5.1982    3.2032    8.0330 H   0  0  0  0  0  0  0  0  0  0  0  0
    3.7588    3.4517    6.4704 C   0  0  0  0  0  0  0  0  0  0  0  0
    3.3749    4.4059    6.8446 H   0  0  0  0  0  0  0  0  0  0  0  0
    2.7117    4.8530    3.2601 C   0  0  0  0  0  0  0  0  0  0  0  0
    4.0867    4.8664    3.0717 C   0  0  0  0  0  0  0  0  0  0  0  0
    4.7285    4.2830    3.7177 H   0  0  0  0  0  0  0  0  0  0  0  0
    4.6299    5.6383    2.0580 C   0  0  0  0  0  0  0  0  0  0  0  0
    5.7002    5.6516    1.9107 H   0  0  0  0  0  0  0  0  0  0  0  0
    3.8087    6.3978    1.2431 C   0  0  0  0  0  0  0  0  0  0  0  0
    4.2392    7.0037    0.4593 H   0  0  0  0  0  0  0  0  0  0  0  0
    2.4352    6.3929    1.4379 C   0  0  0  0  0  0  0  0  0  0  0  0
    1.7979    6.9965    0.8082 H   0  0  0  0  0  0  0  0  0  0  0  0
    1.8867    5.6242    2.4441 C   0  0  0  0  0  0  0  0  0  0  0  0
    0.8183    5.6220    2.6292 H   0  0  0  0  0  0  0  0  0  0  0  0
  1  2  1  1  0  0  0
  1  8  2  0  0  0  0
  1  7  1  0  0  0  0
  3 11  1  0  0  0  0
  4 38  1  0  0  0  0
  4  1  1  0  0  0  0
  5 22  2  0  0  0  0
  6 22  1  0  0  0  0
  7 17  1  0  0  0  0
  8 16  1  0  0  0  0
  9  8  1  0  0  0  0
  9 11  2  0  0  0  0
 10  9  1  0  0  0  0
 11 12  1  0  0  0  0
 12 14  2  0  0  0  0
 12 13  1  0  0  0  0
 14 15  1  0  0  0  0
 16 17  2  0  0  0  0
 16 14  1  0  0  0  0
 17 18  1  0  0  0  0
 19 20  1  0  0  0  0
 19  7  1  0  0  0  0
 19 21  1  0  0  0  0
 22 19  1  0  0  0  0
 23  6  1  0  0  0  0
 24 23  1  0  0  0  0
 25 23  1  0  0  0  0
 26 23  1  0  0  0  0
 27 28  1  0  0  0  0
 27  4  1  0  0  0  0
 28 29  1  0  0  0  0
 30 31  1  0  0  0  0
 30 28  2  0  0  0  0
 32 30  1  0  0  0  0
 33 32  1  0  0  0  0
 34 32  2  0  0  0  0
 34 36  1  0  0  0  0
 35 34  1  0  0  0  0
 36 27  2  0  0  0  0
 37 36  1  0  0  0  0
 38 47  1  0  0  0  0
 39 38  2  0  0  0  0
 39 41  1  0  0  0  0
 40 39  1  0  0  0  0
 41 43  2  0  0  0  0
 42 41  1  0  0  0  0
 43 45  1  0  0  0  0
 43 44  1  0  0  0  0
 45 46  1  0  0  0  0
 47 48  1  0  0  0  0
 47 45  2  0  0  0  0
 49  4  1  0  0  0  0
 50 49  1  0  0  0  0
 50 51  1  0  0  0  0
 52 50  2  0  0  0  0
 53 52  1  0  0  0  0
 54 56  2  0  0  0  0
 54 52  1  0  0  0  0
 55 54  1  0  0  0  0
 56 58  1  0  0  0  0
 57 56  1  0  0  0  0
 58 59  1  0  0  0  0
 58 49  2  0  0  0  0
M  END
$$$$
