CSD_code = USUXIR | q = 0 | S = 0 | Stoichiometry = C17H18ClN3ORu | MND = 9
 OpenBabel04212202103D

 41 42  0  0  1  0  0  0  0  0999 V2000
    4.6277    6.7516   12.2838 C   0  0  0  0  0  3  0  0  0  0  0  0
    3.6729    6.6748   12.7905 H   0  0  0  0  0  0  0  0  0  0  0  0
    5.6726    7.4636   12.8327 C   0  0  0  0  0  0  0  0  0  0  0  0
    5.5521    7.9463   13.7884 H   0  0  0  0  0  0  0  0  0  0  0  0
    6.8720    7.5561   12.1262 C   0  0  0  0  0  0  0  0  0  0  0  0
    7.7012    8.1146   12.5309 H   0  0  0  0  0  0  0  0  0  0  0  0
    6.9765    6.9373   10.9014 C   0  0  0  0  0  0  0  0  0  0  0  0
    7.8737    6.9932   10.3057 H   0  0  0  0  0  0  0  0  0  0  0  0
    5.8772    6.2282   10.4028 C   0  0  0  0  0  0  0  0  0  0  0  0
    5.8240    5.5333    9.1517 C   0  0  1  0  0  3  0  0  0  0  0  0
    6.9356    5.4049    8.3036 C   0  0  0  0  0  0  0  0  0  0  0  0
    2.7309    3.4401   11.4555 C   0  0  1  0  0  3  0  0  0  0  0  0
    2.5889    3.0863   10.0935 C   0  0  1  0  0  0  0  0  0  0  0  0
    3.1500    2.2525    9.6867 H   0  0  0  0  0  0  0  0  0  0  0  0
    1.6463    3.7356    9.2690 C   0  0  0  0  0  0  0  0  0  0  0  0
    1.5227    3.4121    8.2423 H   0  0  0  0  0  0  0  0  0  0  0  0
    0.8882    4.8017    9.7686 C   0  0  0  0  0  0  0  0  0  0  0  0
    0.9483    5.0854   11.1679 C   0  0  0  0  0  0  0  0  0  0  0  0
    0.2648    5.8161   11.5838 H   0  0  0  0  0  0  0  0  0  0  0  0
    1.8269    4.3997   11.9918 C   0  0  0  0  0  0  0  0  0  0  0  0
    1.8195    4.5770   13.0617 H   0  0  0  0  0  0  0  0  0  0  0  0
   -0.0633    5.5604    8.8980 C   0  0  0  0  0  0  0  0  0  0  0  0
   -0.2534    5.0285    7.9689 H   0  0  0  0  0  0  0  0  0  0  0  0
    0.3759    6.5305    8.6512 H   0  0  0  0  0  0  0  0  0  0  0  0
   -1.0045    5.7400    9.4149 H   0  0  0  0  0  0  0  0  0  0  0  0
    3.6557    2.6671   12.3695 C   0  0  0  0  0  0  0  0  0  0  0  0
    3.6896    3.1823   13.3371 H   0  0  0  0  0  0  0  0  0  0  0  0
    3.1005    1.2569   12.5950 C   0  0  0  0  0  0  0  0  0  0  0  0
    2.0928    1.3027   13.0027 H   0  0  0  0  0  0  0  0  0  0  0  0
    3.7323    0.7158   13.2947 H   0  0  0  0  0  0  0  0  0  0  0  0
    3.0691    0.7021   11.6605 H   0  0  0  0  0  0  0  0  0  0  0  0
    5.0794    2.6103   11.8116 C   0  0  0  0  0  0  0  0  0  0  0  0
    5.1186    2.0415   10.8859 H   0  0  0  0  0  0  0  0  0  0  0  0
    5.7429    2.1342   12.5294 H   0  0  0  0  0  0  0  0  0  0  0  0
    5.4512    3.6173   11.6155 H   0  0  0  0  0  0  0  0  0  0  0  0
    4.7222    6.1306   11.1093 N   0  0  0  0  0  0  0  0  0  0  0  0
    4.6290    4.9871    8.8966 N   0  0  0  0  0  0  0  0  0  0  0  0
    7.8619    5.3048    7.6321 N   0  0  0  0  0  0  0  0  0  0  0  0
    4.3582    4.3005    7.9093 O   0  0  0  0  0  1  0  0  0  0  0  0
    2.8666    7.3997    9.2849 Cl  0  0  0  0  0 15  0  0  0  0  0  0
    3.2232    5.2642   10.1320 Ru  0  0  0  0  0  0  0  0  0  0  0  0
  1  2  1  0  0  0  0
  1  3  1  0  0  0  0
  3  4  1  0  0  0  0
  5  6  1  0  0  0  0
  5  3  2  0  0  0  0
  7  5  1  0  0  0  0
  8  7  1  0  0  0  0
  9  7  2  0  0  0  0
  9 36  1  0  0  0  0
 10 11  1  1  0  0  0
 10  9  1  0  0  0  0
 12 20  1  0  0  0  0
 12 26  1  1  0  0  0
 13 14  1  6  0  0  0
 13 41  1  0  0  0  0
 13 12  1  0  0  0  0
 15 17  2  0  0  0  0
 15 13  1  0  0  0  0
 16 15  1  0  0  0  0
 17 18  1  0  0  0  0
 18 19  1  0  0  0  0
 18 20  2  0  0  0  0
 20 21  1  0  0  0  0
 22 25  1  0  0  0  0
 22 17  1  0  0  0  0
 23 22  1  0  0  0  0
 24 22  1  0  0  0  0
 26 28  1  0  0  0  0
 26 27  1  0  0  0  0
 28 29  1  0  0  0  0
 28 30  1  0  0  0  0
 31 28  1  0  0  0  0
 32 26  1  0  0  0  0
 32 34  1  0  0  0  0
 33 32  1  0  0  0  0
 35 32  1  0  0  0  0
 36  1  1  0  0  0  0
 37 10  1  0  0  0  0
 37 41  1  0  0  0  0
 38 11  3  0  0  0  0
 39 37  1  0  0  0  0
 41 36  1  0  0  0  0
M  END
$$$$
