CSD_code = UTAVIW | q = 0 | S = 0 | Stoichiometry = C22H27Cl2N3Zn | MND = 5
 OpenBabel04212202103D

 55 61  0  0  1  0  0  0  0  0999 V2000
    6.6839    1.8373   12.0217 C   0  0  0  0  0  3  0  0  0  0  0  0
    7.5468    1.2354   12.2705 H   0  0  0  0  0  0  0  0  0  0  0  0
    5.6586    2.0579   12.9235 C   0  0  0  0  0  0  0  0  0  0  0  0
    5.6945    1.6204   13.9079 H   0  0  0  0  0  0  0  0  0  0  0  0
    4.5885    2.8458   12.5255 C   0  0  0  0  0  0  0  0  0  0  0  0
    3.7643    3.0361   13.1967 H   0  0  0  0  0  0  0  0  0  0  0  0
    4.5921    3.3854   11.2516 C   0  0  0  0  0  0  0  0  0  0  0  0
    3.7755    4.0021   10.9075 H   0  0  0  0  0  0  0  0  0  0  0  0
    5.6662    3.1172   10.4095 C   0  0  0  0  0  0  0  0  0  0  0  0
    5.6898    3.5948    8.9860 C   0  0  0  0  0  0  0  0  0  0  0  0
    5.2175    2.7790    8.4277 H   0  0  0  0  0  0  0  0  0  0  0  0
    5.0641    4.4878    8.8751 H   0  0  0  0  0  0  0  0  0  0  0  0
    7.0581    3.4689    7.0078 C   0  0  0  0  0  0  0  0  0  0  0  0
    6.7730    4.3250    6.3860 H   0  0  0  0  0  0  0  0  0  0  0  0
    6.3306    2.6678    6.8359 H   0  0  0  0  0  0  0  0  0  0  0  0
    8.3544    2.8848    6.5262 C   0  0  2  0  0  3  0  0  0  0  0  0
    8.7774    3.0320    5.2093 C   0  0  0  0  0  0  0  0  0  0  0  0
    8.2013    3.6303    4.5196 H   0  0  0  0  0  0  0  0  0  0  0  0
    9.9380    2.3975    4.8037 C   0  0  0  0  0  0  0  0  0  0  0  0
   10.2855    2.4936    3.7858 H   0  0  0  0  0  0  0  0  0  0  0  0
   10.6445    1.6380    5.7248 C   0  0  0  0  0  0  0  0  0  0  0  0
   11.5539    1.1296    5.4489 H   0  0  0  0  0  0  0  0  0  0  0  0
   10.1507    1.5398    7.0131 C   0  0  0  0  0  0  0  0  0  0  0  0
   10.6548    0.9660    7.7782 H   0  0  0  0  0  0  0  0  0  0  0  0
    7.6602    5.0834    8.7892 C   0  0  1  0  0  0  0  0  0  0  0  0
    6.9268    6.2939    8.1828 C   0  0  0  0  0  0  0  0  0  0  0  0
    5.8923    6.3326    8.5299 H   0  0  0  0  0  0  0  0  0  0  0  0
    6.9143    6.2318    7.0929 H   0  0  0  0  0  0  0  0  0  0  0  0
    7.6276    7.5932    8.5875 C   0  0  2  0  0  0  0  0  0  0  0  0
    7.0862    8.4368    8.1433 H   0  0  0  0  0  0  0  0  0  0  0  0
    9.0665    7.5864    8.0777 C   0  0  0  0  0  0  0  0  0  0  0  0
    9.5604    8.5217    8.3481 H   0  0  0  0  0  0  0  0  0  0  0  0
    9.0778    7.5057    6.9879 H   0  0  0  0  0  0  0  0  0  0  0  0
    9.8081    6.4043    8.6977 C   0  0  2  0  0  0  0  0  0  0  0  0
   10.8372    6.3803    8.3234 H   0  0  0  0  0  0  0  0  0  0  0  0
    9.1132    5.1019    8.3001 C   0  0  0  0  0  0  0  0  0  0  0  0
    9.1511    5.0088    7.2136 H   0  0  0  0  0  0  0  0  0  0  0  0
    9.6464    4.2551    8.7366 H   0  0  0  0  0  0  0  0  0  0  0  0
    7.6859    5.2453   10.3138 C   0  0  0  0  0  0  0  0  0  0  0  0
    6.6710    5.2569   10.7142 H   0  0  0  0  0  0  0  0  0  0  0  0
    8.2190    4.3996   10.7523 H   0  0  0  0  0  0  0  0  0  0  0  0
    8.3780    6.5484   10.7145 C   0  0  2  0  0  0  0  0  0  0  0  0
    8.3669    6.6289   11.8068 H   0  0  0  0  0  0  0  0  0  0  0  0
    7.6271    7.7314   10.1077 C   0  0  0  0  0  0  0  0  0  0  0  0
    6.6006    7.7555   10.4817 H   0  0  0  0  0  0  0  0  0  0  0  0
    8.1090    8.6679   10.3952 H   0  0  0  0  0  0  0  0  0  0  0  0
    9.8191    6.5389   10.2165 C   0  0  0  0  0  0  0  0  0  0  0  0
   10.3246    7.4615   10.5091 H   0  0  0  0  0  0  0  0  0  0  0  0
   10.3594    5.7006   10.6595 H   0  0  0  0  0  0  0  0  0  0  0  0
    9.7264    1.1983   10.4545 Cl  0  0  0  0  0  0  0  0  0  0  0  0
    6.4079    0.4720    8.2060 Cl  0  0  0  0  0  0  0  0  0  0  0  0
    6.6764    2.3521   10.8007 N   0  0  0  0  0  0  0  0  0  0  0  0
    7.0379    3.7729    8.4409 N   0  0  1  0  0  4  0  0  0  0  0  0
    9.0344    2.1449    7.3919 N   0  0  0  0  0  0  0  0  0  0  0  0
    7.9761    1.8053    9.2067 Zn  0  0  0  0  0  0  0  0  0  0  0  0
  1  2  1  0  0  0  0
  1  3  1  0  0  0  0
  3  4  1  0  0  0  0
  5  3  2  0  0  0  0
  5  6  1  0  0  0  0
  7  5  1  0  0  0  0
  8  7  1  0  0  0  0
  9 52  1  0  0  0  0
  9  7  2  0  0  0  0
 10  9  1  0  0  0  0
 11 10  1  0  0  0  0
 12 10  1  0  0  0  0
 14 13  1  0  0  0  0
 15 13  1  0  0  0  0
 16 17  1  6  0  0  0
 16 13  1  0  0  0  0
 16 54  1  0  0  0  0
 18 17  1  0  0  0  0
 19 17  2  0  0  0  0
 19 21  1  0  0  0  0
 20 19  1  0  0  0  0
 21 23  2  0  0  0  0
 22 21  1  0  0  0  0
 23 54  1  0  0  0  0
 23 24  1  0  0  0  0
 25 26  1  6  0  0  0
 25 39  1  0  0  0  0
 26 27  1  0  0  0  0
 26 29  1  0  0  0  0
 28 26  1  0  0  0  0
 29 30  1  6  0  0  0
 29 44  1  0  0  0  0
 31 32  1  0  0  0  0
 31 29  1  0  0  0  0
 31 34  1  0  0  0  0
 33 31  1  0  0  0  0
 34 35  1  6  0  0  0
 34 47  1  0  0  0  0
 36 34  1  0  0  0  0
 36 38  1  0  0  0  0
 36 25  1  0  0  0  0
 37 36  1  0  0  0  0
 39 40  1  0  0  0  0
 39 42  1  0  0  0  0
 39 41  1  0  0  0  0
 42 43  1  1  0  0  0
 44 46  1  0  0  0  0
 44 45  1  0  0  0  0
 44 42  1  0  0  0  0
 47 48  1  0  0  0  0
 47 49  1  0  0  0  0
 47 42  1  0  0  0  0
 51 55  1  0  0  0  0
 52  1  1  0  0  0  0
 53 13  1  6  0  0  0
 53 25  1  0  0  0  0
 53 10  1  0  0  0  0
 53 55  1  0  0  0  0
 54 55  1  0  0  0  0
 55 50  1  0  0  0  0
 55 52  1  0  0  0  0
M  END
$$$$
