CSD_code = UTAWOC | q = 0 | S = 0 | Stoichiometry = C20H20ClN5O2Pt | MND = 4
 OpenBabel04212202103D

 49 53  0  0  1  0  0  0  0  0999 V2000
    7.1795    8.8786   15.3752 Pt  0  0  1  0  0  0  0  0  0  0  0  0
    8.6643    7.6842   16.8018 Cl  0  0  0  0  0  0  0  0  0  0  0  0
    8.8318    4.5592   11.5605 O   0  0  0  0  0  0  0  0  0  0  0  0
    6.1563    1.5392   13.6552 O   0  0  0  0  0  0  0  0  0  0  0  0
    6.2387    6.0746   15.0126 N   0  0  0  0  0  0  0  0  0  0  0  0
    7.7289    6.6243   13.5215 N   0  0  0  0  0  0  0  0  0  0  0  0
    6.0604    3.6656   14.4375 N   0  0  0  0  0  0  0  0  0  0  0  0
    7.4839    3.0586   12.6395 N   0  0  0  0  0  0  0  0  0  0  0  0
    7.4240   10.6623   16.2554 N   0  0  0  0  0  0  0  0  0  0  0  0
    6.9882    7.1079   14.5207 C   0  0  2  0  0  3  0  0  0  0  0  0
    6.5354    4.9378   14.3198 C   0  0  0  0  0  0  0  0  0  0  0  0
    6.5484    2.6817   13.5783 C   0  0  0  0  0  0  0  0  0  0  0  0
    8.0199    4.3354   12.4331 C   0  0  0  0  0  0  0  0  0  0  0  0
    7.4730    5.2785   13.3658 C   0  0  0  0  0  0  0  0  0  0  0  0
    5.3689    6.2717   16.1470 C   0  0  0  0  0  0  0  0  0  0  0  0
    4.3426    5.9906   15.9157 H   0  0  0  0  0  0  0  0  0  0  0  0
    5.4066    7.3441   16.3846 H   0  0  0  0  0  0  0  0  0  0  0  0
    5.7280    5.7179   17.0139 H   0  0  0  0  0  0  0  0  0  0  0  0
    8.6877    7.3861   12.7707 C   0  0  0  0  0  0  0  0  0  0  0  0
    8.6447    8.4209   13.1296 H   0  0  0  0  0  0  0  0  0  0  0  0
    8.4558    7.3414   11.7066 H   0  0  0  0  0  0  0  0  0  0  0  0
    9.6886    6.9823   12.9259 H   0  0  0  0  0  0  0  0  0  0  0  0
    5.0864    3.2566   15.4299 C   0  0  0  0  0  0  0  0  0  0  0  0
    5.4513    3.4587   16.4351 H   0  0  0  0  0  0  0  0  0  0  0  0
    4.9482    2.1825   15.3084 H   0  0  0  0  0  0  0  0  0  0  0  0
    4.1331    3.7573   15.2651 H   0  0  0  0  0  0  0  0  0  0  0  0
    7.9533    1.9867   11.7755 C   0  0  0  0  0  0  0  0  0  0  0  0
    8.4143    1.2034   12.3761 H   0  0  0  0  0  0  0  0  0  0  0  0
    8.6780    2.4155   11.0877 H   0  0  0  0  0  0  0  0  0  0  0  0
    7.1141    1.5586   11.2285 H   0  0  0  0  0  0  0  0  0  0  0  0
    5.9356    9.9508   14.2247 C   0  0  0  0  0  0  0  0  0  0  0  0
    5.1472    9.5398   13.1531 C   0  0  0  0  0  0  0  0  0  0  0  0
    5.1607    8.5039   12.8382 H   0  0  0  0  0  0  0  0  0  0  0  0
    4.3387   10.4326   12.4678 C   0  0  0  0  0  0  0  0  0  0  0  0
    3.7363   10.0874   11.6391 H   0  0  0  0  0  0  0  0  0  0  0  0
    4.2970   11.7674   12.8389 C   0  0  0  0  0  0  0  0  0  0  0  0
    3.6647   12.4602   12.3032 H   0  0  0  0  0  0  0  0  0  0  0  0
    5.0665   12.2098   13.8963 C   0  0  0  0  0  0  0  0  0  0  0  0
    5.0279   13.2515   14.1797 H   0  0  0  0  0  0  0  0  0  0  0  0
    5.8815   11.3149   14.5873 C   0  0  0  0  0  0  0  0  0  0  0  0
    6.7269   11.6887   15.7165 C   0  0  0  0  0  0  0  0  0  0  0  0
    6.8486   12.9747   16.2406 C   0  0  0  0  0  0  0  0  0  0  0  0
    6.2933   13.7885   15.8035 H   0  0  0  0  0  0  0  0  0  0  0  0
    7.6831   13.2030   17.3182 C   0  0  0  0  0  0  0  0  0  0  0  0
    7.7845   14.1957   17.7309 H   0  0  0  0  0  0  0  0  0  0  0  0
    8.3853   12.1360   17.8586 C   0  0  0  0  0  0  0  0  0  0  0  0
    9.0457   12.2674   18.7003 H   0  0  0  0  0  0  0  0  0  0  0  0
    8.2245   10.8840   17.2926 C   0  0  0  0  0  0  0  0  0  0  0  0
    8.7553   10.0241   17.6827 H   0  0  0  0  0  0  0  0  0  0  0  0
  1  9  1  0  0  0  0
  1  2  1  1  0  0  0
  3 13  2  0  0  0  0
  5 15  1  0  0  0  0
  7 23  1  0  0  0  0
  8 12  1  0  0  0  0
  9 48  1  0  0  0  0
 10  6  1  1  0  0  0
 10  5  1  0  0  0  0
 10  1  1  0  0  0  0
 11  7  1  0  0  0  0
 11  5  1  0  0  0  0
 12  4  2  0  0  0  0
 12  7  1  0  0  0  0
 13  8  1  0  0  0  0
 13 14  1  0  0  0  0
 14  6  1  0  0  0  0
 14 11  2  0  0  0  0
 15 17  1  0  0  0  0
 15 18  1  0  0  0  0
 16 15  1  0  0  0  0
 19 22  1  0  0  0  0
 19 20  1  0  0  0  0
 19  6  1  0  0  0  0
 21 19  1  0  0  0  0
 23 24  1  0  0  0  0
 25 23  1  0  0  0  0
 26 23  1  0  0  0  0
 27 28  1  0  0  0  0
 27  8  1  0  0  0  0
 29 27  1  0  0  0  0
 30 27  1  0  0  0  0
 31 40  1  0  0  0  0
 31  1  2  0  0  0  0
 32 31  1  0  0  0  0
 33 32  1  0  0  0  0
 34 36  1  0  0  0  0
 34 32  2  0  0  0  0
 35 34  1  0  0  0  0
 36 38  2  0  0  0  0
 37 36  1  0  0  0  0
 38 39  1  0  0  0  0
 38 40  1  0  0  0  0
 40 41  2  0  0  0  0
 41 42  1  0  0  0  0
 41  9  1  0  0  0  0
 42 44  2  0  0  0  0
 43 42  1  0  0  0  0
 44 45  1  0  0  0  0
 44 46  1  0  0  0  0
 46 47  1  0  0  0  0
 48 49  1  0  0  0  0
 48 46  2  0  0  0  0
M  END
$$$$
