CSD_code = UTISIB | q = 0 | S = 0 | Stoichiometry = C24H37BrFeN4Si2 | MND = 4
 OpenBabel04212202103D

 69 72  0  0  1  0  0  0  0  0999 V2000
    1.2239    6.7210    5.7821 Fe  0  0  1  0  0  0  0  0  0  0  0  0
    0.9607    5.4097    7.6237 Br  0  0  0  0  0  0  0  0  0  0  0  0
    2.3877    5.9041    3.5773 Si  0  0  0  0  0  0  0  0  0  0  0  0
    2.1621    8.9878    3.4478 Si  0  0  0  0  0  0  0  0  0  0  0  0
   -1.5920    7.2998    5.0208 N   0  0  0  0  0  0  0  0  0  0  0  0
   -0.8530    8.4637    6.6618 N   0  0  0  0  0  0  0  0  0  0  0  0
    1.9634    8.1191    6.7303 N   0  0  0  0  0  0  0  0  0  0  0  0
    1.7426    7.4313    4.0327 N   0  0  0  0  0  0  0  0  0  0  0  0
   -0.5141    7.4669    5.8178 C   0  0  2  0  0  3  0  0  0  0  0  0
   -2.5728    8.2041    5.3482 C   0  0  0  0  0  0  0  0  0  0  0  0
   -3.5099    8.2363    4.8310 H   0  0  0  0  0  0  0  0  0  0  0  0
   -2.1080    8.9361    6.3828 C   0  0  0  0  0  0  0  0  0  0  0  0
   -2.5618    9.7339    6.9339 H   0  0  0  0  0  0  0  0  0  0  0  0
   -0.0977    8.8289    7.8268 C   0  0  0  0  0  0  0  0  0  0  0  0
   -0.2114    8.0324    8.5784 H   0  0  0  0  0  0  0  0  0  0  0  0
   -0.5081    9.7535    8.2378 H   0  0  0  0  0  0  0  0  0  0  0  0
    1.3736    8.9908    7.5651 C   0  0  1  0  0  3  0  0  0  0  0  0
    2.0844    9.9625    8.2489 C   0  0  0  0  0  0  0  0  0  0  0  0
    1.5600   10.6419    8.9030 H   0  0  0  0  0  0  0  0  0  0  0  0
    3.4602   10.0455    8.1042 C   0  0  0  0  0  0  0  0  0  0  0  0
    4.0317   10.7899    8.6342 H   0  0  0  0  0  0  0  0  0  0  0  0
    4.0730    9.1287    7.2601 C   0  0  0  0  0  0  0  0  0  0  0  0
    5.1418    9.1306    7.1170 H   0  0  0  0  0  0  0  0  0  0  0  0
    3.2947    8.2078    6.5960 C   0  0  0  0  0  0  0  0  0  0  0  0
    3.7388    7.4985    5.9158 H   0  0  0  0  0  0  0  0  0  0  0  0
   -1.8468    6.2586    4.0879 C   0  0  0  0  0  0  0  0  0  0  0  0
   -2.3165    5.0333    4.5624 C   0  0  0  0  0  0  0  0  0  0  0  0
   -2.6084    4.0395    3.6385 C   0  0  0  0  0  0  0  0  0  0  0  0
   -2.9616    3.0828    3.9945 H   0  0  0  0  0  0  0  0  0  0  0  0
   -2.4614    4.2486    2.2757 C   0  0  0  0  0  0  0  0  0  0  0  0
   -2.0280    5.4920    1.8331 C   0  0  0  0  0  0  0  0  0  0  0  0
   -1.9260    5.6709    0.7723 H   0  0  0  0  0  0  0  0  0  0  0  0
   -1.7242    6.5098    2.7228 C   0  0  0  0  0  0  0  0  0  0  0  0
   -2.5129    4.8019    6.0274 C   0  0  0  0  0  0  0  0  0  0  0  0
   -2.9731    3.8339    6.2031 H   0  0  0  0  0  0  0  0  0  0  0  0
   -3.1495    5.5743    6.4581 H   0  0  0  0  0  0  0  0  0  0  0  0
   -1.5619    4.8277    6.5574 H   0  0  0  0  0  0  0  0  0  0  0  0
   -1.2666    7.8515    2.2573 C   0  0  0  0  0  0  0  0  0  0  0  0
   -0.3177    8.0875    2.7332 H   0  0  0  0  0  0  0  0  0  0  0  0
   -1.9856    8.6232    2.5315 H   0  0  0  0  0  0  0  0  0  0  0  0
   -1.1402    7.8653    1.1789 H   0  0  0  0  0  0  0  0  0  0  0  0
   -2.7826    3.1688    1.2876 C   0  0  0  0  0  0  0  0  0  0  0  0
   -2.9749    2.2249    1.7905 H   0  0  0  0  0  0  0  0  0  0  0  0
   -1.9580    3.0329    0.5900 H   0  0  0  0  0  0  0  0  0  0  0  0
   -3.6660    3.4386    0.7092 H   0  0  0  0  0  0  0  0  0  0  0  0
    1.1148   10.2854    4.3776 C   0  0  0  0  0  0  0  0  0  0  0  0
    0.0933    9.9487    4.5090 H   0  0  0  0  0  0  0  0  0  0  0  0
    1.0878   11.2190    3.8260 H   0  0  0  0  0  0  0  0  0  0  0  0
    1.5215   10.4985    5.3593 H   0  0  0  0  0  0  0  0  0  0  0  0
    4.0143    9.4492    3.6462 C   0  0  0  0  0  0  0  0  0  0  0  0
    4.6504    8.5953    3.4318 H   0  0  0  0  0  0  0  0  0  0  0  0
    4.2507    9.7958    4.6466 H   0  0  0  0  0  0  0  0  0  0  0  0
    4.2905   10.2402    2.9556 H   0  0  0  0  0  0  0  0  0  0  0  0
    1.8074    9.1773    1.5728 C   0  0  0  0  0  0  0  0  0  0  0  0
    1.6011    8.2235    1.1040 H   0  0  0  0  0  0  0  0  0  0  0  0
    2.6640    9.6095    1.0662 H   0  0  0  0  0  0  0  0  0  0  0  0
    0.9594    9.8281    1.3869 H   0  0  0  0  0  0  0  0  0  0  0  0
    3.8500    5.3088    4.6859 C   0  0  0  0  0  0  0  0  0  0  0  0
    3.5541    5.2325    5.7328 H   0  0  0  0  0  0  0  0  0  0  0  0
    4.7125    5.9674    4.6270 H   0  0  0  0  0  0  0  0  0  0  0  0
    4.1849    4.3202    4.3841 H   0  0  0  0  0  0  0  0  0  0  0  0
    1.0162    4.6034    3.8929 C   0  0  0  0  0  0  0  0  0  0  0  0
    0.4196    4.8739    4.7698 H   0  0  0  0  0  0  0  0  0  0  0  0
    1.4309    3.6167    4.0719 H   0  0  0  0  0  0  0  0  0  0  0  0
    0.3258    4.5291    3.0611 H   0  0  0  0  0  0  0  0  0  0  0  0
    2.9736    5.7945    1.7723 C   0  0  0  0  0  0  0  0  0  0  0  0
    3.6609    6.5986    1.5394 H   0  0  0  0  0  0  0  0  0  0  0  0
    2.1375    5.8614    1.0864 H   0  0  0  0  0  0  0  0  0  0  0  0
    3.4801    4.8539    1.5856 H   0  0  0  0  0  0  0  0  0  0  0  0
  1  9  1  0  0  0  0
  1  7  1  0  0  0  0
  1  2  1  1  0  0  0
  3 62  1  0  0  0  0
  3  8  1  0  0  0  0
  3 58  1  0  0  0  0
  4 50  1  0  0  0  0
  4  8  1  0  0  0  0
  4 46  1  0  0  0  0
  5 10  1  0  0  0  0
  6 14  1  0  0  0  0
  7 17  1  0  0  0  0
  8  1  1  0  0  0  0
  9  5  1  6  0  0  0
  9  6  1  0  0  0  0
 10 12  2  0  0  0  0
 11 10  1  0  0  0  0
 12  6  1  0  0  0  0
 12 13  1  0  0  0  0
 14 16  1  0  0  0  0
 14 15  1  0  0  0  0
 17 14  1  0  0  0  0
 17 18  1  1  0  0  0
 18 19  1  0  0  0  0
 20 18  2  0  0  0  0
 20 21  1  0  0  0  0
 22 20  1  0  0  0  0
 23 22  1  0  0  0  0
 24  7  1  0  0  0  0
 24 22  2  0  0  0  0
 25 24  1  0  0  0  0
 26 27  1  0  0  0  0
 26  5  1  0  0  0  0
 27 34  1  0  0  0  0
 28 29  1  0  0  0  0
 28 27  2  0  0  0  0
 30 28  1  0  0  0  0
 31 30  2  0  0  0  0
 31 33  1  0  0  0  0
 32 31  1  0  0  0  0
 33 26  2  0  0  0  0
 34 35  1  0  0  0  0
 34 36  1  0  0  0  0
 34 37  1  0  0  0  0
 38 40  1  0  0  0  0
 38 33  1  0  0  0  0
 38 39  1  0  0  0  0
 41 38  1  0  0  0  0
 42 43  1  0  0  0  0
 42 30  1  0  0  0  0
 44 42  1  0  0  0  0
 45 42  1  0  0  0  0
 46 47  1  0  0  0  0
 46 49  1  0  0  0  0
 48 46  1  0  0  0  0
 50 52  1  0  0  0  0
 51 50  1  0  0  0  0
 53 50  1  0  0  0  0
 54  4  1  0  0  0  0
 55 54  1  0  0  0  0
 56 54  1  0  0  0  0
 57 54  1  0  0  0  0
 58 59  1  0  0  0  0
 60 58  1  0  0  0  0
 61 58  1  0  0  0  0
 62 64  1  0  0  0  0
 62 63  1  0  0  0  0
 65 62  1  0  0  0  0
 66  3  1  0  0  0  0
 67 66  1  0  0  0  0
 68 66  1  0  0  0  0
 69 66  1  0  0  0  0
M  END
$$$$
