CSD_code = UTIXUS | q = 0 | S = 0 | Stoichiometry = C21H37I2N3O2P2W | MND = 7
 OpenBabel04212202103D

 68 70  0  0  1  0  0  0  0  0999 V2000
   13.9492   11.7394    8.0158 W   0  0  0  0  0  0  0  0  0  0  0  0
   13.7604   14.4260    8.9649 I   0  0  0  0  0  0  0  0  0  0  0  0
   16.7566   12.1880    8.3430 I   0  0  0  0  0 15  0  0  0  0  0  0
   14.0734   12.5674    5.8779 N   0  0  0  0  0  0  0  0  0  0  0  0
   11.7045   12.4333    7.2760 P   0  0  0  0  0  4  0  0  0  0  0  0
   14.9727   10.0711    6.5198 P   0  0  0  0  0  4  0  0  0  0  0  0
   12.0825   13.7240    6.1753 N   0  0  0  0  0  0  0  0  0  0  0  0
   15.7811   11.0855    5.3629 N   0  0  0  0  0  0  0  0  0  0  0  0
   12.4238    9.2708    9.2271 O   0  0  0  0  0  0  0  0  0  0  0  0
   14.0348   10.9239   11.0608 O   0  0  0  0  0  0  0  0  0  0  0  0
   13.3214   13.6525    5.5836 C   0  0  2  0  0  3  0  0  0  0  0  0
   13.7800   14.6211    4.6888 C   0  0  0  0  0  0  0  0  0  0  0  0
   14.9983   14.4215    4.0673 C   0  0  0  0  0  0  0  0  0  0  0  0
   15.7065   13.2522    4.2693 C   0  0  0  0  0  0  0  0  0  0  0  0
   15.1999   12.3159    5.1722 C   0  0  0  0  0  0  0  0  0  0  0  0
   10.7636   11.3256    6.0755 C   0  0  0  0  0  0  0  0  0  0  0  0
    9.7886   11.9982    5.1119 C   0  0  0  0  0  0  0  0  0  0  0  0
   10.1222   10.1353    6.7808 C   0  0  0  0  0  0  0  0  0  0  0  0
   10.4787   13.1391    8.5041 C   0  0  0  0  0  0  0  0  0  0  0  0
    9.0048   13.2312    8.1134 C   0  0  0  0  0  0  0  0  0  0  0  0
   10.6110   12.2976    9.7758 C   0  0  0  0  0  0  0  0  0  0  0  0
   13.8564    9.1567    5.3071 C   0  0  0  0  0  0  0  0  0  0  0  0
   14.4774    8.6598    4.0035 C   0  0  0  0  0  0  0  0  0  0  0  0
   13.0525    8.0625    5.9998 C   0  0  0  0  0  0  0  0  0  0  0  0
   16.2596    8.8709    7.1552 C   0  0  0  0  0  0  0  0  0  0  0  0
   16.6061    7.6510    6.3048 C   0  0  0  0  0  0  0  0  0  0  0  0
   15.7758    8.4124    8.5328 C   0  0  0  0  0  0  0  0  0  0  0  0
   11.3538   14.9764    6.0871 C   0  0  0  0  0  0  0  0  0  0  0  0
   17.1209   10.8697    4.8486 C   0  0  0  0  0  0  0  0  0  0  0  0
   13.0108   10.2061    8.7911 C   0  0  0  0  0  0  0  0  0  0  0  0
   13.9835   11.2034    9.9243 C   0  0  0  0  0  0  0  0  0  0  0  0
   13.2133   15.5123    4.4939 H   0  0  0  0  0  0  0  0  0  0  0  0
   15.3856   15.1725    3.3968 H   0  0  0  0  0  0  0  0  0  0  0  0
   16.6308   13.0806    3.7498 H   0  0  0  0  0  0  0  0  0  0  0  0
   11.5962   10.9455    5.4628 H   0  0  0  0  0  0  0  0  0  0  0  0
   10.2238   12.8873    4.6618 H   0  0  0  0  0  0  0  0  0  0  0  0
    9.5498   11.3006    4.3094 H   0  0  0  0  0  0  0  0  0  0  0  0
    8.8571   12.2674    5.5988 H   0  0  0  0  0  0  0  0  0  0  0  0
   10.7820    9.7245    7.5406 H   0  0  0  0  0  0  0  0  0  0  0  0
    9.1873   10.4169    7.2579 H   0  0  0  0  0  0  0  0  0  0  0  0
    9.9011    9.3489    6.0607 H   0  0  0  0  0  0  0  0  0  0  0  0
   10.8445   14.1488    8.7289 H   0  0  0  0  0  0  0  0  0  0  0  0
    8.8392   13.7674    7.1825 H   0  0  0  0  0  0  0  0  0  0  0  0
    8.5534   12.2460    8.0361 H   0  0  0  0  0  0  0  0  0  0  0  0
    8.4789   13.7708    8.9006 H   0  0  0  0  0  0  0  0  0  0  0  0
   11.6242   12.3393   10.1779 H   0  0  0  0  0  0  0  0  0  0  0  0
    9.9382   12.6793   10.5414 H   0  0  0  0  0  0  0  0  0  0  0  0
   10.3565   11.2549    9.5893 H   0  0  0  0  0  0  0  0  0  0  0  0
   13.1640    9.9688    5.0311 H   0  0  0  0  0  0  0  0  0  0  0  0
   15.1473    9.4006    3.5733 H   0  0  0  0  0  0  0  0  0  0  0  0
   15.0191    7.7299    4.1411 H   0  0  0  0  0  0  0  0  0  0  0  0
   13.6813    8.4720    3.2832 H   0  0  0  0  0  0  0  0  0  0  0  0
   12.6883    8.3979    6.9676 H   0  0  0  0  0  0  0  0  0  0  0  0
   12.1951    7.7818    5.3900 H   0  0  0  0  0  0  0  0  0  0  0  0
   13.6549    7.1707    6.1531 H   0  0  0  0  0  0  0  0  0  0  0  0
   17.1686    9.4677    7.3005 H   0  0  0  0  0  0  0  0  0  0  0  0
   16.9030    7.9084    5.2914 H   0  0  0  0  0  0  0  0  0  0  0  0
   17.4444    7.1364    6.7735 H   0  0  0  0  0  0  0  0  0  0  0  0
   15.7762    6.9508    6.2622 H   0  0  0  0  0  0  0  0  0  0  0  0
   15.6668    9.2554    9.2166 H   0  0  0  0  0  0  0  0  0  0  0  0
   14.8186    7.8968    8.4656 H   0  0  0  0  0  0  0  0  0  0  0  0
   16.5007    7.7273    8.9686 H   0  0  0  0  0  0  0  0  0  0  0  0
   10.4367   14.8998    6.6594 H   0  0  0  0  0  0  0  0  0  0  0  0
   11.9481   15.7982    6.4962 H   0  0  0  0  0  0  0  0  0  0  0  0
   11.0935   15.1999    5.0495 H   0  0  0  0  0  0  0  0  0  0  0  0
   17.4738    9.8934    5.1609 H   0  0  0  0  0  0  0  0  0  0  0  0
   17.1263   10.9052    3.7562 H   0  0  0  0  0  0  0  0  0  0  0  0
   17.8098   11.6242    5.2382 H   0  0  0  0  0  0  0  0  0  0  0  0
  1 30  1  0  0  0  0
  1  2  1  0  0  0  0
  1 31  1  0  0  0  0
  4  1  1  0  0  0  0
  5  1  1  0  0  0  0
  5 19  1  0  0  0  0
  6 25  1  0  0  0  0
  6  1  1  0  0  0  0
  7  5  1  0  0  0  0
  8  6  1  0  0  0  0
 11 12  1  6  0  0  0
 11  4  1  0  0  0  0
 11  7  1  0  0  0  0
 13 14  1  0  0  0  0
 13 12  2  0  0  0  0
 14 15  2  0  0  0  0
 15  8  1  0  0  0  0
 15  4  1  0  0  0  0
 16 18  1  0  0  0  0
 16  5  1  0  0  0  0
 17 38  1  0  0  0  0
 17 16  1  0  0  0  0
 18 40  1  0  0  0  0
 18 39  1  0  0  0  0
 19 42  1  0  0  0  0
 19 21  1  0  0  0  0
 20 19  1  0  0  0  0
 20 45  1  0  0  0  0
 21 46  1  0  0  0  0
 21 47  1  0  0  0  0
 22 24  1  0  0  0  0
 22  6  1  0  0  0  0
 23 51  1  0  0  0  0
 23 22  1  0  0  0  0
 24 55  1  0  0  0  0
 24 53  1  0  0  0  0
 25 56  1  0  0  0  0
 25 27  1  0  0  0  0
 26 58  1  0  0  0  0
 26 25  1  0  0  0  0
 27 62  1  0  0  0  0
 27 60  1  0  0  0  0
 28  7  1  0  0  0  0
 28 64  1  0  0  0  0
 28 63  1  0  0  0  0
 29 66  1  0  0  0  0
 29 68  1  0  0  0  0
 29  8  1  0  0  0  0
 30  9  2  0  0  0  0
 30 31  1  0  0  0  0
 31 10  2  0  0  0  0
 32 12  1  0  0  0  0
 33 13  1  0  0  0  0
 34 14  1  0  0  0  0
 35 16  1  0  0  0  0
 36 17  1  0  0  0  0
 37 17  1  0  0  0  0
 41 18  1  0  0  0  0
 43 20  1  0  0  0  0
 44 20  1  0  0  0  0
 48 21  1  0  0  0  0
 49 22  1  0  0  0  0
 50 23  1  0  0  0  0
 52 23  1  0  0  0  0
 54 24  1  0  0  0  0
 57 26  1  0  0  0  0
 59 26  1  0  0  0  0
 61 27  1  0  0  0  0
 65 28  1  0  0  0  0
 67 29  1  0  0  0  0
M  END
$$$$
