CSD_code = UTOGOA | q = 0 | S = 0 | Stoichiometry = C14H32Cl2NiP2 | MND = 4
 OpenBabel04212202103D

 51 51  0  0  0  0  0  0  0  0999 V2000
    7.9474    4.0096    7.4461 C   0  0  0  0  0  0  0  0  0  0  0  0
    7.0470    3.4302    7.2022 H   0  0  0  0  0  0  0  0  0  0  0  0
    8.2545    4.9896    6.3183 C   0  0  0  0  0  0  0  0  0  0  0  0
    7.4985    5.7733    6.3020 H   0  0  0  0  0  0  0  0  0  0  0  0
    8.2528    4.5024    5.3464 H   0  0  0  0  0  0  0  0  0  0  0  0
    9.2261    5.4525    6.4797 H   0  0  0  0  0  0  0  0  0  0  0  0
    7.7307    4.7686    8.7542 C   0  0  0  0  0  0  0  0  0  0  0  0
    8.6782    5.2186    9.0758 H   0  0  0  0  0  0  0  0  0  0  0  0
    7.3755    4.1044    9.5393 H   0  0  0  0  0  0  0  0  0  0  0  0
    7.0025    5.5677    8.6265 H   0  0  0  0  0  0  0  0  0  0  0  0
    9.8648    2.2659    6.0515 C   0  0  0  0  0  0  0  0  0  0  0  0
   10.1268    3.2011    5.5444 H   0  0  0  0  0  0  0  0  0  0  0  0
    8.7594    1.5475    5.2850 C   0  0  0  0  0  0  0  0  0  0  0  0
    9.0794    1.3816    4.2577 H   0  0  0  0  0  0  0  0  0  0  0  0
    7.8416    2.1305    5.2630 H   0  0  0  0  0  0  0  0  0  0  0  0
    8.5423    0.5771    5.7267 H   0  0  0  0  0  0  0  0  0  0  0  0
   11.1318    1.4205    6.1366 C   0  0  0  0  0  0  0  0  0  0  0  0
   10.9337    0.4468    6.5819 H   0  0  0  0  0  0  0  0  0  0  0  0
   11.8820    1.9385    6.7333 H   0  0  0  0  0  0  0  0  0  0  0  0
   11.5418    1.2569    5.1422 H   0  0  0  0  0  0  0  0  0  0  0  0
    8.4773    1.3088    8.4556 C   0  0  0  0  0  0  0  0  0  0  0  0
    7.4731    1.2156    8.0344 H   0  0  0  0  0  0  0  0  0  0  0  0
    9.0572    0.4404    8.1325 H   0  0  0  0  0  0  0  0  0  0  0  0
    9.3436    2.8087    7.7458 P   0  0  0  0  0  4  0  0  0  0  0  0
   11.8607    4.3232   10.7928 Cl  0  0  0  0  0  0  0  0  0  0  0  0
   10.6843    3.5632    9.2183 Ni  0  0  0  0  0  0  0  0  0  0  0  0
   11.1297    0.8274   10.9908 C   0  0  0  0  0  0  0  0  0  0  0  0
   10.5504   -0.0730   11.2347 H   0  0  0  0  0  0  0  0  0  0  0  0
   12.1098    1.1343   12.1187 C   0  0  0  0  0  0  0  0  0  0  0  0
   12.8934    0.3782   12.1351 H   0  0  0  0  0  0  0  0  0  0  0  0
   11.6225    1.1326   13.0905 H   0  0  0  0  0  0  0  0  0  0  0  0
   12.5728    2.1059   11.9573 H   0  0  0  0  0  0  0  0  0  0  0  0
   11.8888    0.6106    9.6827 C   0  0  0  0  0  0  0  0  0  0  0  0
   12.3389    1.5582    9.3612 H   0  0  0  0  0  0  0  0  0  0  0  0
   11.2245    0.2555    8.8977 H   0  0  0  0  0  0  0  0  0  0  0  0
   12.6879   -0.1176    9.8103 H   0  0  0  0  0  0  0  0  0  0  0  0
    9.3861    2.7447   12.3856 C   0  0  0  0  0  0  0  0  0  0  0  0
   10.3212    3.0067   12.8927 H   0  0  0  0  0  0  0  0  0  0  0  0
    8.6676    1.6393   13.1519 C   0  0  0  0  0  0  0  0  0  0  0  0
    8.5016    1.9593   14.1793 H   0  0  0  0  0  0  0  0  0  0  0  0
    9.2505    0.7215   13.1739 H   0  0  0  0  0  0  0  0  0  0  0  0
    7.6972    1.4223   12.7102 H   0  0  0  0  0  0  0  0  0  0  0  0
    8.5406    4.0117   12.3003 C   0  0  0  0  0  0  0  0  0  0  0  0
    7.5669    3.8135   11.8550 H   0  0  0  0  0  0  0  0  0  0  0  0
    9.0586    4.7619   11.7036 H   0  0  0  0  0  0  0  0  0  0  0  0
    8.3769    4.4217   13.2947 H   0  0  0  0  0  0  0  0  0  0  0  0
    8.4290    1.3575    9.9810 C   0  0  0  0  0  0  0  0  0  0  0  0
    8.3357    0.3533   10.4022 H   0  0  0  0  0  0  0  0  0  0  0  0
    7.5606    1.9374   10.3041 H   0  0  0  0  0  0  0  0  0  0  0  0
    9.9288    2.2235   10.6913 P   0  0  0  0  0  4  0  0  0  0  0  0
   11.4427    4.7407    7.6438 Cl  0  0  0  0  0  0  0  0  0  0  0  0
  1 24  1  0  0  0  0
  1  7  1  0  0  0  0
  2  1  1  0  0  0  0
  3  6  1  0  0  0  0
  3  1  1  0  0  0  0
  4  3  1  0  0  0  0
  5  3  1  0  0  0  0
  7  8  1  0  0  0  0
  7  9  1  0  0  0  0
 10  7  1  0  0  0  0
 11 17  1  0  0  0  0
 11 24  1  0  0  0  0
 12 11  1  0  0  0  0
 13 16  1  0  0  0  0
 13 11  1  0  0  0  0
 14 13  1  0  0  0  0
 15 13  1  0  0  0  0
 17 18  1  0  0  0  0
 17 19  1  0  0  0  0
 20 17  1  0  0  0  0
 21 47  1  0  0  0  0
 22 21  1  0  0  0  0
 23 21  1  0  0  0  0
 24 21  1  0  0  0  0
 24 26  1  0  0  0  0
 26 50  1  0  0  0  0
 26 25  1  0  0  0  0
 27 28  1  0  0  0  0
 27 29  1  0  0  0  0
 29 30  1  0  0  0  0
 29 31  1  0  0  0  0
 32 29  1  0  0  0  0
 33 36  1  0  0  0  0
 33 27  1  0  0  0  0
 34 33  1  0  0  0  0
 35 33  1  0  0  0  0
 37 38  1  0  0  0  0
 37 39  1  0  0  0  0
 39 41  1  0  0  0  0
 39 40  1  0  0  0  0
 42 39  1  0  0  0  0
 43 37  1  0  0  0  0
 43 46  1  0  0  0  0
 44 43  1  0  0  0  0
 45 43  1  0  0  0  0
 47 49  1  0  0  0  0
 47 48  1  0  0  0  0
 47 50  1  0  0  0  0
 50 27  1  0  0  0  0
 50 37  1  0  0  0  0
 51 26  1  0  0  0  0
M  END
$$$$
