CSD_code = UVEXIE | q = 0 | S = 0 | Stoichiometry = C26H35I2N2PSi2Zr | MND = 5
 OpenBabel04212202103D

 69 71  0  0  0  0  0  0  0  0999 V2000
    7.3914   14.5262    5.4825 I   0  0  0  0  0 15  0  0  0  0  0  0
   10.3891   11.9002    5.1507 I   0  0  0  0  0 15  0  0  0  0  0  0
    8.4339   12.9033    3.3487 Zr  0  0  0  0  0  0  0  0  0  0  0  0
    6.3127   13.9678    2.0134 P   0  0  0  0  0  4  0  0  0  0  0  0
    7.8659    9.6291    2.7562 Si  0  0  0  0  0  0  0  0  0  0  0  0
   10.6409   14.3313    1.6194 Si  0  0  0  0  0  0  0  0  0  0  0  0
    7.3428   11.2085    3.2129 N   0  0  0  0  0  0  0  0  0  0  0  0
    9.2016   13.3973    1.4896 N   0  0  0  0  0  0  0  0  0  0  0  0
    5.1259   12.5210    2.0787 C   0  0  0  0  0  0  0  0  0  0  0  0
    4.1381   12.8235    1.7190 H   0  0  0  0  0  0  0  0  0  0  0  0
    5.5479   11.7497    1.4216 H   0  0  0  0  0  0  0  0  0  0  0  0
    5.0684   12.0139    3.4901 C   0  0  0  0  0  0  0  0  0  0  0  0
    6.2207   11.3998    4.0220 C   0  0  0  0  0  0  0  0  0  0  0  0
    6.2213   11.0156    5.3677 C   0  0  0  0  0  0  0  0  0  0  0  0
    7.1201   10.5738    5.7815 H   0  0  0  0  0  0  0  0  0  0  0  0
    5.1012   11.2032    6.1550 C   0  0  0  0  0  0  0  0  0  0  0  0
    5.1235   10.9115    7.1935 H   0  0  0  0  0  0  0  0  0  0  0  0
    3.9560   11.7656    5.6150 C   0  0  0  0  0  0  0  0  0  0  0  0
    3.0773   11.9016    6.2254 H   0  0  0  0  0  0  0  0  0  0  0  0
    3.9473   12.1721    4.2913 C   0  0  0  0  0  0  0  0  0  0  0  0
    3.0573   12.6209    3.8714 H   0  0  0  0  0  0  0  0  0  0  0  0
    6.7004   13.9766    0.2069 C   0  0  0  0  0  0  0  0  0  0  0  0
    5.7720   13.9900   -0.3744 H   0  0  0  0  0  0  0  0  0  0  0  0
    7.2603   14.9010    0.0121 H   0  0  0  0  0  0  0  0  0  0  0  0
    7.5670   12.8214   -0.2046 C   0  0  0  0  0  0  0  0  0  0  0  0
    8.8437   12.6537    0.3754 C   0  0  0  0  0  0  0  0  0  0  0  0
    9.7256   11.7577   -0.2399 C   0  0  0  0  0  0  0  0  0  0  0  0
   10.7407   11.6989    0.1256 H   0  0  0  0  0  0  0  0  0  0  0  0
    9.3257   10.9654   -1.2969 C   0  0  0  0  0  0  0  0  0  0  0  0
   10.0269   10.2752   -1.7420 H   0  0  0  0  0  0  0  0  0  0  0  0
    8.0336   11.0552   -1.7853 C   0  0  0  0  0  0  0  0  0  0  0  0
    7.7074   10.4231   -2.5966 H   0  0  0  0  0  0  0  0  0  0  0  0
    7.1756   12.0018   -1.2515 C   0  0  0  0  0  0  0  0  0  0  0  0
    6.1883   12.1265   -1.6763 H   0  0  0  0  0  0  0  0  0  0  0  0
    5.1489   15.3705    2.1777 C   0  0  0  0  0  0  0  0  0  0  0  0
    5.0461   16.3912    1.2374 C   0  0  0  0  0  0  0  0  0  0  0  0
    5.6406   16.3749    0.3363 H   0  0  0  0  0  0  0  0  0  0  0  0
    4.1737   17.4450    1.4467 C   0  0  0  0  0  0  0  0  0  0  0  0
    4.0974   18.2282    0.7068 H   0  0  0  0  0  0  0  0  0  0  0  0
    3.4071   17.5010    2.5981 C   0  0  0  0  0  0  0  0  0  0  0  0
    2.7315   18.3276    2.7578 H   0  0  0  0  0  0  0  0  0  0  0  0
    3.5195   16.4991    3.5483 C   0  0  0  0  0  0  0  0  0  0  0  0
    2.9381   16.5429    4.4564 H   0  0  0  0  0  0  0  0  0  0  0  0
    4.3891   15.4449    3.3448 C   0  0  0  0  0  0  0  0  0  0  0  0
    4.4834   14.6771    4.0992 H   0  0  0  0  0  0  0  0  0  0  0  0
    9.7128    9.8010    2.2805 C   0  0  0  0  0  0  0  0  0  0  0  0
   10.0050   10.8473    2.1633 H   0  0  0  0  0  0  0  0  0  0  0  0
    9.9056    9.2955    1.3400 H   0  0  0  0  0  0  0  0  0  0  0  0
   10.3596    9.3511    3.0284 H   0  0  0  0  0  0  0  0  0  0  0  0
    6.8611    9.0421    1.2324 C   0  0  0  0  0  0  0  0  0  0  0  0
    5.7992    8.9865    1.4543 H   0  0  0  0  0  0  0  0  0  0  0  0
    7.1817    8.0521    0.9277 H   0  0  0  0  0  0  0  0  0  0  0  0
    6.9941    9.7046    0.3813 H   0  0  0  0  0  0  0  0  0  0  0  0
    7.6888    8.2967    4.1192 C   0  0  0  0  0  0  0  0  0  0  0  0
    8.3462    8.4819    4.9642 H   0  0  0  0  0  0  0  0  0  0  0  0
    7.9349    7.3166    3.7237 H   0  0  0  0  0  0  0  0  0  0  0  0
    6.6703    8.2534    4.4934 H   0  0  0  0  0  0  0  0  0  0  0  0
   12.3030   13.4150    1.9229 C   0  0  0  0  0  0  0  0  0  0  0  0
   12.2072   12.5496    2.5759 H   0  0  0  0  0  0  0  0  0  0  0  0
   13.0280   14.0811    2.3817 H   0  0  0  0  0  0  0  0  0  0  0  0
   12.7335   13.0714    0.9859 H   0  0  0  0  0  0  0  0  0  0  0  0
   10.8535   15.4463    0.0829 C   0  0  0  0  0  0  0  0  0  0  0  0
   10.8320   14.8504   -0.8241 H   0  0  0  0  0  0  0  0  0  0  0  0
   11.8010   15.9720    0.1111 H   0  0  0  0  0  0  0  0  0  0  0  0
   10.0653   16.1890    0.0079 H   0  0  0  0  0  0  0  0  0  0  0  0
   10.2188   15.4137    3.1564 C   0  0  0  0  0  0  0  0  0  0  0  0
    9.1853   15.7796    3.1247 H   0  0  0  0  0  0  0  0  0  0  0  0
   10.8558   16.2943    3.1654 H   0  0  0  0  0  0  0  0  0  0  0  0
   10.4005   14.9055    4.1090 H   0  0  0  0  0  0  0  0  0  0  0  0
  4  9  1  0  0  0  0
  4 35  1  0  0  0  0
  4  3  1  0  0  0  0
  5  7  1  0  0  0  0
  5 54  1  0  0  0  0
  6 58  1  0  0  0  0
  6 66  1  0  0  0  0
  7  3  1  0  0  0  0
  7 13  1  0  0  0  0
  8  6  1  0  0  0  0
  8  3  1  0  0  0  0
  9 12  1  0  0  0  0
 10  9  1  0  0  0  0
 11  9  1  0  0  0  0
 12 13  2  0  0  0  0
 12 20  1  0  0  0  0
 13 14  1  0  0  0  0
 14 15  1  0  0  0  0
 14 16  2  0  0  0  0
 16 17  1  0  0  0  0
 18 16  1  0  0  0  0
 18 19  1  0  0  0  0
 20 18  2  0  0  0  0
 21 20  1  0  0  0  0
 22  4  1  0  0  0  0
 23 22  1  0  0  0  0
 24 22  1  0  0  0  0
 25 22  1  0  0  0  0
 25 26  1  0  0  0  0
 26  8  1  0  0  0  0
 27 28  1  0  0  0  0
 27 26  2  0  0  0  0
 29 27  1  0  0  0  0
 30 29  1  0  0  0  0
 31 29  2  0  0  0  0
 31 33  1  0  0  0  0
 32 31  1  0  0  0  0
 33 25  2  0  0  0  0
 34 33  1  0  0  0  0
 35 44  1  0  0  0  0
 36 38  1  0  0  0  0
 36 35  2  0  0  0  0
 37 36  1  0  0  0  0
 38 40  2  0  0  0  0
 39 38  1  0  0  0  0
 40 41  1  0  0  0  0
 40 42  1  0  0  0  0
 42 43  1  0  0  0  0
 44 42  2  0  0  0  0
 44 45  1  0  0  0  0
 46  5  1  0  0  0  0
 46 49  1  0  0  0  0
 47 46  1  0  0  0  0
 48 46  1  0  0  0  0
 50 51  1  0  0  0  0
 50  5  1  0  0  0  0
 52 50  1  0  0  0  0
 53 50  1  0  0  0  0
 54 57  1  0  0  0  0
 54 55  1  0  0  0  0
 56 54  1  0  0  0  0
 58 60  1  0  0  0  0
 58 59  1  0  0  0  0
 61 58  1  0  0  0  0
 62 64  1  0  0  0  0
 62  6  1  0  0  0  0
 63 62  1  0  0  0  0
 65 62  1  0  0  0  0
 66 68  1  0  0  0  0
 66 69  1  0  0  0  0
 67 66  1  0  0  0  0
M  END
$$$$
