CSD_code = UVIKIV | q = 0 | S = 0 | Stoichiometry = C14H15ClN2Pd | MND = 4
 OpenBabel04212202103D

 33 35  0  0  0  0  0  0  0  0999 V2000
    7.8802    7.8397   13.6612 Pd  0  0  1  0  0  0  0  0  0  0  0  0
    9.5071    7.6090   15.1097 Cl  0  0  0  0  0  0  0  0  0  0  0  0
    6.2682    7.6215   15.1266 N   0  0  0  0  0  0  0  0  0  0  0  0
    6.2752    8.1632   12.5422 N   0  0  0  0  0  0  0  0  0  0  0  0
    9.2883    7.8053   12.1616 C   0  0  0  0  0  0  0  0  0  0  0  0
   10.1228    7.1510   12.4326 H   0  0  0  0  0  0  0  0  0  0  0  0
    8.8515    7.4519   11.2186 H   0  0  0  0  0  0  0  0  0  0  0  0
    9.6838    8.8207   12.0180 H   0  0  0  0  0  0  0  0  0  0  0  0
    6.3401    7.2517   16.3975 C   0  0  0  0  0  0  0  0  0  0  0  0
    7.3321    7.2610   16.8363 H   0  0  0  0  0  0  0  0  0  0  0  0
    5.2222    6.8829   17.1285 C   0  0  0  0  0  0  0  0  0  0  0  0
    5.3189    6.5919   18.1618 H   0  0  0  0  0  0  0  0  0  0  0  0
    3.9822    6.8971   16.5000 C   0  0  0  0  0  0  0  0  0  0  0  0
    3.0909    6.6110   17.0384 H   0  0  0  0  0  0  0  0  0  0  0  0
    3.9025    7.2775   15.1749 C   0  0  0  0  0  0  0  0  0  0  0  0
    2.9533    7.2811   14.6640 H   0  0  0  0  0  0  0  0  0  0  0  0
    5.0732    7.6379   14.4978 C   0  0  0  0  0  0  0  0  0  0  0  0
    5.1085    8.0602   13.1058 C   0  0  0  0  0  0  0  0  0  0  0  0
    3.8206    8.4126   12.4188 C   0  0  0  0  0  0  0  0  0  0  0  0
    3.2062    9.0339   13.0682 H   0  0  0  0  0  0  0  0  0  0  0  0
    4.0129    8.9524   11.4945 H   0  0  0  0  0  0  0  0  0  0  0  0
    3.2583    7.5099   12.1789 H   0  0  0  0  0  0  0  0  0  0  0  0
    6.4185    8.6131   11.2229 C   0  0  0  0  0  0  0  0  0  0  0  0
    5.9740    7.8635   10.1364 C   0  0  0  0  0  0  0  0  0  0  0  0
    5.4969    6.9092   10.3078 H   0  0  0  0  0  0  0  0  0  0  0  0
    6.1827    8.3269    8.8497 C   0  0  0  0  0  0  0  0  0  0  0  0
    5.8479    7.7353    8.0107 H   0  0  0  0  0  0  0  0  0  0  0  0
    6.8125    9.5410    8.6364 C   0  0  0  0  0  0  0  0  0  0  0  0
    6.9690    9.8993    7.6305 H   0  0  0  0  0  0  0  0  0  0  0  0
    7.2516   10.2911    9.7173 C   0  0  0  0  0  0  0  0  0  0  0  0
    7.7478   11.2358    9.5537 H   0  0  0  0  0  0  0  0  0  0  0  0
    7.0648    9.8309   11.0053 C   0  0  0  0  0  0  0  0  0  0  0  0
    7.4160   10.3946   11.8634 H   0  0  0  0  0  0  0  0  0  0  0  0
  1  2  1  1  0  0  0
  1  3  1  0  0  0  0
  3  9  1  0  0  0  0
  4 18  1  0  0  0  0
  4  1  1  0  0  0  0
  5  6  1  0  0  0  0
  5  1  1  0  0  0  0
  7  5  1  0  0  0  0
  8  5  1  0  0  0  0
  9 10  1  0  0  0  0
  9 11  2  0  0  0  0
 11 12  1  0  0  0  0
 13 14  1  0  0  0  0
 13 11  1  0  0  0  0
 15 13  2  0  0  0  0
 16 15  1  0  0  0  0
 17  3  1  0  0  0  0
 17 15  1  0  0  0  0
 18 17  2  0  0  0  0
 19 20  1  0  0  0  0
 19 18  1  0  0  0  0
 21 19  1  0  0  0  0
 22 19  1  0  0  0  0
 23  4  1  0  0  0  0
 24 25  1  0  0  0  0
 24 23  2  0  0  0  0
 26 24  1  0  0  0  0
 27 26  1  0  0  0  0
 28 26  2  0  0  0  0
 28 30  1  0  0  0  0
 29 28  1  0  0  0  0
 30 32  2  0  0  0  0
 31 30  1  0  0  0  0
 32 23  1  0  0  0  0
 32 33  1  0  0  0  0
M  END
$$$$
