CSD_code = UVIKAN | q = 0 | S = 0 | Stoichiometry = C13H13ClN2Pd | MND = 4
 OpenBabel04212202103D

 30 32  0  0  0  0  0  0  0  0999 V2000
    4.7659    0.2686    6.3087 C   0  0  0  0  0  0  0  0  0  0  0  0
    3.9878   -0.1676    5.6785 H   0  0  0  0  0  0  0  0  0  0  0  0
    5.0882   -0.4921    7.0354 H   0  0  0  0  0  0  0  0  0  0  0  0
    4.3371    1.1327    6.8391 H   0  0  0  0  0  0  0  0  0  0  0  0
    7.1319    1.5272    8.1129 C   0  0  0  0  0  0  0  0  0  0  0  0
    6.1061    1.2711    8.3408 H   0  0  0  0  0  0  0  0  0  0  0  0
    8.0139    1.8196    9.1341 C   0  0  0  0  0  0  0  0  0  0  0  0
    7.6793    1.7876   10.1585 H   0  0  0  0  0  0  0  0  0  0  0  0
    9.3302    2.1543    8.8228 C   0  0  0  0  0  0  0  0  0  0  0  0
   10.0425    2.3825    9.6001 H   0  0  0  0  0  0  0  0  0  0  0  0
    9.6928    2.1901    7.4949 C   0  0  0  0  0  0  0  0  0  0  0  0
   10.6978    2.4477    7.1974 H   0  0  0  0  0  0  0  0  0  0  0  0
    8.7474    1.8865    6.5081 C   0  0  0  0  0  0  0  0  0  0  0  0
    9.0827    1.9551    5.1111 C   0  0  0  0  0  0  0  0  0  0  0  0
   10.0817    2.2962    4.8321 H   0  0  0  0  0  0  0  0  0  0  0  0
    8.4007    1.7453    2.8711 C   0  0  0  0  0  0  0  0  0  0  0  0
    9.5968    1.3354    2.2781 C   0  0  0  0  0  0  0  0  0  0  0  0
   10.3896    0.9286    2.8902 H   0  0  0  0  0  0  0  0  0  0  0  0
    9.7340    1.3908    0.9050 C   0  0  0  0  0  0  0  0  0  0  0  0
   10.6528    1.0555    0.4464 H   0  0  0  0  0  0  0  0  0  0  0  0
    8.6978    1.8654    0.1160 C   0  0  0  0  0  0  0  0  0  0  0  0
    8.8128    1.9030   -0.9568 H   0  0  0  0  0  0  0  0  0  0  0  0
    7.5106    2.2778    0.7021 C   0  0  0  0  0  0  0  0  0  0  0  0
    6.7008    2.6390    0.0869 H   0  0  0  0  0  0  0  0  0  0  0  0
    7.3534    2.2137    2.0713 C   0  0  0  0  0  0  0  0  0  0  0  0
    6.4322    2.5268    2.5500 H   0  0  0  0  0  0  0  0  0  0  0  0
    5.4658    0.0402    3.4482 Cl  0  0  0  0  0  0  0  0  0  0  0  0
    7.4688    1.5464    6.8212 N   0  0  0  0  0  0  0  0  0  0  0  0
    8.1786    1.6764    4.2374 N   0  0  0  0  0  0  0  0  0  0  0  0
    6.3921    0.9093    5.2305 Pd  0  0  2  0  0  0  0  0  0  0  0  0
  1  4  1  0  0  0  0
  1  3  1  0  0  0  0
  2  1  1  0  0  0  0
  5  6  1  0  0  0  0
  5  7  2  0  0  0  0
  7  8  1  0  0  0  0
  9  7  1  0  0  0  0
  9 10  1  0  0  0  0
 11  9  2  0  0  0  0
 12 11  1  0  0  0  0
 13 28  1  0  0  0  0
 13 11  1  0  0  0  0
 14 13  2  0  0  0  0
 15 14  1  0  0  0  0
 16 29  1  0  0  0  0
 17 16  1  0  0  0  0
 17 18  1  0  0  0  0
 19 17  2  0  0  0  0
 20 19  1  0  0  0  0
 21 23  2  0  0  0  0
 21 19  1  0  0  0  0
 22 21  1  0  0  0  0
 23 25  1  0  0  0  0
 24 23  1  0  0  0  0
 25 26  1  0  0  0  0
 25 16  2  0  0  0  0
 28  5  1  0  0  0  0
 29 14  1  0  0  0  0
 29 30  1  0  0  0  0
 30 27  1  1  0  0  0
 30  1  1  0  0  0  0
 30 28  1  0  0  0  0
M  END
$$$$
