CSD_code = UVIXII | q = 0 | S = 0 | Stoichiometry = C32H27I2N2PZr | MND = 5
 OpenBabel04212202103D

 65 69  0  0  0  0  0  0  0  0999 V2000
    2.0024   -0.4472   15.6821 I   0  0  0  0  0 15  0  0  0  0  0  0
    2.8861    1.1407   11.9077 I   0  0  0  0  0 15  0  0  0  0  0  0
    2.5964    2.0968   14.5885 Zr  0  0  0  0  0  0  0  0  0  0  0  0
    3.1154    4.5850   13.5411 P   0  0  0  0  0  4  0  0  0  0  0  0
    4.4849    2.3337   15.2675 N   0  0  0  0  0  0  0  0  0  0  0  0
    1.0383    3.2968   15.1726 N   0  0  0  0  0  0  0  0  0  0  0  0
    4.9058    4.8666   14.0114 C   0  0  0  0  0  0  0  0  0  0  0  0
    5.2829    5.7766   13.5367 H   0  0  0  0  0  0  0  0  0  0  0  0
    4.9382    4.9804   15.1027 H   0  0  0  0  0  0  0  0  0  0  0  0
    5.6794    3.6581   13.5751 C   0  0  0  0  0  0  0  0  0  0  0  0
    5.4184    2.4296   14.2083 C   0  0  0  0  0  0  0  0  0  0  0  0
    6.0603    1.2730   13.7637 C   0  0  0  0  0  0  0  0  0  0  0  0
    5.8408    0.3333   14.2599 H   0  0  0  0  0  0  0  0  0  0  0  0
    6.9560    1.3321   12.7114 C   0  0  0  0  0  0  0  0  0  0  0  0
    7.4408    0.4312   12.3697 H   0  0  0  0  0  0  0  0  0  0  0  0
    7.2254    2.5447   12.0986 C   0  0  0  0  0  0  0  0  0  0  0  0
    7.9258    2.5934   11.2796 H   0  0  0  0  0  0  0  0  0  0  0  0
    6.5873    3.6970   12.5263 C   0  0  0  0  0  0  0  0  0  0  0  0
    6.7901    4.6407   12.0394 H   0  0  0  0  0  0  0  0  0  0  0  0
    4.8903    2.6595   16.5429 C   0  0  0  0  0  0  0  0  0  0  0  0
    4.0616    2.3300   17.6285 C   0  0  0  0  0  0  0  0  0  0  0  0
    3.1310    1.7952   17.4512 H   0  0  0  0  0  0  0  0  0  0  0  0
    4.4380    2.6346   18.9200 C   0  0  0  0  0  0  0  0  0  0  0  0
    3.7919    2.3548   19.7386 H   0  0  0  0  0  0  0  0  0  0  0  0
    5.6388    3.2772   19.1746 C   0  0  0  0  0  0  0  0  0  0  0  0
    5.9260    3.5163   20.1865 H   0  0  0  0  0  0  0  0  0  0  0  0
    6.4780    3.5837   18.1165 C   0  0  0  0  0  0  0  0  0  0  0  0
    7.4285    4.0633   18.3013 H   0  0  0  0  0  0  0  0  0  0  0  0
    6.1222    3.2755   16.8198 C   0  0  0  0  0  0  0  0  0  0  0  0
    6.8040    3.4902   16.0079 H   0  0  0  0  0  0  0  0  0  0  0  0
    2.2952    5.7765   14.6975 C   0  0  0  0  0  0  0  0  0  0  0  0
    2.8347    6.7295   14.7038 H   0  0  0  0  0  0  0  0  0  0  0  0
    1.2782    5.9359   14.3161 H   0  0  0  0  0  0  0  0  0  0  0  0
    2.1987    5.2060   16.0854 C   0  0  0  0  0  0  0  0  0  0  0  0
    1.4652    4.0157   16.2908 C   0  0  0  0  0  0  0  0  0  0  0  0
    1.2348    3.5840   17.6054 C   0  0  0  0  0  0  0  0  0  0  0  0
    0.6568    2.6815   17.7722 H   0  0  0  0  0  0  0  0  0  0  0  0
    1.7329    4.2976   18.6783 C   0  0  0  0  0  0  0  0  0  0  0  0
    1.5305    3.9590   19.6828 H   0  0  0  0  0  0  0  0  0  0  0  0
    2.4995    5.4315   18.4686 C   0  0  0  0  0  0  0  0  0  0  0  0
    2.9071    5.9758   19.3056 H   0  0  0  0  0  0  0  0  0  0  0  0
    2.7270    5.8768   17.1772 C   0  0  0  0  0  0  0  0  0  0  0  0
    3.2977    6.7811   17.0155 H   0  0  0  0  0  0  0  0  0  0  0  0
   -0.2204    2.7184   15.1248 C   0  0  0  0  0  0  0  0  0  0  0  0
   -1.2917    3.1032   15.9440 C   0  0  0  0  0  0  0  0  0  0  0  0
   -1.1487    3.8899   16.6719 H   0  0  0  0  0  0  0  0  0  0  0  0
   -2.5274    2.5025   15.8116 C   0  0  0  0  0  0  0  0  0  0  0  0
   -3.3339    2.8126   16.4600 H   0  0  0  0  0  0  0  0  0  0  0  0
   -2.7412    1.5167   14.8624 C   0  0  0  0  0  0  0  0  0  0  0  0
   -3.7067    1.0444   14.7744 H   0  0  0  0  0  0  0  0  0  0  0  0
   -1.7081    1.1604   14.0104 C   0  0  0  0  0  0  0  0  0  0  0  0
   -1.8667    0.4148   13.2457 H   0  0  0  0  0  0  0  0  0  0  0  0
   -0.4673    1.7554   14.1279 C   0  0  0  0  0  0  0  0  0  0  0  0
    0.3185    1.5043   13.4093 H   0  0  0  0  0  0  0  0  0  0  0  0
    3.0920    5.4510   11.9312 C   0  0  0  0  0  0  0  0  0  0  0  0
    3.7807    4.8343   10.8866 C   0  0  0  0  0  0  0  0  0  0  0  0
    4.2867    3.8935   11.0558 H   0  0  0  0  0  0  0  0  0  0  0  0
    3.8183    5.4179    9.6349 C   0  0  0  0  0  0  0  0  0  0  0  0
    4.3550    4.9318    8.8346 H   0  0  0  0  0  0  0  0  0  0  0  0
    3.1583    6.6150    9.4081 C   0  0  0  0  0  0  0  0  0  0  0  0
    3.1824    7.0702    8.4297 H   0  0  0  0  0  0  0  0  0  0  0  0
    2.4595    7.2228   10.4372 C   0  0  0  0  0  0  0  0  0  0  0  0
    1.9384    8.1525   10.2622 H   0  0  0  0  0  0  0  0  0  0  0  0
    2.4202    6.6451   11.6945 C   0  0  0  0  0  0  0  0  0  0  0  0
    1.8646    7.1332   12.4810 H   0  0  0  0  0  0  0  0  0  0  0  0
  3  6  1  0  0  0  0
  3  5  1  0  0  0  0
  4  7  1  0  0  0  0
  4  3  1  0  0  0  0
  4 31  1  0  0  0  0
  5 20  1  0  0  0  0
  6 35  1  0  0  0  0
  7  9  1  0  0  0  0
  8  7  1  0  0  0  0
 10  7  1  0  0  0  0
 10 11  1  0  0  0  0
 11  5  1  0  0  0  0
 12 11  2  0  0  0  0
 12 13  1  0  0  0  0
 14 12  1  0  0  0  0
 15 14  1  0  0  0  0
 16 18  1  0  0  0  0
 16 14  2  0  0  0  0
 17 16  1  0  0  0  0
 18 10  2  0  0  0  0
 19 18  1  0  0  0  0
 20 29  2  0  0  0  0
 20 21  1  0  0  0  0
 21 23  2  0  0  0  0
 22 21  1  0  0  0  0
 23 25  1  0  0  0  0
 23 24  1  0  0  0  0
 25 26  1  0  0  0  0
 27 28  1  0  0  0  0
 27 25  2  0  0  0  0
 29 27  1  0  0  0  0
 30 29  1  0  0  0  0
 31 32  1  0  0  0  0
 31 34  1  0  0  0  0
 33 31  1  0  0  0  0
 34 35  2  0  0  0  0
 34 42  1  0  0  0  0
 35 36  1  0  0  0  0
 36 37  1  0  0  0  0
 36 38  2  0  0  0  0
 38 39  1  0  0  0  0
 40 38  1  0  0  0  0
 40 41  1  0  0  0  0
 42 40  2  0  0  0  0
 43 42  1  0  0  0  0
 44  6  1  0  0  0  0
 44 45  1  0  0  0  0
 45 46  1  0  0  0  0
 47 45  2  0  0  0  0
 47 48  1  0  0  0  0
 49 47  1  0  0  0  0
 50 49  1  0  0  0  0
 51 53  1  0  0  0  0
 51 49  2  0  0  0  0
 52 51  1  0  0  0  0
 53 44  2  0  0  0  0
 54 53  1  0  0  0  0
 55  4  1  0  0  0  0
 56 57  1  0  0  0  0
 56 55  2  0  0  0  0
 58 56  1  0  0  0  0
 59 58  1  0  0  0  0
 60 58  2  0  0  0  0
 60 62  1  0  0  0  0
 61 60  1  0  0  0  0
 62 64  2  0  0  0  0
 63 62  1  0  0  0  0
 64 55  1  0  0  0  0
 64 65  1  0  0  0  0
M  END
$$$$
