CSD_code = UVIXOO | q = 0 | S = 0 | Stoichiometry = C32H27I2N2PZr | MND = 5
 OpenBabel04212202103D

 65 69  0  0  0  0  0  0  0  0999 V2000
    3.0192   10.6083   15.8003 I   0  0  0  0  0 15  0  0  0  0  0  0
    3.8414    9.1521   11.9555 I   0  0  0  0  0 15  0  0  0  0  0  0
    3.6037    8.1080   14.6075 Zr  0  0  0  0  0  0  0  0  0  0  0  0
    4.1066    5.6505   13.4855 P   0  0  0  0  0  4  0  0  0  0  0  0
    5.5039    7.8484   15.2484 N   0  0  0  0  0  0  0  0  0  0  0  0
    2.0411    6.9014   15.1634 N   0  0  0  0  0  0  0  0  0  0  0  0
    5.9064    5.3557   13.9104 C   0  0  0  0  0  0  0  0  0  0  0  0
    5.9637    5.2093   14.9967 H   0  0  0  0  0  0  0  0  0  0  0  0
    6.2741    4.4614   13.3999 H   0  0  0  0  0  0  0  0  0  0  0  0
    6.6657    6.5796   13.4917 C   0  0  0  0  0  0  0  0  0  0  0  0
    6.4143    7.7879   14.1667 C   0  0  0  0  0  0  0  0  0  0  0  0
    7.0386    8.9606   13.7394 C   0  0  0  0  0  0  0  0  0  0  0  0
    6.8257    9.8847   14.2670 H   0  0  0  0  0  0  0  0  0  0  0  0
    7.9063    8.9374   12.6626 C   0  0  0  0  0  0  0  0  0  0  0  0
    8.3752    9.8511   12.3331 H   0  0  0  0  0  0  0  0  0  0  0  0
    8.1659    7.7446   12.0079 C   0  0  0  0  0  0  0  0  0  0  0  0
    8.8441    7.7241   11.1692 H   0  0  0  0  0  0  0  0  0  0  0  0
    7.5460    6.5764   12.4190 C   0  0  0  0  0  0  0  0  0  0  0  0
    7.7414    5.6483   11.9001 H   0  0  0  0  0  0  0  0  0  0  0  0
    5.9355    7.4799   16.5032 C   0  0  0  0  0  0  0  0  0  0  0  0
    7.1770    6.8644   16.7351 C   0  0  0  0  0  0  0  0  0  0  0  0
    7.8456    6.6853   15.9037 H   0  0  0  0  0  0  0  0  0  0  0  0
    7.5588    6.5123   18.0132 C   0  0  0  0  0  0  0  0  0  0  0  0
    8.5164    6.0350   18.1634 H   0  0  0  0  0  0  0  0  0  0  0  0
    6.7364    6.7726   19.0968 C   0  0  0  0  0  0  0  0  0  0  0  0
    7.0436    6.4986   20.0940 H   0  0  0  0  0  0  0  0  0  0  0  0
    5.5265    7.4144   18.8874 C   0  0  0  0  0  0  0  0  0  0  0  0
    4.8930    7.6579   19.7273 H   0  0  0  0  0  0  0  0  0  0  0  0
    5.1249    7.7637   17.6150 C   0  0  0  0  0  0  0  0  0  0  0  0
    4.1875    8.2971   17.4737 H   0  0  0  0  0  0  0  0  0  0  0  0
    3.3034    4.4350   14.6285 C   0  0  0  0  0  0  0  0  0  0  0  0
    2.2832    4.2797   14.2538 H   0  0  0  0  0  0  0  0  0  0  0  0
    3.8457    3.4838   14.6118 H   0  0  0  0  0  0  0  0  0  0  0  0
    3.2175    4.9786   16.0281 C   0  0  0  0  0  0  0  0  0  0  0  0
    2.4782    6.1600   16.2629 C   0  0  0  0  0  0  0  0  0  0  0  0
    2.2521    6.5624   17.5878 C   0  0  0  0  0  0  0  0  0  0  0  0
    1.6689    7.4575   17.7765 H   0  0  0  0  0  0  0  0  0  0  0  0
    2.7610    5.8295   18.6426 C   0  0  0  0  0  0  0  0  0  0  0  0
    2.5620    6.1456   19.6553 H   0  0  0  0  0  0  0  0  0  0  0  0
    3.5347    4.7059   18.4045 C   0  0  0  0  0  0  0  0  0  0  0  0
    3.9515    4.1474   19.2275 H   0  0  0  0  0  0  0  0  0  0  0  0
    3.7573    4.2891   17.1026 C   0  0  0  0  0  0  0  0  0  0  0  0
    4.3326    3.3919   16.9189 H   0  0  0  0  0  0  0  0  0  0  0  0
    0.7773    7.4709   15.1378 C   0  0  0  0  0  0  0  0  0  0  0  0
   -0.2877    7.0438   15.9442 C   0  0  0  0  0  0  0  0  0  0  0  0
   -0.1328    6.2348   16.6448 H   0  0  0  0  0  0  0  0  0  0  0  0
   -1.5318    7.6313   15.8332 C   0  0  0  0  0  0  0  0  0  0  0  0
   -2.3334    7.2879   16.4710 H   0  0  0  0  0  0  0  0  0  0  0  0
   -1.7600    8.6459   14.9182 C   0  0  0  0  0  0  0  0  0  0  0  0
   -2.7323    9.1069   14.8461 H   0  0  0  0  0  0  0  0  0  0  0  0
   -0.7314    9.0480   14.0811 C   0  0  0  0  0  0  0  0  0  0  0  0
   -0.9001    9.8189   13.3441 H   0  0  0  0  0  0  0  0  0  0  0  0
    0.5180    8.4674   14.1781 C   0  0  0  0  0  0  0  0  0  0  0  0
    1.3008    8.7592   13.4725 H   0  0  0  0  0  0  0  0  0  0  0  0
    4.0508    4.8250   11.8553 C   0  0  0  0  0  0  0  0  0  0  0  0
    3.3914    3.6266   11.6061 C   0  0  0  0  0  0  0  0  0  0  0  0
    2.8621    3.1116   12.3936 H   0  0  0  0  0  0  0  0  0  0  0  0
    3.4083    3.0802   10.3344 C   0  0  0  0  0  0  0  0  0  0  0  0
    2.8971    2.1469   10.1495 H   0  0  0  0  0  0  0  0  0  0  0  0
    4.0726    3.7234    9.3039 C   0  0  0  0  0  0  0  0  0  0  0  0
    4.0807    3.2916    8.3146 H   0  0  0  0  0  0  0  0  0  0  0  0
    4.7203    4.9247    9.5437 C   0  0  0  0  0  0  0  0  0  0  0  0
    5.2308    5.4376    8.7430 H   0  0  0  0  0  0  0  0  0  0  0  0
    4.7047    5.4772   10.8099 C   0  0  0  0  0  0  0  0  0  0  0  0
    5.2014    6.4210   10.9900 H   0  0  0  0  0  0  0  0  0  0  0  0
  3  6  1  0  0  0  0
  3  5  1  0  0  0  0
  4  7  1  0  0  0  0
  4  3  1  0  0  0  0
  4 31  1  0  0  0  0
  5 20  1  0  0  0  0
  6 35  1  0  0  0  0
  7  8  1  0  0  0  0
  9  7  1  0  0  0  0
 10  7  1  0  0  0  0
 10 11  1  0  0  0  0
 11  5  1  0  0  0  0
 12 11  2  0  0  0  0
 12 13  1  0  0  0  0
 14 12  1  0  0  0  0
 15 14  1  0  0  0  0
 16 18  1  0  0  0  0
 16 14  2  0  0  0  0
 17 16  1  0  0  0  0
 18 10  2  0  0  0  0
 19 18  1  0  0  0  0
 20 21  2  0  0  0  0
 20 29  1  0  0  0  0
 21 23  1  0  0  0  0
 22 21  1  0  0  0  0
 23 24  1  0  0  0  0
 23 25  2  0  0  0  0
 25 26  1  0  0  0  0
 27 25  1  0  0  0  0
 27 28  1  0  0  0  0
 29 27  2  0  0  0  0
 30 29  1  0  0  0  0
 31 34  1  0  0  0  0
 32 31  1  0  0  0  0
 33 31  1  0  0  0  0
 34 35  2  0  0  0  0
 34 42  1  0  0  0  0
 35 36  1  0  0  0  0
 36 37  1  0  0  0  0
 36 38  2  0  0  0  0
 38 39  1  0  0  0  0
 40 38  1  0  0  0  0
 40 41  1  0  0  0  0
 42 40  2  0  0  0  0
 43 42  1  0  0  0  0
 44  6  1  0  0  0  0
 44 45  1  0  0  0  0
 45 46  1  0  0  0  0
 47 45  2  0  0  0  0
 47 48  1  0  0  0  0
 49 47  1  0  0  0  0
 50 49  1  0  0  0  0
 51 53  1  0  0  0  0
 51 49  2  0  0  0  0
 52 51  1  0  0  0  0
 53 44  2  0  0  0  0
 54 53  1  0  0  0  0
 55  4  1  0  0  0  0
 56 55  1  0  0  0  0
 56 57  1  0  0  0  0
 58 56  2  0  0  0  0
 59 58  1  0  0  0  0
 60 62  2  0  0  0  0
 60 58  1  0  0  0  0
 61 60  1  0  0  0  0
 62 64  1  0  0  0  0
 63 62  1  0  0  0  0
 64 65  1  0  0  0  0
 64 55  2  0  0  0  0
M  END
$$$$
