CSD_code = UWARIV | q = 0 | S = 0 | Stoichiometry = C13H13Cl2N5Zn | MND = 5
 OpenBabel04212202103D

 34 37  0  0  1  0  0  0  0  0999 V2000
    6.0300    2.3172    3.4833 Zn  0  0  0  0  0  0  0  0  0  0  0  0
    8.4223    2.0484    5.1028 C   0  0  0  0  0  3  0  0  0  0  0  0
    8.1054    1.0507    4.8320 H   0  0  0  0  0  0  0  0  0  0  0  0
    9.3640    2.2486    6.0972 C   0  0  0  0  0  0  0  0  0  0  0  0
    9.7823    1.4065    6.6240 H   0  0  0  0  0  0  0  0  0  0  0  0
    9.7334    3.5486    6.4008 C   0  0  0  0  0  0  0  0  0  0  0  0
   10.4494    3.7542    7.1829 H   0  0  0  0  0  0  0  0  0  0  0  0
    9.1735    4.5827    5.6753 C   0  0  0  0  0  0  0  0  0  0  0  0
    9.4520    5.6021    5.8861 H   0  0  0  0  0  0  0  0  0  0  0  0
    8.2305    4.2988    4.6826 C   0  0  0  0  0  0  0  0  0  0  0  0
    7.6643    5.3903    3.8693 C   0  0  0  0  0  0  0  0  0  0  0  0
    4.4299    4.5515    3.3366 C   0  0  1  0  0  3  0  0  0  0  0  0
    3.8949    5.6017    4.0201 N   0  0  0  0  0  0  0  0  0  0  0  0
    4.5635    6.2188    4.4564 H   0  0  0  0  0  0  0  0  0  0  0  0
    3.0701    5.4176    4.5682 H   0  0  0  0  0  0  0  0  0  0  0  0
    3.5418    3.5088    2.8219 C   0  0  1  0  0  3  0  0  0  0  0  0
    2.1703    3.6934    2.6604 C   0  0  0  0  0  0  0  0  0  0  0  0
    1.7134    4.6410    2.8978 H   0  0  0  0  0  0  0  0  0  0  0  0
    1.4134    2.6431    2.1692 C   0  0  0  0  0  0  0  0  0  0  0  0
    0.3468    2.7549    2.0430 H   0  0  0  0  0  0  0  0  0  0  0  0
    2.0420    1.4511    1.8438 C   0  0  0  0  0  0  0  0  0  0  0  0
    1.4835    0.6093    1.4676 H   0  0  0  0  0  0  0  0  0  0  0  0
    3.4145    1.3594    2.0213 C   0  0  0  0  0  0  0  0  0  0  0  0
    3.9642    0.4580    1.7877 H   0  0  0  0  0  0  0  0  0  0  0  0
    4.9664    2.4585    5.5184 Cl  0  0  0  0  0  0  0  0  0  0  0  0
    6.8300    0.4602    2.5904 Cl  0  0  0  0  0  0  0  0  0  0  0  0
    7.8570    3.0397    4.4277 N   0  0  0  0  0  0  0  0  0  0  0  0
    8.4715    6.6502    3.7359 C   0  0  0  0  0  0  0  0  0  0  0  0
    8.0480    7.2572    2.9411 H   0  0  0  0  0  0  0  0  0  0  0  0
    9.5078    6.4185    3.5010 H   0  0  0  0  0  0  0  0  0  0  0  0
    8.4457    7.2275    4.6591 H   0  0  0  0  0  0  0  0  0  0  0  0
    6.5498    5.4031    3.2549 N   0  0  0  0  0  0  0  0  0  0  0  0
    5.6921    4.4200    3.0797 N   0  0  0  0  0  0  0  0  0  0  0  0
    4.1331    2.3585    2.4985 N   0  0  0  0  0  0  0  0  0  0  0  0
  1 27  1  0  0  0  0
  1 25  1  0  0  0  0
  2  4  1  0  0  0  0
  3  2  1  0  0  0  0
  4  6  2  0  0  0  0
  4  5  1  0  0  0  0
  6  7  1  0  0  0  0
  8  9  1  0  0  0  0
  8  6  1  0  0  0  0
 10  8  2  0  0  0  0
 11 10  1  0  0  0  0
 12 13  1  6  0  0  0
 13 14  1  0  0  0  0
 13 15  1  0  0  0  0
 16 17  1  6  0  0  0
 16 12  1  0  0  0  0
 17 18  1  0  0  0  0
 19 17  2  0  0  0  0
 20 19  1  0  0  0  0
 21 23  2  0  0  0  0
 21 19  1  0  0  0  0
 22 21  1  0  0  0  0
 23 34  1  0  0  0  0
 24 23  1  0  0  0  0
 26  1  1  0  0  0  0
 27 10  1  0  0  0  0
 27  2  1  0  0  0  0
 28 11  1  0  0  0  0
 28 31  1  0  0  0  0
 29 28  1  0  0  0  0
 30 28  1  0  0  0  0
 32 11  2  0  0  0  0
 33 32  1  0  0  0  0
 33 12  1  0  0  0  0
 33  1  1  0  0  0  0
 34 16  1  0  0  0  0
 34  1  1  0  0  0  0
M  END
$$$$
