CSD_code = UWASUH | q = 0 | S = 0 | Stoichiometry = C23H32AuClNOP | MND = 2
 OpenBabel04212202103D

 60 63  0  0  0  0  0  0  0  0999 V2000
    8.1506   -1.2987    9.6901 Au  0  0  0  0  0  0  0  0  0  0  0  0
    7.9746   -3.5110    9.2079 Cl  0  0  0  0  0  0  0  0  0  0  0  0
    8.3647    0.9010   10.0734 P   0  0  0  0  0  4  0  0  0  0  0  0
    7.6962    2.0432    8.8687 C   0  0  0  0  0  0  0  0  0  0  0  0
    7.5614    3.4224    8.9277 C   0  0  0  0  0  0  0  0  0  0  0  0
    7.8481    4.0571    9.7434 H   0  0  0  0  0  0  0  0  0  0  0  0
    6.9625    3.8351    7.7332 C   0  0  0  0  0  0  0  0  0  0  0  0
    6.7209    4.8418    7.4546 H   0  0  0  0  0  0  0  0  0  0  0  0
    6.7375    2.7070    6.9841 C   0  0  0  0  0  0  0  0  0  0  0  0
    6.2923    2.5971    6.0146 H   0  0  0  0  0  0  0  0  0  0  0  0
    7.1755    1.6289    7.6697 N   0  0  0  0  0  0  0  0  0  0  0  0
    7.0215    0.2922    7.2274 C   0  0  0  0  0  0  0  0  0  0  0  0
    5.8498   -0.3938    7.5098 C   0  0  0  0  0  0  0  0  0  0  0  0
    5.0820    0.1039    8.0849 H   0  0  0  0  0  0  0  0  0  0  0  0
    5.6803   -1.6942    7.0703 C   0  0  0  0  0  0  0  0  0  0  0  0
    4.7762   -2.2318    7.3063 H   0  0  0  0  0  0  0  0  0  0  0  0
    6.6881   -2.3040    6.3464 C   0  0  0  0  0  0  0  0  0  0  0  0
    6.5750   -3.3251    6.0190 H   0  0  0  0  0  0  0  0  0  0  0  0
    7.8554   -1.6247    6.0442 C   0  0  0  0  0  0  0  0  0  0  0  0
    8.6255   -2.1285    5.4832 H   0  0  0  0  0  0  0  0  0  0  0  0
    8.0383   -0.3170    6.4772 C   0  0  0  0  0  0  0  0  0  0  0  0
    9.1396    0.4481    6.2382 O   0  0  0  0  0  0  0  0  0  0  0  0
   10.2170   -0.1352    5.5434 C   0  0  0  0  0  0  0  0  0  0  0  0
   10.9878    0.6326    5.4994 H   0  0  0  0  0  0  0  0  0  0  0  0
    9.9306   -0.4186    4.5260 H   0  0  0  0  0  0  0  0  0  0  0  0
   10.6056   -1.0111    6.0713 H   0  0  0  0  0  0  0  0  0  0  0  0
   10.1534    1.3477   10.2500 C   0  0  0  0  0  0  0  0  0  0  0  0
   10.5209    0.7101   11.0676 H   0  0  0  0  0  0  0  0  0  0  0  0
   10.4527    2.8089   10.5705 C   0  0  0  0  0  0  0  0  0  0  0  0
    9.9625    3.1073   11.5001 H   0  0  0  0  0  0  0  0  0  0  0  0
   10.0756    3.4382    9.7622 H   0  0  0  0  0  0  0  0  0  0  0  0
   11.9615    3.0114   10.6969 C   0  0  0  0  0  0  0  0  0  0  0  0
   12.1722    4.0588   10.9223 H   0  0  0  0  0  0  0  0  0  0  0  0
   12.3427    2.4077   11.5242 H   0  0  0  0  0  0  0  0  0  0  0  0
   12.6649    2.6047    9.4057 C   0  0  0  0  0  0  0  0  0  0  0  0
   12.3191    3.2433    8.5896 H   0  0  0  0  0  0  0  0  0  0  0  0
   13.7424    2.7458    9.5091 H   0  0  0  0  0  0  0  0  0  0  0  0
   12.3605    1.1474    9.0714 C   0  0  0  0  0  0  0  0  0  0  0  0
   12.7597    0.5029    9.8583 H   0  0  0  0  0  0  0  0  0  0  0  0
   12.8462    0.8691    8.1340 H   0  0  0  0  0  0  0  0  0  0  0  0
   10.8553    0.9319    8.9571 C   0  0  0  0  0  0  0  0  0  0  0  0
   10.4571    1.5238    8.1285 H   0  0  0  0  0  0  0  0  0  0  0  0
   10.6403   -0.1219    8.7500 H   0  0  0  0  0  0  0  0  0  0  0  0
    7.5355    1.4607   11.6260 C   0  0  0  0  0  0  0  0  0  0  0  0
    7.6610    2.5449   11.7359 H   0  0  0  0  0  0  0  0  0  0  0  0
    8.1290    0.7338   12.8304 C   0  0  0  0  0  0  0  0  0  0  0  0
    9.1784    1.0095   12.9603 H   0  0  0  0  0  0  0  0  0  0  0  0
    8.0845   -0.3453   12.6479 H   0  0  0  0  0  0  0  0  0  0  0  0
    7.3536    1.0706   14.1015 C   0  0  0  0  0  0  0  0  0  0  0  0
    7.7783    0.5221   14.9443 H   0  0  0  0  0  0  0  0  0  0  0  0
    7.4524    2.1385   14.3128 H   0  0  0  0  0  0  0  0  0  0  0  0
    5.8780    0.7213   13.9406 C   0  0  0  0  0  0  0  0  0  0  0  0
    5.7761   -0.3535   13.7767 H   0  0  0  0  0  0  0  0  0  0  0  0
    5.3342    0.9758   14.8522 H   0  0  0  0  0  0  0  0  0  0  0  0
    5.2854    1.4725   12.7529 C   0  0  0  0  0  0  0  0  0  0  0  0
    5.3447    2.5484   12.9355 H   0  0  0  0  0  0  0  0  0  0  0  0
    4.2326    1.2109   12.6316 H   0  0  0  0  0  0  0  0  0  0  0  0
    6.0486    1.1327   11.4772 C   0  0  0  0  0  0  0  0  0  0  0  0
    5.6328    1.6882   10.6315 H   0  0  0  0  0  0  0  0  0  0  0  0
    5.9434    0.0635   11.2613 H   0  0  0  0  0  0  0  0  0  0  0  0
  1  3  1  0  0  0  0
  2  1  1  0  0  0  0
  3 27  1  0  0  0  0
  3 44  1  0  0  0  0
  4  5  2  0  0  0  0
  4  3  1  0  0  0  0
  5  6  1  0  0  0  0
  7  5  1  0  0  0  0
  8  7  1  0  0  0  0
  9 11  1  0  0  0  0
  9  7  2  0  0  0  0
 10  9  1  0  0  0  0
 11  4  1  0  0  0  0
 12 13  1  0  0  0  0
 12 11  1  0  0  0  0
 13 14  1  0  0  0  0
 15 16  1  0  0  0  0
 15 13  2  0  0  0  0
 17 15  1  0  0  0  0
 18 17  1  0  0  0  0
 19 17  2  0  0  0  0
 19 21  1  0  0  0  0
 20 19  1  0  0  0  0
 21 12  2  0  0  0  0
 22 21  1  0  0  0  0
 23 26  1  0  0  0  0
 23 22  1  0  0  0  0
 24 23  1  0  0  0  0
 25 23  1  0  0  0  0
 27 29  1  0  0  0  0
 27 28  1  0  0  0  0
 29 32  1  0  0  0  0
 29 30  1  0  0  0  0
 31 29  1  0  0  0  0
 32 33  1  0  0  0  0
 32 34  1  0  0  0  0
 35 37  1  0  0  0  0
 35 32  1  0  0  0  0
 36 35  1  0  0  0  0
 38 35  1  0  0  0  0
 38 39  1  0  0  0  0
 40 38  1  0  0  0  0
 41 38  1  0  0  0  0
 41 27  1  0  0  0  0
 42 41  1  0  0  0  0
 43 41  1  0  0  0  0
 44 45  1  0  0  0  0
 44 46  1  0  0  0  0
 46 47  1  0  0  0  0
 46 49  1  0  0  0  0
 48 46  1  0  0  0  0
 49 51  1  0  0  0  0
 49 50  1  0  0  0  0
 52 49  1  0  0  0  0
 52 54  1  0  0  0  0
 53 52  1  0  0  0  0
 55 56  1  0  0  0  0
 55 52  1  0  0  0  0
 57 55  1  0  0  0  0
 58 44  1  0  0  0  0
 58 55  1  0  0  0  0
 59 58  1  0  0  0  0
 60 58  1  0  0  0  0
M  END
$$$$
