CSD_code = UWASIV | q = 0 | S = 0 | Stoichiometry = C28H31AuClP | MND = 2
 OpenBabel04212202103D

 62 65  0  0  0  0  0  0  0  0999 V2000
   -7.4585   16.7948    2.3980 Au  0  0  0  0  0  0  0  0  0  0  0  0
   -8.9377   17.8925    1.0580 Cl  0  0  0  0  0  0  0  0  0  0  0  0
   -6.0146   15.6360    3.6915 P   0  0  0  0  0  4  0  0  0  0  0  0
   -4.7266   14.8113    2.5672 C   0  0  0  0  0  0  0  0  0  0  0  0
   -5.4506   14.4577    1.2633 C   0  0  0  0  0  0  0  0  0  0  0  0
   -4.7341   14.0683    0.5415 H   0  0  0  0  0  0  0  0  0  0  0  0
   -5.9240   15.3378    0.8286 H   0  0  0  0  0  0  0  0  0  0  0  0
   -6.2166   13.7022    1.4193 H   0  0  0  0  0  0  0  0  0  0  0  0
   -4.0119   13.5538    3.0594 C   0  0  0  0  0  0  0  0  0  0  0  0
   -4.7139   12.7444    3.2445 H   0  0  0  0  0  0  0  0  0  0  0  0
   -3.4193   13.7268    3.9526 H   0  0  0  0  0  0  0  0  0  0  0  0
   -3.3264   13.2220    2.2795 H   0  0  0  0  0  0  0  0  0  0  0  0
   -3.7152   15.9209    2.2695 C   0  0  0  0  0  0  0  0  0  0  0  0
   -3.1026   16.1478    3.1408 H   0  0  0  0  0  0  0  0  0  0  0  0
   -4.2375   16.8292    1.9634 H   0  0  0  0  0  0  0  0  0  0  0  0
   -3.0561   15.6189    1.4572 H   0  0  0  0  0  0  0  0  0  0  0  0
   -6.9824   14.3910    4.7294 C   0  0  0  0  0  0  0  0  0  0  0  0
   -6.1986   13.5868    5.7644 C   0  0  0  0  0  0  0  0  0  0  0  0
   -6.8869   12.9070    6.2664 H   0  0  0  0  0  0  0  0  0  0  0  0
   -5.7653   14.2374    6.5207 H   0  0  0  0  0  0  0  0  0  0  0  0
   -5.4120   12.9879    5.3158 H   0  0  0  0  0  0  0  0  0  0  0  0
   -7.7132   13.4533    3.7695 C   0  0  0  0  0  0  0  0  0  0  0  0
   -7.0332   12.7313    3.3222 H   0  0  0  0  0  0  0  0  0  0  0  0
   -8.1984   14.0224    2.9753 H   0  0  0  0  0  0  0  0  0  0  0  0
   -8.4825   12.9000    4.3063 H   0  0  0  0  0  0  0  0  0  0  0  0
   -8.0083   15.2560    5.4674 C   0  0  0  0  0  0  0  0  0  0  0  0
   -8.6850   14.6261    6.0425 H   0  0  0  0  0  0  0  0  0  0  0  0
   -8.5997   15.8432    4.7640 H   0  0  0  0  0  0  0  0  0  0  0  0
   -7.5084   15.9368    6.1556 H   0  0  0  0  0  0  0  0  0  0  0  0
   -5.3192   17.9066    5.1893 C   0  0  0  0  0  0  0  0  0  0  0  0
   -5.0608   16.5701    4.9399 C   0  0  0  0  0  0  0  0  0  0  0  0
   -4.0296   15.9199    5.6581 C   0  0  0  0  0  0  0  0  0  0  0  0
   -3.8246   14.8821    5.4563 H   0  0  0  0  0  0  0  0  0  0  0  0
   -3.2897   16.5749    6.5953 C   0  0  0  0  0  0  0  0  0  0  0  0
   -2.5063   16.0593    7.1326 H   0  0  0  0  0  0  0  0  0  0  0  0
   -3.5299   17.9350    6.8782 C   0  0  0  0  0  0  0  0  0  0  0  0
   -2.7781   18.6382    7.8408 C   0  0  0  0  0  0  0  0  0  0  0  0
   -2.0023   18.1104    8.3768 H   0  0  0  0  0  0  0  0  0  0  0  0
   -3.0244   19.9592    8.0887 C   0  0  0  0  0  0  0  0  0  0  0  0
   -2.4452   20.4943    8.8265 H   0  0  0  0  0  0  0  0  0  0  0  0
   -4.0334   20.6303    7.3820 C   0  0  0  0  0  0  0  0  0  0  0  0
   -4.2175   21.6748    7.5847 H   0  0  0  0  0  0  0  0  0  0  0  0
   -4.7806   19.9738    6.4442 C   0  0  0  0  0  0  0  0  0  0  0  0
   -5.5547   20.4972    5.9040 H   0  0  0  0  0  0  0  0  0  0  0  0
   -4.5539   18.6081    6.1647 C   0  0  0  0  0  0  0  0  0  0  0  0
   -6.3665   18.6821    4.4850 C   0  0  0  0  0  0  0  0  0  0  0  0
   -7.6327   18.7789    5.0098 C   0  0  0  0  0  0  0  0  0  0  0  0
   -7.8749   18.2559    5.9243 H   0  0  0  0  0  0  0  0  0  0  0  0
   -8.6180   19.5499    4.3776 C   0  0  0  0  0  0  0  0  0  0  0  0
   -9.6088   19.5878    4.8051 H   0  0  0  0  0  0  0  0  0  0  0  0
   -8.3304   20.2320    3.2301 C   0  0  0  0  0  0  0  0  0  0  0  0
   -9.0907   20.8075    2.7250 H   0  0  0  0  0  0  0  0  0  0  0  0
   -7.0337   20.1913    2.6777 C   0  0  0  0  0  0  0  0  0  0  0  0
   -6.7088   20.8905    1.4978 C   0  0  0  0  0  0  0  0  0  0  0  0
   -7.4870   21.4520    1.0031 H   0  0  0  0  0  0  0  0  0  0  0  0
   -5.4441   20.8451    0.9824 C   0  0  0  0  0  0  0  0  0  0  0  0
   -5.2055   21.3750    0.0720 H   0  0  0  0  0  0  0  0  0  0  0  0
   -4.4410   20.1142    1.6361 C   0  0  0  0  0  0  0  0  0  0  0  0
   -3.4402   20.1017    1.2284 H   0  0  0  0  0  0  0  0  0  0  0  0
   -4.7240   19.4201    2.7793 C   0  0  0  0  0  0  0  0  0  0  0  0
   -3.9469   18.8680    3.2897 H   0  0  0  0  0  0  0  0  0  0  0  0
   -6.0272   19.4226    3.3188 C   0  0  0  0  0  0  0  0  0  0  0  0
  1  3  1  0  0  0  0
  2  1  1  0  0  0  0
  3 17  1  0  0  0  0
  3 31  1  0  0  0  0
  4  9  1  0  0  0  0
  4  3  1  0  0  0  0
  5  8  1  0  0  0  0
  5  4  1  0  0  0  0
  6  5  1  0  0  0  0
  7  5  1  0  0  0  0
  9 10  1  0  0  0  0
  9 11  1  0  0  0  0
 12  9  1  0  0  0  0
 13  4  1  0  0  0  0
 13 14  1  0  0  0  0
 15 13  1  0  0  0  0
 16 13  1  0  0  0  0
 17 26  1  0  0  0  0
 17 18  1  0  0  0  0
 18 19  1  0  0  0  0
 18 20  1  0  0  0  0
 21 18  1  0  0  0  0
 22 25  1  0  0  0  0
 22 17  1  0  0  0  0
 23 22  1  0  0  0  0
 24 22  1  0  0  0  0
 26 27  1  0  0  0  0
 26 29  1  0  0  0  0
 28 26  1  0  0  0  0
 30 45  1  0  0  0  0
 31 30  2  0  0  0  0
 31 32  1  0  0  0  0
 32 34  2  0  0  0  0
 33 32  1  0  0  0  0
 34 36  1  0  0  0  0
 34 35  1  0  0  0  0
 36 37  1  0  0  0  0
 37 39  2  0  0  0  0
 37 38  1  0  0  0  0
 39 40  1  0  0  0  0
 41 42  1  0  0  0  0
 41 39  1  0  0  0  0
 43 41  2  0  0  0  0
 44 43  1  0  0  0  0
 45 43  1  0  0  0  0
 45 36  2  0  0  0  0
 46 47  1  0  0  0  0
 46 30  1  0  0  0  0
 47 48  1  0  0  0  0
 49 50  1  0  0  0  0
 49 47  2  0  0  0  0
 51 49  1  0  0  0  0
 52 51  1  0  0  0  0
 53 51  2  0  0  0  0
 53 62  1  0  0  0  0
 54 53  1  0  0  0  0
 55 54  1  0  0  0  0
 56 54  2  0  0  0  0
 56 58  1  0  0  0  0
 57 56  1  0  0  0  0
 58 60  2  0  0  0  0
 59 58  1  0  0  0  0
 60 61  1  0  0  0  0
 60 62  1  0  0  0  0
 62 46  2  0  0  0  0
M  END
$$$$
