CSD_code = UWINUK | q = 0 | S = 0 | Stoichiometry = C30H26Cl2O2Ti | MND = 12
 OpenBabel04212202103D

 61 64  0  0  1  0  0  0  0  0999 V2000
   -2.6312    3.1660    3.8867 Ti  0  0  0  0  0  0  0  0  0  0  0  0
   -1.0560    4.7476    3.7563 Cl  0  0  0  0  0  0  0  0  0  0  0  0
   -2.3032    3.4128    6.1776 C   0  0  2  0  0  0  0  0  0  0  0  0
   -1.3048    2.5264    5.6995 C   0  0  0  0  0  0  0  0  0  0  0  0
   -0.2354    2.6890    5.7625 H   0  0  0  0  0  0  0  0  0  0  0  0
   -1.9381    1.3527    5.2490 C   0  0  0  0  0  0  0  0  0  0  0  0
   -1.4384    0.4425    4.9472 H   0  0  0  0  0  0  0  0  0  0  0  0
   -3.3305    1.5065    5.4389 C   0  0  0  0  0  0  0  0  0  0  0  0
   -4.0798    0.7368    5.3107 H   0  0  0  0  0  0  0  0  0  0  0  0
   -3.5520    2.7647    6.0280 C   0  0  0  0  0  0  0  0  0  0  0  0
   -4.5007    3.1397    6.3892 H   0  0  0  0  0  0  0  0  0  0  0  0
   -2.0897    4.7429    6.8448 C   0  0  0  0  0  0  0  0  0  0  0  0
   -1.0346    5.0204    6.7753 H   0  0  0  0  0  0  0  0  0  0  0  0
   -2.6860    5.5092    6.3373 H   0  0  0  0  0  0  0  0  0  0  0  0
   -2.5163    4.6414    8.2876 C   0  0  0  0  0  0  0  0  0  0  0  0
   -1.6941    4.0345    9.2235 C   0  0  0  0  0  0  0  0  0  0  0  0
   -0.7261    3.6617    8.9204 H   0  0  0  0  0  0  0  0  0  0  0  0
   -2.0855    3.8962   10.5447 C   0  0  0  0  0  0  0  0  0  0  0  0
   -1.4113    3.4214   11.2409 H   0  0  0  0  0  0  0  0  0  0  0  0
   -3.3293    4.3672   10.9498 C   0  0  0  0  0  0  0  0  0  0  0  0
   -3.8256    4.2898   12.2147 O   0  0  0  0  0  0  0  0  0  0  0  0
   -3.0260    3.6916   13.2185 C   0  0  0  0  0  0  0  0  0  0  0  0
   -2.7984    2.6449   12.9603 H   0  0  0  0  0  0  0  0  0  0  0  0
   -2.0803    4.2436   13.3406 H   0  0  0  0  0  0  0  0  0  0  0  0
   -3.7579    3.7214   14.4717 C   0  0  0  0  0  0  0  0  0  0  0  0
   -4.3785    3.7556   15.4936 C   0  0  0  0  0  0  0  0  0  0  0  0
   -4.9108    3.7777   16.3971 H   0  0  0  0  0  0  0  0  0  0  0  0
   -4.1642    4.9740   10.0106 C   0  0  0  0  0  0  0  0  0  0  0  0
   -5.1257    5.3353   10.3396 H   0  0  0  0  0  0  0  0  0  0  0  0
   -3.7605    5.1054    8.6994 C   0  0  0  0  0  0  0  0  0  0  0  0
   -4.4168    5.5796    7.9840 H   0  0  0  0  0  0  0  0  0  0  0  0
   -4.2150    4.7382    4.0234 Cl  0  0  0  0  0  0  0  0  0  0  0  0
   -2.9547    3.4199    1.5978 C   0  0  2  0  0  0  0  0  0  0  0  0
   -3.9525    2.5292    2.0688 C   0  0  0  0  0  3  0  0  0  0  0  0
   -5.0221    2.6900    2.0039 H   0  0  0  0  0  0  0  0  0  0  0  0
   -3.3181    1.3548    2.5160 C   0  0  0  0  0  0  0  0  0  0  0  0
   -3.8169    0.4426    2.8131 H   0  0  0  0  0  0  0  0  0  0  0  0
   -1.9256    1.5117    2.3296 C   0  0  0  0  0  0  0  0  0  0  0  0
   -1.1753    0.7428    2.4559 H   0  0  0  0  0  0  0  0  0  0  0  0
   -1.7048    2.7732    1.7476 C   0  0  0  0  0  3  0  0  0  0  0  0
   -0.7560    3.1518    1.3905 H   0  0  0  0  0  0  0  0  0  0  0  0
   -3.1685    4.7505    0.9320 C   0  0  0  0  0  0  0  0  0  0  0  0
   -4.2234    5.0286    1.0021 H   0  0  0  0  0  0  0  0  0  0  0  0
   -2.5713    5.5165    1.4387 H   0  0  0  0  0  0  0  0  0  0  0  0
   -2.7420    4.6464   -0.5107 C   0  0  0  0  0  0  0  0  0  0  0  0
   -3.5643    4.0386   -1.4459 C   0  0  0  0  0  0  0  0  0  0  0  0
   -4.5337    3.6692   -1.1431 H   0  0  0  0  0  0  0  0  0  0  0  0
   -3.1711    3.8945   -2.7660 C   0  0  0  0  0  0  0  0  0  0  0  0
   -3.8452    3.4182   -3.4614 H   0  0  0  0  0  0  0  0  0  0  0  0
   -1.9255    4.3609   -3.1706 C   0  0  0  0  0  0  0  0  0  0  0  0
   -1.4265    4.2776   -4.4340 O   0  0  0  0  0  0  0  0  0  0  0  0
   -2.2265    3.6817   -5.4389 C   0  0  0  0  0  0  0  0  0  0  0  0
   -2.4515    2.6337   -5.1843 H   0  0  0  0  0  0  0  0  0  0  0  0
   -3.1734    4.2322   -5.5574 H   0  0  0  0  0  0  0  0  0  0  0  0
   -1.4963    3.7189   -6.6929 C   0  0  0  0  0  0  0  0  0  0  0  0
   -0.8775    3.7599   -7.7156 C   0  0  0  0  0  0  0  0  0  0  0  0
   -0.3458    3.7902   -8.6192 H   0  0  0  0  0  0  0  0  0  0  0  0
   -1.0908    4.9694   -2.2322 C   0  0  0  0  0  0  0  0  0  0  0  0
   -0.1278    5.3269   -2.5614 H   0  0  0  0  0  0  0  0  0  0  0  0
   -1.4960    5.1062   -0.9222 C   0  0  0  0  0  0  0  0  0  0  0  0
   -0.8397    5.5812   -0.2074 H   0  0  0  0  0  0  0  0  0  0  0  0
  1 32  1  0  0  0  0
  1  3  1  0  0  0  0
  2  1  1  0  0  0  0
  3 12  1  1  0  0  0
  4  5  1  0  0  0  0
  4  3  1  0  0  0  0
  6  8  1  0  0  0  0
  6  4  2  0  0  0  0
  7  6  1  0  0  0  0
  8 10  2  0  0  0  0
  9  8  1  0  0  0  0
 10  3  1  0  0  0  0
 10 11  1  0  0  0  0
 12 15  1  0  0  0  0
 13 12  1  0  0  0  0
 14 12  1  0  0  0  0
 15 30  2  0  0  0  0
 15 16  1  0  0  0  0
 16 18  2  0  0  0  0
 17 16  1  0  0  0  0
 18 20  1  0  0  0  0
 18 19  1  0  0  0  0
 20 21  1  0  0  0  0
 21 22  1  0  0  0  0
 22 24  1  0  0  0  0
 22 25  1  0  0  0  0
 23 22  1  0  0  0  0
 25 26  3  0  0  0  0
 26 27  1  0  0  0  0
 28 29  1  0  0  0  0
 28 20  2  0  0  0  0
 30 28  1  0  0  0  0
 31 30  1  0  0  0  0
 33 42  1  6  0  0  0
 33 40  1  0  0  0  0
 33 34  1  0  0  0  0
 33  1  1  0  0  0  0
 34 36  1  0  0  0  0
 35 34  1  0  0  0  0
 36 37  1  0  0  0  0
 38 39  1  0  0  0  0
 38 36  2  0  0  0  0
 40 38  1  0  0  0  0
 41 40  1  0  0  0  0
 42 43  1  0  0  0  0
 42 44  1  0  0  0  0
 45 42  1  0  0  0  0
 46 47  1  0  0  0  0
 46 45  2  0  0  0  0
 48 46  1  0  0  0  0
 49 48  1  0  0  0  0
 50 48  2  0  0  0  0
 50 58  1  0  0  0  0
 51 50  1  0  0  0  0
 52 53  1  0  0  0  0
 52 51  1  0  0  0  0
 54 52  1  0  0  0  0
 55 52  1  0  0  0  0
 56 55  3  0  0  0  0
 57 56  1  0  0  0  0
 58 60  2  0  0  0  0
 59 58  1  0  0  0  0
 60 45  1  0  0  0  0
 60 61  1  0  0  0  0
M  END
$$$$
