CSD_code = UWONUQ | q = 0 | S = 0 | Stoichiometry = C26H17BrN2O4PRe | MND = 6
 OpenBabel04212202103D

 52 55  0  0  0  0  0  0  0  0999 V2000
    2.9750    2.0239    2.9617 Re  0  0  0  0  0  0  0  0  0  0  0  0
    4.4039    0.7619    4.7545 Br  0  0  0  0  0  0  0  0  0  0  0  0
    1.2488    0.3056    3.4515 P   0  0  0  0  0  4  0  0  0  0  0  0
    2.2896    3.5916    5.5585 O   0  0  0  0  0  1  0  0  0  0  0  0
    1.1137    3.6104    1.0634 O   0  0  0  0  0  1  0  0  0  0  0  0
    4.1288    0.1081    0.8044 O   0  0  0  0  0  1  0  0  0  0  0  0
    5.4095    3.9257    2.6501 O   0  0  0  0  0  1  0  0  0  0  0  0
    0.5316    1.2751    5.7266 N   0  0  0  0  0  0  0  0  0  0  0  0
   -0.2357    2.8251    8.8508 N   0  0  0  0  0  0  0  0  0  0  0  0
    2.4239    3.0327    4.5796 C   0  0  0  0  0  2  0  0  0  0  0  0
    1.8007    3.0103    1.7544 C   0  0  0  0  0  2  0  0  0  0  0  0
    3.6915    0.8365    1.5623 C   0  0  0  0  0  2  0  0  0  0  0  0
    4.4923    3.2545    2.7364 C   0  0  0  0  0  2  0  0  0  0  0  0
    1.0092    0.1391    5.2417 C   0  0  0  0  0  0  0  0  0  0  0  0
    1.3678   -0.9474    6.0245 C   0  0  0  0  0  0  0  0  0  0  0  0
    1.7710   -1.8428    5.5770 H   0  0  0  0  0  0  0  0  0  0  0  0
    1.2160   -0.8144    7.3980 C   0  0  0  0  0  0  0  0  0  0  0  0
    1.5032   -1.6225    8.0544 H   0  0  0  0  0  0  0  0  0  0  0  0
    0.7091    0.3634    7.9147 C   0  0  0  0  0  0  0  0  0  0  0  0
    0.5824    0.5192    8.9735 H   0  0  0  0  0  0  0  0  0  0  0  0
    0.3643    1.3966    7.0386 C   0  0  0  0  0  0  0  0  0  0  0  0
   -0.1833    2.6673    7.5298 C   0  0  0  0  0  0  0  0  0  0  0  0
   -0.6237    3.6486    6.6405 C   0  0  0  0  0  0  0  0  0  0  0  0
   -0.5763    3.4676    5.5780 H   0  0  0  0  0  0  0  0  0  0  0  0
   -1.1130    4.8356    7.1552 C   0  0  0  0  0  0  0  0  0  0  0  0
   -1.4565    5.6189    6.4947 H   0  0  0  0  0  0  0  0  0  0  0  0
   -1.1535    5.0019    8.5309 C   0  0  0  0  0  0  0  0  0  0  0  0
   -1.5235    5.9135    8.9735 H   0  0  0  0  0  0  0  0  0  0  0  0
   -0.7055    3.9585    9.3302 C   0  0  0  0  0  0  0  0  0  0  0  0
   -0.7221    4.0341   10.4100 H   0  0  0  0  0  0  0  0  0  0  0  0
    1.4927   -1.4110    2.8960 C   0  0  0  0  0  0  0  0  0  0  0  0
    0.4117   -2.1787    2.4701 C   0  0  0  0  0  0  0  0  0  0  0  0
   -0.5799   -1.7495    2.4383 H   0  0  0  0  0  0  0  0  0  0  0  0
    0.6088   -3.4912    2.0826 C   0  0  0  0  0  0  0  0  0  0  0  0
   -0.2327   -4.0807    1.7493 H   0  0  0  0  0  0  0  0  0  0  0  0
    1.8768   -4.0488    2.1204 C   0  0  0  0  0  0  0  0  0  0  0  0
    2.0251   -5.0732    1.8132 H   0  0  0  0  0  0  0  0  0  0  0  0
    2.9517   -3.2918    2.5553 C   0  0  0  0  0  0  0  0  0  0  0  0
    3.9412   -3.7218    2.5938 H   0  0  0  0  0  0  0  0  0  0  0  0
    2.7641   -1.9774    2.9424 C   0  0  0  0  0  0  0  0  0  0  0  0
    3.6090   -1.4012    3.2916 H   0  0  0  0  0  0  0  0  0  0  0  0
   -0.3857    0.7225    2.7768 C   0  0  0  0  0  0  0  0  0  0  0  0
   -1.5253    0.9534    3.5343 C   0  0  0  0  0  0  0  0  0  0  0  0
   -1.4898    0.8759    4.6106 H   0  0  0  0  0  0  0  0  0  0  0  0
   -2.7091    1.2969    2.9026 C   0  0  0  0  0  0  0  0  0  0  0  0
   -3.5944    1.4791    3.4941 H   0  0  0  0  0  0  0  0  0  0  0  0
   -2.7619    1.4078    1.5238 C   0  0  0  0  0  0  0  0  0  0  0  0
   -3.6880    1.6787    1.0392 H   0  0  0  0  0  0  0  0  0  0  0  0
   -1.6252    1.1755    0.7640 C   0  0  0  0  0  0  0  0  0  0  0  0
   -1.6629    1.2635   -0.3114 H   0  0  0  0  0  0  0  0  0  0  0  0
   -0.4407    0.8392    1.3877 C   0  0  0  0  0  0  0  0  0  0  0  0
    0.4563    0.6579    0.8053 H   0  0  0  0  0  0  0  0  0  0  0  0
  1  3  1  0  0  0  0
  1 10  1  0  0  0  0
  1  2  1  0  0  0  0
  3 14  1  0  0  0  0
  5 11  1  0  0  0  0
  6 12  1  0  0  0  0
  7 13  1  0  0  0  0
  8 21  1  0  0  0  0
  9 29  1  0  0  0  0
 10  4  1  0  0  0  0
 11  1  1  0  0  0  0
 12  1  1  0  0  0  0
 13  1  1  0  0  0  0
 14  8  2  0  0  0  0
 14 15  1  0  0  0  0
 15 17  2  0  0  0  0
 16 15  1  0  0  0  0
 17 19  1  0  0  0  0
 17 18  1  0  0  0  0
 19 20  1  0  0  0  0
 21 22  1  0  0  0  0
 21 19  2  0  0  0  0
 22  9  2  0  0  0  0
 23 25  2  0  0  0  0
 23 22  1  0  0  0  0
 24 23  1  0  0  0  0
 25 27  1  0  0  0  0
 26 25  1  0  0  0  0
 27 28  1  0  0  0  0
 27 29  2  0  0  0  0
 29 30  1  0  0  0  0
 31 40  1  0  0  0  0
 31  3  1  0  0  0  0
 32 31  2  0  0  0  0
 33 32  1  0  0  0  0
 34 36  2  0  0  0  0
 34 32  1  0  0  0  0
 35 34  1  0  0  0  0
 36 38  1  0  0  0  0
 37 36  1  0  0  0  0
 38 39  1  0  0  0  0
 38 40  2  0  0  0  0
 40 41  1  0  0  0  0
 42  3  1  0  0  0  0
 42 43  1  0  0  0  0
 43 44  1  0  0  0  0
 45 46  1  0  0  0  0
 45 43  2  0  0  0  0
 47 45  1  0  0  0  0
 48 47  1  0  0  0  0
 49 51  1  0  0  0  0
 49 47  2  0  0  0  0
 50 49  1  0  0  0  0
 51 42  2  0  0  0  0
 52 51  1  0  0  0  0
M  END
$$$$
