CSD_code = UWUJON | q = 0 | S = 0 | Stoichiometry = C29H23BrNPPt | MND = 4
 OpenBabel04212202103D

 56 61  0  0  0  0  0  0  0  0999 V2000
   13.9570    9.2214    8.8354 Pt  0  0  1  0  0  0  0  0  0  0  0  0
   15.6860   10.0545   10.3963 Br  0  0  0  0  0  0  0  0  0  0  0  0
   13.2973    7.7684   10.4399 P   0  0  0  0  0  4  0  0  0  0  0  0
   14.4074   10.5323    7.3286 N   0  0  0  0  0  0  0  0  0  0  0  0
   12.5577    8.6593    7.4917 C   0  0  0  0  0  0  0  0  0  0  0  0
   11.6155    7.6392    7.5692 C   0  0  0  0  0  0  0  0  0  0  0  0
   11.5906    6.9840    8.4309 H   0  0  0  0  0  0  0  0  0  0  0  0
   10.6925    7.4220    6.5611 C   0  0  0  0  0  0  0  0  0  0  0  0
    9.9724    6.6216    6.6571 H   0  0  0  0  0  0  0  0  0  0  0  0
   10.6878    8.2265    5.4326 C   0  0  0  0  0  0  0  0  0  0  0  0
    9.9645    8.0608    4.6478 H   0  0  0  0  0  0  0  0  0  0  0  0
   11.6189    9.2370    5.3134 C   0  0  0  0  0  0  0  0  0  0  0  0
   11.6166    9.8539    4.4269 H   0  0  0  0  0  0  0  0  0  0  0  0
   12.5517    9.4565    6.3273 C   0  0  0  0  0  0  0  0  0  0  0  0
   13.5839   10.4811    6.2577 C   0  0  0  0  0  0  0  0  0  0  0  0
   13.7649   11.3545    5.1850 C   0  0  0  0  0  0  0  0  0  0  0  0
   13.0998   11.3083    4.3383 H   0  0  0  0  0  0  0  0  0  0  0  0
   14.7932   12.2752    5.2084 C   0  0  0  0  0  0  0  0  0  0  0  0
   14.9389   12.9555    4.3827 H   0  0  0  0  0  0  0  0  0  0  0  0
   15.6330   12.3044    6.3115 C   0  0  0  0  0  0  0  0  0  0  0  0
   16.4531   13.0003    6.3774 H   0  0  0  0  0  0  0  0  0  0  0  0
   15.4006   11.4163    7.3451 C   0  0  0  0  0  0  0  0  0  0  0  0
   16.0400   11.4243    8.2181 H   0  0  0  0  0  0  0  0  0  0  0  0
   13.9732    7.8385   12.1314 C   0  0  0  0  0  0  0  0  0  0  0  0
   15.2267    7.2749   12.3582 C   0  0  0  0  0  0  0  0  0  0  0  0
   15.7522    6.7979   11.5411 H   0  0  0  0  0  0  0  0  0  0  0  0
   15.8013    7.3438   13.6114 C   0  0  0  0  0  0  0  0  0  0  0  0
   16.7762    6.9113   13.7802 H   0  0  0  0  0  0  0  0  0  0  0  0
   15.1326    7.9788   14.6465 C   0  0  0  0  0  0  0  0  0  0  0  0
   15.5848    8.0375   15.6254 H   0  0  0  0  0  0  0  0  0  0  0  0
   13.8915    8.5487   14.4223 C   0  0  0  0  0  0  0  0  0  0  0  0
   13.3736    9.0529   15.2251 H   0  0  0  0  0  0  0  0  0  0  0  0
   13.3111    8.4852   13.1673 C   0  0  0  0  0  0  0  0  0  0  0  0
   12.3467    8.9421   12.9934 H   0  0  0  0  0  0  0  0  0  0  0  0
   11.5176    8.0107   10.7499 C   0  0  0  0  0  0  0  0  0  0  0  0
   11.0766    9.3224   10.5927 C   0  0  0  0  0  0  0  0  0  0  0  0
   11.7929   10.0822   10.2797 H   0  0  0  0  0  0  0  0  0  0  0  0
    9.7537    9.6480   10.8200 C   0  0  0  0  0  0  0  0  0  0  0  0
    9.4164   10.6666   10.6988 H   0  0  0  0  0  0  0  0  0  0  0  0
    8.8590    8.6588   11.1973 C   0  0  0  0  0  0  0  0  0  0  0  0
    7.8221    8.9064   11.3706 H   0  0  0  0  0  0  0  0  0  0  0  0
    9.2903    7.3508   11.3422 C   0  0  0  0  0  0  0  0  0  0  0  0
    8.5887    6.5798   11.6256 H   0  0  0  0  0  0  0  0  0  0  0  0
   10.6173    7.0227   11.1226 C   0  0  0  0  0  0  0  0  0  0  0  0
   10.9434    5.9981   11.2250 H   0  0  0  0  0  0  0  0  0  0  0  0
   13.5617    6.0091   10.0600 C   0  0  0  0  0  0  0  0  0  0  0  0
   14.0692    5.6821    8.8074 C   0  0  0  0  0  0  0  0  0  0  0  0
   14.2757    6.4817    8.1014 H   0  0  0  0  0  0  0  0  0  0  0  0
   14.3109    4.3612    8.4771 C   0  0  0  0  0  0  0  0  0  0  0  0
   14.7059    4.1112    7.5036 H   0  0  0  0  0  0  0  0  0  0  0  0
   14.0499    3.3610    9.3994 C   0  0  0  0  0  0  0  0  0  0  0  0
   14.2344    2.3282    9.1432 H   0  0  0  0  0  0  0  0  0  0  0  0
   13.5675    3.6841   10.6582 C   0  0  0  0  0  0  0  0  0  0  0  0
   13.3826    2.9040   11.3823 H   0  0  0  0  0  0  0  0  0  0  0  0
   13.3319    5.0044   10.9954 C   0  0  0  0  0  0  0  0  0  0  0  0
   12.9918    5.2592   11.9901 H   0  0  0  0  0  0  0  0  0  0  0  0
  1  2  1  6  0  0  0
  1  3  1  0  0  0  0
  3 35  1  0  0  0  0
  3 24  1  0  0  0  0
  4 22  1  0  0  0  0
  4  1  1  0  0  0  0
  5  6  1  0  0  0  0
  5  1  2  0  0  0  0
  6  7  1  0  0  0  0
  8  9  1  0  0  0  0
  8  6  2  0  0  0  0
 10  8  1  0  0  0  0
 11 10  1  0  0  0  0
 12 10  2  0  0  0  0
 12 14  1  0  0  0  0
 13 12  1  0  0  0  0
 14  5  1  0  0  0  0
 15 14  2  0  0  0  0
 15  4  1  0  0  0  0
 16 18  2  0  0  0  0
 16 15  1  0  0  0  0
 17 16  1  0  0  0  0
 18 20  1  0  0  0  0
 19 18  1  0  0  0  0
 20 21  1  0  0  0  0
 20 22  2  0  0  0  0
 22 23  1  0  0  0  0
 24 25  2  0  0  0  0
 24 33  1  0  0  0  0
 25 27  1  0  0  0  0
 26 25  1  0  0  0  0
 27 28  1  0  0  0  0
 27 29  2  0  0  0  0
 29 30  1  0  0  0  0
 31 29  1  0  0  0  0
 31 32  1  0  0  0  0
 33 31  2  0  0  0  0
 34 33  1  0  0  0  0
 35 44  1  0  0  0  0
 36 35  2  0  0  0  0
 36 38  1  0  0  0  0
 37 36  1  0  0  0  0
 38 40  2  0  0  0  0
 39 38  1  0  0  0  0
 40 42  1  0  0  0  0
 40 41  1  0  0  0  0
 42 43  1  0  0  0  0
 44 45  1  0  0  0  0
 44 42  2  0  0  0  0
 46  3  1  0  0  0  0
 46 55  1  0  0  0  0
 47 46  2  0  0  0  0
 48 47  1  0  0  0  0
 49 47  1  0  0  0  0
 49 51  2  0  0  0  0
 50 49  1  0  0  0  0
 51 53  1  0  0  0  0
 52 51  1  0  0  0  0
 53 55  2  0  0  0  0
 53 54  1  0  0  0  0
 55 56  1  0  0  0  0
M  END
$$$$
