CSD_code = UWUJEC | q = 0 | S = 0 | Stoichiometry = C26H22ClN4O2PPdS | MND = 4
 OpenBabel04212202103D

 58 62  0  0  0  0  0  0  0  0999 V2000
    4.3444   31.2670    1.2483 Pd  0  0  1  0  0  0  0  0  0  0  0  0
    3.3686   30.3766   -0.6227 Cl  0  0  0  0  0  0  0  0  0  0  0  0
    5.4841   32.0591    3.0987 S   0  0  0  0  0  0  0  0  0  0  0  0
    6.3811   33.2256    2.1887 C   0  0  0  0  0  0  0  0  0  0  0  0
    7.3770   33.8575    2.8385 N   0  0  0  0  0  0  0  0  0  0  0  0
    7.8555   34.6214    2.3945 H   0  0  0  0  0  0  0  0  0  0  0  0
    7.4856   33.7081    3.8255 H   0  0  0  0  0  0  0  0  0  0  0  0
    6.1483   33.5477    0.9451 N   0  0  0  0  0  0  0  0  0  0  0  0
    5.1933   32.8647    0.2971 N   0  0  0  0  0  0  0  0  0  0  0  0
    4.7793   33.2688   -0.8648 C   0  0  0  0  0  3  0  0  0  0  0  0
    4.0267   32.6356   -1.3266 H   0  0  0  0  0  0  0  0  0  0  0  0
    5.1847   34.4202   -1.6367 C   0  0  0  0  0  0  0  0  0  0  0  0
    4.5230   34.6352   -2.8587 C   0  0  0  0  0  0  0  0  0  0  0  0
    3.7563   33.9421   -3.1709 H   0  0  0  0  0  0  0  0  0  0  0  0
    4.8371   35.7107   -3.6551 C   0  0  0  0  0  0  0  0  0  0  0  0
    4.3325   35.8856   -4.5929 H   0  0  0  0  0  0  0  0  0  0  0  0
    5.8307   36.5970   -3.2441 C   0  0  0  0  0  0  0  0  0  0  0  0
    6.5055   36.4005   -2.0427 C   0  0  0  0  0  0  0  0  0  0  0  0
    7.2739   37.1015   -1.7540 H   0  0  0  0  0  0  0  0  0  0  0  0
    6.1842   35.3243   -1.2464 C   0  0  0  0  0  0  0  0  0  0  0  0
    6.6998   35.1603   -0.3149 H   0  0  0  0  0  0  0  0  0  0  0  0
    6.1618   37.7232   -4.0669 N   0  0  0  0  0  0  0  0  0  0  0  0
    5.5485   37.8668   -5.1062 O   0  0  0  0  0  0  0  0  0  0  0  0
    7.0365   38.4723   -3.6772 O   0  0  0  0  0  0  0  0  0  0  0  0
    3.3605   29.5167    2.2352 P   0  0  0  0  0  4  0  0  0  0  0  0
    4.2332   28.0034    1.7470 C   0  0  0  0  0  0  0  0  0  0  0  0
    5.3718   28.1566    0.9587 C   0  0  0  0  0  0  0  0  0  0  0  0
    5.6727   29.1615    0.6328 H   0  0  0  0  0  0  0  0  0  0  0  0
    6.1114   27.0475    0.5905 C   0  0  0  0  0  0  0  0  0  0  0  0
    6.9906   27.1639   -0.0255 H   0  0  0  0  0  0  0  0  0  0  0  0
    5.7224   25.7869    1.0145 C   0  0  0  0  0  0  0  0  0  0  0  0
    6.2956   24.9199    0.7216 H   0  0  0  0  0  0  0  0  0  0  0  0
    4.6086   25.6354    1.8257 C   0  0  0  0  0  0  0  0  0  0  0  0
    4.3215   24.6527    2.1700 H   0  0  0  0  0  0  0  0  0  0  0  0
    3.8680   26.7405    2.2032 C   0  0  0  0  0  0  0  0  0  0  0  0
    3.0189   26.6307    2.8638 H   0  0  0  0  0  0  0  0  0  0  0  0
    1.6124   29.4894    1.7564 C   0  0  0  0  0  0  0  0  0  0  0  0
    1.0397   30.7587    1.6670 C   0  0  0  0  0  0  0  0  0  0  0  0
    1.6683   31.6382    1.8557 H   0  0  0  0  0  0  0  0  0  0  0  0
   -0.2879   30.8956    1.3147 C   0  0  0  0  0  0  0  0  0  0  0  0
   -0.7328   31.8767    1.2402 H   0  0  0  0  0  0  0  0  0  0  0  0
   -1.0452   29.7657    1.0401 C   0  0  0  0  0  0  0  0  0  0  0  0
   -2.0814   29.8699    0.7547 H   0  0  0  0  0  0  0  0  0  0  0  0
   -0.4728   28.5073    1.1123 C   0  0  0  0  0  0  0  0  0  0  0  0
   -1.0622   27.6324    0.8804 H   0  0  0  0  0  0  0  0  0  0  0  0
    0.8572   28.3619    1.4721 C   0  0  0  0  0  0  0  0  0  0  0  0
    1.3071   27.3811    1.5069 H   0  0  0  0  0  0  0  0  0  0  0  0
    3.3130   29.3246    4.0458 C   0  0  0  0  0  0  0  0  0  0  0  0
    2.1385   29.3861    4.7851 C   0  0  0  0  0  0  0  0  0  0  0  0
    1.1914   29.5357    4.2852 H   0  0  0  0  0  0  0  0  0  0  0  0
    2.1864   29.2538    6.1624 C   0  0  0  0  0  0  0  0  0  0  0  0
    1.2723   29.2993    6.7363 H   0  0  0  0  0  0  0  0  0  0  0  0
    3.3990   29.0673    6.8037 C   0  0  0  0  0  0  0  0  0  0  0  0
    3.4308   28.9677    7.8785 H   0  0  0  0  0  0  0  0  0  0  0  0
    4.5738   29.0143    6.0684 C   0  0  0  0  0  0  0  0  0  0  0  0
    5.5202   28.8753    6.5696 H   0  0  0  0  0  0  0  0  0  0  0  0
    4.5325   29.1445    4.6946 C   0  0  0  0  0  0  0  0  0  0  0  0
    5.4431   29.1172    4.1082 H   0  0  0  0  0  0  0  0  0  0  0  0
  1  2  1  6  0  0  0
  1 25  1  0  0  0  0
  1  3  1  0  0  0  0
  4  5  1  0  0  0  0
  4  3  1  0  0  0  0
  5  7  1  0  0  0  0
  6  5  1  0  0  0  0
  8  4  2  0  0  0  0
  9  8  1  0  0  0  0
  9  1  1  0  0  0  0
 10  9  1  0  0  0  0
 11 10  1  0  0  0  0
 12 20  1  0  0  0  0
 12 10  1  0  0  0  0
 13 12  2  0  0  0  0
 14 13  1  0  0  0  0
 15 17  2  0  0  0  0
 15 13  1  0  0  0  0
 16 15  1  0  0  0  0
 17 18  1  0  0  0  0
 18 19  1  0  0  0  0
 18 20  2  0  0  0  0
 20 21  1  0  0  0  0
 22 24  2  0  0  0  0
 22 17  1  0  0  0  0
 23 22  2  0  0  0  0
 25 48  1  0  0  0  0
 26 35  1  0  0  0  0
 26 25  1  0  0  0  0
 27 26  2  0  0  0  0
 28 27  1  0  0  0  0
 29 27  1  0  0  0  0
 29 31  2  0  0  0  0
 30 29  1  0  0  0  0
 31 33  1  0  0  0  0
 32 31  1  0  0  0  0
 33 34  1  0  0  0  0
 33 35  2  0  0  0  0
 35 36  1  0  0  0  0
 37 25  1  0  0  0  0
 38 37  1  0  0  0  0
 38 39  1  0  0  0  0
 40 38  2  0  0  0  0
 41 40  1  0  0  0  0
 42 44  2  0  0  0  0
 42 40  1  0  0  0  0
 43 42  1  0  0  0  0
 44 46  1  0  0  0  0
 45 44  1  0  0  0  0
 46 47  1  0  0  0  0
 46 37  2  0  0  0  0
 48 57  2  0  0  0  0
 48 49  1  0  0  0  0
 49 51  2  0  0  0  0
 50 49  1  0  0  0  0
 51 52  1  0  0  0  0
 51 53  1  0  0  0  0
 53 54  1  0  0  0  0
 55 56  1  0  0  0  0
 55 53  2  0  0  0  0
 57 55  1  0  0  0  0
 58 57  1  0  0  0  0
M  END
$$$$
