CSD_code = UWULEF | q = 0 | S = 0 | Stoichiometry = C29H23ClNPPt | MND = 4
 OpenBabel04212202103D

 56 61  0  0  0  0  0  0  0  0999 V2000
    6.3821    6.2209    3.9519 Pt  0  0  2  0  0  0  0  0  0  0  0  0
    4.7723    5.4353    2.4094 Cl  0  0  0  0  0  0  0  0  0  0  0  0
    7.0353    7.6547    2.3364 P   0  0  0  0  0  4  0  0  0  0  0  0
    5.8604    4.9133    5.3990 N   0  0  0  0  0  0  0  0  0  0  0  0
    8.8115    7.4075    2.0144 C   0  0  0  0  0  0  0  0  0  0  0  0
    9.6992    8.3821    1.5804 C   0  0  0  0  0  0  0  0  0  0  0  0
    9.3625    9.3971    1.4286 H   0  0  0  0  0  0  0  0  0  0  0  0
   11.0267    8.0534    1.3626 C   0  0  0  0  0  0  0  0  0  0  0  0
   11.7185    8.8134    1.0295 H   0  0  0  0  0  0  0  0  0  0  0  0
   11.4706    6.7584    1.5718 C   0  0  0  0  0  0  0  0  0  0  0  0
   12.5072    6.5099    1.3985 H   0  0  0  0  0  0  0  0  0  0  0  0
   10.5884    5.7833    2.0114 C   0  0  0  0  0  0  0  0  0  0  0  0
   10.9364    4.7753    2.1824 H   0  0  0  0  0  0  0  0  0  0  0  0
    9.2651    6.1089    2.2361 C   0  0  0  0  0  0  0  0  0  0  0  0
    8.5548    5.3644    2.5972 H   0  0  0  0  0  0  0  0  0  0  0  0
    6.3208    7.5194    0.6680 C   0  0  0  0  0  0  0  0  0  0  0  0
    6.9602    6.8381   -0.3599 C   0  0  0  0  0  0  0  0  0  0  0  0
    7.9362    6.4027   -0.1954 H   0  0  0  0  0  0  0  0  0  0  0  0
    6.3415    6.7110   -1.5917 C   0  0  0  0  0  0  0  0  0  0  0  0
    6.8407    6.1791   -2.3887 H   0  0  0  0  0  0  0  0  0  0  0  0
    5.0846    7.2519   -1.7998 C   0  0  0  0  0  0  0  0  0  0  0  0
    4.6017    7.1427   -2.7598 H   0  0  0  0  0  0  0  0  0  0  0  0
    4.4396    7.9232   -0.7723 C   0  0  0  0  0  0  0  0  0  0  0  0
    3.4529    8.3337   -0.9293 H   0  0  0  0  0  0  0  0  0  0  0  0
    5.0527    8.0557    0.4576 C   0  0  0  0  0  0  0  0  0  0  0  0
    4.5487    8.5604    1.2715 H   0  0  0  0  0  0  0  0  0  0  0  0
    6.7897    9.4252    2.6712 C   0  0  0  0  0  0  0  0  0  0  0  0
    6.9788   10.4005    1.6964 C   0  0  0  0  0  0  0  0  0  0  0  0
    7.2654   10.1131    0.6936 H   0  0  0  0  0  0  0  0  0  0  0  0
    6.7730   11.7325    2.0066 C   0  0  0  0  0  0  0  0  0  0  0  0
    6.9252   12.4900    1.2514 H   0  0  0  0  0  0  0  0  0  0  0  0
    6.3639   12.0964    3.2801 C   0  0  0  0  0  0  0  0  0  0  0  0
    6.2033   13.1381    3.5158 H   0  0  0  0  0  0  0  0  0  0  0  0
    6.1449   11.1254    4.2439 C   0  0  0  0  0  0  0  0  0  0  0  0
    5.8067   11.4081    5.2298 H   0  0  0  0  0  0  0  0  0  0  0  0
    6.3550    9.7926    3.9399 C   0  0  0  0  0  0  0  0  0  0  0  0
    6.1783    9.0136    4.6753 H   0  0  0  0  0  0  0  0  0  0  0  0
    7.7281    6.7490    5.3529 C   0  0  0  0  0  0  0  0  0  0  0  0
    7.6455    5.9687    6.5282 C   0  0  0  0  0  0  0  0  0  0  0  0
    6.5956    4.9584    6.5320 C   0  0  0  0  0  0  0  0  0  0  0  0
    4.8685    4.0370    5.2877 C   0  0  0  0  0  0  0  0  0  0  0  0
    4.3195    4.0512    4.3534 H   0  0  0  0  0  0  0  0  0  0  0  0
    4.5450    3.1478    6.2965 C   0  0  0  0  0  0  0  0  0  0  0  0
    3.7316    2.4532    6.1628 H   0  0  0  0  0  0  0  0  0  0  0  0
    5.2871    3.1739    7.4684 C   0  0  0  0  0  0  0  0  0  0  0  0
    5.0645    2.4943    8.2776 H   0  0  0  0  0  0  0  0  0  0  0  0
    6.3180    4.0861    7.5844 C   0  0  0  0  0  0  0  0  0  0  0  0
    6.9080    4.1262    8.4855 H   0  0  0  0  0  0  0  0  0  0  0  0
    8.5183    6.1803    7.5949 C   0  0  0  0  0  0  0  0  0  0  0  0
    8.4490    5.5780    8.4890 H   0  0  0  0  0  0  0  0  0  0  0  0
    9.4820    7.1647    7.5161 C   0  0  0  0  0  0  0  0  0  0  0  0
   10.1585    7.3277    8.3424 H   0  0  0  0  0  0  0  0  0  0  0  0
    9.5748    7.9434    6.3730 C   0  0  0  0  0  0  0  0  0  0  0  0
   10.3260    8.7180    6.3088 H   0  0  0  0  0  0  0  0  0  0  0  0
    8.7094    7.7351    5.3125 C   0  0  0  0  0  0  0  0  0  0  0  0
    8.8071    8.3654    4.4369 H   0  0  0  0  0  0  0  0  0  0  0  0
  1  2  1  1  0  0  0
  1 38  2  0  0  0  0
  1  4  1  0  0  0  0
  3 27  1  0  0  0  0
  3  1  1  0  0  0  0
  4 40  1  0  0  0  0
  5 14  1  0  0  0  0
  5  3  1  0  0  0  0
  6  5  2  0  0  0  0
  7  6  1  0  0  0  0
  8 10  2  0  0  0  0
  8  6  1  0  0  0  0
  9  8  1  0  0  0  0
 10 12  1  0  0  0  0
 11 10  1  0  0  0  0
 12 13  1  0  0  0  0
 12 14  2  0  0  0  0
 14 15  1  0  0  0  0
 16  3  1  0  0  0  0
 17 18  1  0  0  0  0
 17 16  2  0  0  0  0
 19 17  1  0  0  0  0
 20 19  1  0  0  0  0
 21 19  2  0  0  0  0
 21 23  1  0  0  0  0
 22 21  1  0  0  0  0
 23 25  2  0  0  0  0
 24 23  1  0  0  0  0
 25 16  1  0  0  0  0
 25 26  1  0  0  0  0
 27 36  1  0  0  0  0
 28 30  1  0  0  0  0
 28 27  2  0  0  0  0
 29 28  1  0  0  0  0
 30 32  2  0  0  0  0
 31 30  1  0  0  0  0
 32 33  1  0  0  0  0
 32 34  1  0  0  0  0
 34 35  1  0  0  0  0
 36 34  2  0  0  0  0
 36 37  1  0  0  0  0
 38 39  1  0  0  0  0
 39 40  2  0  0  0  0
 39 49  1  0  0  0  0
 40 47  1  0  0  0  0
 41  4  1  0  0  0  0
 41 43  2  0  0  0  0
 42 41  1  0  0  0  0
 43 45  1  0  0  0  0
 44 43  1  0  0  0  0
 45 47  2  0  0  0  0
 45 46  1  0  0  0  0
 47 48  1  0  0  0  0
 49 50  1  0  0  0  0
 51 49  2  0  0  0  0
 51 52  1  0  0  0  0
 53 51  1  0  0  0  0
 54 53  1  0  0  0  0
 55 38  1  0  0  0  0
 55 53  2  0  0  0  0
 56 55  1  0  0  0  0
M  END
$$$$
