CSD_code = UXADON | q = 0 | S = 0 | Stoichiometry = C21H30Cl2N2O3Ti | MND = 6
 OpenBabel04212202103D

 59 63  0  0  1  0  0  0  0  0999 V2000
    6.8948    6.2577    1.5947 Ti  0  0  0  0  0  0  0  0  0  0  0  0
    6.3341    6.6910    3.7178 Cl  0  0  0  0  0  0  0  0  0  0  0  0
    4.8590    7.0644    0.9001 Cl  0  0  0  0  0  0  0  0  0  0  0  0
    7.2458    5.6107    0.0837 O   0  0  0  0  0  0  0  0  0  0  0  0
    9.3733    9.7140    1.1757 O   0  0  0  0  0  0  0  0  0  0  0  0
    8.7368    2.9606    3.5637 O   0  0  0  0  0  0  0  0  0  0  0  0
    7.6193    8.3345    1.2594 N   0  0  2  0  0  0  0  0  0  0  0  0
    7.2585    4.2552    2.5051 N   0  0  1  0  0  0  0  0  0  0  0  0
    8.8875    6.2690    2.1181 C   0  0  0  0  0  0  0  0  0  0  0  0
    9.4616    5.1275    2.6746 C   0  0  0  0  0  0  0  0  0  0  0  0
   10.8105    5.1015    3.0287 C   0  0  0  0  0  0  0  0  0  0  0  0
   11.2441    4.2166    3.4716 H   0  0  0  0  0  0  0  0  0  0  0  0
   11.5841    6.2337    2.8121 C   0  0  0  0  0  0  0  0  0  0  0  0
   12.6300    6.2187    3.0816 H   0  0  0  0  0  0  0  0  0  0  0  0
   11.0375    7.3921    2.2756 C   0  0  0  0  0  0  0  0  0  0  0  0
   11.6456    8.2739    2.1345 H   0  0  0  0  0  0  0  0  0  0  0  0
    9.6860    7.3966    1.9356 C   0  0  0  0  0  0  0  0  0  0  0  0
    8.8833    8.5019    1.4391 C   0  0  2  0  0  3  0  0  0  0  0  0
    8.2801   10.5095    0.7089 C   0  0  0  0  0  0  0  0  0  0  0  0
    8.4563   10.7477   -0.3447 H   0  0  0  0  0  0  0  0  0  0  0  0
    8.2565   11.4336    1.2873 H   0  0  0  0  0  0  0  0  0  0  0  0
    7.0303    9.6189    0.9168 C   0  0  2  0  0  0  0  0  0  0  0  0
    6.4436    9.5175   -0.0033 H   0  0  0  0  0  0  0  0  0  0  0  0
    6.0766   10.0921    2.0363 C   0  0  0  0  0  0  0  0  0  0  0  0
    5.3279    9.2996    2.1491 H   0  0  0  0  0  0  0  0  0  0  0  0
    5.3665   11.3751    1.6133 C   0  0  0  0  0  0  0  0  0  0  0  0
    6.0713   12.1940    1.4793 H   0  0  0  0  0  0  0  0  0  0  0  0
    4.6491   11.6657    2.3758 H   0  0  0  0  0  0  0  0  0  0  0  0
    4.8291   11.2237    0.6804 H   0  0  0  0  0  0  0  0  0  0  0  0
    6.7891   10.2593    3.3762 C   0  0  0  0  0  0  0  0  0  0  0  0
    7.2386    9.3169    3.6867 H   0  0  0  0  0  0  0  0  0  0  0  0
    6.0658   10.5467    4.1349 H   0  0  0  0  0  0  0  0  0  0  0  0
    7.5606   11.0270    3.3371 H   0  0  0  0  0  0  0  0  0  0  0  0
    8.4707    4.0879    2.8953 C   0  0  1  0  0  3  0  0  0  0  0  0
    7.5111    2.2367    3.6700 C   0  0  0  0  0  0  0  0  0  0  0  0
    7.2976    2.0758    4.7290 H   0  0  0  0  0  0  0  0  0  0  0  0
    7.6358    1.2680    3.1770 H   0  0  0  0  0  0  0  0  0  0  0  0
    6.4586    3.1386    2.9736 C   0  0  2  0  0  0  0  0  0  0  0  0
    5.7332    3.5264    3.7042 H   0  0  0  0  0  0  0  0  0  0  0  0
    5.6838    2.4775    1.8194 C   0  0  0  0  0  0  0  0  0  0  0  0
    5.2504    1.5441    2.2000 H   0  0  0  0  0  0  0  0  0  0  0  0
    4.5602    3.4162    1.3828 C   0  0  0  0  0  0  0  0  0  0  0  0
    3.8613    3.5890    2.1999 H   0  0  0  0  0  0  0  0  0  0  0  0
    4.0097    2.9916    0.5463 H   0  0  0  0  0  0  0  0  0  0  0  0
    4.9806    4.3819    1.0753 H   0  0  0  0  0  0  0  0  0  0  0  0
    6.6096    2.1676    0.6440 C   0  0  0  0  0  0  0  0  0  0  0  0
    6.0472    1.6984   -0.1600 H   0  0  0  0  0  0  0  0  0  0  0  0
    7.4119    1.4911    0.9329 H   0  0  0  0  0  0  0  0  0  0  0  0
    7.0516    3.0944    0.2759 H   0  0  0  0  0  0  0  0  0  0  0  0
    7.2947    5.6040   -1.2946 C   0  0  0  0  0  0  0  0  0  0  0  0
    8.0931    4.9039   -1.6173 H   0  0  0  0  0  0  0  0  0  0  0  0
    7.6326    7.0142   -1.7979 C   0  0  0  0  0  0  0  0  0  0  0  0
    6.8236    7.6838   -1.5055 H   0  0  0  0  0  0  0  0  0  0  0  0
    7.7371    7.0202   -2.8801 H   0  0  0  0  0  0  0  0  0  0  0  0
    8.5652    7.3512   -1.3431 H   0  0  0  0  0  0  0  0  0  0  0  0
    5.9458    5.1482   -1.8705 C   0  0  0  0  0  0  0  0  0  0  0  0
    5.7480    4.1135   -1.6010 H   0  0  0  0  0  0  0  0  0  0  0  0
    5.9489    5.2380   -2.9535 H   0  0  0  0  0  0  0  0  0  0  0  0
    5.1604    5.7783   -1.4537 H   0  0  0  0  0  0  0  0  0  0  0  0
  1  9  1  0  0  0  0
  1  8  1  0  0  0  0
  1  2  1  0  0  0  0
  3  1  1  0  0  0  0
  4  1  1  0  0  0  0
  5 18  1  0  0  0  0
  6 35  1  0  0  0  0
  7 18  1  0  0  0  0
  7  1  1  0  0  0  0
  8 34  1  0  0  0  0
  8 38  1  0  0  0  0
  9 10  1  0  0  0  0
 10 34  1  0  0  0  0
 10 11  2  0  0  0  0
 11 12  1  0  0  0  0
 13 11  1  0  0  0  0
 13 14  1  0  0  0  0
 15 13  2  0  0  0  0
 16 15  1  0  0  0  0
 17  9  2  0  0  0  0
 17 15  1  0  0  0  0
 18 17  1  0  0  0  0
 19 22  1  0  0  0  0
 19  5  1  0  0  0  0
 19 21  1  0  0  0  0
 20 19  1  0  0  0  0
 22  7  1  0  0  0  0
 22 24  1  0  0  0  0
 23 22  1  0  0  0  0
 24 25  1  0  0  0  0
 24 30  1  0  0  0  0
 26 24  1  0  0  0  0
 26 28  1  0  0  0  0
 27 26  1  0  0  0  0
 29 26  1  0  0  0  0
 30 31  1  0  0  0  0
 30 32  1  0  0  0  0
 33 30  1  0  0  0  0
 34  6  1  0  0  0  0
 35 36  1  0  0  0  0
 37 35  1  0  0  0  0
 38 35  1  0  0  0  0
 38 39  1  0  0  0  0
 40 41  1  0  0  0  0
 40 38  1  0  0  0  0
 42 40  1  0  0  0  0
 42 43  1  0  0  0  0
 44 42  1  0  0  0  0
 45 42  1  0  0  0  0
 46 48  1  0  0  0  0
 46 40  1  0  0  0  0
 47 46  1  0  0  0  0
 49 46  1  0  0  0  0
 50  4  1  0  0  0  0
 51 50  1  0  0  0  0
 52 53  1  0  0  0  0
 52 55  1  0  0  0  0
 52 50  1  0  0  0  0
 54 52  1  0  0  0  0
 56 57  1  0  0  0  0
 56 59  1  0  0  0  0
 56 50  1  0  0  0  0
 58 56  1  0  0  0  0
M  END
$$$$
