CSD_code = UXOBEQ | q = 0 | S = 0 | Stoichiometry = C21H29BClN3NiO3 | MND = 4
 OpenBabel04212202103D

 59 64  0  0  1  0  0  0  0  0999 V2000
    7.9769    2.7518    7.3896 Ni  0  0  1  0  0  0  0  0  0  0  0  0
    9.0258    3.4367    8.9259 Cl  0  0  0  0  0  0  0  0  0  0  0  0
    6.1111    1.1255    4.3021 O   0  0  0  0  0  0  0  0  0  0  0  0
    3.9982    1.8596    8.1486 O   0  0  0  0  0  0  0  0  0  0  0  0
    5.3815    5.3764    5.6775 O   0  0  0  0  0  0  0  0  0  0  0  0
    7.1278    4.4553    6.6523 N   0  0  1  0  0  0  0  0  0  0  0  0
    7.4614    1.8640    5.8648 N   0  0  1  0  0  0  0  0  0  0  0  0
    6.1891    2.0528    8.3263 N   0  0  1  0  0  0  0  0  0  0  0  0
    5.8037    1.4841    9.6181 C   0  0  0  0  0  0  0  0  0  0  0  0
    5.9470    4.2819    6.1702 C   0  0  2  0  0  3  0  0  0  0  0  0
    4.2744    1.3131    9.4377 C   0  0  0  0  0  0  0  0  0  0  0  0
    3.9595    0.2654    9.4446 H   0  0  0  0  0  0  0  0  0  0  0  0
    3.6972    1.8663   10.1821 H   0  0  0  0  0  0  0  0  0  0  0  0
    5.1478    2.2410    7.5981 C   0  0  1  0  0  3  0  0  0  0  0  0
    8.8046   -0.1547    6.0581 C   0  0  0  0  0  0  0  0  0  0  0  0
    9.3085    0.3000    6.9148 H   0  0  0  0  0  0  0  0  0  0  0  0
    9.5021   -0.8179    5.5519 H   0  0  0  0  0  0  0  0  0  0  0  0
    7.9617   -0.7361    6.4268 H   0  0  0  0  0  0  0  0  0  0  0  0
    8.3204    0.9502    5.1171 C   0  0  0  0  0  0  0  0  0  0  0  0
    7.3421    0.4459    4.0316 C   0  0  0  0  0  0  0  0  0  0  0  0
    7.6632    0.7018    3.0185 H   0  0  0  0  0  0  0  0  0  0  0  0
    7.1619   -0.6310    4.0898 H   0  0  0  0  0  0  0  0  0  0  0  0
    6.2996    6.4625    5.8070 C   0  0  0  0  0  0  0  0  0  0  0  0
    5.8130    7.2646    6.3661 H   0  0  0  0  0  0  0  0  0  0  0  0
    6.5507    6.8234    4.8052 H   0  0  0  0  0  0  0  0  0  0  0  0
    6.5356    0.1596    9.8222 C   0  0  0  0  0  0  0  0  0  0  0  0
    6.2773   -0.5440    9.0330 H   0  0  0  0  0  0  0  0  0  0  0  0
    6.2770   -0.2745   10.7845 H   0  0  0  0  0  0  0  0  0  0  0  0
    7.6083    0.3405    9.7919 H   0  0  0  0  0  0  0  0  0  0  0  0
    2.7795    3.7904    6.0988 C   0  0  0  0  0  0  0  0  0  0  0  0
    3.0639    4.2991    7.0089 H   0  0  0  0  0  0  0  0  0  0  0  0
    7.5161    5.8648    6.5550 C   0  0  0  0  0  0  0  0  0  0  0  0
    2.0234    2.5096    3.7838 C   0  0  0  0  0  0  0  0  0  0  0  0
    1.7341    2.0026    2.8731 H   0  0  0  0  0  0  0  0  0  0  0  0
    9.5029    1.7361    4.5475 C   0  0  0  0  0  0  0  0  0  0  0  0
    9.1530    2.4975    3.8529 H   0  0  0  0  0  0  0  0  0  0  0  0
   10.1953    1.0744    4.0325 H   0  0  0  0  0  0  0  0  0  0  0  0
   10.0292    2.2335    5.3650 H   0  0  0  0  0  0  0  0  0  0  0  0
    3.7165    2.9841    5.4530 C   0  0  0  0  0  0  0  0  0  0  0  0
    6.2810    1.9049    5.3660 C   0  0  2  0  0  3  0  0  0  0  0  0
    1.1127    3.3140    4.4438 C   0  0  0  0  0  0  0  0  0  0  0  0
    0.1115    3.4399    4.0555 H   0  0  0  0  0  0  0  0  0  0  0  0
    6.1401    2.4668   10.7391 C   0  0  0  0  0  0  0  0  0  0  0  0
    7.2099    2.6580   10.7517 H   0  0  0  0  0  0  0  0  0  0  0  0
    5.8372    2.0579   11.7000 H   0  0  0  0  0  0  0  0  0  0  0  0
    5.6281    3.4123   10.5741 H   0  0  0  0  0  0  0  0  0  0  0  0
    3.3048    2.3504    4.2847 C   0  0  0  0  0  0  0  0  0  0  0  0
    3.9983    1.7166    3.7535 H   0  0  0  0  0  0  0  0  0  0  0  0
    8.8215    5.9705    5.7707 C   0  0  0  0  0  0  0  0  0  0  0  0
    9.5863    5.3895    6.2839 H   0  0  0  0  0  0  0  0  0  0  0  0
    9.1465    7.0056    5.7074 H   0  0  0  0  0  0  0  0  0  0  0  0
    8.6961    5.5731    4.7654 H   0  0  0  0  0  0  0  0  0  0  0  0
    1.4981    3.9564    5.6080 C   0  0  0  0  0  0  0  0  0  0  0  0
    0.7945    4.5884    6.1328 H   0  0  0  0  0  0  0  0  0  0  0  0
    7.6708    6.4666    7.9512 C   0  0  0  0  0  0  0  0  0  0  0  0
    6.7442    6.3575    8.5105 H   0  0  0  0  0  0  0  0  0  0  0  0
    7.9221    7.5218    7.8766 H   0  0  0  0  0  0  0  0  0  0  0  0
    8.4579    5.9485    8.4925 H   0  0  0  0  0  0  0  0  0  0  0  0
    5.1811    2.8471    6.0864 B   0  0  1  0  0  0  0  0  0  0  0  0
  1  8  1  0  0  0  0
  1  2  1  1  0  0  0
  4 11  1  0  0  0  0
  5 23  1  0  0  0  0
  6 32  1  1  0  0  0
  6  1  1  0  0  0  0
  7 19  1  1  0  0  0
  7  1  1  0  0  0  0
  8  9  1  1  0  0  0
  9 26  1  0  0  0  0
  9 43  1  0  0  0  0
 10  5  1  6  0  0  0
 10  6  1  0  0  0  0
 11 12  1  0  0  0  0
 11  9  1  0  0  0  0
 11 13  1  0  0  0  0
 14  4  1  6  0  0  0
 14  8  1  0  0  0  0
 15 18  1  0  0  0  0
 15 16  1  0  0  0  0
 17 15  1  0  0  0  0
 19 15  1  0  0  0  0
 20 22  1  0  0  0  0
 20  3  1  0  0  0  0
 20 19  1  0  0  0  0
 21 20  1  0  0  0  0
 23 24  1  0  0  0  0
 23 32  1  0  0  0  0
 25 23  1  0  0  0  0
 26 28  1  0  0  0  0
 27 26  1  0  0  0  0
 29 26  1  0  0  0  0
 30 31  1  0  0  0  0
 32 55  1  0  0  0  0
 33 47  2  0  0  0  0
 33 41  1  0  0  0  0
 34 33  1  0  0  0  0
 35 19  1  0  0  0  0
 35 38  1  0  0  0  0
 36 35  1  0  0  0  0
 37 35  1  0  0  0  0
 39 30  2  0  0  0  0
 40  3  1  1  0  0  0
 40  7  1  0  0  0  0
 40 59  1  0  0  0  0
 41 53  2  0  0  0  0
 42 41  1  0  0  0  0
 43 44  1  0  0  0  0
 43 45  1  0  0  0  0
 46 43  1  0  0  0  0
 47 39  1  0  0  0  0
 48 47  1  0  0  0  0
 49 50  1  0  0  0  0
 49 32  1  0  0  0  0
 51 49  1  0  0  0  0
 52 49  1  0  0  0  0
 53 30  1  0  0  0  0
 53 54  1  0  0  0  0
 55 58  1  0  0  0  0
 55 56  1  0  0  0  0
 57 55  1  0  0  0  0
 59 39  1  6  0  0  0
 59 10  1  0  0  0  0
 59 14  1  0  0  0  0
M  END
$$$$
