CSD_code = UXOREF | q = 0 | S = 0 | Stoichiometry = C34H32ClCuP2 | MND = 3
 OpenBabel04212202103D

 70 75  0  0  0  0  0  0  0  0999 V2000
    6.3258    1.5841    2.8532 Cu  0  0  0  0  0  0  0  0  0  0  0  0
    4.7588    0.1420    3.0529 Cl  0  0  0  0  0  0  0  0  0  0  0  0
    6.6536    3.5186    1.7079 P   0  0  0  0  0  4  0  0  0  0  0  0
    8.4992    1.7839    3.4869 P   0  0  0  0  0  4  0  0  0  0  0  0
    5.8272    4.1324    0.2095 C   0  0  0  0  0  0  0  0  0  0  0  0
    5.4728    3.1847   -0.7624 C   0  0  0  0  0  0  0  0  0  0  0  0
    4.7845    3.6160   -1.8866 C   0  0  0  0  0  0  0  0  0  0  0  0
    4.4392    4.9475   -2.0467 C   0  0  0  0  0  0  0  0  0  0  0  0
    4.7760    5.8738   -1.0744 C   0  0  0  0  0  0  0  0  0  0  0  0
    5.4626    5.4666    0.0546 C   0  0  0  0  0  0  0  0  0  0  0  0
    6.7545    4.9929    2.7689 C   0  0  0  0  0  0  0  0  0  0  0  0
    5.6901    5.2325    3.6491 C   0  0  0  0  0  0  0  0  0  0  0  0
    5.7786    6.3122    4.5158 C   0  0  0  0  0  0  0  0  0  0  0  0
    6.8804    7.1499    4.5044 C   0  0  0  0  0  0  0  0  0  0  0  0
    7.9150    6.9226    3.6141 C   0  0  0  0  0  0  0  0  0  0  0  0
    7.8564    5.8414    2.7550 C   0  0  0  0  0  0  0  0  0  0  0  0
    8.3804    3.2994    1.1738 C   0  0  0  0  0  0  0  0  0  0  0  0
    8.8749    3.8336   -0.0120 C   0  0  0  0  0  0  0  0  0  0  0  0
   10.1824    3.5936   -0.3949 C   0  0  0  0  0  0  0  0  0  0  0  0
   11.0078    2.8110    0.3988 C   0  0  0  0  0  0  0  0  0  0  0  0
   10.5271    2.2683    1.5771 C   0  0  0  0  0  0  0  0  0  0  0  0
    9.2164    2.5078    1.9779 C   0  0  0  0  0  0  0  0  0  0  0  0
    9.6923    0.4898    3.9403 C   0  0  0  0  0  0  0  0  0  0  0  0
    9.6257   -0.7221    3.2363 C   0  0  0  0  0  0  0  0  0  0  0  0
   10.4800   -1.7500    3.6064 C   0  0  0  0  0  0  0  0  0  0  0  0
   11.3711   -1.5969    4.6554 C   0  0  0  0  0  0  0  0  0  0  0  0
   11.4172   -0.4051    5.3585 C   0  0  0  0  0  0  0  0  0  0  0  0
   10.5753    0.6336    5.0067 C   0  0  0  0  0  0  0  0  0  0  0  0
    8.8024    3.0883    4.7198 C   0  0  0  0  0  0  0  0  0  0  0  0
    8.0326    3.0708    5.8909 C   0  0  0  0  0  0  0  0  0  0  0  0
    8.2047    4.0948    6.8111 C   0  0  0  0  0  0  0  0  0  0  0  0
    9.1288    5.1023    6.5958 C   0  0  0  0  0  0  0  0  0  0  0  0
    9.9056    5.0972    5.4505 C   0  0  0  0  0  0  0  0  0  0  0  0
    9.7356    4.0983    4.5107 C   0  0  0  0  0  0  0  0  0  0  0  0
    5.8305    1.7454   -0.5773 C   0  0  0  0  0  0  0  0  0  0  0  0
    4.4768    4.3606    3.6226 C   0  0  0  0  0  0  0  0  0  0  0  0
    8.6500   -0.8916    2.1169 C   0  0  0  0  0  0  0  0  0  0  0  0
    7.0776    1.9516    6.1524 C   0  0  0  0  0  0  0  0  0  0  0  0
    4.5076    2.8971   -2.6446 H   0  0  0  0  0  0  0  0  0  0  0  0
    3.9010    5.2610   -2.9289 H   0  0  0  0  0  0  0  0  0  0  0  0
    4.5027    6.9119   -1.1926 H   0  0  0  0  0  0  0  0  0  0  0  0
    5.7238    6.1859    0.8186 H   0  0  0  0  0  0  0  0  0  0  0  0
    4.9693    6.5026    5.2061 H   0  0  0  0  0  0  0  0  0  0  0  0
    6.9276    7.9856    5.1866 H   0  0  0  0  0  0  0  0  0  0  0  0
    8.7686    7.5835    3.5903 H   0  0  0  0  0  0  0  0  0  0  0  0
    8.6663    5.6580    2.0628 H   0  0  0  0  0  0  0  0  0  0  0  0
    8.2270    4.4353   -0.6354 H   0  0  0  0  0  0  0  0  0  0  0  0
   10.5580    4.0141   -1.3160 H   0  0  0  0  0  0  0  0  0  0  0  0
   12.0270    2.6209    0.0965 H   0  0  0  0  0  0  0  0  0  0  0  0
   11.1669    1.6498    2.1922 H   0  0  0  0  0  0  0  0  0  0  0  0
   10.4413   -2.6877    3.0706 H   0  0  0  0  0  0  0  0  0  0  0  0
   12.0255   -2.4115    4.9283 H   0  0  0  0  0  0  0  0  0  0  0  0
   12.1055   -0.2844    6.1819 H   0  0  0  0  0  0  0  0  0  0  0  0
   10.6049    1.5643    5.5564 H   0  0  0  0  0  0  0  0  0  0  0  0
    7.6099    4.0989    7.7133 H   0  0  0  0  0  0  0  0  0  0  0  0
    9.2479    5.8882    7.3268 H   0  0  0  0  0  0  0  0  0  0  0  0
   10.6404    5.8713    5.2869 H   0  0  0  0  0  0  0  0  0  0  0  0
   10.3367    4.0959    3.6120 H   0  0  0  0  0  0  0  0  0  0  0  0
    6.9133    1.6225   -0.5097 H   0  0  0  0  0  0  0  0  0  0  0  0
    5.4638    1.1414   -1.4034 H   0  0  0  0  0  0  0  0  0  0  0  0
    5.3945    1.3636    0.3513 H   0  0  0  0  0  0  0  0  0  0  0  0
    3.9820    4.4341    2.6521 H   0  0  0  0  0  0  0  0  0  0  0  0
    3.7689    4.6476    4.3962 H   0  0  0  0  0  0  0  0  0  0  0  0
    4.7454    3.3097    3.7667 H   0  0  0  0  0  0  0  0  0  0  0  0
    8.6917   -1.8992    1.7107 H   0  0  0  0  0  0  0  0  0  0  0  0
    8.8584   -0.1832    1.3126 H   0  0  0  0  0  0  0  0  0  0  0  0
    7.6313   -0.7024    2.4706 H   0  0  0  0  0  0  0  0  0  0  0  0
    6.5201    2.1166    7.0709 H   0  0  0  0  0  0  0  0  0  0  0  0
    7.6194    1.0076    6.2379 H   0  0  0  0  0  0  0  0  0  0  0  0
    6.3675    1.8402    5.3275 H   0  0  0  0  0  0  0  0  0  0  0  0
  1  2  1  0  0  0  0
  1  4  1  0  0  0  0
  3 11  1  0  0  0  0
  3  1  1  0  0  0  0
  4 23  1  0  0  0  0
  4 29  1  0  0  0  0
  5  3  1  0  0  0  0
  6 35  1  0  0  0  0
  6  5  2  0  0  0  0
  7  6  1  0  0  0  0
  8  7  2  0  0  0  0
  8  9  1  0  0  0  0
  9 10  2  0  0  0  0
 10  5  1  0  0  0  0
 10 42  1  0  0  0  0
 11 12  1  0  0  0  0
 12 13  2  0  0  0  0
 13 43  1  0  0  0  0
 14 13  1  0  0  0  0
 14 44  1  0  0  0  0
 15 14  2  0  0  0  0
 16 11  2  0  0  0  0
 16 15  1  0  0  0  0
 17  3  1  0  0  0  0
 17 22  1  0  0  0  0
 18 17  2  0  0  0  0
 19 18  1  0  0  0  0
 19 20  2  0  0  0  0
 20 21  1  0  0  0  0
 21 22  2  0  0  0  0
 21 50  1  0  0  0  0
 22  4  1  0  0  0  0
 23 28  1  0  0  0  0
 24 25  1  0  0  0  0
 24 23  2  0  0  0  0
 25 26  2  0  0  0  0
 26 52  1  0  0  0  0
 26 27  1  0  0  0  0
 27 53  1  0  0  0  0
 28 27  2  0  0  0  0
 28 54  1  0  0  0  0
 29 30  1  0  0  0  0
 30 38  1  0  0  0  0
 30 31  2  0  0  0  0
 31 55  1  0  0  0  0
 32 31  1  0  0  0  0
 32 56  1  0  0  0  0
 33 32  2  0  0  0  0
 34 29  2  0  0  0  0
 34 33  1  0  0  0  0
 35 59  1  0  0  0  0
 35 61  1  0  0  0  0
 36 12  1  0  0  0  0
 36 64  1  0  0  0  0
 36 63  1  0  0  0  0
 37 67  1  0  0  0  0
 37 24  1  0  0  0  0
 38 69  1  0  0  0  0
 38 68  1  0  0  0  0
 39  7  1  0  0  0  0
 40  8  1  0  0  0  0
 41  9  1  0  0  0  0
 45 15  1  0  0  0  0
 46 16  1  0  0  0  0
 47 18  1  0  0  0  0
 48 19  1  0  0  0  0
 49 20  1  0  0  0  0
 51 25  1  0  0  0  0
 57 33  1  0  0  0  0
 58 34  1  0  0  0  0
 60 35  1  0  0  0  0
 62 36  1  0  0  0  0
 65 37  1  0  0  0  0
 66 37  1  0  0  0  0
 70 38  1  0  0  0  0
M  END
$$$$
