CSD_code = UXUMIL | q = 0 | S = 0 | Stoichiometry = C28H27Cl2N3Pd | MND = 4
 OpenBabel04212202103D

 61 65  0  0  0  0  0  0  0  0999 V2000
    2.2292   12.0482   17.7330 Pd  0  0  0  0  0  0  0  0  0  0  0  0
    1.7491   10.5305   16.0750 Cl  0  0  0  0  0  0  0  0  0  0  0  0
    2.8447   13.4882   19.4102 Cl  0  0  0  0  0  0  0  0  0  0  0  0
   -0.4219   12.6435   18.9246 N   0  0  0  0  0  0  0  0  0  0  0  0
   -0.3852   13.0755   16.8166 N   0  0  0  0  0  0  0  0  0  0  0  0
    4.1197   11.4680   17.6063 N   0  0  0  0  0  0  0  0  0  0  0  0
    0.3659   12.6204   17.8350 C   0  0  0  0  0  0  0  0  0  0  0  0
   -1.6672   13.1128   18.5905 C   0  0  0  0  0  0  0  0  0  0  0  0
   -2.4601   13.1926   19.3056 H   0  0  0  0  0  0  0  0  0  0  0  0
   -1.6448   13.3820   17.2650 C   0  0  0  0  0  0  0  0  0  0  0  0
   -2.4011   13.7817   16.6209 H   0  0  0  0  0  0  0  0  0  0  0  0
   -0.0036   12.3081   20.2433 C   0  0  0  0  0  0  0  0  0  0  0  0
    0.0405   13.3170   21.2094 C   0  0  0  0  0  0  0  0  0  0  0  0
    0.4194   12.9774   22.4993 C   0  0  0  0  0  0  0  0  0  0  0  0
    0.4648   13.7475   23.2548 H   0  0  0  0  0  0  0  0  0  0  0  0
    0.7623   11.6767   22.8189 C   0  0  0  0  0  0  0  0  0  0  0  0
    1.0599   11.4297   23.8271 H   0  0  0  0  0  0  0  0  0  0  0  0
    0.7468   10.6983   21.8440 C   0  0  0  0  0  0  0  0  0  0  0  0
    1.0375    9.6873   22.0899 H   0  0  0  0  0  0  0  0  0  0  0  0
    0.3675   10.9949   20.5405 C   0  0  0  0  0  0  0  0  0  0  0  0
   -0.2270   14.7449   20.8454 C   0  0  0  0  0  0  0  0  0  0  0  0
   -0.0602   15.3891   21.7044 H   0  0  0  0  0  0  0  0  0  0  0  0
   -1.2450   14.8978   20.4900 H   0  0  0  0  0  0  0  0  0  0  0  0
    0.4635   15.0395   20.0546 H   0  0  0  0  0  0  0  0  0  0  0  0
    0.3833    9.9255   19.4893 C   0  0  0  0  0  0  0  0  0  0  0  0
   -0.4944    9.9835   18.8454 H   0  0  0  0  0  0  0  0  0  0  0  0
    0.4178    8.9402   19.9481 H   0  0  0  0  0  0  0  0  0  0  0  0
    1.2785   10.0375   18.8480 H   0  0  0  0  0  0  0  0  0  0  0  0
    0.0478   13.1641   15.4632 C   0  0  0  0  0  0  0  0  0  0  0  0
   -0.5431   12.3299   14.5106 C   0  0  0  0  0  0  0  0  0  0  0  0
   -0.1291   12.4413   13.1916 C   0  0  0  0  0  0  0  0  0  0  0  0
   -0.5707   11.7980   12.4453 H   0  0  0  0  0  0  0  0  0  0  0  0
    0.8551   13.3423   12.8299 C   0  0  0  0  0  0  0  0  0  0  0  0
    1.1702   13.4119   11.7994 H   0  0  0  0  0  0  0  0  0  0  0  0
    1.4494   14.1394   13.7889 C   0  0  0  0  0  0  0  0  0  0  0  0
    2.2320   14.8292   13.5078 H   0  0  0  0  0  0  0  0  0  0  0  0
    1.0593   14.0647   15.1205 C   0  0  0  0  0  0  0  0  0  0  0  0
   -1.5279   11.2762   14.9124 C   0  0  0  0  0  0  0  0  0  0  0  0
   -1.0293   10.5788   15.5863 H   0  0  0  0  0  0  0  0  0  0  0  0
   -1.8693   10.7261   14.0399 H   0  0  0  0  0  0  0  0  0  0  0  0
   -2.3943   11.6901   15.4247 H   0  0  0  0  0  0  0  0  0  0  0  0
    1.7259   14.9265   16.1517 C   0  0  0  0  0  0  0  0  0  0  0  0
    0.9990   15.3590   16.8393 H   0  0  0  0  0  0  0  0  0  0  0  0
    2.2791   15.7318   15.6745 H   0  0  0  0  0  0  0  0  0  0  0  0
    2.4377   14.3273   16.7496 H   0  0  0  0  0  0  0  0  0  0  0  0
    4.8602   11.8999   16.5629 C   0  0  0  0  0  3  0  0  0  0  0  0
    4.3515   12.5598   15.8616 H   0  0  0  0  0  0  0  0  0  0  0  0
    6.1608   11.5252   16.3822 C   0  0  0  0  0  0  0  0  0  0  0  0
    6.7248   11.8903   15.5374 H   0  0  0  0  0  0  0  0  0  0  0  0
    6.7712   10.6494   17.3061 C   0  0  0  0  0  0  0  0  0  0  0  0
    8.1038   10.2072   17.1935 C   0  0  0  0  0  0  0  0  0  0  0  0
    8.6990   10.5518   16.3607 H   0  0  0  0  0  0  0  0  0  0  0  0
    8.6273    9.3551   18.1266 C   0  0  0  0  0  0  0  0  0  0  0  0
    9.6489    9.0161   18.0389 H   0  0  0  0  0  0  0  0  0  0  0  0
    7.8482    8.9100   19.2080 C   0  0  0  0  0  0  0  0  0  0  0  0
    8.2857    8.2380   19.9311 H   0  0  0  0  0  0  0  0  0  0  0  0
    6.5520    9.3208   19.3461 C   0  0  0  0  0  0  0  0  0  0  0  0
    5.9466    8.9844   20.1747 H   0  0  0  0  0  0  0  0  0  0  0  0
    5.9842   10.1988   18.3992 C   0  0  0  0  0  0  0  0  0  0  0  0
    4.6543   10.6564   18.4873 C   0  0  0  0  0  0  0  0  0  0  0  0
    4.0253   10.3446   19.3205 H   0  0  0  0  0  0  0  0  0  0  0  0
  1  7  2  0  0  0  0
  1  3  1  0  0  0  0
  2  1  1  0  0  0  0
  4 12  1  0  0  0  0
  5 10  1  0  0  0  0
  5  7  1  0  0  0  0
  6  1  1  0  0  0  0
  6 60  1  0  0  0  0
  7  4  1  0  0  0  0
  8  4  1  0  0  0  0
  8  9  1  0  0  0  0
 10  8  2  0  0  0  0
 11 10  1  0  0  0  0
 12 20  2  0  0  0  0
 12 13  1  0  0  0  0
 13 14  2  0  0  0  0
 14 16  1  0  0  0  0
 14 15  1  0  0  0  0
 16 17  1  0  0  0  0
 18 19  1  0  0  0  0
 18 16  2  0  0  0  0
 20 18  1  0  0  0  0
 21 13  1  0  0  0  0
 21 22  1  0  0  0  0
 23 21  1  0  0  0  0
 24 21  1  0  0  0  0
 25 27  1  0  0  0  0
 25 20  1  0  0  0  0
 26 25  1  0  0  0  0
 28 25  1  0  0  0  0
 29  5  1  0  0  0  0
 30 38  1  0  0  0  0
 30 29  2  0  0  0  0
 31 30  1  0  0  0  0
 32 31  1  0  0  0  0
 33 31  2  0  0  0  0
 33 35  1  0  0  0  0
 34 33  1  0  0  0  0
 35 37  2  0  0  0  0
 36 35  1  0  0  0  0
 37 29  1  0  0  0  0
 37 42  1  0  0  0  0
 38 41  1  0  0  0  0
 38 39  1  0  0  0  0
 40 38  1  0  0  0  0
 42 45  1  0  0  0  0
 42 43  1  0  0  0  0
 44 42  1  0  0  0  0
 46  6  1  0  0  0  0
 47 46  1  0  0  0  0
 48 46  1  0  0  0  0
 48 50  2  0  0  0  0
 49 48  1  0  0  0  0
 50 59  1  0  0  0  0
 51 50  1  0  0  0  0
 51 53  2  0  0  0  0
 52 51  1  0  0  0  0
 53 55  1  0  0  0  0
 54 53  1  0  0  0  0
 55 57  2  0  0  0  0
 55 56  1  0  0  0  0
 57 58  1  0  0  0  0
 59 60  2  0  0  0  0
 59 57  1  0  0  0  0
 60 61  1  0  0  0  0
M  END
$$$$
