CSD_code = UXUQAG | q = 0 | S = 0 | Stoichiometry = C32H23ClF4IrN7 | MND = 6
 OpenBabel04212202103D

 68 75  0  0  0  0  0  0  0  0999 V2000
    9.0571    2.8630    0.1290 Ir  0  0  0  0  0  0  0  0  0  0  0  0
    9.7157    2.7371   -2.1183 Cl  0  0  0  0  0  0  0  0  0  0  0  0
    7.3660    1.7945   -0.5890 N   0  0  0  0  0  0  0  0  0  0  0  0
    6.3185    2.0957   -1.2672 N   0  0  0  0  0  2  0  0  0  0  0  0
    5.9025    1.0032   -1.8801 N   0  0  0  0  0  0  0  0  0  0  0  0
    6.7068   -0.0428   -1.5922 C   0  0  0  0  0  0  0  0  0  0  0  0
    6.5639   -1.0213   -1.9966 H   0  0  0  0  0  0  0  0  0  0  0  0
    7.6642    0.4789   -0.7476 C   0  0  0  0  0  0  0  0  0  0  0  0
    8.8661   -0.0164   -0.1145 C   0  0  0  0  0  0  0  0  0  0  0  0
    9.7350    0.9667    0.4071 C   0  0  0  0  0  0  0  0  0  0  0  0
   10.9098    0.5257    1.0066 C   0  0  0  0  0  0  0  0  0  0  0  0
   11.6244    1.2244    1.4138 H   0  0  0  0  0  0  0  0  0  0  0  0
   11.1925   -0.8266    1.0797 C   0  0  0  0  0  0  0  0  0  0  0  0
   12.3347   -1.2236    1.6824 F   0  0  0  0  0  0  0  0  0  0  0  0
   10.3507   -1.7998    0.5709 C   0  0  0  0  0  0  0  0  0  0  0  0
   10.5938   -2.8472    0.6347 H   0  0  0  0  0  0  0  0  0  0  0  0
    9.1882   -1.3643   -0.0302 C   0  0  0  0  0  0  0  0  0  0  0  0
    8.3330   -2.2860   -0.5373 F   0  0  0  0  0  0  0  0  0  0  0  0
    4.8424    1.0567   -2.8449 C   0  0  0  0  0  0  0  0  0  0  0  0
    4.2987    1.9900   -2.6649 H   0  0  0  0  0  0  0  0  0  0  0  0
    4.1634    0.2129   -2.6911 H   0  0  0  0  0  0  0  0  0  0  0  0
    5.3921    1.0381   -4.2556 C   0  0  0  0  0  0  0  0  0  0  0  0
    6.5978    1.6605   -4.5541 C   0  0  0  0  0  0  0  0  0  0  0  0
    7.1696    2.1593   -3.7849 H   0  0  0  0  0  0  0  0  0  0  0  0
    7.0893    1.6357   -5.8475 C   0  0  0  0  0  0  0  0  0  0  0  0
    8.0333    2.1119   -6.0627 H   0  0  0  0  0  0  0  0  0  0  0  0
    6.3793    1.0003   -6.8517 C   0  0  0  0  0  0  0  0  0  0  0  0
    6.7650    0.9809   -7.8599 H   0  0  0  0  0  0  0  0  0  0  0  0
    5.1741    0.3848   -6.5590 C   0  0  0  0  0  0  0  0  0  0  0  0
    4.6161   -0.1148   -7.3370 H   0  0  0  0  0  0  0  0  0  0  0  0
    4.6848    0.3994   -5.2648 C   0  0  0  0  0  0  0  0  0  0  0  0
    3.7472   -0.0882   -5.0370 H   0  0  0  0  0  0  0  0  0  0  0  0
    8.5820    2.9817    2.0690 N   0  0  0  0  0  0  0  0  0  0  0  0
    7.5617    2.6088    2.7624 N   0  0  0  0  0  2  0  0  0  0  0  0
    7.8017    2.9132    4.0242 N   0  0  0  0  0  0  0  0  0  0  0  0
    9.0074    3.5085    4.1569 C   0  0  0  0  0  0  0  0  0  0  0  0
    9.4001    3.8412    5.0934 H   0  0  0  0  0  0  0  0  0  0  0  0
    9.5218    3.5477    2.8789 C   0  0  0  0  0  0  0  0  0  0  0  0
   10.7297    3.9861    2.2253 C   0  0  0  0  0  0  0  0  0  0  0  0
   10.7562    3.7355    0.8331 C   0  0  0  0  0  0  0  0  0  0  0  0
   11.8956    4.1188    0.1366 C   0  0  0  0  0  0  0  0  0  0  0  0
   11.9762    3.9455   -0.9250 H   0  0  0  0  0  0  0  0  0  0  0  0
   12.9468    4.7224    0.8039 C   0  0  0  0  0  0  0  0  0  0  0  0
   14.0411    5.0937    0.1068 F   0  0  0  0  0  0  0  0  0  0  0  0
   12.9321    4.9745    2.1667 C   0  0  0  0  0  0  0  0  0  0  0  0
   13.7656    5.4448    2.6609 H   0  0  0  0  0  0  0  0  0  0  0  0
   11.8036    4.5930    2.8613 C   0  0  0  0  0  0  0  0  0  0  0  0
   11.7419    4.8215    4.1966 F   0  0  0  0  0  0  0  0  0  0  0  0
    6.8062    2.6934    5.0390 C   0  0  0  0  0  0  0  0  0  0  0  0
    7.3038    2.4422    5.9783 H   0  0  0  0  0  0  0  0  0  0  0  0
    6.1966    1.8462    4.7115 H   0  0  0  0  0  0  0  0  0  0  0  0
    5.9403    3.9218    5.2033 C   0  0  0  0  0  0  0  0  0  0  0  0
    5.2880    4.4471    4.0945 C   0  0  0  0  0  0  0  0  0  0  0  0
    5.4045    3.9667    3.1334 H   0  0  0  0  0  0  0  0  0  0  0  0
    4.5018    5.5774    4.2222 C   0  0  0  0  0  0  0  0  0  0  0  0
    3.9986    5.9816    3.3567 H   0  0  0  0  0  0  0  0  0  0  0  0
    4.3581    6.1876    5.4576 C   0  0  0  0  0  0  0  0  0  0  0  0
    3.7424    7.0687    5.5574 H   0  0  0  0  0  0  0  0  0  0  0  0
    5.0059    5.6665    6.5640 C   0  0  0  0  0  0  0  0  0  0  0  0
    4.8977    6.1398    7.5282 H   0  0  0  0  0  0  0  0  0  0  0  0
    5.7998    4.5390    6.4369 C   0  0  0  0  0  0  0  0  0  0  0  0
    6.3064    4.1364    7.3023 H   0  0  0  0  0  0  0  0  0  0  0  0
    8.2859    4.6738   -0.3727 N   0  0  0  0  0  2  0  0  0  0  0  0
    7.9817    5.4289   -1.1817 C   0  0  0  0  0  2  0  0  0  0  0  0
    7.6208    6.3716   -2.1922 C   0  0  0  0  0  0  0  0  0  0  0  0
    6.5388    6.3854   -2.3195 H   0  0  0  0  0  0  0  0  0  0  0  0
    8.0920    6.0654   -3.1267 H   0  0  0  0  0  0  0  0  0  0  0  0
    7.9715    7.3663   -1.9185 H   0  0  0  0  0  0  0  0  0  0  0  0
  1 10  1  0  0  0  0
  1 40  1  0  0  0  0
  1 33  1  0  0  0  0
  2  1  1  0  0  0  0
  3  1  1  0  0  0  0
  4  3  1  0  0  0  0
  5  6  1  0  0  0  0
  5  4  1  0  0  0  0
  6  8  2  0  0  0  0
  7  6  1  0  0  0  0
  8  3  1  0  0  0  0
  8  9  1  0  0  0  0
  9 17  2  0  0  0  0
  9 10  1  0  0  0  0
 10 11  2  0  0  0  0
 11 13  1  0  0  0  0
 11 12  1  0  0  0  0
 13 14  1  0  0  0  0
 15 16  1  0  0  0  0
 15 13  2  0  0  0  0
 17 15  1  0  0  0  0
 18 17  1  0  0  0  0
 19 21  1  0  0  0  0
 19 20  1  0  0  0  0
 19  5  1  0  0  0  0
 22 19  1  0  0  0  0
 23 22  1  0  0  0  0
 23 24  1  0  0  0  0
 25 23  2  0  0  0  0
 26 25  1  0  0  0  0
 27 29  2  0  0  0  0
 27 25  1  0  0  0  0
 28 27  1  0  0  0  0
 29 31  1  0  0  0  0
 30 29  1  0  0  0  0
 31 32  1  0  0  0  0
 31 22  2  0  0  0  0
 33 34  1  0  0  0  0
 33 38  1  0  0  0  0
 34 35  1  0  0  0  0
 35 36  1  0  0  0  0
 35 49  1  0  0  0  0
 36 37  1  0  0  0  0
 38 36  2  0  0  0  0
 39 47  1  0  0  0  0
 39 38  1  0  0  0  0
 40 39  2  0  0  0  0
 41 43  2  0  0  0  0
 41 40  1  0  0  0  0
 42 41  1  0  0  0  0
 43 45  1  0  0  0  0
 44 43  1  0  0  0  0
 45 46  1  0  0  0  0
 45 47  2  0  0  0  0
 47 48  1  0  0  0  0
 49 52  1  0  0  0  0
 49 50  1  0  0  0  0
 51 49  1  0  0  0  0
 52 61  1  0  0  0  0
 53 55  1  0  0  0  0
 53 52  2  0  0  0  0
 54 53  1  0  0  0  0
 55 57  2  0  0  0  0
 56 55  1  0  0  0  0
 57 58  1  0  0  0  0
 57 59  1  0  0  0  0
 59 60  1  0  0  0  0
 61 59  2  0  0  0  0
 61 62  1  0  0  0  0
 63  1  1  0  0  0  0
 64 63  1  0  0  0  0
 65 68  1  0  0  0  0
 65 64  1  0  0  0  0
 66 65  1  0  0  0  0
 67 65  1  0  0  0  0
M  END
$$$$
