CSD_code = UYAGIL | q = 0 | S = 0 | Stoichiometry = C30H32Cl2N4Zn | MND = 4
 OpenBabel04212202103D

 69 72  0  0  0  0  0  0  0  0999 V2000
   10.1606    0.8002    1.4859 Zn  0  0  0  0  0  0  0  0  0  0  0  0
    9.0747   -0.4037    3.0086 Cl  0  0  0  0  0  0  0  0  0  0  0  0
    9.5711    0.8599   -0.6579 Cl  0  0  0  0  0  0  0  0  0  0  0  0
   10.3774    2.8898    1.9569 N   0  0  0  0  0  0  0  0  0  0  0  0
   10.1135    3.7806    1.0100 C   0  0  0  0  0  3  0  0  0  0  0  0
    9.5072    3.4265    0.1885 H   0  0  0  0  0  0  0  0  0  0  0  0
   10.5899    5.0771    1.0405 C   0  0  0  0  0  0  0  0  0  0  0  0
   10.3497    5.7640    0.2460 H   0  0  0  0  0  0  0  0  0  0  0  0
   11.3951    5.4573    2.1066 C   0  0  0  0  0  0  0  0  0  0  0  0
   11.7991    6.4577    2.1599 H   0  0  0  0  0  0  0  0  0  0  0  0
   11.6630    4.5397    3.0991 C   0  0  0  0  0  0  0  0  0  0  0  0
   12.2624    4.8084    3.9545 H   0  0  0  0  0  0  0  0  0  0  0  0
   11.1321    3.2463    3.0116 C   0  0  0  0  0  0  0  0  0  0  0  0
   11.3350    2.2364    4.0186 C   0  0  0  0  0  0  0  0  0  0  0  0
   10.5811    1.4643    4.0295 H   0  0  0  0  0  0  0  0  0  0  0  0
   12.3823    2.1595    4.8597 C   0  0  0  0  0  0  0  0  0  0  0  0
   13.1615    2.9125    4.8122 H   0  0  0  0  0  0  0  0  0  0  0  0
   12.6123    1.1012    5.8077 C   0  0  0  0  0  0  0  0  0  0  0  0
   13.7960    1.0859    6.5546 C   0  0  0  0  0  0  0  0  0  0  0  0
   14.5123    1.8856    6.4217 H   0  0  0  0  0  0  0  0  0  0  0  0
   14.0789    0.0829    7.4507 C   0  0  0  0  0  0  0  0  0  0  0  0
   15.0091    0.1244    7.9936 H   0  0  0  0  0  0  0  0  0  0  0  0
   13.1812   -0.9790    7.6564 C   0  0  0  0  0  0  0  0  0  0  0  0
   11.9895   -0.9616    6.9089 C   0  0  0  0  0  0  0  0  0  0  0  0
   11.2593   -1.7437    7.0308 H   0  0  0  0  0  0  0  0  0  0  0  0
   11.7158    0.0439    6.0154 C   0  0  0  0  0  0  0  0  0  0  0  0
   10.7880    0.0040    5.4675 H   0  0  0  0  0  0  0  0  0  0  0  0
   13.4618   -1.9905    8.5308 N   0  0  0  0  0  0  0  0  0  0  0  0
   14.6072   -1.9029    9.4027 C   0  0  0  0  0  0  0  0  0  0  0  0
   14.6062   -2.7443   10.0911 H   0  0  0  0  0  0  0  0  0  0  0  0
   14.5906   -0.9807    9.9922 H   0  0  0  0  0  0  0  0  0  0  0  0
   15.5396   -1.9343    8.8307 H   0  0  0  0  0  0  0  0  0  0  0  0
   12.5196   -3.0639    8.7336 C   0  0  0  0  0  0  0  0  0  0  0  0
   12.9571   -3.8105    9.3922 H   0  0  0  0  0  0  0  0  0  0  0  0
   12.2818   -3.5505    7.7851 H   0  0  0  0  0  0  0  0  0  0  0  0
   11.5880   -2.7076    9.1867 H   0  0  0  0  0  0  0  0  0  0  0  0
   12.2116    0.2601    1.8562 N   0  0  0  0  0  0  0  0  0  0  0  0
   12.4670   -0.6363    2.8001 C   0  0  0  0  0  3  0  0  0  0  0  0
   11.6360   -1.2643    3.0880 H   0  0  0  0  0  0  0  0  0  0  0  0
   13.7025   -0.7630    3.4052 C   0  0  0  0  0  0  0  0  0  0  0  0
   13.8607   -1.5057    4.1695 H   0  0  0  0  0  0  0  0  0  0  0  0
   14.7179    0.1008    3.0150 C   0  0  0  0  0  0  0  0  0  0  0  0
   15.6940    0.0437    3.4743 H   0  0  0  0  0  0  0  0  0  0  0  0
   14.4618    1.0261    2.0266 C   0  0  0  0  0  0  0  0  0  0  0  0
   15.2342    1.6945    1.6803 H   0  0  0  0  0  0  0  0  0  0  0  0
   13.1891    1.0870    1.4443 C   0  0  0  0  0  0  0  0  0  0  0  0
   12.8451    2.0002    0.3846 C   0  0  0  0  0  0  0  0  0  0  0  0
   12.0053    1.6854   -0.2156 H   0  0  0  0  0  0  0  0  0  0  0  0
   13.4290    3.1885    0.1456 C   0  0  0  0  0  0  0  0  0  0  0  0
   14.2421    3.5214    0.7815 H   0  0  0  0  0  0  0  0  0  0  0  0
   13.0234    4.1259   -0.8684 C   0  0  0  0  0  0  0  0  0  0  0  0
   13.6493    5.3754   -0.9463 C   0  0  0  0  0  0  0  0  0  0  0  0
   14.4465    5.6087   -0.2531 H   0  0  0  0  0  0  0  0  0  0  0  0
   13.2798    6.3186   -1.8753 C   0  0  0  0  0  0  0  0  0  0  0  0
   13.7970    7.2642   -1.8832 H   0  0  0  0  0  0  0  0  0  0  0  0
   12.2478    6.0638   -2.7950 C   0  0  0  0  0  0  0  0  0  0  0  0
   11.6222    4.8060   -2.7204 C   0  0  0  0  0  0  0  0  0  0  0  0
   10.8321    4.5498   -3.4059 H   0  0  0  0  0  0  0  0  0  0  0  0
   11.9973    3.8704   -1.7886 C   0  0  0  0  0  0  0  0  0  0  0  0
   11.4805    2.9242   -1.7757 H   0  0  0  0  0  0  0  0  0  0  0  0
   11.8596    7.0022   -3.7089 N   0  0  0  0  0  0  0  0  0  0  0  0
   10.8049    6.7138   -4.6498 C   0  0  0  0  0  0  0  0  0  0  0  0
   10.5803    7.6074   -5.2274 H   0  0  0  0  0  0  0  0  0  0  0  0
    9.8943    6.4146   -4.1261 H   0  0  0  0  0  0  0  0  0  0  0  0
   11.0865    5.9153   -5.3450 H   0  0  0  0  0  0  0  0  0  0  0  0
   12.6212    8.2155   -3.8755 C   0  0  0  0  0  0  0  0  0  0  0  0
   12.2201    8.7856   -4.7098 H   0  0  0  0  0  0  0  0  0  0  0  0
   13.6740    8.0006   -4.0849 H   0  0  0  0  0  0  0  0  0  0  0  0
   12.5645    8.8409   -2.9794 H   0  0  0  0  0  0  0  0  0  0  0  0
  1 37  1  0  0  0  0
  1  4  1  0  0  0  0
  1  2  1  0  0  0  0
  3  1  1  0  0  0  0
  4 13  1  0  0  0  0
  5  7  1  0  0  0  0
  5  4  1  0  0  0  0
  6  5  1  0  0  0  0
  7  9  2  0  0  0  0
  8  7  1  0  0  0  0
  9 10  1  0  0  0  0
  9 11  1  0  0  0  0
 11 12  1  0  0  0  0
 13 11  2  0  0  0  0
 13 14  1  0  0  0  0
 14 15  1  0  0  0  0
 14 16  2  0  0  0  0
 16 18  1  0  0  0  0
 17 16  1  0  0  0  0
 18 26  2  0  0  0  0
 18 19  1  0  0  0  0
 19 21  2  0  0  0  0
 20 19  1  0  0  0  0
 21 23  1  0  0  0  0
 21 22  1  0  0  0  0
 23 28  1  0  0  0  0
 24 25  1  0  0  0  0
 24 23  2  0  0  0  0
 26 24  1  0  0  0  0
 27 26  1  0  0  0  0
 28 33  1  0  0  0  0
 28 29  1  0  0  0  0
 29 31  1  0  0  0  0
 29 30  1  0  0  0  0
 32 29  1  0  0  0  0
 33 36  1  0  0  0  0
 33 34  1  0  0  0  0
 35 33  1  0  0  0  0
 37 38  1  0  0  0  0
 38 39  1  0  0  0  0
 38 40  1  0  0  0  0
 40 41  1  0  0  0  0
 42 40  2  0  0  0  0
 42 43  1  0  0  0  0
 44 42  1  0  0  0  0
 45 44  1  0  0  0  0
 46 37  1  0  0  0  0
 46 44  2  0  0  0  0
 47 46  1  0  0  0  0
 48 47  1  0  0  0  0
 49 47  2  0  0  0  0
 49 50  1  0  0  0  0
 51 49  1  0  0  0  0
 52 51  1  0  0  0  0
 52 53  1  0  0  0  0
 54 52  2  0  0  0  0
 55 54  1  0  0  0  0
 56 57  2  0  0  0  0
 56 54  1  0  0  0  0
 57 59  1  0  0  0  0
 58 57  1  0  0  0  0
 59 60  1  0  0  0  0
 59 51  2  0  0  0  0
 61 56  1  0  0  0  0
 62 64  1  0  0  0  0
 62 61  1  0  0  0  0
 63 62  1  0  0  0  0
 65 62  1  0  0  0  0
 66 61  1  0  0  0  0
 66 69  1  0  0  0  0
 67 66  1  0  0  0  0
 68 66  1  0  0  0  0
M  END
$$$$
