CSD_code = UYAXIC | q = 0 | S = 0 | Stoichiometry = C6H16CdI2N4S2 | MND = 4
 OpenBabel04212202103D

 31 30  0  0  0  0  0  0  0  0999 V2000
    0.4146   -0.0714    3.7458 I   0  0  0  0  0  0  0  0  0  0  0  0
    2.7799    3.3858    1.8223 I   0  0  0  0  0  0  0  0  0  0  0  0
    1.5246    2.3806    4.0839 Cd  0  0  0  0  0  0  0  0  0  0  0  0
   -0.6184    4.2228    3.9787 S   0  0  0  0  0  0  0  0  0  0  0  0
    3.2980    2.9349    6.1170 S   0  0  0  0  0  0  0  0  0  0  0  0
   -0.6515    4.8636    1.4049 N   0  0  0  0  0  0  0  0  0  0  0  0
   -1.1392    2.6744    1.9390 N   0  0  0  0  0  0  0  0  0  0  0  0
    3.9231    5.1515    4.7918 N   0  0  0  0  0  0  0  0  0  0  0  0
    5.3728    3.3642    4.6005 N   0  0  0  0  0  0  0  0  0  0  0  0
   -0.7959    3.9072    2.3258 C   0  0  0  0  0  3  0  0  0  0  0  0
   -0.1547    6.1880    1.6781 C   0  0  0  0  0  0  0  0  0  0  0  0
   -1.2106    2.2039    0.5745 C   0  0  0  0  0  0  0  0  0  0  0  0
    4.2400    3.8878    5.0840 C   0  0  0  0  0  3  0  0  0  0  0  0
    2.7070    5.7868    5.2376 C   0  0  0  0  0  0  0  0  0  0  0  0
    6.2880    4.0241    3.6988 C   0  0  0  0  0  0  0  0  0  0  0  0
   -0.6617    4.5868    0.4339 H   0  0  0  0  0  0  0  0  0  0  0  0
   -0.3073    6.4074    2.7333 H   0  0  0  0  0  0  0  0  0  0  0  0
   -0.7038    6.9100    1.0761 H   0  0  0  0  0  0  0  0  0  0  0  0
    0.9105    6.2579    1.4421 H   0  0  0  0  0  0  0  0  0  0  0  0
   -1.2975    1.9949    2.6740 H   0  0  0  0  0  0  0  0  0  0  0  0
   -2.0405    2.6707    0.0373 H   0  0  0  0  0  0  0  0  0  0  0  0
   -0.2748    2.4031    0.0449 H   0  0  0  0  0  0  0  0  0  0  0  0
   -1.3665    1.1288    0.5953 H   0  0  0  0  0  0  0  0  0  0  0  0
    4.4139    5.5991    4.0310 H   0  0  0  0  0  0  0  0  0  0  0  0
    5.5496    2.4020    4.8479 H   0  0  0  0  0  0  0  0  0  0  0  0
    2.4893    5.4706    6.2577 H   0  0  0  0  0  0  0  0  0  0  0  0
    1.8518    5.5232    4.6030 H   0  0  0  0  0  0  0  0  0  0  0  0
    2.8439    6.8653    5.2154 H   0  0  0  0  0  0  0  0  0  0  0  0
    6.6507    4.9587    4.1328 H   0  0  0  0  0  0  0  0  0  0  0  0
    5.8113    4.2288    2.7354 H   0  0  0  0  0  0  0  0  0  0  0  0
    7.1374    3.3696    3.5270 H   0  0  0  0  0  0  0  0  0  0  0  0
  1  3  1  0  0  0  0
  2  3  1  0  0  0  0
  3  5  1  0  0  0  0
  4  3  1  0  0  0  0
  6 11  1  0  0  0  0
  6 10  1  0  0  0  0
  7 10  1  0  0  0  0
  7 20  1  0  0  0  0
  8 13  1  0  0  0  0
  8 14  1  0  0  0  0
  9 25  1  0  0  0  0
  9 13  1  0  0  0  0
 10  4  1  0  0  0  0
 11 17  1  0  0  0  0
 12 23  1  0  0  0  0
 12  7  1  0  0  0  0
 13  5  1  0  0  0  0
 14 26  1  0  0  0  0
 15 29  1  0  0  0  0
 15  9  1  0  0  0  0
 16  6  1  0  0  0  0
 18 11  1  0  0  0  0
 19 11  1  0  0  0  0
 21 12  1  0  0  0  0
 22 12  1  0  0  0  0
 24  8  1  0  0  0  0
 27 14  1  0  0  0  0
 28 14  1  0  0  0  0
 30 15  1  0  0  0  0
 31 15  1  0  0  0  0
M  END
$$$$
