CSD_code = UYELAM | q = 0 | S = 0 | Stoichiometry = C9H8ClN2O3Re | MND = 6
 OpenBabel04212202103D

 24 25  0  0  0  0  0  0  0  0999 V2000
    1.8111    8.7552    4.7478 Re  0  0  0  0  0  0  0  0  0  0  0  0
    2.9322    7.7473    6.5547 Cl  0  0  0  0  0  0  0  0  0  0  0  0
    0.9468    9.4050    3.1379 C   0  0  0  0  0  2  0  0  0  0  0  0
    0.4415    9.7660    2.1691 O   0  0  0  0  0  1  0  0  0  0  0  0
    2.7854   10.4074    5.0842 C   0  0  0  0  0  2  0  0  0  0  0  0
    3.4303   11.3216    5.3230 O   0  0  0  0  0  1  0  0  0  0  0  0
    0.3678    9.3589    5.9012 C   0  0  0  0  0  2  0  0  0  0  0  0
   -0.4702    9.6436    6.6296 O   0  0  0  0  0  1  0  0  0  0  0  0
    1.0701    6.7231    4.4111 N   0  0  0  0  0  0  0  0  0  0  0  0
    3.4621    7.6915    3.5451 N   0  0  0  0  0  4  0  0  0  0  0  0
    3.3788    7.8307    2.5372 H   0  0  0  0  0  0  0  0  0  0  0  0
    4.3734    8.0526    3.8282 H   0  0  0  0  0  0  0  0  0  0  0  0
   -0.1833    6.3311    4.6362 C   0  0  0  0  0  3  0  0  0  0  0  0
   -0.8794    7.1018    4.9400 H   0  0  0  0  0  0  0  0  0  0  0  0
   -0.5996    5.0206    4.4971 C   0  0  0  0  0  0  0  0  0  0  0  0
   -1.6242    4.7565    4.7019 H   0  0  0  0  0  0  0  0  0  0  0  0
    0.3226    4.0669    4.0937 C   0  0  0  0  0  0  0  0  0  0  0  0
    0.0369    3.0335    3.9717 H   0  0  0  0  0  0  0  0  0  0  0  0
    1.6225    4.4719    3.8535 C   0  0  0  0  0  0  0  0  0  0  0  0
    2.3769    3.7655    3.5425 H   0  0  0  0  0  0  0  0  0  0  0  0
    1.9635    5.8070    4.0289 C   0  0  0  0  0  0  0  0  0  0  0  0
    3.3898    6.2609    3.8684 C   0  0  0  0  0  0  0  0  0  0  0  0
    3.9133    5.6373    3.1331 H   0  0  0  0  0  0  0  0  0  0  0  0
    3.8622    6.1245    4.8508 H   0  0  0  0  0  0  0  0  0  0  0  0
  1  5  1  0  0  0  0
  1  7  1  0  0  0  0
  1  2  1  0  0  0  0
  3  1  1  0  0  0  0
  4  3  1  0  0  0  0
  5  6  1  0  0  0  0
  7  8  1  0  0  0  0
  9 13  1  0  0  0  0
  9  1  1  0  0  0  0
 10 12  1  0  0  0  0
 10 22  1  0  0  0  0
 10  1  1  0  0  0  0
 11 10  1  0  0  0  0
 13 14  1  0  0  0  0
 15 13  1  0  0  0  0
 15 16  1  0  0  0  0
 17 15  2  0  0  0  0
 18 17  1  0  0  0  0
 19 21  2  0  0  0  0
 19 17  1  0  0  0  0
 20 19  1  0  0  0  0
 21  9  1  0  0  0  0
 22 21  1  0  0  0  0
 22 24  1  0  0  0  0
 23 22  1  0  0  0  0
M  END
$$$$
