CSD_code = UYINOH | q = 0 | S = 0 | Stoichiometry = C28H30Cl2N2P2Pd | MND = 4
 OpenBabel04212202103D

 65 69  0  0  0  0  0  0  0  0999 V2000
   10.0196    4.7786    3.8104 Pd  0  0  0  0  0  0  0  0  0  0  0  0
    9.2450    6.6414    2.7679 Cl  0  0  0  0  0  0  0  0  0  0  0  0
   11.6306    5.8622    4.9676 Cl  0  0  0  0  0  0  0  0  0  0  0  0
    8.4773    3.3964    2.9927 P   0  0  1  0  0  4  0  0  0  0  0  0
   10.6140    2.7187    4.4790 P   0  0  0  0  0  4  0  0  0  0  0  0
    9.1986    2.0325    3.7589 N   0  0  0  0  0  0  0  0  0  0  0  0
    6.9112    3.4034    3.6390 N   0  0  0  0  0  0  0  0  0  0  0  0
    8.2114    2.9839    1.2485 C   0  0  0  0  0  0  0  0  0  0  0  0
    7.1647    2.2050    0.7690 C   0  0  0  0  0  0  0  0  0  0  0  0
    6.4229    1.8184    1.4532 H   0  0  0  0  0  0  0  0  0  0  0  0
    7.0781    1.9446   -0.5866 C   0  0  0  0  0  0  0  0  0  0  0  0
    6.2673    1.3407   -0.9667 H   0  0  0  0  0  0  0  0  0  0  0  0
    8.0244    2.4615   -1.4585 C   0  0  0  0  0  0  0  0  0  0  0  0
    7.9477    2.2558   -2.5158 H   0  0  0  0  0  0  0  0  0  0  0  0
    9.0590    3.2516   -0.9823 C   0  0  0  0  0  0  0  0  0  0  0  0
    9.7836    3.6659   -1.6669 H   0  0  0  0  0  0  0  0  0  0  0  0
    9.1510    3.5160    0.3718 C   0  0  0  0  0  0  0  0  0  0  0  0
    9.9349    4.1570    0.7706 H   0  0  0  0  0  0  0  0  0  0  0  0
    6.3050    2.4937    5.8023 C   0  0  0  0  0  0  0  0  0  0  0  0
    5.8097    1.6938    5.2715 H   0  0  0  0  0  0  0  0  0  0  0  0
    6.2996    2.5361    7.1874 C   0  0  0  0  0  0  0  0  0  0  0  0
    5.7917    1.7623    7.7445 H   0  0  0  0  0  0  0  0  0  0  0  0
    6.9493    3.5623    7.8525 C   0  0  0  0  0  0  0  0  0  0  0  0
    6.9531    3.5899    8.9316 H   0  0  0  0  0  0  0  0  0  0  0  0
    7.5902    4.5574    7.1321 C   0  0  0  0  0  0  0  0  0  0  0  0
    8.0937    5.3621    7.6459 H   0  0  0  0  0  0  0  0  0  0  0  0
    7.5847    4.5328    5.7463 C   0  0  0  0  0  0  0  0  0  0  0  0
    8.0416    5.3650    5.1931 H   0  0  0  0  0  0  0  0  0  0  0  0
    6.9468    3.4881    5.0774 C   0  0  0  0  0  0  0  0  0  0  0  0
    8.8578    0.6620    3.3770 C   0  0  0  0  0  0  0  0  0  0  0  0
    8.9293   -0.2976    4.5580 C   0  0  0  0  0  0  0  0  0  0  0  0
    9.9306   -0.2995    4.9826 H   0  0  0  0  0  0  0  0  0  0  0  0
    8.6913   -1.3042    4.2224 H   0  0  0  0  0  0  0  0  0  0  0  0
    8.2229   -0.0133    5.3324 H   0  0  0  0  0  0  0  0  0  0  0  0
    9.7205    0.1493    2.2233 C   0  0  0  0  0  0  0  0  0  0  0  0
    9.7723    0.8888    1.4270 H   0  0  0  0  0  0  0  0  0  0  0  0
    9.2918   -0.7649    1.8196 H   0  0  0  0  0  0  0  0  0  0  0  0
   10.7303   -0.0603    2.5650 H   0  0  0  0  0  0  0  0  0  0  0  0
   10.8480    2.0514    6.1410 C   0  0  0  0  0  0  0  0  0  0  0  0
    9.7575    1.7627    6.9551 C   0  0  0  0  0  0  0  0  0  0  0  0
    8.7618    1.8191    6.5436 H   0  0  0  0  0  0  0  0  0  0  0  0
    9.9542    1.4146    8.2776 C   0  0  0  0  0  0  0  0  0  0  0  0
    9.1044    1.1806    8.9018 H   0  0  0  0  0  0  0  0  0  0  0  0
   11.2359    1.3817    8.8040 C   0  0  0  0  0  0  0  0  0  0  0  0
   11.3883    1.1135    9.8388 H   0  0  0  0  0  0  0  0  0  0  0  0
   12.3210    1.7158    8.0089 C   0  0  0  0  0  0  0  0  0  0  0  0
   13.3169    1.7179    8.4264 H   0  0  0  0  0  0  0  0  0  0  0  0
   12.1317    2.0609    6.6837 C   0  0  0  0  0  0  0  0  0  0  0  0
   12.9719    2.3505    6.0680 H   0  0  0  0  0  0  0  0  0  0  0  0
   12.0552    2.1696    3.5086 C   0  0  0  0  0  0  0  0  0  0  0  0
   12.7197    0.9629    3.7078 C   0  0  0  0  0  0  0  0  0  0  0  0
   12.4015    0.2945    4.4971 H   0  0  0  0  0  0  0  0  0  0  0  0
   13.7946    0.6287    2.9039 C   0  0  0  0  0  0  0  0  0  0  0  0
   14.3120   -0.3064    3.0614 H   0  0  0  0  0  0  0  0  0  0  0  0
   14.2109    1.4923    1.9026 C   0  0  0  0  0  0  0  0  0  0  0  0
   15.0525    1.2268    1.2804 H   0  0  0  0  0  0  0  0  0  0  0  0
   13.5599    2.7002    1.7080 C   0  0  0  0  0  0  0  0  0  0  0  0
   13.8979    3.3781    0.9387 H   0  0  0  0  0  0  0  0  0  0  0  0
   12.4866    3.0420    2.5111 C   0  0  0  0  0  0  0  0  0  0  0  0
   11.9911    4.0171    2.3915 H   0  0  0  0  0  0  0  0  0  0  0  0
    6.0677    4.4561    3.0596 C   0  0  0  0  0  0  0  0  0  0  0  0
    5.0556    4.3384    3.4482 H   0  0  0  0  0  0  0  0  0  0  0  0
    6.0544    4.3428    1.9758 H   0  0  0  0  0  0  0  0  0  0  0  0
    6.4290    5.4622    3.2942 H   0  0  0  0  0  0  0  0  0  0  0  0
    7.8160    0.7209    3.0345 H   0  0  0  0  0  0  0  0  0  0  0  0
  1  5  1  0  0  0  0
  1  3  1  0  0  0  0
  2  1  1  0  0  0  0
  4  7  1  1  0  0  0
  4  6  1  0  0  0  0
  4  1  1  0  0  0  0
  5 39  1  0  0  0  0
  6  5  1  0  0  0  0
  7 29  1  0  0  0  0
  8  4  1  0  0  0  0
  9  8  1  0  0  0  0
  9 10  1  0  0  0  0
 11  9  2  0  0  0  0
 12 11  1  0  0  0  0
 13 15  2  0  0  0  0
 13 11  1  0  0  0  0
 14 13  1  0  0  0  0
 15 17  1  0  0  0  0
 16 15  1  0  0  0  0
 17 18  1  0  0  0  0
 17  8  2  0  0  0  0
 19 21  1  0  0  0  0
 20 19  1  0  0  0  0
 21 22  1  0  0  0  0
 21 23  2  0  0  0  0
 23 24  1  0  0  0  0
 25 26  1  0  0  0  0
 25 23  1  0  0  0  0
 27 25  2  0  0  0  0
 28 27  1  0  0  0  0
 29 27  1  0  0  0  0
 29 19  2  0  0  0  0
 30  6  1  0  0  0  0
 30 31  1  0  0  0  0
 31 32  1  0  0  0  0
 31 34  1  0  0  0  0
 33 31  1  0  0  0  0
 35 38  1  0  0  0  0
 35 30  1  0  0  0  0
 36 35  1  0  0  0  0
 37 35  1  0  0  0  0
 39 48  2  0  0  0  0
 39 40  1  0  0  0  0
 40 42  2  0  0  0  0
 41 40  1  0  0  0  0
 42 44  1  0  0  0  0
 42 43  1  0  0  0  0
 44 45  1  0  0  0  0
 46 47  1  0  0  0  0
 46 44  2  0  0  0  0
 48 46  1  0  0  0  0
 49 48  1  0  0  0  0
 50 51  1  0  0  0  0
 50  5  1  0  0  0  0
 51 52  1  0  0  0  0
 53 54  1  0  0  0  0
 53 51  2  0  0  0  0
 55 53  1  0  0  0  0
 56 55  1  0  0  0  0
 57 55  2  0  0  0  0
 57 59  1  0  0  0  0
 58 57  1  0  0  0  0
 59 50  2  0  0  0  0
 60 59  1  0  0  0  0
 61 64  1  0  0  0  0
 61 62  1  0  0  0  0
 61  7  1  0  0  0  0
 63 61  1  0  0  0  0
 65 30  1  0  0  0  0
M  END
$$$$
