CSD_code = UYOWEL | q = 0 | S = 0 | Stoichiometry = C13H13Cl2N2O3Re | MND = 6
 OpenBabel04212202103D

 34 37  0  0  1  0  0  0  0  0999 V2000
    1.5933    0.9728    5.8563 Cl  0  0  0  0  0  0  0  0  0  0  0  0
    1.8181    6.0002    4.7394 O   0  0  0  0  0  0  0  0  0  0  0  0
    1.6943    4.7482    4.1367 C   0  0  1  0  0  0  0  0  0  0  0  0
    0.6331    6.4442    5.4017 C   0  0  0  0  0  0  0  0  0  0  0  0
    0.3421    5.7022    6.1536 H   0  0  0  0  0  0  0  0  0  0  0  0
   -0.1822    6.5330    4.6690 H   0  0  0  0  0  0  0  0  0  0  0  0
    0.9317    7.7832    6.0490 C   0  0  0  0  0  0  0  0  0  0  0  0
    0.0471    8.1410    6.5676 H   0  0  0  0  0  0  0  0  0  0  0  0
    1.2230    8.5101    5.2952 H   0  0  0  0  0  0  0  0  0  0  0  0
    1.7449    7.6762    6.7611 H   0  0  0  0  0  0  0  0  0  0  0  0
    1.0593    3.8030    4.8635 O   0  0  0  0  0  0  0  0  0  0  0  0
    1.1711    0.9351    2.8474 O   0  0  0  0  0  1  0  0  0  0  0  0
    5.4130    4.2789    3.3547 C   0  0  0  0  0  0  0  0  0  0  0  0
    6.3359    4.8267    3.2396 H   0  0  0  0  0  0  0  0  0  0  0  0
    0.9687    2.1042    4.0055 Re  0  0  0  0  0  0  0  0  0  0  0  0
   -1.2109    1.8057    4.5189 Cl  0  0  0  0  0  0  0  0  0  0  0  0
    0.4657    3.6337    2.4284 N   0  0  0  0  0  0  0  0  0  0  0  0
   -0.1819    3.4954    1.2824 C   0  0  0  0  0  3  0  0  0  0  0  0
   -0.5730    2.5091    1.0807 H   0  0  0  0  0  0  0  0  0  0  0  0
   -0.3425    4.5643    0.4160 C   0  0  0  0  0  0  0  0  0  0  0  0
   -0.8850    4.4336   -0.5061 H   0  0  0  0  0  0  0  0  0  0  0  0
    0.1994    5.7956    0.7576 C   0  0  0  0  0  0  0  0  0  0  0  0
    0.0849    6.6470    0.1039 H   0  0  0  0  0  0  0  0  0  0  0  0
    0.8893    5.9240    1.9547 C   0  0  0  0  0  0  0  0  0  0  0  0
    1.3316    6.8556    2.2701 H   0  0  0  0  0  0  0  0  0  0  0  0
    0.9820    4.8083    2.7649 C   0  0  0  0  0  0  0  0  0  0  0  0
    3.0761    2.8776    3.6802 N   0  0  0  0  0  0  0  0  0  0  0  0
    3.0874    4.1995    3.7954 C   0  0  2  0  0  3  0  0  0  0  0  0
    4.2328    4.9543    3.6318 C   0  0  0  0  0  0  0  0  0  0  0  0
    4.1885    6.0242    3.7487 H   0  0  0  0  0  0  0  0  0  0  0  0
    5.3934    2.8963    3.2358 C   0  0  0  0  0  0  0  0  0  0  0  0
    6.2946    2.3441    3.0242 H   0  0  0  0  0  0  0  0  0  0  0  0
    4.1934    2.2249    3.4047 C   0  0  0  0  0  0  0  0  0  0  0  0
    4.1033    1.1512    3.3310 H   0  0  0  0  0  0  0  0  0  0  0  0
  2  4  1  0  0  0  0
  3  2  1  1  0  0  0
  3 11  1  0  0  0  0
  4  7  1  0  0  0  0
  4  5  1  0  0  0  0
  6  4  1  0  0  0  0
  7  8  1  0  0  0  0
  7 10  1  0  0  0  0
  9  7  1  0  0  0  0
 12 15  1  0  0  0  0
 13 29  2  0  0  0  0
 14 13  1  0  0  0  0
 15 16  1  0  0  0  0
 15 11  1  0  0  0  0
 15  1  1  0  0  0  0
 17 26  1  0  0  0  0
 17 15  1  0  0  0  0
 18 17  1  0  0  0  0
 19 18  1  0  0  0  0
 20 22  2  0  0  0  0
 20 18  1  0  0  0  0
 21 20  1  0  0  0  0
 22 24  1  0  0  0  0
 23 22  1  0  0  0  0
 24 25  1  0  0  0  0
 24 26  2  0  0  0  0
 26  3  1  0  0  0  0
 27 28  1  0  0  0  0
 27 15  1  0  0  0  0
 28 29  1  1  0  0  0
 28  3  1  0  0  0  0
 29 30  1  0  0  0  0
 31 13  1  0  0  0  0
 31 33  2  0  0  0  0
 32 31  1  0  0  0  0
 33 27  1  0  0  0  0
 34 33  1  0  0  0  0
M  END
$$$$
