CSD_code = UYOWIP | q = 0 | S = 0 | Stoichiometry = C14H15Cl2N2O3Re | MND = 6
 OpenBabel04212202103D

 37 40  0  0  1  0  0  0  0  0999 V2000
   13.2804    4.4230    5.5491 Re  0  0  0  0  0  0  0  0  0  0  0  0
   12.4809    5.5152    7.3579 Cl  0  0  0  0  0  0  0  0  0  0  0  0
   11.2895    3.4019    5.2438 Cl  0  0  0  0  0  0  0  0  0  0  0  0
   13.1878    5.6219    4.4078 O   0  0  0  0  0  1  0  0  0  0  0  0
   15.8041    1.5651    6.9264 O   0  0  0  0  0  0  0  0  0  0  0  0
   13.9968    2.9922    6.5807 O   0  0  0  0  0  0  0  0  0  0  0  0
   15.4015    5.0046    6.0440 N   0  0  0  0  0  0  0  0  0  0  0  0
   14.3044    3.0230    4.0843 N   0  0  0  0  0  0  0  0  0  0  0  0
   17.4677    3.9563    6.5744 C   0  0  0  0  0  0  0  0  0  0  0  0
   18.0047    3.0412    6.7672 H   0  0  0  0  0  0  0  0  0  0  0  0
   15.5816    1.6219    8.3350 C   0  0  0  0  0  0  0  0  0  0  0  0
   14.5038    1.6513    8.5310 H   0  0  0  0  0  0  0  0  0  0  0  0
   16.0309    2.5401    8.7411 H   0  0  0  0  0  0  0  0  0  0  0  0
   15.2497    2.6350    6.2233 C   0  0  2  0  0  0  0  0  0  0  0  0
   15.2174    2.3039    4.7242 C   0  0  1  0  0  3  0  0  0  0  0  0
   16.0148    1.3714    4.0889 C   0  0  0  0  0  0  0  0  0  0  0  0
   16.7323    0.8059    4.6595 H   0  0  0  0  0  0  0  0  0  0  0  0
   16.2117    0.3873    8.9620 C   0  0  0  0  0  0  0  0  0  0  0  0
   17.2758    0.3726    8.7182 H   0  0  0  0  0  0  0  0  0  0  0  0
   15.7553   -0.4978    8.5169 H   0  0  0  0  0  0  0  0  0  0  0  0
   15.8219    1.1824    2.7279 C   0  0  0  0  0  0  0  0  0  0  0  0
   16.4079    0.4492    2.1948 H   0  0  0  0  0  0  0  0  0  0  0  0
   17.3250    6.3363    6.3531 C   0  0  0  0  0  0  0  0  0  0  0  0
   17.7716    7.3170    6.3779 H   0  0  0  0  0  0  0  0  0  0  0  0
   16.1146    3.9152    6.2966 C   0  0  2  0  0  3  0  0  0  0  0  0
   18.0797    5.2010    6.6138 C   0  0  0  0  0  0  0  0  0  0  0  0
   19.1304    5.2814    6.8479 H   0  0  0  0  0  0  0  0  0  0  0  0
   15.9776    6.1961    6.0634 C   0  0  0  0  0  0  0  0  0  0  0  0
   15.3307    7.0336    5.8478 H   0  0  0  0  0  0  0  0  0  0  0  0
   16.0183    0.3759   10.4723 C   0  0  0  0  0  0  0  0  0  0  0  0
   16.4699   -0.5141   10.9025 H   0  0  0  0  0  0  0  0  0  0  0  0
   14.9600    0.3809   10.7213 H   0  0  0  0  0  0  0  0  0  0  0  0
   16.4801    1.2506   10.9251 H   0  0  0  0  0  0  0  0  0  0  0  0
   14.8649    1.9381    2.0652 C   0  0  0  0  0  0  0  0  0  0  0  0
   14.6902    1.8109    1.0092 H   0  0  0  0  0  0  0  0  0  0  0  0
   14.1205    2.8590    2.7845 C   0  0  0  0  0  0  0  0  0  0  0  0
   13.3567    3.4776    2.3370 H   0  0  0  0  0  0  0  0  0  0  0  0
  1  7  1  0  0  0  0
  1  6  1  0  0  0  0
  1  2  1  0  0  0  0
  3  1  1  0  0  0  0
  4  1  1  0  0  0  0
  5 11  1  0  0  0  0
  7 28  1  0  0  0  0
  7 25  1  0  0  0  0
  8 15  1  0  0  0  0
  8  1  1  0  0  0  0
  9 26  2  0  0  0  0
  9 10  1  0  0  0  0
 11 12  1  0  0  0  0
 11 13  1  0  0  0  0
 11 18  1  0  0  0  0
 14 25  1  0  0  0  0
 14  6  1  0  0  0  0
 14  5  1  1  0  0  0
 15 16  1  1  0  0  0
 15 14  1  0  0  0  0
 16 17  1  0  0  0  0
 18 30  1  0  0  0  0
 19 18  1  0  0  0  0
 20 18  1  0  0  0  0
 21 16  2  0  0  0  0
 22 21  1  0  0  0  0
 23 24  1  0  0  0  0
 23 26  1  0  0  0  0
 25  9  1  6  0  0  0
 26 27  1  0  0  0  0
 28 23  2  0  0  0  0
 29 28  1  0  0  0  0
 30 32  1  0  0  0  0
 30 31  1  0  0  0  0
 30 33  1  0  0  0  0
 34 21  1  0  0  0  0
 34 36  2  0  0  0  0
 35 34  1  0  0  0  0
 36  8  1  0  0  0  0
 37 36  1  0  0  0  0
M  END
$$$$
