CSD_code = UYUYEU | q = 0 | S = 0 | Stoichiometry = C25H31ClNOPPd | MND = 4
 OpenBabel04212202103D

 61 64  0  0  0  0  0  0  0  0999 V2000
    7.2347    1.8048   12.6431 Pd  0  0  1  0  0  0  0  0  0  0  0  0
    9.4393    0.8196   12.6427 Cl  0  0  0  0  0  0  0  0  0  0  0  0
    8.3355    3.7375   12.7932 P   0  0  0  0  0  4  0  0  0  0  0  0
    8.0066    1.1807    9.9714 O   0  0  0  0  0  0  0  0  0  0  0  0
    8.4375    0.9755   10.8355 H   0  0  0  0  0  0  0  0  0  0  0  0
    6.2493   -0.0700   12.4825 N   0  0  0  0  0  4  0  0  0  0  0  0
    5.3748    2.4315   13.0388 C   0  0  0  0  0  0  0  0  0  0  0  0
    4.9564    3.4969   13.8246 C   0  0  0  0  0  0  0  0  0  0  0  0
    5.6757    4.2068   14.2181 H   0  0  0  0  0  0  0  0  0  0  0  0
    3.6122    3.6771   14.1227 C   0  0  0  0  0  0  0  0  0  0  0  0
    3.3078    4.5211   14.7256 H   0  0  0  0  0  0  0  0  0  0  0  0
    2.6671    2.7818   13.6571 C   0  0  0  0  0  0  0  0  0  0  0  0
    1.6205    2.9266   13.8821 H   0  0  0  0  0  0  0  0  0  0  0  0
    3.0726    1.6769   12.9267 C   0  0  0  0  0  0  0  0  0  0  0  0
    2.3457    0.9476   12.5948 H   0  0  0  0  0  0  0  0  0  0  0  0
    4.4143    1.4984   12.6303 C   0  0  0  0  0  0  0  0  0  0  0  0
    4.9335    0.2776   11.9206 C   0  0  0  0  0  0  0  0  0  0  0  0
    5.0782    0.5014   10.8555 H   0  0  0  0  0  0  0  0  0  0  0  0
    4.2362   -0.5716   12.0086 H   0  0  0  0  0  0  0  0  0  0  0  0
    6.1216   -0.5496   13.8601 C   0  0  0  0  0  0  0  0  0  0  0  0
    5.5716   -1.5020   13.8941 H   0  0  0  0  0  0  0  0  0  0  0  0
    5.5876    0.1826   14.4728 H   0  0  0  0  0  0  0  0  0  0  0  0
    7.1199   -0.7079   14.2793 H   0  0  0  0  0  0  0  0  0  0  0  0
    6.8749   -1.1140   11.6753 C   0  0  0  0  0  0  0  0  0  0  0  0
    6.2754   -2.0346   11.7019 H   0  0  0  0  0  0  0  0  0  0  0  0
    7.8717   -1.3300   12.0620 H   0  0  0  0  0  0  0  0  0  0  0  0
    6.9668   -0.7760   10.6430 H   0  0  0  0  0  0  0  0  0  0  0  0
    9.3529    3.9610   11.2746 C   0  0  0  0  0  0  0  0  0  0  0  0
    9.9312    4.8876   11.3165 H   0  0  0  0  0  0  0  0  0  0  0  0
   10.0413    3.1138   11.2287 H   0  0  0  0  0  0  0  0  0  0  0  0
    8.3786    3.9550   10.0860 C   0  0  0  0  0  0  0  0  0  0  0  0
    7.4451    3.4521   10.3936 H   0  0  0  0  0  0  0  0  0  0  0  0
    8.1294    4.9803    9.8067 H   0  0  0  0  0  0  0  0  0  0  0  0
    8.8861    3.1999    8.8604 C   0  0  0  0  0  0  0  0  0  0  0  0
    8.1675    3.3557    8.0535 H   0  0  0  0  0  0  0  0  0  0  0  0
    9.8531    3.5855    8.5336 H   0  0  0  0  0  0  0  0  0  0  0  0
    9.0190    1.6861    9.1293 C   0  0  0  0  0  0  0  0  0  0  0  0
    8.9551    1.1526    8.1722 H   0  0  0  0  0  0  0  0  0  0  0  0
   10.0014    1.4731    9.5632 H   0  0  0  0  0  0  0  0  0  0  0  0
    9.4416    3.6164   14.2254 C   0  0  0  0  0  0  0  0  0  0  0  0
   10.7189    4.1568   14.2980 C   0  0  0  0  0  0  0  0  0  0  0  0
   11.1201    4.7165   13.4648 H   0  0  0  0  0  0  0  0  0  0  0  0
   11.4837    3.9583   15.4350 C   0  0  0  0  0  0  0  0  0  0  0  0
   12.4813    4.3697   15.4890 H   0  0  0  0  0  0  0  0  0  0  0  0
   10.9791    3.2262   16.4967 C   0  0  0  0  0  0  0  0  0  0  0  0
   11.5839    3.0691   17.3777 H   0  0  0  0  0  0  0  0  0  0  0  0
    9.7067    2.6795   16.4250 C   0  0  0  0  0  0  0  0  0  0  0  0
    9.3221    2.0958   17.2487 H   0  0  0  0  0  0  0  0  0  0  0  0
    8.9415    2.8702   15.2908 C   0  0  0  0  0  0  0  0  0  0  0  0
    7.9476    2.4212   15.1986 H   0  0  0  0  0  0  0  0  0  0  0  0
    7.6102    5.4101   12.9232 C   0  0  0  0  0  0  0  0  0  0  0  0
    8.1799    6.3993   13.7149 C   0  0  0  0  0  0  0  0  0  0  0  0
    9.0450    6.1738   14.3224 H   0  0  0  0  0  0  0  0  0  0  0  0
    7.6345    7.6717   13.7343 C   0  0  0  0  0  0  0  0  0  0  0  0
    8.0808    8.4362   14.3536 H   0  0  0  0  0  0  0  0  0  0  0  0
    6.5205    7.9641   12.9660 C   0  0  0  0  0  0  0  0  0  0  0  0
    6.0974    8.9576   12.9846 H   0  0  0  0  0  0  0  0  0  0  0  0
    5.9434    6.9779   12.1815 C   0  0  0  0  0  0  0  0  0  0  0  0
    5.0676    7.2001   11.5899 H   0  0  0  0  0  0  0  0  0  0  0  0
    6.4829    5.7057   12.1620 C   0  0  0  0  0  0  0  0  0  0  0  0
    6.0185    4.9232   11.5768 H   0  0  0  0  0  0  0  0  0  0  0  0
  1  2  1  1  0  0  0
  1  3  1  0  0  0  0
  1  7  1  0  0  0  0
  3 51  1  0  0  0  0
  3 40  1  0  0  0  0
  4  5  1  0  0  0  0
  6  1  1  0  0  0  0
  6 20  1  0  0  0  0
  7  8  1  0  0  0  0
  8 10  2  0  0  0  0
  8  9  1  0  0  0  0
 10 11  1  0  0  0  0
 12 13  1  0  0  0  0
 12 10  1  0  0  0  0
 14 12  2  0  0  0  0
 15 14  1  0  0  0  0
 16 14  1  0  0  0  0
 16  7  2  0  0  0  0
 17 19  1  0  0  0  0
 17  6  1  0  0  0  0
 17 16  1  0  0  0  0
 18 17  1  0  0  0  0
 20 21  1  0  0  0  0
 20 23  1  0  0  0  0
 20 22  1  0  0  0  0
 24 25  1  0  0  0  0
 24 26  1  0  0  0  0
 24  6  1  0  0  0  0
 27 24  1  0  0  0  0
 28 29  1  0  0  0  0
 28  3  1  0  0  0  0
 30 28  1  0  0  0  0
 31 32  1  0  0  0  0
 31 28  1  0  0  0  0
 33 31  1  0  0  0  0
 34 37  1  0  0  0  0
 34 31  1  0  0  0  0
 35 34  1  0  0  0  0
 36 34  1  0  0  0  0
 37 39  1  0  0  0  0
 37  4  1  0  0  0  0
 38 37  1  0  0  0  0
 40 41  2  0  0  0  0
 40 49  1  0  0  0  0
 41 43  1  0  0  0  0
 42 41  1  0  0  0  0
 43 44  1  0  0  0  0
 43 45  2  0  0  0  0
 45 46  1  0  0  0  0
 47 45  1  0  0  0  0
 47 48  1  0  0  0  0
 49 47  2  0  0  0  0
 50 49  1  0  0  0  0
 51 52  1  0  0  0  0
 52 54  2  0  0  0  0
 52 53  1  0  0  0  0
 54 55  1  0  0  0  0
 56 57  1  0  0  0  0
 56 54  1  0  0  0  0
 58 56  2  0  0  0  0
 59 58  1  0  0  0  0
 60 58  1  0  0  0  0
 60 51  2  0  0  0  0
 61 60  1  0  0  0  0
M  END
$$$$
