CSD_code = UYUZIZ | q = 0 | S = 0 | Stoichiometry = C14H17Cl2HgN3 | MND = 5
 OpenBabel04212202103D

 37 37  0  0  0  0  0  0  0  0999 V2000
    5.2076    3.7135    1.6879 Hg  0  0  0  0  0  0  0  0  0  0  0  0
    6.7524    3.7135    3.4063 Cl  0  0  0  0  0  0  0  0  0  0  0  0
    5.6224    3.7135   -0.5548 Cl  0  0  0  0  0  0  0  0  0  0  0  0
    5.0450    6.1927    1.9091 N   0  0  0  0  0  0  0  0  0  0  0  0
    3.3095    3.7135    3.4418 N   0  0  0  0  0  0  0  0  0  0  0  0
    2.3864    3.7135    3.0052 H   0  0  0  0  0  0  0  0  0  0  0  0
    6.1375    6.7438    1.3881 C   0  0  0  0  0  0  0  0  0  0  0  0
    6.5834    6.2184    0.5512 H   0  0  0  0  0  0  0  0  0  0  0  0
    6.6850    7.9250    1.8571 C   0  0  0  0  0  0  0  0  0  0  0  0
    7.5720    8.3328    1.3996 H   0  0  0  0  0  0  0  0  0  0  0  0
    6.0732    8.5549    2.9282 C   0  0  0  0  0  0  0  0  0  0  0  0
    6.4774    9.4684    3.3390 H   0  0  0  0  0  0  0  0  0  0  0  0
    4.9256    7.9922    3.4589 C   0  0  0  0  0  0  0  0  0  0  0  0
    4.4153    8.4610    4.2868 H   0  0  0  0  0  0  0  0  0  0  0  0
    4.4314    6.8101    2.9185 C   0  0  0  0  0  0  0  0  0  0  0  0
    3.1669    6.1957    3.4502 C   0  0  0  0  0  0  0  0  0  0  0  0
    2.6612    6.9281    4.0807 H   0  0  0  0  0  0  0  0  0  0  0  0
    2.5123    5.9573    2.6076 H   0  0  0  0  0  0  0  0  0  0  0  0
    3.4170    4.9177    4.2650 C   0  0  0  0  0  0  0  0  0  0  0  0
    4.4220    4.9364    4.6950 H   0  0  0  0  0  0  0  0  0  0  0  0
    2.6911    4.8708    5.0930 H   0  0  0  0  0  0  0  0  0  0  0  0
    5.0450    1.2343    1.9091 N   0  0  0  0  0  0  0  0  0  0  0  0
    6.1375    0.6832    1.3881 C   0  0  0  0  0  0  0  0  0  0  0  0
    6.5833    1.2086    0.5512 H   0  0  0  0  0  0  0  0  0  0  0  0
    6.6850   -0.4980    1.8571 C   0  0  0  0  0  0  0  0  0  0  0  0
    7.5720   -0.9058    1.3996 H   0  0  0  0  0  0  0  0  0  0  0  0
    6.0732   -1.1279    2.9282 C   0  0  0  0  0  0  0  0  0  0  0  0
    6.4774   -2.0414    3.3390 H   0  0  0  0  0  0  0  0  0  0  0  0
    4.9256   -0.5652    3.4589 C   0  0  0  0  0  0  0  0  0  0  0  0
    4.4153   -1.0340    4.2868 H   0  0  0  0  0  0  0  0  0  0  0  0
    4.4314    0.6169    2.9185 C   0  0  0  0  0  0  0  0  0  0  0  0
    3.1669    1.2313    3.4502 C   0  0  0  0  0  0  0  0  0  0  0  0
    2.6612    0.4989    4.0807 H   0  0  0  0  0  0  0  0  0  0  0  0
    2.5123    1.4697    2.6076 H   0  0  0  0  0  0  0  0  0  0  0  0
    3.4170    2.5093    4.2650 C   0  0  0  0  0  0  0  0  0  0  0  0
    4.4220    2.4906    4.6950 H   0  0  0  0  0  0  0  0  0  0  0  0
    2.6911    2.5562    5.0930 H   0  0  0  0  0  0  0  0  0  0  0  0
  1  2  1  0  0  0  0
  3  1  1  0  0  0  0
  4 15  1  0  0  0  0
  5 35  1  0  0  0  0
  5 19  1  0  0  0  0
  6  5  1  0  0  0  0
  7  9  1  0  0  0  0
  7  4  2  0  0  0  0
  8  7  1  0  0  0  0
  9 11  2  0  0  0  0
 10  9  1  0  0  0  0
 11 12  1  0  0  0  0
 11 13  1  0  0  0  0
 13 14  1  0  0  0  0
 15 16  1  0  0  0  0
 15 13  2  0  0  0  0
 16 17  1  0  0  0  0
 16 19  1  0  0  0  0
 18 16  1  0  0  0  0
 19 20  1  0  0  0  0
 19 21  1  0  0  0  0
 22 31  1  0  0  0  0
 23 25  1  0  0  0  0
 23 22  2  0  0  0  0
 24 23  1  0  0  0  0
 25 27  2  0  0  0  0
 26 25  1  0  0  0  0
 27 28  1  0  0  0  0
 27 29  1  0  0  0  0
 29 30  1  0  0  0  0
 31 32  1  0  0  0  0
 31 29  2  0  0  0  0
 32 33  1  0  0  0  0
 32 35  1  0  0  0  0
 34 32  1  0  0  0  0
 35 36  1  0  0  0  0
 35 37  1  0  0  0  0
M  END
$$$$
