CSD_code = UZACOO | q = 0 | S = 0 | Stoichiometry = C16H22I2N2PdS2 | MND = 4
 OpenBabel04212202103D

 45 46  0  0  1  0  0  0  0  0999 V2000
    1.4795    2.3369    1.7305 I   0  0  0  0  0  0  0  0  0  0  0  0
    5.6576    2.4425    4.8781 I   0  0  0  0  0  0  0  0  0  0  0  0
    3.5977    2.4025    3.2635 Pd  0  0  0  0  0  0  0  0  0  0  0  0
    1.0054    4.8988    6.4808 S   0  0  0  0  0  0  0  0  0  0  0  0
    1.9744   -0.5353    6.5902 S   0  0  0  0  0  0  0  0  0  0  0  0
    3.4802    4.3979    3.3394 N   0  0  0  0  0  0  0  0  0  0  0  0
    3.6897    0.3982    3.1632 N   0  0  0  0  0  0  0  0  0  0  0  0
    2.7447    4.9881    4.2870 C   0  0  2  0  0  3  0  0  0  0  0  0
    2.9573   -0.3565    3.9855 C   0  0  2  0  0  3  0  0  0  0  0  0
    2.6257    6.3671    4.3531 C   0  0  0  0  0  0  0  0  0  0  0  0
    2.0235    6.8096    5.1293 H   0  0  0  0  0  0  0  0  0  0  0  0
    2.9473   -1.7395    3.8840 C   0  0  0  0  0  0  0  0  0  0  0  0
    2.3370   -2.3130    4.5632 H   0  0  0  0  0  0  0  0  0  0  0  0
    3.2842    7.1430    3.4152 C   0  0  0  0  0  0  0  0  0  0  0  0
    3.2060    8.2184    3.4440 H   0  0  0  0  0  0  0  0  0  0  0  0
    3.7233   -2.3474    2.9139 C   0  0  0  0  0  0  0  0  0  0  0  0
    3.7352   -3.4215    2.8154 H   0  0  0  0  0  0  0  0  0  0  0  0
    4.0424    6.5172    2.4422 C   0  0  0  0  0  0  0  0  0  0  0  0
    4.5696    7.0878    1.6945 H   0  0  0  0  0  0  0  0  0  0  0  0
    4.4789   -1.5524    2.0704 C   0  0  0  0  0  0  0  0  0  0  0  0
    5.0954   -1.9881    1.3007 H   0  0  0  0  0  0  0  0  0  0  0  0
    4.1226    5.1314    2.4280 C   0  0  0  0  0  0  0  0  0  0  0  0
    4.4357   -0.1722    2.2128 C   0  0  0  0  0  0  0  0  0  0  0  0
    2.0766    4.0654    5.2590 C   0  0  0  0  0  0  0  0  0  0  0  0
    2.8486    3.5312    5.8352 H   0  0  0  0  0  0  0  0  0  0  0  0
    1.4363    3.3549    4.7094 H   0  0  0  0  0  0  0  0  0  0  0  0
    2.1325    0.3611    5.0123 C   0  0  0  0  0  0  0  0  0  0  0  0
    1.1099    0.4931    4.6437 H   0  0  0  0  0  0  0  0  0  0  0  0
    2.5784    1.3443    5.2409 H   0  0  0  0  0  0  0  0  0  0  0  0
    0.4645    3.3997    7.3456 C   0  0  0  0  0  0  0  0  0  0  0  0
   -0.0679    2.7489    6.6569 H   0  0  0  0  0  0  0  0  0  0  0  0
   -0.2025    3.7223    8.1375 H   0  0  0  0  0  0  0  0  0  0  0  0
    1.3240    2.8901    7.7733 H   0  0  0  0  0  0  0  0  0  0  0  0
    3.7002   -0.4296    7.1370 C   0  0  0  0  0  0  0  0  0  0  0  0
    4.3421   -0.9481    6.4301 H   0  0  0  0  0  0  0  0  0  0  0  0
    3.7509   -0.9113    8.1072 H   0  0  0  0  0  0  0  0  0  0  0  0
    3.9963    0.6119    7.2256 H   0  0  0  0  0  0  0  0  0  0  0  0
    4.9171    4.3952    1.3963 C   0  0  0  0  0  0  0  0  0  0  0  0
    5.6413    3.7292    1.8849 H   0  0  0  0  0  0  0  0  0  0  0  0
    5.4593    5.0880    0.7583 H   0  0  0  0  0  0  0  0  0  0  0  0
    4.2417    3.8013    0.7671 H   0  0  0  0  0  0  0  0  0  0  0  0
    5.2074    0.7391    1.3129 C   0  0  0  0  0  0  0  0  0  0  0  0
    4.5182    1.4339    0.8124 H   0  0  0  0  0  0  0  0  0  0  0  0
    5.7402    0.1732    0.5535 H   0  0  0  0  0  0  0  0  0  0  0  0
    5.9390    1.3104    1.8979 H   0  0  0  0  0  0  0  0  0  0  0  0
  1  3  1  0  0  0  0
  3  6  1  0  0  0  0
  3  2  1  0  0  0  0
  4 30  1  0  0  0  0
  5 34  1  0  0  0  0
  6  8  1  0  0  0  0
  7  3  1  0  0  0  0
  7  9  1  0  0  0  0
  8 10  1  0  0  0  0
  8 24  1  1  0  0  0
  9 27  1  6  0  0  0
 10 11  1  0  0  0  0
 12  9  1  0  0  0  0
 12 13  1  0  0  0  0
 14 15  1  0  0  0  0
 14 10  2  0  0  0  0
 16 12  2  0  0  0  0
 17 16  1  0  0  0  0
 18 14  1  0  0  0  0
 19 18  1  0  0  0  0
 20 23  2  0  0  0  0
 20 16  1  0  0  0  0
 21 20  1  0  0  0  0
 22 18  2  0  0  0  0
 22  6  1  0  0  0  0
 23  7  1  0  0  0  0
 24 25  1  0  0  0  0
 24  4  1  0  0  0  0
 26 24  1  0  0  0  0
 27 29  1  0  0  0  0
 27  5  1  0  0  0  0
 28 27  1  0  0  0  0
 30 33  1  0  0  0  0
 30 32  1  0  0  0  0
 31 30  1  0  0  0  0
 34 37  1  0  0  0  0
 34 36  1  0  0  0  0
 35 34  1  0  0  0  0
 38 39  1  0  0  0  0
 38 22  1  0  0  0  0
 40 38  1  0  0  0  0
 41 38  1  0  0  0  0
 42 45  1  0  0  0  0
 42 23  1  0  0  0  0
 43 42  1  0  0  0  0
 44 42  1  0  0  0  0
M  END
$$$$
