CSD_code = UZENET | q = 0 | S = 0 | Stoichiometry = C16H24CdI2N4O2S2 | MND = 4
 OpenBabel04212202103D

 51 51  0  0  1  0  0  0  0  0999 V2000
    3.9531    4.0555    2.6533 Cd  0  0  0  0  0  0  0  0  0  0  0  0
    4.6591    4.8041    0.1457 I   0  0  0  0  0  0  0  0  0  0  0  0
    1.9086    4.8973    4.2379 I   0  0  0  0  0  0  0  0  0  0  0  0
    5.9745    3.0606    4.2602 S   0  0  0  0  0  0  0  0  0  0  0  0
    2.4148    0.5872    9.4021 C   0  0  0  0  0  0  0  0  0  0  0  0
    2.2108    0.0199   10.3065 H   0  0  0  0  0  0  0  0  0  0  0  0
    1.5405    0.5592    8.7579 H   0  0  0  0  0  0  0  0  0  0  0  0
    2.6151    1.6222    9.6715 H   0  0  0  0  0  0  0  0  0  0  0  0
    3.6198   -0.0161    8.7191 C   0  0  0  0  0  0  0  0  0  0  0  0
    4.1935   -0.9715    9.2054 O   0  0  0  0  0  0  0  0  0  0  0  0
    4.0682    0.6173    7.4733 C   0  0  0  0  0  0  0  0  0  0  0  0
    5.2490    0.2767    6.8983 C   0  0  0  0  0  0  0  0  0  0  0  0
    5.6801    0.9666    5.7802 N   0  0  0  0  0  0  0  0  0  0  0  0
    6.5590    0.7110    5.3498 H   0  0  0  0  0  0  0  0  0  0  0  0
    5.1364    2.1461    5.3858 C   0  0  1  0  0  3  0  0  0  0  0  0
    4.0282    2.5418    5.9935 N   0  0  0  0  0  0  0  0  0  0  0  0
    3.5832    3.4026    5.6822 H   0  0  0  0  0  0  0  0  0  0  0  0
    3.1948    1.6395    6.7762 C   0  0  1  0  0  0  0  0  0  0  0  0
    2.6640    2.2629    7.5007 H   0  0  0  0  0  0  0  0  0  0  0  0
    2.1792    0.9518    5.8557 C   0  0  0  0  0  0  0  0  0  0  0  0
    1.5084    1.6875    5.4185 H   0  0  0  0  0  0  0  0  0  0  0  0
    1.5916    0.2270    6.4113 H   0  0  0  0  0  0  0  0  0  0  0  0
    2.6975    0.4343    5.0509 H   0  0  0  0  0  0  0  0  0  0  0  0
    6.1759   -0.7789    7.3860 C   0  0  0  0  0  0  0  0  0  0  0  0
    6.4032   -0.6235    8.4388 H   0  0  0  0  0  0  0  0  0  0  0  0
    7.0982   -0.7877    6.8099 H   0  0  0  0  0  0  0  0  0  0  0  0
    5.6971   -1.7540    7.3225 H   0  0  0  0  0  0  0  0  0  0  0  0
    3.2166    1.1994    2.3087 S   0  0  0  0  0  0  0  0  0  0  0  0
    0.8752   -1.4928   -3.4591 C   0  0  0  0  0  0  0  0  0  0  0  0
    0.4282   -1.2450   -4.4191 H   0  0  0  0  0  0  0  0  0  0  0  0
    0.1221   -1.4473   -2.6800 H   0  0  0  0  0  0  0  0  0  0  0  0
    1.2618   -2.5073   -3.5271 H   0  0  0  0  0  0  0  0  0  0  0  0
    2.0038   -0.5243   -3.2068 C   0  0  0  0  0  0  0  0  0  0  0  0
    2.4963    0.0997   -4.1241 O   0  0  0  0  0  0  0  0  0  0  0  0
    2.4669   -0.2860   -1.8275 C   0  0  0  0  0  0  0  0  0  0  0  0
    2.2998   -1.0658   -0.7378 C   0  0  0  0  0  0  0  0  0  0  0  0
    2.7440   -0.5956    0.4902 N   0  0  0  0  0  0  0  0  0  0  0  0
    2.6178   -1.1713    1.3111 H   0  0  0  0  0  0  0  0  0  0  0  0
    3.0544    0.7093    0.7212 C   0  0  0  0  0  0  0  0  0  0  0  0
    3.1638    1.5043   -0.3293 N   0  0  0  0  0  0  0  0  0  0  0  0
    3.4527    2.4711   -0.1903 H   0  0  0  0  0  0  0  0  0  0  0  0
    3.2818    0.9883   -1.6843 C   0  0  1  0  0  0  0  0  0  0  0  0
    2.8847    1.7477   -2.3652 H   0  0  0  0  0  0  0  0  0  0  0  0
    4.7528    0.7454   -2.0308 C   0  0  0  0  0  0  0  0  0  0  0  0
    5.3193    1.6653   -1.9051 H   0  0  0  0  0  0  0  0  0  0  0  0
    4.8265    0.4288   -3.0663 H   0  0  0  0  0  0  0  0  0  0  0  0
    5.1758   -0.0247   -1.3885 H   0  0  0  0  0  0  0  0  0  0  0  0
    1.6949   -2.4297   -0.6644 C   0  0  0  0  0  0  0  0  0  0  0  0
    0.6106   -2.3684   -0.5772 H   0  0  0  0  0  0  0  0  0  0  0  0
    2.0712   -2.9544    0.2121 H   0  0  0  0  0  0  0  0  0  0  0  0
    1.9371   -3.0163   -1.5437 H   0  0  0  0  0  0  0  0  0  0  0  0
  1  3  1  0  0  0  0
  1  4  1  0  0  0  0
  2  1  1  0  0  0  0
  5  8  1  0  0  0  0
  5  6  1  0  0  0  0
  7  5  1  0  0  0  0
  9 10  2  0  0  0  0
  9  5  1  0  0  0  0
 11  9  1  0  0  0  0
 12 24  1  0  0  0  0
 12 11  2  0  0  0  0
 13 12  1  0  0  0  0
 14 13  1  0  0  0  0
 15  4  1  1  0  0  0
 15 13  1  0  0  0  0
 15 16  1  0  0  0  0
 16 18  1  0  0  0  0
 17 16  1  0  0  0  0
 18 11  1  0  0  0  0
 18 19  1  1  0  0  0
 20 22  1  0  0  0  0
 20 18  1  0  0  0  0
 21 20  1  0  0  0  0
 23 20  1  0  0  0  0
 24 25  1  0  0  0  0
 26 24  1  0  0  0  0
 27 24  1  0  0  0  0
 29 33  1  0  0  0  0
 29 31  1  0  0  0  0
 30 29  1  0  0  0  0
 32 29  1  0  0  0  0
 33 35  1  0  0  0  0
 34 33  2  0  0  0  0
 35 42  1  0  0  0  0
 35 36  2  0  0  0  0
 36 48  1  0  0  0  0
 36 37  1  0  0  0  0
 37 39  1  0  0  0  0
 37 38  1  0  0  0  0
 39 28  2  0  0  0  0
 40 41  1  0  0  0  0
 40 39  1  0  0  0  0
 42 43  1  6  0  0  0
 42 40  1  0  0  0  0
 44 45  1  0  0  0  0
 44 42  1  0  0  0  0
 44 47  1  0  0  0  0
 46 44  1  0  0  0  0
 48 49  1  0  0  0  0
 48 50  1  0  0  0  0
 51 48  1  0  0  0  0
M  END
$$$$
