CSD_code = UZETEA | q = 1 | S = 0 | Stoichiometry = C10H12Cl2N3O2Ru(1+) | MND = 6
 OpenBabel04212202103D

 30 30  0  0  0  0  0  0  0  0999 V2000
    8.9615    0.3003   10.6154 Ru  0  0  0  0  0  0  0  0  0  0  0  0
   10.1468   -1.2502   11.8757 Cl  0  0  0  0  0  0  0  0  0  0  0  0
    8.4726   -1.3601    9.0601 Cl  0  0  0  0  0  0  0  0  0  0  0  0
    8.2404    1.7618    9.2611 N   0  0  0  0  0  0  0  0  0  0  0  0
    9.8457    1.7415   11.8609 N   0  0  0  0  0  0  0  0  0  0  0  0
   10.8915    0.2335    9.4663 O   0  0  0  0  0  0  0  0  0  0  0  0
    7.5133    0.1330   11.4288 N   0  0  0  0  0  2  0  0  0  0  0  0
    6.5308   -0.0675   11.9736 O   0  0  0  0  0  1  0  0  0  0  0  0
    7.0024    3.7582    8.8621 C   0  0  0  0  0  0  0  0  0  0  0  0
    7.9719    2.5723    7.0386 C   0  0  0  0  0  0  0  0  0  0  0  0
    7.5265    2.7987    9.7086 C   0  0  0  0  0  3  0  0  0  0  0  0
    7.2264    3.6464    7.4967 C   0  0  0  0  0  0  0  0  0  0  0  0
   10.7028    2.6247   11.3486 C   0  0  0  0  0  3  0  0  0  0  0  0
    8.4576    1.6505    7.9521 C   0  0  0  0  0  0  0  0  0  0  0  0
    9.6985    1.6777   13.1848 C   0  0  0  0  0  0  0  0  0  0  0  0
   10.4043    2.5005   14.0461 C   0  0  0  0  0  0  0  0  0  0  0  0
   11.4501    3.4783   12.1413 C   0  0  0  0  0  0  0  0  0  0  0  0
   11.3019    3.4166   13.5191 C   0  0  0  0  0  0  0  0  0  0  0  0
   10.2544    2.4138   15.1099 H   0  0  0  0  0  0  0  0  0  0  0  0
    8.1712    2.4369    5.9880 H   0  0  0  0  0  0  0  0  0  0  0  0
    9.0121    0.7826    7.6190 H   0  0  0  0  0  0  0  0  0  0  0  0
    7.3671    2.8652   10.7793 H   0  0  0  0  0  0  0  0  0  0  0  0
   10.7986    2.6492   10.2674 H   0  0  0  0  0  0  0  0  0  0  0  0
    6.8249    4.3751    6.8102 H   0  0  0  0  0  0  0  0  0  0  0  0
   10.6730   -0.4720    8.8195 H   0  0  0  0  0  0  0  0  0  0  0  0
    9.0063    0.9398   13.5716 H   0  0  0  0  0  0  0  0  0  0  0  0
   11.8741    4.0639   14.1650 H   0  0  0  0  0  0  0  0  0  0  0  0
   12.1369    4.1715   11.6832 H   0  0  0  0  0  0  0  0  0  0  0  0
   11.5468   -0.1746   10.0649 H   0  0  0  0  0  0  0  0  0  0  0  0
    6.4239    4.5721    9.2683 H   0  0  0  0  0  0  0  0  0  0  0  0
  1  7  1  0  0  0  0
  1  5  1  0  0  0  0
  1  2  1  0  0  0  0
  3  1  1  0  0  0  0
  4 11  1  0  0  0  0
  4  1  1  0  0  0  0
  5 15  1  0  0  0  0
  6 29  1  0  0  0  0
  7  8  1  0  0  0  0
  9 30  1  0  0  0  0
  9 11  1  0  0  0  0
 10 12  1  0  0  0  0
 10 14  2  0  0  0  0
 11 22  1  0  0  0  0
 12  9  2  0  0  0  0
 13  5  1  0  0  0  0
 13 17  1  0  0  0  0
 14  4  1  0  0  0  0
 15 26  1  0  0  0  0
 15 16  2  0  0  0  0
 16 19  1  0  0  0  0
 17 18  2  0  0  0  0
 18 16  1  0  0  0  0
 18 27  1  0  0  0  0
 20 10  1  0  0  0  0
 21 14  1  0  0  0  0
 23 13  1  0  0  0  0
 24 12  1  0  0  0  0
 25  6  1  0  0  0  0
 28 17  1  0  0  0  0
M  END
$$$$
