CSD_code = UZEZEF | q = 1 | S = 0 | Stoichiometry = C19H16ClN4Pd(1+) | MND = 4
 OpenBabel04212202103D

 41 46  0  0  1  0  0  0  0  0999 V2000
    9.5943    7.2746    8.5113 Pd  0  0  1  0  0  0  0  0  0  0  0  0
   10.2375    7.6365    6.3901 Cl  0  0  0  0  0  0  0  0  0  0  0  0
    8.0147    8.5499    8.3578 N   0  0  0  0  0  0  0  0  0  0  0  0
    8.4858    7.8732   11.1681 N   0  0  0  0  0  0  0  0  0  0  0  0
    9.1461    5.8030   11.0170 N   0  0  0  0  0  0  0  0  0  0  0  0
   11.1161    5.9658    8.8571 N   0  0  0  0  0  0  0  0  0  0  0  0
    7.3550    8.5820    7.1971 C   0  0  0  0  0  3  0  0  0  0  0  0
    7.7585    7.9775    6.3911 H   0  0  0  0  0  0  0  0  0  0  0  0
    6.2281    9.3625    6.9981 C   0  0  0  0  0  0  0  0  0  0  0  0
    5.7399    9.3615    6.0375 H   0  0  0  0  0  0  0  0  0  0  0  0
    5.7554   10.1337    8.0458 C   0  0  0  0  0  0  0  0  0  0  0  0
    4.8842   10.7586    7.9300 H   0  0  0  0  0  0  0  0  0  0  0  0
    6.4263   10.0789    9.2584 C   0  0  0  0  0  0  0  0  0  0  0  0
    6.0800   10.6593   10.0990 H   0  0  0  0  0  0  0  0  0  0  0  0
    7.5519    9.2788    9.3885 C   0  0  0  0  0  0  0  0  0  0  0  0
    8.2919    9.2337   10.7146 C   0  0  0  0  0  0  0  0  0  0  0  0
    9.2782    9.7081   10.5817 H   0  0  0  0  0  0  0  0  0  0  0  0
    7.7354    9.7887   11.4704 H   0  0  0  0  0  0  0  0  0  0  0  0
    8.2261    7.2970   12.3987 C   0  0  0  0  0  0  0  0  0  0  0  0
    7.6767    7.7903   13.5718 C   0  0  0  0  0  0  0  0  0  0  0  0
    7.3499    8.8139   13.6591 H   0  0  0  0  0  0  0  0  0  0  0  0
    7.5645    6.9134   14.6340 C   0  0  0  0  0  0  0  0  0  0  0  0
    7.1418    7.2623   15.5624 H   0  0  0  0  0  0  0  0  0  0  0  0
    7.9848    5.5878   14.5363 C   0  0  0  0  0  0  0  0  0  0  0  0
    7.8770    4.9393   15.3908 H   0  0  0  0  0  0  0  0  0  0  0  0
    8.5354    5.0851   13.3728 C   0  0  0  0  0  0  0  0  0  0  0  0
    8.8555    4.0578   13.3080 H   0  0  0  0  0  0  0  0  0  0  0  0
    8.6547    5.9559   12.3009 C   0  0  0  0  0  0  0  0  0  0  0  0
    9.0361    6.9620   10.3569 C   0  0  0  0  0  0  0  0  0  0  0  0
    9.6729    4.6312   10.3511 C   0  0  0  0  0  0  0  0  0  0  0  0
    8.9610    4.3170    9.5700 H   0  0  0  0  0  0  0  0  0  0  0  0
    9.7783    3.8226   11.0748 H   0  0  0  0  0  0  0  0  0  0  0  0
   11.0125    4.9195    9.6952 C   0  0  1  0  0  3  0  0  0  0  0  0
   12.0965    4.0948    9.9576 C   0  0  0  0  0  0  0  0  0  0  0  0
   11.9842    3.2577   10.6286 H   0  0  0  0  0  0  0  0  0  0  0  0
   13.3176    4.3467    9.3503 C   0  0  0  0  0  0  0  0  0  0  0  0
   14.1653    3.7075    9.5395 H   0  0  0  0  0  0  0  0  0  0  0  0
   13.4184    5.4392    8.5065 C   0  0  0  0  0  0  0  0  0  0  0  0
   14.3455    5.6848    8.0153 H   0  0  0  0  0  0  0  0  0  0  0  0
   12.2978    6.2247    8.2916 C   0  0  0  0  0  0  0  0  0  0  0  0
   12.3413    7.0793    7.6243 H   0  0  0  0  0  0  0  0  0  0  0  0
  1  2  1  1  0  0  0
  1  6  1  0  0  0  0
  1 29  2  0  0  0  0
  3  1  1  0  0  0  0
  3 15  1  0  0  0  0
  4 19  1  0  0  0  0
  5 28  1  0  0  0  0
  6 33  1  0  0  0  0
  7  3  1  0  0  0  0
  8  7  1  0  0  0  0
  9  7  1  0  0  0  0
  9 11  2  0  0  0  0
 10  9  1  0  0  0  0
 11 13  1  0  0  0  0
 12 11  1  0  0  0  0
 13 15  2  0  0  0  0
 13 14  1  0  0  0  0
 15 16  1  0  0  0  0
 16  4  1  0  0  0  0
 16 18  1  0  0  0  0
 17 16  1  0  0  0  0
 19 20  1  0  0  0  0
 20 21  1  0  0  0  0
 20 22  2  0  0  0  0
 22 23  1  0  0  0  0
 24 22  1  0  0  0  0
 24 25  1  0  0  0  0
 26 24  2  0  0  0  0
 27 26  1  0  0  0  0
 28 19  2  0  0  0  0
 28 26  1  0  0  0  0
 29  5  1  0  0  0  0
 29  4  1  0  0  0  0
 30  5  1  0  0  0  0
 30 32  1  0  0  0  0
 31 30  1  0  0  0  0
 33 34  1  6  0  0  0
 33 30  1  0  0  0  0
 34 35  1  0  0  0  0
 36 37  1  0  0  0  0
 36 34  2  0  0  0  0
 38 36  1  0  0  0  0
 39 38  1  0  0  0  0
 40 38  2  0  0  0  0
 40  6  1  0  0  0  0
 41 40  1  0  0  0  0
M  END
$$$$
