CSD_code = UZIMEW | q = 0 | S = 0 | Stoichiometry = C14H10AuBr3N2 | MND = 4
 OpenBabel04212202103D

 30 32  0  0  1  0  0  0  0  0999 V2000
    7.9935    8.8820    5.0920 C   0  0  0  0  0  0  0  0  0  0  0  0
    7.8104    9.9453    5.0585 H   0  0  0  0  0  0  0  0  0  0  0  0
    5.9843    3.6055    2.7771 Au  0  0  0  0  0  0  0  0  0  0  0  0
    4.4432    3.2733    4.6425 Br  0  0  0  0  0  0  0  0  0  0  0  0
    7.5569    3.7351    0.9134 Br  0  0  0  0  0  0  0  0  0  0  0  0
    4.7410    5.4687    1.9753 Br  0  0  0  0  0  0  0  0  0  0  0  0
    7.1590    2.0306    3.5513 N   0  0  0  0  0  0  0  0  0  0  0  0
    7.8807    3.9778    4.4205 N   0  0  0  0  0  0  0  0  0  0  0  0
    8.0431    2.6583    4.3502 C   0  0  2  0  0  3  0  0  0  0  0  0
    9.0572    1.9510    5.0365 C   0  0  0  0  0  0  0  0  0  0  0  0
    8.7061    4.7053    5.1488 C   0  0  0  0  0  0  0  0  0  0  0  0
    8.1799   -0.0475    4.0424 C   0  0  0  0  0  0  0  0  0  0  0  0
    8.1861   -1.1135    3.8842 H   0  0  0  0  0  0  0  0  0  0  0  0
    7.2159    0.7302    3.3945 C   0  0  0  0  0  0  0  0  0  0  0  0
    6.4827    0.2835    2.7381 H   0  0  0  0  0  0  0  0  0  0  0  0
    9.5280    7.0488    5.3139 C   0  0  0  0  0  0  0  0  0  0  0  0
   10.5412    6.6903    5.4192 H   0  0  0  0  0  0  0  0  0  0  0  0
    9.9285    2.7354    5.8295 C   0  0  0  0  0  0  0  0  0  0  0  0
   10.7144    2.2471    6.3872 H   0  0  0  0  0  0  0  0  0  0  0  0
    9.7604    4.0885    5.8773 C   0  0  0  0  0  0  0  0  0  0  0  0
   10.4044    4.7013    6.4874 H   0  0  0  0  0  0  0  0  0  0  0  0
    6.9403    7.9918    4.9495 C   0  0  0  0  0  0  0  0  0  0  0  0
    5.9345    8.3546    4.8050 H   0  0  0  0  0  0  0  0  0  0  0  0
    8.4747    6.1438    5.1639 C   0  0  0  0  0  0  0  0  0  0  0  0
    9.1027    0.5591    4.8628 C   0  0  0  0  0  0  0  0  0  0  0  0
    9.8619   -0.0175    5.3704 H   0  0  0  0  0  0  0  0  0  0  0  0
    7.1781    6.6330    4.9831 C   0  0  0  0  0  0  0  0  0  0  0  0
    6.3587    5.9376    4.8957 H   0  0  0  0  0  0  0  0  0  0  0  0
    9.2838    8.4076    5.2735 C   0  0  0  0  0  0  0  0  0  0  0  0
   10.1050    9.1011    5.3764 H   0  0  0  0  0  0  0  0  0  0  0  0
  1 29  1  0  0  0  0
  2  1  1  0  0  0  0
  3  7  1  0  0  0  0
  3  4  1  0  0  0  0
  5  3  1  0  0  0  0
  6  3  1  0  0  0  0
  7  9  1  0  0  0  0
  8 11  2  0  0  0  0
  9  8  1  6  0  0  0
  9 10  1  0  0  0  0
 10 18  1  0  0  0  0
 11 24  1  0  0  0  0
 11 20  1  0  0  0  0
 12 25  1  0  0  0  0
 13 12  1  0  0  0  0
 14  7  1  0  0  0  0
 14 12  2  0  0  0  0
 15 14  1  0  0  0  0
 16 17  1  0  0  0  0
 18 20  2  0  0  0  0
 18 19  1  0  0  0  0
 20 21  1  0  0  0  0
 22 27  1  0  0  0  0
 22  1  2  0  0  0  0
 23 22  1  0  0  0  0
 24 16  1  0  0  0  0
 25 10  2  0  0  0  0
 25 26  1  0  0  0  0
 27 24  2  0  0  0  0
 28 27  1  0  0  0  0
 29 16  2  0  0  0  0
 29 30  1  0  0  0  0
M  END
$$$$
