CSD_code = UZIXOS | q = 1 | S = 0 | Stoichiometry = C28H32ClFeN8(1+) | MND = 5
 OpenBabel04212202103D

 70 77  0  0  1  0  0  0  0  0999 V2000
    6.6339   11.8192    4.0911 Fe  0  0  0  0  0  0  0  0  0  0  0  0
    8.2470   10.8588    5.0912 Cl  0  0  0  0  0  0  0  0  0  0  0  0
    7.3476   11.1803    2.1877 N   0  0  0  0  0  0  0  0  0  0  0  0
    8.4528    9.0878    1.8127 N   0  0  0  0  0  0  0  0  0  0  0  0
    6.2410    9.1779    1.7329 N   0  0  0  0  0  0  0  0  0  0  0  0
    7.7783   13.2592    3.7478 N   0  0  0  0  0  0  0  0  0  0  0  0
    4.8745   12.8029    3.6054 N   0  0  0  0  0  0  0  0  0  0  0  0
    4.2955   14.9597    4.4415 N   0  0  0  0  0  0  0  0  0  0  0  0
    5.4632   14.8133    2.5681 N   0  0  0  0  0  0  0  0  0  0  0  0
    5.4153   10.3668    4.4852 N   0  0  0  0  0  0  0  0  0  0  0  0
    7.3752    9.8906    1.9127 C   0  0  0  0  0  3  0  0  0  0  0  0
    9.7616    9.3895    2.3398 C   0  0  0  0  0  0  0  0  0  0  0  0
   10.3994    9.8401    1.5757 H   0  0  0  0  0  0  0  0  0  0  0  0
   10.2228    8.4664    2.6855 H   0  0  0  0  0  0  0  0  0  0  0  0
    9.6732   10.0747    3.1854 H   0  0  0  0  0  0  0  0  0  0  0  0
    8.0496    7.7053    1.6169 C   0  0  0  0  0  0  0  0  0  0  0  0
    8.2984    7.1140    2.5044 H   0  0  0  0  0  0  0  0  0  0  0  0
    8.5724    7.2763    0.7578 H   0  0  0  0  0  0  0  0  0  0  0  0
    6.5340    7.7983    1.4013 C   0  0  0  0  0  0  0  0  0  0  0  0
    6.2524    7.5903    0.3620 H   0  0  0  0  0  0  0  0  0  0  0  0
    5.9715    7.1224    2.0513 H   0  0  0  0  0  0  0  0  0  0  0  0
    4.9622    9.7472    1.4144 C   0  0  0  0  0  0  0  0  0  0  0  0
    4.9468   10.7780    1.7615 H   0  0  0  0  0  0  0  0  0  0  0  0
    4.1749    9.1841    1.9165 H   0  0  0  0  0  0  0  0  0  0  0  0
    4.7788    9.7203    0.3353 H   0  0  0  0  0  0  0  0  0  0  0  0
    8.3821   12.0239    1.8285 C   0  0  0  0  0  0  0  0  0  0  0  0
    9.1383   11.9112    0.6724 C   0  0  0  0  0  0  0  0  0  0  0  0
    8.9796   11.0764    0.0069 H   0  0  0  0  0  0  0  0  0  0  0  0
   10.0808   12.8887    0.3460 C   0  0  0  0  0  0  0  0  0  0  0  0
   10.6588   12.7697   -0.5578 H   0  0  0  0  0  0  0  0  0  0  0  0
   10.2818   13.9883    1.1412 C   0  0  0  0  0  3  0  0  0  0  0  0
   11.0157   14.7340    0.8801 H   0  0  0  0  0  0  0  0  0  0  0  0
    9.5198   14.1589    2.3121 C   0  0  0  0  0  0  0  0  0  0  0  0
    8.5627   13.1701    2.6460 C   0  0  0  0  0  0  0  0  0  0  0  0
    9.6413   15.2616    3.1849 C   0  0  0  0  0  0  0  0  0  0  0  0
   10.3624   16.0347    2.9697 H   0  0  0  0  0  0  0  0  0  0  0  0
    8.8464   15.3222    4.3019 C   0  0  0  0  0  0  0  0  0  0  0  0
    8.9256   16.1410    4.9994 H   0  0  0  0  0  0  0  0  0  0  0  0
    7.9306   14.2970    4.5498 C   0  0  0  0  0  0  0  0  0  0  0  0
    7.3083   14.3108    5.4382 H   0  0  0  0  0  0  0  0  0  0  0  0
    4.8483   14.1160    3.5394 C   0  0  0  0  0  3  0  0  0  0  0  0
    3.9276   14.5888    5.7821 C   0  0  0  0  0  0  0  0  0  0  0  0
    2.8460   14.4638    5.8773 H   0  0  0  0  0  0  0  0  0  0  0  0
    4.2533   15.3645    6.4755 H   0  0  0  0  0  0  0  0  0  0  0  0
    4.4090   13.6458    6.0519 H   0  0  0  0  0  0  0  0  0  0  0  0
    4.5678   16.3439    4.0973 C   0  0  0  0  0  0  0  0  0  0  0  0
    5.1922   16.8097    4.8671 H   0  0  0  0  0  0  0  0  0  0  0  0
    3.6335   16.9082    4.0262 H   0  0  0  0  0  0  0  0  0  0  0  0
    5.2986   16.2410    2.7508 C   0  0  0  0  0  0  0  0  0  0  0  0
    4.7087   16.6614    1.9291 H   0  0  0  0  0  0  0  0  0  0  0  0
    6.2745   16.7358    2.7612 H   0  0  0  0  0  0  0  0  0  0  0  0
    5.8629   14.2734    1.2998 C   0  0  0  0  0  0  0  0  0  0  0  0
    5.9782   13.1971    1.4052 H   0  0  0  0  0  0  0  0  0  0  0  0
    6.8146   14.7103    0.9980 H   0  0  0  0  0  0  0  0  0  0  0  0
    5.1146   14.4916    0.5317 H   0  0  0  0  0  0  0  0  0  0  0  0
    3.8055   12.0583    4.0558 C   0  0  0  0  0  0  0  0  0  0  0  0
    2.4799   12.4574    3.9944 C   0  0  0  0  0  0  0  0  0  0  0  0
    2.2340   13.4434    3.6300 H   0  0  0  0  0  0  0  0  0  0  0  0
    1.4581   11.5844    4.3713 C   0  0  0  0  0  0  0  0  0  0  0  0
    0.4366   11.9292    4.3246 H   0  0  0  0  0  0  0  0  0  0  0  0
    1.7300   10.3045    4.7803 C   0  0  0  0  0  0  0  0  0  0  0  0
    0.9357    9.6320    5.0621 H   0  0  0  0  0  0  0  0  0  0  0  0
    3.0597    9.8439    4.8203 C   0  0  0  0  0  0  0  0  0  0  0  0
    4.1057   10.7331    4.4699 C   0  0  1  0  0  3  0  0  0  0  0  0
    3.4200    8.5272    5.1786 C   0  0  0  0  0  0  0  0  0  0  0  0
    2.6504    7.8225    5.4537 H   0  0  0  0  0  0  0  0  0  0  0  0
    4.7434    8.1722    5.1611 C   0  0  0  0  0  0  0  0  0  0  0  0
    5.0582    7.1754    5.4255 H   0  0  0  0  0  0  0  0  0  0  0  0
    5.7087    9.1200    4.8069 C   0  0  0  0  0  0  0  0  0  0  0  0
    6.7585    8.8693    4.8170 H   0  0  0  0  0  0  0  0  0  0  0  0
  1 10  1  0  0  0  0
  1  2  1  0  0  0  0
  3  1  1  0  0  0  0
  4 11  1  0  0  0  0
  4 12  1  0  0  0  0
  5 11  1  0  0  0  0
  6  1  1  0  0  0  0
  6 39  1  0  0  0  0
  7 56  1  0  0  0  0
  7  1  1  0  0  0  0
  8 42  1  0  0  0  0
  9 49  1  0  0  0  0
  9 41  1  0  0  0  0
 10 69  1  0  0  0  0
 11  3  1  0  0  0  0
 12 14  1  0  0  0  0
 12 15  1  0  0  0  0
 13 12  1  0  0  0  0
 16  4  1  0  0  0  0
 16 17  1  0  0  0  0
 18 16  1  0  0  0  0
 19 16  1  0  0  0  0
 19  5  1  0  0  0  0
 19 21  1  0  0  0  0
 20 19  1  0  0  0  0
 22  5  1  0  0  0  0
 22 23  1  0  0  0  0
 22 24  1  0  0  0  0
 25 22  1  0  0  0  0
 26  3  1  0  0  0  0
 26 34  2  0  0  0  0
 27 26  1  0  0  0  0
 28 27  1  0  0  0  0
 29 27  2  0  0  0  0
 29 31  1  0  0  0  0
 30 29  1  0  0  0  0
 31 33  1  0  0  0  0
 32 31  1  0  0  0  0
 33 34  1  0  0  0  0
 33 35  2  0  0  0  0
 34  6  1  0  0  0  0
 35 37  1  0  0  0  0
 36 35  1  0  0  0  0
 37 39  2  0  0  0  0
 37 38  1  0  0  0  0
 39 40  1  0  0  0  0
 41  7  1  0  0  0  0
 41  8  1  0  0  0  0
 42 43  1  0  0  0  0
 42 45  1  0  0  0  0
 42 44  1  0  0  0  0
 46  8  1  0  0  0  0
 46 47  1  0  0  0  0
 48 46  1  0  0  0  0
 49 51  1  0  0  0  0
 49 46  1  0  0  0  0
 50 49  1  0  0  0  0
 52 53  1  0  0  0  0
 52  9  1  0  0  0  0
 54 52  1  0  0  0  0
 55 52  1  0  0  0  0
 57 56  2  0  0  0  0
 57 59  1  0  0  0  0
 58 57  1  0  0  0  0
 59 61  2  0  0  0  0
 60 59  1  0  0  0  0
 61 63  1  0  0  0  0
 61 62  1  0  0  0  0
 63 65  2  0  0  0  0
 64 56  1  6  0  0  0
 64 10  1  0  0  0  0
 64 63  1  0  0  0  0
 65 66  1  0  0  0  0
 67 65  1  0  0  0  0
 67 68  1  0  0  0  0
 69 70  1  0  0  0  0
 69 67  2  0  0  0  0
M  END
$$$$
