CSD_code = UZOSEJ | q = 0 | S = 0 | Stoichiometry = C14H20AuCl3N2O | MND = 4
 OpenBabel04212202103D

 41 42  0  0  1  0  0  0  0  0999 V2000
    1.3597    4.5405   10.4847 Au  0  0  0  0  0  0  0  0  0  0  0  0
    1.1476    2.3516   10.0495 Cl  0  0  0  0  0  0  0  0  0  0  0  0
    1.9858    4.1975   12.6523 Cl  0  0  0  0  0  0  0  0  0  0  0  0
    0.7509    5.1786    8.3779 Cl  0  0  0  0  0  0  0  0  0  0  0  0
    2.7549    6.9257   10.4774 O   0  0  0  0  0  0  0  0  0  0  0  0
    0.8481    7.4299   11.3689 N   0  0  0  0  0  0  0  0  0  0  0  0
    2.8574    8.3564   10.7100 N   0  0  0  0  0  0  0  0  0  0  0  0
    1.5929    6.4983   10.8451 C   0  0  0  0  0  0  0  0  0  0  0  0
    1.6510    8.6751   11.4644 C   0  0  2  0  0  0  0  0  0  0  0  0
    1.1126    9.5088   10.9985 H   0  0  0  0  0  0  0  0  0  0  0  0
   -0.5219    7.3094   11.8929 C   0  0  0  0  0  0  0  0  0  0  0  0
   -1.3247    6.3442   11.0199 C   0  0  0  0  0  0  0  0  0  0  0  0
   -1.1882    6.5600    9.9627 H   0  0  0  0  0  0  0  0  0  0  0  0
   -2.3810    6.4374   11.2577 H   0  0  0  0  0  0  0  0  0  0  0  0
   -1.0353    5.3111   11.2021 H   0  0  0  0  0  0  0  0  0  0  0  0
   -1.1953    8.6825   11.8569 C   0  0  0  0  0  0  0  0  0  0  0  0
   -0.6848    9.3929   12.5014 H   0  0  0  0  0  0  0  0  0  0  0  0
   -2.2141    8.5797   12.2198 H   0  0  0  0  0  0  0  0  0  0  0  0
   -1.2385    9.0703   10.8414 H   0  0  0  0  0  0  0  0  0  0  0  0
   -0.4588    6.7934   13.3327 C   0  0  0  0  0  0  0  0  0  0  0  0
    0.1323    5.8825   13.3868 H   0  0  0  0  0  0  0  0  0  0  0  0
   -1.4646    6.5757   13.6802 H   0  0  0  0  0  0  0  0  0  0  0  0
   -0.0151    7.5339   13.9932 H   0  0  0  0  0  0  0  0  0  0  0  0
    2.0129    8.9964   12.8938 C   0  0  0  0  0  0  0  0  0  0  0  0
    1.7729   10.2625   13.4105 C   0  0  0  0  0  0  0  0  0  0  0  0
    1.3120   11.0205   12.7920 H   0  0  0  0  0  0  0  0  0  0  0  0
    2.1287   10.5625   14.7121 C   0  0  0  0  0  0  0  0  0  0  0  0
    1.9363   11.5511   15.1023 H   0  0  0  0  0  0  0  0  0  0  0  0
    2.7335    9.6089   15.5227 C   0  0  0  0  0  0  0  0  0  0  0  0
    3.0964    9.9279   16.9385 C   0  0  0  0  0  0  0  0  0  0  0  0
    3.3251   10.9846   17.0537 H   0  0  0  0  0  0  0  0  0  0  0  0
    3.9528    9.3409   17.2601 H   0  0  0  0  0  0  0  0  0  0  0  0
    2.2602    9.6903   17.5969 H   0  0  0  0  0  0  0  0  0  0  0  0
    2.9754    8.3456   14.9944 C   0  0  0  0  0  0  0  0  0  0  0  0
    3.4449    7.5910   15.6071 H   0  0  0  0  0  0  0  0  0  0  0  0
    2.6238    8.0378   13.6945 C   0  0  0  0  0  0  0  0  0  0  0  0
    2.8160    7.0467   13.3117 H   0  0  0  0  0  0  0  0  0  0  0  0
    2.9894    9.0140    9.4304 C   0  0  0  0  0  0  0  0  0  0  0  0
    3.8607    8.5960    8.9315 H   0  0  0  0  0  0  0  0  0  0  0  0
    3.1624   10.0706    9.6219 H   0  0  0  0  0  0  0  0  0  0  0  0
    2.1085    8.8855    8.7902 H   0  0  0  0  0  0  0  0  0  0  0  0
  1  8  2  0  0  0  0
  1  3  1  0  0  0  0
  2  1  1  0  0  0  0
  4  1  1  0  0  0  0
  5  7  1  0  0  0  0
  5  8  1  0  0  0  0
  6  9  1  0  0  0  0
  6 11  1  0  0  0  0
  7  9  1  0  0  0  0
  8  6  1  0  0  0  0
  9 10  1  6  0  0  0
  9 24  1  0  0  0  0
 11 20  1  0  0  0  0
 12 15  1  0  0  0  0
 12 14  1  0  0  0  0
 12 11  1  0  0  0  0
 13 12  1  0  0  0  0
 16 11  1  0  0  0  0
 16 18  1  0  0  0  0
 16 17  1  0  0  0  0
 19 16  1  0  0  0  0
 20 21  1  0  0  0  0
 20 22  1  0  0  0  0
 20 23  1  0  0  0  0
 24 25  2  0  0  0  0
 24 36  1  0  0  0  0
 25 27  1  0  0  0  0
 26 25  1  0  0  0  0
 27 28  1  0  0  0  0
 27 29  2  0  0  0  0
 29 30  1  0  0  0  0
 30 31  1  0  0  0  0
 30 32  1  0  0  0  0
 30 33  1  0  0  0  0
 34 29  1  0  0  0  0
 34 35  1  0  0  0  0
 36 34  2  0  0  0  0
 37 36  1  0  0  0  0
 38 40  1  0  0  0  0
 38  7  1  0  0  0  0
 39 38  1  0  0  0  0
 41 38  1  0  0  0  0
M  END
$$$$
