CSD_code = UZUBEX | q = 0 | S = 0 | Stoichiometry = C6H8Cl4N4Os | MND = 6
 OpenBabel04212202103D

 23 24  0  0  0  0  0  0  0  0999 V2000
    4.0117   -0.0003    3.7666 Os  0  0  0  0  0  0  0  0  0  0  0  0
    2.0987    0.6289    2.6570 Cl  0  0  0  0  0  0  0  0  0  0  0  0
    3.7761    1.7955    5.1817 Cl  0  0  0  0  0  0  0  0  0  0  0  0
    5.1423    1.1606    2.5158 N   0  0  0  0  0  0  0  0  0  0  0  0
    5.0344    1.2585    1.1617 C   0  0  0  0  0  0  0  0  0  0  0  0
    4.3013    0.6975    0.6168 H   0  0  0  0  0  0  0  0  0  0  0  0
    5.9710    2.1383    0.7106 C   0  0  0  0  0  0  0  0  0  0  0  0
    6.1985    2.4768   -0.2782 H   0  0  0  0  0  0  0  0  0  0  0  0
    6.6476    2.5716    1.8125 N   0  0  0  0  0  0  0  0  0  0  0  0
    7.4080    3.2322    1.8226 H   0  0  0  0  0  0  0  0  0  0  0  0
    6.1196    1.9601    2.8838 C   0  0  0  0  0  3  0  0  0  0  0  0
    6.4492    2.1035    3.8947 H   0  0  0  0  0  0  0  0  0  0  0  0
    5.9251   -0.6287    4.8756 Cl  0  0  0  0  0  0  0  0  0  0  0  0
    4.2447   -1.7948    2.3489 Cl  0  0  0  0  0  0  0  0  0  0  0  0
    2.8794   -1.1607    5.0164 N   0  0  0  0  0  0  0  0  0  0  0  0
    2.9874   -1.2585    6.3705 C   0  0  0  0  0  0  0  0  0  0  0  0
    3.7206   -0.6975    6.9154 H   0  0  0  0  0  0  0  0  0  0  0  0
    2.0508   -2.1383    6.8215 C   0  0  0  0  0  0  0  0  0  0  0  0
    1.8234   -2.4769    7.8103 H   0  0  0  0  0  0  0  0  0  0  0  0
    1.3742   -2.5716    5.7197 N   0  0  0  0  0  0  0  0  0  0  0  0
    0.6139   -3.2323    5.7095 H   0  0  0  0  0  0  0  0  0  0  0  0
    1.9022   -1.9601    4.6483 C   0  0  0  0  0  3  0  0  0  0  0  0
    1.5726   -2.1035    3.6375 H   0  0  0  0  0  0  0  0  0  0  0  0
  1 13  1  0  0  0  0
  1 15  1  0  0  0  0
  1  3  1  0  0  0  0
  2  1  1  0  0  0  0
  4 11  1  0  0  0  0
  4  1  1  0  0  0  0
  5  4  1  0  0  0  0
  6  5  1  0  0  0  0
  7  5  2  0  0  0  0
  7  9  1  0  0  0  0
  8  7  1  0  0  0  0
  9 10  1  0  0  0  0
  9 11  1  0  0  0  0
 11 12  1  0  0  0  0
 14  1  1  0  0  0  0
 15 16  1  0  0  0  0
 16 18  2  0  0  0  0
 16 17  1  0  0  0  0
 18 19  1  0  0  0  0
 20 18  1  0  0  0  0
 21 20  1  0  0  0  0
 22 15  1  0  0  0  0
 22 20  1  0  0  0  0
 23 22  1  0  0  0  0
M  END
$$$$
