CSD_code = UZUBOH | q = 0 | S = 0 | Stoichiometry = C14H12Cl4N4Os | MND = 6
 OpenBabel04212202103D

 35 38  0  0  1  0  0  0  0  0999 V2000
   -0.0002   12.0220    0.0003 Os  0  0  0  0  0  0  0  0  0  0  0  0
   -1.8675   10.9775    0.8665 Cl  0  0  0  0  0  0  0  0  0  0  0  0
    0.3636   13.0107    2.0546 Cl  0  0  0  0  0  0  0  0  0  0  0  0
    0.5854    9.1488    0.2441 N   0  0  0  0  0  0  0  0  0  0  0  0
   -0.3142    9.0805   -0.2221 H   0  0  0  0  0  0  0  0  0  0  0  0
    1.0702   10.3600    0.5187 N   0  0  0  0  0  0  0  0  0  0  0  0
    2.2558   10.1652    1.1251 C   0  0  2  0  0  3  0  0  0  0  0  0
    3.1830   11.0938    1.6216 C   0  0  0  0  0  0  0  0  0  0  0  0
    2.9924   12.1523    1.5456 H   0  0  0  0  0  0  0  0  0  0  0  0
    4.3229   10.6013    2.1978 C   0  0  0  0  0  0  0  0  0  0  0  0
    5.0578   11.2877    2.5900 H   0  0  0  0  0  0  0  0  0  0  0  0
    4.5735    9.2175    2.2979 C   0  0  0  0  0  0  0  0  0  0  0  0
    5.4914    8.8913    2.7632 H   0  0  0  0  0  0  0  0  0  0  0  0
    3.6859    8.2929    1.8222 C   0  0  0  0  0  0  0  0  0  0  0  0
    3.8729    7.2330    1.8964 H   0  0  0  0  0  0  0  0  0  0  0  0
    2.5036    8.7609    1.2236 C   0  0  0  0  0  0  0  0  0  0  0  0
    1.3876    8.1616    0.6366 C   0  0  0  0  0  0  0  0  0  0  0  0
    1.1433    7.1291    0.4898 H   0  0  0  0  0  0  0  0  0  0  0  0
    1.8672   13.0662   -0.8666 Cl  0  0  0  0  0  0  0  0  0  0  0  0
   -0.3631   11.0331   -2.0542 Cl  0  0  0  0  0  0  0  0  0  0  0  0
   -0.5853   14.8953   -0.2442 N   0  0  0  0  0  0  0  0  0  0  0  0
    0.3142   14.9635    0.2221 H   0  0  0  0  0  0  0  0  0  0  0  0
   -1.0701   13.6840   -0.5188 N   0  0  0  0  0  0  0  0  0  0  0  0
   -2.2558   13.8788   -1.1253 C   0  0  0  0  0  0  0  0  0  0  0  0
   -3.1830   12.9502   -1.6217 C   0  0  0  0  0  0  0  0  0  0  0  0
   -2.9924   11.8918   -1.5457 H   0  0  0  0  0  0  0  0  0  0  0  0
   -4.3229   13.4427   -2.1978 C   0  0  0  0  0  0  0  0  0  0  0  0
   -5.0578   12.7563   -2.5900 H   0  0  0  0  0  0  0  0  0  0  0  0
   -4.5735   14.8265   -2.2979 C   0  0  0  0  0  0  0  0  0  0  0  0
   -5.4914   15.1528   -2.7632 H   0  0  0  0  0  0  0  0  0  0  0  0
   -3.6859   15.7511   -1.8223 C   0  0  0  0  0  3  0  0  0  0  0  0
   -3.8729   16.8110   -1.8964 H   0  0  0  0  0  0  0  0  0  0  0  0
   -2.5036   15.2832   -1.2237 C   0  0  0  0  0  0  0  0  0  0  0  0
   -1.3876   15.8824   -0.6367 C   0  0  0  0  0  0  0  0  0  0  0  0
   -1.1434   16.9149   -0.4898 H   0  0  0  0  0  0  0  0  0  0  0  0
  1  6  1  0  0  0  0
  1  2  1  0  0  0  0
  1  3  1  0  0  0  0
  4  6  1  0  0  0  0
  4 17  1  0  0  0  0
  5  4  1  0  0  0  0
  6  7  1  0  0  0  0
  7 16  1  6  0  0  0
  7  8  1  0  0  0  0
  8 10  2  0  0  0  0
  9  8  1  0  0  0  0
 10 12  1  0  0  0  0
 10 11  1  0  0  0  0
 12 13  1  0  0  0  0
 14 15  1  0  0  0  0
 14 12  2  0  0  0  0
 16 14  1  0  0  0  0
 17 16  2  0  0  0  0
 18 17  1  0  0  0  0
 19  1  1  0  0  0  0
 20  1  1  0  0  0  0
 21 22  1  0  0  0  0
 23 21  1  0  0  0  0
 23  1  1  0  0  0  0
 24 23  1  0  0  0  0
 25 26  1  0  0  0  0
 25 24  2  0  0  0  0
 27 25  1  0  0  0  0
 28 27  1  0  0  0  0
 29 27  2  0  0  0  0
 29 31  1  0  0  0  0
 30 29  1  0  0  0  0
 31 33  1  0  0  0  0
 32 31  1  0  0  0  0
 33 24  1  0  0  0  0
 33 34  2  0  0  0  0
 34 35  1  0  0  0  0
 34 21  1  0  0  0  0
M  END
$$$$
