CSD_code = VABMAP | q = 0 | S = 0 | Stoichiometry = C25H30Cl2N4Pd | MND = 4
 OpenBabel04212202103D

 62 65  0  0  0  0  0  0  0  0999 V2000
   -3.4235    8.9871   17.6508 Pd  0  0  0  0  0  0  0  0  0  0  0  0
   -3.5836   10.1506   15.6736 Cl  0  0  0  0  0  0  0  0  0  0  0  0
   -3.3029    7.6839   19.5302 Cl  0  0  0  0  0  0  0  0  0  0  0  0
   -3.1593   11.1171   19.6665 N   0  0  0  0  0  0  0  0  0  0  0  0
   -4.9808   11.3477   18.5441 N   0  0  0  0  0  0  0  0  0  0  0  0
   -2.9149    7.3623   16.5385 N   0  0  0  0  0  0  0  0  0  0  0  0
   -3.8616    6.6487   15.9453 N   0  0  0  0  0  0  0  0  0  0  0  0
   -3.8982   10.5643   18.6885 C   0  0  0  0  0  0  0  0  0  0  0  0
   -3.7761   12.2502   20.1327 C   0  0  0  0  0  0  0  0  0  0  0  0
   -3.3455   12.8622   20.8985 H   0  0  0  0  0  0  0  0  0  0  0  0
   -4.9203   12.3967   19.4256 C   0  0  0  0  0  0  0  0  0  0  0  0
   -5.6925   13.1359   19.4897 H   0  0  0  0  0  0  0  0  0  0  0  0
   -1.9734   10.5471   20.2099 C   0  0  0  0  0  0  0  0  0  0  0  0
   -0.8255   10.4343   19.4241 C   0  0  0  0  0  0  0  0  0  0  0  0
    0.3140    9.8845   19.9969 C   0  0  0  0  0  0  0  0  0  0  0  0
    1.2069    9.7907   19.3950 H   0  0  0  0  0  0  0  0  0  0  0  0
    0.3284    9.4432   21.3099 C   0  0  0  0  0  0  0  0  0  0  0  0
   -0.8371    9.5417   22.0575 C   0  0  0  0  0  0  0  0  0  0  0  0
   -0.8482    9.1687   23.0714 H   0  0  0  0  0  0  0  0  0  0  0  0
   -1.9977   10.0792   21.5270 C   0  0  0  0  0  0  0  0  0  0  0  0
   -0.8069   10.8612   17.9859 C   0  0  0  0  0  0  0  0  0  0  0  0
   -1.2126   10.0490   17.3517 H   0  0  0  0  0  0  0  0  0  0  0  0
    0.2116   11.0618   17.6606 H   0  0  0  0  0  0  0  0  0  0  0  0
   -1.4121   11.7533   17.8204 H   0  0  0  0  0  0  0  0  0  0  0  0
    1.5750    8.8753   21.9165 C   0  0  0  0  0  0  0  0  0  0  0  0
    2.2360    8.4805   21.1491 H   0  0  0  0  0  0  0  0  0  0  0  0
    1.3344    8.0806   22.6188 H   0  0  0  0  0  0  0  0  0  0  0  0
    2.1120    9.6539   22.4598 H   0  0  0  0  0  0  0  0  0  0  0  0
   -3.2691   10.0766   22.3199 C   0  0  0  0  0  0  0  0  0  0  0  0
   -3.1122    9.5923   23.2797 H   0  0  0  0  0  0  0  0  0  0  0  0
   -4.0262    9.5163   21.7712 H   0  0  0  0  0  0  0  0  0  0  0  0
   -3.6457   11.0825   22.4980 H   0  0  0  0  0  0  0  0  0  0  0  0
   -6.0139   11.1152   17.5947 C   0  0  0  0  0  0  0  0  0  0  0  0
   -6.1708   11.9903   16.5196 C   0  0  0  0  0  0  0  0  0  0  0  0
   -7.1816   11.7328   15.6051 C   0  0  0  0  0  0  0  0  0  0  0  0
   -7.3058   12.3993   14.7641 H   0  0  0  0  0  0  0  0  0  0  0  0
   -8.0146   10.6327   15.7314 C   0  0  0  0  0  0  0  0  0  0  0  0
   -7.8302    9.7756   16.8080 C   0  0  0  0  0  0  0  0  0  0  0  0
   -8.4737    8.9135   16.9138 H   0  0  0  0  0  0  0  0  0  0  0  0
   -6.8407    9.9995   17.7532 C   0  0  0  0  0  0  0  0  0  0  0  0
   -5.2283   13.1338   16.3112 C   0  0  0  0  0  0  0  0  0  0  0  0
   -5.5332   13.7266   15.4535 H   0  0  0  0  0  0  0  0  0  0  0  0
   -4.2348   12.7298   16.1152 H   0  0  0  0  0  0  0  0  0  0  0  0
   -5.1691   13.7824   17.1830 H   0  0  0  0  0  0  0  0  0  0  0  0
   -9.0965   10.3586   14.7315 C   0  0  0  0  0  0  0  0  0  0  0  0
   -8.9266    9.3996   14.2440 H   0  0  0  0  0  0  0  0  0  0  0  0
   -9.1280   11.1328   13.9698 H   0  0  0  0  0  0  0  0  0  0  0  0
  -10.0665   10.3137   15.2250 H   0  0  0  0  0  0  0  0  0  0  0  0
   -6.6806    9.0793   18.9268 C   0  0  0  0  0  0  0  0  0  0  0  0
   -5.7149    8.5561   18.8871 H   0  0  0  0  0  0  0  0  0  0  0  0
   -7.4775    8.3404   18.9423 H   0  0  0  0  0  0  0  0  0  0  0  0
   -6.7093    9.6407   19.8608 H   0  0  0  0  0  0  0  0  0  0  0  0
   -1.7484    6.8647   16.1646 C   0  0  0  0  0  3  0  0  0  0  0  0
   -0.8246    7.2819   16.5248 H   0  0  0  0  0  0  0  0  0  0  0  0
   -1.9537    5.7880   15.2987 C   0  0  0  0  0  0  0  0  0  0  0  0
   -1.2094    5.1811   14.8265 H   0  0  0  0  0  0  0  0  0  0  0  0
   -3.3229    5.6817   15.1854 C   0  0  0  0  0  0  0  0  0  0  0  0
   -3.9270    4.9973   14.6246 H   0  0  0  0  0  0  0  0  0  0  0  0
   -5.2481    6.9437   16.1871 C   0  0  0  0  0  0  0  0  0  0  0  0
   -5.4308    8.0162   16.0139 H   0  0  0  0  0  0  0  0  0  0  0  0
   -5.5031    6.6949   17.2255 H   0  0  0  0  0  0  0  0  0  0  0  0
   -5.8656    6.3565   15.5098 H   0  0  0  0  0  0  0  0  0  0  0  0
  1  8  2  0  0  0  0
  1  3  1  0  0  0  0
  2  1  1  0  0  0  0
  4  9  1  0  0  0  0
  4 13  1  0  0  0  0
  5  8  1  0  0  0  0
  5 11  1  0  0  0  0
  6  1  1  0  0  0  0
  7 59  1  0  0  0  0
  7  6  1  0  0  0  0
  8  4  1  0  0  0  0
  9 10  1  0  0  0  0
 11 12  1  0  0  0  0
 11  9  2  0  0  0  0
 13 20  1  0  0  0  0
 14 15  1  0  0  0  0
 14 13  2  0  0  0  0
 15 17  2  0  0  0  0
 16 15  1  0  0  0  0
 17 25  1  0  0  0  0
 17 18  1  0  0  0  0
 18 19  1  0  0  0  0
 20 18  2  0  0  0  0
 20 29  1  0  0  0  0
 21 14  1  0  0  0  0
 22 21  1  0  0  0  0
 23 21  1  0  0  0  0
 24 21  1  0  0  0  0
 25 28  1  0  0  0  0
 25 27  1  0  0  0  0
 26 25  1  0  0  0  0
 29 32  1  0  0  0  0
 29 30  1  0  0  0  0
 31 29  1  0  0  0  0
 33 40  1  0  0  0  0
 33  5  1  0  0  0  0
 34 33  2  0  0  0  0
 35 37  2  0  0  0  0
 35 34  1  0  0  0  0
 36 35  1  0  0  0  0
 37 38  1  0  0  0  0
 38 39  1  0  0  0  0
 38 40  2  0  0  0  0
 40 49  1  0  0  0  0
 41 34  1  0  0  0  0
 41 44  1  0  0  0  0
 42 41  1  0  0  0  0
 43 41  1  0  0  0  0
 45 48  1  0  0  0  0
 45 37  1  0  0  0  0
 46 45  1  0  0  0  0
 47 45  1  0  0  0  0
 49 51  1  0  0  0  0
 49 52  1  0  0  0  0
 50 49  1  0  0  0  0
 53 54  1  0  0  0  0
 53  6  1  0  0  0  0
 55 53  1  0  0  0  0
 56 55  1  0  0  0  0
 57 55  2  0  0  0  0
 57  7  1  0  0  0  0
 58 57  1  0  0  0  0
 59 61  1  0  0  0  0
 60 59  1  0  0  0  0
 62 59  1  0  0  0  0
M  END
$$$$
