CSD_code = VACROI | q = 0 | S = 0 | Stoichiometry = C10H8F4N2Ti | MND = 6
 OpenBabel04212202103D

 25 27  0  0  0  0  0  0  0  0999 V2000
    2.9063    5.0342   15.5449 Ti  0  0  0  0  0  0  0  0  0  0  0  0
    3.3307    3.7346   14.4732 F   0  0  0  0  0  0  0  0  0  0  0  0
    4.5284    5.5706   15.9295 F   0  0  0  0  0  0  0  0  0  0  0  0
    3.3622    3.7875   17.3288 N   0  0  0  0  0  0  0  0  0  0  0  0
    3.9756    2.6203   17.2307 C   0  0  0  0  0  3  0  0  0  0  0  0
    4.0207    2.1915   16.2360 H   0  0  0  0  0  0  0  0  0  0  0  0
    4.5311    1.9750   18.3295 C   0  0  0  0  0  0  0  0  0  0  0  0
    5.0232    1.0228   18.2130 H   0  0  0  0  0  0  0  0  0  0  0  0
    4.4452    2.5884   19.5687 C   0  0  0  0  0  0  0  0  0  0  0  0
    4.8766    2.1268   20.4445 H   0  0  0  0  0  0  0  0  0  0  0  0
    3.8000    3.8103   19.6701 C   0  0  0  0  0  0  0  0  0  0  0  0
    3.7397    4.3137   20.6217 H   0  0  0  0  0  0  0  0  0  0  0  0
    3.2588    4.3848   18.5198 C   0  0  0  0  0  0  0  0  0  0  0  0
    2.4814    6.3336   14.4732 F   0  0  0  0  0  0  0  0  0  0  0  0
    1.2846    4.4979   15.9304 F   0  0  0  0  0  0  0  0  0  0  0  0
    2.4514    6.2813   17.3288 N   0  0  0  0  0  0  0  0  0  0  0  0
    1.8381    7.4485   17.2307 C   0  0  0  0  0  3  0  0  0  0  0  0
    1.7935    7.8776   16.2361 H   0  0  0  0  0  0  0  0  0  0  0  0
    1.2824    8.0937   18.3294 C   0  0  0  0  0  0  0  0  0  0  0  0
    0.7904    9.0460   18.2130 H   0  0  0  0  0  0  0  0  0  0  0  0
    1.3677    7.4801   19.5686 C   0  0  0  0  0  0  0  0  0  0  0  0
    0.9360    7.9416   20.4444 H   0  0  0  0  0  0  0  0  0  0  0  0
    2.0128    6.2581   19.6700 C   0  0  0  0  0  0  0  0  0  0  0  0
    2.0727    5.7545   20.6215 H   0  0  0  0  0  0  0  0  0  0  0  0
    2.5544    5.6838   18.5198 C   0  0  0  0  0  0  0  0  0  0  0  0
  1  3  1  0  0  0  0
  1 15  1  0  0  0  0
  1  4  1  0  0  0  0
  1 16  1  0  0  0  0
  2  1  1  0  0  0  0
  4 13  1  0  0  0  0
  5  4  1  0  0  0  0
  5  7  1  0  0  0  0
  6  5  1  0  0  0  0
  7  9  2  0  0  0  0
  8  7  1  0  0  0  0
  9 11  1  0  0  0  0
  9 10  1  0  0  0  0
 11 12  1  0  0  0  0
 13 11  2  0  0  0  0
 14  1  1  0  0  0  0
 16 25  1  0  0  0  0
 17 16  1  0  0  0  0
 17 19  1  0  0  0  0
 18 17  1  0  0  0  0
 19 21  2  0  0  0  0
 20 19  1  0  0  0  0
 21 23  1  0  0  0  0
 21 22  1  0  0  0  0
 23 24  1  0  0  0  0
 25 13  1  0  0  0  0
 25 23  2  0  0  0  0
M  END
$$$$
