CSD_code = VACREY | q = 0 | S = 0 | Stoichiometry = C8H16F4O2Ti | MND = 6
 OpenBabel04212202103D

 31 30  0  0  0  0  0  0  0  0999 V2000
    3.2272    9.8192    5.0177 Ti  0  0  0  0  0  0  0  0  0  0  0  0
    2.7886    8.3636    4.1772 F   0  0  0  0  0  0  0  0  0  0  0  0
    3.7798    9.1445    6.5202 F   0  0  0  0  0  0  0  0  0  0  0  0
    4.7774   10.0581    4.2632 F   0  0  0  0  0  0  0  0  0  0  0  0
    1.6391   10.2925    5.5492 F   0  0  0  0  0  0  0  0  0  0  0  0
    3.7434   11.7694    5.8525 O   0  0  0  0  0  0  0  0  0  0  0  0
    2.5548   10.9041    3.2559 O   0  0  0  0  0  0  0  0  0  0  0  0
    5.1162   11.9141    6.2569 C   0  0  0  0  0  0  0  0  0  0  0  0
    5.6661   12.2687    5.3793 H   0  0  0  0  0  0  0  0  0  0  0  0
    5.5128   10.9365    6.5547 H   0  0  0  0  0  0  0  0  0  0  0  0
    5.1458   12.9190    7.4203 C   0  0  0  0  0  0  0  0  0  0  0  0
    5.8935   13.6944    7.2690 H   0  0  0  0  0  0  0  0  0  0  0  0
    5.3632   12.4070    8.3570 H   0  0  0  0  0  0  0  0  0  0  0  0
    3.7220   13.4743    7.4402 C   0  0  0  0  0  0  0  0  0  0  0  0
    3.3998   13.7827    8.4313 H   0  0  0  0  0  0  0  0  0  0  0  0
    3.6290   14.3185    6.7556 H   0  0  0  0  0  0  0  0  0  0  0  0
    2.9318   12.2845    6.9087 C   0  0  0  0  0  0  0  0  0  0  0  0
    2.7985   11.5154    7.6827 H   0  0  0  0  0  0  0  0  0  0  0  0
    1.9619   12.5472    6.4821 H   0  0  0  0  0  0  0  0  0  0  0  0
    3.3703   10.9047    2.0822 C   0  0  0  0  0  0  0  0  0  0  0  0
    3.6921    9.8786    1.8550 H   0  0  0  0  0  0  0  0  0  0  0  0
    4.2455   11.5241    2.2901 H   0  0  0  0  0  0  0  0  0  0  0  0
    2.4628   11.4527    0.9881 C   0  0  0  0  0  0  0  0  0  0  0  0
    2.8262   11.2258   -0.0107 H   0  0  0  0  0  0  0  0  0  0  0  0
    2.3575   12.5333    1.0944 H   0  0  0  0  0  0  0  0  0  0  0  0
    1.1496   10.7487    1.3228 C   0  0  0  0  0  0  0  0  0  0  0  0
    0.2763   11.2978    0.9781 H   0  0  0  0  0  0  0  0  0  0  0  0
    1.1348    9.7545    0.8772 H   0  0  0  0  0  0  0  0  0  0  0  0
    1.1967   10.6460    2.8533 C   0  0  0  0  0  0  0  0  0  0  0  0
    0.5742   11.4045    3.3410 H   0  0  0  0  0  0  0  0  0  0  0  0
    0.8947    9.6546    3.2083 H   0  0  0  0  0  0  0  0  0  0  0  0
  1  5  1  0  0  0  0
  1  3  1  0  0  0  0
  2  1  1  0  0  0  0
  4  1  1  0  0  0  0
  6  8  1  0  0  0  0
  6 17  1  0  0  0  0
  8 10  1  0  0  0  0
  8 11  1  0  0  0  0
  9  8  1  0  0  0  0
 11 14  1  0  0  0  0
 11 13  1  0  0  0  0
 12 11  1  0  0  0  0
 14 15  1  0  0  0  0
 16 14  1  0  0  0  0
 17 14  1  0  0  0  0
 17 18  1  0  0  0  0
 19 17  1  0  0  0  0
 20 22  1  0  0  0  0
 20  7  1  0  0  0  0
 21 20  1  0  0  0  0
 23 25  1  0  0  0  0
 23 26  1  0  0  0  0
 23 20  1  0  0  0  0
 24 23  1  0  0  0  0
 26 29  1  0  0  0  0
 27 26  1  0  0  0  0
 28 26  1  0  0  0  0
 29 31  1  0  0  0  0
 29  7  1  0  0  0  0
 29 30  1  0  0  0  0
M  END
$$$$
