CSD_code = VACSUN | q = 0 | S = 0 | Stoichiometry = C24H33Cl2NP3Tc | MND = 6
 OpenBabel04212202103D

 64 66  0  0  0  0  0  0  0  0999 V2000
    2.7967   11.1597    7.7944 Tc  0  0  0  0  0  0  0  0  0  0  0  0
    3.3555    9.7375    9.5616 Cl  0  0  0  0  0  0  0  0  0  0  0  0
    5.1971   11.2958    7.2705 Cl  0  0  0  0  0  0  0  0  0  0  0  0
    3.0339   12.7460    5.9850 P   0  0  0  0  0  4  0  0  0  0  0  0
    2.7919    9.0867    6.5381 P   0  0  0  0  0  4  0  0  0  0  0  0
    3.0951   12.8165    9.5112 P   0  0  0  0  0  4  0  0  0  0  0  0
    1.0973   11.2433    7.8362 N   0  0  0  0  0  1  0  0  0  0  0  0
    1.5191   13.6060    5.4390 C   0  0  0  0  0  0  0  0  0  0  0  0
    1.3776   14.9840    5.3441 C   0  0  0  0  0  0  0  0  0  0  0  0
    0.1796   15.5306    4.9148 C   0  0  0  0  0  0  0  0  0  0  0  0
   -0.8846   14.7115    4.5820 C   0  0  0  0  0  0  0  0  0  0  0  0
   -0.7528   13.3356    4.6871 C   0  0  0  0  0  0  0  0  0  0  0  0
    0.4400   12.7890    5.1174 C   0  0  0  0  0  0  0  0  0  0  0  0
    4.2143   14.1297    6.1905 C   0  0  0  0  0  0  0  0  0  0  0  0
    3.5984   12.0608    4.3818 C   0  0  0  0  0  0  0  0  0  0  0  0
    1.8162    8.9821    5.0044 C   0  0  0  0  0  0  0  0  0  0  0  0
    2.3358    8.6512    3.7602 C   0  0  0  0  0  0  0  0  0  0  0  0
    1.5022    8.5942    2.6549 C   0  0  0  0  0  0  0  0  0  0  0  0
    0.1515    8.8671    2.7845 C   0  0  0  0  0  0  0  0  0  0  0  0
   -0.3702    9.2084    4.0233 C   0  0  0  0  0  0  0  0  0  0  0  0
    0.4588    9.2718    5.1269 C   0  0  0  0  0  0  0  0  0  0  0  0
    4.4093    8.3589    6.1262 C   0  0  0  0  0  0  0  0  0  0  0  0
    2.0195    7.7056    7.4613 C   0  0  0  0  0  0  0  0  0  0  0  0
    2.4172   14.4756    9.1895 C   0  0  0  0  0  0  0  0  0  0  0  0
    3.0726   15.6686    9.4659 C   0  0  0  0  0  0  0  0  0  0  0  0
    2.4510   16.8758    9.1920 C   0  0  0  0  0  0  0  0  0  0  0  0
    1.1765   16.8975    8.6515 C   0  0  0  0  0  0  0  0  0  0  0  0
    0.5201   15.7083    8.3725 C   0  0  0  0  0  0  0  0  0  0  0  0
    1.1412   14.5017    8.6317 C   0  0  0  0  0  0  0  0  0  0  0  0
    4.7953   13.0615   10.1117 C   0  0  0  0  0  0  0  0  0  0  0  0
    2.2007   12.4199   11.0559 C   0  0  0  0  0  0  0  0  0  0  0  0
    2.1879   15.6453    5.6097 H   0  0  0  0  0  0  0  0  0  0  0  0
    0.0786   16.6042    4.8442 H   0  0  0  0  0  0  0  0  0  0  0  0
   -1.8166   15.1444    4.2491 H   0  0  0  0  0  0  0  0  0  0  0  0
   -1.5834   12.6916    4.4391 H   0  0  0  0  0  0  0  0  0  0  0  0
    0.5518   11.7208    5.2345 H   0  0  0  0  0  0  0  0  0  0  0  0
    3.3885    8.4377    3.6451 H   0  0  0  0  0  0  0  0  0  0  0  0
    1.9110    8.3339    1.6892 H   0  0  0  0  0  0  0  0  0  0  0  0
   -0.4938    8.8179    1.9200 H   0  0  0  0  0  0  0  0  0  0  0  0
   -1.4226    9.4282    4.1246 H   0  0  0  0  0  0  0  0  0  0  0  0
    0.0792    9.5608    6.0992 H   0  0  0  0  0  0  0  0  0  0  0  0
    4.0674   15.6641    9.8881 H   0  0  0  0  0  0  0  0  0  0  0  0
    2.9649   17.8026    9.4040 H   0  0  0  0  0  0  0  0  0  0  0  0
    0.6967   17.8427    8.4438 H   0  0  0  0  0  0  0  0  0  0  0  0
   -0.4705   15.7227    7.9437 H   0  0  0  0  0  0  0  0  0  0  0  0
    0.6623   13.5587    8.3930 H   0  0  0  0  0  0  0  0  0  0  0  0
    4.2450   14.7158    5.2720 H   0  0  0  0  0  0  0  0  0  0  0  0
    5.2012   13.7148    6.3844 H   0  0  0  0  0  0  0  0  0  0  0  0
    3.9138   14.7574    7.0291 H   0  0  0  0  0  0  0  0  0  0  0  0
    3.6779   12.8618    3.6465 H   0  0  0  0  0  0  0  0  0  0  0  0
    2.8860   11.3125    4.0358 H   0  0  0  0  0  0  0  0  0  0  0  0
    4.5730   11.5982    4.5304 H   0  0  0  0  0  0  0  0  0  0  0  0
    4.2789    7.3682    5.6902 H   0  0  0  0  0  0  0  0  0  0  0  0
    4.9724    8.2800    7.0572 H   0  0  0  0  0  0  0  0  0  0  0  0
    4.9611    9.0084    5.4485 H   0  0  0  0  0  0  0  0  0  0  0  0
    1.9220    6.8352    6.8115 H   0  0  0  0  0  0  0  0  0  0  0  0
    1.0405    8.0237    7.8167 H   0  0  0  0  0  0  0  0  0  0  0  0
    2.6405    7.4675    8.3237 H   0  0  0  0  0  0  0  0  0  0  0  0
    4.8039   13.6884   11.0036 H   0  0  0  0  0  0  0  0  0  0  0  0
    5.1915   12.0745   10.3568 H   0  0  0  0  0  0  0  0  0  0  0  0
    5.4137   13.4972    9.3278 H   0  0  0  0  0  0  0  0  0  0  0  0
    2.3055   13.2402   11.7670 H   0  0  0  0  0  0  0  0  0  0  0  0
    1.1507   12.2647   10.8104 H   0  0  0  0  0  0  0  0  0  0  0  0
    2.6058   11.4989   11.4732 H   0  0  0  0  0  0  0  0  0  0  0  0
  1  7  1  0  0  0  0
  1  6  1  0  0  0  0
  1  2  1  0  0  0  0
  3  1  1  0  0  0  0
  4 14  1  0  0  0  0
  4  1  1  0  0  0  0
  5 23  1  0  0  0  0
  5  1  1  0  0  0  0
  6 30  1  0  0  0  0
  6 31  1  0  0  0  0
  8  4  1  0  0  0  0
  9  8  1  0  0  0  0
  9 32  1  0  0  0  0
 10  9  2  0  0  0  0
 11 12  2  0  0  0  0
 11 10  1  0  0  0  0
 12 13  1  0  0  0  0
 13 36  1  0  0  0  0
 13  8  2  0  0  0  0
 14 48  1  0  0  0  0
 14 49  1  0  0  0  0
 15 52  1  0  0  0  0
 15  4  1  0  0  0  0
 16 21  1  0  0  0  0
 16  5  1  0  0  0  0
 17 16  2  0  0  0  0
 18 19  2  0  0  0  0
 18 17  1  0  0  0  0
 19 20  1  0  0  0  0
 20 40  1  0  0  0  0
 20 21  2  0  0  0  0
 21 41  1  0  0  0  0
 22  5  1  0  0  0  0
 22 54  1  0  0  0  0
 23 57  1  0  0  0  0
 23 58  1  0  0  0  0
 24 25  1  0  0  0  0
 24  6  1  0  0  0  0
 25 42  1  0  0  0  0
 26 43  1  0  0  0  0
 26 25  2  0  0  0  0
 27 26  1  0  0  0  0
 28 29  1  0  0  0  0
 28 27  2  0  0  0  0
 29 24  2  0  0  0  0
 30 60  1  0  0  0  0
 30 59  1  0  0  0  0
 31 64  1  0  0  0  0
 31 62  1  0  0  0  0
 33 10  1  0  0  0  0
 34 11  1  0  0  0  0
 35 12  1  0  0  0  0
 37 17  1  0  0  0  0
 38 18  1  0  0  0  0
 39 19  1  0  0  0  0
 44 27  1  0  0  0  0
 45 28  1  0  0  0  0
 46 29  1  0  0  0  0
 47 14  1  0  0  0  0
 50 15  1  0  0  0  0
 51 15  1  0  0  0  0
 53 22  1  0  0  0  0
 55 22  1  0  0  0  0
 56 23  1  0  0  0  0
 61 30  1  0  0  0  0
 63 31  1  0  0  0  0
M  END
$$$$
