CSD_code = VACTEZ | q = 0 | S = 0 | Stoichiometry = C25H24Cl2SiZr | MND = 12
 OpenBabel04212202103D

 53 60  0  0  1  0  0  0  0  0999 V2000
    3.6195    2.3295    2.3895 Zr  0  0  0  0  0  0  0  0  0  0  0  0
    2.2471    0.4627    2.1157 Cl  0  0  0  0  0  0  0  0  0  0  0  0
    5.5823    1.1019    2.6777 Cl  0  0  0  0  0  0  0  0  0  0  0  0
    3.0365    5.5875    2.1691 Si  0  0  0  0  0  0  0  0  0  0  0  0
    3.8908    2.6215    4.8140 C   0  0  0  0  0  0  0  0  0  0  0  0
    4.2204    3.8511    4.2157 C   0  0  2  0  0  0  0  0  0  0  0  0
    5.1681    4.3739    4.2867 H   0  0  0  0  0  0  0  0  0  0  0  0
    3.0239    4.3732    3.6238 C   0  0  2  0  0  3  0  0  0  0  0  0
    1.9718    3.4227    3.8355 C   0  0  2  0  0  0  0  0  0  0  0  0
    0.9300    3.5662    3.5704 H   0  0  0  0  0  0  0  0  0  0  0  0
    2.5115    2.3585    4.5805 C   0  0  0  0  0  0  0  0  0  0  0  0
    2.1570    1.1625    5.4216 C   0  0  2  0  0  0  0  0  0  0  0  0
    1.2578    0.6133    5.1477 H   0  0  0  0  0  0  0  0  0  0  0  0
    2.1900    1.6693    6.8835 C   0  0  0  0  0  0  0  0  0  0  0  0
    1.5751    2.5598    7.0070 H   0  0  0  0  0  0  0  0  0  0  0  0
    1.8166    0.8987    7.5571 H   0  0  0  0  0  0  0  0  0  0  0  0
    3.6862    1.9549    7.1373 C   0  0  0  0  0  0  0  0  0  0  0  0
    4.0754    1.3293    7.9399 H   0  0  0  0  0  0  0  0  0  0  0  0
    3.8674    2.9970    7.3964 H   0  0  0  0  0  0  0  0  0  0  0  0
    4.3626    1.5835    5.7956 C   0  0  1  0  0  0  0  0  0  0  0  0
    5.4357    1.4110    5.8565 H   0  0  0  0  0  0  0  0  0  0  0  0
    3.4892    0.3902    5.3625 C   0  0  0  0  0  0  0  0  0  0  0  0
    3.5256   -0.4335    6.0750 H   0  0  0  0  0  0  0  0  0  0  0  0
    3.7294    0.0237    4.3590 H   0  0  0  0  0  0  0  0  0  0  0  0
    2.5898    3.2789    0.3531 C   0  0  0  0  0  0  0  0  0  0  0  0
    1.1828    3.2358    0.2949 C   0  0  0  0  0  0  0  0  0  0  0  0
    0.5921    4.0294    0.7311 H   0  0  0  0  0  0  0  0  0  0  0  0
    0.5684    2.1966   -0.3666 C   0  0  0  0  0  0  0  0  0  0  0  0
   -0.5101    2.1614   -0.4152 H   0  0  0  0  0  0  0  0  0  0  0  0
    1.3058    1.1805   -0.9868 C   0  0  0  0  0  0  0  0  0  0  0  0
    0.7830    0.3888   -1.5007 H   0  0  0  0  0  0  0  0  0  0  0  0
    2.6825    1.1773   -0.9393 C   0  0  0  0  0  0  0  0  0  0  0  0
    3.2506    0.3891   -1.4143 H   0  0  0  0  0  0  0  0  0  0  0  0
    3.3390    2.2069   -0.2598 C   0  0  0  0  0  0  0  0  0  0  0  0
    4.7339    2.4702   -0.0268 C   0  0  0  0  0  0  0  0  0  0  0  0
    5.8907    1.7821   -0.4027 C   0  0  0  0  0  0  0  0  0  0  0  0
    5.8192    0.8724   -0.9831 H   0  0  0  0  0  0  0  0  0  0  0  0
    7.1169    2.2769   -0.0163 C   0  0  0  0  0  0  0  0  0  0  0  0
    8.0195    1.7536   -0.2912 H   0  0  0  0  0  0  0  0  0  0  0  0
    7.2110    3.4511    0.7408 C   0  0  0  0  0  0  0  0  0  0  0  0
    8.1886    3.8044    1.0347 H   0  0  0  0  0  0  0  0  0  0  0  0
    6.0936    4.1640    1.1126 C   0  0  0  0  0  0  0  0  0  0  0  0
    6.1954    5.0890    1.6631 H   0  0  0  0  0  0  0  0  0  0  0  0
    4.8208    3.7008    0.7245 C   0  0  0  0  0  0  0  0  0  0  0  0
    3.4987    4.2321    0.9366 C   0  0  0  0  0  0  0  0  0  0  0  0
    1.3386    6.4066    1.8696 C   0  0  0  0  0  0  0  0  0  0  0  0
    1.1857    6.6202    0.8171 H   0  0  0  0  0  0  0  0  0  0  0  0
    1.2823    7.3481    2.4050 H   0  0  0  0  0  0  0  0  0  0  0  0
    0.5129    5.7927    2.2120 H   0  0  0  0  0  0  0  0  0  0  0  0
    4.3320    6.9755    2.3638 C   0  0  0  0  0  0  0  0  0  0  0  0
    3.8807    7.8392    2.8395 H   0  0  0  0  0  0  0  0  0  0  0  0
    4.7117    7.2953    1.3992 H   0  0  0  0  0  0  0  0  0  0  0  0
    5.1761    6.6765    2.9754 H   0  0  0  0  0  0  0  0  0  0  0  0
  1  3  1  0  0  0  0
  1  9  1  0  0  0  0
  1  6  1  0  0  0  0
  2  1  1  0  0  0  0
  4 50  1  0  0  0  0
  5 20  1  0  0  0  0
  6  7  1  1  0  0  0
  6  5  1  0  0  0  0
  8  4  1  6  0  0  0
  8  9  1  0  0  0  0
  8  6  1  0  0  0  0
  9 10  1  6  0  0  0
  9 11  1  0  0  0  0
 11  5  2  0  0  0  0
 11 12  1  0  0  0  0
 12 13  1  6  0  0  0
 12 14  1  0  0  0  0
 14 15  1  0  0  0  0
 14 17  1  0  0  0  0
 14 16  1  0  0  0  0
 17 19  1  0  0  0  0
 17 18  1  0  0  0  0
 20 21  1  1  0  0  0
 20 17  1  0  0  0  0
 22 12  1  0  0  0  0
 22 20  1  0  0  0  0
 22 23  1  0  0  0  0
 24 22  1  0  0  0  0
 25 45  1  0  0  0  0
 26 25  1  0  0  0  0
 26 27  1  0  0  0  0
 28 26  2  0  0  0  0
 29 28  1  0  0  0  0
 30 32  2  0  0  0  0
 30 28  1  0  0  0  0
 31 30  1  0  0  0  0
 32 34  1  0  0  0  0
 33 32  1  0  0  0  0
 34 35  1  0  0  0  0
 34 25  2  0  0  0  0
 35 44  1  0  0  0  0
 36 35  2  0  0  0  0
 36 38  1  0  0  0  0
 37 36  1  0  0  0  0
 38 40  2  0  0  0  0
 39 38  1  0  0  0  0
 40 41  1  0  0  0  0
 40 42  1  0  0  0  0
 42 43  1  0  0  0  0
 44 45  1  0  0  0  0
 44 42  2  0  0  0  0
 45  4  1  0  0  0  0
 45  1  1  0  0  0  0
 46  4  1  0  0  0  0
 46 49  1  0  0  0  0
 46 48  1  0  0  0  0
 47 46  1  0  0  0  0
 50 51  1  0  0  0  0
 50 53  1  0  0  0  0
 52 50  1  0  0  0  0
M  END
$$$$
