CSD_code = VADDOW | q = 1 | S = 0 | Stoichiometry = C29H29ClN5Pt(1+) | MND = 4
 OpenBabel04212202103D

 65 71  0  0  1  0  0  0  0  0999 V2000
    2.3554    6.9978    4.7947 Pt  0  0  2  0  0  0  0  0  0  0  0  0
    1.9553    6.9481    2.8937 N   0  0  0  0  0  0  0  0  0  0  0  0
    3.1575    5.0398    2.9381 N   0  0  0  0  0  0  0  0  0  0  0  0
    4.0788    4.3175    4.7502 N   0  0  0  0  0  0  0  0  0  0  0  0
    0.8554    8.8706    3.3197 N   0  0  0  0  0  0  0  0  0  0  0  0
    0.6863    9.6614    5.3200 N   0  0  0  0  0  0  0  0  0  0  0  0
    2.8436    7.0668    6.9635 Cl  0  0  0  0  0  0  0  0  0  0  0  0
    1.2373    7.9439    2.3582 C   0  0  2  0  0  3  0  0  0  0  0  0
    0.9521    7.9521    1.0011 C   0  0  0  0  0  0  0  0  0  0  0  0
    0.3784    8.7461    0.5546 H   0  0  0  0  0  0  0  0  0  0  0  0
    1.4325    6.8991    0.2304 C   0  0  0  0  0  0  0  0  0  0  0  0
    1.2244    6.8792   -0.8269 H   0  0  0  0  0  0  0  0  0  0  0  0
    2.1782    5.8721    0.7988 C   0  0  0  0  0  0  0  0  0  0  0  0
    2.5484    5.0602    0.1965 H   0  0  0  0  0  0  0  0  0  0  0  0
    2.4286    5.9314    2.1614 C   0  0  0  0  0  0  0  0  0  0  0  0
    3.3053    5.2913    4.2854 C   0  0  1  0  0  3  0  0  0  0  0  0
    3.8459    3.8988    2.6012 C   0  0  0  0  0  0  0  0  0  0  0  0
    3.8766    3.5029    1.6079 H   0  0  0  0  0  0  0  0  0  0  0  0
    4.4207    3.4517    3.7420 C   0  0  0  0  0  0  0  0  0  0  0  0
    5.0472    2.6006    3.9147 H   0  0  0  0  0  0  0  0  0  0  0  0
    4.5296    4.2186    6.0991 C   0  0  0  0  0  0  0  0  0  0  0  0
    3.9081    3.3156    6.9581 C   0  0  0  0  0  0  0  0  0  0  0  0
    4.3722    3.2329    8.2609 C   0  0  0  0  0  0  0  0  0  0  0  0
    3.9009    2.5408    8.9424 H   0  0  0  0  0  0  0  0  0  0  0  0
    5.4190    4.0270    8.7100 C   0  0  0  0  0  0  0  0  0  0  0  0
    6.0018    4.9295    7.8300 C   0  0  0  0  0  0  0  0  0  0  0  0
    6.8053    5.5624    8.1749 H   0  0  0  0  0  0  0  0  0  0  0  0
    5.5688    5.0469    6.5197 C   0  0  0  0  0  0  0  0  0  0  0  0
    2.7485    2.4929    6.4857 C   0  0  0  0  0  0  0  0  0  0  0  0
    2.3583    1.8868    7.2974 H   0  0  0  0  0  0  0  0  0  0  0  0
    3.0383    1.8294    5.6710 H   0  0  0  0  0  0  0  0  0  0  0  0
    1.9503    3.1435    6.1268 H   0  0  0  0  0  0  0  0  0  0  0  0
    5.9186    3.9033   10.1137 C   0  0  0  0  0  0  0  0  0  0  0  0
    6.7031    3.1476   10.1606 H   0  0  0  0  0  0  0  0  0  0  0  0
    5.1200    3.5996   10.7853 H   0  0  0  0  0  0  0  0  0  0  0  0
    6.3372    4.8440   10.4612 H   0  0  0  0  0  0  0  0  0  0  0  0
    6.1698    6.0509    5.5846 C   0  0  0  0  0  0  0  0  0  0  0  0
    7.0118    6.5500    6.0539 H   0  0  0  0  0  0  0  0  0  0  0  0
    5.4231    6.8091    5.3284 H   0  0  0  0  0  0  0  0  0  0  0  0
    6.5123    5.5806    4.6628 H   0  0  0  0  0  0  0  0  0  0  0  0
    1.2517    8.6804    4.6262 C   0  0  0  0  0  0  0  0  0  0  0  0
    0.0544    9.9846    3.2356 C   0  0  0  0  0  0  0  0  0  0  0  0
   -0.3731   10.3327    2.3190 H   0  0  0  0  0  0  0  0  0  0  0  0
   -0.0475   10.4745    4.4930 C   0  0  0  0  0  0  0  0  0  0  0  0
   -0.5878   11.3211    4.8644 H   0  0  0  0  0  0  0  0  0  0  0  0
    0.7718    9.7979    6.7361 C   0  0  0  0  0  0  0  0  0  0  0  0
    1.5791   10.7935    7.2793 C   0  0  0  0  0  0  0  0  0  0  0  0
    1.6309   10.9087    8.6601 C   0  0  0  0  0  0  0  0  0  0  0  0
    2.2541   11.6738    9.0980 H   0  0  0  0  0  0  0  0  0  0  0  0
    0.9100   10.0586    9.4860 C   0  0  0  0  0  0  0  0  0  0  0  0
    0.1279    9.0652    8.9082 C   0  0  0  0  0  0  0  0  0  0  0  0
   -0.4245    8.3914    9.5454 H   0  0  0  0  0  0  0  0  0  0  0  0
    0.0477    8.9123    7.5352 C   0  0  0  0  0  0  0  0  0  0  0  0
    2.3895   11.6878    6.3914 C   0  0  0  0  0  0  0  0  0  0  0  0
    3.0146   11.0926    5.7257 H   0  0  0  0  0  0  0  0  0  0  0  0
    3.0340   12.3275    6.9866 H   0  0  0  0  0  0  0  0  0  0  0  0
    1.7499   12.3235    5.7792 H   0  0  0  0  0  0  0  0  0  0  0  0
    0.9867   10.1808   10.9739 C   0  0  0  0  0  0  0  0  0  0  0  0
   -0.0055   10.1231   11.4160 H   0  0  0  0  0  0  0  0  0  0  0  0
    1.4509   11.1179   11.2680 H   0  0  0  0  0  0  0  0  0  0  0  0
    1.5791    9.3615   11.3799 H   0  0  0  0  0  0  0  0  0  0  0  0
   -0.7709    7.8187    6.9199 C   0  0  0  0  0  0  0  0  0  0  0  0
   -1.4676    8.2118    6.1794 H   0  0  0  0  0  0  0  0  0  0  0  0
   -1.3354    7.2932    7.6839 H   0  0  0  0  0  0  0  0  0  0  0  0
   -0.1126    7.0949    6.4254 H   0  0  0  0  0  0  0  0  0  0  0  0
  1  7  1  6  0  0  0
  2  1  1  0  0  0  0
  4 21  1  0  0  0  0
  5 41  1  0  0  0  0
  6 46  1  0  0  0  0
  8  9  1  1  0  0  0
  8  2  1  0  0  0  0
  8  5  1  0  0  0  0
 10  9  1  0  0  0  0
 11 13  1  0  0  0  0
 11  9  2  0  0  0  0
 12 11  1  0  0  0  0
 13 15  2  0  0  0  0
 14 13  1  0  0  0  0
 15  2  1  0  0  0  0
 15  3  1  0  0  0  0
 16  3  1  6  0  0  0
 16  4  1  0  0  0  0
 16  1  1  0  0  0  0
 17  3  1  0  0  0  0
 17 19  2  0  0  0  0
 18 17  1  0  0  0  0
 19 20  1  0  0  0  0
 19  4  1  0  0  0  0
 21 28  2  0  0  0  0
 21 22  1  0  0  0  0
 22 23  2  0  0  0  0
 23 25  1  0  0  0  0
 23 24  1  0  0  0  0
 25 33  1  0  0  0  0
 26 27  1  0  0  0  0
 26 25  2  0  0  0  0
 28 26  1  0  0  0  0
 29 22  1  0  0  0  0
 29 30  1  0  0  0  0
 31 29  1  0  0  0  0
 32 29  1  0  0  0  0
 33 34  1  0  0  0  0
 33 36  1  0  0  0  0
 33 35  1  0  0  0  0
 37 38  1  0  0  0  0
 37 28  1  0  0  0  0
 39 37  1  0  0  0  0
 40 37  1  0  0  0  0
 41  1  2  0  0  0  0
 41  6  1  0  0  0  0
 42  5  1  0  0  0  0
 42 44  2  0  0  0  0
 43 42  1  0  0  0  0
 44 45  1  0  0  0  0
 44  6  1  0  0  0  0
 46 47  2  0  0  0  0
 46 53  1  0  0  0  0
 47 48  1  0  0  0  0
 48 49  1  0  0  0  0
 48 50  2  0  0  0  0
 50 58  1  0  0  0  0
 51 50  1  0  0  0  0
 51 52  1  0  0  0  0
 53 51  2  0  0  0  0
 54 56  1  0  0  0  0
 54 47  1  0  0  0  0
 55 54  1  0  0  0  0
 57 54  1  0  0  0  0
 58 60  1  0  0  0  0
 58 61  1  0  0  0  0
 58 59  1  0  0  0  0
 62 53  1  0  0  0  0
 62 64  1  0  0  0  0
 63 62  1  0  0  0  0
 65 62  1  0  0  0  0
M  END
$$$$
