CSD_code = VADFAJ | q = 1 | S = 0 | Stoichiometry = C31H29ClN5Ni(1+) | MND = 4
 OpenBabel04212202103D

 67 75  0  0  1  0  0  0  0  0999 V2000
    3.7938   12.4514   18.4817 Ni  0  0  1  0  0  0  0  0  0  0  0  0
    2.5139   10.8804   18.8593 Cl  0  0  0  0  0  0  0  0  0  0  0  0
    4.5748   13.4949   20.9653 N   0  0  0  0  0  0  0  0  0  0  0  0
    4.9240   14.0573   18.1769 N   0  0  0  0  0  0  0  0  0  0  0  0
    4.8884   11.3942   21.0526 N   0  0  0  0  0  0  0  0  0  0  0  0
    1.9889   12.5704   16.1077 N   0  0  0  0  0  0  0  0  0  0  0  0
    4.0513   12.8917   15.7096 N   0  0  0  0  0  0  0  0  0  0  0  0
    4.4497   12.3596   20.2452 C   0  0  0  0  0  0  0  0  0  0  0  0
    5.7971   10.7906   23.1212 C   0  0  0  0  0  0  0  0  0  0  0  0
    5.4257   10.8501   24.1426 H   0  0  0  0  0  0  0  0  0  0  0  0
    6.8891   10.8102   23.1546 H   0  0  0  0  0  0  0  0  0  0  0  0
    5.0975   13.2329   22.2111 C   0  0  0  0  0  0  0  0  0  0  0  0
    5.2666   14.0004   22.9368 H   0  0  0  0  0  0  0  0  0  0  0  0
    2.0803   12.8433   14.7729 C   0  0  0  0  0  0  0  0  0  0  0  0
    5.2932   11.8919   22.2593 C   0  0  0  0  0  0  0  0  0  0  0  0
    3.1814   12.5995   16.7020 C   0  0  1  0  0  3  0  0  0  0  0  0
    5.1289    9.9719   20.9044 C   0  0  1  0  0  0  0  0  0  0  0  0
    4.2618    9.5049   20.4255 H   0  0  0  0  0  0  0  0  0  0  0  0
    0.6356   12.4325   16.5959 C   0  0  1  0  0  0  0  0  0  0  0  0
    0.4247   11.3717   16.7729 H   0  0  0  0  0  0  0  0  0  0  0  0
    6.3355    9.7915   19.9991 C   0  0  0  0  0  0  0  0  0  0  0  0
    6.1988   10.1586   18.6625 C   0  0  0  0  0  0  0  0  0  0  0  0
    5.2359   10.5366   18.3025 H   0  0  0  0  0  0  0  0  0  0  0  0
    5.7396   16.1638   18.9280 C   0  0  0  0  0  0  0  0  0  0  0  0
    5.7754   16.9127   19.7027 H   0  0  0  0  0  0  0  0  0  0  0  0
    4.2454   14.7837   20.4101 C   0  0  0  0  0  0  0  0  0  0  0  0
    4.4905   15.5637   21.1322 H   0  0  0  0  0  0  0  0  0  0  0  0
    3.1651   14.8188   20.1987 H   0  0  0  0  0  0  0  0  0  0  0  0
    1.0379   14.4579   18.0297 C   0  0  0  0  0  0  0  0  0  0  0  0
    1.5884   14.9055   17.2118 H   0  0  0  0  0  0  0  0  0  0  0  0
    0.4563   13.2022   17.8814 C   0  0  0  0  0  0  0  0  0  0  0  0
    0.7249   12.8359   14.1642 C   0  0  0  0  0  0  0  0  0  0  0  0
    0.5482   11.8862   13.6538 H   0  0  0  0  0  0  0  0  0  0  0  0
    0.5789   13.6396   13.4448 H   0  0  0  0  0  0  0  0  0  0  0  0
    0.8899   15.1609   19.2139 C   0  0  0  0  0  0  0  0  0  0  0  0
    1.3247   16.1469   19.3094 H   0  0  0  0  0  0  0  0  0  0  0  0
   -0.2744   12.6648   18.9319 C   0  0  0  0  0  0  0  0  0  0  0  0
   -0.7192   11.6874   18.8278 H   0  0  0  0  0  0  0  0  0  0  0  0
    7.5623    9.3183   20.4396 C   0  0  0  0  0  0  0  0  0  0  0  0
    7.7087    9.0312   21.4685 H   0  0  0  0  0  0  0  0  0  0  0  0
    8.6256    9.1954   19.5592 C   0  0  0  0  0  0  0  0  0  0  0  0
    9.5721    8.8200   19.9167 H   0  0  0  0  0  0  0  0  0  0  0  0
    5.2713    9.5460   22.3764 C   0  0  0  0  0  0  0  0  0  0  0  0
    5.9082    8.6755   22.5014 H   0  0  0  0  0  0  0  0  0  0  0  0
    4.2817    9.2922   22.7576 H   0  0  0  0  0  0  0  0  0  0  0  0
    4.9981   15.0060   19.1162 C   0  0  2  0  0  3  0  0  0  0  0  0
    7.2587   10.0320   17.7846 C   0  0  0  0  0  0  0  0  0  0  0  0
    7.1375   10.2926   16.7426 H   0  0  0  0  0  0  0  0  0  0  0  0
    5.5839   14.2228   17.0255 C   0  0  0  0  0  0  0  0  0  0  0  0
    8.4772    9.5464   18.2306 C   0  0  0  0  0  0  0  0  0  0  0  0
    9.3033    9.4413   17.5443 H   0  0  0  0  0  0  0  0  0  0  0  0
   -0.4175   13.3673   20.1154 C   0  0  0  0  0  0  0  0  0  0  0  0
   -0.9825   12.9377   20.9278 H   0  0  0  0  0  0  0  0  0  0  0  0
   -0.1845   12.9793   15.4033 C   0  0  0  0  0  0  0  0  0  0  0  0
   -1.1243   12.4462   15.2876 H   0  0  0  0  0  0  0  0  0  0  0  0
   -0.4099   14.0328   15.5772 H   0  0  0  0  0  0  0  0  0  0  0  0
    6.3500   15.3514   16.7759 C   0  0  0  0  0  0  0  0  0  0  0  0
    6.8725   15.4530   15.8384 H   0  0  0  0  0  0  0  0  0  0  0  0
    5.4475   13.1398   15.9761 C   0  0  0  0  0  0  0  0  0  0  0  0
    5.9468   13.4367   15.0529 H   0  0  0  0  0  0  0  0  0  0  0  0
    5.9160   12.2221   16.3565 H   0  0  0  0  0  0  0  0  0  0  0  0
    6.4298   16.3409   17.7413 C   0  0  0  0  0  0  0  0  0  0  0  0
    7.0153   17.2305   17.5717 H   0  0  0  0  0  0  0  0  0  0  0  0
    3.3945   13.0514   14.5100 C   0  0  0  0  0  0  0  0  0  0  0  0
    3.9068   13.2829   13.5999 H   0  0  0  0  0  0  0  0  0  0  0  0
    0.1661   14.6141   20.2610 C   0  0  0  0  0  0  0  0  0  0  0  0
    0.0540   15.1619   21.1847 H   0  0  0  0  0  0  0  0  0  0  0  0
  1  2  1  1  0  0  0
  1  8  2  0  0  0  0
  3 12  1  0  0  0  0
  4  1  1  0  0  0  0
  4 46  1  0  0  0  0
  5 15  1  0  0  0  0
  6 19  1  0  0  0  0
  6 16  1  0  0  0  0
  7 59  1  0  0  0  0
  8  3  1  0  0  0  0
  8  5  1  0  0  0  0
  9 11  1  0  0  0  0
  9 10  1  0  0  0  0
 12 15  2  0  0  0  0
 12 13  1  0  0  0  0
 14  6  1  0  0  0  0
 15  9  1  0  0  0  0
 16  7  1  1  0  0  0
 16  1  1  0  0  0  0
 17 18  1  6  0  0  0
 17  5  1  0  0  0  0
 17 43  1  0  0  0  0
 19 20  1  1  0  0  0
 19 31  1  0  0  0  0
 21 39  1  0  0  0  0
 21 17  1  0  0  0  0
 22 21  2  0  0  0  0
 23 22  1  0  0  0  0
 24 25  1  0  0  0  0
 26  3  1  0  0  0  0
 26 27  1  0  0  0  0
 28 26  1  0  0  0  0
 29 35  1  0  0  0  0
 30 29  1  0  0  0  0
 31 29  2  0  0  0  0
 31 37  1  0  0  0  0
 32 14  1  0  0  0  0
 32 54  1  0  0  0  0
 33 32  1  0  0  0  0
 34 32  1  0  0  0  0
 35 36  1  0  0  0  0
 35 66  2  0  0  0  0
 37 52  2  0  0  0  0
 38 37  1  0  0  0  0
 39 40  1  0  0  0  0
 41 42  1  0  0  0  0
 41 39  2  0  0  0  0
 43 44  1  0  0  0  0
 43 45  1  0  0  0  0
 43  9  1  0  0  0  0
 46 24  1  1  0  0  0
 46 26  1  0  0  0  0
 47 50  2  0  0  0  0
 47 22  1  0  0  0  0
 48 47  1  0  0  0  0
 49  4  1  0  0  0  0
 50 41  1  0  0  0  0
 51 50  1  0  0  0  0
 52 66  1  0  0  0  0
 52 53  1  0  0  0  0
 54 56  1  0  0  0  0
 54 19  1  0  0  0  0
 55 54  1  0  0  0  0
 57 49  2  0  0  0  0
 57 62  1  0  0  0  0
 58 57  1  0  0  0  0
 59 61  1  0  0  0  0
 59 49  1  0  0  0  0
 60 59  1  0  0  0  0
 62 24  2  0  0  0  0
 63 62  1  0  0  0  0
 64 14  2  0  0  0  0
 64  7  1  0  0  0  0
 65 64  1  0  0  0  0
 66 67  1  0  0  0  0
M  END
$$$$
