CSD_code = VAFFUE | q = 0 | S = 0 | Stoichiometry = C18H28Cl2NO3PRuS2 | MND = 6
 OpenBabel04212202103D

 56 58  0  0  0  0  0  0  0  0999 V2000
    5.6377    7.9826    7.1655 Ru  0  0  0  0  0  0  0  0  0  0  0  0
    6.8607    9.4789    8.3117 O   0  0  0  0  0  0  0  0  0  0  0  0
    6.4018   10.0112    9.6260 P   0  0  0  0  0  4  0  0  0  0  0  0
    6.0276   11.7792    9.4958 C   0  0  0  0  0  0  0  0  0  0  0  0
    6.0202   12.3398    8.2250 C   0  0  0  0  0  0  0  0  0  0  0  0
    6.2362   11.7128    7.3702 H   0  0  0  0  0  0  0  0  0  0  0  0
    5.7093   13.6793    8.0684 C   0  0  0  0  0  0  0  0  0  0  0  0
    5.6961   14.1156    7.0812 H   0  0  0  0  0  0  0  0  0  0  0  0
    5.4101   14.4533    9.1777 C   0  0  0  0  0  0  0  0  0  0  0  0
    5.1712   15.4996    9.0573 H   0  0  0  0  0  0  0  0  0  0  0  0
    5.4049   13.8889   10.4449 C   0  0  0  0  0  0  0  0  0  0  0  0
    5.1604   14.4941   11.3053 H   0  0  0  0  0  0  0  0  0  0  0  0
    5.7073   12.5495   10.6075 C   0  0  0  0  0  0  0  0  0  0  0  0
    5.6938   12.0989   11.5903 H   0  0  0  0  0  0  0  0  0  0  0  0
    7.6713    9.6944   10.8840 C   0  0  0  0  0  0  0  0  0  0  0  0
    7.9770    8.3570   11.1153 C   0  0  0  0  0  0  0  0  0  0  0  0
    7.4437    7.5848   10.5744 H   0  0  0  0  0  0  0  0  0  0  0  0
    8.9713    8.0303   12.0194 C   0  0  0  0  0  0  0  0  0  0  0  0
    9.2092    6.9936   12.2034 H   0  0  0  0  0  0  0  0  0  0  0  0
    9.6609    9.0324   12.6843 C   0  0  0  0  0  0  0  0  0  0  0  0
   10.4368    8.7766   13.3908 H   0  0  0  0  0  0  0  0  0  0  0  0
    9.3663   10.3634   12.4375 C   0  0  0  0  0  0  0  0  0  0  0  0
    9.9143   11.1427   12.9464 H   0  0  0  0  0  0  0  0  0  0  0  0
    8.3728   10.6994   11.5334 C   0  0  0  0  0  0  0  0  0  0  0  0
    8.1486   11.7364   11.3282 H   0  0  0  0  0  0  0  0  0  0  0  0
    4.8383    9.2337   10.2208 C   0  0  0  0  0  0  0  0  0  0  0  0
    5.0276    8.1638   10.3616 H   0  0  0  0  0  0  0  0  0  0  0  0
    4.5661    9.6767   11.1787 H   0  0  0  0  0  0  0  0  0  0  0  0
    3.7346    9.4418    9.1801 C   0  0  0  0  0  0  0  0  0  0  0  0
    2.7566    9.4761    9.6814 H   0  0  0  0  0  0  0  0  0  0  0  0
    3.8850   10.3953    8.6552 H   0  0  0  0  0  0  0  0  0  0  0  0
    3.7666    8.3760    8.1858 N   0  0  0  0  0  4  0  0  0  0  0  0
    3.0942    8.5616    7.4354 H   0  0  0  0  0  0  0  0  0  0  0  0
    3.4960    7.4823    8.6092 H   0  0  0  0  0  0  0  0  0  0  0  0
    4.5559    6.4780    5.9377 S   0  0  0  0  0  0  0  0  0  0  0  0
    3.1506    6.4115    6.3302 O   0  0  0  0  0  1  0  0  0  0  0  0
    4.5842    6.7361    4.1454 C   0  0  0  0  0  0  0  0  0  0  0  0
    4.2350    7.7472    3.9604 H   0  0  0  0  0  0  0  0  0  0  0  0
    3.9218    6.0091    3.6915 H   0  0  0  0  0  0  0  0  0  0  0  0
    5.6107    6.6192    3.8184 H   0  0  0  0  0  0  0  0  0  0  0  0
    5.1825    4.7768    5.9821 C   0  0  0  0  0  0  0  0  0  0  0  0
    5.2039    4.4622    7.0209 H   0  0  0  0  0  0  0  0  0  0  0  0
    6.1823    4.7900    5.5636 H   0  0  0  0  0  0  0  0  0  0  0  0
    4.5054    4.1562    5.4078 H   0  0  0  0  0  0  0  0  0  0  0  0
    7.5641    7.6099    6.1337 S   0  0  0  0  0  0  0  0  0  0  0  0
    7.5316    6.5818    5.0976 O   0  0  0  0  0  1  0  0  0  0  0  0
    8.3024    9.0875    5.3847 C   0  0  0  0  0  0  0  0  0  0  0  0
    7.5835    9.4783    4.6711 H   0  0  0  0  0  0  0  0  0  0  0  0
    9.2265    8.8096    4.8919 H   0  0  0  0  0  0  0  0  0  0  0  0
    8.4621    9.8052    6.1820 H   0  0  0  0  0  0  0  0  0  0  0  0
    8.9426    7.1879    7.2412 C   0  0  0  0  0  0  0  0  0  0  0  0
    8.6781    6.2675    7.7520 H   0  0  0  0  0  0  0  0  0  0  0  0
    9.0413    7.9957    7.9587 H   0  0  0  0  0  0  0  0  0  0  0  0
    9.8400    7.0544    6.6490 H   0  0  0  0  0  0  0  0  0  0  0  0
    5.0514    9.6587    5.6617 Cl  0  0  0  0  0  0  0  0  0  0  0  0
    6.1118    6.3631    8.7818 Cl  0  0  0  0  0  0  0  0  0  0  0  0
  1 32  1  0  0  0  0
  1  2  1  0  0  0  0
  1 56  1  0  0  0  0
  2  3  1  0  0  0  0
  3 26  1  0  0  0  0
  3 15  1  0  0  0  0
  4  3  1  0  0  0  0
  4 13  1  0  0  0  0
  5  4  2  0  0  0  0
  6  5  1  0  0  0  0
  7  5  1  0  0  0  0
  7  9  2  0  0  0  0
  8  7  1  0  0  0  0
  9 11  1  0  0  0  0
 10  9  1  0  0  0  0
 11 13  2  0  0  0  0
 11 12  1  0  0  0  0
 13 14  1  0  0  0  0
 15 16  2  0  0  0  0
 15 24  1  0  0  0  0
 16 18  1  0  0  0  0
 17 16  1  0  0  0  0
 18 19  1  0  0  0  0
 18 20  2  0  0  0  0
 20 21  1  0  0  0  0
 22 20  1  0  0  0  0
 22 23  1  0  0  0  0
 24 22  2  0  0  0  0
 25 24  1  0  0  0  0
 26 27  1  0  0  0  0
 26 28  1  0  0  0  0
 29 30  1  0  0  0  0
 29 26  1  0  0  0  0
 31 29  1  0  0  0  0
 32 34  1  0  0  0  0
 32 29  1  0  0  0  0
 33 32  1  0  0  0  0
 35 41  1  0  0  0  0
 35 36  1  0  0  0  0
 35  1  1  0  0  0  0
 37 35  1  0  0  0  0
 38 37  1  0  0  0  0
 39 37  1  0  0  0  0
 40 37  1  0  0  0  0
 41 42  1  0  0  0  0
 43 41  1  0  0  0  0
 44 41  1  0  0  0  0
 45  1  1  0  0  0  0
 45 51  1  0  0  0  0
 46 45  1  0  0  0  0
 47 45  1  0  0  0  0
 47 50  1  0  0  0  0
 48 47  1  0  0  0  0
 49 47  1  0  0  0  0
 51 52  1  0  0  0  0
 51 53  1  0  0  0  0
 54 51  1  0  0  0  0
 55  1  1  0  0  0  0
M  END
$$$$
