CSD_code = VAFFIS | q = 0 | S = 0 | Stoichiometry = C28H32Cl2N2P2Ru | MND = 6
 OpenBabel04212202103D

 67 72  0  0  0  0  0  0  0  0999 V2000
    2.2874    2.3398    1.6902 Ru  0  0  0  0  0  0  0  0  0  0  0  0
    1.4276    0.5667    0.3097 Cl  0  0  0  0  0  0  0  0  0  0  0  0
    3.1193    4.4615    2.3943 Cl  0  0  0  0  0  0  0  0  0  0  0  0
    0.7200    1.8539    3.2347 P   0  0  0  0  0  4  0  0  0  0  0  0
   -0.8276    2.3002    2.3108 C   0  0  0  0  0  0  0  0  0  0  0  0
   -1.0053    1.5508    1.5349 H   0  0  0  0  0  0  0  0  0  0  0  0
   -1.6945    2.3643    2.9724 H   0  0  0  0  0  0  0  0  0  0  0  0
   -0.5076    3.6452    1.6611 C   0  0  0  0  0  0  0  0  0  0  0  0
   -1.3757    4.0237    1.1012 H   0  0  0  0  0  0  0  0  0  0  0  0
   -0.2477    4.3707    2.4414 H   0  0  0  0  0  0  0  0  0  0  0  0
    0.6590    3.4897    0.7864 N   0  0  0  0  0  4  0  0  0  0  0  0
    1.0020    4.4106    0.5057 H   0  0  0  0  0  0  0  0  0  0  0  0
    0.3910    2.9578   -0.0478 H   0  0  0  0  0  0  0  0  0  0  0  0
    0.5384    0.1172    3.7368 C   0  0  0  0  0  0  0  0  0  0  0  0
   -0.1588   -0.8255    2.9911 C   0  0  0  0  0  0  0  0  0  0  0  0
   -0.6845   -0.5331    2.0953 H   0  0  0  0  0  0  0  0  0  0  0  0
   -0.1653   -2.1523    3.3841 C   0  0  0  0  0  0  0  0  0  0  0  0
   -0.7117   -2.8792    2.8006 H   0  0  0  0  0  0  0  0  0  0  0  0
    0.5273   -2.5515    4.5140 C   0  0  0  0  0  0  0  0  0  0  0  0
    0.5185   -3.5884    4.8165 H   0  0  0  0  0  0  0  0  0  0  0  0
    1.2396   -1.6201    5.2522 C   0  0  0  0  0  0  0  0  0  0  0  0
    1.7916   -1.9287    6.1279 H   0  0  0  0  0  0  0  0  0  0  0  0
    1.2516   -0.2962    4.8615 C   0  0  0  0  0  0  0  0  0  0  0  0
    1.8111    0.4339    5.4325 H   0  0  0  0  0  0  0  0  0  0  0  0
    0.3747    2.7200    4.8044 C   0  0  0  0  0  0  0  0  0  0  0  0
   -0.6012    2.2369    5.6723 C   0  0  0  0  0  0  0  0  0  0  0  0
   -1.1214    1.3180    5.4358 H   0  0  0  0  0  0  0  0  0  0  0  0
   -0.8938    2.9256    6.8337 C   0  0  0  0  0  0  0  0  0  0  0  0
   -1.6496    2.5479    7.5076 H   0  0  0  0  0  0  0  0  0  0  0  0
   -0.2196    4.0996    7.1351 C   0  0  0  0  0  0  0  0  0  0  0  0
   -0.4505    4.6332    8.0458 H   0  0  0  0  0  0  0  0  0  0  0  0
    0.7458    4.5858    6.2704 C   0  0  0  0  0  0  0  0  0  0  0  0
    1.2702    5.5014    6.5017 H   0  0  0  0  0  0  0  0  0  0  0  0
    1.0437    3.8998    5.1049 C   0  0  0  0  0  0  0  0  0  0  0  0
    1.7977    4.2723    4.4249 H   0  0  0  0  0  0  0  0  0  0  0  0
    4.0763    1.2305    2.4924 P   0  0  0  0  0  4  0  0  0  0  0  0
    5.1702    1.1084    1.0035 C   0  0  0  0  0  0  0  0  0  0  0  0
    6.2068    0.8805    1.2591 H   0  0  0  0  0  0  0  0  0  0  0  0
    4.7722    0.2917    0.3906 H   0  0  0  0  0  0  0  0  0  0  0  0
    5.0290    2.4388    0.2691 C   0  0  0  0  0  0  0  0  0  0  0  0
    5.3751    3.2520    0.9183 H   0  0  0  0  0  0  0  0  0  0  0  0
    5.6296    2.4393   -0.6531 H   0  0  0  0  0  0  0  0  0  0  0  0
    3.6134    2.6785   -0.0211 N   0  0  0  0  0  4  0  0  0  0  0  0
    3.2768    1.9911   -0.7051 H   0  0  0  0  0  0  0  0  0  0  0  0
    3.5020    3.6162   -0.4106 H   0  0  0  0  0  0  0  0  0  0  0  0
    4.1036   -0.4802    3.1132 C   0  0  0  0  0  0  0  0  0  0  0  0
    3.3788   -1.4309    2.4000 C   0  0  0  0  0  0  0  0  0  0  0  0
    2.8159   -1.1263    1.5292 H   0  0  0  0  0  0  0  0  0  0  0  0
    3.3605   -2.7475    2.8170 C   0  0  0  0  0  0  0  0  0  0  0  0
    2.7965   -3.4807    2.2594 H   0  0  0  0  0  0  0  0  0  0  0  0
    4.0588   -3.1237    3.9530 C   0  0  0  0  0  0  0  0  0  0  0  0
    4.0429   -4.1527    4.2821 H   0  0  0  0  0  0  0  0  0  0  0  0
    4.7722   -2.1791    4.6713 C   0  0  0  0  0  0  0  0  0  0  0  0
    5.3135   -2.4712    5.5601 H   0  0  0  0  0  0  0  0  0  0  0  0
    4.7963   -0.8592    4.2571 C   0  0  0  0  0  0  0  0  0  0  0  0
    5.3525   -0.1235    4.8212 H   0  0  0  0  0  0  0  0  0  0  0  0
    5.0372    2.1291    3.7465 C   0  0  0  0  0  0  0  0  0  0  0  0
    4.2998    2.5106    4.8652 C   0  0  0  0  0  0  0  0  0  0  0  0
    3.2509    2.2380    4.9051 H   0  0  0  0  0  0  0  0  0  0  0  0
    4.8839    3.2422    5.8787 C   0  0  0  0  0  0  0  0  0  0  0  0
    4.2996    3.5403    6.7371 H   0  0  0  0  0  0  0  0  0  0  0  0
    6.2180    3.6067    5.7800 C   0  0  0  0  0  0  0  0  0  0  0  0
    6.6797    4.1893    6.5638 H   0  0  0  0  0  0  0  0  0  0  0  0
    6.9560    3.2349    4.6699 C   0  0  0  0  0  0  0  0  0  0  0  0
    7.9937    3.5263    4.5896 H   0  0  0  0  0  0  0  0  0  0  0  0
    6.3721    2.4987    3.6523 C   0  0  0  0  0  0  0  0  0  0  0  0
    6.9639    2.2236    2.7911 H   0  0  0  0  0  0  0  0  0  0  0  0
  1  3  1  0  0  0  0
  1 36  1  0  0  0  0
  1  4  1  0  0  0  0
  2  1  1  0  0  0  0
  4 14  1  0  0  0  0
  4 25  1  0  0  0  0
  5  7  1  0  0  0  0
  5  4  1  0  0  0  0
  6  5  1  0  0  0  0
  8  5  1  0  0  0  0
  8 10  1  0  0  0  0
  9  8  1  0  0  0  0
 11  8  1  0  0  0  0
 11  1  1  0  0  0  0
 12 11  1  0  0  0  0
 13 11  1  0  0  0  0
 14 23  1  0  0  0  0
 15 17  1  0  0  0  0
 15 14  2  0  0  0  0
 16 15  1  0  0  0  0
 17 19  2  0  0  0  0
 18 17  1  0  0  0  0
 19 20  1  0  0  0  0
 19 21  1  0  0  0  0
 21 22  1  0  0  0  0
 23 21  2  0  0  0  0
 23 24  1  0  0  0  0
 25 34  2  0  0  0  0
 25 26  1  0  0  0  0
 26 28  2  0  0  0  0
 27 26  1  0  0  0  0
 28 30  1  0  0  0  0
 28 29  1  0  0  0  0
 30 31  1  0  0  0  0
 32 33  1  0  0  0  0
 32 30  2  0  0  0  0
 34 32  1  0  0  0  0
 35 34  1  0  0  0  0
 36 46  1  0  0  0  0
 36 57  1  0  0  0  0
 37 38  1  0  0  0  0
 37 36  1  0  0  0  0
 39 37  1  0  0  0  0
 40 41  1  0  0  0  0
 40 37  1  0  0  0  0
 42 40  1  0  0  0  0
 43 40  1  0  0  0  0
 43  1  1  0  0  0  0
 44 43  1  0  0  0  0
 45 43  1  0  0  0  0
 46 55  1  0  0  0  0
 47 49  1  0  0  0  0
 47 46  2  0  0  0  0
 48 47  1  0  0  0  0
 49 51  2  0  0  0  0
 50 49  1  0  0  0  0
 51 52  1  0  0  0  0
 51 53  1  0  0  0  0
 53 54  1  0  0  0  0
 55 53  2  0  0  0  0
 55 56  1  0  0  0  0
 57 58  1  0  0  0  0
 58 59  1  0  0  0  0
 58 60  2  0  0  0  0
 60 61  1  0  0  0  0
 62 60  1  0  0  0  0
 62 63  1  0  0  0  0
 64 62  2  0  0  0  0
 65 64  1  0  0  0  0
 66 57  2  0  0  0  0
 66 64  1  0  0  0  0
 67 66  1  0  0  0  0
M  END
$$$$
