CSD_code = VAFLUL | q = 0 | S = 0 | Stoichiometry = C27H36CuIN2 | MND = 2
 OpenBabel04212202103D

 67 69  0  0  1  0  0  0  0  0999 V2000
   -2.7288    3.1703    5.6949 Cu  0  0  0  0  0  0  0  0  0  0  0  0
   -2.7288    3.1703    3.2362 I   0  0  0  0  0  0  0  0  0  0  0  0
   -1.9055    5.4441    7.9938 C   0  0  0  0  0  0  0  0  0  0  0  0
   -2.3645    4.1783    8.4541 N   0  0  0  0  0  0  0  0  0  0  0  0
   -2.8415    6.4445    7.7251 C   0  0  0  0  0  0  0  0  0  0  0  0
   -2.3748    7.6576    7.2375 C   0  0  0  0  0  0  0  0  0  0  0  0
   -3.0746    8.4450    7.0067 H   0  0  0  0  0  0  0  0  0  0  0  0
   -1.0248    7.8644    7.0295 C   0  0  0  0  0  0  0  0  0  0  0  0
   -0.6804    8.8109    6.6408 H   0  0  0  0  0  0  0  0  0  0  0  0
   -0.1149    6.8617    7.3036 C   0  0  0  0  0  0  0  0  0  0  0  0
    0.9346    7.0332    7.1240 H   0  0  0  0  0  0  0  0  0  0  0  0
   -0.5369    5.6327    7.7920 C   0  0  0  0  0  0  0  0  0  0  0  0
   -4.3223    6.2115    7.9132 C   0  0  0  0  0  0  0  0  0  0  0  0
   -4.4753    5.2559    8.4264 H   0  0  0  0  0  0  0  0  0  0  0  0
   -4.9562    7.3031    8.7773 C   0  0  0  0  0  0  0  0  0  0  0  0
   -5.9951    7.0554    8.9837 H   0  0  0  0  0  0  0  0  0  0  0  0
   -4.4285    7.3958    9.7248 H   0  0  0  0  0  0  0  0  0  0  0  0
   -4.9322    8.2659    8.2746 H   0  0  0  0  0  0  0  0  0  0  0  0
   -5.0065    6.1266    6.5467 C   0  0  0  0  0  0  0  0  0  0  0  0
   -4.9004    7.0617    6.0030 H   0  0  0  0  0  0  0  0  0  0  0  0
   -6.0662    5.9135    6.6675 H   0  0  0  0  0  0  0  0  0  0  0  0
   -4.5614    5.3342    5.9477 H   0  0  0  0  0  0  0  0  0  0  0  0
    0.4576    4.5239    8.0450 C   0  0  0  0  0  0  0  0  0  0  0  0
   -0.0448    3.6984    8.5608 H   0  0  0  0  0  0  0  0  0  0  0  0
    1.6080    4.9902    8.9388 C   0  0  0  0  0  0  0  0  0  0  0  0
    2.2180    5.7367    8.4381 H   0  0  0  0  0  0  0  0  0  0  0  0
    2.2464    4.1460    9.1901 H   0  0  0  0  0  0  0  0  0  0  0  0
    1.2256    5.4208    9.8623 H   0  0  0  0  0  0  0  0  0  0  0  0
    0.9812    3.9940    6.7077 C   0  0  0  0  0  0  0  0  0  0  0  0
    1.5024    4.7758    6.1613 H   0  0  0  0  0  0  0  0  0  0  0  0
    0.1578    3.6403    6.0904 H   0  0  0  0  0  0  0  0  0  0  0  0
    1.6693    3.1680    6.8722 H   0  0  0  0  0  0  0  0  0  0  0  0
   -2.7288    3.1703    7.6322 C   0  0  2  0  0  3  0  0  0  0  0  0
   -2.4985    3.8071    9.7657 C   0  0  0  0  0  0  0  0  0  0  0  0
   -2.2592    4.4699   10.5713 H   0  0  0  0  0  0  0  0  0  0  0  0
   -3.5522    0.8965    7.9938 C   0  0  0  0  0  0  0  0  0  0  0  0
   -3.0931    2.1624    8.4541 N   0  0  0  0  0  0  0  0  0  0  0  0
   -2.6161   -0.1038    7.7251 C   0  0  0  0  0  0  0  0  0  0  0  0
   -3.0828   -1.3169    7.2375 C   0  0  0  0  0  0  0  0  0  0  0  0
   -2.3830   -2.1044    7.0067 H   0  0  0  0  0  0  0  0  0  0  0  0
   -4.4328   -1.5238    7.0295 C   0  0  0  0  0  0  0  0  0  0  0  0
   -4.7772   -2.4702    6.6408 H   0  0  0  0  0  0  0  0  0  0  0  0
   -5.3428   -0.5211    7.3036 C   0  0  0  0  0  0  0  0  0  0  0  0
   -6.3923   -0.6926    7.1241 H   0  0  0  0  0  0  0  0  0  0  0  0
   -4.9207    0.7079    7.7920 C   0  0  0  0  0  0  0  0  0  0  0  0
   -1.1353    0.1291    7.9132 C   0  0  0  0  0  0  0  0  0  0  0  0
   -0.9824    1.0847    8.4264 H   0  0  0  0  0  0  0  0  0  0  0  0
   -0.5014   -0.9625    8.7773 C   0  0  0  0  0  0  0  0  0  0  0  0
    0.5375   -0.7147    8.9837 H   0  0  0  0  0  0  0  0  0  0  0  0
   -1.0292   -1.0552    9.7248 H   0  0  0  0  0  0  0  0  0  0  0  0
   -0.5254   -1.9253    8.2746 H   0  0  0  0  0  0  0  0  0  0  0  0
   -0.4511    0.2140    6.5467 C   0  0  0  0  0  0  0  0  0  0  0  0
   -0.5572   -0.7211    6.0030 H   0  0  0  0  0  0  0  0  0  0  0  0
    0.6085    0.4271    6.6674 H   0  0  0  0  0  0  0  0  0  0  0  0
   -0.8962    1.0064    5.9477 H   0  0  0  0  0  0  0  0  0  0  0  0
   -5.9152    1.8167    8.0450 C   0  0  0  0  0  0  0  0  0  0  0  0
   -5.4128    2.6422    8.5608 H   0  0  0  0  0  0  0  0  0  0  0  0
   -7.0657    1.3505    8.9388 C   0  0  0  0  0  0  0  0  0  0  0  0
   -7.6757    0.6039    8.4381 H   0  0  0  0  0  0  0  0  0  0  0  0
   -7.7041    2.1946    9.1901 H   0  0  0  0  0  0  0  0  0  0  0  0
   -6.6833    0.9198    9.8623 H   0  0  0  0  0  0  0  0  0  0  0  0
   -6.4389    2.3466    6.7077 C   0  0  0  0  0  0  0  0  0  0  0  0
   -6.9600    1.5648    6.1613 H   0  0  0  0  0  0  0  0  0  0  0  0
   -5.6154    2.7003    6.0903 H   0  0  0  0  0  0  0  0  0  0  0  0
   -7.1269    3.1726    6.8722 H   0  0  0  0  0  0  0  0  0  0  0  0
   -2.9591    2.5335    9.7657 C   0  0  0  0  0  0  0  0  0  0  0  0
   -3.1984    1.8707   10.5713 H   0  0  0  0  0  0  0  0  0  0  0  0
  2  1  1  0  0  0  0
  3  4  1  0  0  0  0
  4 34  1  0  0  0  0
  5 13  1  0  0  0  0
  5  3  2  0  0  0  0
  6  5  1  0  0  0  0
  7  6  1  0  0  0  0
  8  6  2  0  0  0  0
  8 10  1  0  0  0  0
  9  8  1  0  0  0  0
 10 12  2  0  0  0  0
 11 10  1  0  0  0  0
 12  3  1  0  0  0  0
 12 23  1  0  0  0  0
 13 14  1  0  0  0  0
 13 15  1  0  0  0  0
 15 16  1  0  0  0  0
 15 17  1  0  0  0  0
 18 15  1  0  0  0  0
 19 21  1  0  0  0  0
 19 13  1  0  0  0  0
 20 19  1  0  0  0  0
 22 19  1  0  0  0  0
 23 24  1  0  0  0  0
 23 25  1  0  0  0  0
 25 27  1  0  0  0  0
 25 28  1  0  0  0  0
 26 25  1  0  0  0  0
 29 32  1  0  0  0  0
 29 23  1  0  0  0  0
 30 29  1  0  0  0  0
 31 29  1  0  0  0  0
 33  1  1  6  0  0  0
 33 37  1  0  0  0  0
 33  4  1  0  0  0  0
 34 35  1  0  0  0  0
 36 37  1  0  0  0  0
 37 66  1  0  0  0  0
 38 46  1  0  0  0  0
 38 36  2  0  0  0  0
 39 38  1  0  0  0  0
 40 39  1  0  0  0  0
 41 39  2  0  0  0  0
 41 43  1  0  0  0  0
 42 41  1  0  0  0  0
 43 45  2  0  0  0  0
 44 43  1  0  0  0  0
 45 36  1  0  0  0  0
 45 56  1  0  0  0  0
 46 47  1  0  0  0  0
 46 48  1  0  0  0  0
 48 49  1  0  0  0  0
 48 50  1  0  0  0  0
 51 48  1  0  0  0  0
 52 54  1  0  0  0  0
 52 46  1  0  0  0  0
 53 52  1  0  0  0  0
 55 52  1  0  0  0  0
 56 57  1  0  0  0  0
 56 58  1  0  0  0  0
 58 60  1  0  0  0  0
 58 61  1  0  0  0  0
 59 58  1  0  0  0  0
 62 65  1  0  0  0  0
 62 56  1  0  0  0  0
 63 62  1  0  0  0  0
 64 62  1  0  0  0  0
 66 34  2  0  0  0  0
 66 67  1  0  0  0  0
M  END
$$$$
