CSD_code = VAFNAT | q = 0 | S = 0 | Stoichiometry = C21H26BrCuN2 | MND = 2
 OpenBabel04212202103D

 51 53  0  0  0  0  0  0  0  0999 V2000
    2.3021    6.9131   11.6925 Br  0  0  0  0  0  0  0  0  0  0  0  0
    0.2352    6.6207   10.9145 Cu  0  0  0  0  0  0  0  0  0  0  0  0
   -1.5470    6.3671   10.2361 C   0  0  0  0  0  3  0  0  0  0  0  0
   -2.3237    5.3076   10.4571 N   0  0  0  0  0  0  0  0  0  0  0  0
   -3.6255    5.3958    9.7996 C   0  0  0  0  0  0  0  0  0  0  0  0
   -4.4294    5.3404   10.5384 H   0  0  0  0  0  0  0  0  0  0  0  0
   -3.7492    4.5649    9.0980 H   0  0  0  0  0  0  0  0  0  0  0  0
   -3.5513    6.7565    9.1023 C   0  0  0  0  0  0  0  0  0  0  0  0
   -3.6503    6.6829    8.0159 H   0  0  0  0  0  0  0  0  0  0  0  0
   -4.3043    7.4625    9.4663 H   0  0  0  0  0  0  0  0  0  0  0  0
   -2.2131    7.2209    9.4603 N   0  0  0  0  0  0  0  0  0  0  0  0
   -1.9460    4.1648   11.2096 C   0  0  0  0  0  0  0  0  0  0  0  0
   -2.3803    4.0319   12.5274 C   0  0  0  0  0  0  0  0  0  0  0  0
   -2.0034    2.9016   13.2386 C   0  0  0  0  0  0  0  0  0  0  0  0
   -2.3325    2.7944   14.2621 H   0  0  0  0  0  0  0  0  0  0  0  0
   -1.2061    1.9202   12.6710 C   0  0  0  0  0  0  0  0  0  0  0  0
   -0.7775    2.0839   11.3599 C   0  0  0  0  0  0  0  0  0  0  0  0
   -0.1451    1.3308   10.9125 H   0  0  0  0  0  0  0  0  0  0  0  0
   -1.1347    3.1951   10.6153 C   0  0  0  0  0  0  0  0  0  0  0  0
   -3.2278    5.0863   13.1743 C   0  0  0  0  0  0  0  0  0  0  0  0
   -3.0886    5.0723   14.2521 H   0  0  0  0  0  0  0  0  0  0  0  0
   -4.2847    4.9070   12.9712 H   0  0  0  0  0  0  0  0  0  0  0  0
   -2.9686    6.0763   12.8038 H   0  0  0  0  0  0  0  0  0  0  0  0
   -0.7821    0.7191   13.4578 C   0  0  0  0  0  0  0  0  0  0  0  0
   -1.3971    0.5958   14.3455 H   0  0  0  0  0  0  0  0  0  0  0  0
    0.2550    0.8330   13.7732 H   0  0  0  0  0  0  0  0  0  0  0  0
   -0.8489   -0.1822   12.8518 H   0  0  0  0  0  0  0  0  0  0  0  0
   -0.6399    3.3733    9.2117 C   0  0  0  0  0  0  0  0  0  0  0  0
   -1.4621    3.5655    8.5231 H   0  0  0  0  0  0  0  0  0  0  0  0
   -0.1075    2.4868    8.8787 H   0  0  0  0  0  0  0  0  0  0  0  0
    0.0439    4.2223    9.1640 H   0  0  0  0  0  0  0  0  0  0  0  0
   -1.7304    8.4895    9.0447 C   0  0  0  0  0  0  0  0  0  0  0  0
   -1.1994    8.6406    7.7644 C   0  0  0  0  0  0  0  0  0  0  0  0
   -0.7439    9.8930    7.3800 C   0  0  0  0  0  0  0  0  0  0  0  0
   -0.3267   10.0174    6.3911 H   0  0  0  0  0  0  0  0  0  0  0  0
   -0.7995   10.9804    8.2386 C   0  0  0  0  0  0  0  0  0  0  0  0
   -1.3211   10.7987    9.5125 C   0  0  0  0  0  0  0  0  0  0  0  0
   -1.3571   11.6359   10.1944 H   0  0  0  0  0  0  0  0  0  0  0  0
   -1.7894    9.5652    9.9335 C   0  0  0  0  0  0  0  0  0  0  0  0
   -1.1099    7.4784    6.8211 C   0  0  0  0  0  0  0  0  0  0  0  0
   -2.0385    7.3683    6.2588 H   0  0  0  0  0  0  0  0  0  0  0  0
   -0.9219    6.5522    7.3608 H   0  0  0  0  0  0  0  0  0  0  0  0
   -0.3047    7.6335    6.1078 H   0  0  0  0  0  0  0  0  0  0  0  0
   -0.2730   12.3170    7.8173 C   0  0  0  0  0  0  0  0  0  0  0  0
   -0.8431   13.1213    8.2764 H   0  0  0  0  0  0  0  0  0  0  0  0
   -0.3087   12.4274    6.7363 H   0  0  0  0  0  0  0  0  0  0  0  0
    0.7653   12.4181    8.1341 H   0  0  0  0  0  0  0  0  0  0  0  0
   -2.3224    9.3764   11.3217 C   0  0  0  0  0  0  0  0  0  0  0  0
   -1.6706    8.7043   11.8819 H   0  0  0  0  0  0  0  0  0  0  0  0
   -3.3209    8.9404   11.3065 H   0  0  0  0  0  0  0  0  0  0  0  0
   -2.3663   10.3264   11.8467 H   0  0  0  0  0  0  0  0  0  0  0  0
  2  1  1  0  0  0  0
  3  4  1  0  0  0  0
  3  2  1  0  0  0  0
  4 12  1  0  0  0  0
  5  4  1  0  0  0  0
  5  6  1  0  0  0  0
  7  5  1  0  0  0  0
  8 11  1  0  0  0  0
  8 10  1  0  0  0  0
  8  5  1  0  0  0  0
  9  8  1  0  0  0  0
 11  3  1  0  0  0  0
 12 13  1  0  0  0  0
 13 20  1  0  0  0  0
 13 14  2  0  0  0  0
 14 15  1  0  0  0  0
 16 14  1  0  0  0  0
 16 24  1  0  0  0  0
 17 16  2  0  0  0  0
 18 17  1  0  0  0  0
 19 12  2  0  0  0  0
 19 17  1  0  0  0  0
 20 21  1  0  0  0  0
 22 20  1  0  0  0  0
 23 20  1  0  0  0  0
 24 26  1  0  0  0  0
 24 25  1  0  0  0  0
 27 24  1  0  0  0  0
 28 19  1  0  0  0  0
 29 28  1  0  0  0  0
 30 28  1  0  0  0  0
 31 28  1  0  0  0  0
 32 11  1  0  0  0  0
 32 39  1  0  0  0  0
 33 32  2  0  0  0  0
 34 33  1  0  0  0  0
 34 36  2  0  0  0  0
 35 34  1  0  0  0  0
 36 37  1  0  0  0  0
 37 39  2  0  0  0  0
 37 38  1  0  0  0  0
 39 48  1  0  0  0  0
 40 42  1  0  0  0  0
 40 33  1  0  0  0  0
 41 40  1  0  0  0  0
 43 40  1  0  0  0  0
 44 47  1  0  0  0  0
 44 36  1  0  0  0  0
 44 45  1  0  0  0  0
 46 44  1  0  0  0  0
 48 51  1  0  0  0  0
 48 49  1  0  0  0  0
 50 48  1  0  0  0  0
M  END
$$$$
