CSD_code = VAGBUA | q = 0 | S = 0 | Stoichiometry = C26H25ClFeN2O2S | MND = 5
 OpenBabel04212202103D

 58 63  0  0  1  0  0  0  0  0999 V2000
    1.5869    0.9926    0.8993 Fe  0  0  0  0  0  0  0  0  0  0  0  0
    3.0523    2.4622    0.7394 Cl  0  0  0  0  0  0  0  0  0  0  0  0
    7.5018   -0.1220   -0.0047 S   0  0  0  0  0  0  0  0  0  0  0  0
    0.7677    1.6477    2.4581 O   0  0  0  0  0  0  0  0  0  0  0  0
    0.3328    2.0413   -0.1137 O   0  0  0  0  0  0  0  0  0  0  0  0
    2.6995   -0.2068    1.8778 N   0  0  2  0  0  0  0  0  0  0  0  0
    2.0745    0.0218   -0.5955 N   0  0  1  0  0  0  0  0  0  0  0  0
    1.0813    1.4479    3.6892 C   0  0  0  0  0  0  0  0  0  0  0  0
    0.3555    2.1192    4.7054 C   0  0  0  0  0  0  0  0  0  0  0  0
    0.6604    1.9532    6.0288 C   0  0  0  0  0  0  0  0  0  0  0  0
    1.6989    1.1002    6.4203 C   0  0  0  0  0  0  0  0  0  0  0  0
    2.4103    0.4188    5.4684 C   0  0  0  0  0  0  0  0  0  0  0  0
    2.1272    0.5596    4.0968 C   0  0  0  0  0  0  0  0  0  0  0  0
    2.8629   -0.2169    3.1626 C   0  0  0  0  0  3  0  0  0  0  0  0
    3.5525   -1.0575    1.0421 C   0  0  2  0  0  0  0  0  0  0  0  0
    2.8032   -1.1937   -0.2947 C   0  0  0  0  0  0  0  0  0  0  0  0
    1.7556    0.2348   -1.8390 C   0  0  0  0  0  3  0  0  0  0  0  0
    0.9409    1.2972   -2.2915 C   0  0  0  0  0  0  0  0  0  0  0  0
    0.7972    1.5101   -3.6911 C   0  0  0  0  0  0  0  0  0  0  0  0
    0.0528    2.5509   -4.0997 C   0  0  0  0  0  3  0  0  0  0  0  0
   -0.7017    3.3701   -3.2877 C   0  0  0  0  0  0  0  0  0  0  0  0
   -0.5469    3.2139   -1.9309 C   0  0  0  0  0  0  0  0  0  0  0  0
    0.2682    2.1845   -1.3847 C   0  0  0  0  0  0  0  0  0  0  0  0
    3.7589   -2.4606    1.6298 C   0  0  0  0  0  0  0  0  0  0  0  0
    4.8948   -0.3162    0.8732 C   0  0  0  0  0  0  0  0  0  0  0  0
    5.8974   -0.9839   -0.0520 C   0  0  0  0  0  0  0  0  0  0  0  0
    7.0415    1.5013   -0.7200 C   0  0  0  0  0  0  0  0  0  0  0  0
    6.3150    1.3654   -2.0183 C   0  0  0  0  0  0  0  0  0  0  0  0
    6.8926    0.6767   -3.0802 C   0  0  0  0  0  0  0  0  0  0  0  0
    6.2203    0.5513   -4.2817 C   0  0  0  0  0  0  0  0  0  0  0  0
    4.9679    1.1235   -4.4380 C   0  0  0  0  0  0  0  0  0  0  0  0
    4.3896    1.8116   -3.3848 C   0  0  0  0  0  0  0  0  0  0  0  0
    5.0516    1.9235   -2.1738 C   0  0  0  0  0  0  0  0  0  0  0  0
   -0.4367    2.7794    4.3878 H   0  0  0  0  0  0  0  0  0  0  0  0
    0.0989    2.4879    6.7810 H   0  0  0  0  0  0  0  0  0  0  0  0
    1.9323    0.9812    7.4671 H   0  0  0  0  0  0  0  0  0  0  0  0
    3.2095   -0.2472    5.7633 H   0  0  0  0  0  0  0  0  0  0  0  0
    3.5985   -0.8882    3.6017 H   0  0  0  0  0  0  0  0  0  0  0  0
    3.4927   -1.4477   -1.1050 H   0  0  0  0  0  0  0  0  0  0  0  0
    2.0744   -2.0090   -0.2012 H   0  0  0  0  0  0  0  0  0  0  0  0
    2.1118   -0.4641   -2.5972 H   0  0  0  0  0  0  0  0  0  0  0  0
    1.3413    0.8739   -4.3732 H   0  0  0  0  0  0  0  0  0  0  0  0
   -1.3451    4.1367   -3.6909 H   0  0  0  0  0  0  0  0  0  0  0  0
   -1.0425    3.8740   -1.2357 H   0  0  0  0  0  0  0  0  0  0  0  0
    2.8268   -2.8357    2.0487 H   0  0  0  0  0  0  0  0  0  0  0  0
    4.0812   -3.1390    0.8442 H   0  0  0  0  0  0  0  0  0  0  0  0
    4.5200   -2.4625    2.4053 H   0  0  0  0  0  0  0  0  0  0  0  0
    5.3475   -0.2109    1.8622 H   0  0  0  0  0  0  0  0  0  0  0  0
    4.6672    0.6865    0.5075 H   0  0  0  0  0  0  0  0  0  0  0  0
    5.5713   -0.9822   -1.0920 H   0  0  0  0  0  0  0  0  0  0  0  0
    6.1276   -2.0032    0.2561 H   0  0  0  0  0  0  0  0  0  0  0  0
    6.4486    2.0472    0.0131 H   0  0  0  0  0  0  0  0  0  0  0  0
    8.0017    2.0012   -0.8544 H   0  0  0  0  0  0  0  0  0  0  0  0
    7.8704    0.2336   -2.9535 H   0  0  0  0  0  0  0  0  0  0  0  0
    6.6763    0.0124   -5.0997 H   0  0  0  0  0  0  0  0  0  0  0  0
    4.4480    1.0360   -5.3815 H   0  0  0  0  0  0  0  0  0  0  0  0
    3.4189    2.2700   -3.5013 H   0  0  0  0  0  0  0  0  0  0  0  0
    4.5849    2.4461   -1.3508 H   0  0  0  0  0  0  0  0  0  0  0  0
  1  6  1  0  0  0  0
  1  4  1  0  0  0  0
  2  1  1  0  0  0  0
  4  8  1  0  0  0  0
  5  1  1  0  0  0  0
  6 14  1  1  0  0  0
  7 17  1  1  0  0  0
  7 16  1  0  0  0  0
  7  1  1  0  0  0  0
  8 13  2  0  0  0  0
  8  9  1  0  0  0  0
  9 10  2  0  0  0  0
 10 11  1  0  0  0  0
 10 35  1  0  0  0  0
 11 36  1  0  0  0  0
 12 37  1  0  0  0  0
 12 11  2  0  0  0  0
 13 12  1  0  0  0  0
 14 38  1  0  0  0  0
 14 13  1  0  0  0  0
 15 25  1  6  0  0  0
 15 24  1  0  0  0  0
 15  6  1  0  0  0  0
 16 40  1  0  0  0  0
 16 15  1  0  0  0  0
 18 17  1  0  0  0  0
 18 23  1  0  0  0  0
 19 18  2  0  0  0  0
 20 19  1  0  0  0  0
 20 21  2  0  0  0  0
 21 22  1  0  0  0  0
 22 23  2  0  0  0  0
 22 44  1  0  0  0  0
 23  5  1  0  0  0  0
 24 45  1  0  0  0  0
 24 47  1  0  0  0  0
 25 48  1  0  0  0  0
 26  3  1  0  0  0  0
 26 51  1  0  0  0  0
 26 25  1  0  0  0  0
 27  3  1  0  0  0  0
 27 52  1  0  0  0  0
 28 27  1  0  0  0  0
 29 54  1  0  0  0  0
 29 28  2  0  0  0  0
 30 29  1  0  0  0  0
 31 30  2  0  0  0  0
 31 32  1  0  0  0  0
 32 33  2  0  0  0  0
 33 28  1  0  0  0  0
 33 58  1  0  0  0  0
 34  9  1  0  0  0  0
 39 16  1  0  0  0  0
 41 17  1  0  0  0  0
 42 19  1  0  0  0  0
 43 21  1  0  0  0  0
 46 24  1  0  0  0  0
 49 25  1  0  0  0  0
 50 26  1  0  0  0  0
 53 27  1  0  0  0  0
 55 30  1  0  0  0  0
 56 31  1  0  0  0  0
 57 32  1  0  0  0  0
M  END
$$$$
