CSD_code = VAGJUL | q = 0 | S = 0 | Stoichiometry = C13H19Cl2N5Zn | MND = 4
 OpenBabel04212202103D

 40 43  0  0  1  0  0  0  0  0999 V2000
    5.1877    8.5541  -10.7640 Zn  0  0  0  0  0  0  0  0  0  0  0  0
    5.4422    6.6680  -11.8076 Cl  0  0  0  0  0  0  0  0  0  0  0  0
    5.1877   10.6771  -11.4756 Cl  0  0  0  0  0  0  0  0  0  0  0  0
    3.5033    8.3514   -9.5335 N   0  0  2  0  0  0  0  0  0  0  0  0
    2.9788    9.2445   -8.6947 N   0  0  0  0  0  0  0  0  0  0  0  0
    6.7526    9.4726   -8.2278 N   0  0  2  0  0  0  0  0  0  0  0  0
    6.5196    8.5270   -9.1396 N   0  0  0  0  0  0  0  0  0  0  0  0
    4.6751   10.6312   -7.6332 N   0  0  2  0  0  0  0  0  0  0  0  0
    2.7728    7.2512   -9.4414 C   0  0  0  0  0  3  0  0  0  0  0  0
    3.0162    6.3909  -10.0329 H   0  0  0  0  0  0  0  0  0  0  0  0
    1.7428    7.4371   -8.5202 C   0  0  0  0  0  0  0  0  0  0  0  0
    0.9871    6.7357   -8.2349 H   0  0  0  0  0  0  0  0  0  0  0  0
    1.9119    8.7263   -8.0655 C   0  0  0  0  0  0  0  0  0  0  0  0
    1.3424    9.2949   -7.3578 H   0  0  0  0  0  0  0  0  0  0  0  0
    3.5489   10.5720   -8.5126 C   0  0  0  0  0  0  0  0  0  0  0  0
    3.8439   10.9460   -9.4983 H   0  0  0  0  0  0  0  0  0  0  0  0
    2.7403   11.1938   -8.1077 H   0  0  0  0  0  0  0  0  0  0  0  0
    5.9908   10.7149   -8.1841 C   0  0  0  0  0  0  0  0  0  0  0  0
    6.5954   11.4208   -7.6050 H   0  0  0  0  0  0  0  0  0  0  0  0
    5.9043   11.0804   -9.2136 H   0  0  0  0  0  0  0  0  0  0  0  0
    7.7614    9.1059   -7.4213 C   0  0  0  0  0  3  0  0  0  0  0  0
    8.1195    9.7398   -6.6353 H   0  0  0  0  0  0  0  0  0  0  0  0
    8.1908    7.8609   -7.8255 C   0  0  0  0  0  0  0  0  0  0  0  0
    8.9789    7.2718   -7.4054 H   0  0  0  0  0  0  0  0  0  0  0  0
    7.3749    7.5423   -8.9099 C   0  0  0  0  0  0  0  0  0  0  0  0
    7.3642    6.6644   -9.5252 H   0  0  0  0  0  0  0  0  0  0  0  0
    4.4430   10.1837   -6.2731 C   0  0  0  0  0  0  0  0  0  0  0  0
    3.4121   10.4775   -6.0468 H   0  0  0  0  0  0  0  0  0  0  0  0
    5.3449   10.8390   -5.2149 C   0  0  0  0  0  0  0  0  0  0  0  0
    6.3633   10.9478   -5.5804 H   0  0  0  0  0  0  0  0  0  0  0  0
    4.9786   11.8228   -4.9281 H   0  0  0  0  0  0  0  0  0  0  0  0
    5.3327    9.8355   -4.0667 C   0  0  0  0  0  0  0  0  0  0  0  0
    4.3834    9.8883   -3.5320 H   0  0  0  0  0  0  0  0  0  0  0  0
    6.1388   10.0050   -3.3549 H   0  0  0  0  0  0  0  0  0  0  0  0
    5.4556    8.4937   -4.7863 C   0  0  0  0  0  0  0  0  0  0  0  0
    5.1388    7.6589   -4.1639 H   0  0  0  0  0  0  0  0  0  0  0  0
    6.4935    8.3237   -5.0759 H   0  0  0  0  0  0  0  0  0  0  0  0
    4.5752    8.6525   -6.0303 C   0  0  0  0  0  0  0  0  0  0  0  0
    3.5910    8.2169   -5.8556 H   0  0  0  0  0  0  0  0  0  0  0  0
    5.0023    8.1443   -6.8934 H   0  0  0  0  0  0  0  0  0  0  0  0
  1  4  1  0  0  0  0
  1  7  1  0  0  0  0
  2  1  1  0  0  0  0
  3  1  1  0  0  0  0
  4  9  1  1  0  0  0
  4  5  1  0  0  0  0
  5 15  1  0  0  0  0
  5 13  1  0  0  0  0
  6 18  1  0  0  0  0
  6 21  1  6  0  0  0
  7 25  1  0  0  0  0
  7  6  1  0  0  0  0
  8 27  1  6  0  0  0
  9 11  1  0  0  0  0
 10  9  1  0  0  0  0
 11 12  1  0  0  0  0
 11 13  2  0  0  0  0
 13 14  1  0  0  0  0
 15 17  1  0  0  0  0
 15  8  1  0  0  0  0
 16 15  1  0  0  0  0
 18  8  1  0  0  0  0
 18 19  1  0  0  0  0
 20 18  1  0  0  0  0
 21 22  1  0  0  0  0
 23 21  1  0  0  0  0
 23 24  1  0  0  0  0
 25 23  2  0  0  0  0
 26 25  1  0  0  0  0
 27 28  1  0  0  0  0
 27 38  1  0  0  0  0
 27 29  1  0  0  0  0
 29 31  1  0  0  0  0
 29 32  1  0  0  0  0
 30 29  1  0  0  0  0
 32 33  1  0  0  0  0
 32 34  1  0  0  0  0
 35 36  1  0  0  0  0
 35 32  1  0  0  0  0
 37 35  1  0  0  0  0
 38 39  1  0  0  0  0
 38 35  1  0  0  0  0
 40 38  1  0  0  0  0
M  END
$$$$
