CSD_code = VAGPIC | q = 0 | S = 0 | Stoichiometry = C36H26Cl4O2W | MND = 6
 OpenBabel04212202103D

 69 74  0  0  0  0  0  0  0  0999 V2000
    2.3276    0.4457    4.4633 W   0  0  0  0  0  0  0  0  0  0  0  0
    0.5269   -0.9899    3.8260 Cl  0  0  0  0  0  0  0  0  0  0  0  0
    3.0352   -1.3553    5.7117 Cl  0  0  0  0  0  0  0  0  0  0  0  0
    4.4720    1.3445    5.0334 Cl  0  0  0  0  0  0  0  0  0  0  0  0
    3.4302   -0.5288    2.6877 Cl  0  0  0  0  0  0  0  0  0  0  0  0
    1.7692    1.2295    5.9516 O   0  0  0  0  0  0  0  0  0  0  0  0
    1.6361    1.6093    3.3227 O   0  0  0  0  0  0  0  0  0  0  0  0
    2.0329    1.5099    7.2466 C   0  0  0  0  0  0  0  0  0  0  0  0
    1.7120    0.5786    8.2508 C   0  0  0  0  0  0  0  0  0  0  0  0
    2.0839    0.8662    9.5617 C   0  0  0  0  0  0  0  0  0  0  0  0
    2.7705    2.0241    9.8746 C   0  0  0  0  0  0  0  0  0  0  0  0
    3.0968    2.9268    8.8796 C   0  0  0  0  0  0  0  0  0  0  0  0
    2.7278    2.6923    7.5602 C   0  0  0  0  0  0  0  0  0  0  0  0
    1.0922    1.8441    2.1094 C   0  0  0  0  0  0  0  0  0  0  0  0
   -0.3016    1.7360    1.9465 C   0  0  0  0  0  0  0  0  0  0  0  0
   -0.8419    1.8940    0.6748 C   0  0  0  0  0  0  0  0  0  0  0  0
   -0.0304    2.1591   -0.4125 C   0  0  0  0  0  0  0  0  0  0  0  0
    1.3384    2.2538   -0.2477 C   0  0  0  0  0  0  0  0  0  0  0  0
    1.9259    2.0915    1.0039 C   0  0  0  0  0  0  0  0  0  0  0  0
    1.0098   -0.6724    7.9229 C   0  0  0  0  0  0  0  0  0  0  0  0
    1.3418   -1.8562    8.5817 C   0  0  0  0  0  0  0  0  0  0  0  0
    0.6908   -3.0348    8.2751 C   0  0  0  0  0  0  0  0  0  0  0  0
   -0.3094   -3.0524    7.3165 C   0  0  0  0  0  0  0  0  0  0  0  0
   -0.6516   -1.8836    6.6599 C   0  0  0  0  0  0  0  0  0  0  0  0
    0.0104   -0.7030    6.9506 C   0  0  0  0  0  0  0  0  0  0  0  0
    3.0523    3.6616    6.5002 C   0  0  0  0  0  0  0  0  0  0  0  0
    4.3117    4.2503    6.4215 C   0  0  0  0  0  0  0  0  0  0  0  0
    4.5885    5.1705    5.4279 C   0  0  0  0  0  0  0  0  0  0  0  0
    3.6155    5.5240    4.5070 C   0  0  0  0  0  0  0  0  0  0  0  0
    2.3557    4.9525    4.5841 C   0  0  0  0  0  0  0  0  0  0  0  0
    2.0785    4.0229    5.5719 C   0  0  0  0  0  0  0  0  0  0  0  0
   -1.1678    1.4541    3.1026 C   0  0  0  0  0  0  0  0  0  0  0  0
   -2.2374    0.5681    2.9986 C   0  0  0  0  0  0  0  0  0  0  0  0
   -3.0478    0.3214    4.0905 C   0  0  0  0  0  0  0  0  0  0  0  0
   -2.8165    0.9634    5.2957 C   0  0  0  0  0  0  0  0  0  0  0  0
   -1.7621    1.8551    5.4070 C   0  0  0  0  0  0  0  0  0  0  0  0
   -0.9352    2.0885    4.3215 C   0  0  0  0  0  0  0  0  0  0  0  0
    3.3864    2.1697    1.1651 C   0  0  0  0  0  0  0  0  0  0  0  0
    3.9541    2.7876    2.2786 C   0  0  0  0  0  0  0  0  0  0  0  0
    5.3301    2.8767    2.4052 C   0  0  0  0  0  0  0  0  0  0  0  0
    6.1547    2.3257    1.4406 C   0  0  0  0  0  0  0  0  0  0  0  0
    5.5992    1.6950    0.3390 C   0  0  0  0  0  0  0  0  0  0  0  0
    4.2276    1.6229    0.1963 C   0  0  0  0  0  0  0  0  0  0  0  0
    1.8171    0.1704   10.3420 H   0  0  0  0  0  0  0  0  0  0  0  0
    3.0496    2.2249   10.8976 H   0  0  0  0  0  0  0  0  0  0  0  0
    3.6262    3.8364    9.1187 H   0  0  0  0  0  0  0  0  0  0  0  0
   -1.9117    1.8254    0.5510 H   0  0  0  0  0  0  0  0  0  0  0  0
   -0.4663    2.2930   -1.3907 H   0  0  0  0  0  0  0  0  0  0  0  0
    1.9711    2.4698   -1.0947 H   0  0  0  0  0  0  0  0  0  0  0  0
    2.1396   -1.8560    9.3087 H   0  0  0  0  0  0  0  0  0  0  0  0
    0.9699   -3.9467    8.7819 H   0  0  0  0  0  0  0  0  0  0  0  0
   -0.8150   -3.9756    7.0772 H   0  0  0  0  0  0  0  0  0  0  0  0
   -1.4238   -1.8836    5.9061 H   0  0  0  0  0  0  0  0  0  0  0  0
   -0.2879    0.2079    6.4435 H   0  0  0  0  0  0  0  0  0  0  0  0
    5.0777    3.9612    7.1237 H   0  0  0  0  0  0  0  0  0  0  0  0
    5.5701    5.6168    5.3702 H   0  0  0  0  0  0  0  0  0  0  0  0
    3.8366    6.2408    3.7306 H   0  0  0  0  0  0  0  0  0  0  0  0
    1.5874    5.2356    3.8777 H   0  0  0  0  0  0  0  0  0  0  0  0
    1.0808    3.6211    5.6834 H   0  0  0  0  0  0  0  0  0  0  0  0
   -2.4111    0.0505    2.0683 H   0  0  0  0  0  0  0  0  0  0  0  0
   -3.8669   -0.3765    4.0015 H   0  0  0  0  0  0  0  0  0  0  0  0
   -3.4529    0.7706    6.1463 H   0  0  0  0  0  0  0  0  0  0  0  0
   -1.5892    2.3756    6.3394 H   0  0  0  0  0  0  0  0  0  0  0  0
   -0.1389    2.8183    4.3857 H   0  0  0  0  0  0  0  0  0  0  0  0
    3.3213    3.2450    3.0316 H   0  0  0  0  0  0  0  0  0  0  0  0
    5.7497    3.3648    3.2711 H   0  0  0  0  0  0  0  0  0  0  0  0
    7.2271    2.3814    1.5498 H   0  0  0  0  0  0  0  0  0  0  0  0
    6.2388    1.2523   -0.4101 H   0  0  0  0  0  0  0  0  0  0  0  0
    3.8003    1.1084   -0.6509 H   0  0  0  0  0  0  0  0  0  0  0  0
  1  4  1  0  0  0  0
  1  3  1  0  0  0  0
  1  6  1  0  0  0  0
  2  1  1  0  0  0  0
  5  1  1  0  0  0  0
  6  8  1  0  0  0  0
  7  1  1  0  0  0  0
  8 13  2  0  0  0  0
  8  9  1  0  0  0  0
  9 10  2  0  0  0  0
 10 11  1  0  0  0  0
 10 44  1  0  0  0  0
 11 45  1  0  0  0  0
 12 46  1  0  0  0  0
 12 11  2  0  0  0  0
 13 12  1  0  0  0  0
 14  7  1  0  0  0  0
 15 14  1  0  0  0  0
 15 32  1  0  0  0  0
 16 15  2  0  0  0  0
 17 18  2  0  0  0  0
 17 16  1  0  0  0  0
 18 19  1  0  0  0  0
 19 38  1  0  0  0  0
 19 14  2  0  0  0  0
 20  9  1  0  0  0  0
 20 21  1  0  0  0  0
 21 50  1  0  0  0  0
 22 21  2  0  0  0  0
 22 51  1  0  0  0  0
 23 22  1  0  0  0  0
 24 25  1  0  0  0  0
 24 23  2  0  0  0  0
 25 20  2  0  0  0  0
 26 13  1  0  0  0  0
 27 26  1  0  0  0  0
 27 55  1  0  0  0  0
 28 27  2  0  0  0  0
 29 30  2  0  0  0  0
 29 28  1  0  0  0  0
 30 31  1  0  0  0  0
 31 59  1  0  0  0  0
 31 26  2  0  0  0  0
 32 37  1  0  0  0  0
 33 32  2  0  0  0  0
 33 34  1  0  0  0  0
 34 35  2  0  0  0  0
 35 36  1  0  0  0  0
 35 62  1  0  0  0  0
 36 63  1  0  0  0  0
 37 64  1  0  0  0  0
 37 36  2  0  0  0  0
 38 39  1  0  0  0  0
 39 40  2  0  0  0  0
 39 65  1  0  0  0  0
 40 66  1  0  0  0  0
 41 67  1  0  0  0  0
 41 40  1  0  0  0  0
 42 41  2  0  0  0  0
 43 42  1  0  0  0  0
 43 38  2  0  0  0  0
 47 16  1  0  0  0  0
 48 17  1  0  0  0  0
 49 18  1  0  0  0  0
 52 23  1  0  0  0  0
 53 24  1  0  0  0  0
 54 25  1  0  0  0  0
 56 28  1  0  0  0  0
 57 29  1  0  0  0  0
 58 30  1  0  0  0  0
 60 33  1  0  0  0  0
 61 34  1  0  0  0  0
 68 42  1  0  0  0  0
 69 43  1  0  0  0  0
M  END
$$$$
