CSD_code = VAGVUW | q = 0 | S = 0 | Stoichiometry = C22H28Cl2N2Ni | MND = 4
 OpenBabel04212202103D

 55 57  0  0  0  0  0  0  0  0999 V2000
    7.3225    9.5059   18.8337 Ni  0  0  0  0  0  0  0  0  0  0  0  0
    6.4783    7.6464   18.6921 Cl  0  0  0  0  0  0  0  0  0  0  0  0
    8.6278    8.8530   20.2687 Cl  0  0  0  0  0  0  0  0  0  0  0  0
    5.9610   10.3624   17.7751 N   0  0  0  0  0  0  0  0  0  0  0  0
    8.2191   11.1908   18.5789 N   0  0  0  0  0  0  0  0  0  0  0  0
    5.2908   12.5140   16.7688 C   0  0  0  0  0  0  0  0  0  0  0  0
    4.3169   12.0459   16.6463 H   0  0  0  0  0  0  0  0  0  0  0  0
    5.6759   12.7901   15.7876 H   0  0  0  0  0  0  0  0  0  0  0  0
    5.1766   13.4285   17.3493 H   0  0  0  0  0  0  0  0  0  0  0  0
    6.2383   11.5825   17.4535 C   0  0  0  0  0  0  0  0  0  0  0  0
    7.5709   12.0201   17.8297 C   0  0  0  0  0  0  0  0  0  0  0  0
    8.1134   13.3271   17.3484 C   0  0  0  0  0  0  0  0  0  0  0  0
    9.1498   13.4462   17.6555 H   0  0  0  0  0  0  0  0  0  0  0  0
    7.5282   14.1521   17.7536 H   0  0  0  0  0  0  0  0  0  0  0  0
    8.0546   13.3814   16.2621 H   0  0  0  0  0  0  0  0  0  0  0  0
    4.6941    9.8042   17.5230 C   0  0  0  0  0  0  0  0  0  0  0  0
    3.7631    9.7577   18.5657 C   0  0  0  0  0  0  0  0  0  0  0  0
    2.5244    9.1915   18.3224 C   0  0  0  0  0  0  0  0  0  0  0  0
    1.8007    9.1507   19.1237 H   0  0  0  0  0  0  0  0  0  0  0  0
    2.2004    8.6619   17.0803 C   0  0  0  0  0  0  0  0  0  0  0  0
    3.1560    8.6871   16.0748 C   0  0  0  0  0  0  0  0  0  0  0  0
    2.9280    8.2499   15.1133 H   0  0  0  0  0  0  0  0  0  0  0  0
    4.4073    9.2464   16.2759 C   0  0  0  0  0  0  0  0  0  0  0  0
    4.1428   10.2923   19.9123 C   0  0  0  0  0  0  0  0  0  0  0  0
    3.4185    9.9956   20.6654 H   0  0  0  0  0  0  0  0  0  0  0  0
    4.2096   11.3815   19.9004 H   0  0  0  0  0  0  0  0  0  0  0  0
    5.1288    9.8964   20.1986 H   0  0  0  0  0  0  0  0  0  0  0  0
    0.8606    8.0327   16.8494 C   0  0  0  0  0  0  0  0  0  0  0  0
    0.6028    8.0405   15.7929 H   0  0  0  0  0  0  0  0  0  0  0  0
    0.0856    8.5534   17.4076 H   0  0  0  0  0  0  0  0  0  0  0  0
    0.8775    6.9959   17.1861 H   0  0  0  0  0  0  0  0  0  0  0  0
    5.4615    9.2237   15.2117 C   0  0  0  0  0  0  0  0  0  0  0  0
    6.3948    8.8478   15.6335 H   0  0  0  0  0  0  0  0  0  0  0  0
    5.6469   10.2228   14.8151 H   0  0  0  0  0  0  0  0  0  0  0  0
    5.1624    8.5779   14.3910 H   0  0  0  0  0  0  0  0  0  0  0  0
    9.5375   11.4517   18.9960 C   0  0  0  0  0  0  0  0  0  0  0  0
    9.7706   12.2178   20.1396 C   0  0  0  0  0  0  0  0  0  0  0  0
   11.0809   12.4331   20.5341 C   0  0  0  0  0  0  0  0  0  0  0  0
   11.2687   13.0195   21.4222 H   0  0  0  0  0  0  0  0  0  0  0  0
   12.1497   11.9001   19.8282 C   0  0  0  0  0  0  0  0  0  0  0  0
   11.8883   11.1135   18.7141 C   0  0  0  0  0  0  0  0  0  0  0  0
   12.7104   10.6684   18.1723 H   0  0  0  0  0  0  0  0  0  0  0  0
   10.5944   10.8711   18.2881 C   0  0  0  0  0  0  0  0  0  0  0  0
    8.6112   12.7432   20.9294 C   0  0  0  0  0  0  0  0  0  0  0  0
    8.9468   13.1443   21.8815 H   0  0  0  0  0  0  0  0  0  0  0  0
    7.9043   11.9336   21.1175 H   0  0  0  0  0  0  0  0  0  0  0  0
    8.0868   13.5314   20.3876 H   0  0  0  0  0  0  0  0  0  0  0  0
   13.5592   12.1254   20.2832 C   0  0  0  0  0  0  0  0  0  0  0  0
   13.6327   13.0190   20.8985 H   0  0  0  0  0  0  0  0  0  0  0  0
   14.2304   12.2247   19.4325 H   0  0  0  0  0  0  0  0  0  0  0  0
   13.8953   11.2756   20.8776 H   0  0  0  0  0  0  0  0  0  0  0  0
   10.2943    9.9867   17.1172 C   0  0  0  0  0  0  0  0  0  0  0  0
    9.5159    9.2617   17.3973 H   0  0  0  0  0  0  0  0  0  0  0  0
   11.1807    9.4410   16.8066 H   0  0  0  0  0  0  0  0  0  0  0  0
    9.9241   10.5650   16.2690 H   0  0  0  0  0  0  0  0  0  0  0  0
  1  3  1  0  0  0  0
  2  1  1  0  0  0  0
  4  1  1  0  0  0  0
  5  1  1  0  0  0  0
  5 36  1  0  0  0  0
  6  9  1  0  0  0  0
  6 10  1  0  0  0  0
  7  6  1  0  0  0  0
  8  6  1  0  0  0  0
 10  4  1  0  0  0  0
 10 11  2  0  0  0  0
 11  5  1  0  0  0  0
 12 13  1  0  0  0  0
 12 14  1  0  0  0  0
 12 11  1  0  0  0  0
 15 12  1  0  0  0  0
 16  4  1  0  0  0  0
 16 17  1  0  0  0  0
 17 24  1  0  0  0  0
 18 17  2  0  0  0  0
 18 19  1  0  0  0  0
 20 18  1  0  0  0  0
 21 23  1  0  0  0  0
 21 20  2  0  0  0  0
 22 21  1  0  0  0  0
 23 16  2  0  0  0  0
 24 27  1  0  0  0  0
 24 25  1  0  0  0  0
 26 24  1  0  0  0  0
 28 20  1  0  0  0  0
 28 31  1  0  0  0  0
 28 30  1  0  0  0  0
 29 28  1  0  0  0  0
 32 33  1  0  0  0  0
 32 23  1  0  0  0  0
 34 32  1  0  0  0  0
 35 32  1  0  0  0  0
 36 37  1  0  0  0  0
 37 38  2  0  0  0  0
 37 44  1  0  0  0  0
 38 39  1  0  0  0  0
 40 48  1  0  0  0  0
 40 38  1  0  0  0  0
 41 40  2  0  0  0  0
 42 41  1  0  0  0  0
 43 41  1  0  0  0  0
 43 36  2  0  0  0  0
 44 46  1  0  0  0  0
 44 45  1  0  0  0  0
 47 44  1  0  0  0  0
 48 51  1  0  0  0  0
 48 49  1  0  0  0  0
 50 48  1  0  0  0  0
 52 53  1  0  0  0  0
 52 43  1  0  0  0  0
 54 52  1  0  0  0  0
 55 52  1  0  0  0  0
M  END
$$$$
