CSD_code = VAGVUV | q = 0 | S = 0 | Stoichiometry = C11H16Cl2N2O2Zn | MND = 4
 OpenBabel04212202103D

 34 35  0  0  0  0  0  0  0  0999 V2000
   -0.3323    6.6387    1.8926 Zn  0  0  0  0  0  0  0  0  0  0  0  0
   -0.5096    4.5343    1.2777 Cl  0  0  0  0  0  0  0  0  0  0  0  0
   -1.5037    7.7815    0.2174 Cl  0  0  0  0  0  0  0  0  0  0  0  0
    1.1671    7.5063    2.4718 O   0  0  0  0  0  0  0  0  0  0  0  0
   -4.3543    7.1716   -1.0402 O   0  0  0  0  0  0  0  0  0  0  0  0
   -3.4223    7.4498   -1.0750 H   0  0  0  0  0  0  0  0  0  0  0  0
   -1.6121    7.1312    3.3999 N   0  0  0  0  0  0  0  0  0  0  0  0
   -3.7021    6.1490    1.2751 N   0  0  0  0  0  4  0  0  0  0  0  0
    1.1819    8.3737    3.4216 C   0  0  0  0  0  0  0  0  0  0  0  0
    2.3844    9.0971    3.6359 C   0  0  0  0  0  0  0  0  0  0  0  0
    3.2091    8.8705    2.9773 H   0  0  0  0  0  0  0  0  0  0  0  0
    2.5000   10.0371    4.6201 C   0  0  0  0  0  0  0  0  0  0  0  0
    3.4307   10.5700    4.7503 H   0  0  0  0  0  0  0  0  0  0  0  0
    1.4179   10.3172    5.4645 C   0  0  0  0  0  0  0  0  0  0  0  0
    1.5146   11.0613    6.2398 H   0  0  0  0  0  0  0  0  0  0  0  0
    0.2455    9.6383    5.2936 C   0  0  0  0  0  0  0  0  0  0  0  0
   -0.5952    9.8474    5.9415 H   0  0  0  0  0  0  0  0  0  0  0  0
    0.0785    8.6587    4.2858 C   0  0  0  0  0  0  0  0  0  0  0  0
   -1.1905    8.0325    4.2264 C   0  0  0  0  0  3  0  0  0  0  0  0
   -1.8941    8.3740    4.9954 H   0  0  0  0  0  0  0  0  0  0  0  0
   -2.9766    6.6681    3.5970 C   0  0  0  0  0  0  0  0  0  0  0  0
   -3.6685    7.5194    3.5269 H   0  0  0  0  0  0  0  0  0  0  0  0
   -3.0671    6.2450    4.6053 H   0  0  0  0  0  0  0  0  0  0  0  0
   -3.3793    5.5890    2.5977 C   0  0  0  0  0  0  0  0  0  0  0  0
   -2.5449    4.8936    2.4630 H   0  0  0  0  0  0  0  0  0  0  0  0
   -4.2464    5.0419    2.9762 H   0  0  0  0  0  0  0  0  0  0  0  0
   -3.7483    5.1461    0.1927 C   0  0  0  0  0  0  0  0  0  0  0  0
   -4.2975    4.2633    0.5234 H   0  0  0  0  0  0  0  0  0  0  0  0
   -2.7167    4.8572   -0.0201 H   0  0  0  0  0  0  0  0  0  0  0  0
   -4.4374    5.7752   -1.0390 C   0  0  0  0  0  0  0  0  0  0  0  0
   -4.0114    5.3407   -1.9508 H   0  0  0  0  0  0  0  0  0  0  0  0
   -5.5090    5.5525   -1.0256 H   0  0  0  0  0  0  0  0  0  0  0  0
   -4.5783    6.6797    1.2804 H   0  0  0  0  0  0  0  0  0  0  0  0
   -2.9286    6.8503    0.9590 H   0  0  0  0  0  0  0  0  0  0  0  0
  1  4  1  0  0  0  0
  1  7  1  0  0  0  0
  2  1  1  0  0  0  0
  3  1  1  0  0  0  0
  4  9  1  0  0  0  0
  5 30  1  0  0  0  0
  6  5  1  0  0  0  0
  7 21  1  0  0  0  0
  7 19  1  0  0  0  0
  8 33  1  0  0  0  0
  8 24  1  0  0  0  0
  9 10  2  0  0  0  0
  9 18  1  0  0  0  0
 10 12  1  0  0  0  0
 11 10  1  0  0  0  0
 12 13  1  0  0  0  0
 12 14  2  0  0  0  0
 14 15  1  0  0  0  0
 16 14  1  0  0  0  0
 16 17  1  0  0  0  0
 18 16  2  0  0  0  0
 19 18  1  0  0  0  0
 19 20  1  0  0  0  0
 21 23  1  0  0  0  0
 22 21  1  0  0  0  0
 24 26  1  0  0  0  0
 24 21  1  0  0  0  0
 25 24  1  0  0  0  0
 27 28  1  0  0  0  0
 27  8  1  0  0  0  0
 29 27  1  0  0  0  0
 30 32  1  0  0  0  0
 30 27  1  0  0  0  0
 31 30  1  0  0  0  0
 34  8  1  0  0  0  0
M  END
$$$$
