CSD_code = VAGXEJ | q = 0 | S = 0 | Stoichiometry = C24H19Cl2NO4PRe | MND = 6
 OpenBabel04212202103D

 52 56  0  0  1  0  0  0  0  0999 V2000
    4.5774    6.7018    3.0797 Re  0  0  0  0  0  0  0  0  0  0  0  0
    5.7704    7.9280    4.5853 Cl  0  0  0  0  0  0  0  0  0  0  0  0
    3.3953    5.8048    4.8015 Cl  0  0  0  0  0  0  0  0  0  0  0  0
    2.5505    6.1417    1.8133 P   0  0  0  0  0  4  0  0  0  0  0  0
    5.4722    5.3852    2.6363 O   0  0  0  0  0  1  0  0  0  0  0  0
    3.3092    8.4068    2.9802 O   0  0  0  0  0  0  0  0  0  0  0  0
    2.8183   10.3807    2.0715 O   0  0  0  0  0  0  0  0  0  0  0  0
    7.2080    6.7455    1.2638 O   0  0  0  0  0  0  0  0  0  0  0  0
    8.1093    6.6827    0.9203 H   0  0  0  0  0  0  0  0  0  0  0  0
    5.4872    8.1392    1.6420 N   0  0  0  0  0  0  0  0  0  0  0  0
    4.8708    9.3123    1.5031 C   0  0  2  0  0  3  0  0  0  0  0  0
    5.3958   10.3519    0.7600 C   0  0  0  0  0  0  0  0  0  0  0  0
    4.8371   11.2700    0.6863 H   0  0  0  0  0  0  0  0  0  0  0  0
    6.6325   10.1666    0.1606 C   0  0  0  0  0  0  0  0  0  0  0  0
    7.0901   10.9565   -0.4146 H   0  0  0  0  0  0  0  0  0  0  0  0
    7.2817    8.9562    0.3185 C   0  0  0  0  0  0  0  0  0  0  0  0
    8.2513    8.7797   -0.1226 H   0  0  0  0  0  0  0  0  0  0  0  0
    6.6740    7.9501    1.0718 C   0  0  0  0  0  0  0  0  0  0  0  0
    3.5402    9.4210    2.2384 C   0  0  0  0  0  0  0  0  0  0  0  0
    2.3926    7.2671    0.4012 C   0  0  0  0  0  0  0  0  0  0  0  0
    3.4539    7.2591   -0.5039 C   0  0  0  0  0  0  0  0  0  0  0  0
    4.2580    6.5469   -0.3590 H   0  0  0  0  0  0  0  0  0  0  0  0
    3.4729    8.1519   -1.5567 C   0  0  0  0  0  0  0  0  0  0  0  0
    4.2975    8.1480   -2.2548 H   0  0  0  0  0  0  0  0  0  0  0  0
    2.4363    9.0614   -1.7087 C   0  0  0  0  0  0  0  0  0  0  0  0
    2.4580    9.7706   -2.5224 H   0  0  0  0  0  0  0  0  0  0  0  0
    1.3758    9.0621   -0.8193 C   0  0  0  0  0  0  0  0  0  0  0  0
    0.5704    9.7704   -0.9386 H   0  0  0  0  0  0  0  0  0  0  0  0
    1.3481    8.1668    0.2368 C   0  0  0  0  0  0  0  0  0  0  0  0
    0.5225    8.1737    0.9329 H   0  0  0  0  0  0  0  0  0  0  0  0
    0.9823    6.1580    2.7217 C   0  0  0  0  0  0  0  0  0  0  0  0
    0.5361    7.3219    3.3474 C   0  0  0  0  0  0  0  0  0  0  0  0
    1.1286    8.2232    3.3056 H   0  0  0  0  0  0  0  0  0  0  0  0
   -0.6544    7.3142    4.0500 C   0  0  0  0  0  0  0  0  0  0  0  0
   -0.9925    8.2182    4.5343 H   0  0  0  0  0  0  0  0  0  0  0  0
   -1.4047    6.1534    4.1425 C   0  0  0  0  0  0  0  0  0  0  0  0
   -2.3315    6.1508    4.6968 H   0  0  0  0  0  0  0  0  0  0  0  0
   -0.9572    4.9927    3.5342 C   0  0  0  0  0  0  0  0  0  0  0  0
   -1.5325    4.0822    3.6144 H   0  0  0  0  0  0  0  0  0  0  0  0
    0.2325    4.9888    2.8290 C   0  0  0  0  0  0  0  0  0  0  0  0
    0.5810    4.0763    2.3682 H   0  0  0  0  0  0  0  0  0  0  0  0
    2.6140    4.4990    1.0387 C   0  0  0  0  0  0  0  0  0  0  0  0
    1.9263    4.2472   -0.1450 C   0  0  0  0  0  0  0  0  0  0  0  0
    1.3640    5.0393   -0.6203 H   0  0  0  0  0  0  0  0  0  0  0  0
    1.9671    2.9842   -0.7074 C   0  0  0  0  0  0  0  0  0  0  0  0
    1.4374    2.7899   -1.6283 H   0  0  0  0  0  0  0  0  0  0  0  0
    2.6849    1.9714   -0.0910 C   0  0  0  0  0  0  0  0  0  0  0  0
    2.7145    0.9873   -0.5347 H   0  0  0  0  0  0  0  0  0  0  0  0
    3.3661    2.2202    1.0900 C   0  0  0  0  0  0  0  0  0  0  0  0
    3.9258    1.4311    1.5684 H   0  0  0  0  0  0  0  0  0  0  0  0
    3.3345    3.4822    1.6564 C   0  0  0  0  0  0  0  0  0  0  0  0
    3.8738    3.6953    2.5710 H   0  0  0  0  0  0  0  0  0  0  0  0
  1  2  1  0  0  0  0
  1  3  1  0  0  0  0
  4 31  1  0  0  0  0
  4  1  1  0  0  0  0
  5  1  1  0  0  0  0
  6  1  1  0  0  0  0
  7 19  2  0  0  0  0
  9  8  1  0  0  0  0
 10  1  1  0  0  0  0
 11 12  1  1  0  0  0
 11 10  1  0  0  0  0
 11 19  1  0  0  0  0
 13 12  1  0  0  0  0
 14 16  1  0  0  0  0
 14 12  2  0  0  0  0
 15 14  1  0  0  0  0
 16 18  2  0  0  0  0
 17 16  1  0  0  0  0
 18  8  1  0  0  0  0
 18 10  1  0  0  0  0
 19  6  1  0  0  0  0
 20  4  1  0  0  0  0
 21 22  1  0  0  0  0
 21 20  2  0  0  0  0
 23 21  1  0  0  0  0
 24 23  1  0  0  0  0
 25 23  2  0  0  0  0
 25 27  1  0  0  0  0
 26 25  1  0  0  0  0
 27 29  2  0  0  0  0
 28 27  1  0  0  0  0
 29 20  1  0  0  0  0
 29 30  1  0  0  0  0
 31 40  2  0  0  0  0
 31 32  1  0  0  0  0
 32 34  2  0  0  0  0
 33 32  1  0  0  0  0
 34 36  1  0  0  0  0
 34 35  1  0  0  0  0
 36 37  1  0  0  0  0
 38 39  1  0  0  0  0
 38 36  2  0  0  0  0
 40 38  1  0  0  0  0
 41 40  1  0  0  0  0
 42 51  1  0  0  0  0
 42  4  1  0  0  0  0
 43 42  2  0  0  0  0
 44 43  1  0  0  0  0
 45 43  1  0  0  0  0
 45 47  2  0  0  0  0
 46 45  1  0  0  0  0
 47 49  1  0  0  0  0
 48 47  1  0  0  0  0
 49 50  1  0  0  0  0
 49 51  2  0  0  0  0
 51 52  1  0  0  0  0
M  END
$$$$
