CSD_code = VAHBOV | q = 0 | S = 0 | Stoichiometry = C2H3ClF4MoN2 | MND = 6
 OpenBabel04212202103D

 13 12  0  0  0  0  0  0  0  0999 V2000
    1.4984    3.5240    1.4176 Mo  0  0  0  0  0  0  0  0  0  0  0  0
    0.6247    2.2603    2.3655 F   0  0  0  0  0  0  0  0  0  0  0  0
    2.6747    2.2609    0.8892 F   0  0  0  0  0  0  0  0  0  0  0  0
    0.4838    3.5240    0.0088 N   0  0  0  0  0  2  0  0  0  0  0  0
   -0.4492    3.5240   -1.2856 Cl  0  0  0  0  0  0  0  0  0  0  0  0
    2.7747    3.5240    3.1902 N   0  0  0  0  0  2  0  0  0  0  0  0
    3.4409    3.5239    4.1202 C   0  0  0  0  0  2  0  0  0  0  0  0
    4.2683    3.5240    5.2754 C   0  0  0  0  0  0  0  0  0  0  0  0
    5.3155    3.5240    4.9723 H   0  0  0  0  0  0  0  0  0  0  0  0
    4.0621    2.6339    5.8701 H   0  0  0  0  0  0  0  0  0  0  0  0
    0.6247    4.7877    2.3655 F   0  0  0  0  0  0  0  0  0  0  0  0
    2.6747    4.7871    0.8892 F   0  0  0  0  0  0  0  0  0  0  0  0
    4.0621    4.4141    5.8701 H   0  0  0  0  0  0  0  0  0  0  0  0
  1 11  1  0  0  0  0
  1  2  1  0  0  0  0
  1  6  1  0  0  0  0
  3  1  1  0  0  0  0
  4  1  1  0  0  0  0
  5  4  1  0  0  0  0
  6  7  1  0  0  0  0
  7  8  1  0  0  0  0
  8 13  1  0  0  0  0
  8 10  1  0  0  0  0
  9  8  1  0  0  0  0
 12  1  1  0  0  0  0
M  END
$$$$
