CSD_code = VAJHEU | q = 0 | S = 0 | Stoichiometry = C29H32Cl2P2Pd | MND = 4
 OpenBabel04212202103D

 66 71  0  0  1  0  0  0  0  0999 V2000
   -0.5730    1.8422    6.6575 Pd  0  0  0  0  0  0  0  0  0  0  0  0
    1.4646    1.1977    7.3698 Cl  0  0  0  0  0  0  0  0  0  0  0  0
    0.0050    1.5976    4.5030 Cl  0  0  0  0  0  0  0  0  0  0  0  0
   -2.8213    2.2350    6.4206 P   0  0  1  0  0  4  0  0  0  0  0  0
   -1.2326    1.8668    8.8280 P   0  0  2  0  0  4  0  0  0  0  0  0
   -3.4666    0.5075    6.7948 C   0  0  2  0  0  0  0  0  0  0  0  0
   -4.4534    0.5927    7.2661 H   0  0  0  0  0  0  0  0  0  0  0  0
   -2.5073   -0.3075    7.6739 C   0  0  0  0  0  0  0  0  0  0  0  0
   -1.5668   -0.4518    7.1037 H   0  0  0  0  0  0  0  0  0  0  0  0
   -2.9555   -1.2957    7.8226 H   0  0  0  0  0  0  0  0  0  0  0  0
   -2.1416    0.2616    9.0510 C   0  0  2  0  0  0  0  0  0  0  0  0
   -1.3954   -0.4181    9.4869 H   0  0  0  0  0  0  0  0  0  0  0  0
   -3.3721    3.2129    7.8571 C   0  0  0  0  0  0  0  0  0  0  0  0
   -4.5569    3.8294    7.5826 C   0  0  0  0  0  0  0  0  0  0  0  0
   -4.9837    3.6828    6.2020 C   0  0  0  0  0  0  0  0  0  0  0  0
   -4.1928    2.8889    5.4256 C   0  0  0  0  0  0  0  0  0  0  0  0
   -2.4752    3.1698    8.9718 C   0  0  0  0  0  0  0  0  0  0  0  0
   -2.1309    4.0077    9.9955 C   0  0  0  0  0  0  0  0  0  0  0  0
   -1.0228    3.5124   10.7999 C   0  0  0  0  0  0  0  0  0  0  0  0
   -0.4725    2.3388   10.3818 C   0  0  0  0  0  0  0  0  0  0  0  0
   -3.5754   -0.2020    5.4422 C   0  0  0  0  0  0  0  0  0  0  0  0
   -2.6316   -0.0972    4.8984 H   0  0  0  0  0  0  0  0  0  0  0  0
   -4.3714    0.2169    4.8327 H   0  0  0  0  0  0  0  0  0  0  0  0
   -3.7758   -1.2629    5.5841 H   0  0  0  0  0  0  0  0  0  0  0  0
   -5.4266    4.5427    8.5669 C   0  0  0  0  0  0  0  0  0  0  0  0
   -5.1113    4.3228    9.5820 H   0  0  0  0  0  0  0  0  0  0  0  0
   -6.4590    4.2168    8.4449 H   0  0  0  0  0  0  0  0  0  0  0  0
   -5.4035    5.6219    8.4149 H   0  0  0  0  0  0  0  0  0  0  0  0
   -6.1685    4.4459    5.7043 C   0  0  0  0  0  0  0  0  0  0  0  0
   -6.1316    4.5452    4.6228 H   0  0  0  0  0  0  0  0  0  0  0  0
   -6.1886    5.4401    6.1461 H   0  0  0  0  0  0  0  0  0  0  0  0
   -7.0969    3.9415    5.9749 H   0  0  0  0  0  0  0  0  0  0  0  0
   -4.3171    2.5844    4.0098 C   0  0  0  0  0  0  0  0  0  0  0  0
   -5.5496    2.3508    3.3953 C   0  0  0  0  0  0  0  0  0  0  0  0
   -6.4550    2.3526    3.9834 H   0  0  0  0  0  0  0  0  0  0  0  0
   -5.6118    2.0659    2.0441 C   0  0  0  0  0  0  0  0  0  0  0  0
   -6.5709    1.8835    1.5809 H   0  0  0  0  0  0  0  0  0  0  0  0
   -4.4533    2.0046    1.2868 C   0  0  0  0  0  0  0  0  0  0  0  0
   -4.5092    1.7835    0.2313 H   0  0  0  0  0  0  0  0  0  0  0  0
   -3.2238    2.2100    1.8931 C   0  0  0  0  0  0  0  0  0  0  0  0
   -2.3140    2.1443    1.3166 H   0  0  0  0  0  0  0  0  0  0  0  0
   -3.1540    2.4905    3.2429 C   0  0  0  0  0  0  0  0  0  0  0  0
   -2.1916    2.6406    3.7168 H   0  0  0  0  0  0  0  0  0  0  0  0
   -2.7096    5.3564   10.2696 C   0  0  0  0  0  0  0  0  0  0  0  0
   -3.2056    5.7410    9.3847 H   0  0  0  0  0  0  0  0  0  0  0  0
   -1.9192    6.0490   10.5514 H   0  0  0  0  0  0  0  0  0  0  0  0
   -3.4256    5.3200   11.0918 H   0  0  0  0  0  0  0  0  0  0  0  0
   -0.5550    4.2506   12.0102 C   0  0  0  0  0  0  0  0  0  0  0  0
    0.1495    3.6438   12.5735 H   0  0  0  0  0  0  0  0  0  0  0  0
   -1.3963    4.5104   12.6508 H   0  0  0  0  0  0  0  0  0  0  0  0
   -0.0546    5.1749   11.7208 H   0  0  0  0  0  0  0  0  0  0  0  0
    0.6981    1.6497   10.9345 C   0  0  0  0  0  0  0  0  0  0  0  0
    0.5821    0.3870   11.5060 C   0  0  0  0  0  0  0  0  0  0  0  0
   -0.3920   -0.0754   11.5869 H   0  0  0  0  0  0  0  0  0  0  0  0
    1.7005   -0.2657   11.9914 C   0  0  0  0  0  0  0  0  0  0  0  0
    1.5994   -1.2459   12.4343 H   0  0  0  0  0  0  0  0  0  0  0  0
    2.9464    0.3312   11.9039 C   0  0  0  0  0  0  0  0  0  0  0  0
    3.8201   -0.1840   12.2744 H   0  0  0  0  0  0  0  0  0  0  0  0
    3.0698    1.5876   11.3348 C   0  0  0  0  0  0  0  0  0  0  0  0
    4.0409    2.0536   11.2578 H   0  0  0  0  0  0  0  0  0  0  0  0
    1.9536    2.2462   10.8554 C   0  0  0  0  0  0  0  0  0  0  0  0
    2.0481    3.2173   10.3928 H   0  0  0  0  0  0  0  0  0  0  0  0
   -3.3221    0.3955   10.0065 C   0  0  0  0  0  0  0  0  0  0  0  0
   -4.0882    1.0472    9.5924 H   0  0  0  0  0  0  0  0  0  0  0  0
   -2.9925    0.8202   10.9536 H   0  0  0  0  0  0  0  0  0  0  0  0
   -3.7637   -0.5811   10.1995 H   0  0  0  0  0  0  0  0  0  0  0  0
  1  2  1  0  0  0  0
  1  5  1  0  0  0  0
  3  1  1  0  0  0  0
  4 16  1  6  0  0  0
  4  1  1  0  0  0  0
  4  6  1  0  0  0  0
  4 13  1  0  0  0  0
  5 17  1  6  0  0  0
  5 11  1  0  0  0  0
  5 20  1  0  0  0  0
  6  7  1  1  0  0  0
  6  8  1  0  0  0  0
  8 10  1  0  0  0  0
  8 11  1  0  0  0  0
  9  8  1  0  0  0  0
 11 12  1  1  0  0  0
 11 63  1  0  0  0  0
 13 17  1  0  0  0  0
 14 13  2  0  0  0  0
 14 25  1  0  0  0  0
 15 14  1  0  0  0  0
 16 15  2  0  0  0  0
 17 18  2  0  0  0  0
 18 44  1  0  0  0  0
 18 19  1  0  0  0  0
 19 48  1  0  0  0  0
 20 19  2  0  0  0  0
 20 52  1  0  0  0  0
 21 24  1  0  0  0  0
 21  6  1  0  0  0  0
 22 21  1  0  0  0  0
 23 21  1  0  0  0  0
 25 26  1  0  0  0  0
 27 25  1  0  0  0  0
 28 25  1  0  0  0  0
 29 32  1  0  0  0  0
 29 31  1  0  0  0  0
 29 15  1  0  0  0  0
 30 29  1  0  0  0  0
 33 16  1  0  0  0  0
 34 35  1  0  0  0  0
 34 33  1  0  0  0  0
 36 34  2  0  0  0  0
 37 36  1  0  0  0  0
 38 40  2  0  0  0  0
 38 36  1  0  0  0  0
 39 38  1  0  0  0  0
 40 42  1  0  0  0  0
 41 40  1  0  0  0  0
 42 43  1  0  0  0  0
 42 33  2  0  0  0  0
 44 46  1  0  0  0  0
 44 47  1  0  0  0  0
 45 44  1  0  0  0  0
 48 49  1  0  0  0  0
 48 50  1  0  0  0  0
 51 48  1  0  0  0  0
 52 53  1  0  0  0  0
 53 54  1  0  0  0  0
 53 55  2  0  0  0  0
 55 56  1  0  0  0  0
 57 55  1  0  0  0  0
 57 58  1  0  0  0  0
 59 57  2  0  0  0  0
 60 59  1  0  0  0  0
 61 52  2  0  0  0  0
 61 59  1  0  0  0  0
 62 61  1  0  0  0  0
 63 66  1  0  0  0  0
 63 65  1  0  0  0  0
 64 63  1  0  0  0  0
M  END
$$$$
