CSD_code = VAJZAK | q = -1 | S = 0 | Stoichiometry = C10H8Cl2NOZn(1-) | MND = 4
 OpenBabel04212202103D

 23 25  0  0  0  0  0  0  0  0999 V2000
    4.9230    2.8959   11.2905 Zn  0  0  0  0  0  0  0  0  0  0  0  0
    5.7075    1.3379   12.7033 Cl  0  0  0  0  0  0  0  0  0  0  0  0
    3.9778    4.7224   12.1892 Cl  0  0  0  0  0  0  0  0  0  0  0  0
    5.8792    3.1184    9.5796 O   0  0  0  0  0  0  0  0  0  0  0  0
    3.4793    1.9691   10.1198 N   0  0  0  0  0  0  0  0  0  0  0  0
    3.9225    1.9850    8.8541 C   0  0  0  0  0  0  0  0  0  0  0  0
    5.2026    2.6076    8.6188 C   0  0  0  0  0  0  0  0  0  0  0  0
    5.6505    2.6170    7.2917 C   0  0  0  0  0  0  0  0  0  0  0  0
    6.6055    3.0762    7.0836 H   0  0  0  0  0  0  0  0  0  0  0  0
    4.9043    2.0579    6.2631 C   0  0  0  0  0  0  0  0  0  0  0  0
    5.3005    2.0941    5.2558 H   0  0  0  0  0  0  0  0  0  0  0  0
    3.6837    1.4633    6.4857 C   0  0  0  0  0  3  0  0  0  0  0  0
    3.1133    1.0317    5.6753 H   0  0  0  0  0  0  0  0  0  0  0  0
    3.1718    1.4177    7.7913 C   0  0  0  0  0  0  0  0  0  0  0  0
    1.9350    0.8359    8.1397 C   0  0  0  0  0  0  0  0  0  0  0  0
    1.3266    0.3895    7.3633 H   0  0  0  0  0  0  0  0  0  0  0  0
    1.5170    0.8391    9.4423 C   0  0  0  0  0  0  0  0  0  0  0  0
    0.5721    0.3969    9.7243 H   0  0  0  0  0  0  0  0  0  0  0  0
    2.3254    1.4252   10.4350 C   0  0  0  0  0  0  0  0  0  0  0  0
    1.9240    1.4591   11.8712 C   0  0  0  0  0  0  0  0  0  0  0  0
    1.8922    2.4928   12.2151 H   0  0  0  0  0  0  0  0  0  0  0  0
    2.6773    0.9478   12.4704 H   0  0  0  0  0  0  0  0  0  0  0  0
    0.9543    0.9917   12.0253 H   0  0  0  0  0  0  0  0  0  0  0  0
  1  3  1  0  0  0  0
  1  2  1  0  0  0  0
  4  1  1  0  0  0  0
  5 19  1  0  0  0  0
  5  1  1  0  0  0  0
  6  5  1  0  0  0  0
  7  6  2  0  0  0  0
  7  4  1  0  0  0  0
  8  7  1  0  0  0  0
  9  8  1  0  0  0  0
 10 12  1  0  0  0  0
 10  8  2  0  0  0  0
 11 10  1  0  0  0  0
 12 14  1  0  0  0  0
 13 12  1  0  0  0  0
 14 15  2  0  0  0  0
 14  6  1  0  0  0  0
 15 17  1  0  0  0  0
 16 15  1  0  0  0  0
 17 18  1  0  0  0  0
 17 19  2  0  0  0  0
 19 20  1  0  0  0  0
 20 23  1  0  0  0  0
 20 21  1  0  0  0  0
 20 22  1  0  0  0  0
M  END
$$$$
