CSD_code = VALFEV | q = 0 | S = 0 | Stoichiometry = C24H17Cl2CuN10 | MND = 6
 OpenBabel04212202103D

 54 60  0  0  1  0  0  0  0  0999 V2000
    3.8817    3.1091    4.4784 Cu  0  0  0  0  0  0  0  0  0  0  0  0
    5.1283    4.9644    4.1736 Cl  0  0  0  0  0  0  0  0  0  0  0  0
    3.3063    1.3070    5.7059 Cl  0  0  0  0  0  0  0  0  0  0  0  0
    7.7026    1.9319    6.1726 N   0  0  0  0  0  0  0  0  0  0  0  0
    5.1137    2.1226    3.5905 N   0  0  0  0  0  0  0  0  0  0  0  0
    0.4364    4.0471    2.5805 N   0  0  0  0  0  0  0  0  0  0  0  0
    2.6892    4.1024    5.4281 N   0  0  0  0  0  0  0  0  0  0  0  0
    5.7236    2.9601    6.3066 N   0  0  0  0  0  2  0  0  0  0  0  0
    2.1441    2.8465    1.7706 N   0  0  0  0  0  2  0  0  0  0  0  0
    2.4445    3.2076    2.9935 N   0  0  0  0  0  0  0  0  0  0  0  0
    6.3883    3.1121    7.4410 N   0  0  0  0  0  0  0  0  0  0  0  0
    8.1600    3.1331    9.5517 N   0  0  0  0  0  0  0  0  0  0  0  0
    0.9271    3.3599    1.5315 C   0  0  0  0  0  0  0  0  0  0  0  0
    0.7892    2.4947   -0.6848 N   0  0  0  0  0  0  0  0  0  0  0  0
    0.2089    3.1981    0.2826 C   0  0  0  0  0  0  0  0  0  0  0  0
    1.4137    3.9305    3.4782 C   0  0  0  0  0  0  0  0  0  0  0  0
   -1.0544    3.7788    0.1366 C   0  0  0  0  0  0  0  0  0  0  0  0
   -1.7222    3.6127   -1.0609 C   0  0  0  0  0  0  0  0  0  0  0  0
   -1.1152    2.8780   -2.0696 C   0  0  0  0  0  0  0  0  0  0  0  0
    0.1411    2.3438   -1.8225 C   0  0  0  0  0  0  0  0  0  0  0  0
    0.5702    5.1841    5.4618 C   0  0  0  0  0  0  0  0  0  0  0  0
    1.5450    4.4215    4.8113 C   0  0  0  0  0  0  0  0  0  0  0  0
    2.0034    5.2569    7.3696 C   0  0  0  0  0  0  0  0  0  0  0  0
    2.9205    4.5020    6.6672 C   0  0  0  0  0  0  0  0  0  0  0  0
    0.8044    5.6037    6.7511 C   0  0  0  0  0  0  0  0  0  0  0  0
    8.5399    2.4830    8.4508 C   0  0  0  0  0  0  0  0  0  0  0  0
    7.2334    1.0495    3.5437 C   0  0  0  0  0  0  0  0  0  0  0  0
    9.7674    1.8336    8.3344 C   0  0  0  0  0  0  0  0  0  0  0  0
    6.5399    2.2405    5.5505 C   0  0  0  0  0  0  0  0  0  0  0  0
    6.2612    1.8080    4.1975 C   0  0  1  0  0  3  0  0  0  0  0  0
    4.8879    1.7122    2.3500 C   0  0  0  0  0  0  0  0  0  0  0  0
    5.8091    0.9573    1.6447 C   0  0  0  0  0  0  0  0  0  0  0  0
    7.5870    2.4898    7.3603 C   0  0  2  0  0  3  0  0  0  0  0  0
   10.6288    1.8693    9.4170 C   0  0  0  0  0  0  0  0  0  0  0  0
   10.2369    2.5445   10.5633 C   0  0  0  0  0  0  0  0  0  0  0  0
    8.9914    3.1582   10.5747 C   0  0  0  0  0  0  0  0  0  0  0  0
    7.0079    0.6179    2.2528 C   0  0  0  0  0  0  0  0  0  0  0  0
    2.2226    5.5664    8.3782 H   0  0  0  0  0  0  0  0  0  0  0  0
   -1.4731    4.3382    0.9573 H   0  0  0  0  0  0  0  0  0  0  0  0
    3.8654    4.2011    7.0892 H   0  0  0  0  0  0  0  0  0  0  0  0
   -0.3340    5.4152    4.9232 H   0  0  0  0  0  0  0  0  0  0  0  0
   -1.6025    2.7243   -3.0202 H   0  0  0  0  0  0  0  0  0  0  0  0
   10.0130    1.3263    7.4162 H   0  0  0  0  0  0  0  0  0  0  0  0
    5.5755    0.6498    0.6386 H   0  0  0  0  0  0  0  0  0  0  0  0
   10.8794    2.5954   11.4280 H   0  0  0  0  0  0  0  0  0  0  0  0
    7.7488    0.0304    1.7320 H   0  0  0  0  0  0  0  0  0  0  0  0
    8.6399    3.6970   11.4447 H   0  0  0  0  0  0  0  0  0  0  0  0
   11.5901    1.3792    9.3691 H   0  0  0  0  0  0  0  0  0  0  0  0
   -2.7008    4.0475   -1.2094 H   0  0  0  0  0  0  0  0  0  0  0  0
    0.6576    1.7627   -2.5764 H   0  0  0  0  0  0  0  0  0  0  0  0
    3.9446    1.9872    1.8882 H   0  0  0  0  0  0  0  0  0  0  0  0
    0.0699    6.1937    7.2780 H   0  0  0  0  0  0  0  0  0  0  0  0
    8.1396    0.8266    4.0828 H   0  0  0  0  0  0  0  0  0  0  0  0
    6.0234    3.6245    8.2303 H   0  0  0  0  0  0  0  0  0  0  0  0
  1  7  1  0  0  0  0
  1  3  1  0  0  0  0
  2  1  1  0  0  0  0
  4 33  1  0  0  0  0
  5 30  1  0  0  0  0
  5  1  1  0  0  0  0
  6 16  1  0  0  0  0
  7 24  1  0  0  0  0
  8 11  1  0  0  0  0
  9 10  1  0  0  0  0
 10 16  1  0  0  0  0
 10  1  1  0  0  0  0
 11 54  1  0  0  0  0
 12 36  1  0  0  0  0
 13  9  1  0  0  0  0
 13  6  2  0  0  0  0
 14 15  1  0  0  0  0
 15 13  1  0  0  0  0
 16 22  2  0  0  0  0
 17 15  2  0  0  0  0
 17 39  1  0  0  0  0
 18 17  1  0  0  0  0
 19 20  1  0  0  0  0
 19 18  2  0  0  0  0
 20 14  2  0  0  0  0
 21 25  2  0  0  0  0
 22  7  1  0  0  0  0
 22 21  1  0  0  0  0
 23 38  1  0  0  0  0
 24 40  1  0  0  0  0
 24 23  2  0  0  0  0
 25 52  1  0  0  0  0
 25 23  1  0  0  0  0
 26 12  2  0  0  0  0
 27 53  1  0  0  0  0
 27 30  1  0  0  0  0
 28 26  1  0  0  0  0
 28 34  2  0  0  0  0
 29  4  2  0  0  0  0
 29  8  1  0  0  0  0
 30 29  1  6  0  0  0
 31  5  1  0  0  0  0
 32 37  1  0  0  0  0
 32 31  2  0  0  0  0
 33 11  1  0  0  0  0
 33 26  1  6  0  0  0
 34 35  1  0  0  0  0
 35 36  2  0  0  0  0
 35 45  1  0  0  0  0
 36 47  1  0  0  0  0
 37 27  2  0  0  0  0
 41 21  1  0  0  0  0
 42 19  1  0  0  0  0
 43 28  1  0  0  0  0
 44 32  1  0  0  0  0
 46 37  1  0  0  0  0
 48 34  1  0  0  0  0
 49 18  1  0  0  0  0
 50 20  1  0  0  0  0
 51 31  1  0  0  0  0
M  END
$$$$
