CSD_code = VALQOR | q = 0 | S = 0 | Stoichiometry = C24H37BClP2Rh | MND = 5
 OpenBabel04212202103D

 66 69  0  0  0  0  0  0  0  0999 V2000
    1.5911    7.9084    6.0494 H   0  0  0  0  0  0  0  0  0  0  0  0
    3.2885    6.4187    7.0013 C   0  0  0  0  0  0  0  0  0  0  0  0
    2.8544    7.8263    6.4569 B   0  0  1  0  0  0  0  0  0  0  0  0
    1.1955    8.5847    7.4344 Rh  0  0  2  0  0  0  0  0  0  0  0  0
    0.2925    9.5407    9.2500 Cl  0  0  0  0  0  0  0  0  0  0  0  0
    4.5648    5.8717    6.8499 C   0  0  0  0  0  0  0  0  0  0  0  0
    5.3653    6.4929    6.4771 H   0  0  0  0  0  0  0  0  0  0  0  0
    0.7913    6.4724    8.1406 P   0  0  0  0  0  4  0  0  0  0  0  0
    4.8354    4.5550    7.1782 C   0  0  0  0  0  0  0  0  0  0  0  0
    5.8330    4.1599    7.0486 H   0  0  0  0  0  0  0  0  0  0  0  0
    2.0521   10.5683    6.7873 P   0  0  0  0  0  4  0  0  0  0  0  0
    3.8252    3.7356    7.6530 C   0  0  0  0  0  0  0  0  0  0  0  0
    4.0221    2.6946    7.8663 H   0  0  0  0  0  0  0  0  0  0  0  0
    2.5673    4.2671    7.8870 C   0  0  0  0  0  0  0  0  0  0  0  0
    1.7871    3.6325    8.2815 H   0  0  0  0  0  0  0  0  0  0  0  0
    2.3081    5.5996    7.6065 C   0  0  0  0  0  0  0  0  0  0  0  0
    4.7032    8.4060    4.6616 C   0  0  0  0  0  0  0  0  0  0  0  0
    4.9507    7.3592    4.5612 H   0  0  0  0  0  0  0  0  0  0  0  0
    3.7203    8.7988    5.5686 C   0  0  0  0  0  0  0  0  0  0  0  0
    5.3409    9.3241    3.8440 C   0  0  0  0  0  0  0  0  0  0  0  0
    6.0963    8.9905    3.1466 H   0  0  0  0  0  0  0  0  0  0  0  0
    5.0025   10.6647    3.9041 C   0  0  0  0  0  0  0  0  0  0  0  0
    5.4943   11.3797    3.2599 H   0  0  0  0  0  0  0  0  0  0  0  0
    4.0142   11.0842    4.7792 C   0  0  0  0  0  0  0  0  0  0  0  0
    3.7294   12.1265    4.7978 H   0  0  0  0  0  0  0  0  0  0  0  0
    3.3802   10.1655    5.6014 C   0  0  0  0  0  0  0  0  0  0  0  0
    2.9269   11.5215    8.1244 C   0  0  0  0  0  0  0  0  0  0  0  0
    2.1404   11.7557    8.8524 H   0  0  0  0  0  0  0  0  0  0  0  0
   -0.5088    5.4692    5.9442 C   0  0  0  0  0  0  0  0  0  0  0  0
   -1.3174    4.8923    5.4975 H   0  0  0  0  0  0  0  0  0  0  0  0
    0.4411    5.0518    5.6110 H   0  0  0  0  0  0  0  0  0  0  0  0
   -0.5796    6.4964    5.5820 H   0  0  0  0  0  0  0  0  0  0  0  0
   -1.9167    6.0711    7.9369 C   0  0  0  0  0  0  0  0  0  0  0  0
   -1.9237    7.1350    7.6918 H   0  0  0  0  0  0  0  0  0  0  0  0
   -2.0379    5.9739    9.0139 H   0  0  0  0  0  0  0  0  0  0  0  0
   -2.7687    5.5988    7.4495 H   0  0  0  0  0  0  0  0  0  0  0  0
   -0.6065    5.4473    7.4663 C   0  0  0  0  0  0  0  0  0  0  0  0
   -0.5215    4.4140    7.8198 H   0  0  0  0  0  0  0  0  0  0  0  0
    2.0784    6.7206   10.5428 C   0  0  0  0  0  0  0  0  0  0  0  0
    2.8956    6.0586   10.2584 H   0  0  0  0  0  0  0  0  0  0  0  0
    2.0406    6.7814   11.6288 H   0  0  0  0  0  0  0  0  0  0  0  0
    2.2864    7.7172   10.1498 H   0  0  0  0  0  0  0  0  0  0  0  0
    0.4316    4.8204   10.5182 C   0  0  0  0  0  0  0  0  0  0  0  0
   -0.4851    4.4183   10.0931 H   0  0  0  0  0  0  0  0  0  0  0  0
    0.3012    4.8750   11.5987 H   0  0  0  0  0  0  0  0  0  0  0  0
    1.2483    4.1308   10.3201 H   0  0  0  0  0  0  0  0  0  0  0  0
    0.7490    6.2136    9.9883 C   0  0  0  0  0  0  0  0  0  0  0  0
   -0.0391    6.9066   10.3134 H   0  0  0  0  0  0  0  0  0  0  0  0
    3.9156   10.5561    8.7743 C   0  0  0  0  0  0  0  0  0  0  0  0
    4.7256   10.3148    8.0864 H   0  0  0  0  0  0  0  0  0  0  0  0
    3.4048    9.6272    9.0413 H   0  0  0  0  0  0  0  0  0  0  0  0
    4.3422   10.9900    9.6767 H   0  0  0  0  0  0  0  0  0  0  0  0
    0.9793   11.7943    5.8942 C   0  0  0  0  0  0  0  0  0  0  0  0
    1.5867   12.5807    5.4331 H   0  0  0  0  0  0  0  0  0  0  0  0
    3.6189   12.8032    7.6794 C   0  0  0  0  0  0  0  0  0  0  0  0
    4.4370   12.5809    6.9972 H   0  0  0  0  0  0  0  0  0  0  0  0
    4.0358   13.3107    8.5486 H   0  0  0  0  0  0  0  0  0  0  0  0
    2.9272   13.4867    7.1918 H   0  0  0  0  0  0  0  0  0  0  0  0
   -0.0157   12.4000    6.8783 C   0  0  0  0  0  0  0  0  0  0  0  0
   -0.7841   12.9612    6.3480 H   0  0  0  0  0  0  0  0  0  0  0  0
    0.4774   13.0716    7.5778 H   0  0  0  0  0  0  0  0  0  0  0  0
   -0.4986   11.6083    7.4513 H   0  0  0  0  0  0  0  0  0  0  0  0
    0.2589   10.9980    4.8086 C   0  0  0  0  0  0  0  0  0  0  0  0
   -0.4384   11.6273    4.2576 H   0  0  0  0  0  0  0  0  0  0  0  0
   -0.3030   10.1808    5.2713 H   0  0  0  0  0  0  0  0  0  0  0  0
    0.9734   10.5696    4.1053 H   0  0  0  0  0  0  0  0  0  0  0  0
  2 16  1  0  0  0  0
  3  1  1  6  0  0  0
  3  2  1  0  0  0  0
  3  4  1  0  0  0  0
  4  8  1  0  0  0  0
  4  5  1  1  0  0  0
  6  2  2  0  0  0  0
  6  9  1  0  0  0  0
  7  6  1  0  0  0  0
  8 47  1  0  0  0  0
  9 12  2  0  0  0  0
 10  9  1  0  0  0  0
 11  4  1  0  0  0  0
 11 27  1  0  0  0  0
 12 13  1  0  0  0  0
 12 14  1  0  0  0  0
 14 15  1  0  0  0  0
 16 14  2  0  0  0  0
 16  8  1  0  0  0  0
 17 19  1  0  0  0  0
 18 17  1  0  0  0  0
 19 26  2  0  0  0  0
 19  3  1  0  0  0  0
 20 22  1  0  0  0  0
 20 17  2  0  0  0  0
 21 20  1  0  0  0  0
 22 24  2  0  0  0  0
 23 22  1  0  0  0  0
 24 25  1  0  0  0  0
 24 26  1  0  0  0  0
 26 11  1  0  0  0  0
 27 49  1  0  0  0  0
 27 28  1  0  0  0  0
 29 37  1  0  0  0  0
 30 29  1  0  0  0  0
 31 29  1  0  0  0  0
 32 29  1  0  0  0  0
 33 35  1  0  0  0  0
 34 33  1  0  0  0  0
 36 33  1  0  0  0  0
 37 38  1  0  0  0  0
 37 33  1  0  0  0  0
 37  8  1  0  0  0  0
 39 41  1  0  0  0  0
 40 39  1  0  0  0  0
 42 39  1  0  0  0  0
 43 45  1  0  0  0  0
 44 43  1  0  0  0  0
 46 43  1  0  0  0  0
 47 48  1  0  0  0  0
 47 43  1  0  0  0  0
 47 39  1  0  0  0  0
 49 51  1  0  0  0  0
 49 52  1  0  0  0  0
 50 49  1  0  0  0  0
 53 11  1  0  0  0  0
 53 59  1  0  0  0  0
 54 53  1  0  0  0  0
 55 27  1  0  0  0  0
 55 57  1  0  0  0  0
 56 55  1  0  0  0  0
 58 55  1  0  0  0  0
 59 62  1  0  0  0  0
 59 61  1  0  0  0  0
 60 59  1  0  0  0  0
 63 65  1  0  0  0  0
 63 53  1  0  0  0  0
 64 63  1  0  0  0  0
 66 63  1  0  0  0  0
M  END
$$$$
