CSD_code = VALQIL | q = 0 | S = 0 | Stoichiometry = C24H37BClIrP2 | MND = 5
 OpenBabel04212202103D

 66 69  0  0  0  0  0  0  0  0999 V2000
   12.6538   14.0013   -0.0990 Ir  0  0  0  0  0  0  0  0  0  0  0  0
   13.2408   14.2787    1.2925 H   0  0  0  0  0  0  0  0  0  0  0  0
   10.2380   13.8103    1.8021 C   0  0  0  0  0  0  0  0  0  0  0  0
   12.6894   13.2024   -2.3019 Cl  0  0  0  0  0  0  0  0  0  0  0  0
   10.5739   12.4399    1.8348 C   0  0  0  0  0  0  0  0  0  0  0  0
   11.7859   11.9706    0.5549 P   0  0  0  0  0  4  0  0  0  0  0  0
   12.9847   16.1701   -0.8320 P   0  0  0  0  0  4  0  0  0  0  0  0
    9.1371   12.0762    3.7222 C   0  0  0  0  0  0  0  0  0  0  0  0
    8.7125   11.4117    4.4610 H   0  0  0  0  0  0  0  0  0  0  0  0
   10.0278   11.5866    2.7791 C   0  0  0  0  0  0  0  0  0  0  0  0
   10.3049   10.5421    2.8048 H   0  0  0  0  0  0  0  0  0  0  0  0
   10.4563   16.0993    0.2222 C   0  0  0  0  0  0  0  0  0  0  0  0
   11.3860   16.9503   -0.4108 C   0  0  0  0  0  0  0  0  0  0  0  0
    8.8124   13.4219    3.7258 C   0  0  0  0  0  0  0  0  0  0  0  0
    8.1363   13.8085    4.4752 H   0  0  0  0  0  0  0  0  0  0  0  0
   11.0503   18.2535   -0.7448 C   0  0  0  0  0  0  0  0  0  0  0  0
   11.7858   18.9108   -1.1862 H   0  0  0  0  0  0  0  0  0  0  0  0
   14.2279   17.2927   -0.0127 C   0  0  0  0  0  0  0  0  0  0  0  0
   14.2320   18.2608   -0.5240 H   0  0  0  0  0  0  0  0  0  0  0  0
    9.3575   14.2749    2.7813 C   0  0  0  0  0  0  0  0  0  0  0  0
    9.1192   15.3270    2.8233 H   0  0  0  0  0  0  0  0  0  0  0  0
    9.6065   12.0155   -1.1201 C   0  0  0  0  0  0  0  0  0  0  0  0
    9.0535   11.5908   -1.9565 H   0  0  0  0  0  0  0  0  0  0  0  0
   10.0157   12.9756   -1.4316 H   0  0  0  0  0  0  0  0  0  0  0  0
    8.9150   12.1889   -0.2965 H   0  0  0  0  0  0  0  0  0  0  0  0
   10.7293   11.0729   -0.6948 C   0  0  0  0  0  0  0  0  0  0  0  0
   11.3849   10.9060   -1.5571 H   0  0  0  0  0  0  0  0  0  0  0  0
    9.7686   18.7249   -0.5122 C   0  0  0  0  0  0  0  0  0  0  0  0
    9.5105   19.7423   -0.7692 H   0  0  0  0  0  0  0  0  0  0  0  0
   10.1585    9.7416   -0.2205 C   0  0  0  0  0  0  0  0  0  0  0  0
    9.5278    9.3240   -1.0048 H   0  0  0  0  0  0  0  0  0  0  0  0
    9.5420    9.8812    0.6653 H   0  0  0  0  0  0  0  0  0  0  0  0
   10.9388    9.0162   -0.0022 H   0  0  0  0  0  0  0  0  0  0  0  0
   13.8419   17.5023    1.4465 C   0  0  0  0  0  0  0  0  0  0  0  0
   14.6137   18.0721    1.9616 H   0  0  0  0  0  0  0  0  0  0  0  0
   13.7238   16.5418    1.9441 H   0  0  0  0  0  0  0  0  0  0  0  0
   12.9008   18.0418    1.5255 H   0  0  0  0  0  0  0  0  0  0  0  0
   15.5984   16.6321   -0.1253 C   0  0  0  0  0  0  0  0  0  0  0  0
   16.3688   17.2526    0.3306 H   0  0  0  0  0  0  0  0  0  0  0  0
   15.8686   16.4559   -1.1658 H   0  0  0  0  0  0  0  0  0  0  0  0
   15.5794   15.6713    0.3886 H   0  0  0  0  0  0  0  0  0  0  0  0
    9.1573   16.5875    0.3918 C   0  0  0  0  0  0  0  0  0  0  0  0
    8.3996   15.9383    0.8046 H   0  0  0  0  0  0  0  0  0  0  0  0
    8.8146   17.8769    0.0260 C   0  0  0  0  0  0  0  0  0  0  0  0
    7.8028   18.2287    0.1688 H   0  0  0  0  0  0  0  0  0  0  0  0
   12.8370   10.6483    1.3344 C   0  0  0  0  0  0  0  0  0  0  0  0
   12.2036    9.8156    1.6586 H   0  0  0  0  0  0  0  0  0  0  0  0
   13.5490   11.2403    2.5456 C   0  0  0  0  0  0  0  0  0  0  0  0
   14.1841   10.4922    3.0180 H   0  0  0  0  0  0  0  0  0  0  0  0
   12.8303   11.6032    3.2778 H   0  0  0  0  0  0  0  0  0  0  0  0
   14.1694   12.0805    2.2390 H   0  0  0  0  0  0  0  0  0  0  0  0
   13.8401   10.1647    0.2912 C   0  0  0  0  0  0  0  0  0  0  0  0
   14.5391    9.4520    0.7276 H   0  0  0  0  0  0  0  0  0  0  0  0
   14.4093   11.0110   -0.0931 H   0  0  0  0  0  0  0  0  0  0  0  0
   13.3389    9.6853   -0.5481 H   0  0  0  0  0  0  0  0  0  0  0  0
   13.8229   17.7985   -3.0974 C   0  0  0  0  0  0  0  0  0  0  0  0
   13.8901   17.8175   -4.1850 H   0  0  0  0  0  0  0  0  0  0  0  0
   14.8299   17.9089   -2.7019 H   0  0  0  0  0  0  0  0  0  0  0  0
   13.2268   18.6548   -2.7907 H   0  0  0  0  0  0  0  0  0  0  0  0
   11.8259   16.2957   -3.3539 C   0  0  0  0  0  0  0  0  0  0  0  0
   11.9560   16.2569   -4.4345 H   0  0  0  0  0  0  0  0  0  0  0  0
   11.1469   17.1121   -3.1151 H   0  0  0  0  0  0  0  0  0  0  0  0
   11.3692   15.3613   -3.0345 H   0  0  0  0  0  0  0  0  0  0  0  0
   13.1792   16.4827   -2.6711 C   0  0  0  0  0  0  0  0  0  0  0  0
   13.8312   15.6610   -2.9965 H   0  0  0  0  0  0  0  0  0  0  0  0
   10.9441   14.7058    0.7335 B   0  0  0  0  0  0  0  0  0  0  0  0
  1  6  1  0  0  0  0
  1 66  1  0  0  0  0
  1  2  1  0  0  0  0
  3  5  2  0  0  0  0
  3 20  1  0  0  0  0
  4  1  1  0  0  0  0
  5 10  1  0  0  0  0
  6 46  1  0  0  0  0
  6  5  1  0  0  0  0
  7 13  1  0  0  0  0
  7  1  1  0  0  0  0
  7 18  1  0  0  0  0
  8 14  1  0  0  0  0
  8  9  1  0  0  0  0
 10 11  1  0  0  0  0
 10  8  2  0  0  0  0
 12 42  1  0  0  0  0
 12 66  1  0  0  0  0
 13 12  2  0  0  0  0
 14 15  1  0  0  0  0
 16 28  2  0  0  0  0
 16 13  1  0  0  0  0
 17 16  1  0  0  0  0
 18 34  1  0  0  0  0
 19 18  1  0  0  0  0
 20 21  1  0  0  0  0
 20 14  2  0  0  0  0
 22 26  1  0  0  0  0
 22 25  1  0  0  0  0
 23 22  1  0  0  0  0
 24 22  1  0  0  0  0
 26 30  1  0  0  0  0
 26  6  1  0  0  0  0
 27 26  1  0  0  0  0
 28 44  1  0  0  0  0
 29 28  1  0  0  0  0
 30 33  1  0  0  0  0
 30 32  1  0  0  0  0
 31 30  1  0  0  0  0
 34 37  1  0  0  0  0
 34 36  1  0  0  0  0
 34 35  1  0  0  0  0
 38 18  1  0  0  0  0
 38 39  1  0  0  0  0
 38 41  1  0  0  0  0
 40 38  1  0  0  0  0
 42 43  1  0  0  0  0
 44 45  1  0  0  0  0
 44 42  2  0  0  0  0
 46 47  1  0  0  0  0
 46 48  1  0  0  0  0
 48 49  1  0  0  0  0
 48 50  1  0  0  0  0
 51 48  1  0  0  0  0
 52 53  1  0  0  0  0
 52 46  1  0  0  0  0
 54 52  1  0  0  0  0
 55 52  1  0  0  0  0
 56 59  1  0  0  0  0
 56 58  1  0  0  0  0
 56 64  1  0  0  0  0
 57 56  1  0  0  0  0
 60 62  1  0  0  0  0
 60 63  1  0  0  0  0
 60 64  1  0  0  0  0
 61 60  1  0  0  0  0
 64  7  1  0  0  0  0
 65 64  1  0  0  0  0
 66  3  1  0  0  0  0
M  END
$$$$
