CSD_code = VALREI | q = 0 | S = 0 | Stoichiometry = C24H36BCl2P2Rh | MND = 5
 OpenBabel04212202103D

 66 69  0  0  0  0  0  0  0  0999 V2000
   -0.3702    5.7460    4.0942 Rh  0  0  0  0  0  0  0  0  0  0  0  0
    1.3710    6.1173    5.5432 Cl  0  0  0  0  0  0  0  0  0  0  0  0
   -2.0591    5.1919    2.6419 Cl  0  0  0  0  0  0  0  0  0  0  0  0
    1.1219    6.4349    2.5112 P   0  0  0  0  0  4  0  0  0  0  0  0
   -1.9832    5.4815    5.6864 P   0  0  0  0  0  4  0  0  0  0  0  0
    0.2018    8.6695    3.7526 C   0  0  0  0  0  0  0  0  0  0  0  0
    1.2977    8.1853    3.0055 C   0  0  0  0  0  0  0  0  0  0  0  0
    2.3678    9.0096    2.7021 C   0  0  0  0  0  0  0  0  0  0  0  0
    3.2086    8.6336    2.1390 H   0  0  0  0  0  0  0  0  0  0  0  0
    2.3735   10.3255    3.1381 C   0  0  0  0  0  0  0  0  0  0  0  0
    3.2132   10.9647    2.9062 H   0  0  0  0  0  0  0  0  0  0  0  0
    1.3097   10.8174    3.8761 C   0  0  0  0  0  0  0  0  0  0  0  0
    1.3229   11.8407    4.2225 H   0  0  0  0  0  0  0  0  0  0  0  0
    0.2365    9.9986    4.1794 C   0  0  0  0  0  0  0  0  0  0  0  0
   -0.5785   10.3823    4.7760 H   0  0  0  0  0  0  0  0  0  0  0  0
   -2.3993    7.9085    4.5381 C   0  0  0  0  0  0  0  0  0  0  0  0
   -3.1368    9.0324    4.1608 C   0  0  0  0  0  0  0  0  0  0  0  0
   -2.6552    9.8109    3.5870 H   0  0  0  0  0  0  0  0  0  0  0  0
   -4.4773    9.1474    4.4836 C   0  0  0  0  0  0  0  0  0  0  0  0
   -5.0338   10.0206    4.1755 H   0  0  0  0  0  0  0  0  0  0  0  0
   -5.1112    8.1403    5.1923 C   0  0  0  0  0  0  0  0  0  0  0  0
   -6.1592    8.2292    5.4396 H   0  0  0  0  0  0  0  0  0  0  0  0
   -4.4051    7.0118    5.5790 C   0  0  0  0  0  0  0  0  0  0  0  0
   -4.9132    6.2273    6.1193 H   0  0  0  0  0  0  0  0  0  0  0  0
   -3.0644    6.8904    5.2556 C   0  0  0  0  0  0  0  0  0  0  0  0
    0.7273    6.6286    0.7005 C   0  0  0  0  0  0  0  0  0  0  0  0
    1.6155    7.0598    0.2207 H   0  0  0  0  0  0  0  0  0  0  0  0
    0.3988    5.2723    0.0857 C   0  0  0  0  0  0  0  0  0  0  0  0
    1.2354    4.5809    0.1617 H   0  0  0  0  0  0  0  0  0  0  0  0
    0.1495    5.3877   -0.9682 H   0  0  0  0  0  0  0  0  0  0  0  0
   -0.4595    4.8386    0.5950 H   0  0  0  0  0  0  0  0  0  0  0  0
   -0.4467    7.5883    0.5343 C   0  0  0  0  0  0  0  0  0  0  0  0
   -1.3092    7.2254    1.0907 H   0  0  0  0  0  0  0  0  0  0  0  0
   -0.7226    7.6575   -0.5167 H   0  0  0  0  0  0  0  0  0  0  0  0
   -0.1965    8.5859    0.8916 H   0  0  0  0  0  0  0  0  0  0  0  0
    2.8192    5.6594    2.6019 C   0  0  0  0  0  0  0  0  0  0  0  0
    3.2776    6.1285    3.4819 H   0  0  0  0  0  0  0  0  0  0  0  0
    2.6202    4.1706    2.8979 C   0  0  0  0  0  0  0  0  0  0  0  0
    1.9632    4.0402    3.7627 H   0  0  0  0  0  0  0  0  0  0  0  0
    3.5733    3.6951    3.1242 H   0  0  0  0  0  0  0  0  0  0  0  0
    2.1728    3.6582    2.0472 H   0  0  0  0  0  0  0  0  0  0  0  0
    3.7336    5.8497    1.3966 C   0  0  0  0  0  0  0  0  0  0  0  0
    3.3479    5.3336    0.5204 H   0  0  0  0  0  0  0  0  0  0  0  0
    4.7132    5.4314    1.6259 H   0  0  0  0  0  0  0  0  0  0  0  0
    3.8705    6.8985    1.1453 H   0  0  0  0  0  0  0  0  0  0  0  0
   -3.0141    3.9293    5.5504 C   0  0  0  0  0  0  0  0  0  0  0  0
   -3.6614    4.1166    4.6841 H   0  0  0  0  0  0  0  0  0  0  0  0
   -3.8766    3.5626    6.7533 C   0  0  0  0  0  0  0  0  0  0  0  0
   -3.2659    3.2965    7.6130 H   0  0  0  0  0  0  0  0  0  0  0  0
   -4.4896    2.6984    6.4991 H   0  0  0  0  0  0  0  0  0  0  0  0
   -4.5443    4.3703    7.0426 H   0  0  0  0  0  0  0  0  0  0  0  0
   -2.0609    2.7833    5.2013 C   0  0  0  0  0  0  0  0  0  0  0  0
   -1.4441    3.0522    4.3388 H   0  0  0  0  0  0  0  0  0  0  0  0
   -2.6206    1.8843    4.9480 H   0  0  0  0  0  0  0  0  0  0  0  0
   -1.4007    2.5543    6.0367 H   0  0  0  0  0  0  0  0  0  0  0  0
   -1.7310    5.7880    7.5070 C   0  0  0  0  0  0  0  0  0  0  0  0
   -2.7073    5.6658    7.9935 H   0  0  0  0  0  0  0  0  0  0  0  0
   -1.2410    7.2168    7.7203 C   0  0  0  0  0  0  0  0  0  0  0  0
   -0.3226    7.3857    7.1608 H   0  0  0  0  0  0  0  0  0  0  0  0
   -1.0334    7.3834    8.7761 H   0  0  0  0  0  0  0  0  0  0  0  0
   -1.9847    7.9431    7.3964 H   0  0  0  0  0  0  0  0  0  0  0  0
   -0.7276    4.7899    8.0745 C   0  0  0  0  0  0  0  0  0  0  0  0
   -1.0724    3.7637    7.9654 H   0  0  0  0  0  0  0  0  0  0  0  0
   -0.5650    4.9817    9.1342 H   0  0  0  0  0  0  0  0  0  0  0  0
    0.2243    4.8947    7.5578 H   0  0  0  0  0  0  0  0  0  0  0  0
   -0.9230    7.6754    4.1329 B   0  0  0  0  0  0  0  0  0  0  0  0
  1 66  1  0  0  0  0
  1  2  1  0  0  0  0
  1  5  1  0  0  0  0
  3  1  1  0  0  0  0
  4 36  1  0  0  0  0
  4  7  1  0  0  0  0
  4  1  1  0  0  0  0
  5 56  1  0  0  0  0
  6 66  1  0  0  0  0
  6 14  1  0  0  0  0
  7  6  2  0  0  0  0
  8  7  1  0  0  0  0
  8 10  2  0  0  0  0
  9  8  1  0  0  0  0
 10 12  1  0  0  0  0
 11 10  1  0  0  0  0
 12 14  2  0  0  0  0
 12 13  1  0  0  0  0
 14 15  1  0  0  0  0
 16 25  1  0  0  0  0
 17 19  1  0  0  0  0
 17 16  2  0  0  0  0
 18 17  1  0  0  0  0
 19 21  2  0  0  0  0
 20 19  1  0  0  0  0
 21 22  1  0  0  0  0
 21 23  1  0  0  0  0
 23 24  1  0  0  0  0
 25 23  2  0  0  0  0
 25  5  1  0  0  0  0
 26  4  1  0  0  0  0
 27 26  1  0  0  0  0
 28 29  1  0  0  0  0
 28 31  1  0  0  0  0
 28 26  1  0  0  0  0
 30 28  1  0  0  0  0
 32 26  1  0  0  0  0
 32 35  1  0  0  0  0
 32 33  1  0  0  0  0
 34 32  1  0  0  0  0
 36 38  1  0  0  0  0
 36 37  1  0  0  0  0
 38 40  1  0  0  0  0
 38 39  1  0  0  0  0
 41 38  1  0  0  0  0
 42 44  1  0  0  0  0
 42 36  1  0  0  0  0
 43 42  1  0  0  0  0
 45 42  1  0  0  0  0
 46  5  1  0  0  0  0
 46 48  1  0  0  0  0
 47 46  1  0  0  0  0
 48 51  1  0  0  0  0
 48 49  1  0  0  0  0
 50 48  1  0  0  0  0
 52 46  1  0  0  0  0
 52 55  1  0  0  0  0
 53 52  1  0  0  0  0
 54 52  1  0  0  0  0
 56 58  1  0  0  0  0
 56 57  1  0  0  0  0
 56 62  1  0  0  0  0
 58 60  1  0  0  0  0
 59 58  1  0  0  0  0
 61 58  1  0  0  0  0
 62 64  1  0  0  0  0
 63 62  1  0  0  0  0
 65 62  1  0  0  0  0
 66 16  1  0  0  0  0
M  END
$$$$
