CSD_code = VAMTUB | q = 0 | S = 0 | Stoichiometry = C22H16Cl2N2Pt | MND = 4
 OpenBabel04212202103D

 43 47  0  0  0  0  0  0  0  0999 V2000
    2.0184    8.5539   30.6094 C   0  0  0  0  0  0  0  0  0  0  0  0
    2.5944    8.6756   29.7005 H   0  0  0  0  0  0  0  0  0  0  0  0
    2.3044    9.2705   31.7500 C   0  0  0  0  0  0  0  0  0  0  0  0
    3.1328    9.9600   31.7531 H   0  0  0  0  0  0  0  0  0  0  0  0
    1.5316    9.0803   32.9013 C   0  0  0  0  0  0  0  0  0  0  0  0
    1.7929    9.8316   34.1327 C   0  0  0  0  0  0  0  0  0  0  0  0
    2.1695   11.1725   34.0733 C   0  0  0  0  0  0  0  0  0  0  0  0
    2.2466   11.6638   33.1149 H   0  0  0  0  0  0  0  0  0  0  0  0
    2.4118   11.8842   35.2329 C   0  0  0  0  0  0  0  0  0  0  0  0
    2.6958   12.9243   35.1737 H   0  0  0  0  0  0  0  0  0  0  0  0
    2.2912   11.2673   36.4674 C   0  0  0  0  0  0  0  0  0  0  0  0
    2.4847   11.8235   37.3721 H   0  0  0  0  0  0  0  0  0  0  0  0
    1.9228    9.9339   36.5369 C   0  0  0  0  0  0  0  0  0  0  0  0
    1.8333    9.4472   37.4968 H   0  0  0  0  0  0  0  0  0  0  0  0
    1.6707    9.2209   35.3799 C   0  0  0  0  0  0  0  0  0  0  0  0
    1.4060    8.1754   35.4410 H   0  0  0  0  0  0  0  0  0  0  0  0
    0.5001    8.1492   32.8259 C   0  0  0  0  0  0  0  0  0  0  0  0
   -0.1309    7.9855   33.6842 H   0  0  0  0  0  0  0  0  0  0  0  0
    0.2630    7.4548   31.6451 C   0  0  0  0  0  0  0  0  0  0  0  0
   -0.7944    6.4622   31.4734 C   0  0  0  0  0  0  0  0  0  0  0  0
   -1.6641    6.0632   32.4818 C   0  0  0  0  0  0  0  0  0  0  0  0
   -1.5735    6.4832   33.4702 H   0  0  0  0  0  0  0  0  0  0  0  0
   -2.6359    5.0984   32.2340 C   0  0  0  0  0  0  0  0  0  0  0  0
   -3.5525    4.6520   33.2875 C   0  0  0  0  0  0  0  0  0  0  0  0
   -4.0736    5.5578   34.2101 C   0  0  0  0  0  0  0  0  0  0  0  0
   -3.8227    6.6056   34.1326 H   0  0  0  0  0  0  0  0  0  0  0  0
   -4.9387    5.1304   35.1997 C   0  0  0  0  0  0  0  0  0  0  0  0
   -5.3426    5.8432   35.9032 H   0  0  0  0  0  0  0  0  0  0  0  0
   -5.2884    3.7930   35.2895 C   0  0  0  0  0  0  0  0  0  0  0  0
   -5.9609    3.4602   36.0656 H   0  0  0  0  0  0  0  0  0  0  0  0
   -4.7728    2.8844   34.3797 C   0  0  0  0  0  0  0  0  0  0  0  0
   -5.0399    1.8404   34.4476 H   0  0  0  0  0  0  0  0  0  0  0  0
   -3.9156    3.3093   33.3824 C   0  0  0  0  0  0  0  0  0  0  0  0
   -3.5018    2.5936   32.6877 H   0  0  0  0  0  0  0  0  0  0  0  0
   -2.6942    4.5697   30.9395 C   0  0  0  0  0  0  0  0  0  0  0  0
   -3.4398    3.8360   30.6798 H   0  0  0  0  0  0  0  0  0  0  0  0
   -1.8057    5.0071   29.9826 C   0  0  0  0  0  0  0  0  0  0  0  0
   -1.8228    4.6217   28.9706 H   0  0  0  0  0  0  0  0  0  0  0  0
    1.0226    7.6689   30.5451 N   0  0  0  0  0  0  0  0  0  0  0  0
   -0.8718    5.9260   30.2326 N   0  0  0  0  0  0  0  0  0  0  0  0
    0.4893    6.6062   28.9477 Pt  0  0  0  0  0  0  0  0  0  0  0  0
    2.0793    7.4473   27.6174 Cl  0  0  0  0  0  0  0  0  0  0  0  0
   -0.2272    5.3579   27.2348 Cl  0  0  0  0  0  0  0  0  0  0  0  0
  1  3  2  0  0  0  0
  2  1  1  0  0  0  0
  3  4  1  0  0  0  0
  3  5  1  0  0  0  0
  5  6  1  0  0  0  0
  6 15  1  0  0  0  0
  7  6  2  0  0  0  0
  7  9  1  0  0  0  0
  8  7  1  0  0  0  0
  9 11  2  0  0  0  0
 10  9  1  0  0  0  0
 11 13  1  0  0  0  0
 11 12  1  0  0  0  0
 13 14  1  0  0  0  0
 15 16  1  0  0  0  0
 15 13  2  0  0  0  0
 17  5  2  0  0  0  0
 17 18  1  0  0  0  0
 19 17  1  0  0  0  0
 20 19  2  0  0  0  0
 20 21  1  0  0  0  0
 21 22  1  0  0  0  0
 23 21  2  0  0  0  0
 23 24  1  0  0  0  0
 24 33  2  0  0  0  0
 24 25  1  0  0  0  0
 25 27  2  0  0  0  0
 26 25  1  0  0  0  0
 27 29  1  0  0  0  0
 27 28  1  0  0  0  0
 29 30  1  0  0  0  0
 31 32  1  0  0  0  0
 31 29  2  0  0  0  0
 33 31  1  0  0  0  0
 34 33  1  0  0  0  0
 35 23  1  0  0  0  0
 36 35  1  0  0  0  0
 37 40  1  0  0  0  0
 37 35  2  0  0  0  0
 38 37  1  0  0  0  0
 39  1  1  0  0  0  0
 39 19  1  0  0  0  0
 40 20  1  0  0  0  0
 41 40  1  0  0  0  0
 41 39  1  0  0  0  0
 42 41  1  0  0  0  0
 43 41  1  0  0  0  0
M  END
$$$$
