CSD_code = VAMYOZ | q = 0 | S = 0 | Stoichiometry = C15H16Cl2N4OPt | MND = 6
 OpenBabel04212202103D

 39 42  0  0  0  0  0  0  0  0999 V2000
    4.7212    0.7911    2.2234 Pt  0  0  0  0  0  0  0  0  0  0  0  0
    5.7223    3.2530    0.6161 Cl  0  0  0  0  0  0  0  0  0  0  0  0
    3.1970   -1.1440    2.0561 Cl  0  0  0  0  0  0  0  0  0  0  0  0
    4.6741    0.4385   -0.0011 N   0  0  0  0  0  0  0  0  0  0  0  0
    2.5104    1.2396    0.5240 C   0  0  0  0  0  0  0  0  0  0  0  0
    2.8679    1.8234    1.6440 N   0  0  0  0  0  0  0  0  0  0  0  0
    0.8021    2.1539    1.3459 C   0  0  0  0  0  0  0  0  0  0  0  0
    4.4390    0.9857    4.2453 C   0  0  0  0  0  0  0  0  0  0  0  0
    5.2840    1.4094    4.7875 H   0  0  0  0  0  0  0  0  0  0  0  0
    4.2082   -0.0004    4.6491 H   0  0  0  0  0  0  0  0  0  0  0  0
    3.5680    1.6339    4.3662 H   0  0  0  0  0  0  0  0  0  0  0  0
    5.8378    2.5272    2.2279 C   0  0  0  0  0  0  0  0  0  0  0  0
    5.4144    3.2619    2.9176 H   0  0  0  0  0  0  0  0  0  0  0  0
    6.9031    2.4055    2.4340 H   0  0  0  0  0  0  0  0  0  0  0  0
    3.3940    0.5386   -0.3819 C   0  0  0  0  0  0  0  0  0  0  0  0
    1.7866    2.3946    2.1661 N   0  0  0  0  0  0  0  0  0  0  0  0
    1.2143    1.4374    0.2788 O   0  0  0  0  0  0  0  0  0  0  0  0
   -0.5736    2.5759    1.5045 C   0  0  0  0  0  0  0  0  0  0  0  0
   -1.4058    2.3058    0.5022 N   0  0  0  0  0  0  0  0  0  0  0  0
   -2.6644    2.6745    0.6262 C   0  0  0  0  0  0  0  0  0  0  0  0
   -3.3023    2.4338   -0.2135 H   0  0  0  0  0  0  0  0  0  0  0  0
   -3.1627    3.3300    1.7452 C   0  0  0  0  0  0  0  0  0  0  0  0
   -4.2031    3.6098    1.7974 H   0  0  0  0  0  0  0  0  0  0  0  0
   -2.2912    3.6135    2.7868 C   0  0  0  0  0  0  0  0  0  0  0  0
   -2.6400    4.1216    3.6736 H   0  0  0  0  0  0  0  0  0  0  0  0
   -0.9663    3.2323    2.6726 C   0  0  0  0  0  0  0  0  0  0  0  0
   -0.2406    3.4202    3.4462 H   0  0  0  0  0  0  0  0  0  0  0  0
    2.9232    0.0216   -1.5859 C   0  0  0  0  0  0  0  0  0  0  0  0
    1.8807    0.1275   -1.8403 H   0  0  0  0  0  0  0  0  0  0  0  0
    3.8171   -0.6374   -2.4110 C   0  0  0  0  0  0  0  0  0  0  0  0
    3.4844   -1.0661   -3.3441 H   0  0  0  0  0  0  0  0  0  0  0  0
    5.1419   -0.7367   -2.0156 C   0  0  0  0  0  0  0  0  0  0  0  0
    5.8701   -1.2427   -2.6290 H   0  0  0  0  0  0  0  0  0  0  0  0
    5.5217   -0.1804   -0.8021 C   0  0  0  0  0  0  0  0  0  0  0  0
    6.5467   -0.2359   -0.4622 H   0  0  0  0  0  0  0  0  0  0  0  0
    6.3870   -0.3506    2.5733 C   0  0  0  0  0  0  0  0  0  0  0  0
    7.1746   -0.0835    1.8644 H   0  0  0  0  0  0  0  0  0  0  0  0
    6.0960   -1.3894    2.4069 H   0  0  0  0  0  0  0  0  0  0  0  0
    6.7882   -0.2605    3.5826 H   0  0  0  0  0  0  0  0  0  0  0  0
  1 12  1  0  0  0  0
  1 36  1  0  0  0  0
  1  8  1  0  0  0  0
  2 12  1  0  0  0  0
  3  1  1  0  0  0  0
  4  1  1  0  0  0  0
  5  6  1  0  0  0  0
  6 16  1  0  0  0  0
  6  1  1  0  0  0  0
  7 18  1  0  0  0  0
  7 16  2  0  0  0  0
  8 11  1  0  0  0  0
  8 10  1  0  0  0  0
  8  9  1  0  0  0  0
 12 14  1  0  0  0  0
 12 13  1  0  0  0  0
 15  4  1  0  0  0  0
 15  5  2  0  0  0  0
 17  5  1  0  0  0  0
 17  7  1  0  0  0  0
 18 26  1  0  0  0  0
 19 20  1  0  0  0  0
 19 18  2  0  0  0  0
 20 22  2  0  0  0  0
 21 20  1  0  0  0  0
 22 23  1  0  0  0  0
 22 24  1  0  0  0  0
 24 25  1  0  0  0  0
 26 24  2  0  0  0  0
 26 27  1  0  0  0  0
 28 15  1  0  0  0  0
 29 28  1  0  0  0  0
 30 32  1  0  0  0  0
 30 28  2  0  0  0  0
 31 30  1  0  0  0  0
 32 34  2  0  0  0  0
 33 32  1  0  0  0  0
 34 35  1  0  0  0  0
 34  4  1  0  0  0  0
 36 39  1  0  0  0  0
 37 36  1  0  0  0  0
 38 36  1  0  0  0  0
M  END
$$$$
