CSD_code = VANBOC | q = 0 | S = 0 | Stoichiometry = C21H20BClN8Ru | MND = 6
 OpenBabel04212202103D

 52 59  0  0  1  0  0  0  0  0999 V2000
    1.1090    2.9450    8.0302 Ru  0  0  0  0  0  0  0  0  0  0  0  0
    2.8751    4.0306    9.1513 Cl  0  0  0  0  0  0  0  0  0  0  0  0
   -1.3511    4.2439    9.1173 N   0  0  0  0  0  0  0  0  0  0  0  0
   -0.1365    4.5206    8.6343 N   0  0  1  0  0  0  0  0  0  0  0  0
   -0.7856    2.0707   10.1016 N   0  0  0  0  0  0  0  0  0  0  0  0
    0.5094    2.0975    9.7744 N   0  0  2  0  0  0  0  0  0  0  0  0
   -1.7159    2.1839    7.8106 N   0  0  0  0  0  0  0  0  0  0  0  0
   -0.5511    2.1736    7.1634 N   0  0  1  0  0  0  0  0  0  0  0  0
    1.8267    3.7833    6.3626 N   0  0  0  0  0  0  0  0  0  0  0  0
    3.2526    2.0164    6.5723 N   0  0  0  0  0  0  0  0  0  0  0  0
    4.0787    1.4908    6.3001 H   0  0  0  0  0  0  0  0  0  0  0  0
   -1.8209    2.7855    9.2224 B   0  0  2  0  0  0  0  0  0  0  0  0
   -2.9156    2.6986    9.6568 H   0  0  0  0  0  0  0  0  0  0  0  0
    0.0580    5.8248    8.7470 C   0  0  0  0  0  3  0  0  0  0  0  0
    0.9837    6.2768    8.4435 H   0  0  0  0  0  0  0  0  0  0  0  0
   -1.0695    6.4202    9.3144 C   0  0  0  0  0  0  0  0  0  0  0  0
   -1.2196    7.4570    9.5343 H   0  0  0  0  0  0  0  0  0  0  0  0
   -1.9402    5.3744    9.5347 C   0  0  0  0  0  0  0  0  0  0  0  0
   -2.9251    5.3641    9.9562 H   0  0  0  0  0  0  0  0  0  0  0  0
    1.1921    1.5289   10.7558 C   0  0  0  0  0  3  0  0  0  0  0  0
    2.2621    1.4512   10.7173 H   0  0  0  0  0  0  0  0  0  0  0  0
    0.3112    1.1118   11.7546 C   0  0  0  0  0  0  0  0  0  0  0  0
    0.5540    0.6202   12.6738 H   0  0  0  0  0  0  0  0  0  0  0  0
   -0.9354    1.4782   11.2973 C   0  0  0  0  0  0  0  0  0  0  0  0
   -1.9036    1.3588   11.7400 H   0  0  0  0  0  0  0  0  0  0  0  0
   -0.7527    1.6284    5.9693 C   0  0  0  0  0  3  0  0  0  0  0  0
    0.0544    1.5075    5.2689 H   0  0  0  0  0  0  0  0  0  0  0  0
   -2.0953    1.2729    5.8397 C   0  0  0  0  0  0  0  0  0  0  0  0
   -2.5708    0.8125    4.9985 H   0  0  0  0  0  0  0  0  0  0  0  0
   -2.6705    1.6462    7.0358 C   0  0  0  0  0  0  0  0  0  0  0  0
   -3.6821    1.5635    7.3767 H   0  0  0  0  0  0  0  0  0  0  0  0
    1.4397    4.9040    5.7520 C   0  0  0  0  0  3  0  0  0  0  0  0
    0.5034    5.3314    6.0873 H   0  0  0  0  0  0  0  0  0  0  0  0
    2.1723    5.5070    4.7493 C   0  0  0  0  0  0  0  0  0  0  0  0
    1.8163    6.4171    4.2947 H   0  0  0  0  0  0  0  0  0  0  0  0
    3.3743    4.9317    4.3489 C   0  0  0  0  0  0  0  0  0  0  0  0
    3.9768    5.3895    3.5803 H   0  0  0  0  0  0  0  0  0  0  0  0
    3.7796    3.7575    4.9532 C   0  0  0  0  0  0  0  0  0  0  0  0
    4.7017    3.2707    4.6759 H   0  0  0  0  0  0  0  0  0  0  0  0
    2.9803    3.2102    5.9535 C   0  0  0  0  0  0  0  0  0  0  0  0
    2.3779    1.5861    7.5096 C   0  0  1  0  0  3  0  0  0  0  0  0
    2.6600    0.2922    8.1010 C   0  0  0  0  0  0  0  0  0  0  0  0
    3.9612   -0.1172    8.4122 C   0  0  0  0  0  0  0  0  0  0  0  0
    4.7948    0.5410    8.2097 H   0  0  0  0  0  0  0  0  0  0  0  0
    4.1838   -1.3260    9.0430 C   0  0  0  0  0  0  0  0  0  0  0  0
    5.1921   -1.6217    9.2947 H   0  0  0  0  0  0  0  0  0  0  0  0
    3.1207   -2.1576    9.3556 C   0  0  0  0  0  0  0  0  0  0  0  0
    3.2998   -3.1033    9.8454 H   0  0  0  0  0  0  0  0  0  0  0  0
    1.8261   -1.7679    9.0461 C   0  0  0  0  0  0  0  0  0  0  0  0
    0.9958   -2.4137    9.2915 H   0  0  0  0  0  0  0  0  0  0  0  0
    1.5953   -0.5525    8.4355 C   0  0  0  0  0  0  0  0  0  0  0  0
    0.5890   -0.2437    8.1878 H   0  0  0  0  0  0  0  0  0  0  0  0
  1  4  1  0  0  0  0
  1  2  1  0  0  0  0
  1  6  1  0  0  0  0
  3 12  1  0  0  0  0
  3 18  1  0  0  0  0
  4 14  1  1  0  0  0
  4  3  1  0  0  0  0
  5 24  1  0  0  0  0
  6  5  1  0  0  0  0
  6 20  1  1  0  0  0
  7 12  1  0  0  0  0
  8 26  1  6  0  0  0
  8  7  1  0  0  0  0
  8  1  1  0  0  0  0
  9  1  1  0  0  0  0
 10 41  1  0  0  0  0
 11 10  1  0  0  0  0
 12 13  1  1  0  0  0
 12  5  1  0  0  0  0
 14 16  1  0  0  0  0
 15 14  1  0  0  0  0
 16 17  1  0  0  0  0
 16 18  2  0  0  0  0
 18 19  1  0  0  0  0
 20 22  1  0  0  0  0
 21 20  1  0  0  0  0
 22 23  1  0  0  0  0
 24 25  1  0  0  0  0
 24 22  2  0  0  0  0
 27 26  1  0  0  0  0
 28 26  1  0  0  0  0
 28 30  2  0  0  0  0
 29 28  1  0  0  0  0
 30 31  1  0  0  0  0
 30  7  1  0  0  0  0
 32 33  1  0  0  0  0
 32  9  1  0  0  0  0
 34 32  1  0  0  0  0
 35 34  1  0  0  0  0
 36 34  2  0  0  0  0
 36 38  1  0  0  0  0
 37 36  1  0  0  0  0
 38 40  2  0  0  0  0
 39 38  1  0  0  0  0
 40  9  1  0  0  0  0
 40 10  1  0  0  0  0
 41  1  1  0  0  0  0
 41 42  1  1  0  0  0
 42 43  2  0  0  0  0
 42 51  1  0  0  0  0
 43 45  1  0  0  0  0
 44 43  1  0  0  0  0
 45 46  1  0  0  0  0
 45 47  2  0  0  0  0
 47 48  1  0  0  0  0
 49 50  1  0  0  0  0
 49 47  1  0  0  0  0
 51 49  2  0  0  0  0
 52 51  1  0  0  0  0
M  END
$$$$
