CSD_code = VANFOH | q = 0 | S = 0 | Stoichiometry = C28H27ClNPPd | MND = 4
 OpenBabel04212202103D

 59 63  0  0  0  0  0  0  0  0999 V2000
    6.6651    6.3697    5.9527 Pd  0  0  1  0  0  0  0  0  0  0  0  0
    6.0321    4.2744    6.5423 Cl  0  0  0  0  0  0  0  0  0  0  0  0
    7.8167    8.2644    5.6922 P   0  0  0  0  0  4  0  0  0  0  0  0
    8.0953    5.5914    4.4702 N   0  0  0  0  0  0  0  0  0  0  0  0
    5.1729    7.0723    7.1699 C   0  0  0  0  0  0  0  0  0  0  0  0
    5.1242    8.1675    7.2044 H   0  0  0  0  0  0  0  0  0  0  0  0
    5.2891    6.6927    8.1909 H   0  0  0  0  0  0  0  0  0  0  0  0
    4.2306    6.6829    6.7639 H   0  0  0  0  0  0  0  0  0  0  0  0
    7.3186    4.8411    3.5186 C   0  0  0  0  0  0  0  0  0  0  0  0
    6.7870    4.0474    4.0594 H   0  0  0  0  0  0  0  0  0  0  0  0
    7.9462    4.4148    2.7210 H   0  0  0  0  0  0  0  0  0  0  0  0
    6.3327    5.8507    2.9642 C   0  0  0  0  0  0  0  0  0  0  0  0
    6.6915    6.6641    1.8985 C   0  0  0  0  0  0  0  0  0  0  0  0
    7.6534    6.5339    1.4211 H   0  0  0  0  0  0  0  0  0  0  0  0
    5.8218    7.6337    1.4316 C   0  0  0  0  0  0  0  0  0  0  0  0
    6.1107    8.2481    0.5909 H   0  0  0  0  0  0  0  0  0  0  0  0
    4.5878    7.8296    2.0355 C   0  0  0  0  0  0  0  0  0  0  0  0
    4.2386    7.0254    3.1155 C   0  0  0  0  0  0  0  0  0  0  0  0
    3.2749    7.1599    3.5861 H   0  0  0  0  0  0  0  0  0  0  0  0
    5.0954    6.0419    3.5839 C   0  0  0  0  0  0  0  0  0  0  0  0
    4.7682    5.3661    4.3737 H   0  0  0  0  0  0  0  0  0  0  0  0
    3.6273    8.8529    1.5113 C   0  0  0  0  0  0  0  0  0  0  0  0
    3.1234    9.3644    2.3285 H   0  0  0  0  0  0  0  0  0  0  0  0
    2.8643    8.3657    0.9033 H   0  0  0  0  0  0  0  0  0  0  0  0
    4.1383    9.5854    0.8914 H   0  0  0  0  0  0  0  0  0  0  0  0
    9.3172    5.8365    4.2512 C   0  0  0  0  0  3  0  0  0  0  0  0
    9.8357    5.3626    3.4063 H   0  0  0  0  0  0  0  0  0  0  0  0
   10.1341    6.7399    5.0500 C   0  0  0  0  0  0  0  0  0  0  0  0
   11.5093    6.5024    5.0872 C   0  0  0  0  0  0  0  0  0  0  0  0
   11.9041    5.6414    4.5661 H   0  0  0  0  0  0  0  0  0  0  0  0
   12.3601    7.3308    5.7910 C   0  0  0  0  0  0  0  0  0  0  0  0
   13.4182    7.1190    5.8230 H   0  0  0  0  0  0  0  0  0  0  0  0
   11.8466    8.4396    6.4433 C   0  0  0  0  0  0  0  0  0  0  0  0
   12.5024    9.1044    6.9853 H   0  0  0  0  0  0  0  0  0  0  0  0
   10.4891    8.7029    6.3948 C   0  0  0  0  0  0  0  0  0  0  0  0
   10.1043    9.5801    6.8947 H   0  0  0  0  0  0  0  0  0  0  0  0
    9.6104    7.8626    5.7168 C   0  0  0  0  0  0  0  0  0  0  0  0
    7.6504    9.3285    4.2312 C   0  0  0  0  0  0  0  0  0  0  0  0
    8.6507    9.5158    3.2856 C   0  0  0  0  0  0  0  0  0  0  0  0
    9.6173    9.0496    3.4193 H   0  0  0  0  0  0  0  0  0  0  0  0
    8.4093   10.3075    2.1761 C   0  0  0  0  0  0  0  0  0  0  0  0
    9.1880   10.4507    1.4409 H   0  0  0  0  0  0  0  0  0  0  0  0
    7.1794   10.9208    2.0105 C   0  0  0  0  0  0  0  0  0  0  0  0
    7.0009   11.5461    1.1480 H   0  0  0  0  0  0  0  0  0  0  0  0
    6.1755   10.7293    2.9479 C   0  0  0  0  0  0  0  0  0  0  0  0
    5.2161   11.2072    2.8184 H   0  0  0  0  0  0  0  0  0  0  0  0
    6.4034    9.9217    4.0436 C   0  0  0  0  0  0  0  0  0  0  0  0
    5.6226    9.7364    4.7711 H   0  0  0  0  0  0  0  0  0  0  0  0
    7.7089    9.4038    7.1058 C   0  0  0  0  0  0  0  0  0  0  0  0
    7.6166   10.7872    7.0279 C   0  0  0  0  0  0  0  0  0  0  0  0
    7.6105   11.2780    6.0644 H   0  0  0  0  0  0  0  0  0  0  0  0
    7.5316   11.5339    8.1918 C   0  0  0  0  0  0  0  0  0  0  0  0
    7.4554   12.6099    8.1321 H   0  0  0  0  0  0  0  0  0  0  0  0
    7.5452   10.9082    9.4269 C   0  0  0  0  0  0  0  0  0  0  0  0
    7.4777   11.4978   10.3292 H   0  0  0  0  0  0  0  0  0  0  0  0
    7.6387    9.5262    9.5075 C   0  0  0  0  0  0  0  0  0  0  0  0
    7.6440    9.0398   10.4716 H   0  0  0  0  0  0  0  0  0  0  0  0
    7.7138    8.7756    8.3512 C   0  0  0  0  0  0  0  0  0  0  0  0
    7.7648    7.6873    8.3866 H   0  0  0  0  0  0  0  0  0  0  0  0
  1  2  1  1  0  0  0
  1  5  1  0  0  0  0
  3 37  1  0  0  0  0
  3  1  1  0  0  0  0
  3 49  1  0  0  0  0
  4  1  1  0  0  0  0
  5  6  1  0  0  0  0
  5  7  1  0  0  0  0
  8  5  1  0  0  0  0
  9 10  1  0  0  0  0
  9  4  1  0  0  0  0
 11  9  1  0  0  0  0
 12  9  1  0  0  0  0
 12 20  1  0  0  0  0
 13 12  2  0  0  0  0
 14 13  1  0  0  0  0
 15 13  1  0  0  0  0
 15 17  2  0  0  0  0
 16 15  1  0  0  0  0
 17 18  1  0  0  0  0
 18 20  2  0  0  0  0
 18 19  1  0  0  0  0
 20 21  1  0  0  0  0
 22 17  1  0  0  0  0
 22 23  1  0  0  0  0
 24 22  1  0  0  0  0
 25 22  1  0  0  0  0
 26  4  1  0  0  0  0
 26 28  1  0  0  0  0
 27 26  1  0  0  0  0
 28 29  2  0  0  0  0
 28 37  1  0  0  0  0
 29 31  1  0  0  0  0
 30 29  1  0  0  0  0
 31 32  1  0  0  0  0
 31 33  2  0  0  0  0
 33 34  1  0  0  0  0
 35 33  1  0  0  0  0
 35 36  1  0  0  0  0
 37 35  2  0  0  0  0
 38  3  1  0  0  0  0
 39 40  1  0  0  0  0
 39 38  2  0  0  0  0
 41 39  1  0  0  0  0
 42 41  1  0  0  0  0
 43 41  2  0  0  0  0
 43 45  1  0  0  0  0
 44 43  1  0  0  0  0
 45 47  2  0  0  0  0
 46 45  1  0  0  0  0
 47 38  1  0  0  0  0
 47 48  1  0  0  0  0
 49 58  1  0  0  0  0
 50 49  2  0  0  0  0
 50 52  1  0  0  0  0
 51 50  1  0  0  0  0
 52 54  2  0  0  0  0
 53 52  1  0  0  0  0
 54 56  1  0  0  0  0
 54 55  1  0  0  0  0
 56 57  1  0  0  0  0
 58 59  1  0  0  0  0
 58 56  2  0  0  0  0
M  END
$$$$
