CSD_code = VANJID | q = 0 | S = 0 | Stoichiometry = C5H13Cl3N2Pt | MND = 4
 OpenBabel04212202103D

 24 23  0  0  0  0  0  0  0  0999 V2000
    6.0954    1.3174    0.9342 Pt  0  0  0  0  0  0  0  0  0  0  0  0
    4.0810    0.3303    0.9539 Cl  0  0  0  0  0  0  0  0  0  0  0  0
    6.7665   -0.0351    2.7490 Cl  0  0  0  0  0  0  0  0  0  0  0  0
    5.5064    2.6337   -0.7970 Cl  0  0  0  0  0  0  0  0  0  0  0  0
    8.0079    2.3897    0.7676 N   0  0  0  0  0  4  0  0  0  0  0  0
    9.3732    1.2620    2.6841 N   0  0  0  0  0  0  0  0  0  0  0  0
    9.1880    1.7030    0.2471 C   0  0  0  0  0  0  0  0  0  0  0  0
    9.9779    1.0132    1.3775 C   0  0  0  0  0  0  0  0  0  0  0  0
    9.1875    2.6903    2.9279 C   0  0  0  0  0  0  0  0  0  0  0  0
    8.3957    3.3616    1.7876 C   0  0  0  0  0  0  0  0  0  0  0  0
   10.1401    0.6373    3.7513 C   0  0  0  0  0  0  0  0  0  0  0  0
    7.5726    2.9062   -0.0125 H   0  0  0  0  0  0  0  0  0  0  0  0
    8.0647    0.5714    2.7623 H   0  0  0  0  0  0  0  0  0  0  0  0
    9.8422    2.4235   -0.2638 H   0  0  0  0  0  0  0  0  0  0  0  0
    8.8576    0.9679   -0.4896 H   0  0  0  0  0  0  0  0  0  0  0  0
    9.9915   -0.0674    1.2243 H   0  0  0  0  0  0  0  0  0  0  0  0
   11.0187    1.3681    1.3718 H   0  0  0  0  0  0  0  0  0  0  0  0
   10.1648    3.1818    3.0398 H   0  0  0  0  0  0  0  0  0  0  0  0
    8.6506    2.7938    3.8726 H   0  0  0  0  0  0  0  0  0  0  0  0
    7.4884    3.8277    2.1769 H   0  0  0  0  0  0  0  0  0  0  0  0
    9.0133    4.1498    1.3345 H   0  0  0  0  0  0  0  0  0  0  0  0
    9.6253    0.7851    4.6981 H   0  0  0  0  0  0  0  0  0  0  0  0
   11.1498    1.0561    3.8282 H   0  0  0  0  0  0  0  0  0  0  0  0
   10.2164   -0.4310    3.5618 H   0  0  0  0  0  0  0  0  0  0  0  0
  1  2  1  0  0  0  0
  3 13  1  0  0  0  0
  4  1  1  0  0  0  0
  5  1  1  0  0  0  0
  5 10  1  0  0  0  0
  6  9  1  0  0  0  0
  6 11  1  0  0  0  0
  7  5  1  0  0  0  0
  7  8  1  0  0  0  0
  8  6  1  0  0  0  0
  9 18  1  0  0  0  0
  9 19  1  0  0  0  0
 10 20  1  0  0  0  0
 10  9  1  0  0  0  0
 11 23  1  0  0  0  0
 11 22  1  0  0  0  0
 12  5  1  0  0  0  0
 14  7  1  0  0  0  0
 15  7  1  0  0  0  0
 16  8  1  0  0  0  0
 17  8  1  0  0  0  0
 21 10  1  0  0  0  0
 24 11  1  0  0  0  0
M  END
$$$$
