CSD_code = VAPBUL | q = 0 | S = 0 | Stoichiometry = C14H10ClN3Pt | MND = 4
 OpenBabel04212202103D

 29 33  0  0  1  0  0  0  0  0999 V2000
   -0.9741    2.4945    7.4474 C   0  0  0  0  0  0  0  0  0  0  0  0
   -1.6670    3.6175    7.8821 C   0  0  0  0  0  0  0  0  0  0  0  0
   -2.5409    3.4974    8.5059 H   0  0  0  0  0  0  0  0  0  0  0  0
   -1.2528    4.8916    7.5257 C   0  0  0  0  0  0  0  0  0  0  0  0
   -1.8058    5.7521    7.8744 H   0  0  0  0  0  0  0  0  0  0  0  0
   -0.1342    5.0733    6.7257 C   0  0  0  0  0  0  0  0  0  0  0  0
    0.1810    6.0702    6.4535 H   0  0  0  0  0  0  0  0  0  0  0  0
    0.5768    3.9790    6.2759 C   0  0  0  0  0  0  0  0  0  0  0  0
    1.4475    4.1229    5.6524 H   0  0  0  0  0  0  0  0  0  0  0  0
    0.1682    2.6935    6.6279 C   0  0  0  0  0  0  0  0  0  0  0  0
    0.8424    1.4751    6.2056 C   0  0  0  0  0  0  0  0  0  0  0  0
    1.9760    1.3511    5.4067 C   0  0  0  0  0  0  0  0  0  0  0  0
    2.4653    2.2303    5.0216 H   0  0  0  0  0  0  0  0  0  0  0  0
    2.4721    0.0900    5.1094 C   0  0  0  0  0  0  0  0  0  0  0  0
    3.3502   -0.0146    4.4910 H   0  0  0  0  0  0  0  0  0  0  0  0
    1.8386   -1.0387    5.6080 C   0  0  0  0  0  0  0  0  0  0  0  0
    2.2120   -2.0258    5.3850 H   0  0  0  0  0  0  0  0  0  0  0  0
    0.7098   -0.8654    6.4030 C   0  0  0  0  0  0  0  0  0  0  0  0
   -0.0797   -1.9109    7.0128 C   0  0  2  0  0  3  0  0  0  0  0  0
   -0.9105   -3.8251    7.6907 C   0  0  0  0  0  0  0  0  0  0  0  0
   -1.0034   -4.8853    7.8026 H   0  0  0  0  0  0  0  0  0  0  0  0
   -1.6603   -2.7960    8.1870 C   0  0  0  0  0  0  0  0  0  0  0  0
   -2.5289   -2.8248    8.8132 H   0  0  0  0  0  0  0  0  0  0  0  0
   -3.1102    0.7063    9.0617 Cl  0  0  0  0  0  0  0  0  0  0  0  0
    0.2398    0.3648    6.6832 N   0  0  0  0  0  0  0  0  0  0  0  0
   -1.1390   -1.6232    7.7626 N   0  0  0  0  0  0  0  0  0  0  0  0
    0.0857   -3.2554    6.9505 N   0  0  0  0  0  0  0  0  0  0  0  0
    0.8064   -3.7478    6.4496 H   0  0  0  0  0  0  0  0  0  0  0  0
   -1.3197    0.5609    7.7879 Pt  0  0  2  0  0  0  0  0  0  0  0  0
  1 29  2  0  0  0  0
  1  2  1  0  0  0  0
  2  3  1  0  0  0  0
  4  5  1  0  0  0  0
  4  2  2  0  0  0  0
  6  4  1  0  0  0  0
  7  6  1  0  0  0  0
  8 10  1  0  0  0  0
  8  6  2  0  0  0  0
  9  8  1  0  0  0  0
 10  1  1  0  0  0  0
 11 10  2  0  0  0  0
 11 25  1  0  0  0  0
 12 11  1  0  0  0  0
 13 12  1  0  0  0  0
 14 12  2  0  0  0  0
 14 16  1  0  0  0  0
 15 14  1  0  0  0  0
 16 18  2  0  0  0  0
 17 16  1  0  0  0  0
 18 25  1  0  0  0  0
 19 18  1  1  0  0  0
 19 26  1  0  0  0  0
 20 21  1  0  0  0  0
 20 22  2  0  0  0  0
 22 23  1  0  0  0  0
 25 29  1  0  0  0  0
 26 29  1  0  0  0  0
 26 22  1  0  0  0  0
 27 19  1  0  0  0  0
 27 20  1  0  0  0  0
 28 27  1  0  0  0  0
 29 24  1  1  0  0  0
M  END
$$$$
