CSD_code = VAPNIJ | q = 0 | S = 0 | Stoichiometry = C12H18Cl2N2O2Ti | MND = 6
 OpenBabel04212202103D

 37 39  0  0  1  0  0  0  0  0999 V2000
    6.3805    4.2130    3.9247 Ti  0  0  0  0  0  0  0  0  0  0  0  0
    7.5509    3.5286    2.0717 Cl  0  0  0  0  0  0  0  0  0  0  0  0
    4.8773    4.7823    5.5559 Cl  0  0  0  0  0  0  0  0  0  0  0  0
    7.1721    5.8088    3.9918 O   0  0  0  0  0  0  0  0  0  0  0  0
    7.4465    3.2987    5.0241 O   0  0  0  0  0  0  0  0  0  0  0  0
    5.0397    4.9652    2.5943 N   0  0  1  0  0  0  0  0  0  0  0  0
    5.2644    2.5400    3.6717 N   0  0  2  0  0  0  0  0  0  0  0  0
    7.6388    8.1281    4.1705 C   0  0  0  0  0  0  0  0  0  0  0  0
    6.8177    6.9871    3.6275 C   0  0  0  0  0  0  0  0  0  0  0  0
    5.7721    7.2188    2.7632 C   0  0  0  0  0  0  0  0  0  0  0  0
    4.9546    6.2018    2.2010 C   0  0  1  0  0  3  0  0  0  0  0  0
    3.9914    6.6273    1.1226 C   0  0  0  0  0  0  0  0  0  0  0  0
    4.2232    3.9345    1.9948 C   0  0  0  0  0  0  0  0  0  0  0  0
    3.9992    2.8253    3.0350 C   0  0  0  0  0  0  0  0  0  0  0  0
    4.6670    0.1605    3.8307 C   0  0  0  0  0  0  0  0  0  0  0  0
    5.5840    1.3375    4.0483 C   0  0  2  0  0  3  0  0  0  0  0  0
    6.8184    1.0717    4.7000 C   0  0  0  0  0  0  0  0  0  0  0  0
    7.6876    2.0433    5.1413 C   0  0  0  0  0  0  0  0  0  0  0  0
    8.9705    1.6733    5.8397 C   0  0  0  0  0  0  0  0  0  0  0  0
    7.2959    9.0860    3.7940 H   0  0  0  0  0  0  0  0  0  0  0  0
    7.5743    8.1194    5.2586 H   0  0  0  0  0  0  0  0  0  0  0  0
    8.6836    7.9782    3.8992 H   0  0  0  0  0  0  0  0  0  0  0  0
    5.5733    8.2367    2.4671 H   0  0  0  0  0  0  0  0  0  0  0  0
    4.1562    6.0392    0.2208 H   0  0  0  0  0  0  0  0  0  0  0  0
    2.9635    6.4756    1.4517 H   0  0  0  0  0  0  0  0  0  0  0  0
    4.1232    7.6777    0.8837 H   0  0  0  0  0  0  0  0  0  0  0  0
    4.7692    3.5140    1.1355 H   0  0  0  0  0  0  0  0  0  0  0  0
    3.2481    4.3086    1.6579 H   0  0  0  0  0  0  0  0  0  0  0  0
    3.3044    3.1947    3.8051 H   0  0  0  0  0  0  0  0  0  0  0  0
    3.5608    1.9519    2.5369 H   0  0  0  0  0  0  0  0  0  0  0  0
    4.5173   -0.0112    2.7651 H   0  0  0  0  0  0  0  0  0  0  0  0
    3.6984    0.3492    4.2916 H   0  0  0  0  0  0  0  0  0  0  0  0
    5.0907   -0.7388    4.2661 H   0  0  0  0  0  0  0  0  0  0  0  0
    7.0709    0.0401    4.8875 H   0  0  0  0  0  0  0  0  0  0  0  0
    8.9796    2.1206    6.8335 H   0  0  0  0  0  0  0  0  0  0  0  0
    9.8065    2.0922    5.2797 H   0  0  0  0  0  0  0  0  0  0  0  0
    9.0894    0.5980    5.9202 H   0  0  0  0  0  0  0  0  0  0  0  0
  1  4  1  0  0  0  0
  1  5  1  0  0  0  0
  1  3  1  0  0  0  0
  2  1  1  0  0  0  0
  5 18  1  0  0  0  0
  6 13  1  6  0  0  0
  6  1  1  0  0  0  0
  7 14  1  1  0  0  0
  7  1  1  0  0  0  0
  7 16  1  0  0  0  0
  8 21  1  0  0  0  0
  9  4  1  0  0  0  0
  9  8  1  0  0  0  0
 10  9  2  0  0  0  0
 11 12  1  6  0  0  0
 11  6  1  0  0  0  0
 11 10  1  0  0  0  0
 12 25  1  0  0  0  0
 13 14  1  0  0  0  0
 14 29  1  0  0  0  0
 15 33  1  0  0  0  0
 15 32  1  0  0  0  0
 16 15  1  1  0  0  0
 16 17  1  0  0  0  0
 17 34  1  0  0  0  0
 17 18  2  0  0  0  0
 18 19  1  0  0  0  0
 19 37  1  0  0  0  0
 19 35  1  0  0  0  0
 20  8  1  0  0  0  0
 22  8  1  0  0  0  0
 23 10  1  0  0  0  0
 24 12  1  0  0  0  0
 26 12  1  0  0  0  0
 27 13  1  0  0  0  0
 28 13  1  0  0  0  0
 30 14  1  0  0  0  0
 31 15  1  0  0  0  0
 36 19  1  0  0  0  0
M  END
$$$$
