CSD_code = VAPVIT | q = 0 | S = 0 | Stoichiometry = C23H21Cl2FeN5 | MND = 5
 OpenBabel04212202103D

 52 58  0  0  1  0  0  0  0  0999 V2000
    2.8834    0.2871    4.1611 Fe  0  0  0  0  0  0  0  0  0  0  0  0
    1.5905    1.4200    2.9870 Cl  0  0  0  0  0  0  0  0  0  0  0  0
    2.8848   -1.4362    5.3215 Cl  0  0  0  0  0  0  0  0  0  0  0  0
    2.6303    1.4338    5.6902 N   0  0  0  0  0  0  0  0  0  0  0  0
    4.4968    1.0345    4.1718 N   0  0  0  0  0  0  0  0  0  0  0  0
    3.4568    3.0145    7.0379 N   0  0  0  0  0  0  0  0  0  0  0  0
    3.6058   -0.6286    2.6262 N   0  0  0  0  0  0  0  0  0  0  0  0
    5.4400    0.6810    3.2297 C   0  0  0  0  0  0  0  0  0  0  0  0
    1.6574    1.7671    6.5853 C   0  0  0  0  0  0  0  0  0  0  0  0
    3.2183   -1.5334    1.6828 C   0  0  0  0  0  0  0  0  0  0  0  0
    3.7026    2.1798    5.9807 C   0  0  2  0  0  3  0  0  0  0  0  0
    5.3125   -0.9095    1.2099 N   0  0  0  0  0  0  0  0  0  0  0  0
    4.8336    1.9629    5.1342 C   0  0  0  0  0  0  0  0  0  0  0  0
    2.1692    2.7599    7.4489 C   0  0  0  0  0  0  0  0  0  0  0  0
    4.8630   -0.2737    2.3361 C   0  0  0  0  0  0  0  0  0  0  0  0
    0.3603    1.2893    6.7271 C   0  0  0  0  0  0  0  0  0  0  0  0
   -0.0130    0.5310    6.0564 H   0  0  0  0  0  0  0  0  0  0  0  0
    1.3919    3.2868    8.4704 C   0  0  0  0  0  0  0  0  0  0  0  0
    1.7693    4.0417    9.1435 H   0  0  0  0  0  0  0  0  0  0  0  0
    0.1050    2.8024    8.5990 C   0  0  0  0  0  0  0  0  0  0  0  0
   -0.5264    3.1912    9.3839 H   0  0  0  0  0  0  0  0  0  0  0  0
   -0.4032    1.8220    7.7435 C   0  0  0  0  0  0  0  0  0  0  0  0
   -1.4159    1.4778    7.8874 H   0  0  0  0  0  0  0  0  0  0  0  0
    4.2910   -1.7267    0.7853 C   0  0  0  0  0  0  0  0  0  0  0  0
    7.0549    2.1373    4.2439 C   0  0  0  0  0  0  0  0  0  0  0  0
    8.0486    2.5540    4.2797 H   0  0  0  0  0  0  0  0  0  0  0  0
    6.1073    2.5143    5.1843 C   0  0  0  0  0  0  0  0  0  0  0  0
    6.3710    3.2218    5.9514 H   0  0  0  0  0  0  0  0  0  0  0  0
    6.7200    1.2189    3.2595 C   0  0  0  0  0  0  0  0  0  0  0  0
    7.4585    0.9227    2.5346 H   0  0  0  0  0  0  0  0  0  0  0  0
    6.6069   -0.8187    0.5876 C   0  0  0  0  0  0  0  0  0  0  0  0
    6.9458    0.2195    0.6237 H   0  0  0  0  0  0  0  0  0  0  0  0
    6.4873   -1.0956   -0.4629 H   0  0  0  0  0  0  0  0  0  0  0  0
    2.0168   -2.2131    1.5247 C   0  0  0  0  0  0  0  0  0  0  0  0
    1.2083   -2.0511    2.2206 H   0  0  0  0  0  0  0  0  0  0  0  0
    4.1789   -2.6064   -0.2819 C   0  0  0  0  0  0  0  0  0  0  0  0
    4.9910   -2.7708   -0.9738 H   0  0  0  0  0  0  0  0  0  0  0  0
    1.9162   -3.0822    0.4597 C   0  0  0  0  0  0  0  0  0  0  0  0
    0.9995   -3.6296    0.3020 H   0  0  0  0  0  0  0  0  0  0  0  0
    7.6182   -1.7469    1.2574 C   0  0  0  0  0  0  0  0  0  0  0  0
    7.7203   -1.5029    2.3121 H   0  0  0  0  0  0  0  0  0  0  0  0
    8.5884   -1.6508    0.7772 H   0  0  0  0  0  0  0  0  0  0  0  0
    7.2881   -2.7797    1.1760 H   0  0  0  0  0  0  0  0  0  0  0  0
    2.9789   -3.2746   -0.4262 C   0  0  0  0  0  0  0  0  0  0  0  0
    2.8586   -3.9667   -1.2462 H   0  0  0  0  0  0  0  0  0  0  0  0
    4.3519    3.9493    7.6669 C   0  0  0  0  0  0  0  0  0  0  0  0
    3.7409    4.7115    8.1570 H   0  0  0  0  0  0  0  0  0  0  0  0
    4.9482    4.4430    6.8957 H   0  0  0  0  0  0  0  0  0  0  0  0
    5.2491    3.2629    8.6949 C   0  0  0  0  0  0  0  0  0  0  0  0
    4.6435    2.8137    9.4783 H   0  0  0  0  0  0  0  0  0  0  0  0
    5.9227    3.9871    9.1453 H   0  0  0  0  0  0  0  0  0  0  0  0
    5.8370    2.4779    8.2251 H   0  0  0  0  0  0  0  0  0  0  0  0
  1  5  1  0  0  0  0
  1  3  1  0  0  0  0
  1  4  1  0  0  0  0
  2  1  1  0  0  0  0
  4 11  1  0  0  0  0
  4  9  1  0  0  0  0
  5 13  1  0  0  0  0
  6 14  1  0  0  0  0
  6 46  1  0  0  0  0
  7  1  1  0  0  0  0
  8 29  1  0  0  0  0
  8  5  1  0  0  0  0
  9 16  2  0  0  0  0
  9 14  1  0  0  0  0
 10  7  1  0  0  0  0
 11 13  1  6  0  0  0
 11  6  1  0  0  0  0
 12 15  1  0  0  0  0
 13 27  2  0  0  0  0
 14 18  2  0  0  0  0
 15  7  1  0  0  0  0
 15  8  2  0  0  0  0
 16 22  1  0  0  0  0
 17 16  1  0  0  0  0
 18 20  1  0  0  0  0
 18 19  1  0  0  0  0
 20 21  1  0  0  0  0
 22 23  1  0  0  0  0
 22 20  2  0  0  0  0
 24 12  1  0  0  0  0
 24 10  2  0  0  0  0
 25 26  1  0  0  0  0
 25 27  1  0  0  0  0
 27 28  1  0  0  0  0
 29 25  2  0  0  0  0
 30 29  1  0  0  0  0
 31 32  1  0  0  0  0
 31 12  1  0  0  0  0
 31 40  1  0  0  0  0
 33 31  1  0  0  0  0
 34 10  1  0  0  0  0
 34 35  1  0  0  0  0
 36 24  1  0  0  0  0
 37 36  1  0  0  0  0
 38 34  2  0  0  0  0
 39 38  1  0  0  0  0
 40 41  1  0  0  0  0
 42 40  1  0  0  0  0
 43 40  1  0  0  0  0
 44 36  2  0  0  0  0
 44 38  1  0  0  0  0
 45 44  1  0  0  0  0
 46 47  1  0  0  0  0
 46 49  1  0  0  0  0
 48 46  1  0  0  0  0
 49 51  1  0  0  0  0
 49 50  1  0  0  0  0
 52 49  1  0  0  0  0
M  END
$$$$
