CSD_code = VAPXOB | q = 0 | S = 0 | Stoichiometry = C19H22Cl2N4Pt | MND = 4
 OpenBabel04212202103D

 48 51  0  0  1  0  0  0  0  0999 V2000
    2.3486    2.5157   -0.8954 Pt  0  0  0  0  0  0  0  0  0  0  0  0
    4.3515    3.5120   -0.7136 Cl  0  0  0  0  0  0  0  0  0  0  0  0
    3.2117    1.1672   -2.4923 Cl  0  0  0  0  0  0  0  0  0  0  0  0
    0.5119    1.6599   -1.0323 N   0  0  0  0  0  0  0  0  0  0  0  0
    0.0526    3.2118    0.5794 N   0  0  0  0  0  0  0  0  0  0  0  0
    1.5441    4.5547    1.3603 N   0  0  0  0  0  0  0  0  0  0  0  0
   -1.6774    1.8138   -0.1203 N   0  0  0  0  0  0  0  0  0  0  0  0
    3.6783    4.6194    2.5044 C   0  0  0  0  0  0  0  0  0  0  0  0
    1.3714    3.5737    0.4701 C   0  0  0  0  0  0  0  0  0  0  0  0
   -1.1882    0.2008   -1.7912 C   0  0  0  0  0  0  0  0  0  0  0  0
   -1.5059   -0.6063   -2.4287 H   0  0  0  0  0  0  0  0  0  0  0  0
   -2.0648    0.8196   -0.9074 C   0  0  0  0  0  0  0  0  0  0  0  0
   -3.1003    0.5268   -0.8140 H   0  0  0  0  0  0  0  0  0  0  0  0
   -0.4208    2.1921   -0.2104 C   0  0  2  0  0  3  0  0  0  0  0  0
    3.1003    6.3501    0.8697 C   0  0  0  0  0  0  0  0  0  0  0  0
    4.3596    6.9043    1.0481 C   0  0  0  0  0  0  0  0  0  0  0  0
    4.6447    7.7798    0.4881 H   0  0  0  0  0  0  0  0  0  0  0  0
    2.1062    6.9410   -0.1035 C   0  0  0  0  0  0  0  0  0  0  0  0
    1.0982    6.6179    0.1810 H   0  0  0  0  0  0  0  0  0  0  0  0
    3.3014    3.3767    3.2781 C   0  0  0  0  0  0  0  0  0  0  0  0
    2.2102    3.2742    3.2767 H   0  0  0  0  0  0  0  0  0  0  0  0
    0.3644    4.8158    2.0195 C   0  0  0  0  0  0  0  0  0  0  0  0
    0.3005    5.5730    2.7744 H   0  0  0  0  0  0  0  0  0  0  0  0
    2.7936    5.1977    1.5936 C   0  0  0  0  0  0  0  0  0  0  0  0
   -0.5777    3.9771    1.5348 C   0  0  0  0  0  0  0  0  0  0  0  0
   -1.6131    3.8489    1.7693 H   0  0  0  0  0  0  0  0  0  0  0  0
    3.7479    3.4524    4.7400 C   0  0  0  0  0  0  0  0  0  0  0  0
    3.4251    4.3872    5.1936 H   0  0  0  0  0  0  0  0  0  0  0  0
    4.8281    3.3795    4.8261 H   0  0  0  0  0  0  0  0  0  0  0  0
    3.3116    2.6281    5.2999 H   0  0  0  0  0  0  0  0  0  0  0  0
    5.2649    6.3323    1.9209 C   0  0  0  0  0  0  0  0  0  0  0  0
    6.2475    6.7656    2.0321 H   0  0  0  0  0  0  0  0  0  0  0  0
    3.8986    2.1405    2.6005 C   0  0  0  0  0  0  0  0  0  0  0  0
    3.5146    2.0339    1.5813 H   0  0  0  0  0  0  0  0  0  0  0  0
    3.6474    1.2438    3.1629 H   0  0  0  0  0  0  0  0  0  0  0  0
    4.9797    2.2290    2.5396 H   0  0  0  0  0  0  0  0  0  0  0  0
    0.1173    0.6610   -1.8232 C   0  0  0  0  0  0  0  0  0  0  0  0
    0.8798    0.2497   -2.4743 H   0  0  0  0  0  0  0  0  0  0  0  0
    4.9261    5.2087    2.6495 C   0  0  0  0  0  0  0  0  0  0  0  0
    5.6472    4.7772    3.3243 H   0  0  0  0  0  0  0  0  0  0  0  0
    2.1155    8.4708   -0.0867 C   0  0  0  0  0  0  0  0  0  0  0  0
    2.0447    8.8462    0.9323 H   0  0  0  0  0  0  0  0  0  0  0  0
    1.2680    8.8492   -0.6541 H   0  0  0  0  0  0  0  0  0  0  0  0
    3.0215    8.8630   -0.5402 H   0  0  0  0  0  0  0  0  0  0  0  0
    2.3947    6.4208   -1.5143 C   0  0  0  0  0  0  0  0  0  0  0  0
    2.3175    5.3311   -1.5493 H   0  0  0  0  0  0  0  0  0  0  0  0
    3.4036    6.6904   -1.8144 H   0  0  0  0  0  0  0  0  0  0  0  0
    1.6881    6.8450   -2.2245 H   0  0  0  0  0  0  0  0  0  0  0  0
  1  2  1  0  0  0  0
  1  9  2  0  0  0  0
  3  1  1  0  0  0  0
  4  1  1  0  0  0  0
  4 14  1  0  0  0  0
  5 25  1  0  0  0  0
  6 24  1  0  0  0  0
  6 22  1  0  0  0  0
  8 39  1  0  0  0  0
  8 20  1  0  0  0  0
  9  5  1  0  0  0  0
  9  6  1  0  0  0  0
 10 12  1  0  0  0  0
 11 10  1  0  0  0  0
 12 13  1  0  0  0  0
 12  7  2  0  0  0  0
 14  7  1  1  0  0  0
 14  5  1  0  0  0  0
 15 16  2  0  0  0  0
 15 24  1  0  0  0  0
 16 31  1  0  0  0  0
 17 16  1  0  0  0  0
 18 41  1  0  0  0  0
 18 19  1  0  0  0  0
 18 15  1  0  0  0  0
 20 27  1  0  0  0  0
 21 20  1  0  0  0  0
 22 23  1  0  0  0  0
 24  8  2  0  0  0  0
 25 26  1  0  0  0  0
 25 22  2  0  0  0  0
 27 29  1  0  0  0  0
 27 28  1  0  0  0  0
 27 30  1  0  0  0  0
 31 32  1  0  0  0  0
 31 39  2  0  0  0  0
 33 35  1  0  0  0  0
 33 20  1  0  0  0  0
 34 33  1  0  0  0  0
 36 33  1  0  0  0  0
 37 10  2  0  0  0  0
 37  4  1  0  0  0  0
 38 37  1  0  0  0  0
 39 40  1  0  0  0  0
 41 42  1  0  0  0  0
 43 41  1  0  0  0  0
 44 41  1  0  0  0  0
 45 18  1  0  0  0  0
 46 45  1  0  0  0  0
 47 45  1  0  0  0  0
 48 45  1  0  0  0  0
M  END
$$$$
