CSD_code = VAQMAB | q = 0 | S = 0 | Stoichiometry = C10H16As2Cl3NORu | MND = 6
 OpenBabel04212202103D

 34 33  0  0  0  0  0  0  0  0999 V2000
    0.0143   -0.0005    0.0806 Ru  0  0  0  0  0  0  0  0  0  0  0  0
    1.6718    1.6919    0.0405 As  0  0  0  0  0  0  0  0  0  0  0  0
    0.8781    0.0006    2.3011 Cl  0  0  0  0  0  0  0  0  0  0  0  0
   -1.3816    1.8158    0.6905 Cl  0  0  0  0  0  0  0  0  0  0  0  0
   -0.6734   -0.0025   -2.6572 O   0  0  0  0  0  1  0  0  0  0  0  0
   -0.4470    0.0015   -1.5189 N   0  0  0  0  0  2  0  0  0  0  0  0
    1.9242    2.7613   -1.5875 C   0  0  0  0  0  0  0  0  0  0  0  0
    1.8024    3.0874    1.3843 C   0  0  0  0  0  0  0  0  0  0  0  0
    3.3615    0.6990    0.1787 C   0  0  0  0  0  0  0  0  0  0  0  0
    4.5675    1.3830    0.2905 C   0  0  0  0  0  0  0  0  0  0  0  0
    5.7627    0.6928    0.4000 C   0  0  0  0  0  0  0  0  0  0  0  0
    2.8176    3.3891   -1.5190 H   0  0  0  0  0  0  0  0  0  0  0  0
    1.9999    2.1115   -2.4625 H   0  0  0  0  0  0  0  0  0  0  0  0
    1.0423    3.4006   -1.6987 H   0  0  0  0  0  0  0  0  0  0  0  0
    2.0009    2.6408    2.3612 H   0  0  0  0  0  0  0  0  0  0  0  0
    2.5891    3.8033    1.1225 H   0  0  0  0  0  0  0  0  0  0  0  0
    0.8339    3.5967    1.4153 H   0  0  0  0  0  0  0  0  0  0  0  0
    4.5608    2.4691    0.2929 H   0  0  0  0  0  0  0  0  0  0  0  0
    6.6928    1.2339    0.4890 H   0  0  0  0  0  0  0  0  0  0  0  0
    3.3615   -0.6989    0.1787 C   0  0  0  0  0  0  0  0  0  0  0  0
    1.6719   -1.6918    0.0405 As  0  0  0  0  0  0  0  0  0  0  0  0
   -1.3824   -1.8158    0.6912 Cl  0  0  0  0  0  0  0  0  0  0  0  0
    1.9240   -2.7612   -1.5875 C   0  0  0  0  0  0  0  0  0  0  0  0
    2.8176   -3.3889   -1.5196 H   0  0  0  0  0  0  0  0  0  0  0  0
    1.9993   -2.1110   -2.4623 H   0  0  0  0  0  0  0  0  0  0  0  0
    1.0421   -3.4006   -1.6986 H   0  0  0  0  0  0  0  0  0  0  0  0
    1.8026   -3.0876    1.3840 C   0  0  0  0  0  0  0  0  0  0  0  0
    2.0010   -2.6409    2.3608 H   0  0  0  0  0  0  0  0  0  0  0  0
    2.5892   -3.8036    1.1223 H   0  0  0  0  0  0  0  0  0  0  0  0
    0.8340   -3.5967    1.4151 H   0  0  0  0  0  0  0  0  0  0  0  0
    4.5676   -1.3829    0.2905 C   0  0  0  0  0  0  0  0  0  0  0  0
    5.7628   -0.6926    0.3999 C   0  0  0  0  0  0  0  0  0  0  0  0
    6.6929   -1.2337    0.4890 H   0  0  0  0  0  0  0  0  0  0  0  0
    4.5610   -2.4691    0.2928 H   0  0  0  0  0  0  0  0  0  0  0  0
  1  4  1  0  0  0  0
  1 22  1  0  0  0  0
  1  3  1  0  0  0  0
  2  9  1  0  0  0  0
  2  8  1  0  0  0  0
  5  6  1  0  0  0  0
  6  1  1  0  0  0  0
  7 12  1  0  0  0  0
  7  2  1  0  0  0  0
  8 17  1  0  0  0  0
  8 15  1  0  0  0  0
  9 20  2  0  0  0  0
  9 10  1  0  0  0  0
 10 18  1  0  0  0  0
 10 11  2  0  0  0  0
 11 19  1  0  0  0  0
 13  7  1  0  0  0  0
 14  7  1  0  0  0  0
 16  8  1  0  0  0  0
 20 31  1  0  0  0  0
 21 20  1  0  0  0  0
 21 27  1  0  0  0  0
 23 24  1  0  0  0  0
 23 21  1  0  0  0  0
 25 23  1  0  0  0  0
 26 23  1  0  0  0  0
 27 30  1  0  0  0  0
 27 28  1  0  0  0  0
 29 27  1  0  0  0  0
 31 34  1  0  0  0  0
 31 32  2  0  0  0  0
 32 11  1  0  0  0  0
 32 33  1  0  0  0  0
M  END
$$$$
