CSD_code = VAQRAG | q = 0 | S = 0 | Stoichiometry = C7H4Cl4O3W | MND = 6
 OpenBabel04212202103D

 19 20  0  0  1  0  0  0  0  0999 V2000
    4.5011    0.7216    2.9779 W   0  0  0  0  0  0  0  0  0  0  0  0
    5.8297    1.6079    1.2674 Cl  0  0  0  0  0  0  0  0  0  0  0  0
    4.7799   -1.3225    2.1470 Cl  0  0  0  0  0  0  0  0  0  0  0  0
    4.0570   -0.1483    5.0880 Cl  0  0  0  0  0  0  0  0  0  0  0  0
    8.9443    0.4912    4.6684 Cl  0  0  0  0  0  0  0  0  0  0  0  0
    2.9695    1.0363    2.4118 O   0  0  0  0  0  1  0  0  0  0  0  0
    4.9005    2.3513    3.8835 O   0  0  0  0  0  0  0  0  0  0  0  0
    6.5817    0.4001    3.7736 O   0  0  0  0  0  0  0  0  0  0  0  0
    7.1560    2.5288    4.6609 C   0  0  0  0  0  0  0  0  0  0  0  0
    5.8553    3.0752    4.4146 C   0  0  0  0  0  0  0  0  0  0  0  0
    5.6128    4.4148    4.7608 C   0  0  0  0  0  0  0  0  0  0  0  0
    6.6044    5.1883    5.3175 C   0  0  0  0  0  0  0  0  0  0  0  0
    7.8739    4.6569    5.5559 C   0  0  0  0  0  0  0  0  0  0  0  0
    8.1443    3.3504    5.2344 C   0  0  0  0  0  0  0  0  0  0  0  0
    7.3922    1.1573    4.3096 C   0  0  1  0  0  3  0  0  0  0  0  0
    4.6257    4.8071    4.5676 H   0  0  0  0  0  0  0  0  0  0  0  0
    6.3993    6.2168    5.5725 H   0  0  0  0  0  0  0  0  0  0  0  0
    8.6414    5.2754    5.9928 H   0  0  0  0  0  0  0  0  0  0  0  0
    9.1229    2.9350    5.4153 H   0  0  0  0  0  0  0  0  0  0  0  0
  1  8  1  0  0  0  0
  1  7  1  0  0  0  0
  1  4  1  0  0  0  0
  2  1  1  0  0  0  0
  3  1  1  0  0  0  0
  6  1  1  0  0  0  0
  7 10  1  0  0  0  0
  8 15  1  0  0  0  0
  9 14  1  0  0  0  0
 10  9  2  0  0  0  0
 10 11  1  0  0  0  0
 11 12  2  0  0  0  0
 12 13  1  0  0  0  0
 12 17  1  0  0  0  0
 13 18  1  0  0  0  0
 14 19  1  0  0  0  0
 14 13  2  0  0  0  0
 15  9  1  0  0  0  0
 15  5  1  1  0  0  0
 16 11  1  0  0  0  0
M  END
$$$$
