CSD_code = VAQRIO | q = 0 | S = 0 | Stoichiometry = C7H6Cl3NO3W | MND = 6
 OpenBabel04212202103D

 21 22  0  0  1  0  0  0  0  0999 V2000
    0.6817    0.1341    3.4258 W   0  0  0  0  0  0  0  0  0  0  0  0
    1.3797   -1.8697    2.3028 Cl  0  0  0  0  0  0  0  0  0  0  0  0
   -0.7537    0.4972    1.7294 Cl  0  0  0  0  0  0  0  0  0  0  0  0
   -0.4864    1.5471    4.8330 Cl  0  0  0  0  0  0  0  0  0  0  0  0
   -1.2619   -3.4412    3.7854 N   0  0  0  0  0  0  0  0  0  0  0  0
   -0.8440   -1.2618    4.0268 O   0  0  0  0  0  0  0  0  0  0  0  0
    1.4960   -0.6630    4.9232 O   0  0  0  0  0  0  0  0  0  0  0  0
    1.8944    1.1476    2.9146 O   0  0  0  0  0  1  0  0  0  0  0  0
    2.3923   -2.0354    6.6249 C   0  0  0  0  0  0  0  0  0  0  0  0
    2.3558   -3.2116    7.3410 C   0  0  0  0  0  0  0  0  0  0  0  0
    1.3717   -4.1623    7.0884 C   0  0  0  0  0  0  0  0  0  0  0  0
    0.4259   -3.9340    6.1125 C   0  0  0  0  0  0  0  0  0  0  0  0
    0.4345   -2.7487    5.3702 C   0  0  0  0  0  0  0  0  0  0  0  0
    1.4379   -1.7772    5.6315 C   0  0  0  0  0  0  0  0  0  0  0  0
   -0.5722   -2.4480    4.3458 C   0  0  1  0  0  3  0  0  0  0  0  0
   -0.9911   -4.4026    3.9028 H   0  0  0  0  0  0  0  0  0  0  0  0
   -1.8972   -3.2035    3.0362 H   0  0  0  0  0  0  0  0  0  0  0  0
    3.1473   -1.2848    6.8032 H   0  0  0  0  0  0  0  0  0  0  0  0
    3.0957   -3.3953    8.1049 H   0  0  0  0  0  0  0  0  0  0  0  0
    1.3465   -5.0771    7.6591 H   0  0  0  0  0  0  0  0  0  0  0  0
   -0.3521   -4.6640    5.9464 H   0  0  0  0  0  0  0  0  0  0  0  0
  1  6  1  0  0  0  0
  1  4  1  0  0  0  0
  1  7  1  0  0  0  0
  2  1  1  0  0  0  0
  3  1  1  0  0  0  0
  5 16  1  0  0  0  0
  6 15  1  0  0  0  0
  7 14  1  0  0  0  0
  8  1  1  0  0  0  0
  9 18  1  0  0  0  0
  9 10  1  0  0  0  0
 10 19  1  0  0  0  0
 11 10  2  0  0  0  0
 11 20  1  0  0  0  0
 12 11  1  0  0  0  0
 13 14  1  0  0  0  0
 13 12  2  0  0  0  0
 14  9  2  0  0  0  0
 15  5  1  1  0  0  0
 15 13  1  0  0  0  0
 17  5  1  0  0  0  0
 21 12  1  0  0  0  0
M  END
$$$$
