CSD_code = VAQVOB | q = 0 | S = 0 | Stoichiometry = C35H23ClIrN3S3 | MND = 6
 OpenBabel04212202103D

 66 76  0  0  1  0  0  0  0  0999 V2000
   12.7870    3.3706   15.9639 Ir  0  0  0  0  0  0  0  0  0  0  0  0
   13.0789    2.3472   18.1229 Cl  0  0  0  0  0  0  0  0  0  0  0  0
   11.7866   -0.7318   14.3881 S   0  0  0  0  0  0  0  0  0  0  0  0
    9.8499    6.1812   17.9126 S   0  0  0  0  0  0  0  0  0  0  0  0
   16.6055    5.3399   14.2505 S   0  0  0  0  0  0  0  0  0  0  0  0
   12.9141    1.4781   15.1048 N   0  0  0  0  0  0  0  0  0  0  0  0
   11.9241    5.0136   16.9112 N   0  0  0  0  0  0  0  0  0  0  0  0
   14.8825    4.0864   15.7134 N   0  0  0  0  0  0  0  0  0  0  0  0
   10.9225    2.8381   15.9851 C   0  0  0  0  0  0  0  0  0  0  0  0
   12.6756    4.2751   14.1428 C   0  0  0  0  0  0  0  0  0  0  0  0
    9.2197    1.1923   15.4890 C   0  0  0  0  0  0  0  0  0  0  0  0
    8.2953    2.0780   16.0334 C   0  0  0  0  0  0  0  0  0  0  0  0
    8.6247    3.3176   16.5721 C   0  0  0  0  0  0  0  0  0  0  0  0
    9.9736    3.7014   16.5469 C   0  0  0  0  0  0  0  0  0  0  0  0
    8.7795   -0.1302   14.9522 C   0  0  0  0  0  0  0  0  0  0  0  0
    7.5681    4.1964   17.1570 C   0  0  0  0  0  0  0  0  0  0  0  0
   11.7312    0.8845   15.0185 C   0  0  2  0  0  3  0  0  0  0  0  0
   13.5153   -0.6080   14.2635 C   0  0  0  0  0  0  0  0  0  0  0  0
   14.4123   -1.5672   13.8243 C   0  0  0  0  0  0  0  0  0  0  0  0
   15.7565   -1.2541   13.8336 C   0  0  0  0  0  0  0  0  0  0  0  0
   16.1918   -0.0073   14.2785 C   0  0  0  0  0  0  0  0  0  0  0  0
   15.2995    0.9489   14.7105 C   0  0  0  0  0  0  0  0  0  0  0  0
   13.9355    0.6613   14.7052 C   0  0  0  0  0  0  0  0  0  0  0  0
   10.6129    4.8783   17.0562 C   0  0  1  0  0  3  0  0  0  0  0  0
   11.4012    6.9378   18.1133 C   0  0  0  0  0  0  0  0  0  0  0  0
   11.6973    8.1216   18.7678 C   0  0  0  0  0  0  0  0  0  0  0  0
   13.0170    8.5215   18.8242 C   0  0  0  0  0  0  0  0  0  0  0  0
   14.0187    7.7480   18.2408 C   0  0  0  0  0  0  0  0  0  0  0  0
   13.7241    6.5729   17.5855 C   0  0  0  0  0  0  0  0  0  0  0  0
   12.3982    6.1491   17.5077 C   0  0  0  0  0  0  0  0  0  0  0  0
   16.0522    4.0463   16.4229 C   0  0  0  0  0  0  0  0  0  0  0  0
   16.2443    3.4475   17.6664 C   0  0  0  0  0  0  0  0  0  0  0  0
   17.4982    3.5037   18.2352 C   0  0  0  0  0  0  0  0  0  0  0  0
   18.5577    4.1420   17.5922 C   0  0  0  0  0  0  0  0  0  0  0  0
   18.3862    4.7410   16.3590 C   0  0  0  0  0  0  0  0  0  0  0  0
   17.1300    4.6883   15.7803 C   0  0  0  0  0  0  0  0  0  0  0  0
   15.0044    4.7151   14.5763 C   0  0  2  0  0  3  0  0  0  0  0  0
   13.8821    4.8547   13.6932 C   0  0  0  0  0  0  0  0  0  0  0  0
   13.9761    5.5178   12.4688 C   0  0  0  0  0  0  0  0  0  0  0  0
   12.8649    5.6169   11.6611 C   0  0  0  0  0  0  0  0  0  0  0  0
   11.6665    5.0542   12.0789 C   0  0  0  0  0  0  0  0  0  0  0  0
   11.5777    4.3980   13.2958 C   0  0  0  0  0  0  0  0  0  0  0  0
   10.5657    1.5863   15.4682 C   0  0  0  0  0  0  0  0  0  0  0  0
    7.2566    1.7785   16.0501 H   0  0  0  0  0  0  0  0  0  0  0  0
    9.0729   -0.2370   13.9082 H   0  0  0  0  0  0  0  0  0  0  0  0
    7.7004   -0.2374   15.0262 H   0  0  0  0  0  0  0  0  0  0  0  0
    9.2491   -0.9405   15.5095 H   0  0  0  0  0  0  0  0  0  0  0  0
    7.5657    5.1705   16.6688 H   0  0  0  0  0  0  0  0  0  0  0  0
    7.7572    4.3613   18.2175 H   0  0  0  0  0  0  0  0  0  0  0  0
    6.5853    3.7456   17.0453 H   0  0  0  0  0  0  0  0  0  0  0  0
   14.0605   -2.5313   13.4929 H   0  0  0  0  0  0  0  0  0  0  0  0
   16.4770   -1.9852   13.5007 H   0  0  0  0  0  0  0  0  0  0  0  0
   17.2489    0.2115   14.2894 H   0  0  0  0  0  0  0  0  0  0  0  0
   15.6405    1.9025   15.0721 H   0  0  0  0  0  0  0  0  0  0  0  0
   10.9121    8.7038   19.2235 H   0  0  0  0  0  0  0  0  0  0  0  0
   13.2757    9.4376   19.3325 H   0  0  0  0  0  0  0  0  0  0  0  0
   15.0458    8.0735   18.3084 H   0  0  0  0  0  0  0  0  0  0  0  0
   14.5019    5.9679   17.1550 H   0  0  0  0  0  0  0  0  0  0  0  0
   15.4100    2.9592   18.1480 H   0  0  0  0  0  0  0  0  0  0  0  0
   17.6634    3.0446   19.1978 H   0  0  0  0  0  0  0  0  0  0  0  0
   19.5287    4.1706   18.0631 H   0  0  0  0  0  0  0  0  0  0  0  0
   19.2015    5.2365   15.8555 H   0  0  0  0  0  0  0  0  0  0  0  0
   14.9217    5.9471   12.1665 H   0  0  0  0  0  0  0  0  0  0  0  0
   12.9251    6.1272   10.7113 H   0  0  0  0  0  0  0  0  0  0  0  0
   10.7921    5.1286   11.4478 H   0  0  0  0  0  0  0  0  0  0  0  0
   10.6272    3.9731   13.5880 H   0  0  0  0  0  0  0  0  0  0  0  0
  1  9  1  0  0  0  0
  1  7  1  0  0  0  0
  1  2  1  0  0  0  0
  4 25  1  0  0  0  0
  5 37  1  0  0  0  0
  5 36  1  0  0  0  0
  6  1  1  0  0  0  0
  7 24  1  0  0  0  0
  7 30  1  0  0  0  0
  8  1  1  0  0  0  0
  8 31  1  0  0  0  0
  9 14  1  0  0  0  0
 10  1  1  0  0  0  0
 11 12  2  0  0  0  0
 12 44  1  0  0  0  0
 12 13  1  0  0  0  0
 13 16  1  0  0  0  0
 14 13  2  0  0  0  0
 15 46  1  0  0  0  0
 15 11  1  0  0  0  0
 15 47  1  0  0  0  0
 16 49  1  0  0  0  0
 17  3  1  1  0  0  0
 17  6  1  0  0  0  0
 17 43  1  0  0  0  0
 18  3  1  0  0  0  0
 18 23  1  0  0  0  0
 19 20  1  0  0  0  0
 19 18  2  0  0  0  0
 20 21  2  0  0  0  0
 21 53  1  0  0  0  0
 21 22  1  0  0  0  0
 22 54  1  0  0  0  0
 23 22  2  0  0  0  0
 23  6  1  0  0  0  0
 24 14  1  1  0  0  0
 24  4  1  0  0  0  0
 25 26  1  0  0  0  0
 26 27  2  0  0  0  0
 26 55  1  0  0  0  0
 27 56  1  0  0  0  0
 28 57  1  0  0  0  0
 28 27  1  0  0  0  0
 29 28  2  0  0  0  0
 30 29  1  0  0  0  0
 30 25  2  0  0  0  0
 31 32  1  0  0  0  0
 32 59  1  0  0  0  0
 32 33  2  0  0  0  0
 33 60  1  0  0  0  0
 34 61  1  0  0  0  0
 34 33  1  0  0  0  0
 35 34  2  0  0  0  0
 36 35  1  0  0  0  0
 36 31  2  0  0  0  0
 37 38  1  6  0  0  0
 37  8  1  0  0  0  0
 38 10  1  0  0  0  0
 39 38  2  0  0  0  0
 40 41  2  0  0  0  0
 40 39  1  0  0  0  0
 41 42  1  0  0  0  0
 42 66  1  0  0  0  0
 42 10  2  0  0  0  0
 43 11  1  0  0  0  0
 43  9  2  0  0  0  0
 45 15  1  0  0  0  0
 48 16  1  0  0  0  0
 50 16  1  0  0  0  0
 51 19  1  0  0  0  0
 52 20  1  0  0  0  0
 58 29  1  0  0  0  0
 62 35  1  0  0  0  0
 63 39  1  0  0  0  0
 64 40  1  0  0  0  0
 65 41  1  0  0  0  0
M  END
$$$$
