CSD_code = VAQVIT | q = 0 | S = 0 | Stoichiometry = C13H26Cl2N2O4Pt | MND = 6
 OpenBabel04212202103D

 48 49  0  0  1  0  0  0  0  0999 V2000
   -0.0554   20.5521    1.8495 Pt  0  0  0  0  0  0  0  0  0  0  0  0
   -1.5279   20.5011    0.0626 Cl  0  0  0  0  0  0  0  0  0  0  0  0
   -1.7928   19.9945    3.2325 Cl  0  0  0  0  0  0  0  0  0  0  0  0
    0.2902   18.5356    1.5683 O   0  0  0  0  0  0  0  0  0  0  0  0
    1.3150   18.6775   -0.4071 O   0  0  0  0  0  0  0  0  0  0  0  0
   -0.5973   22.5524    2.0437 O   0  0  0  0  0  0  0  0  0  0  0  0
    0.2953   23.0388    4.0230 O   0  0  0  0  0  0  0  0  0  0  0  0
    1.3336   20.6002    3.5252 N   0  0  2  0  0  4  0  0  0  0  0  0
    1.0245   21.5357    3.8862 H   0  0  0  0  0  0  0  0  0  0  0  0
    1.3634   21.2130    0.3817 N   0  0  0  0  0  4  0  0  0  0  0  0
    1.3071   20.3876   -0.2546 H   0  0  0  0  0  0  0  0  0  0  0  0
    0.8852   22.0048   -0.0462 H   0  0  0  0  0  0  0  0  0  0  0  0
    0.7622   18.0469    0.4875 C   0  0  0  0  0  0  0  0  0  0  0  0
    0.6135   16.5373    0.3954 C   0  0  0  0  0  0  0  0  0  0  0  0
    0.4641   16.1091    1.3814 H   0  0  0  0  0  0  0  0  0  0  0  0
    1.4870   16.1128   -0.0905 H   0  0  0  0  0  0  0  0  0  0  0  0
   -0.2625   16.3338   -0.2167 H   0  0  0  0  0  0  0  0  0  0  0  0
   -0.4458   23.2859    3.0737 C   0  0  0  0  0  0  0  0  0  0  0  0
   -1.2527   24.5709    3.0355 C   0  0  0  0  0  0  0  0  0  0  0  0
   -1.4257   24.8775    2.0087 H   0  0  0  0  0  0  0  0  0  0  0  0
   -0.7390   25.3449    3.5977 H   0  0  0  0  0  0  0  0  0  0  0  0
   -2.2123   24.3667    3.5058 H   0  0  0  0  0  0  0  0  0  0  0  0
    2.7308   20.7207    3.1122 C   0  0  0  0  0  0  0  0  0  0  0  0
    3.3458   20.8723    4.0062 H   0  0  0  0  0  0  0  0  0  0  0  0
    3.0462   19.7888    2.6334 H   0  0  0  0  0  0  0  0  0  0  0  0
    2.9678   21.8931    2.1580 C   0  0  0  0  0  0  0  0  0  0  0  0
    3.9971   22.2362    2.2712 H   0  0  0  0  0  0  0  0  0  0  0  0
    2.3116   22.7237    2.4252 H   0  0  0  0  0  0  0  0  0  0  0  0
    2.7602   21.5060    0.6927 C   0  0  0  0  0  0  0  0  0  0  0  0
    3.1231   22.3180    0.0541 H   0  0  0  0  0  0  0  0  0  0  0  0
    3.3537   20.6130    0.4770 H   0  0  0  0  0  0  0  0  0  0  0  0
    1.1041   19.6568    4.6380 C   0  0  0  0  0  0  0  0  0  0  0  0
    0.0180   19.5316    4.7043 H   0  0  0  0  0  0  0  0  0  0  0  0
    1.7195   18.2773    4.4221 C   0  0  0  0  0  0  0  0  0  0  0  0
    1.3906   17.8812    3.4616 H   0  0  0  0  0  0  0  0  0  0  0  0
    2.8103   18.3338    4.4296 H   0  0  0  0  0  0  0  0  0  0  0  0
    1.2648   17.3531    5.5500 C   0  0  0  0  0  0  0  0  0  0  0  0
    1.6942   16.3598    5.4080 H   0  0  0  0  0  0  0  0  0  0  0  0
    0.1784   17.2584    5.5191 H   0  0  0  0  0  0  0  0  0  0  0  0
    1.6904   17.9137    6.9040 C   0  0  0  0  0  0  0  0  0  0  0  0
    2.7815   17.9484    6.9557 H   0  0  0  0  0  0  0  0  0  0  0  0
    1.3407   17.2580    7.7029 H   0  0  0  0  0  0  0  0  0  0  0  0
    1.1282   19.3181    7.1051 C   0  0  0  0  0  0  0  0  0  0  0  0
    1.4628   19.7200    8.0632 H   0  0  0  0  0  0  0  0  0  0  0  0
    0.0381   19.2738    7.1209 H   0  0  0  0  0  0  0  0  0  0  0  0
    1.5761   20.2407    5.9741 C   0  0  0  0  0  0  0  0  0  0  0  0
    1.1496   21.2360    6.1108 H   0  0  0  0  0  0  0  0  0  0  0  0
    2.6652   20.3252    5.9961 H   0  0  0  0  0  0  0  0  0  0  0  0
  1  6  1  0  0  0  0
  1  3  1  0  0  0  0
  1  8  1  0  0  0  0
  2  1  1  0  0  0  0
  4  1  1  0  0  0  0
  5 13  2  0  0  0  0
  6 18  1  0  0  0  0
  8  9  1  1  0  0  0
  8 32  1  0  0  0  0
 10 29  1  0  0  0  0
 10  1  1  0  0  0  0
 11 10  1  0  0  0  0
 12 10  1  0  0  0  0
 13  4  1  0  0  0  0
 14 13  1  0  0  0  0
 14 15  1  0  0  0  0
 16 14  1  0  0  0  0
 17 14  1  0  0  0  0
 18  7  2  0  0  0  0
 19 18  1  0  0  0  0
 19 22  1  0  0  0  0
 19 21  1  0  0  0  0
 20 19  1  0  0  0  0
 23  8  1  0  0  0  0
 23 24  1  0  0  0  0
 25 23  1  0  0  0  0
 26 27  1  0  0  0  0
 26 28  1  0  0  0  0
 26 23  1  0  0  0  0
 29 26  1  0  0  0  0
 30 29  1  0  0  0  0
 31 29  1  0  0  0  0
 32 33  1  0  0  0  0
 32 46  1  0  0  0  0
 34 36  1  0  0  0  0
 34 32  1  0  0  0  0
 34 37  1  0  0  0  0
 35 34  1  0  0  0  0
 37 40  1  0  0  0  0
 38 37  1  0  0  0  0
 39 37  1  0  0  0  0
 40 41  1  0  0  0  0
 40 43  1  0  0  0  0
 40 42  1  0  0  0  0
 43 45  1  0  0  0  0
 43 44  1  0  0  0  0
 46 48  1  0  0  0  0
 46 47  1  0  0  0  0
 46 43  1  0  0  0  0
M  END
$$$$
