CSD_code = VARHUU | q = 0 | S = 0 | Stoichiometry = C15H11BrMnN3O3S | MND = 6
 OpenBabel04212202103D

 35 37  0  0  1  0  0  0  0  0999 V2000
    8.2210    7.2288    1.0631 Br  0  0  0  0  0  0  0  0  0  0  0  0
    9.8606    7.4935    3.4962 C   0  0  0  0  0  2  0  0  0  0  0  0
    6.7539    5.0916    2.9198 N   0  0  0  0  0  0  0  0  0  0  0  0
   10.8381    8.0785    3.6195 O   0  0  0  0  0  1  0  0  0  0  0  0
    9.7614    4.3447    2.4524 S   0  0  0  0  0  0  0  0  0  0  0  0
    8.3683    6.5337    3.2991 Mn  0  0  0  0  0  0  0  0  0  0  0  0
    8.8811    5.3807    5.9311 O   0  0  0  0  0  1  0  0  0  0  0  0
    8.6539    5.8291    4.8890 C   0  0  0  0  0  2  0  0  0  0  0  0
    9.9401    2.4268    4.2814 N   0  0  0  0  0  0  0  0  0  0  0  0
    9.5075    1.9647    5.0742 H   0  0  0  0  0  0  0  0  0  0  0  0
    6.6979    8.6218    4.5071 O   0  0  0  0  0  1  0  0  0  0  0  0
    7.3416    7.8015    4.0173 C   0  0  0  0  0  2  0  0  0  0  0  0
    7.8316    3.1985    3.8983 N   0  0  0  0  0  0  0  0  0  0  0  0
    7.5728    2.4080    4.4781 H   0  0  0  0  0  0  0  0  0  0  0  0
    5.6445    5.5903    2.3616 C   0  0  0  0  0  3  0  0  0  0  0  0
    5.6913    6.6197    2.0303 H   0  0  0  0  0  0  0  0  0  0  0  0
    5.5818    3.0171    3.1714 C   0  0  0  0  0  0  0  0  0  0  0  0
    5.6073    1.9893    3.5020 H   0  0  0  0  0  0  0  0  0  0  0  0
    4.4416    3.5506    2.6096 C   0  0  0  0  0  0  0  0  0  0  0  0
    3.5514    2.9511    2.5000 H   0  0  0  0  0  0  0  0  0  0  0  0
    4.4804    4.8703    2.1845 C   0  0  0  0  0  0  0  0  0  0  0  0
    3.6252    5.3395    1.7280 H   0  0  0  0  0  0  0  0  0  0  0  0
    9.1672    3.2946    3.5970 C   0  0  2  0  0  3  0  0  0  0  0  0
    6.7268    3.8091    3.2986 C   0  0  0  0  0  0  0  0  0  0  0  0
   11.3436    2.2991    4.2710 C   0  0  0  0  0  0  0  0  0  0  0  0
   11.9635    1.9742    5.4751 C   0  0  0  0  0  0  0  0  0  0  0  0
   11.3692    1.8596    6.3712 H   0  0  0  0  0  0  0  0  0  0  0  0
   13.3341    1.8139    5.5281 C   0  0  0  0  0  0  0  0  0  0  0  0
   13.8069    1.5702    6.4673 H   0  0  0  0  0  0  0  0  0  0  0  0
   14.0963    1.9689    4.3814 C   0  0  0  0  0  0  0  0  0  0  0  0
   15.1677    1.8480    4.4241 H   0  0  0  0  0  0  0  0  0  0  0  0
   13.4769    2.2707    3.1815 C   0  0  0  0  0  0  0  0  0  0  0  0
   14.0627    2.3798    2.2819 H   0  0  0  0  0  0  0  0  0  0  0  0
   12.1035    2.4291    3.1156 C   0  0  0  0  0  0  0  0  0  0  0  0
   11.6316    2.6452    2.1727 H   0  0  0  0  0  0  0  0  0  0  0  0
  1  6  1  0  0  0  0
  2  4  1  0  0  0  0
  3 24  1  0  0  0  0
  3  6  1  0  0  0  0
  5  6  1  0  0  0  0
  5 23  1  0  0  0  0
  6  2  1  0  0  0  0
  6 12  1  0  0  0  0
  6  8  1  0  0  0  0
  8  7  1  0  0  0  0
  9 10  1  0  0  0  0
 12 11  1  0  0  0  0
 13 14  1  0  0  0  0
 15  3  1  0  0  0  0
 16 15  1  0  0  0  0
 17 24  2  0  0  0  0
 17 18  1  0  0  0  0
 19 17  1  0  0  0  0
 20 19  1  0  0  0  0
 21 15  1  0  0  0  0
 21 19  2  0  0  0  0
 22 21  1  0  0  0  0
 23 13  1  0  0  0  0
 23  9  1  6  0  0  0
 24 13  1  0  0  0  0
 25  9  1  0  0  0  0
 25 26  1  0  0  0  0
 26 28  2  0  0  0  0
 26 27  1  0  0  0  0
 28 29  1  0  0  0  0
 30 31  1  0  0  0  0
 30 28  1  0  0  0  0
 32 30  2  0  0  0  0
 33 32  1  0  0  0  0
 34 32  1  0  0  0  0
 34 25  2  0  0  0  0
 35 34  1  0  0  0  0
M  END
$$$$
