CSD_code = VARWOB | q = 1 | S = 0 | Stoichiometry = C25H34Cl2CoN4(1+) | MND = 6
 OpenBabel04212202103D

 66 72  0  0  1  0  0  0  0  0999 V2000
    0.7772    6.1773   19.3783 Co  0  0  0  0  0  0  0  0  0  0  0  0
    2.1453    4.6489   18.5221 Cl  0  0  0  0  0  0  0  0  0  0  0  0
   -0.5931    7.7002   20.2408 Cl  0  0  0  0  0  0  0  0  0  0  0  0
   -0.6302    5.7465   18.0660 N   0  0  1  0  0  4  0  0  0  0  0  0
   -1.3329    6.4678   18.2637 H   0  0  0  0  0  0  0  0  0  0  0  0
   -0.0030    4.7507   20.5030 N   0  0  2  0  0  4  0  0  0  0  0  0
    0.6094    3.9542   20.2941 H   0  0  0  0  0  0  0  0  0  0  0  0
    2.1879    6.6103   20.6908 N   0  0  2  0  0  4  0  0  0  0  0  0
    2.8935    5.8926   20.4901 H   0  0  0  0  0  0  0  0  0  0  0  0
    1.5507    7.5982   18.2556 N   0  0  1  0  0  4  0  0  0  0  0  0
    0.9372    8.3967   18.4529 H   0  0  0  0  0  0  0  0  0  0  0  0
   -0.3319    5.8093   16.6308 C   0  0  0  0  0  0  0  0  0  0  0  0
   -1.2441    5.5837   16.0657 H   0  0  0  0  0  0  0  0  0  0  0  0
    0.4102    5.0415   16.3993 H   0  0  0  0  0  0  0  0  0  0  0  0
   -1.2177    4.4533   18.4440 C   0  0  0  0  0  0  0  0  0  0  0  0
   -0.5458    3.6596   18.1054 H   0  0  0  0  0  0  0  0  0  0  0  0
   -2.1963    4.3095   17.9743 H   0  0  0  0  0  0  0  0  0  0  0  0
   -1.3309    4.4314   19.9609 C   0  0  0  0  0  0  0  0  0  0  0  0
   -2.0319    5.2005   20.2968 H   0  0  0  0  0  0  0  0  0  0  0  0
   -1.6812    3.4567   20.3160 H   0  0  0  0  0  0  0  0  0  0  0  0
   -0.0328    4.9093   21.9608 C   0  0  0  0  0  0  0  0  0  0  0  0
   -0.4463    4.0021   22.4162 H   0  0  0  0  0  0  0  0  0  0  0  0
   -0.6919    5.7467   22.2011 H   0  0  0  0  0  0  0  0  0  0  0  0
    1.3583    5.1720   22.5268 C   0  0  0  0  0  0  0  0  0  0  0  0
    2.0489    4.3918   22.1971 H   0  0  0  0  0  0  0  0  0  0  0  0
    1.3019    5.1287   23.6142 H   0  0  0  0  0  0  0  0  0  0  0  0
    1.8915    6.5429   22.1257 C   0  0  0  0  0  0  0  0  0  0  0  0
    1.1488    7.3093   22.3589 H   0  0  0  0  0  0  0  0  0  0  0  0
    2.8027    6.7603   22.6948 H   0  0  0  0  0  0  0  0  0  0  0  0
    2.7682    7.9066   20.3125 C   0  0  0  0  0  0  0  0  0  0  0  0
    2.0926    8.6968   20.6515 H   0  0  0  0  0  0  0  0  0  0  0  0
    3.7466    8.0554   20.7809 H   0  0  0  0  0  0  0  0  0  0  0  0
    2.8776    7.9270   18.7952 C   0  0  0  0  0  0  0  0  0  0  0  0
    3.2199    8.9027   18.4357 H   0  0  0  0  0  0  0  0  0  0  0  0
    3.5833    7.1625   18.4586 H   0  0  0  0  0  0  0  0  0  0  0  0
    1.5872    7.4267   16.7999 C   0  0  0  0  0  0  0  0  0  0  0  0
    2.2400    6.5811   16.5719 H   0  0  0  0  0  0  0  0  0  0  0  0
    2.0130    8.3259   16.3398 H   0  0  0  0  0  0  0  0  0  0  0  0
    0.1979    7.1817   16.2139 C   0  0  1  0  0  0  0  0  0  0  0  0
   -0.4808    7.9574   16.5883 H   0  0  0  0  0  0  0  0  0  0  0  0
    0.2505    7.2822   14.6767 C   0  0  0  0  0  0  0  0  0  0  0  0
   -0.7198    7.0010   14.2665 H   0  0  0  0  0  0  0  0  0  0  0  0
    0.9684    6.5578   14.2990 H   0  0  0  0  0  0  0  0  0  0  0  0
    0.5954    8.6785   14.2176 C   0  0  0  0  0  0  0  0  0  0  0  0
   -0.4110    9.6620   14.2325 C   0  0  0  0  0  0  0  0  0  0  0  0
   -1.7528    9.4056   14.6290 C   0  0  0  0  0  0  0  0  0  0  0  0
   -2.0492    8.4096   14.9193 H   0  0  0  0  0  0  0  0  0  0  0  0
   -2.6976   10.3866   14.6340 C   0  0  0  0  0  0  0  0  0  0  0  0
   -3.7099   10.1590   14.9341 H   0  0  0  0  0  0  0  0  0  0  0  0
   -2.3778   11.7021   14.2446 C   0  0  0  0  0  0  0  0  0  0  0  0
   -3.1447   12.4609   14.2568 H   0  0  0  0  0  0  0  0  0  0  0  0
   -1.1109   11.9950   13.8481 C   0  0  0  0  0  0  0  0  0  0  0  0
   -0.8453   12.9937   13.5347 H   0  0  0  0  0  0  0  0  0  0  0  0
   -0.1006   10.9993   13.8275 C   0  0  0  0  0  0  0  0  0  0  0  0
    1.1909   11.3061   13.4170 C   0  0  0  0  0  0  0  0  0  0  0  0
    1.4215   12.3162   13.1107 H   0  0  0  0  0  0  0  0  0  0  0  0
    2.1920   10.3434   13.3880 C   0  0  0  0  0  0  0  0  0  0  0  0
    3.5022   10.6799   12.9588 C   0  0  0  0  0  0  0  0  0  0  0  0
    3.6876   11.6979   12.6497 H   0  0  0  0  0  0  0  0  0  0  0  0
    4.4939    9.7510   12.9305 C   0  0  0  0  0  0  0  0  0  0  0  0
    5.4874   10.0097   12.5987 H   0  0  0  0  0  0  0  0  0  0  0  0
    4.2182    8.4293   13.3332 C   0  0  0  0  0  0  0  0  0  0  0  0
    5.0090    7.6945   13.3028 H   0  0  0  0  0  0  0  0  0  0  0  0
    2.9733    8.0695   13.7514 C   0  0  0  0  0  0  0  0  0  0  0  0
    2.8119    7.0435   14.0424 H   0  0  0  0  0  0  0  0  0  0  0  0
    1.8990    9.0019   13.7990 C   0  0  0  0  0  0  0  0  0  0  0  0
  1  3  1  0  0  0  0
  1  6  1  0  0  0  0
  1  8  1  0  0  0  0
  2  1  1  0  0  0  0
  4  5  1  1  0  0  0
  4 15  1  0  0  0  0
  4  1  1  0  0  0  0
  6  7  1  6  0  0  0
  6 21  1  0  0  0  0
  8  9  1  6  0  0  0
  8 27  1  0  0  0  0
 10 11  1  1  0  0  0
 10 33  1  0  0  0  0
 10  1  1  0  0  0  0
 12  4  1  0  0  0  0
 13 12  1  0  0  0  0
 14 12  1  0  0  0  0
 15 18  1  0  0  0  0
 16 15  1  0  0  0  0
 17 15  1  0  0  0  0
 18 19  1  0  0  0  0
 18 20  1  0  0  0  0
 18  6  1  0  0  0  0
 21 23  1  0  0  0  0
 21 22  1  0  0  0  0
 21 24  1  0  0  0  0
 24 26  1  0  0  0  0
 25 24  1  0  0  0  0
 27 28  1  0  0  0  0
 27 24  1  0  0  0  0
 27 29  1  0  0  0  0
 30 31  1  0  0  0  0
 30  8  1  0  0  0  0
 30 32  1  0  0  0  0
 33 30  1  0  0  0  0
 34 33  1  0  0  0  0
 35 33  1  0  0  0  0
 36 10  1  0  0  0  0
 37 36  1  0  0  0  0
 38 36  1  0  0  0  0
 39 40  1  1  0  0  0
 39 12  1  0  0  0  0
 39 36  1  0  0  0  0
 41 39  1  0  0  0  0
 42 41  1  0  0  0  0
 43 41  1  0  0  0  0
 44 45  1  0  0  0  0
 44 41  1  0  0  0  0
 45 46  1  0  0  0  0
 46 48  2  0  0  0  0
 46 47  1  0  0  0  0
 48 49  1  0  0  0  0
 50 51  1  0  0  0  0
 50 48  1  0  0  0  0
 52 50  2  0  0  0  0
 53 52  1  0  0  0  0
 54 52  1  0  0  0  0
 54 45  2  0  0  0  0
 55 54  1  0  0  0  0
 56 55  1  0  0  0  0
 57 55  2  0  0  0  0
 57 66  1  0  0  0  0
 58 57  1  0  0  0  0
 59 58  1  0  0  0  0
 60 58  2  0  0  0  0
 60 62  1  0  0  0  0
 61 60  1  0  0  0  0
 62 64  2  0  0  0  0
 63 62  1  0  0  0  0
 64 66  1  0  0  0  0
 64 65  1  0  0  0  0
 66 44  2  0  0  0  0
M  END
$$$$
