CSD_code = VARYAO | q = 0 | S = 0 | Stoichiometry = C15H18ClN3Pd | MND = 4
 OpenBabel04212202103D

 38 40  0  0  0  0  0  0  0  0999 V2000
    8.1177    8.0971    1.7810 Pd  0  0  1  0  0  0  0  0  0  0  0  0
    5.9397    7.7367    1.0819 Cl  0  0  0  0  0  0  0  0  0  0  0  0
    8.9215    7.3708    0.1002 N   0  0  0  0  0  0  0  0  0  0  0  0
   10.6719    6.8744   -1.1262 N   0  0  0  0  0  0  0  0  0  0  0  0
    6.4963    9.1037    4.1131 N   0  0  0  0  0  2  0  0  0  0  0  0
    8.4716    6.8671   -1.0752 C   0  0  0  0  0  0  0  0  0  0  0  0
    9.5515    6.5547   -1.8459 C   0  0  0  0  0  0  0  0  0  0  0  0
   10.2549    7.3724    0.0640 C   0  0  0  0  0  0  0  0  0  0  0  0
    7.2802    8.7660    3.3206 C   0  0  0  0  0  2  0  0  0  0  0  0
    5.3259    9.3815    4.8511 C   0  0  0  0  0  0  0  0  0  0  0  0
    5.6625   10.4050    5.9368 C   0  0  0  0  0  0  0  0  0  0  0  0
    4.8474    8.0613    5.4626 C   0  0  0  0  0  0  0  0  0  0  0  0
    4.2896    9.9289    3.8649 C   0  0  0  0  0  0  0  0  0  0  0  0
   12.0144    6.6942   -1.6035 C   0  0  0  0  0  0  0  0  0  0  0  0
   10.0747    8.3256    2.2492 C   0  0  0  0  0  0  0  0  0  0  0  0
   10.9563    7.8796    1.2317 C   0  0  0  0  0  0  0  0  0  0  0  0
   12.3378    7.9439    1.3942 C   0  0  0  0  0  0  0  0  0  0  0  0
   12.8678    8.4547    2.5652 C   0  0  0  0  0  0  0  0  0  0  0  0
   12.0260    8.8991    3.5693 C   0  0  0  0  0  0  0  0  0  0  0  0
   10.6479    8.8331    3.4115 C   0  0  0  0  0  0  0  0  0  0  0  0
    7.4227    6.7651   -1.2831 H   0  0  0  0  0  0  0  0  0  0  0  0
    9.6149    6.1391   -2.8305 H   0  0  0  0  0  0  0  0  0  0  0  0
   13.0103    7.5997    0.6242 H   0  0  0  0  0  0  0  0  0  0  0  0
   13.9398    8.5040    2.6911 H   0  0  0  0  0  0  0  0  0  0  0  0
   12.4443    9.2982    4.4827 H   0  0  0  0  0  0  0  0  0  0  0  0
   10.0136    9.1869    4.2156 H   0  0  0  0  0  0  0  0  0  0  0  0
    6.0491   11.3183    5.4901 H   0  0  0  0  0  0  0  0  0  0  0  0
    6.4122   10.0071    6.6173 H   0  0  0  0  0  0  0  0  0  0  0  0
    4.7678   10.6458    6.5045 H   0  0  0  0  0  0  0  0  0  0  0  0
    5.6057    7.6504    6.1258 H   0  0  0  0  0  0  0  0  0  0  0  0
    3.9355    8.2266    6.0300 H   0  0  0  0  0  0  0  0  0  0  0  0
    4.6482    7.3403    4.6733 H   0  0  0  0  0  0  0  0  0  0  0  0
    4.6158   10.8855    3.4632 H   0  0  0  0  0  0  0  0  0  0  0  0
    4.1670    9.2346    3.0360 H   0  0  0  0  0  0  0  0  0  0  0  0
    3.3343   10.0621    4.3655 H   0  0  0  0  0  0  0  0  0  0  0  0
   11.9755    6.2962   -2.6165 H   0  0  0  0  0  0  0  0  0  0  0  0
   12.5471    7.6469   -1.6212 H   0  0  0  0  0  0  0  0  0  0  0  0
   12.5574    5.9892   -0.9706 H   0  0  0  0  0  0  0  0  0  0  0  0
  1  2  1  1  0  0  0
  1 15  2  0  0  0  0
  1  9  1  0  0  0  0
  3  1  1  0  0  0  0
  4  8  1  0  0  0  0
  5 10  1  0  0  0  0
  6  3  1  0  0  0  0
  7  4  1  0  0  0  0
  7  6  2  0  0  0  0
  8  3  1  0  0  0  0
  8 16  2  0  0  0  0
  9  5  1  0  0  0  0
 10 12  1  0  0  0  0
 10 11  1  0  0  0  0
 11 29  1  0  0  0  0
 11 28  1  0  0  0  0
 12 31  1  0  0  0  0
 12 30  1  0  0  0  0
 13 35  1  0  0  0  0
 13 10  1  0  0  0  0
 14  4  1  0  0  0  0
 14 38  1  0  0  0  0
 15 20  1  0  0  0  0
 16 17  1  0  0  0  0
 16 15  1  0  0  0  0
 17 18  2  0  0  0  0
 18 24  1  0  0  0  0
 18 19  1  0  0  0  0
 19 25  1  0  0  0  0
 20 19  2  0  0  0  0
 20 26  1  0  0  0  0
 21  6  1  0  0  0  0
 22  7  1  0  0  0  0
 23 17  1  0  0  0  0
 27 11  1  0  0  0  0
 32 12  1  0  0  0  0
 33 13  1  0  0  0  0
 34 13  1  0  0  0  0
 36 14  1  0  0  0  0
 37 14  1  0  0  0  0
M  END
$$$$
