CSD_code = VASVOC | q = 0 | S = 0 | Stoichiometry = C21H19ClNO3PPt | MND = 4
 OpenBabel04212202103D

 47 50  0  0  0  0  0  0  0  0999 V2000
    3.7576    4.2303    3.6881 Pt  0  0  1  0  0  0  0  0  0  0  0  0
    3.6662    3.8665    5.9361 Cl  0  0  0  0  0  0  0  0  0  0  0  0
    1.7318    4.4925    3.8544 N   0  0  0  0  0  0  0  0  0  0  0  0
    0.8052    4.3905    4.5266 C   0  0  0  0  0  2  0  0  0  0  0  0
   -0.3657    4.3026    5.3471 C   0  0  0  0  0  0  0  0  0  0  0  0
   -0.0289    4.2182    6.3851 H   0  0  0  0  0  0  0  0  0  0  0  0
   -0.9054    3.3880    5.0845 H   0  0  0  0  0  0  0  0  0  0  0  0
   -1.2655    5.5290    5.1718 C   0  0  0  0  0  0  0  0  0  0  0  0
   -0.7299    6.4363    5.4402 H   0  0  0  0  0  0  0  0  0  0  0  0
   -2.1371    5.4373    5.8143 H   0  0  0  0  0  0  0  0  0  0  0  0
   -1.6003    5.6155    4.1405 H   0  0  0  0  0  0  0  0  0  0  0  0
    4.0396    4.6454    1.4868 P   0  0  0  0  0  4  0  0  0  0  0  0
    5.4670    3.9897    1.1399 O   0  0  0  0  0  0  0  0  0  0  0  0
    6.2806    3.7765    2.2567 C   0  0  0  0  0  0  0  0  0  0  0  0
    5.7427    3.8492    3.5483 C   0  0  0  0  0  0  0  0  0  0  0  0
    6.6290    3.6643    4.6037 C   0  0  0  0  0  0  0  0  0  0  0  0
    6.2664    3.7170    5.6191 H   0  0  0  0  0  0  0  0  0  0  0  0
    7.9749    3.4091    4.3838 C   0  0  0  0  0  0  0  0  0  0  0  0
    8.6344    3.2708    5.2276 H   0  0  0  0  0  0  0  0  0  0  0  0
    8.4707    3.3284    3.0967 C   0  0  0  0  0  0  0  0  0  0  0  0
    9.5163    3.1248    2.9214 H   0  0  0  0  0  0  0  0  0  0  0  0
    7.6182    3.5175    2.0217 C   0  0  0  0  0  0  0  0  0  0  0  0
    7.9743    3.4730    1.0039 H   0  0  0  0  0  0  0  0  0  0  0  0
    3.2082    4.3080    0.1773 O   0  0  0  0  0  0  0  0  0  0  0  0
    2.5679    3.0984    0.0086 C   0  0  0  0  0  0  0  0  0  0  0  0
    2.6787    2.0555    0.9157 C   0  0  0  0  0  0  0  0  0  0  0  0
    3.2949    2.1695    1.8027 H   0  0  0  0  0  0  0  0  0  0  0  0
    2.0026    0.8702    0.6808 C   0  0  0  0  0  0  0  0  0  0  0  0
    2.0915    0.0612    1.3896 H   0  0  0  0  0  0  0  0  0  0  0  0
    1.2244    0.7206   -0.4541 C   0  0  0  0  0  0  0  0  0  0  0  0
    0.7033   -0.2070   -0.6346 H   0  0  0  0  0  0  0  0  0  0  0  0
    1.1198    1.7644   -1.3588 C   0  0  0  0  0  0  0  0  0  0  0  0
    0.5160    1.6540   -2.2468 H   0  0  0  0  0  0  0  0  0  0  0  0
    1.7867    2.9543   -1.1312 C   0  0  0  0  0  0  0  0  0  0  0  0
    1.7172    3.7783   -1.8237 H   0  0  0  0  0  0  0  0  0  0  0  0
    4.2556    6.2034    1.1421 O   0  0  0  0  0  0  0  0  0  0  0  0
    4.9463    6.8604    2.1592 C   0  0  0  0  0  0  0  0  0  0  0  0
    4.3088    7.1208    3.3691 C   0  0  0  0  0  0  0  0  0  0  0  0
    3.2466    6.9245    3.4678 H   0  0  0  0  0  0  0  0  0  0  0  0
    5.0232    7.7114    4.3999 C   0  0  0  0  0  0  0  0  0  0  0  0
    4.5339    7.9101    5.3406 H   0  0  0  0  0  0  0  0  0  0  0  0
    6.3606    8.0281    4.2275 C   0  0  0  0  0  0  0  0  0  0  0  0
    6.9185    8.4691    5.0391 H   0  0  0  0  0  0  0  0  0  0  0  0
    6.9819    7.7785    3.0163 C   0  0  0  0  0  0  0  0  0  0  0  0
    8.0233    8.0258    2.8789 H   0  0  0  0  0  0  0  0  0  0  0  0
    6.2797    7.1861    1.9796 C   0  0  0  0  0  0  0  0  0  0  0  0
    6.7550    6.9598    1.0377 H   0  0  0  0  0  0  0  0  0  0  0  0
  1  3  2  0  0  0  0
  1  2  1  1  0  0  0
  3  4  1  0  0  0  0
  4  5  1  0  0  0  0
  5  6  1  0  0  0  0
  7  5  1  0  0  0  0
  8  5  1  0  0  0  0
  8  9  1  0  0  0  0
  8 10  1  0  0  0  0
 11  8  1  0  0  0  0
 12  1  1  0  0  0  0
 13 12  1  0  0  0  0
 13 14  1  0  0  0  0
 14 15  1  0  0  0  0
 15  1  1  0  0  0  0
 15 16  2  0  0  0  0
 16 17  1  0  0  0  0
 18 16  1  0  0  0  0
 18 19  1  0  0  0  0
 20 18  2  0  0  0  0
 21 20  1  0  0  0  0
 22 14  2  0  0  0  0
 22 20  1  0  0  0  0
 23 22  1  0  0  0  0
 24 12  1  0  0  0  0
 25 24  1  0  0  0  0
 25 26  1  0  0  0  0
 26 27  1  0  0  0  0
 28 26  2  0  0  0  0
 28 29  1  0  0  0  0
 30 28  1  0  0  0  0
 31 30  1  0  0  0  0
 32 34  1  0  0  0  0
 32 30  2  0  0  0  0
 33 32  1  0  0  0  0
 34 25  2  0  0  0  0
 35 34  1  0  0  0  0
 36 12  1  0  0  0  0
 36 37  1  0  0  0  0
 37 38  1  0  0  0  0
 38 39  1  0  0  0  0
 38 40  2  0  0  0  0
 40 41  1  0  0  0  0
 42 40  1  0  0  0  0
 42 43  1  0  0  0  0
 44 42  2  0  0  0  0
 45 44  1  0  0  0  0
 46 37  2  0  0  0  0
 46 44  1  0  0  0  0
 47 46  1  0  0  0  0
M  END
$$$$
