CSD_code = VATHUW | q = 0 | S = 0 | Stoichiometry = C14H15CdCl2N5O | MND = 5
 OpenBabel04212202103D

 38 41  0  0  1  0  0  0  0  0999 V2000
    0.9387    9.3907    7.2588 Cd  0  0  0  0  0  0  0  0  0  0  0  0
    0.2159    8.9372    5.0066 O   0  0  0  0  0  0  0  0  0  0  0  0
    3.1743    9.6098    6.4438 Cl  0  0  0  0  0  0  0  0  0  0  0  0
    0.4015    7.9288    8.9745 Cl  0  0  0  0  0  0  0  0  0  0  0  0
    0.4777   11.4992    8.4241 N   0  0  0  0  0  0  0  0  0  0  0  0
   -0.0912   13.9354    9.5369 N   0  0  0  0  0  0  0  0  0  0  0  0
    0.7427   11.3761    5.7722 N   0  0  2  0  0  0  0  0  0  0  0  0
    1.1895   10.9562    4.5774 N   0  0  0  0  0  0  0  0  0  0  0  0
    2.0555   11.3623    4.2236 H   0  0  0  0  0  0  0  0  0  0  0  0
    1.5906    9.1706    3.1932 N   0  0  0  0  0  0  0  0  0  0  0  0
    2.1683    9.8343    2.6950 H   0  0  0  0  0  0  0  0  0  0  0  0
    0.0510   11.5818    9.6734 C   0  0  0  0  0  3  0  0  0  0  0  0
   -0.0847   10.6482   10.2035 H   0  0  0  0  0  0  0  0  0  0  0  0
   -0.1871   12.8271   10.2467 C   0  0  0  0  0  0  0  0  0  0  0  0
   -0.4749   12.9417   11.2817 H   0  0  0  0  0  0  0  0  0  0  0  0
    0.2938   13.8627    8.2707 C   0  0  0  0  0  0  0  0  0  0  0  0
    0.6442   12.6193    7.7120 C   0  0  0  0  0  0  0  0  0  0  0  0
    0.2789   15.1449    7.5053 C   0  0  0  0  0  0  0  0  0  0  0  0
   -0.4836   15.7938    7.9286 H   0  0  0  0  0  0  0  0  0  0  0  0
    0.0777   14.9737    6.4521 H   0  0  0  0  0  0  0  0  0  0  0  0
    1.2353   15.6569    7.6051 H   0  0  0  0  0  0  0  0  0  0  0  0
    1.1948   12.4149    6.3617 C   0  0  1  0  0  3  0  0  0  0  0  0
    2.3017   13.2834    5.8424 C   0  0  0  0  0  0  0  0  0  0  0  0
    3.1673   12.6449    5.6511 H   0  0  0  0  0  0  0  0  0  0  0  0
    2.5901   14.0298    6.5735 H   0  0  0  0  0  0  0  0  0  0  0  0
    2.0196   13.7795    4.9137 H   0  0  0  0  0  0  0  0  0  0  0  0
    0.9635    9.6028    4.3080 C   0  0  2  0  0  3  0  0  0  0  0  0
    1.6842    7.8543    2.7062 C   0  0  0  0  0  0  0  0  0  0  0  0
    2.3824    7.6653    1.5160 C   0  0  0  0  0  0  0  0  0  0  0  0
    2.8220    8.5146    1.0110 H   0  0  0  0  0  0  0  0  0  0  0  0
    2.5189    6.3984    0.9822 C   0  0  0  0  0  0  0  0  0  0  0  0
    3.0622    6.2636    0.0589 H   0  0  0  0  0  0  0  0  0  0  0  0
    1.9648    5.3076    1.6313 C   0  0  0  0  0  0  0  0  0  0  0  0
    2.0730    4.3176    1.2156 H   0  0  0  0  0  0  0  0  0  0  0  0
    1.2766    5.4953    2.8175 C   0  0  0  0  0  0  0  0  0  0  0  0
    0.8481    4.6493    3.3328 H   0  0  0  0  0  0  0  0  0  0  0  0
    1.1295    6.7602    3.3594 C   0  0  0  0  0  0  0  0  0  0  0  0
    0.5941    6.8952    4.2849 H   0  0  0  0  0  0  0  0  0  0  0  0
  1  5  1  0  0  0  0
  1  4  1  0  0  0  0
  2  1  1  0  0  0  0
  3  1  1  0  0  0  0
  5 12  1  0  0  0  0
  6 14  2  0  0  0  0
  7  8  1  6  0  0  0
  7 22  1  0  0  0  0
  7  1  1  0  0  0  0
  9  8  1  0  0  0  0
 11 10  1  0  0  0  0
 12 13  1  0  0  0  0
 12 14  1  0  0  0  0
 14 15  1  0  0  0  0
 16  6  1  0  0  0  0
 17 16  2  0  0  0  0
 17  5  1  0  0  0  0
 18 21  1  0  0  0  0
 18 19  1  0  0  0  0
 18 16  1  0  0  0  0
 20 18  1  0  0  0  0
 22 23  1  1  0  0  0
 22 17  1  0  0  0  0
 23 25  1  0  0  0  0
 24 23  1  0  0  0  0
 26 23  1  0  0  0  0
 27 10  1  6  0  0  0
 27  8  1  0  0  0  0
 27  2  1  0  0  0  0
 28 10  1  0  0  0  0
 28 37  1  0  0  0  0
 29 28  2  0  0  0  0
 30 29  1  0  0  0  0
 31 29  1  0  0  0  0
 31 33  2  0  0  0  0
 32 31  1  0  0  0  0
 33 35  1  0  0  0  0
 34 33  1  0  0  0  0
 35 36  1  0  0  0  0
 35 37  2  0  0  0  0
 37 38  1  0  0  0  0
M  END
$$$$
