CSD_code = VATVUH | q = 0 | S = 0 | Stoichiometry = C22H34Cl2Si2Ti | MND = 12
 OpenBabel04212202103D

 61 64  0  0  1  0  0  0  0  0999 V2000
    2.7791   13.2941    6.9193 Ti  0  0  0  0  0  0  0  0  0  0  0  0
    4.4613   12.1119    7.7637 Cl  0  0  0  0  0  0  0  0  0  0  0  0
    2.6756   14.6716    8.6872 Cl  0  0  0  0  0  0  0  0  0  0  0  0
    1.3109   11.7634    9.9889 Si  0  0  0  0  0  0  0  0  0  0  0  0
    5.3000   16.0778    7.1526 Si  0  0  0  0  0  0  0  0  0  0  0  0
    3.0532   11.8158   10.7619 C   0  0  0  0  0  0  0  0  0  0  0  0
    0.1801   13.0611   10.8183 C   0  0  0  0  0  0  0  0  0  0  0  0
    0.5709   10.0172   10.2570 C   0  0  0  0  0  0  0  0  0  0  0  0
    1.2635   12.0507    8.1201 C   0  0  2  0  0  0  0  0  0  0  0  0
    1.7649   11.1422    7.1349 C   0  0  0  0  0  3  0  0  0  0  0  0
    1.3973   11.6672    5.8928 C   0  0  2  0  0  3  0  0  0  0  0  0
    0.5228   13.0943    7.4609 C   0  0  0  0  0  0  0  0  0  0  0  0
    0.6340   12.8406    6.0942 C   0  0  0  0  0  0  0  0  0  0  0  0
    0.3160   12.9768    4.6075 C   0  0  2  0  0  0  0  0  0  0  0  0
   -1.1658   12.9498    4.2592 C   0  0  0  0  0  0  0  0  0  0  0  0
    1.0203   11.5837    4.4290 C   0  0  0  0  0  0  0  0  0  0  0  0
    1.1092   14.1812    4.0270 C   0  0  0  0  0  0  0  0  0  0  0  0
    0.3281   15.4795    4.2724 C   0  0  0  0  0  0  0  0  0  0  0  0
    1.3546   14.0471    2.5185 C   0  0  0  0  0  0  0  0  0  0  0  0
    3.5250   13.3489    4.6327 C   0  0  0  0  0  0  0  0  0  0  0  0
    2.4350   14.2473    4.7664 C   0  0  0  0  0  0  0  0  0  0  0  0
    4.5872   13.8177    5.4246 C   0  0  0  0  0  0  0  0  0  0  0  0
    2.8266   15.2215    5.7137 C   0  0  2  0  0  0  0  0  0  0  0  0
    4.1714   14.9732    6.1162 C   0  0  0  0  0  0  0  0  0  0  0  0
    6.6980   16.6252    5.9631 C   0  0  0  0  0  0  0  0  0  0  0  0
    6.0817   15.1322    8.6133 C   0  0  0  0  0  0  0  0  0  0  0  0
    4.3373   17.6270    7.7179 C   0  0  0  0  0  0  0  0  0  0  0  0
    3.5266   12.7803   10.6004 H   0  0  0  0  0  0  0  0  0  0  0  0
    0.1490   12.9020   11.8911 H   0  0  0  0  0  0  0  0  0  0  0  0
    3.7025   11.0578   10.3332 H   0  0  0  0  0  0  0  0  0  0  0  0
    3.0023   11.6428   11.8329 H   0  0  0  0  0  0  0  0  0  0  0  0
   -0.8402   13.0024   10.4509 H   0  0  0  0  0  0  0  0  0  0  0  0
    0.5457   14.0685   10.6453 H   0  0  0  0  0  0  0  0  0  0  0  0
    0.4716    9.8109   11.3170 H   0  0  0  0  0  0  0  0  0  0  0  0
    1.2024    9.2438    9.8318 H   0  0  0  0  0  0  0  0  0  0  0  0
   -0.4135    9.9219    9.8097 H   0  0  0  0  0  0  0  0  0  0  0  0
    2.2760   10.2134    7.3546 H   0  0  0  0  0  0  0  0  0  0  0  0
   -0.0616   13.8506    7.9703 H   0  0  0  0  0  0  0  0  0  0  0  0
   -1.6832   13.8132    4.6681 H   0  0  0  0  0  0  0  0  0  0  0  0
   -1.6230   12.0581    4.6842 H   0  0  0  0  0  0  0  0  0  0  0  0
   -1.3086   12.9281    3.1809 H   0  0  0  0  0  0  0  0  0  0  0  0
    1.8117   11.5015    3.6884 H   0  0  0  0  0  0  0  0  0  0  0  0
    0.2984   10.7861    4.2427 H   0  0  0  0  0  0  0  0  0  0  0  0
   -0.5594   15.5154    3.6462 H   0  0  0  0  0  0  0  0  0  0  0  0
    0.9478   16.3372    4.0194 H   0  0  0  0  0  0  0  0  0  0  0  0
    0.0253   15.5595    5.3161 H   0  0  0  0  0  0  0  0  0  0  0  0
    1.9157   13.1506    2.2732 H   0  0  0  0  0  0  0  0  0  0  0  0
    1.9216   14.9059    2.1654 H   0  0  0  0  0  0  0  0  0  0  0  0
    0.4099   14.0163    1.9807 H   0  0  0  0  0  0  0  0  0  0  0  0
    3.6199   12.5376    3.9250 H   0  0  0  0  0  0  0  0  0  0  0  0
    5.5837   13.3959    5.4471 H   0  0  0  0  0  0  0  0  0  0  0  0
    2.2694   16.1036    6.0021 H   0  0  0  0  0  0  0  0  0  0  0  0
    7.3685   17.3160    6.4625 H   0  0  0  0  0  0  0  0  0  0  0  0
    6.3066   17.1256    5.0830 H   0  0  0  0  0  0  0  0  0  0  0  0
    7.2903   15.7811    5.6247 H   0  0  0  0  0  0  0  0  0  0  0  0
    5.3574   14.9575    9.4033 H   0  0  0  0  0  0  0  0  0  0  0  0
    6.9134   15.6861    9.0382 H   0  0  0  0  0  0  0  0  0  0  0  0
    6.4553   14.1618    8.2957 H   0  0  0  0  0  0  0  0  0  0  0  0
    3.5024   17.3634    8.3587 H   0  0  0  0  0  0  0  0  0  0  0  0
    3.9510   18.1878    6.8717 H   0  0  0  0  0  0  0  0  0  0  0  0
    4.9877   18.2908    8.2776 H   0  0  0  0  0  0  0  0  0  0  0  0
  1  2  1  0  0  0  0
  1  9  1  0  0  0  0
  1  3  1  0  0  0  0
  4  8  1  0  0  0  0
  4  6  1  0  0  0  0
  4  7  1  0  0  0  0
  5 27  1  0  0  0  0
  5 26  1  0  0  0  0
  6 31  1  0  0  0  0
  7 29  1  0  0  0  0
  8 34  1  0  0  0  0
  9  4  1  1  0  0  0
 10 37  1  0  0  0  0
 10  9  1  0  0  0  0
 11 13  1  1  0  0  0
 11 10  1  0  0  0  0
 12 38  1  0  0  0  0
 12  9  1  0  0  0  0
 13 12  2  0  0  0  0
 14 15  1  6  0  0  0
 14 13  1  0  0  0  0
 15 39  1  0  0  0  0
 15 40  1  0  0  0  0
 16 14  1  0  0  0  0
 16 11  1  0  0  0  0
 17 18  1  0  0  0  0
 17 14  1  0  0  0  0
 17 21  1  0  0  0  0
 18 46  1  0  0  0  0
 19 17  1  0  0  0  0
 20 21  2  0  0  0  0
 20 22  1  0  0  0  0
 21 23  1  0  0  0  0
 22 51  1  0  0  0  0
 22 24  2  0  0  0  0
 23 52  1  1  0  0  0
 23 24  1  0  0  0  0
 23  1  1  0  0  0  0
 24  5  1  0  0  0  0
 25 53  1  0  0  0  0
 25  5  1  0  0  0  0
 26 57  1  0  0  0  0
 26 56  1  0  0  0  0
 27 61  1  0  0  0  0
 27 59  1  0  0  0  0
 28  6  1  0  0  0  0
 30  6  1  0  0  0  0
 32  7  1  0  0  0  0
 33  7  1  0  0  0  0
 35  8  1  0  0  0  0
 36  8  1  0  0  0  0
 41 15  1  0  0  0  0
 42 16  1  0  0  0  0
 43 16  1  0  0  0  0
 44 18  1  0  0  0  0
 45 18  1  0  0  0  0
 47 19  1  0  0  0  0
 48 19  1  0  0  0  0
 49 19  1  0  0  0  0
 50 20  1  0  0  0  0
 54 25  1  0  0  0  0
 55 25  1  0  0  0  0
 58 26  1  0  0  0  0
 60 27  1  0  0  0  0
M  END
$$$$
