CSD_code = VATWOD | q = 0 | S = 0 | Stoichiometry = C28H26ClPZr | MND = 12
 OpenBabel04212202103D

 57 59  0  0  1  0  0  0  0  0999 V2000
    2.0217    5.4747    4.6397 Zr  0  0  0  0  0  0  0  0  0  0  0  0
    3.6056    5.5073    6.3969 Cl  0  0  0  0  0  0  0  0  0  0  0  0
    2.3963    8.4700    5.8829 C   0  0  0  0  0  0  0  0  0  0  0  0
    2.0817    9.5209    5.8228 H   0  0  0  0  0  0  0  0  0  0  0  0
    3.4705    8.4100    5.6773 H   0  0  0  0  0  0  0  0  0  0  0  0
    2.2417    8.1175    6.9080 H   0  0  0  0  0  0  0  0  0  0  0  0
    1.6400    7.6108    4.9077 C   0  0  0  0  0  0  0  0  0  0  0  0
    0.6593    8.1404    4.1513 C   0  0  0  0  0  0  0  0  0  0  0  0
   -0.0212    7.3515    3.1817 C   0  0  0  0  0  0  0  0  0  0  0  0
   -0.7077    6.8773    2.3082 C   0  0  0  0  0  0  0  0  0  0  0  0
   -1.5130    6.2587    1.2777 C   0  0  0  0  0  0  0  0  0  0  0  0
   -0.8862    5.9023    0.4594 H   0  0  0  0  0  0  0  0  0  0  0  0
   -2.2143    6.9946    0.8835 H   0  0  0  0  0  0  0  0  0  0  0  0
   -2.0770    5.4188    1.6850 H   0  0  0  0  0  0  0  0  0  0  0  0
    0.9293    3.2155    4.9813 C   0  0  0  0  0  0  0  0  0  0  0  0
    1.2901    2.2613    4.6145 H   0  0  0  0  0  0  0  0  0  0  0  0
    1.1432    3.7212    6.2775 C   0  0  0  0  0  0  0  0  0  0  0  0
    1.7404    3.2549    7.0509 H   0  0  0  0  0  0  0  0  0  0  0  0
    0.3637    4.8857    6.4313 C   0  0  0  0  0  0  0  0  0  0  0  0
    0.2469    5.4476    7.3513 H   0  0  0  0  0  0  0  0  0  0  0  0
   -0.3597    5.0887    5.2300 C   0  0  2  0  0  0  0  0  0  0  0  0
   -1.1623    5.8015    5.0860 H   0  0  0  0  0  0  0  0  0  0  0  0
   -0.0046    4.0563    4.3318 C   0  0  0  0  0  0  0  0  0  0  0  0
   -0.4735    3.8624    3.3749 H   0  0  0  0  0  0  0  0  0  0  0  0
    4.0168    4.5203    3.4342 C   0  0  0  0  0  0  0  0  0  0  0  0
    4.7656    3.9001    3.9136 H   0  0  0  0  0  0  0  0  0  0  0  0
    2.8823    4.0607    2.7331 C   0  0  0  0  0  0  0  0  0  0  0  0
    2.6413    3.0237    2.5303 H   0  0  0  0  0  0  0  0  0  0  0  0
    2.2378    5.1796    2.1619 C   0  0  0  0  0  0  0  0  0  0  0  0
    1.4159    5.1460    1.4596 H   0  0  0  0  0  0  0  0  0  0  0  0
    2.9799    6.3340    2.5044 C   0  0  0  0  0  0  0  0  0  0  0  0
    2.8170    7.3307    2.1115 H   0  0  0  0  0  0  0  0  0  0  0  0
    4.0804    5.9224    3.2912 C   0  0  0  0  0  3  0  0  0  0  0  0
    4.8833    6.5588    3.6448 H   0  0  0  0  0  0  0  0  0  0  0  0
    0.1168    9.9234    4.2853 P   0  0  0  0  0  0  0  0  0  0  0  0
   -1.0847    9.9487    2.8968 C   0  0  0  0  0  0  0  0  0  0  0  0
   -0.6158   10.4265    1.6771 C   0  0  0  0  0  0  0  0  0  0  0  0
    0.4079   10.7682    1.6030 H   0  0  0  0  0  0  0  0  0  0  0  0
   -1.4430   10.4647    0.5702 C   0  0  0  0  0  0  0  0  0  0  0  0
   -1.0679   10.8349   -0.3731 H   0  0  0  0  0  0  0  0  0  0  0  0
   -2.7553   10.0351    0.6744 C   0  0  0  0  0  0  0  0  0  0  0  0
   -3.4071   10.0690   -0.1869 H   0  0  0  0  0  0  0  0  0  0  0  0
   -3.2316    9.5644    1.8875 C   0  0  0  0  0  0  0  0  0  0  0  0
   -4.2558    9.2285    1.9716 H   0  0  0  0  0  0  0  0  0  0  0  0
   -2.4035    9.5180    2.9937 C   0  0  0  0  0  0  0  0  0  0  0  0
   -2.7835    9.1428    3.9330 H   0  0  0  0  0  0  0  0  0  0  0  0
   -1.0533    9.7720    5.6947 C   0  0  0  0  0  0  0  0  0  0  0  0
   -1.0582    8.7104    6.5912 C   0  0  0  0  0  0  0  0  0  0  0  0
   -0.3844    7.8741    6.4473 H   0  0  0  0  0  0  0  0  0  0  0  0
   -1.9297    8.7121    7.6668 C   0  0  0  0  0  0  0  0  0  0  0  0
   -1.9337    7.8771    8.3529 H   0  0  0  0  0  0  0  0  0  0  0  0
   -2.7933    9.7752    7.8666 C   0  0  0  0  0  0  0  0  0  0  0  0
   -3.4717    9.7724    8.7071 H   0  0  0  0  0  0  0  0  0  0  0  0
   -2.7802   10.8470    6.9875 C   0  0  0  0  0  0  0  0  0  0  0  0
   -3.4462   11.6834    7.1435 H   0  0  0  0  0  0  0  0  0  0  0  0
   -1.9111   10.8485    5.9144 C   0  0  0  0  0  0  0  0  0  0  0  0
   -1.8953   11.6845    5.2272 H   0  0  0  0  0  0  0  0  0  0  0  0
  1  7  1  0  0  0  0
  1 21  1  0  0  0  0
  1  2  1  0  0  0  0
  3  6  1  0  0  0  0
  4  3  1  0  0  0  0
  5  3  1  0  0  0  0
  7  3  1  0  0  0  0
  8 35  1  0  0  0  0
  8  7  2  0  0  0  0
  9  8  1  0  0  0  0
 10  9  3  0  0  0  0
 11 14  1  0  0  0  0
 11 10  1  0  0  0  0
 12 11  1  0  0  0  0
 13 11  1  0  0  0  0
 15 17  1  0  0  0  0
 16 15  1  0  0  0  0
 17 19  2  0  0  0  0
 17 18  1  0  0  0  0
 19 20  1  0  0  0  0
 21 22  1  6  0  0  0
 21 19  1  0  0  0  0
 23 15  2  0  0  0  0
 23 21  1  0  0  0  0
 24 23  1  0  0  0  0
 25 26  1  0  0  0  0
 27 25  2  0  0  0  0
 28 27  1  0  0  0  0
 29 31  2  0  0  0  0
 29 27  1  0  0  0  0
 30 29  1  0  0  0  0
 31 33  1  0  0  0  0
 32 31  1  0  0  0  0
 33 25  1  0  0  0  0
 33 34  1  0  0  0  0
 35 47  1  0  0  0  0
 36 45  1  0  0  0  0
 36 35  1  0  0  0  0
 37 36  2  0  0  0  0
 38 37  1  0  0  0  0
 39 41  2  0  0  0  0
 39 37  1  0  0  0  0
 40 39  1  0  0  0  0
 41 43  1  0  0  0  0
 42 41  1  0  0  0  0
 43 44  1  0  0  0  0
 43 45  2  0  0  0  0
 45 46  1  0  0  0  0
 47 56  2  0  0  0  0
 47 48  1  0  0  0  0
 48 50  2  0  0  0  0
 49 48  1  0  0  0  0
 50 52  1  0  0  0  0
 50 51  1  0  0  0  0
 52 53  1  0  0  0  0
 54 55  1  0  0  0  0
 54 52  2  0  0  0  0
 56 54  1  0  0  0  0
 57 56  1  0  0  0  0
M  END
$$$$
