CSD_code = VATWIX | q = 0 | S = 0 | Stoichiometry = C32H25Cl2PZr | MND = 12
 OpenBabel04212202103D

 61 65  0  0  1  0  0  0  0  0999 V2000
    1.0883    3.6748    0.9589 Zr  0  0  2  0  0  0  0  0  0  0  0  0
    1.5678    1.5279    1.8089 Cl  0  0  0  0  0  0  0  0  0  0  0  0
   -0.6553    5.1195    2.0495 C   0  0  0  0  0  3  0  0  0  0  0  0
   -1.5880    5.4445    1.6036 H   0  0  0  0  0  0  0  0  0  0  0  0
    0.5410    5.8647    2.0833 C   0  0  0  0  0  0  0  0  0  0  0  0
    0.6889    6.8569    1.6793 H   0  0  0  0  0  0  0  0  0  0  0  0
    1.4542    5.1886    2.9300 C   0  0  0  0  0  0  0  0  0  0  0  0
    2.4063    5.5872    3.2626 H   0  0  0  0  0  0  0  0  0  0  0  0
    0.8116    4.0316    3.4223 C   0  0  0  0  0  3  0  0  0  0  0  0
    1.2051    3.3485    4.1653 H   0  0  0  0  0  0  0  0  0  0  0  0
   -0.4823    3.9727    2.8598 C   0  0  2  0  0  0  0  0  0  0  0  0
   -1.2487    3.2483    3.1165 H   0  0  0  0  0  0  0  0  0  0  0  0
   -0.9408    3.3833   -0.4859 C   0  0  0  0  0  0  0  0  0  0  0  0
   -1.9726    3.4794   -0.1659 H   0  0  0  0  0  0  0  0  0  0  0  0
   -0.1524    4.4035   -1.0695 C   0  0  2  0  0  0  0  0  0  0  0  0
   -0.4713    5.4169   -1.2777 H   0  0  0  0  0  0  0  0  0  0  0  0
    1.0493    3.8147   -1.5284 C   0  0  0  0  0  0  0  0  0  0  0  0
    1.7941    4.3014   -2.1467 H   0  0  0  0  0  0  0  0  0  0  0  0
    1.0024    2.4343   -1.2220 C   0  0  0  0  0  0  0  0  0  0  0  0
    1.7397    1.6929   -1.5082 H   0  0  0  0  0  0  0  0  0  0  0  0
   -0.2290    2.1704   -0.5879 C   0  0  0  0  0  0  0  0  0  0  0  0
   -0.5972    1.1912   -0.3067 H   0  0  0  0  0  0  0  0  0  0  0  0
    4.2268    3.2592    0.9797 C   0  0  0  0  0  0  0  0  0  0  0  0
    5.0595    2.7156   -0.0021 C   0  0  0  0  0  0  0  0  0  0  0  0
    4.9206    3.0144   -1.0339 H   0  0  0  0  0  0  0  0  0  0  0  0
    6.0309    1.7921    0.3360 C   0  0  0  0  0  0  0  0  0  0  0  0
    6.6624    1.3728   -0.4336 H   0  0  0  0  0  0  0  0  0  0  0  0
    6.1973    1.4072    1.6556 C   0  0  0  0  0  0  0  0  0  0  0  0
    6.9573    0.6867    1.9183 H   0  0  0  0  0  0  0  0  0  0  0  0
    5.3819    1.9460    2.6395 C   0  0  0  0  0  0  0  0  0  0  0  0
    5.5112    1.6465    3.6694 H   0  0  0  0  0  0  0  0  0  0  0  0
    4.3983    2.8572    2.3093 C   0  0  0  0  0  0  0  0  0  0  0  0
    3.7558    3.2762    3.0786 H   0  0  0  0  0  0  0  0  0  0  0  0
    3.1761    4.2101    0.6174 C   0  0  0  0  0  0  0  0  0  0  0  0
    3.4894    5.3973    0.0670 C   0  0  0  0  0  0  0  0  0  0  0  0
    2.5226    6.3391   -0.3449 C   0  0  0  0  0  0  0  0  0  0  0  0
    1.8878    7.2796   -0.7743 C   0  0  0  0  0  0  0  0  0  0  0  0
    1.0884    8.3396   -1.2500 C   0  0  0  0  0  0  0  0  0  0  0  0
   -0.2635    8.4357   -0.9127 C   0  0  0  0  0  0  0  0  0  0  0  0
   -0.7092    7.6879   -0.2711 H   0  0  0  0  0  0  0  0  0  0  0  0
   -1.0222    9.4855   -1.3923 C   0  0  0  0  0  0  0  0  0  0  0  0
   -2.0677    9.5553   -1.1290 H   0  0  0  0  0  0  0  0  0  0  0  0
   -0.4479   10.4478   -2.2080 C   0  0  0  0  0  0  0  0  0  0  0  0
   -1.0460   11.2656   -2.5813 H   0  0  0  0  0  0  0  0  0  0  0  0
    0.8943   10.3594   -2.5433 C   0  0  0  0  0  0  0  0  0  0  0  0
    1.3425   11.1096   -3.1783 H   0  0  0  0  0  0  0  0  0  0  0  0
    1.6627    9.3145   -2.0700 C   0  0  0  0  0  0  0  0  0  0  0  0
    2.7081    9.2358   -2.3298 H   0  0  0  0  0  0  0  0  0  0  0  0
    5.2633    5.9912   -0.0309 P   0  0  1  0  0  0  0  0  0  0  0  0
    5.1625    7.1642   -1.6536 Cl  0  0  0  0  0  0  0  0  0  0  0  0
    4.9713    7.1990    1.3279 C   0  0  0  0  0  0  0  0  0  0  0  0
    5.0366    6.6638    2.6123 C   0  0  0  0  0  0  0  0  0  0  0  0
    5.2902    5.6186    2.7360 H   0  0  0  0  0  0  0  0  0  0  0  0
    4.7780    7.4591    3.7116 C   0  0  0  0  0  0  0  0  0  0  0  0
    4.8274    7.0390    4.7059 H   0  0  0  0  0  0  0  0  0  0  0  0
    4.4578    8.7967    3.5375 C   0  0  0  0  0  0  0  0  0  0  0  0
    4.2534    9.4192    4.3960 H   0  0  0  0  0  0  0  0  0  0  0  0
    4.4049    9.3335    2.2628 C   0  0  0  0  0  0  0  0  0  0  0  0
    4.1600   10.3766    2.1253 H   0  0  0  0  0  0  0  0  0  0  0  0
    4.6616    8.5405    1.1576 C   0  0  0  0  0  0  0  0  0  0  0  0
    4.6187    8.9680    0.1672 H   0  0  0  0  0  0  0  0  0  0  0  0
  1  2  1  6  0  0  0
  1 11  1  0  0  0  0
  3  5  1  0  0  0  0
  3 11  1  0  0  0  0
  4  3  1  0  0  0  0
  5  7  2  0  0  0  0
  6  5  1  0  0  0  0
  7  8  1  0  0  0  0
  7  9  1  0  0  0  0
  9 10  1  0  0  0  0
 11 12  1  1  0  0  0
 11  9  1  0  0  0  0
 13 14  1  0  0  0  0
 15 16  1  6  0  0  0
 15 13  1  0  0  0  0
 15  1  1  0  0  0  0
 17 19  2  0  0  0  0
 17 15  1  0  0  0  0
 18 17  1  0  0  0  0
 19 21  1  0  0  0  0
 20 19  1  0  0  0  0
 21 13  2  0  0  0  0
 21 22  1  0  0  0  0
 23 32  1  0  0  0  0
 24 26  1  0  0  0  0
 24 23  2  0  0  0  0
 25 24  1  0  0  0  0
 26 28  2  0  0  0  0
 27 26  1  0  0  0  0
 28 29  1  0  0  0  0
 28 30  1  0  0  0  0
 30 31  1  0  0  0  0
 32 30  2  0  0  0  0
 32 33  1  0  0  0  0
 34  1  1  0  0  0  0
 34 23  1  0  0  0  0
 35 34  2  0  0  0  0
 36 35  1  0  0  0  0
 37 36  3  0  0  0  0
 38 39  1  0  0  0  0
 38 37  1  0  0  0  0
 39 40  1  0  0  0  0
 41 42  1  0  0  0  0
 41 39  2  0  0  0  0
 43 41  1  0  0  0  0
 44 43  1  0  0  0  0
 45 43  2  0  0  0  0
 45 47  1  0  0  0  0
 46 45  1  0  0  0  0
 47 38  2  0  0  0  0
 48 47  1  0  0  0  0
 49 50  1  6  0  0  0
 49 35  1  0  0  0  0
 49 51  1  0  0  0  0
 51 52  1  0  0  0  0
 52 53  1  0  0  0  0
 52 54  2  0  0  0  0
 54 55  1  0  0  0  0
 56 54  1  0  0  0  0
 56 57  1  0  0  0  0
 58 56  2  0  0  0  0
 59 58  1  0  0  0  0
 60 51  2  0  0  0  0
 60 58  1  0  0  0  0
 61 60  1  0  0  0  0
M  END
$$$$
