CSD_code = VAVCUR | q = 0 | S = 0 | Stoichiometry = C21H16ClN2O3Re | MND = 6
 OpenBabel04212202103D

 44 49  0  0  1  0  0  0  0  0999 V2000
    3.0885    2.0839    2.1579 Re  0  0  0  0  0  0  0  0  0  0  0  0
    3.0409   -0.2153    1.9073 Cl  0  0  0  0  0  0  0  0  0  0  0  0
    1.3583    2.0774    3.3332 O   0  0  0  0  0  0  0  0  0  0  0  0
    1.9331    2.1419    0.6649 O   0  0  0  0  0  0  0  0  0  0  0  0
    4.1771    2.0574    3.4055 O   0  0  0  0  0  1  0  0  0  0  0  0
    3.0683    4.2163    2.1486 N   0  0  1  0  0  0  0  0  0  0  0  0
    4.5316    2.1995    0.6397 N   0  0  0  0  0  0  0  0  0  0  0  0
    0.7934    3.1101    3.8457 C   0  0  0  0  0  0  0  0  0  0  0  0
   -0.3442    2.8645    4.6629 C   0  0  0  0  0  0  0  0  0  0  0  0
   -0.6324    1.8314    4.7810 H   0  0  0  0  0  0  0  0  0  0  0  0
   -1.0318    3.8703    5.2800 C   0  0  0  0  0  0  0  0  0  0  0  0
   -1.8867    3.6381    5.8979 H   0  0  0  0  0  0  0  0  0  0  0  0
   -0.6348    5.2035    5.1186 C   0  0  0  0  0  0  0  0  0  0  0  0
   -1.1795    5.9951    5.6091 H   0  0  0  0  0  0  0  0  0  0  0  0
    0.4465    5.4855    4.3325 C   0  0  0  0  0  0  0  0  0  0  0  0
    0.7566    6.5131    4.1995 H   0  0  0  0  0  0  0  0  0  0  0  0
    1.1872    4.4771    3.6726 C   0  0  0  0  0  0  0  0  0  0  0  0
    2.2681    4.9222    2.8658 C   0  0  0  0  0  3  0  0  0  0  0  0
    2.4024    6.0087    2.8545 H   0  0  0  0  0  0  0  0  0  0  0  0
    4.0839    4.8776    1.3522 C   0  0  0  0  0  0  0  0  0  0  0  0
    4.1493    5.9383    1.6238 H   0  0  0  0  0  0  0  0  0  0  0  0
    3.7660    4.8137    0.3005 H   0  0  0  0  0  0  0  0  0  0  0  0
    5.4543    4.2470    1.4704 C   0  0  0  0  0  0  0  0  0  0  0  0
    6.5389    4.9724    1.9347 C   0  0  0  0  0  0  0  0  0  0  0  0
    6.3944    5.9889    2.2705 H   0  0  0  0  0  0  0  0  0  0  0  0
    7.8052    4.4104    1.9719 C   0  0  0  0  0  0  0  0  0  0  0  0
    8.6357    4.9882    2.3470 H   0  0  0  0  0  0  0  0  0  0  0  0
    8.0037    3.1136    1.5330 C   0  0  0  0  0  0  0  0  0  0  0  0
    8.9891    2.6750    1.5622 H   0  0  0  0  0  0  0  0  0  0  0  0
    6.9349    2.3693    1.0648 C   0  0  0  0  0  0  0  0  0  0  0  0
    7.0647    1.3457    0.7485 H   0  0  0  0  0  0  0  0  0  0  0  0
    5.6652    2.9276    1.0428 C   0  0  0  0  0  0  0  0  0  0  0  0
    4.4253    1.7305   -0.5592 C   0  0  0  0  0  3  0  0  0  0  0  0
    5.2885    1.7978   -1.2236 H   0  0  0  0  0  0  0  0  0  0  0  0
    3.2051    1.2485   -1.1229 C   0  0  0  0  0  0  0  0  0  0  0  0
    3.2008    0.6057   -2.3689 C   0  0  0  0  0  0  0  0  0  0  0  0
    4.1488    0.3818   -2.8366 H   0  0  0  0  0  0  0  0  0  0  0  0
    2.0228    0.2427   -2.9748 C   0  0  0  0  0  0  0  0  0  0  0  0
    2.0340   -0.2719   -3.9229 H   0  0  0  0  0  0  0  0  0  0  0  0
    0.8070    0.5464   -2.3621 C   0  0  0  0  0  0  0  0  0  0  0  0
   -0.1183    0.2633   -2.8416 H   0  0  0  0  0  0  0  0  0  0  0  0
    0.7717    1.2022   -1.1547 C   0  0  0  0  0  0  0  0  0  0  0  0
   -0.1645    1.4336   -0.6696 H   0  0  0  0  0  0  0  0  0  0  0  0
    1.9597    1.5446   -0.4865 C   0  0  0  0  0  0  0  0  0  0  0  0
  1  3  1  0  0  0  0
  1  5  1  0  0  0  0
  2  1  1  0  0  0  0
  3  8  1  0  0  0  0
  4  1  1  0  0  0  0
  6  1  1  0  0  0  0
  6 18  1  1  0  0  0
  7 32  1  0  0  0  0
  7  1  1  0  0  0  0
  8  9  1  0  0  0  0
  9 10  1  0  0  0  0
  9 11  2  0  0  0  0
 11 12  1  0  0  0  0
 13 11  1  0  0  0  0
 13 14  1  0  0  0  0
 15 13  2  0  0  0  0
 16 15  1  0  0  0  0
 17  8  2  0  0  0  0
 17 15  1  0  0  0  0
 18 17  1  0  0  0  0
 19 18  1  0  0  0  0
 20 23  1  0  0  0  0
 20 21  1  0  0  0  0
 20  6  1  0  0  0  0
 22 20  1  0  0  0  0
 23 24  1  0  0  0  0
 24 26  2  0  0  0  0
 24 25  1  0  0  0  0
 26 27  1  0  0  0  0
 28 29  1  0  0  0  0
 28 26  1  0  0  0  0
 30 28  2  0  0  0  0
 31 30  1  0  0  0  0
 32 30  1  0  0  0  0
 32 23  2  0  0  0  0
 33  7  1  0  0  0  0
 34 33  1  0  0  0  0
 35 33  1  0  0  0  0
 35 44  1  0  0  0  0
 36 35  2  0  0  0  0
 37 36  1  0  0  0  0
 38 36  1  0  0  0  0
 38 40  2  0  0  0  0
 39 38  1  0  0  0  0
 40 42  1  0  0  0  0
 41 40  1  0  0  0  0
 42 43  1  0  0  0  0
 42 44  2  0  0  0  0
 44  4  1  0  0  0  0
M  END
$$$$
