CSD_code = VAVFAZ | q = 0 | S = 0 | Stoichiometry = C18H25ClHgO5 | MND = 2
 OpenBabel04212202103D

 50 54  0  0  1  0  0  0  0  0999 V2000
    4.7485    4.1980    3.6736 Hg  0  0  0  0  0  0  0  0  0  0  0  0
    5.6687    5.9413    4.8883 Cl  0  0  0  0  0  0  0  0  0  0  0  0
    1.4423    2.5450    2.6898 O   0  0  0  0  0  0  0  0  0  0  0  0
    2.8319    5.5087    2.6042 O   0  0  0  0  0  0  0  0  0  0  0  0
    2.6757    6.0595   -0.1671 O   0  0  0  0  0  0  0  0  0  0  0  0
    5.0368    5.1316    1.1802 O   0  0  0  0  0  0  0  0  0  0  0  0
    3.8642    1.9356   -0.0500 O   0  0  0  0  0  0  0  0  0  0  0  0
    3.7640    2.7336    2.2338 C   0  0  1  0  0  0  0  0  0  0  0  0
    3.8071    1.6989    2.5840 H   0  0  0  0  0  0  0  0  0  0  0  0
    2.3674    3.1933    2.2459 C   0  0  0  0  0  0  0  0  0  0  0  0
    2.1558    4.6199    1.6988 C   0  0  2  0  0  0  0  0  0  0  0  0
    2.7751    4.7090    0.2734 C   0  0  2  0  0  0  0  0  0  0  0  0
    4.2868    4.2922    0.3045 C   0  0  2  0  0  0  0  0  0  0  0  0
    4.4502    2.8565    0.8642 C   0  0  2  0  0  0  0  0  0  0  0  0
    1.9577    6.5664    2.9654 C   0  0  0  0  0  0  0  0  0  0  0  0
    2.0119    7.3588    2.2075 H   0  0  0  0  0  0  0  0  0  0  0  0
    2.2919    6.9542    3.9286 H   0  0  0  0  0  0  0  0  0  0  0  0
    0.5808    5.9197    2.9837 C   0  0  0  0  0  0  0  0  0  0  0  0
    0.4646    5.3100    3.8806 H   0  0  0  0  0  0  0  0  0  0  0  0
   -0.2303    6.6417    2.9287 H   0  0  0  0  0  0  0  0  0  0  0  0
    0.6727    5.0324    1.7442 C   0  0  0  0  0  0  0  0  0  0  0  0
    0.4161    5.6149    0.8636 H   0  0  0  0  0  0  0  0  0  0  0  0
    0.0340    4.1541    1.8122 H   0  0  0  0  0  0  0  0  0  0  0  0
    1.9146    6.1743   -1.3546 C   0  0  0  0  0  0  0  0  0  0  0  0
    2.5867    6.3768   -2.2010 H   0  0  0  0  0  0  0  0  0  0  0  0
    1.2490    7.0361   -1.2429 H   0  0  0  0  0  0  0  0  0  0  0  0
    1.1568    4.8597   -1.5522 C   0  0  0  0  0  0  0  0  0  0  0  0
    1.1175    4.5788   -2.6028 H   0  0  0  0  0  0  0  0  0  0  0  0
    0.1338    4.9400   -1.1868 H   0  0  0  0  0  0  0  0  0  0  0  0
    1.9617    3.8555   -0.7239 C   0  0  0  0  0  0  0  0  0  0  0  0
    2.6329    3.2820   -1.3567 H   0  0  0  0  0  0  0  0  0  0  0  0
    1.3265    3.1489   -0.1961 H   0  0  0  0  0  0  0  0  0  0  0  0
    5.6745    6.1407    0.4168 C   0  0  0  0  0  0  0  0  0  0  0  0
    6.5019    6.5239    1.0143 H   0  0  0  0  0  0  0  0  0  0  0  0
    4.9638    6.9472    0.2038 H   0  0  0  0  0  0  0  0  0  0  0  0
    6.1001    5.4309   -0.8649 C   0  0  0  0  0  0  0  0  0  0  0  0
    7.0279    4.8826   -0.6973 H   0  0  0  0  0  0  0  0  0  0  0  0
    6.2454    6.1212   -1.6925 H   0  0  0  0  0  0  0  0  0  0  0  0
    4.9243    4.4780   -1.0959 C   0  0  0  0  0  0  0  0  0  0  0  0
    5.2237    3.5228   -1.5217 H   0  0  0  0  0  0  0  0  0  0  0  0
    4.2079    4.9363   -1.7714 H   0  0  0  0  0  0  0  0  0  0  0  0
    4.4860    0.6650    0.0815 C   0  0  0  0  0  0  0  0  0  0  0  0
    4.6551    0.2892   -0.9320 H   0  0  0  0  0  0  0  0  0  0  0  0
    3.8086   -0.0246    0.5972 H   0  0  0  0  0  0  0  0  0  0  0  0
    5.7967    0.8680    0.8586 C   0  0  0  0  0  0  0  0  0  0  0  0
    6.6436    0.4171    0.3457 H   0  0  0  0  0  0  0  0  0  0  0  0
    5.7280    0.4307    1.8538 H   0  0  0  0  0  0  0  0  0  0  0  0
    5.9200    2.3893    0.9404 C   0  0  0  0  0  0  0  0  0  0  0  0
    6.4709    2.7651    0.0804 H   0  0  0  0  0  0  0  0  0  0  0  0
    6.4230    2.7266    1.8486 H   0  0  0  0  0  0  0  0  0  0  0  0
  1  2  1  0  0  0  0
  4 15  1  0  0  0  0
  7 42  1  0  0  0  0
  8 10  1  0  0  0  0
  8  9  1  1  0  0  0
  8  1  1  0  0  0  0
 10  3  2  0  0  0  0
 11 21  1  0  0  0  0
 11 10  1  1  0  0  0
 11  4  1  0  0  0  0
 12  5  1  6  0  0  0
 12 13  1  0  0  0  0
 12 11  1  0  0  0  0
 13 14  1  0  0  0  0
 13  6  1  1  0  0  0
 14  7  1  6  0  0  0
 14 48  1  0  0  0  0
 14  8  1  0  0  0  0
 15 18  1  0  0  0  0
 15 17  1  0  0  0  0
 16 15  1  0  0  0  0
 18 19  1  0  0  0  0
 20 18  1  0  0  0  0
 21 23  1  0  0  0  0
 21 18  1  0  0  0  0
 22 21  1  0  0  0  0
 24 26  1  0  0  0  0
 24  5  1  0  0  0  0
 25 24  1  0  0  0  0
 27 24  1  0  0  0  0
 27 29  1  0  0  0  0
 27 30  1  0  0  0  0
 28 27  1  0  0  0  0
 30 32  1  0  0  0  0
 30 12  1  0  0  0  0
 31 30  1  0  0  0  0
 33 34  1  0  0  0  0
 33  6  1  0  0  0  0
 35 33  1  0  0  0  0
 36 37  1  0  0  0  0
 36 33  1  0  0  0  0
 38 36  1  0  0  0  0
 39 36  1  0  0  0  0
 39 13  1  0  0  0  0
 40 39  1  0  0  0  0
 41 39  1  0  0  0  0
 42 44  1  0  0  0  0
 42 45  1  0  0  0  0
 43 42  1  0  0  0  0
 45 48  1  0  0  0  0
 45 47  1  0  0  0  0
 46 45  1  0  0  0  0
 48 50  1  0  0  0  0
 49 48  1  0  0  0  0
M  END
$$$$
