CSD_code = VAVJAE | q = 0 | S = 0 | Stoichiometry = C13H12ClN3Pd | MND = 4
 OpenBabel04212202103D

 30 33  0  0  1  0  0  0  0  0999 V2000
    6.1181    1.9080    1.3535 Pd  0  0  1  0  0  0  0  0  0  0  0  0
    4.6523    3.4561    1.8292 Cl  0  0  0  0  0  0  0  0  0  0  0  0
    8.1506    0.1124    1.8793 N   0  0  0  0  0  0  0  0  0  0  0  0
    8.8651   -0.5996    1.7633 H   0  0  0  0  0  0  0  0  0  0  0  0
    7.3995    0.5325    0.8716 N   0  0  0  0  0  0  0  0  0  0  0  0
    5.6977    1.6820   -0.7726 N   0  0  0  0  0  0  0  0  0  0  0  0
    6.9132    1.6901    3.1799 C   0  0  0  0  0  0  0  0  0  0  0  0
    6.6727    2.2890    4.4077 C   0  0  0  0  0  0  0  0  0  0  0  0
    5.9060    3.0478    4.4920 H   0  0  0  0  0  0  0  0  0  0  0  0
    7.4052    1.9264    5.5340 C   0  0  0  0  0  0  0  0  0  0  0  0
    7.2024    2.4071    6.4795 H   0  0  0  0  0  0  0  0  0  0  0  0
    8.3897    0.9580    5.4541 C   0  0  0  0  0  0  0  0  0  0  0  0
    8.9542    0.6814    6.3322 H   0  0  0  0  0  0  0  0  0  0  0  0
    8.6569    0.3370    4.2449 C   0  0  0  0  0  0  0  0  0  0  0  0
    9.4235   -0.4224    4.1722 H   0  0  0  0  0  0  0  0  0  0  0  0
    7.9237    0.7047    3.1262 C   0  0  1  0  0  3  0  0  0  0  0  0
    7.4541    0.1077   -0.3621 C   0  0  0  0  0  0  0  0  0  0  0  0
    6.5244    0.7369   -1.2854 C   0  0  0  0  0  0  0  0  0  0  0  0
    6.4578    0.4110   -2.6467 C   0  0  0  0  0  0  0  0  0  0  0  0
    7.1139   -0.3371   -3.0606 H   0  0  0  0  0  0  0  0  0  0  0  0
    5.5454    1.0574   -3.4570 C   0  0  0  0  0  0  0  0  0  0  0  0
    5.4859    0.8134   -4.5074 H   0  0  0  0  0  0  0  0  0  0  0  0
    4.7089    2.0210   -2.9084 C   0  0  0  0  0  0  0  0  0  0  0  0
    3.9864    2.5433   -3.5138 H   0  0  0  0  0  0  0  0  0  0  0  0
    4.8257    2.2982   -1.5553 C   0  0  0  0  0  0  0  0  0  0  0  0
    4.2013    3.0408   -1.0704 H   0  0  0  0  0  0  0  0  0  0  0  0
    8.3948   -0.9570   -0.8582 C   0  0  0  0  0  0  0  0  0  0  0  0
    9.0015   -1.3702   -0.0560 H   0  0  0  0  0  0  0  0  0  0  0  0
    9.0681   -0.5491   -1.6119 H   0  0  0  0  0  0  0  0  0  0  0  0
    7.8349   -1.7768   -1.3072 H   0  0  0  0  0  0  0  0  0  0  0  0
  1  2  1  1  0  0  0
  1  7  2  0  0  0  0
  3 16  1  0  0  0  0
  4  3  1  0  0  0  0
  5  1  1  0  0  0  0
  5  3  1  0  0  0  0
  6  1  1  0  0  0  0
  7  8  1  0  0  0  0
  8  9  1  0  0  0  0
  8 10  2  0  0  0  0
 10 11  1  0  0  0  0
 12 10  1  0  0  0  0
 12 13  1  0  0  0  0
 14 12  2  0  0  0  0
 15 14  1  0  0  0  0
 16  7  1  1  0  0  0
 16 14  1  0  0  0  0
 17  5  1  0  0  0  0
 18  6  1  0  0  0  0
 18 17  2  0  0  0  0
 19 18  1  0  0  0  0
 20 19  1  0  0  0  0
 21 23  1  0  0  0  0
 21 19  2  0  0  0  0
 22 21  1  0  0  0  0
 23 25  2  0  0  0  0
 24 23  1  0  0  0  0
 25 26  1  0  0  0  0
 25  6  1  0  0  0  0
 27 17  1  0  0  0  0
 27 28  1  0  0  0  0
 29 27  1  0  0  0  0
 30 27  1  0  0  0  0
M  END
$$$$
