CSD_code = VAVSAM | q = 0 | S = 0 | Stoichiometry = C18H25ClHgO5 | MND = 2
 OpenBabel04212202103D

 50 54  0  0  1  0  0  0  0  0999 V2000
   19.1751   -4.7695    3.9139 Hg  0  0  0  0  0  0  0  0  0  0  0  0
   20.7995   -6.2937    4.6614 Cl  0  0  0  0  0  0  0  0  0  0  0  0
   16.8248   -1.6199    4.0639 O   0  0  0  0  0  0  0  0  0  0  0  0
   18.6591    0.3500    4.1089 O   0  0  0  0  0  0  0  0  0  0  0  0
   19.2729   -0.1443    1.5145 O   0  0  0  0  0  0  0  0  0  0  0  0
   21.0499   -2.9837    2.9294 O   0  0  0  0  0  0  0  0  0  0  0  0
   19.4045   -4.3179    1.1557 O   0  0  0  0  0  0  0  0  0  0  0  0
   18.1226   -3.1045    2.7783 C   0  0  1  0  0  0  0  0  0  0  0  0
   17.1510   -3.5143    2.4846 H   0  0  0  0  0  0  0  0  0  0  0  0
   17.9024   -1.8797    3.5720 C   0  0  0  0  0  0  0  0  0  0  0  0
   19.1108   -0.9601    3.8001 C   0  0  1  0  0  0  0  0  0  0  0  0
   19.9950   -0.8337    2.5245 C   0  0  1  0  0  0  0  0  0  0  0  0
   20.3463   -2.2319    1.9356 C   0  0  2  0  0  0  0  0  0  0  0  0
   19.0355   -2.9828    1.5600 C   0  0  1  0  0  0  0  0  0  0  0  0
   19.8591   -1.4557    5.0759 C   0  0  0  0  0  0  0  0  0  0  0  0
   19.4055   -2.3835    5.4420 H   0  0  0  0  0  0  0  0  0  0  0  0
   20.9061   -1.6529    4.8664 H   0  0  0  0  0  0  0  0  0  0  0  0
   19.6636   -0.3317    6.0988 C   0  0  0  0  0  0  0  0  0  0  0  0
   19.4470   -0.7092    7.0949 H   0  0  0  0  0  0  0  0  0  0  0  0
   20.5500    0.3022    6.1504 H   0  0  0  0  0  0  0  0  0  0  0  0
   18.4880    0.4468    5.5063 C   0  0  0  0  0  0  0  0  0  0  0  0
   17.5328   -0.0009    5.8031 H   0  0  0  0  0  0  0  0  0  0  0  0
   18.4882    1.5082    5.7586 H   0  0  0  0  0  0  0  0  0  0  0  0
   21.2315    0.0454    2.8412 C   0  0  0  0  0  0  0  0  0  0  0  0
   21.1234    0.4636    3.8391 H   0  0  0  0  0  0  0  0  0  0  0  0
   22.1541   -0.5248    2.8007 H   0  0  0  0  0  0  0  0  0  0  0  0
   21.1761    1.1799    1.8170 C   0  0  0  0  0  0  0  0  0  0  0  0
   21.5218    2.1257    2.2272 H   0  0  0  0  0  0  0  0  0  0  0  0
   21.7689    0.9481    0.9309 H   0  0  0  0  0  0  0  0  0  0  0  0
   19.6881    1.2096    1.4765 C   0  0  0  0  0  0  0  0  0  0  0  0
   19.1299    1.7890    2.2194 H   0  0  0  0  0  0  0  0  0  0  0  0
   19.4679    1.5828    0.4750 H   0  0  0  0  0  0  0  0  0  0  0  0
   21.2976   -2.1479    0.7201 C   0  0  0  0  0  0  0  0  0  0  0  0
   20.9274   -2.7946   -0.0727 H   0  0  0  0  0  0  0  0  0  0  0  0
   21.3632   -1.1341    0.3375 H   0  0  0  0  0  0  0  0  0  0  0  0
   22.6337   -2.6926    1.2241 C   0  0  0  0  0  0  0  0  0  0  0  0
   23.1823   -3.2241    0.4499 H   0  0  0  0  0  0  0  0  0  0  0  0
   23.2698   -1.8980    1.6149 H   0  0  0  0  0  0  0  0  0  0  0  0
   22.1802   -3.6223    2.3418 C   0  0  0  0  0  0  0  0  0  0  0  0
   21.8900   -4.5998    1.9399 H   0  0  0  0  0  0  0  0  0  0  0  0
   22.9136   -3.7618    3.1373 H   0  0  0  0  0  0  0  0  0  0  0  0
   18.2534   -2.3955    0.3715 C   0  0  0  0  0  0  0  0  0  0  0  0
   17.4848   -1.7089    0.7130 H   0  0  0  0  0  0  0  0  0  0  0  0
   18.9178   -1.8521   -0.2964 H   0  0  0  0  0  0  0  0  0  0  0  0
   17.6942   -3.6385   -0.3176 C   0  0  0  0  0  0  0  0  0  0  0  0
   16.7779   -3.9716    0.1697 H   0  0  0  0  0  0  0  0  0  0  0  0
   17.4901   -3.4778   -1.3734 H   0  0  0  0  0  0  0  0  0  0  0  0
   18.8138   -4.6496   -0.0926 C   0  0  0  0  0  0  0  0  0  0  0  0
   18.4647   -5.6831   -0.0414 H   0  0  0  0  0  0  0  0  0  0  0  0
   19.5733   -4.5764   -0.8843 H   0  0  0  0  0  0  0  0  0  0  0  0
  1  2  1  0  0  0  0
  4 21  1  0  0  0  0
  8  9  1  6  0  0  0
  8 10  1  0  0  0  0
  8  1  1  0  0  0  0
 10  3  2  0  0  0  0
 11 10  1  6  0  0  0
 11  4  1  0  0  0  0
 11 15  1  0  0  0  0
 12  5  1  6  0  0  0
 12 24  1  0  0  0  0
 12 11  1  0  0  0  0
 13 12  1  0  0  0  0
 13  6  1  1  0  0  0
 14  7  1  6  0  0  0
 14 13  1  0  0  0  0
 14  8  1  0  0  0  0
 15 16  1  0  0  0  0
 15 18  1  0  0  0  0
 17 15  1  0  0  0  0
 18 20  1  0  0  0  0
 18 19  1  0  0  0  0
 21 23  1  0  0  0  0
 21 22  1  0  0  0  0
 21 18  1  0  0  0  0
 24 25  1  0  0  0  0
 26 24  1  0  0  0  0
 27 28  1  0  0  0  0
 27 24  1  0  0  0  0
 29 27  1  0  0  0  0
 30  5  1  0  0  0  0
 30 27  1  0  0  0  0
 30 31  1  0  0  0  0
 32 30  1  0  0  0  0
 33 36  1  0  0  0  0
 33 13  1  0  0  0  0
 34 33  1  0  0  0  0
 35 33  1  0  0  0  0
 36 38  1  0  0  0  0
 36 39  1  0  0  0  0
 37 36  1  0  0  0  0
 39  6  1  0  0  0  0
 39 41  1  0  0  0  0
 40 39  1  0  0  0  0
 42 43  1  0  0  0  0
 42 14  1  0  0  0  0
 44 42  1  0  0  0  0
 45 48  1  0  0  0  0
 45 46  1  0  0  0  0
 45 42  1  0  0  0  0
 47 45  1  0  0  0  0
 48 49  1  0  0  0  0
 48  7  1  0  0  0  0
 50 48  1  0  0  0  0
M  END
$$$$
