CSD_code = VAWPUE | q = 0 | S = 0 | Stoichiometry = C28H38Cl2Ti | MND = 12
 OpenBabel04212202103D

 69 73  0  0  1  0  0  0  0  0999 V2000
    2.4875    1.9974    1.0024 Ti  0  0  0  0  0  0  0  0  0  0  0  0
    4.6311    1.9046    1.3488 Cl  0  0  0  0  0  0  0  0  0  0  0  0
    2.1951   -0.1713    0.7661 Cl  0  0  0  0  0  0  0  0  0  0  0  0
    3.9081    2.2949   -1.7775 C   0  0  0  0  0  0  0  0  0  0  0  0
    3.6705    3.5040   -1.1276 C   0  0  0  0  0  0  0  0  0  0  0  0
    2.3296    3.5165   -0.6658 C   0  0  0  0  0  3  0  0  0  0  0  0
    1.7220    2.2685   -1.0615 C   0  0  1  0  0  0  0  0  0  0  0  0
    2.7216    1.5309   -1.7359 C   0  0  1  0  0  3  0  0  0  0  0  0
    2.7246    0.1963   -2.3945 C   0  0  1  0  0  0  0  0  0  0  0  0
    3.3188    0.4017   -3.8165 C   0  0  0  0  0  0  0  0  0  0  0  0
    4.7081    0.4210   -3.1106 C   0  0  1  0  0  0  0  0  0  0  0  0
    5.1231    1.7790   -2.5069 C   0  0  0  0  0  0  0  0  0  0  0  0
    4.0689   -0.4495   -2.0082 C   0  0  0  0  0  0  0  0  0  0  0  0
    3.1739   -0.8365   -4.6996 C   0  0  0  0  0  0  0  0  0  0  0  0
    2.7831    1.5887   -4.6074 C   0  0  0  0  0  0  0  0  0  0  0  0
    6.3126    1.5778   -1.5529 C   0  0  0  0  0  0  0  0  0  0  0  0
    5.5977    2.7738   -3.5776 C   0  0  0  0  0  0  0  0  0  0  0  0
    1.6869    1.7887    3.2499 C   0  0  0  0  0  0  0  0  0  0  0  0
    0.5888    1.8398    2.3567 C   0  0  0  0  0  0  0  0  0  0  0  0
    0.6068    3.0956    1.7114 C   0  0  0  0  0  0  0  0  0  0  0  0
    1.7164    3.8344    2.2063 C   0  0  0  0  0  0  0  0  0  0  0  0
    2.3816    3.0302    3.1521 C   0  0  1  0  0  3  0  0  0  0  0  0
    3.3332    3.3846    4.2483 C   0  0  1  0  0  0  0  0  0  0  0  0
    2.5319    3.1520    5.5675 C   0  0  0  0  0  0  0  0  0  0  0  0
    2.8908    1.6470    5.3772 C   0  0  1  0  0  0  0  0  0  0  0  0
    1.9707    0.8613    4.4129 C   0  0  0  0  0  0  0  0  0  0  0  0
    4.1394    2.1282    4.6137 C   0  0  0  0  0  0  0  0  0  0  0  0
    1.0907    3.6476    5.6078 C   0  0  0  0  0  0  0  0  0  0  0  0
    3.2371    3.7363    6.7911 C   0  0  0  0  0  0  0  0  0  0  0  0
    2.6756   -0.4333    3.9694 C   0  0  0  0  0  0  0  0  0  0  0  0
    0.6687    0.4350    5.1082 C   0  0  0  0  0  0  0  0  0  0  0  0
    4.3711    4.3172   -1.0093 H   0  0  0  0  0  0  0  0  0  0  0  0
    1.7842    4.4307   -0.4596 H   0  0  0  0  0  0  0  0  0  0  0  0
    0.6541    2.0712   -1.1319 H   0  0  0  0  0  0  0  0  0  0  0  0
    1.7997   -0.3697   -2.2806 H   0  0  0  0  0  0  0  0  0  0  0  0
    5.5335   -0.0169   -3.6745 H   0  0  0  0  0  0  0  0  0  0  0  0
    4.1126   -1.5147   -2.2162 H   0  0  0  0  0  0  0  0  0  0  0  0
    4.3872   -0.2769   -0.9809 H   0  0  0  0  0  0  0  0  0  0  0  0
    3.7319   -0.6939   -5.6236 H   0  0  0  0  0  0  0  0  0  0  0  0
    2.1273   -0.9940   -4.9548 H   0  0  0  0  0  0  0  0  0  0  0  0
    3.5435   -1.7358   -4.2178 H   0  0  0  0  0  0  0  0  0  0  0  0
    3.3877    1.7609   -5.4954 H   0  0  0  0  0  0  0  0  0  0  0  0
    2.7468    2.4961   -4.0130 H   0  0  0  0  0  0  0  0  0  0  0  0
    1.7669    1.3638   -4.9305 H   0  0  0  0  0  0  0  0  0  0  0  0
    6.5610    2.5183   -1.0662 H   0  0  0  0  0  0  0  0  0  0  0  0
    7.1816    1.2362   -2.1121 H   0  0  0  0  0  0  0  0  0  0  0  0
    6.0975    0.8496   -0.7770 H   0  0  0  0  0  0  0  0  0  0  0  0
    4.7951    3.0929   -4.2309 H   0  0  0  0  0  0  0  0  0  0  0  0
    6.3767    2.3165   -4.1843 H   0  0  0  0  0  0  0  0  0  0  0  0
    6.0136    3.6572   -3.0981 H   0  0  0  0  0  0  0  0  0  0  0  0
   -0.1883    1.0923    2.2547 H   0  0  0  0  0  0  0  0  0  0  0  0
   -0.1786    3.4842    1.0734 H   0  0  0  0  0  0  0  0  0  0  0  0
    1.9226    4.8810    2.0191 H   0  0  0  0  0  0  0  0  0  0  0  0
    3.8514    4.3336    4.1033 H   0  0  0  0  0  0  0  0  0  0  0  0
    3.0528    1.0767    6.2930 H   0  0  0  0  0  0  0  0  0  0  0  0
    4.9819    2.3426    5.2652 H   0  0  0  0  0  0  0  0  0  0  0  0
    4.4884    1.5245    3.7828 H   0  0  0  0  0  0  0  0  0  0  0  0
    0.6044    3.3117    6.5216 H   0  0  0  0  0  0  0  0  0  0  0  0
    1.0946    4.7372    5.6114 H   0  0  0  0  0  0  0  0  0  0  0  0
    0.5039    3.3227    4.7554 H   0  0  0  0  0  0  0  0  0  0  0  0
    2.7347    3.4025    7.6973 H   0  0  0  0  0  0  0  0  0  0  0  0
    4.2788    3.4401    6.8559 H   0  0  0  0  0  0  0  0  0  0  0  0
    3.1955    4.8236    6.7606 H   0  0  0  0  0  0  0  0  0  0  0  0
    3.0198   -0.9845    4.8425 H   0  0  0  0  0  0  0  0  0  0  0  0
    1.9811   -1.0607    3.4149 H   0  0  0  0  0  0  0  0  0  0  0  0
    3.5293   -0.2344    3.3233 H   0  0  0  0  0  0  0  0  0  0  0  0
    0.9058   -0.1778    5.9752 H   0  0  0  0  0  0  0  0  0  0  0  0
    0.0601   -0.1589    4.4305 H   0  0  0  0  0  0  0  0  0  0  0  0
    0.0838    1.2852    5.4393 H   0  0  0  0  0  0  0  0  0  0  0  0
  1  2  1  0  0  0  0
  3  1  1  0  0  0  0
  4  5  2  0  0  0  0
  5 32  1  0  0  0  0
  5  6  1  0  0  0  0
  6 33  1  0  0  0  0
  7 34  1  6  0  0  0
  7  6  1  0  0  0  0
  7  1  1  0  0  0  0
  8  4  1  6  0  0  0
  8  7  1  0  0  0  0
  9 35  1  1  0  0  0
  9 13  1  0  0  0  0
  9  8  1  0  0  0  0
 10 11  1  0  0  0  0
 10  9  1  0  0  0  0
 11 36  1  6  0  0  0
 11 12  1  0  0  0  0
 11 13  1  0  0  0  0
 12  4  1  0  0  0  0
 12 16  1  0  0  0  0
 13 38  1  0  0  0  0
 14 41  1  0  0  0  0
 14 10  1  0  0  0  0
 15 43  1  0  0  0  0
 15 10  1  0  0  0  0
 16 45  1  0  0  0  0
 16 47  1  0  0  0  0
 17 50  1  0  0  0  0
 17 12  1  0  0  0  0
 18 26  1  0  0  0  0
 19 18  2  0  0  0  0
 20 21  2  0  0  0  0
 20 19  1  0  0  0  0
 22 21  1  1  0  0  0
 22 18  1  0  0  0  0
 22 23  1  0  0  0  0
 23 54  1  6  0  0  0
 23 27  1  0  0  0  0
 23 24  1  0  0  0  0
 24 28  1  0  0  0  0
 24 29  1  0  0  0  0
 25 24  1  0  0  0  0
 25 55  1  1  0  0  0
 26 31  1  0  0  0  0
 26 25  1  0  0  0  0
 27 56  1  0  0  0  0
 27 25  1  0  0  0  0
 28 59  1  0  0  0  0
 28 58  1  0  0  0  0
 29 62  1  0  0  0  0
 29 61  1  0  0  0  0
 30 26  1  0  0  0  0
 30 64  1  0  0  0  0
 31 69  1  0  0  0  0
 31 67  1  0  0  0  0
 37 13  1  0  0  0  0
 39 14  1  0  0  0  0
 40 14  1  0  0  0  0
 42 15  1  0  0  0  0
 44 15  1  0  0  0  0
 46 16  1  0  0  0  0
 48 17  1  0  0  0  0
 49 17  1  0  0  0  0
 51 19  1  0  0  0  0
 52 20  1  0  0  0  0
 53 21  1  0  0  0  0
 57 27  1  0  0  0  0
 60 28  1  0  0  0  0
 63 29  1  0  0  0  0
 65 30  1  0  0  0  0
 66 30  1  0  0  0  0
 68 31  1  0  0  0  0
M  END
$$$$
