CSD_code = VAWPOY | q = 0 | S = 0 | Stoichiometry = C17H20Cl2Zr | MND = 12
 OpenBabel04212202103D

 40 42  0  0  1  0  0  0  0  0999 V2000
   -4.6914   -2.3591  -21.3977 Zr  0  0  0  0  0  0  0  0  0  0  0  0
   -3.2837   -4.2451  -21.5727 Cl  0  0  0  0  0  0  0  0  0  0  0  0
   -2.7805   -1.0897  -20.9273 Cl  0  0  0  0  0  0  0  0  0  0  0  0
   -6.6155   -1.9074  -19.9154 C   0  0  0  0  0  0  0  0  0  0  0  0
   -5.4438   -1.6895  -19.1479 C   0  0  0  0  0  3  0  0  0  0  0  0
   -4.8007   -2.9360  -18.9733 C   0  0  0  0  0  0  0  0  0  0  0  0
   -5.5774   -3.9229  -19.6166 C   0  0  0  0  0  0  0  0  0  0  0  0
   -6.6919   -3.2917  -20.2038 C   0  0  0  0  0  0  0  0  0  0  0  0
   -6.1320   -1.1189  -23.0644 C   0  0  1  0  0  3  0  0  0  0  0  0
   -6.4676   -2.4915  -23.1644 C   0  0  0  0  0  3  0  0  0  0  0  0
   -5.3170   -3.1863  -23.6086 C   0  0  1  0  0  0  0  0  0  0  0  0
   -4.2695   -2.2436  -23.8015 C   0  0  0  0  0  0  0  0  0  0  0  0
   -4.7757   -0.9656  -23.4696 C   0  0  0  0  0  0  0  0  0  0  0  0
   -4.2374    0.4199  -23.7309 C   0  0  0  0  0  0  0  0  0  0  0  0
   -5.4162    1.4046  -23.7125 C   0  0  1  0  0  0  0  0  0  0  0  0
   -6.6250    0.7824  -24.4360 C   0  0  0  0  0  0  0  0  0  0  0  0
   -6.9778    0.1203  -23.0794 C   0  0  2  0  0  0  0  0  0  0  0  0
   -6.2364    1.3064  -22.4008 C   0  0  0  0  0  0  0  0  0  0  0  0
   -5.4865    1.0667  -21.0985 C   0  0  0  0  0  0  0  0  0  0  0  0
   -7.1492    2.5157  -22.2007 C   0  0  0  0  0  0  0  0  0  0  0  0
   -7.3973   -1.1825  -20.1074 H   0  0  0  0  0  0  0  0  0  0  0  0
   -5.1535   -0.7639  -18.6638 H   0  0  0  0  0  0  0  0  0  0  0  0
   -3.9142   -3.1148  -18.3758 H   0  0  0  0  0  0  0  0  0  0  0  0
   -5.3913   -4.9891  -19.5926 H   0  0  0  0  0  0  0  0  0  0  0  0
   -7.5347   -3.8013  -20.6537 H   0  0  0  0  0  0  0  0  0  0  0  0
   -7.4635   -2.9080  -23.0814 H   0  0  0  0  0  0  0  0  0  0  0  0
   -5.2682   -4.2406  -23.8578 H   0  0  0  0  0  0  0  0  0  0  0  0
   -3.2903   -2.4606  -24.2160 H   0  0  0  0  0  0  0  0  0  0  0  0
   -3.4801    0.7118  -22.9954 H   0  0  0  0  0  0  0  0  0  0  0  0
   -3.7617    0.4440  -24.7164 H   0  0  0  0  0  0  0  0  0  0  0  0
   -5.0997    2.4013  -24.0205 H   0  0  0  0  0  0  0  0  0  0  0  0
   -7.3525    1.5174  -24.7670 H   0  0  0  0  0  0  0  0  0  0  0  0
   -6.4040    0.0986  -25.2526 H   0  0  0  0  0  0  0  0  0  0  0  0
   -8.0269   -0.0473  -22.8310 H   0  0  0  0  0  0  0  0  0  0  0  0
   -4.9134    0.1325  -21.1118 H   0  0  0  0  0  0  0  0  0  0  0  0
   -6.1894    1.0456  -20.2660 H   0  0  0  0  0  0  0  0  0  0  0  0
   -4.7928    1.8886  -20.9271 H   0  0  0  0  0  0  0  0  0  0  0  0
   -7.6930    2.7772  -23.1026 H   0  0  0  0  0  0  0  0  0  0  0  0
   -7.8754    2.3111  -21.4159 H   0  0  0  0  0  0  0  0  0  0  0  0
   -6.5582    3.3785  -21.9004 H   0  0  0  0  0  0  0  0  0  0  0  0
  1  3  1  0  0  0  0
  2  1  1  0  0  0  0
  4  5  1  0  0  0  0
  5  6  1  0  0  0  0
  5 22  1  0  0  0  0
  6 23  1  0  0  0  0
  7 24  1  0  0  0  0
  7  6  2  0  0  0  0
  8  4  2  0  0  0  0
  8  7  1  0  0  0  0
  9 13  1  6  0  0  0
 10 26  1  0  0  0  0
 10  9  1  0  0  0  0
 11 27  1  6  0  0  0
 11 10  1  0  0  0  0
 11  1  1  0  0  0  0
 12 11  1  0  0  0  0
 12 13  2  0  0  0  0
 14 15  1  0  0  0  0
 14 13  1  0  0  0  0
 14 29  1  0  0  0  0
 15 31  1  6  0  0  0
 15 18  1  0  0  0  0
 16 15  1  0  0  0  0
 16 17  1  0  0  0  0
 17  9  1  0  0  0  0
 17 34  1  1  0  0  0
 17 18  1  0  0  0  0
 18 20  1  0  0  0  0
 18 19  1  0  0  0  0
 19 37  1  0  0  0  0
 19 36  1  0  0  0  0
 20 40  1  0  0  0  0
 20 39  1  0  0  0  0
 21  4  1  0  0  0  0
 25  8  1  0  0  0  0
 28 12  1  0  0  0  0
 30 14  1  0  0  0  0
 32 16  1  0  0  0  0
 33 16  1  0  0  0  0
 35 19  1  0  0  0  0
 38 20  1  0  0  0  0
M  END
$$$$
