CSD_code = VAWRUG | q = 0 | S = 0 | Stoichiometry = C6H8Cl3PTi | MND = 8
 OpenBabel04212202103D

 19 19  0  0  1  0  0  0  0  0999 V2000
    1.1477    1.8780    2.6629 Ti  0  0  0  0  0  0  0  0  0  0  0  0
    2.1264    0.8196    1.0780 Cl  0  0  0  0  0  0  0  0  0  0  0  0
    1.4005    0.3909    4.2239 Cl  0  0  0  0  0  0  0  0  0  0  0  0
    2.7322    3.1983    3.2440 Cl  0  0  0  0  0  0  0  0  0  0  0  0
   -0.2534    3.5245    1.2457 P   0  0  0  0  0  0  0  0  0  0  0  0
   -0.8169    1.8517    1.3718 C   0  0  0  0  0  0  0  0  0  0  0  0
   -1.1252    1.4527    2.6832 C   0  0  0  0  0  0  0  0  0  0  0  0
   -0.8579    2.4885    3.6289 C   0  0  2  0  0  0  0  0  0  0  0  0
   -0.3566    3.6455    3.0082 C   0  0  0  0  0  0  0  0  0  0  0  0
   -1.7621    0.1406    3.0351 C   0  0  0  0  0  0  0  0  0  0  0  0
   -1.1818    2.3938    5.0908 C   0  0  0  0  0  0  0  0  0  0  0  0
   -1.0027    1.2224    0.5063 H   0  0  0  0  0  0  0  0  0  0  0  0
   -0.1472    4.5615    3.5530 H   0  0  0  0  0  0  0  0  0  0  0  0
   -1.2193   -0.3502    3.8438 H   0  0  0  0  0  0  0  0  0  0  0  0
   -2.7891    0.3063    3.3656 H   0  0  0  0  0  0  0  0  0  0  0  0
   -1.7759   -0.5204    2.1698 H   0  0  0  0  0  0  0  0  0  0  0  0
   -2.2633    2.4434    5.2322 H   0  0  0  0  0  0  0  0  0  0  0  0
   -0.7214    3.2159    5.6374 H   0  0  0  0  0  0  0  0  0  0  0  0
   -0.8259    1.4512    5.5071 H   0  0  0  0  0  0  0  0  0  0  0  0
  1  4  1  0  0  0  0
  1  8  1  0  0  0  0
  1  3  1  0  0  0  0
  2  1  1  0  0  0  0
  5  6  1  0  0  0  0
  5  9  2  0  0  0  0
  6  7  2  0  0  0  0
  7 10  1  0  0  0  0
  7  8  1  0  0  0  0
  8 11  1  1  0  0  0
  9 13  1  0  0  0  0
  9  8  1  0  0  0  0
 10 15  1  0  0  0  0
 10 14  1  0  0  0  0
 11 17  1  0  0  0  0
 11 19  1  0  0  0  0
 11 18  1  0  0  0  0
 12  6  1  0  0  0  0
 16 10  1  0  0  0  0
M  END
$$$$
