CSD_code = VAWVUL | q = 0 | S = 0 | Stoichiometry = C7H16Br2N2Zn | MND = 4
 OpenBabel04212202103D

 28 29  0  0  1  0  0  0  0  0999 V2000
    3.1907    1.0398    0.4315 Br  0  0  0  0  0  0  0  0  0  0  0  0
   -0.6269    3.2668    1.1390 Br  0  0  0  0  0  0  0  0  0  0  0  0
    1.3476    2.4791    0.0982 Zn  0  0  0  0  0  0  0  0  0  0  0  0
    0.7491    2.2822   -2.0334 N   0  0  1  0  0  4  0  0  0  0  0  0
    2.1129    4.2804   -0.9561 N   0  0  2  0  0  4  0  0  0  0  0  0
    0.1588    3.5861   -2.3514 C   0  0  0  0  0  0  0  0  0  0  0  0
    0.9553    4.7533   -1.7216 C   0  0  0  0  0  0  0  0  0  0  0  0
    3.2374    3.9397   -1.8436 C   0  0  0  0  0  0  0  0  0  0  0  0
    2.8164    3.2093   -3.1152 C   0  0  0  0  0  0  0  0  0  0  0  0
    1.9138    2.0003   -2.8891 C   0  0  0  0  0  0  0  0  0  0  0  0
   -0.2407    1.2207   -2.2184 C   0  0  0  0  0  0  0  0  0  0  0  0
    2.5504    5.3104   -0.0137 C   0  0  0  0  0  0  0  0  0  0  0  0
    0.0709    3.7110   -3.4380 H   0  0  0  0  0  0  0  0  0  0  0  0
   -0.8507    3.5973   -1.9361 H   0  0  0  0  0  0  0  0  0  0  0  0
    0.2984    5.2804   -1.0271 H   0  0  0  0  0  0  0  0  0  0  0  0
    1.2718    5.4722   -2.4879 H   0  0  0  0  0  0  0  0  0  0  0  0
    3.7630    4.8592   -2.1402 H   0  0  0  0  0  0  0  0  0  0  0  0
    3.9368    3.3196   -1.2776 H   0  0  0  0  0  0  0  0  0  0  0  0
    2.3306    3.9088   -3.7975 H   0  0  0  0  0  0  0  0  0  0  0  0
    3.7227    2.8582   -3.6112 H   0  0  0  0  0  0  0  0  0  0  0  0
    2.4870    1.1953   -2.4228 H   0  0  0  0  0  0  0  0  0  0  0  0
    1.5703    1.6462   -3.8722 H   0  0  0  0  0  0  0  0  0  0  0  0
   -1.0794    1.3702   -1.5389 H   0  0  0  0  0  0  0  0  0  0  0  0
   -0.6208    1.2027   -3.2468 H   0  0  0  0  0  0  0  0  0  0  0  0
    0.2188    0.2566   -2.0011 H   0  0  0  0  0  0  0  0  0  0  0  0
    3.4248    4.9541    0.5306 H   0  0  0  0  0  0  0  0  0  0  0  0
    2.8161    6.2397   -0.5315 H   0  0  0  0  0  0  0  0  0  0  0  0
    1.7559    5.5239    0.7008 H   0  0  0  0  0  0  0  0  0  0  0  0
  3  1  1  0  0  0  0
  3  2  1  0  0  0  0
  4 11  1  6  0  0  0
  4  3  1  0  0  0  0
  5 12  1  1  0  0  0
  5  3  1  0  0  0  0
  6  4  1  0  0  0  0
  6 14  1  0  0  0  0
  6  7  1  0  0  0  0
  7 15  1  0  0  0  0
  7  5  1  0  0  0  0
  8 18  1  0  0  0  0
  8  5  1  0  0  0  0
  9 10  1  0  0  0  0
  9  8  1  0  0  0  0
 10 21  1  0  0  0  0
 10  4  1  0  0  0  0
 11 25  1  0  0  0  0
 11 23  1  0  0  0  0
 12 26  1  0  0  0  0
 12 28  1  0  0  0  0
 13  6  1  0  0  0  0
 16  7  1  0  0  0  0
 17  8  1  0  0  0  0
 19  9  1  0  0  0  0
 20  9  1  0  0  0  0
 22 10  1  0  0  0  0
 24 11  1  0  0  0  0
 27 12  1  0  0  0  0
M  END
$$$$
