CSD_code = VAXNIS | q = 0 | S = 0 | Stoichiometry = C18H28Br3N4O2Rh | MND = 6
 OpenBabel04212202103D

 56 60  0  0  1  0  0  0  0  0999 V2000
    8.0285    0.7196    2.9442 Rh  0  0  0  0  0  0  0  0  0  0  0  0
    8.5988    0.6786    5.3421 Br  0  0  0  0  0  0  0  0  0  0  0  0
    5.6420    0.0134    3.3184 Br  0  0  0  0  0  0  0  0  0  0  0  0
   10.3520    1.4037    2.2574 Br  0  0  0  0  0  0  0  0  0  0  0  0
    7.3468    2.6512    2.9437 N   0  0  2  0  0  0  0  0  0  0  0  0
    7.1239    3.7423    3.8773 C   0  0  1  0  0  0  0  0  0  0  0  0
    8.4574    4.3210    4.3922 C   0  0  0  0  0  0  0  0  0  0  0  0
    9.2998    4.9457    3.2835 C   0  0  0  0  0  0  0  0  0  0  0  0
    8.1873    5.3178    5.5142 C   0  0  0  0  0  0  0  0  0  0  0  0
    6.2610    4.7122    3.0326 C   0  0  0  0  0  0  0  0  0  0  0  0
    6.2622    4.1661    1.7015 O   0  0  0  0  0  0  0  0  0  0  0  0
    6.8620    2.9906    1.8030 C   0  0  2  0  0  3  0  0  0  0  0  0
    6.9665    2.1129    0.7560 N   0  0  0  0  0  0  0  0  0  0  0  0
    6.6453    2.0981   -0.5836 C   0  0  0  0  0  0  0  0  0  0  0  0
    7.0360    0.8912   -1.0513 C   0  0  0  0  0  0  0  0  0  0  0  0
    7.5842    0.1785   -0.0016 N   0  0  0  0  0  0  0  0  0  0  0  0
    7.5376    0.9251    1.0925 C   0  0  2  0  0  3  0  0  0  0  0  0
    8.1951   -1.1402   -0.0533 C   0  0  0  0  0  0  0  0  0  0  0  0
    9.4239   -1.0647   -0.9710 C   0  0  0  0  0  0  0  0  0  0  0  0
    7.1584   -2.1500   -0.5642 C   0  0  0  0  0  0  0  0  0  0  0  0
    8.6744   -1.6390    1.3035 C   0  0  2  0  0  3  0  0  0  0  0  0
    9.2965   -2.8162    1.2073 O   0  0  0  0  0  0  0  0  0  0  0  0
    9.8074   -3.1408    2.5026 C   0  0  0  0  0  0  0  0  0  0  0  0
    9.1337   -2.1248    3.4373 C   0  0  2  0  0  0  0  0  0  0  0  0
    8.0268   -2.7132    4.3368 C   0  0  0  0  0  0  0  0  0  0  0  0
    6.9868   -3.5076    3.5524 C   0  0  0  0  0  0  0  0  0  0  0  0
    8.6621   -3.5512    5.4412 C   0  0  0  0  0  0  0  0  0  0  0  0
    8.5809   -1.1562    2.4862 N   0  0  1  0  0  0  0  0  0  0  0  0
    6.5672    3.3529    4.7375 H   0  0  0  0  0  0  0  0  0  0  0  0
    9.0169    3.4782    4.8103 H   0  0  0  0  0  0  0  0  0  0  0  0
    9.4706    4.2389    2.4747 H   0  0  0  0  0  0  0  0  0  0  0  0
    8.8370    5.8426    2.8749 H   0  0  0  0  0  0  0  0  0  0  0  0
   10.2708    5.2223    3.6849 H   0  0  0  0  0  0  0  0  0  0  0  0
    7.6440    4.8413    6.3262 H   0  0  0  0  0  0  0  0  0  0  0  0
    9.1295    5.6888    5.9076 H   0  0  0  0  0  0  0  0  0  0  0  0
    7.6063    6.1664    5.1571 H   0  0  0  0  0  0  0  0  0  0  0  0
    6.6712    5.7205    2.9834 H   0  0  0  0  0  0  0  0  0  0  0  0
    5.2242    4.7554    3.3754 H   0  0  0  0  0  0  0  0  0  0  0  0
    6.1790    2.9275   -1.0726 H   0  0  0  0  0  0  0  0  0  0  0  0
    6.9606    0.4951   -2.0424 H   0  0  0  0  0  0  0  0  0  0  0  0
   10.1379   -0.3443   -0.5744 H   0  0  0  0  0  0  0  0  0  0  0  0
    9.9021   -2.0378   -1.0272 H   0  0  0  0  0  0  0  0  0  0  0  0
    9.1297   -0.7567   -1.9709 H   0  0  0  0  0  0  0  0  0  0  0  0
    6.2746   -2.1320    0.0713 H   0  0  0  0  0  0  0  0  0  0  0  0
    6.8646   -1.9086   -1.5822 H   0  0  0  0  0  0  0  0  0  0  0  0
    7.5826   -3.1495   -0.5503 H   0  0  0  0  0  0  0  0  0  0  0  0
   10.8958   -3.0304    2.4768 H   0  0  0  0  0  0  0  0  0  0  0  0
    9.5521   -4.1760    2.7251 H   0  0  0  0  0  0  0  0  0  0  0  0
    9.8604   -1.6111    4.0751 H   0  0  0  0  0  0  0  0  0  0  0  0
    7.5162   -1.8707    4.8110 H   0  0  0  0  0  0  0  0  0  0  0  0
    6.5323   -2.8935    2.7779 H   0  0  0  0  0  0  0  0  0  0  0  0
    7.4109   -4.3988    3.0932 H   0  0  0  0  0  0  0  0  0  0  0  0
    6.1947   -3.8205    4.2271 H   0  0  0  0  0  0  0  0  0  0  0  0
    9.3354   -2.9405    6.0368 H   0  0  0  0  0  0  0  0  0  0  0  0
    7.8869   -3.9393    6.0959 H   0  0  0  0  0  0  0  0  0  0  0  0
    9.2202   -4.3919    5.0330 H   0  0  0  0  0  0  0  0  0  0  0  0
  1  3  1  0  0  0  0
  1  2  1  0  0  0  0
  4  1  1  0  0  0  0
  5  1  1  0  0  0  0
  5  6  1  0  0  0  0
  6  7  1  0  0  0  0
  6 29  1  0  0  0  0
  7 30  1  0  0  0  0
  7  9  1  0  0  0  0
  8 33  1  0  0  0  0
  8  7  1  0  0  0  0
  9 35  1  0  0  0  0
  9 34  1  0  0  0  0
 10 38  1  0  0  0  0
 10  6  1  0  0  0  0
 11 12  1  0  0  0  0
 11 10  1  0  0  0  0
 12  5  1  0  0  0  0
 13 17  1  0  0  0  0
 13 12  1  0  0  0  0
 14 13  1  0  0  0  0
 15 14  2  0  0  0  0
 15 16  1  0  0  0  0
 16 17  1  0  0  0  0
 17  1  1  0  0  0  0
 18 16  1  0  0  0  0
 18 21  1  0  0  0  0
 19 41  1  0  0  0  0
 19 18  1  0  0  0  0
 20 46  1  0  0  0  0
 20 18  1  0  0  0  0
 20 44  1  0  0  0  0
 21 28  1  0  0  0  0
 22 21  1  0  0  0  0
 22 23  1  0  0  0  0
 23 48  1  0  0  0  0
 23 24  1  0  0  0  0
 24 49  1  0  0  0  0
 24 25  1  0  0  0  0
 25 50  1  0  0  0  0
 25 27  1  0  0  0  0
 26 53  1  0  0  0  0
 26 25  1  0  0  0  0
 27 54  1  0  0  0  0
 27 55  1  0  0  0  0
 28  1  1  0  0  0  0
 28 24  1  0  0  0  0
 31  8  1  0  0  0  0
 32  8  1  0  0  0  0
 36  9  1  0  0  0  0
 37 10  1  0  0  0  0
 39 14  1  0  0  0  0
 40 15  1  0  0  0  0
 42 19  1  0  0  0  0
 43 19  1  0  0  0  0
 45 20  1  0  0  0  0
 47 23  1  0  0  0  0
 51 26  1  0  0  0  0
 52 26  1  0  0  0  0
 56 27  1  0  0  0  0
M  END
$$$$
