CSD_code = VAYHIP | q = 1 | S = 0 | Stoichiometry = C19H18Cl2N3OPt(1+) | MND = 4
 OpenBabel04212202103D

 44 48  0  0  1  0  0  0  0  0999 V2000
   17.2395    3.4555    7.2694 Pt  0  0  2  0  0  0  0  0  0  0  0  0
   19.0716    3.8158    8.5351 Cl  0  0  0  0  0  0  0  0  0  0  0  0
   16.7072    1.7821    8.1792 N   0  0  0  0  0  0  0  0  0  0  0  0
   15.5343    3.1245    6.1299 N   0  0  1  0  0  4  0  0  0  0  0  0
   17.4190    5.1145    6.2161 N   0  0  0  0  0  0  0  0  0  0  0  0
   17.4487    0.9827    8.9457 C   0  0  0  0  0  3  0  0  0  0  0  0
   18.4599    1.3156    9.1445 H   0  0  0  0  0  0  0  0  0  0  0  0
   16.9544   -0.1986    9.4722 C   0  0  0  0  0  0  0  0  0  0  0  0
   17.5839   -0.8127   10.0945 H   0  0  0  0  0  0  0  0  0  0  0  0
   15.6496   -0.5667    9.1861 C   0  0  0  0  0  0  0  0  0  0  0  0
   15.2331   -1.4808    9.5782 H   0  0  0  0  0  0  0  0  0  0  0  0
   14.8819    0.2648    8.3818 C   0  0  0  0  0  0  0  0  0  0  0  0
   13.8623    0.0094    8.1401 H   0  0  0  0  0  0  0  0  0  0  0  0
   15.4344    1.4371    7.8950 C   0  0  0  0  0  0  0  0  0  0  0  0
   14.6395    2.4206    7.0601 C   0  0  0  0  0  0  0  0  0  0  0  0
   14.1924    3.1496    7.7467 H   0  0  0  0  0  0  0  0  0  0  0  0
   13.8248    1.9110    6.5307 H   0  0  0  0  0  0  0  0  0  0  0  0
   15.1081    4.4777    5.7401 C   0  0  0  0  0  0  0  0  0  0  0  0
   14.5170    4.9145    6.5535 H   0  0  0  0  0  0  0  0  0  0  0  0
   14.4832    4.4515    4.8395 H   0  0  0  0  0  0  0  0  0  0  0  0
   16.3036    5.3780    5.5096 C   0  0  1  0  0  3  0  0  0  0  0  0
   16.2439    6.4545    4.6397 C   0  0  0  0  0  0  0  0  0  0  0  0
   15.3350    6.6513    4.0935 H   0  0  0  0  0  0  0  0  0  0  0  0
   17.3579    7.2657    4.4832 C   0  0  0  0  0  0  0  0  0  0  0  0
   17.3284    8.1092    3.8117 H   0  0  0  0  0  0  0  0  0  0  0  0
   18.5036    6.9719    5.2049 C   0  0  0  0  0  0  0  0  0  0  0  0
   19.3916    7.5748    5.1131 H   0  0  0  0  0  0  0  0  0  0  0  0
   18.4935    5.8861    6.0622 C   0  0  0  0  0  0  0  0  0  0  0  0
   19.3600    5.6221    6.6548 H   0  0  0  0  0  0  0  0  0  0  0  0
   15.8160    2.2873    4.9461 C   0  0  0  0  0  0  0  0  0  0  0  0
   16.0064    1.2664    5.2879 H   0  0  0  0  0  0  0  0  0  0  0  0
   14.9476    2.2851    4.2770 H   0  0  0  0  0  0  0  0  0  0  0  0
   17.0260    2.7996    4.2111 C   0  0  0  0  0  0  0  0  0  0  0  0
   16.8832    3.6010    3.0750 C   0  0  0  0  0  0  0  0  0  0  0  0
   15.6266    3.8838    2.6341 O   0  0  0  0  0  0  0  0  0  0  0  0
   15.6690    4.3189    1.7734 H   0  0  0  0  0  0  0  0  0  0  0  0
   18.0158    4.1035    2.4424 C   0  0  0  0  0  0  0  0  0  0  0  0
   17.9046    4.7104    1.5552 H   0  0  0  0  0  0  0  0  0  0  0  0
   19.2767    3.8404    2.9391 C   0  0  0  0  0  0  0  0  0  0  0  0
   20.1476    4.2412    2.4470 H   0  0  0  0  0  0  0  0  0  0  0  0
   19.4212    3.0457    4.0689 C   0  0  0  0  0  0  0  0  0  0  0  0
   20.9877    2.7120    4.6994 Cl  0  0  0  0  0  0  0  0  0  0  0  0
   18.3006    2.5164    4.6942 C   0  0  0  0  0  0  0  0  0  0  0  0
   18.4356    1.8363    5.5296 H   0  0  0  0  0  0  0  0  0  0  0  0
  1  3  1  0  0  0  0
  1  2  1  6  0  0  0
  3  6  1  0  0  0  0
  4 30  1  6  0  0  0
  4 15  1  0  0  0  0
  4  1  1  0  0  0  0
  5  1  1  0  0  0  0
  6  7  1  0  0  0  0
  6  8  1  0  0  0  0
  8  9  1  0  0  0  0
 10  8  2  0  0  0  0
 10 11  1  0  0  0  0
 12 10  1  0  0  0  0
 13 12  1  0  0  0  0
 14  3  1  0  0  0  0
 14 12  2  0  0  0  0
 15 16  1  0  0  0  0
 15 14  1  0  0  0  0
 17 15  1  0  0  0  0
 18  4  1  0  0  0  0
 18 19  1  0  0  0  0
 20 18  1  0  0  0  0
 21 22  1  1  0  0  0
 21 18  1  0  0  0  0
 21  5  1  0  0  0  0
 23 22  1  0  0  0  0
 24 22  2  0  0  0  0
 24 26  1  0  0  0  0
 25 24  1  0  0  0  0
 26 28  2  0  0  0  0
 27 26  1  0  0  0  0
 28  5  1  0  0  0  0
 28 29  1  0  0  0  0
 30 31  1  0  0  0  0
 32 30  1  0  0  0  0
 33 43  1  0  0  0  0
 33 30  1  0  0  0  0
 34 33  2  0  0  0  0
 35 34  1  0  0  0  0
 36 35  1  0  0  0  0
 37 39  2  0  0  0  0
 37 34  1  0  0  0  0
 38 37  1  0  0  0  0
 39 41  1  0  0  0  0
 40 39  1  0  0  0  0
 41 43  2  0  0  0  0
 41 42  1  0  0  0  0
 43 44  1  0  0  0  0
M  END
$$$$
