CSD_code = VAYHEL | q = 1 | S = 0 | Stoichiometry = C20H21ClN3OPt(1+) | MND = 4
 OpenBabel04212202103D

 47 51  0  0  1  0  0  0  0  0999 V2000
    6.0353    9.7611    7.5193 Pt  0  0  2  0  0  0  0  0  0  0  0  0
    8.0278   10.6581    8.0269 Cl  0  0  0  0  0  0  0  0  0  0  0  0
    6.6632    7.8879    7.5083 N   0  0  0  0  0  0  0  0  0  0  0  0
    4.2017    8.9390    7.0716 N   0  0  1  0  0  4  0  0  0  0  0  0
    5.0591   11.4812    7.4797 N   0  0  0  0  0  0  0  0  0  0  0  0
    7.9109    7.4311    7.4045 C   0  0  0  0  0  3  0  0  0  0  0  0
    8.6952    8.1772    7.4055 H   0  0  0  0  0  0  0  0  0  0  0  0
    8.1944    6.0794    7.3133 C   0  0  0  0  0  0  0  0  0  0  0  0
    9.2175    5.7503    7.2382 H   0  0  0  0  0  0  0  0  0  0  0  0
    7.1467    5.1725    7.3192 C   0  0  0  0  0  0  0  0  0  0  0  0
    7.3325    4.1128    7.2447 H   0  0  0  0  0  0  0  0  0  0  0  0
    5.8485    5.6520    7.4217 C   0  0  0  0  0  0  0  0  0  0  0  0
    5.0077    4.9777    7.4253 H   0  0  0  0  0  0  0  0  0  0  0  0
    5.6346    7.0160    7.5194 C   0  0  0  0  0  0  0  0  0  0  0  0
    4.2509    7.6045    7.6860 C   0  0  0  0  0  0  0  0  0  0  0  0
    3.4991    6.9348    7.2600 H   0  0  0  0  0  0  0  0  0  0  0  0
    4.0560    7.6991    8.7610 H   0  0  0  0  0  0  0  0  0  0  0  0
    3.2449    9.8737    7.6794 C   0  0  0  0  0  0  0  0  0  0  0  0
    2.2353    9.7386    7.2743 H   0  0  0  0  0  0  0  0  0  0  0  0
    3.2041    9.6842    8.7589 H   0  0  0  0  0  0  0  0  0  0  0  0
    3.7230   11.2963    7.4865 C   0  0  1  0  0  3  0  0  0  0  0  0
    2.8491   12.3630    7.3658 C   0  0  0  0  0  0  0  0  0  0  0  0
    1.7846   12.1890    7.3735 H   0  0  0  0  0  0  0  0  0  0  0  0
    3.3582   13.6490    7.2444 C   0  0  0  0  0  0  0  0  0  0  0  0
    2.6922   14.4922    7.1530 H   0  0  0  0  0  0  0  0  0  0  0  0
    4.7326   13.8246    7.2427 C   0  0  0  0  0  0  0  0  0  0  0  0
    5.1698   14.8053    7.1539 H   0  0  0  0  0  0  0  0  0  0  0  0
    5.5510   12.7137    7.3577 C   0  0  0  0  0  0  0  0  0  0  0  0
    6.6300   12.8004    7.3640 H   0  0  0  0  0  0  0  0  0  0  0  0
    4.0460    8.8596    5.5983 C   0  0  0  0  0  0  0  0  0  0  0  0
    4.2756    9.8479    5.1854 H   0  0  0  0  0  0  0  0  0  0  0  0
    4.7845    8.1421    5.2294 H   0  0  0  0  0  0  0  0  0  0  0  0
    2.6796    8.4413    5.1174 C   0  0  0  0  0  0  0  0  0  0  0  0
    2.3871    7.0982    4.8607 C   0  0  0  0  0  0  0  0  0  0  0  0
    3.3525    6.1602    5.1066 O   0  0  0  0  0  0  0  0  0  0  0  0
    3.0681    5.3092    4.7511 H   0  0  0  0  0  0  0  0  0  0  0  0
    1.1427    6.7363    4.3669 C   0  0  0  0  0  0  0  0  0  0  0  0
    0.9395    5.6936    4.1623 H   0  0  0  0  0  0  0  0  0  0  0  0
    0.1609    7.6858    4.1183 C   0  0  0  0  0  0  0  0  0  0  0  0
    0.4561    9.0215    4.3647 C   0  0  0  0  0  0  0  0  0  0  0  0
   -0.2843    9.7793    4.1619 H   0  0  0  0  0  0  0  0  0  0  0  0
    1.6983    9.3880    4.8446 C   0  0  0  0  0  0  0  0  0  0  0  0
    1.9246   10.4358    4.9855 H   0  0  0  0  0  0  0  0  0  0  0  0
   -1.1770    7.2690    3.6015 C   0  0  0  0  0  0  0  0  0  0  0  0
   -1.0761    6.4900    2.8495 H   0  0  0  0  0  0  0  0  0  0  0  0
   -1.7072    8.1122    3.1683 H   0  0  0  0  0  0  0  0  0  0  0  0
   -1.7816    6.8686    4.4154 H   0  0  0  0  0  0  0  0  0  0  0  0
  1  2  1  6  0  0  0
  3  1  1  0  0  0  0
  3 14  1  0  0  0  0
  4 30  1  6  0  0  0
  4  1  1  0  0  0  0
  4 18  1  0  0  0  0
  4 15  1  0  0  0  0
  5 21  1  0  0  0  0
  5  1  1  0  0  0  0
  6  7  1  0  0  0  0
  6  3  1  0  0  0  0
  8 10  2  0  0  0  0
  8  6  1  0  0  0  0
  9  8  1  0  0  0  0
 10 12  1  0  0  0  0
 11 10  1  0  0  0  0
 12 13  1  0  0  0  0
 12 14  2  0  0  0  0
 14 15  1  0  0  0  0
 15 17  1  0  0  0  0
 16 15  1  0  0  0  0
 18 20  1  0  0  0  0
 19 18  1  0  0  0  0
 21 22  1  1  0  0  0
 21 18  1  0  0  0  0
 22 23  1  0  0  0  0
 24 22  2  0  0  0  0
 25 24  1  0  0  0  0
 26 24  1  0  0  0  0
 26 28  2  0  0  0  0
 27 26  1  0  0  0  0
 28 29  1  0  0  0  0
 28  5  1  0  0  0  0
 31 30  1  0  0  0  0
 32 30  1  0  0  0  0
 33 30  1  0  0  0  0
 34 35  1  0  0  0  0
 34 33  1  0  0  0  0
 36 35  1  0  0  0  0
 37 34  2  0  0  0  0
 38 37  1  0  0  0  0
 39 40  2  0  0  0  0
 39 37  1  0  0  0  0
 40 42  1  0  0  0  0
 41 40  1  0  0  0  0
 42 43  1  0  0  0  0
 42 33  2  0  0  0  0
 44 39  1  0  0  0  0
 44 47  1  0  0  0  0
 45 44  1  0  0  0  0
 46 44  1  0  0  0  0
M  END
$$$$
