CSD_code = VAYLAJ | q = 0 | S = 0 | Stoichiometry = C16H25Cl2N3W | MND = 5
 OpenBabel04212202103D

 47 48  0  0  0  0  0  0  0  0999 V2000
    2.1418    1.4704    5.6489 C   0  0  0  0  0  0  0  0  0  0  0  0
    2.7987    0.7430    4.6679 C   0  0  0  0  0  0  0  0  0  0  0  0
    1.0349    3.6391    6.0859 C   0  0  0  0  0  0  0  0  0  0  0  0
    1.3949    5.0791    5.7013 C   0  0  0  0  0  0  0  0  0  0  0  0
    2.3776    5.3294    6.1055 H   0  0  0  0  0  0  0  0  0  0  0  0
    0.6617    5.7808    6.0900 H   0  0  0  0  0  0  0  0  0  0  0  0
    1.4357    5.1664    4.6135 H   0  0  0  0  0  0  0  0  0  0  0  0
    1.0740    3.4802    7.6122 C   0  0  0  0  0  0  0  0  0  0  0  0
    0.6951    2.5082    7.9200 H   0  0  0  0  0  0  0  0  0  0  0  0
    0.4584    4.2459    8.0759 H   0  0  0  0  0  0  0  0  0  0  0  0
    2.0972    3.5914    7.9666 H   0  0  0  0  0  0  0  0  0  0  0  0
   -0.3508    3.2699    5.5363 C   0  0  0  0  0  0  0  0  0  0  0  0
   -0.3588    3.3802    4.4535 H   0  0  0  0  0  0  0  0  0  0  0  0
   -1.1105    3.9186    5.9635 H   0  0  0  0  0  0  0  0  0  0  0  0
   -0.5962    2.2382    5.7802 H   0  0  0  0  0  0  0  0  0  0  0  0
    3.5522    0.8424    2.3141 C   0  0  0  0  0  0  0  0  0  0  0  0
    4.5223   -0.3389    2.4539 C   0  0  0  0  0  0  0  0  0  0  0  0
    5.3831   -0.0383    3.0487 H   0  0  0  0  0  0  0  0  0  0  0  0
    4.8673   -0.6482    1.4712 H   0  0  0  0  0  0  0  0  0  0  0  0
    4.0430   -1.1921    2.9289 H   0  0  0  0  0  0  0  0  0  0  0  0
    4.2004    1.9546    1.4813 C   0  0  0  0  0  0  0  0  0  0  0  0
    3.5340    2.8189    1.4472 H   0  0  0  0  0  0  0  0  0  0  0  0
    4.4007    1.6162    0.4682 H   0  0  0  0  0  0  0  0  0  0  0  0
    5.1389    2.2599    1.9477 H   0  0  0  0  0  0  0  0  0  0  0  0
    2.2347    0.3902    1.6672 C   0  0  0  0  0  0  0  0  0  0  0  0
    1.7567   -0.3790    2.2705 H   0  0  0  0  0  0  0  0  0  0  0  0
    2.4207   -0.0114    0.6750 H   0  0  0  0  0  0  0  0  0  0  0  0
    1.5553    1.2366    1.5851 H   0  0  0  0  0  0  0  0  0  0  0  0
    4.6052    5.5946    3.2795 C   0  0  0  0  0  0  0  0  0  0  0  0
    3.9461    6.2527    2.2302 C   0  0  0  0  0  0  0  0  0  0  0  0
    3.0374    5.8182    1.8367 H   0  0  0  0  0  0  0  0  0  0  0  0
    4.4557    7.4293    1.7198 C   0  0  0  0  0  0  0  0  0  0  0  0
    3.9398    7.9270    0.9112 H   0  0  0  0  0  0  0  0  0  0  0  0
    5.6206    7.9752    2.2350 C   0  0  0  0  0  0  0  0  0  0  0  0
    6.0128    8.8959    1.8301 H   0  0  0  0  0  0  0  0  0  0  0  0
    6.2816    7.3339    3.2735 C   0  0  0  0  0  0  0  0  0  0  0  0
    7.1901    7.7574    3.6766 H   0  0  0  0  0  0  0  0  0  0  0  0
    5.7870    6.1591    3.7946 C   0  0  0  0  0  0  0  0  0  0  0  0
    6.2816    5.6351    4.6044 H   0  0  0  0  0  0  0  0  0  0  0  0
    5.9791    1.9838    4.6690 Cl  0  0  0  0  0  0  0  0  0  0  0  0
    4.5155    3.5734    6.8652 Cl  0  0  0  0  0  0  0  0  0  0  0  0
    2.0398    2.8165    5.4339 N   0  0  0  0  0  0  0  0  0  0  0  0
    3.2654    1.4566    3.5993 N   0  0  0  0  0  0  0  0  0  0  0  0
    4.1587    4.4430    3.8166 N   0  0  0  0  0  2  0  0  0  0  0  0
    3.8385    2.9435    4.7103 W   0  0  0  0  0  0  0  0  0  0  0  0
    1.6541    0.9869    6.4922 H   0  0  0  0  0  0  0  0  0  0  0  0
    2.8541   -0.3427    4.6990 H   0  0  0  0  0  0  0  0  0  0  0  0
  1 46  1  0  0  0  0
  2 47  1  0  0  0  0
  2  1  2  0  0  0  0
  3  8  1  0  0  0  0
  4  3  1  0  0  0  0
  4  6  1  0  0  0  0
  4  5  1  0  0  0  0
  7  4  1  0  0  0  0
  8  9  1  0  0  0  0
  8 11  1  0  0  0  0
  8 10  1  0  0  0  0
 12 15  1  0  0  0  0
 12 14  1  0  0  0  0
 12  3  1  0  0  0  0
 13 12  1  0  0  0  0
 16 17  1  0  0  0  0
 16 43  1  0  0  0  0
 17 20  1  0  0  0  0
 17 18  1  0  0  0  0
 19 17  1  0  0  0  0
 21 24  1  0  0  0  0
 21 16  1  0  0  0  0
 22 21  1  0  0  0  0
 23 21  1  0  0  0  0
 25 26  1  0  0  0  0
 25 16  1  0  0  0  0
 27 25  1  0  0  0  0
 28 25  1  0  0  0  0
 29 38  1  0  0  0  0
 29 44  1  0  0  0  0
 30 29  2  0  0  0  0
 31 30  1  0  0  0  0
 32 30  1  0  0  0  0
 32 34  2  0  0  0  0
 33 32  1  0  0  0  0
 34 36  1  0  0  0  0
 35 34  1  0  0  0  0
 36 37  1  0  0  0  0
 36 38  2  0  0  0  0
 38 39  1  0  0  0  0
 40 45  1  0  0  0  0
 42  1  1  0  0  0  0
 42  3  1  0  0  0  0
 43  2  1  0  0  0  0
 43 45  1  0  0  0  0
 44 45  1  0  0  0  0
 45 42  1  0  0  0  0
 45 41  1  0  0  0  0
M  END
$$$$
