CSD_code = VAYZAY | q = 0 | S = 0 | Stoichiometry = C29H34Cl2N3PRu | MND = 6
 OpenBabel04212202103D

 70 74  0  0  1  0  0  0  0  0999 V2000
    8.0837    1.8994    3.5271 Ru  0  0  0  0  0  0  0  0  0  0  0  0
    9.7929    2.6861    2.0392 Cl  0  0  0  0  0  0  0  0  0  0  0  0
    6.2959    0.9965    4.8489 Cl  0  0  0  0  0  0  0  0  0  0  0  0
    7.4137    4.1081    3.6772 P   0  0  0  0  0  4  0  0  0  0  0  0
    6.8586    1.7817    2.0148 N   0  0  0  0  0  0  0  0  0  0  0  0
    6.3668    0.8804    1.9920 H   0  0  0  0  0  0  0  0  0  0  0  0
    8.6405   -0.0273    3.1270 N   0  0  0  0  0  0  0  0  0  0  0  0
    9.3531    1.7982    5.1126 N   0  0  0  0  0  0  0  0  0  0  0  0
    8.4429    5.3459    4.6222 C   0  0  0  0  0  0  0  0  0  0  0  0
    8.0777    6.3496    4.3807 H   0  0  0  0  0  0  0  0  0  0  0  0
    8.3062    5.1472    6.1302 C   0  0  0  0  0  0  0  0  0  0  0  0
    8.6888    4.1728    6.4240 H   0  0  0  0  0  0  0  0  0  0  0  0
    7.2716    5.2263    6.4566 H   0  0  0  0  0  0  0  0  0  0  0  0
    8.8864    5.9089    6.6513 H   0  0  0  0  0  0  0  0  0  0  0  0
    9.9047    5.2266    4.2042 C   0  0  0  0  0  0  0  0  0  0  0  0
   10.5027    5.9967    4.6908 H   0  0  0  0  0  0  0  0  0  0  0  0
   10.0178    5.3227    3.1264 H   0  0  0  0  0  0  0  0  0  0  0  0
   10.2993    4.2525    4.4890 H   0  0  0  0  0  0  0  0  0  0  0  0
    5.6797    4.5329    4.2436 C   0  0  0  0  0  0  0  0  0  0  0  0
    5.6302    4.1844    5.2825 H   0  0  0  0  0  0  0  0  0  0  0  0
    4.6510    3.7399    3.4432 C   0  0  0  0  0  0  0  0  0  0  0  0
    3.6529    3.9224    3.8394 H   0  0  0  0  0  0  0  0  0  0  0  0
    4.8516    2.6733    3.5201 H   0  0  0  0  0  0  0  0  0  0  0  0
    4.6611    4.0335    2.3948 H   0  0  0  0  0  0  0  0  0  0  0  0
    5.3597    6.0238    4.1767 C   0  0  0  0  0  0  0  0  0  0  0  0
    5.5277    6.4074    3.1712 H   0  0  0  0  0  0  0  0  0  0  0  0
    5.9532    6.6039    4.8784 H   0  0  0  0  0  0  0  0  0  0  0  0
    4.3103    6.1775    4.4251 H   0  0  0  0  0  0  0  0  0  0  0  0
    7.4134    4.7522    1.9599 C   0  0  0  0  0  0  0  0  0  0  0  0
    7.8235    6.0489    1.6698 C   0  0  0  0  0  0  0  0  0  0  0  0
    8.1078    6.7190    2.4647 H   0  0  0  0  0  0  0  0  0  0  0  0
    7.9005    6.5207    0.3707 C   0  0  0  0  0  0  0  0  0  0  0  0
    8.2349    7.5311    0.1865 H   0  0  0  0  0  0  0  0  0  0  0  0
    7.5709    5.6875   -0.6825 C   0  0  0  0  0  0  0  0  0  0  0  0
    7.6568    6.0307   -1.7026 H   0  0  0  0  0  0  0  0  0  0  0  0
    7.1294    4.4075   -0.4190 C   0  0  0  0  0  0  0  0  0  0  0  0
    6.8798    3.7533   -1.2417 H   0  0  0  0  0  0  0  0  0  0  0  0
    7.0244    3.9219    0.8881 C   0  0  0  0  0  0  0  0  0  0  0  0
    6.5041    2.5604    1.0484 C   0  0  2  0  0  3  0  0  0  0  0  0
    5.5276    2.0733    0.0552 C   0  0  0  0  0  0  0  0  0  0  0  0
    5.5778    0.7511   -0.3891 C   0  0  0  0  0  0  0  0  0  0  0  0
    6.3737    0.1002   -0.0518 H   0  0  0  0  0  0  0  0  0  0  0  0
    4.6424    0.2744   -1.2876 C   0  0  0  0  0  0  0  0  0  0  0  0
    4.7026   -0.7479   -1.6313 H   0  0  0  0  0  0  0  0  0  0  0  0
    3.6328    1.1033   -1.7479 C   0  0  0  0  0  0  0  0  0  0  0  0
    2.8998    0.7285   -2.4464 H   0  0  0  0  0  0  0  0  0  0  0  0
    3.5695    2.4164   -1.3094 C   0  0  0  0  0  0  0  0  0  0  0  0
    2.7821    3.0663   -1.6619 H   0  0  0  0  0  0  0  0  0  0  0  0
    4.5095    2.9008   -0.4206 C   0  0  0  0  0  0  0  0  0  0  0  0
    4.4515    3.9246   -0.0806 H   0  0  0  0  0  0  0  0  0  0  0  0
    8.9904   -0.3806    1.8865 C   0  0  0  0  0  3  0  0  0  0  0  0
    8.9919    0.4070    1.1418 H   0  0  0  0  0  0  0  0  0  0  0  0
    9.3759   -1.6650    1.5510 C   0  0  0  0  0  0  0  0  0  0  0  0
    9.6531   -1.8903    0.5331 H   0  0  0  0  0  0  0  0  0  0  0  0
    9.4007   -2.6425    2.5342 C   0  0  0  0  0  0  0  0  0  0  0  0
    9.6949   -3.6553    2.3051 H   0  0  0  0  0  0  0  0  0  0  0  0
    9.0329   -2.2784    3.8203 C   0  0  0  0  0  0  0  0  0  0  0  0
    9.0275   -2.9977    4.6241 H   0  0  0  0  0  0  0  0  0  0  0  0
    8.6636   -0.9702    4.0724 C   0  0  0  0  0  0  0  0  0  0  0  0
    8.3448   -0.6748    5.0646 H   0  0  0  0  0  0  0  0  0  0  0  0
    8.9129    1.7913    6.3780 C   0  0  0  0  0  3  0  0  0  0  0  0
    7.8540    1.9739    6.5174 H   0  0  0  0  0  0  0  0  0  0  0  0
    9.7303    1.5256    7.4606 C   0  0  0  0  0  0  0  0  0  0  0  0
    9.3125    1.5288    8.4552 H   0  0  0  0  0  0  0  0  0  0  0  0
   11.0750    1.2612    7.2487 C   0  0  0  0  0  0  0  0  0  0  0  0
   11.7396    1.0541    8.0733 H   0  0  0  0  0  0  0  0  0  0  0  0
   11.5361    1.2727    5.9412 C   0  0  0  0  0  0  0  0  0  0  0  0
   12.5723    1.0773    5.7134 H   0  0  0  0  0  0  0  0  0  0  0  0
   10.6521    1.5383    4.9126 C   0  0  0  0  0  0  0  0  0  0  0  0
   10.9966    1.5727    3.8846 H   0  0  0  0  0  0  0  0  0  0  0  0
  1  4  1  0  0  0  0
  1  3  1  0  0  0  0
  1  8  1  0  0  0  0
  2  1  1  0  0  0  0
  4 19  1  0  0  0  0
  4  9  1  0  0  0  0
  5  1  1  0  0  0  0
  6  5  1  0  0  0  0
  7  1  1  0  0  0  0
  7 59  1  0  0  0  0
  8 61  1  0  0  0  0
  9 11  1  0  0  0  0
 10  9  1  0  0  0  0
 11 12  1  0  0  0  0
 11 13  1  0  0  0  0
 11 14  1  0  0  0  0
 15 18  1  0  0  0  0
 15  9  1  0  0  0  0
 15 16  1  0  0  0  0
 17 15  1  0  0  0  0
 19 20  1  0  0  0  0
 21 23  1  0  0  0  0
 21 22  1  0  0  0  0
 21 19  1  0  0  0  0
 24 21  1  0  0  0  0
 25 19  1  0  0  0  0
 25 28  1  0  0  0  0
 25 27  1  0  0  0  0
 26 25  1  0  0  0  0
 29  4  1  0  0  0  0
 30 29  1  0  0  0  0
 30 31  1  0  0  0  0
 32 30  2  0  0  0  0
 33 32  1  0  0  0  0
 34 36  2  0  0  0  0
 34 32  1  0  0  0  0
 35 34  1  0  0  0  0
 36 38  1  0  0  0  0
 37 36  1  0  0  0  0
 38 39  1  0  0  0  0
 38 29  2  0  0  0  0
 39 40  1  1  0  0  0
 39  5  1  0  0  0  0
 41 42  1  0  0  0  0
 41 40  1  0  0  0  0
 43 41  2  0  0  0  0
 44 43  1  0  0  0  0
 45 47  2  0  0  0  0
 45 43  1  0  0  0  0
 46 45  1  0  0  0  0
 47 49  1  0  0  0  0
 48 47  1  0  0  0  0
 49 50  1  0  0  0  0
 49 40  2  0  0  0  0
 51  7  1  0  0  0  0
 52 51  1  0  0  0  0
 53 51  1  0  0  0  0
 53 55  2  0  0  0  0
 54 53  1  0  0  0  0
 55 57  1  0  0  0  0
 56 55  1  0  0  0  0
 57 59  2  0  0  0  0
 57 58  1  0  0  0  0
 59 60  1  0  0  0  0
 61 62  1  0  0  0  0
 61 63  1  0  0  0  0
 63 64  1  0  0  0  0
 65 63  2  0  0  0  0
 65 66  1  0  0  0  0
 67 65  1  0  0  0  0
 68 67  1  0  0  0  0
 69  8  1  0  0  0  0
 69 67  2  0  0  0  0
 70 69  1  0  0  0  0
M  END
$$$$
