CSD_code = VAZGEK | q = 0 | S = 0 | Stoichiometry = C16H20ClN5Pd | MND = 4
 OpenBabel04212202103D

 43 47  0  0  1  0  0  0  0  0999 V2000
   -2.6714    3.7867    8.3453 C   0  0  0  0  0  0  0  0  0  0  0  0
   -1.6688    3.6329    8.7588 H   0  0  0  0  0  0  0  0  0  0  0  0
   -3.4092    3.7619    9.1435 H   0  0  0  0  0  0  0  0  0  0  0  0
   -2.6873    4.7703    7.8766 H   0  0  0  0  0  0  0  0  0  0  0  0
   -2.9618    2.7294    7.3422 C   0  0  2  0  0  3  0  0  0  0  0  0
   -4.1802    2.1075    7.0475 C   0  0  0  0  0  0  0  0  0  0  0  0
   -5.1348    2.3243    7.4807 H   0  0  0  0  0  0  0  0  0  0  0  0
   -3.8978    1.1463    6.0960 C   0  0  0  0  0  0  0  0  0  0  0  0
   -4.7999    0.1694    5.4347 C   0  0  0  0  0  0  0  0  0  0  0  0
   -4.5037   -0.8519    5.6739 H   0  0  0  0  0  0  0  0  0  0  0  0
   -4.7806    0.2899    4.3519 H   0  0  0  0  0  0  0  0  0  0  0  0
   -5.8170    0.3254    5.7827 H   0  0  0  0  0  0  0  0  0  0  0  0
   -1.7558    0.3342    5.0401 C   0  0  0  0  0  0  0  0  0  0  0  0
   -1.1987    0.9508    4.3133 H   0  0  0  0  0  0  0  0  0  0  0  0
   -2.3995   -0.3625    4.5056 H   0  0  0  0  0  0  0  0  0  0  0  0
   -0.7921   -0.3784    5.9458 C   0  0  0  0  0  0  0  0  0  0  0  0
   -0.5130   -1.7039    6.2218 C   0  0  0  0  0  0  0  0  0  0  0  0
   -0.9742   -2.5651    5.7777 H   0  0  0  0  0  0  0  0  0  0  0  0
   -2.0103    2.1894    6.5881 N   0  0  2  0  0  0  0  0  0  0  0  0
   -2.5769    1.2266    5.8419 N   0  0  0  0  0  0  0  0  0  0  0  0
   -0.0000    0.4046    6.7036 N   0  0  0  0  0  0  0  0  0  0  0  0
    0.0001    4.6295    6.7036 Cl  0  0  0  0  0  0  0  0  0  0  0  0
   -0.0000    2.3731    6.7036 Pd  0  0  2  0  0  0  0  0  0  0  0  0
    2.6712    3.7865    5.0616 C   0  0  0  0  0  0  0  0  0  0  0  0
    1.6686    3.6326    4.6483 H   0  0  0  0  0  0  0  0  0  0  0  0
    3.4089    3.7615    4.2634 H   0  0  0  0  0  0  0  0  0  0  0  0
    2.6872    4.7701    5.5302 H   0  0  0  0  0  0  0  0  0  0  0  0
    2.9617    2.7292    6.0648 C   0  0  2  0  0  3  0  0  0  0  0  0
    4.1801    2.1074    6.3595 C   0  0  0  0  0  0  0  0  0  0  0  0
    5.1347    2.3242    5.9263 H   0  0  0  0  0  0  0  0  0  0  0  0
    3.8979    1.1462    7.3111 C   0  0  0  0  0  0  0  0  0  0  0  0
    4.8000    0.1694    7.9723 C   0  0  0  0  0  0  0  0  0  0  0  0
    4.5037   -0.8519    7.7333 H   0  0  0  0  0  0  0  0  0  0  0  0
    4.7808    0.2900    9.0551 H   0  0  0  0  0  0  0  0  0  0  0  0
    5.8170    0.3254    7.6242 H   0  0  0  0  0  0  0  0  0  0  0  0
    1.7559    0.3341    8.3669 C   0  0  0  0  0  0  0  0  0  0  0  0
    1.1987    0.9506    9.0938 H   0  0  0  0  0  0  0  0  0  0  0  0
    2.3995   -0.3626    8.9015 H   0  0  0  0  0  0  0  0  0  0  0  0
    0.7922   -0.3785    7.4612 C   0  0  0  0  0  0  0  0  0  0  0  0
    0.5132   -1.7040    7.1849 C   0  0  0  0  0  0  0  0  0  0  0  0
    0.9746   -2.5652    7.6288 H   0  0  0  0  0  0  0  0  0  0  0  0
    2.0103    2.1894    6.8190 N   0  0  2  0  0  0  0  0  0  0  0  0
    2.5769    1.2266    7.5653 N   0  0  0  0  0  0  0  0  0  0  0  0
  1  2  1  0  0  0  0
  1  3  1  0  0  0  0
  4  1  1  0  0  0  0
  5  1  1  1  0  0  0
  6  5  1  0  0  0  0
  6  7  1  0  0  0  0
  8  6  2  0  0  0  0
  9 10  1  0  0  0  0
  9 12  1  0  0  0  0
  9  8  1  0  0  0  0
 11  9  1  0  0  0  0
 13 20  1  0  0  0  0
 13 16  1  0  0  0  0
 14 13  1  0  0  0  0
 15 13  1  0  0  0  0
 16 17  2  0  0  0  0
 16 21  1  0  0  0  0
 17 40  1  0  0  0  0
 18 17  1  0  0  0  0
 19 20  1  1  0  0  0
 19 23  1  0  0  0  0
 19  5  1  0  0  0  0
 20  8  1  0  0  0  0
 21 23  1  0  0  0  0
 21 39  1  0  0  0  0
 23 22  1  1  0  0  0
 23 42  1  0  0  0  0
 24 27  1  0  0  0  0
 25 24  1  0  0  0  0
 26 24  1  0  0  0  0
 28 24  1  6  0  0  0
 28 29  1  0  0  0  0
 28 42  1  0  0  0  0
 29 31  2  0  0  0  0
 30 29  1  0  0  0  0
 31 43  1  0  0  0  0
 31 32  1  0  0  0  0
 32 34  1  0  0  0  0
 33 32  1  0  0  0  0
 35 32  1  0  0  0  0
 36 38  1  0  0  0  0
 36 37  1  0  0  0  0
 39 36  1  0  0  0  0
 40 39  2  0  0  0  0
 40 41  1  0  0  0  0
 42 43  1  6  0  0  0
 43 36  1  0  0  0  0
M  END
$$$$
