CSD_code = VAZNUG | q = 0 | S = 0 | Stoichiometry = C18H18Cl2F4N2Pd | MND = 4
 OpenBabel04212202103D

 45 46  0  0  0  0  0  0  0  0999 V2000
    2.4753    2.0174    4.0909 Pd  0  0  0  0  0  0  0  0  0  0  0  0
    1.0618    0.4624    3.1570 Cl  0  0  0  0  0  0  0  0  0  0  0  0
   -0.7718    1.9031    7.9799 F   0  0  0  0  0  0  0  0  0  0  0  0
   -0.0115    6.4938    7.3863 F   0  0  0  0  0  0  0  0  0  0  0  0
    1.1209    3.4242    3.9072 N   0  0  0  0  0  0  0  0  0  0  0  0
    0.5475    3.7193    5.1438 C   0  0  0  0  0  0  0  0  0  0  0  0
    0.1186    2.6551    5.9451 C   0  0  0  0  0  0  0  0  0  0  0  0
    0.1317    1.6374    5.5619 H   0  0  0  0  0  0  0  0  0  0  0  0
   -0.3564    2.9251    7.2130 C   0  0  0  0  0  0  0  0  0  0  0  0
   -0.4140    4.2093    7.7297 C   0  0  0  0  0  0  0  0  0  0  0  0
   -0.7766    4.3984    8.7261 H   0  0  0  0  0  0  0  0  0  0  0  0
    0.0285    5.2368    6.9170 C   0  0  0  0  0  0  0  0  0  0  0  0
    0.5009    5.0236    5.6346 C   0  0  0  0  0  0  0  0  0  0  0  0
    0.8760    5.8522    5.0560 H   0  0  0  0  0  0  0  0  0  0  0  0
    1.7286    3.6099    1.6253 C   0  0  0  0  0  0  0  0  0  0  0  0
    2.7848    3.7651    1.8862 H   0  0  0  0  0  0  0  0  0  0  0  0
    1.4851    4.1912    0.7404 H   0  0  0  0  0  0  0  0  0  0  0  0
    1.5887    2.5430    1.4056 H   0  0  0  0  0  0  0  0  0  0  0  0
    0.8708    3.9885    2.7897 C   0  0  0  0  0  3  0  0  0  0  0  0
   -0.2376    4.9604    2.5569 C   0  0  0  0  0  0  0  0  0  0  0  0
   -0.9158    5.0144    3.4048 H   0  0  0  0  0  0  0  0  0  0  0  0
   -0.7937    4.6604    1.6700 H   0  0  0  0  0  0  0  0  0  0  0  0
    0.1747    5.9511    2.3660 H   0  0  0  0  0  0  0  0  0  0  0  0
    3.8858    3.5739    5.0256 Cl  0  0  0  0  0  0  0  0  0  0  0  0
    5.7235    2.1314    0.2035 F   0  0  0  0  0  0  0  0  0  0  0  0
    4.9600   -2.4589    0.7961 F   0  0  0  0  0  0  0  0  0  0  0  0
    3.8294    0.6107    4.2756 N   0  0  0  0  0  0  0  0  0  0  0  0
    4.4029    0.3156    3.0391 C   0  0  0  0  0  0  0  0  0  0  0  0
    4.8323    1.3798    2.2380 C   0  0  0  0  0  0  0  0  0  0  0  0
    4.8196    2.3974    2.6213 H   0  0  0  0  0  0  0  0  0  0  0  0
    5.3073    1.1096    0.9701 C   0  0  0  0  0  0  0  0  0  0  0  0
    5.3642   -0.1746    0.4532 C   0  0  0  0  0  0  0  0  0  0  0  0
    5.7268   -0.3637   -0.5431 H   0  0  0  0  0  0  0  0  0  0  0  0
    4.9209   -1.2019    1.2657 C   0  0  0  0  0  0  0  0  0  0  0  0
    4.4485   -0.9886    2.5481 C   0  0  0  0  0  0  0  0  0  0  0  0
    4.0725   -1.8170    3.1264 H   0  0  0  0  0  0  0  0  0  0  0  0
    3.2194    0.4241    6.5568 C   0  0  0  0  0  0  0  0  0  0  0  0
    2.1634    0.2687    6.2951 H   0  0  0  0  0  0  0  0  0  0  0  0
    3.4623   -0.1573    7.4418 H   0  0  0  0  0  0  0  0  0  0  0  0
    3.3590    1.4910    6.7767 H   0  0  0  0  0  0  0  0  0  0  0  0
    4.0780    0.0457    5.3930 C   0  0  0  0  0  3  0  0  0  0  0  0
    5.1853   -0.9274    5.6261 C   0  0  0  0  0  0  0  0  0  0  0  0
    5.8635   -0.9822    4.7783 H   0  0  0  0  0  0  0  0  0  0  0  0
    5.7414   -0.6276    6.5130 H   0  0  0  0  0  0  0  0  0  0  0  0
    4.7718   -1.9176    5.8172 H   0  0  0  0  0  0  0  0  0  0  0  0
  1 27  1  0  0  0  0
  1 24  1  0  0  0  0
  2  1  1  0  0  0  0
  5  1  1  0  0  0  0
  5  6  1  0  0  0  0
  6 13  2  0  0  0  0
  6  7  1  0  0  0  0
  7  9  2  0  0  0  0
  8  7  1  0  0  0  0
  9 10  1  0  0  0  0
  9  3  1  0  0  0  0
 10 11  1  0  0  0  0
 12  4  1  0  0  0  0
 12 10  2  0  0  0  0
 13 12  1  0  0  0  0
 14 13  1  0  0  0  0
 15 16  1  0  0  0  0
 15 19  1  0  0  0  0
 17 15  1  0  0  0  0
 18 15  1  0  0  0  0
 19  5  1  0  0  0  0
 20 19  1  0  0  0  0
 20 21  1  0  0  0  0
 22 20  1  0  0  0  0
 23 20  1  0  0  0  0
 25 31  1  0  0  0  0
 26 34  1  0  0  0  0
 27 41  1  0  0  0  0
 28 27  1  0  0  0  0
 29 30  1  0  0  0  0
 29 28  2  0  0  0  0
 31 29  1  0  0  0  0
 32 31  2  0  0  0  0
 32 34  1  0  0  0  0
 33 32  1  0  0  0  0
 34 35  2  0  0  0  0
 35 28  1  0  0  0  0
 35 36  1  0  0  0  0
 37 40  1  0  0  0  0
 37 39  1  0  0  0  0
 38 37  1  0  0  0  0
 41 42  1  0  0  0  0
 41 37  1  0  0  0  0
 42 45  1  0  0  0  0
 42 44  1  0  0  0  0
 43 42  1  0  0  0  0
M  END
$$$$
