CSD_code = VAZWEY | q = 0 | S = 0 | Stoichiometry = C6H8Cl2N4Pt | MND = 4
 OpenBabel04212202103D

 21 22  0  0  0  0  0  0  0  0999 V2000
    1.5413    1.7879    6.9176 Pt  0  0  0  0  0  0  0  0  0  0  0  0
    2.8547    3.4400    7.7371 Cl  0  0  0  0  0  0  0  0  0  0  0  0
    1.6486    0.7305    8.9169 Cl  0  0  0  0  0  0  0  0  0  0  0  0
    0.3163   -0.8668    6.9330 N   0  0  0  0  0  0  0  0  0  0  0  0
    0.2902    0.3006    6.2940 N   0  0  0  0  0  0  0  0  0  0  0  0
   -0.6544    0.2141    5.3660 C   0  0  0  0  0  3  0  0  0  0  0  0
   -1.2499   -1.0472    5.4185 C   0  0  0  0  0  0  0  0  0  0  0  0
   -0.6053   -1.7049    6.4454 C   0  0  0  0  0  0  0  0  0  0  0  0
    1.8503    4.0707    5.1187 N   0  0  0  0  0  0  0  0  0  0  0  0
    1.5742    2.7685    5.1275 N   0  0  0  0  0  0  0  0  0  0  0  0
    1.4232    2.3956    3.8631 C   0  0  0  0  0  3  0  0  0  0  0  0
    1.6121    3.4947    3.0234 C   0  0  0  0  0  0  0  0  0  0  0  0
    1.8958    4.5465    3.8693 C   0  0  0  0  0  0  0  0  0  0  0  0
    0.8932   -0.8971    7.7860 H   0  0  0  0  0  0  0  0  0  0  0  0
   -0.8855    1.0346    4.7160 H   0  0  0  0  0  0  0  0  0  0  0  0
   -2.0395   -1.4169    4.7984 H   0  0  0  0  0  0  0  0  0  0  0  0
   -0.7411   -2.6922    6.8366 H   0  0  0  0  0  0  0  0  0  0  0  0
    2.1523    4.4696    6.0189 H   0  0  0  0  0  0  0  0  0  0  0  0
    1.2056    1.3809    3.5951 H   0  0  0  0  0  0  0  0  0  0  0  0
    1.5549    3.5109    1.9552 H   0  0  0  0  0  0  0  0  0  0  0  0
    2.1106    5.5741    3.6588 H   0  0  0  0  0  0  0  0  0  0  0  0
  1  2  1  0  0  0  0
  1  3  1  0  0  0  0
  4 14  1  0  0  0  0
  5  1  1  0  0  0  0
  5  4  1  0  0  0  0
  6  7  1  0  0  0  0
  6  5  1  0  0  0  0
  7  8  2  0  0  0  0
  8 17  1  0  0  0  0
  8  4  1  0  0  0  0
  9 10  1  0  0  0  0
  9 18  1  0  0  0  0
 10  1  1  0  0  0  0
 11 10  1  0  0  0  0
 12 11  1  0  0  0  0
 12 13  2  0  0  0  0
 13  9  1  0  0  0  0
 15  6  1  0  0  0  0
 16  7  1  0  0  0  0
 19 11  1  0  0  0  0
 20 12  1  0  0  0  0
 21 13  1  0  0  0  0
M  END
$$$$
