CSD_code = VAZWUP | q = -1 | S = 0 | Stoichiometry = C4H3I3IrO3(1-) | MND = 6
 OpenBabel04212202103D

 14 13  0  0  0  0  0  0  0  0999 V2000
   10.6193    4.5898    1.5155 C   0  0  0  0  0  2  0  0  0  0  0  0
    7.4672    3.2607    3.1076 C   0  0  0  0  0  2  0  0  0  0  0  0
    9.1703    5.5920    3.7767 C   0  0  0  0  0  0  0  0  0  0  0  0
    8.0995    5.6907    4.8397 C   0  0  0  0  0  0  0  0  0  0  0  0
    8.3243    6.5369    5.4896 H   0  0  0  0  0  0  0  0  0  0  0  0
    8.0640    4.7794    5.4344 H   0  0  0  0  0  0  0  0  0  0  0  0
    7.1253    5.8422    4.3770 H   0  0  0  0  0  0  0  0  0  0  0  0
    8.9561    1.9586    0.5281 I   0  0  0  0  0  0  0  0  0  0  0  0
   10.5166    2.7364    4.3518 I   0  0  0  0  0  0  0  0  0  0  0  0
    7.5192    5.8740    1.0391 I   0  0  0  0  0  0  0  0  0  0  0  0
    9.0431    4.0366    2.4177 Ir  0  0  0  0  0  0  0  0  0  0  0  0
   11.5482    4.8344    0.9056 O   0  0  0  0  0  1  0  0  0  0  0  0
    6.5229    2.7066    3.4340 O   0  0  0  0  0  1  0  0  0  0  0  0
   10.0753    6.3698    3.6939 O   0  0  0  0  0  0  0  0  0  0  0  0
  1 11  1  0  0  0  0
  2 13  1  0  0  0  0
  3  4  1  0  0  0  0
  4  6  1  0  0  0  0
  4  5  1  0  0  0  0
  7  4  1  0  0  0  0
  8 11  1  0  0  0  0
 10 11  1  0  0  0  0
 11  2  1  0  0  0  0
 11  3  1  0  0  0  0
 11  9  1  0  0  0  0
 12  1  1  0  0  0  0
 14  3  2  0  0  0  0
M  END
$$$$
