CSD_code = VAZZUS | q = 0 | S = 0 | Stoichiometry = C34H28Cl2N2Pd | MND = 4
 OpenBabel04212202103D

 67 73  0  0  0  0  0  0  0  0999 V2000
    3.2582    2.9761   16.5634 Pd  0  0  0  0  0  0  0  0  0  0  0  0
    2.0175    3.9663   18.1405 Cl  0  0  0  0  0  0  0  0  0  0  0  0
    2.7244    4.4974   15.0121 Cl  0  0  0  0  0  0  0  0  0  0  0  0
    3.7836    1.6031   18.0666 N   0  0  0  0  0  4  0  0  0  0  0  0
    4.3658    2.0406   15.0366 N   0  0  0  0  0  4  0  0  0  0  0  0
    3.7608    0.2356   17.6860 C   0  0  0  0  0  0  0  0  0  0  0  0
    4.7165   -0.3271   16.8271 C   0  0  0  0  0  0  0  0  0  0  0  0
    4.6385   -1.6884   16.5427 C   0  0  0  0  0  0  0  0  0  0  0  0
    3.6214   -2.4766   17.0468 C   0  0  0  0  0  0  0  0  0  0  0  0
    2.6577   -1.9087   17.8627 C   0  0  0  0  0  0  0  0  0  0  0  0
    2.7390   -0.5685   18.1873 C   0  0  0  0  0  0  0  0  0  0  0  0
    5.6516    1.5517   15.3902 C   0  0  0  0  0  0  0  0  0  0  0  0
    5.8326    0.4379   16.2233 C   0  0  0  0  0  0  0  0  0  0  0  0
    7.1298   -0.0005   16.4786 C   0  0  0  0  0  0  0  0  0  0  0  0
    8.2311    0.6619   15.9703 C   0  0  0  0  0  0  0  0  0  0  0  0
    8.0488    1.7842   15.1804 C   0  0  0  0  0  0  0  0  0  0  0  0
    6.7690    2.2128   14.8851 C   0  0  0  0  0  0  0  0  0  0  0  0
    4.9893    2.0759   18.7799 C   0  0  0  0  0  0  0  0  0  0  0  0
    5.2025    1.2683   20.0362 C   0  0  0  0  0  0  0  0  0  0  0  0
    6.2178    0.3476   20.0770 C   0  0  0  0  0  0  0  0  0  0  0  0
    6.4075   -0.4816   21.1904 C   0  0  0  0  0  0  0  0  0  0  0  0
    5.5649   -0.3889   22.2601 C   0  0  0  0  0  0  0  0  0  0  0  0
    4.5119    0.5493   22.2671 C   0  0  0  0  0  0  0  0  0  0  0  0
    3.6419    0.6564   23.3724 C   0  0  0  0  0  0  0  0  0  0  0  0
    2.6266    1.5700   23.3800 C   0  0  0  0  0  0  0  0  0  0  0  0
    2.4469    2.4231   22.2819 C   0  0  0  0  0  0  0  0  0  0  0  0
    3.2705    2.3457   21.1925 C   0  0  0  0  0  0  0  0  0  0  0  0
    4.3222    1.4019   21.1447 C   0  0  0  0  0  0  0  0  0  0  0  0
    3.4915    1.1077   14.2926 C   0  0  0  0  0  0  0  0  0  0  0  0
    4.1766    0.6500   13.0288 C   0  0  0  0  0  0  0  0  0  0  0  0
    4.6603   -0.6307   12.9536 C   0  0  0  0  0  0  0  0  0  0  0  0
    5.3781   -1.0760   11.8355 C   0  0  0  0  0  0  0  0  0  0  0  0
    5.6197   -0.2236   10.7974 C   0  0  0  0  0  0  0  0  0  0  0  0
    5.1342    1.1003   10.8260 C   0  0  0  0  0  0  0  0  0  0  0  0
    5.3739    1.9852    9.7539 C   0  0  0  0  0  0  0  0  0  0  0  0
    4.8971    3.2648    9.7804 C   0  0  0  0  0  0  0  0  0  0  0  0
    4.1478    3.7079   10.8796 C   0  0  0  0  0  0  0  0  0  0  0  0
    3.8976    2.8776   11.9374 C   0  0  0  0  0  0  0  0  0  0  0  0
    4.3913    1.5527   11.9512 C   0  0  0  0  0  0  0  0  0  0  0  0
    5.3905   -2.1240   15.9004 H   0  0  0  0  0  0  0  0  0  0  0  0
    3.5811   -3.5271   16.8032 H   0  0  0  0  0  0  0  0  0  0  0  0
    1.8543   -2.5100   18.2590 H   0  0  0  0  0  0  0  0  0  0  0  0
    2.0012   -0.1269   18.8431 H   0  0  0  0  0  0  0  0  0  0  0  0
    7.2655   -0.8736   17.1007 H   0  0  0  0  0  0  0  0  0  0  0  0
    9.2251    0.3045   16.1905 H   0  0  0  0  0  0  0  0  0  0  0  0
    8.8989    2.3149   14.7809 H   0  0  0  0  0  0  0  0  0  0  0  0
    6.6226    3.0747   14.2486 H   0  0  0  0  0  0  0  0  0  0  0  0
    2.9797    1.7868   18.6799 H   0  0  0  0  0  0  0  0  0  0  0  0
    4.4830    2.8745   14.4479 H   0  0  0  0  0  0  0  0  0  0  0  0
    5.8619    1.9776   18.1279 H   0  0  0  0  0  0  0  0  0  0  0  0
    4.8387    3.1396   19.0085 H   0  0  0  0  0  0  0  0  0  0  0  0
    3.2632    0.2420   14.9213 H   0  0  0  0  0  0  0  0  0  0  0  0
    2.5563    1.6398   14.0722 H   0  0  0  0  0  0  0  0  0  0  0  0
    6.8911    0.2605   19.2364 H   0  0  0  0  0  0  0  0  0  0  0  0
    7.2189   -1.1941   21.1885 H   0  0  0  0  0  0  0  0  0  0  0  0
    5.6925   -1.0298   23.1206 H   0  0  0  0  0  0  0  0  0  0  0  0
    3.7994   -0.0003   24.2162 H   0  0  0  0  0  0  0  0  0  0  0  0
    1.9639    1.6463   24.2293 H   0  0  0  0  0  0  0  0  0  0  0  0
    1.6500    3.1512   22.2974 H   0  0  0  0  0  0  0  0  0  0  0  0
    3.1050    3.0336   20.3763 H   0  0  0  0  0  0  0  0  0  0  0  0
    4.4826   -1.3156   13.7702 H   0  0  0  0  0  0  0  0  0  0  0  0
    5.7420   -2.0924   11.8100 H   0  0  0  0  0  0  0  0  0  0  0  0
    6.1836   -0.5492    9.9352 H   0  0  0  0  0  0  0  0  0  0  0  0
    5.9421    1.6256    8.9077 H   0  0  0  0  0  0  0  0  0  0  0  0
    5.0852    3.9375    8.9567 H   0  0  0  0  0  0  0  0  0  0  0  0
    3.7615    4.7159   10.8896 H   0  0  0  0  0  0  0  0  0  0  0  0
    3.2999    3.2553   12.7542 H   0  0  0  0  0  0  0  0  0  0  0  0
  1  4  1  0  0  0  0
  1  2  1  0  0  0  0
  3  1  1  0  0  0  0
  4 48  1  0  0  0  0
  4 18  1  0  0  0  0
  5 12  1  0  0  0  0
  5  1  1  0  0  0  0
  6  4  1  0  0  0  0
  6 11  1  0  0  0  0
  7  6  2  0  0  0  0
  8  7  1  0  0  0  0
  8  9  2  0  0  0  0
  9 10  1  0  0  0  0
 10 11  2  0  0  0  0
 10 42  1  0  0  0  0
 11 43  1  0  0  0  0
 12 13  1  0  0  0  0
 13 14  2  0  0  0  0
 13  7  1  0  0  0  0
 14 44  1  0  0  0  0
 15 45  1  0  0  0  0
 15 14  1  0  0  0  0
 16 15  2  0  0  0  0
 17 16  1  0  0  0  0
 17 12  2  0  0  0  0
 18 51  1  0  0  0  0
 18 19  1  0  0  0  0
 19 20  2  0  0  0  0
 19 28  1  0  0  0  0
 20 21  1  0  0  0  0
 21 22  2  0  0  0  0
 22 23  1  0  0  0  0
 22 56  1  0  0  0  0
 23 24  1  0  0  0  0
 24 25  2  0  0  0  0
 24 57  1  0  0  0  0
 25 58  1  0  0  0  0
 26 59  1  0  0  0  0
 26 25  1  0  0  0  0
 27 26  2  0  0  0  0
 28 27  1  0  0  0  0
 28 23  2  0  0  0  0
 29 52  1  0  0  0  0
 29  5  1  0  0  0  0
 30 29  1  0  0  0  0
 31 30  1  0  0  0  0
 31 61  1  0  0  0  0
 32 31  2  0  0  0  0
 33 34  2  0  0  0  0
 33 32  1  0  0  0  0
 34 39  1  0  0  0  0
 35 36  2  0  0  0  0
 35 34  1  0  0  0  0
 36 37  1  0  0  0  0
 37 66  1  0  0  0  0
 37 38  2  0  0  0  0
 38 39  1  0  0  0  0
 38 67  1  0  0  0  0
 39 30  2  0  0  0  0
 40  8  1  0  0  0  0
 41  9  1  0  0  0  0
 46 16  1  0  0  0  0
 47 17  1  0  0  0  0
 49  5  1  0  0  0  0
 50 18  1  0  0  0  0
 53 29  1  0  0  0  0
 54 20  1  0  0  0  0
 55 21  1  0  0  0  0
 60 27  1  0  0  0  0
 62 32  1  0  0  0  0
 63 33  1  0  0  0  0
 64 35  1  0  0  0  0
 65 36  1  0  0  0  0
M  END
$$$$
