CSD_code = VEBBUZ | q = 0 | S = 0 | Stoichiometry = C4H6Cl2N4OPdS | MND = 4
 OpenBabel04212202103D

 19 20  0  0  1  0  0  0  0  0999 V2000
    1.0913    5.0222    0.7503 Pd  0  0  0  0  0  0  0  0  0  0  0  0
    0.1100    4.9435    2.7215 Cl  0  0  0  0  0  0  0  0  0  0  0  0
    3.0754    5.1765    1.7062 Cl  0  0  0  0  0  0  0  0  0  0  0  0
   -0.8697    4.8784   -0.5573 S   0  0  0  0  0  0  0  0  0  0  0  0
    2.9158    5.2308   -3.7502 O   0  0  0  0  0  0  0  0  0  0  0  0
    1.1783    5.0585   -2.3197 N   0  0  0  0  0  0  0  0  0  0  0  0
    2.0732    5.0963   -1.2371 N   0  0  0  0  0  4  0  0  0  0  0  0
    2.6533    5.9453   -1.2687 H   0  0  0  0  0  0  0  0  0  0  0  0
    2.7265    4.3020   -1.2668 H   0  0  0  0  0  0  0  0  0  0  0  0
   -0.5461    4.9950   -4.4317 N   0  0  0  0  0  0  0  0  0  0  0  0
   -0.9646    4.9294   -3.1759 N   0  0  0  0  0  0  0  0  0  0  0  0
   -1.9672    4.8564   -3.0436 H   0  0  0  0  0  0  0  0  0  0  0  0
   -0.1760    4.9592   -2.0636 C   0  0  2  0  0  3  0  0  0  0  0  0
    1.7209    5.1370   -3.6131 C   0  0  0  0  0  0  0  0  0  0  0  0
    0.7094    5.0936   -4.6861 C   0  0  0  0  0  0  0  0  0  0  0  0
    1.1832    5.1679   -6.0898 C   0  0  0  0  0  0  0  0  0  0  0  0
    0.3372    5.1423   -6.7682 H   0  0  0  0  0  0  0  0  0  0  0  0
    1.8535    4.3348   -6.2967 H   0  0  0  0  0  0  0  0  0  0  0  0
    1.7548    6.0830   -6.2373 H   0  0  0  0  0  0  0  0  0  0  0  0
  1  3  1  0  0  0  0
  1  2  1  0  0  0  0
  4  1  1  0  0  0  0
  5 14  2  0  0  0  0
  6 13  1  0  0  0  0
  6  7  1  0  0  0  0
  7  1  1  0  0  0  0
  8  7  1  0  0  0  0
  9  7  1  0  0  0  0
 10 11  1  0  0  0  0
 11 12  1  0  0  0  0
 11 13  1  0  0  0  0
 13  4  1  1  0  0  0
 14  6  1  0  0  0  0
 15 10  2  0  0  0  0
 15 14  1  0  0  0  0
 16 15  1  0  0  0  0
 17 16  1  0  0  0  0
 18 16  1  0  0  0  0
 19 16  1  0  0  0  0
M  END
$$$$
