CSD_code = VEBYAE | q = 0 | S = 0 | Stoichiometry = C18H31Cl2NO5PRe | MND = 6
 OpenBabel04212202103D

 59 61  0  0  0  0  0  0  0  0999 V2000
    7.4296    7.3180    5.0318 Re  0  0  0  0  0  0  0  0  0  0  0  0
    7.0013    5.7535    4.6977 O   0  0  0  0  0  1  0  0  0  0  0  0
    6.6651    8.1824    3.0045 Cl  0  0  0  0  0  0  0  0  0  0  0  0
    9.5813    7.0790    4.2194 Cl  0  0  0  0  0  0  0  0  0  0  0  0
    8.4107    6.8986    7.2167 P   0  0  0  0  0  4  0  0  0  0  0  0
    7.7511    8.9891    5.6101 O   0  0  0  0  0  0  0  0  0  0  0  0
    8.6912    8.1993    8.0888 O   0  0  0  0  0  0  0  0  0  0  0  0
    9.8422    6.2171    7.3820 O   0  0  0  0  0  0  0  0  0  0  0  0
    7.6214    5.8634    8.1864 O   0  0  0  0  0  0  0  0  0  0  0  0
    8.3450    9.9474    6.4013 C   0  0  0  0  0  0  0  0  0  0  0  0
    8.1564    9.5203    7.9016 C   0  0  0  0  0  0  0  0  0  0  0  0
    7.6939   11.3089    6.1031 C   0  0  0  0  0  0  0  0  0  0  0  0
    6.6209   11.2689    6.2728 H   0  0  0  0  0  0  0  0  0  0  0  0
    7.8607   11.5375    5.0526 H   0  0  0  0  0  0  0  0  0  0  0  0
    8.1301   12.0974    6.7083 H   0  0  0  0  0  0  0  0  0  0  0  0
    9.8402    9.9995    6.0385 C   0  0  0  0  0  0  0  0  0  0  0  0
   10.3450    9.1016    6.3915 H   0  0  0  0  0  0  0  0  0  0  0  0
   10.3125   10.8846    6.4545 H   0  0  0  0  0  0  0  0  0  0  0  0
    9.9291   10.0231    4.9539 H   0  0  0  0  0  0  0  0  0  0  0  0
    8.9473   10.3918    8.8760 C   0  0  0  0  0  0  0  0  0  0  0  0
   10.0124   10.2944    8.6918 H   0  0  0  0  0  0  0  0  0  0  0  0
    8.7446   10.0571    9.8908 H   0  0  0  0  0  0  0  0  0  0  0  0
    8.6566   11.4336    8.7855 H   0  0  0  0  0  0  0  0  0  0  0  0
    6.6806    9.4953    8.2993 C   0  0  0  0  0  0  0  0  0  0  0  0
    6.0967    8.9801    7.5397 H   0  0  0  0  0  0  0  0  0  0  0  0
    6.2984   10.5038    8.4314 H   0  0  0  0  0  0  0  0  0  0  0  0
    6.5786    8.9538    9.2377 H   0  0  0  0  0  0  0  0  0  0  0  0
    9.6765    4.8219    7.6739 C   0  0  0  0  0  0  0  0  0  0  0  0
    8.4823    4.8211    8.6782 C   0  0  0  0  0  0  0  0  0  0  0  0
   10.9899    4.3099    8.2502 C   0  0  0  0  0  0  0  0  0  0  0  0
   11.7382    4.3000    7.4628 H   0  0  0  0  0  0  0  0  0  0  0  0
   10.8617    3.2998    8.6295 H   0  0  0  0  0  0  0  0  0  0  0  0
   11.3435    4.9562    9.0468 H   0  0  0  0  0  0  0  0  0  0  0  0
    9.3508    4.0924    6.3739 C   0  0  0  0  0  0  0  0  0  0  0  0
   10.1073    4.3548    5.6376 H   0  0  0  0  0  0  0  0  0  0  0  0
    8.3894    4.4184    5.9743 H   0  0  0  0  0  0  0  0  0  0  0  0
    9.3486    3.0158    6.5178 H   0  0  0  0  0  0  0  0  0  0  0  0
    8.9160    5.2151   10.0882 C   0  0  0  0  0  0  0  0  0  0  0  0
    9.5103    6.1247   10.0485 H   0  0  0  0  0  0  0  0  0  0  0  0
    9.4859    4.4182   10.5565 H   0  0  0  0  0  0  0  0  0  0  0  0
    8.0283    5.4121   10.6850 H   0  0  0  0  0  0  0  0  0  0  0  0
    7.6928    3.5192    8.7006 C   0  0  0  0  0  0  0  0  0  0  0  0
    7.2225    3.3420    7.7389 H   0  0  0  0  0  0  0  0  0  0  0  0
    6.9156    3.5810    9.4581 H   0  0  0  0  0  0  0  0  0  0  0  0
    8.3518    2.6891    8.9391 H   0  0  0  0  0  0  0  0  0  0  0  0
    5.2541    7.5780    5.7596 N   0  0  0  0  0  0  0  0  0  0  0  0
    4.4983    8.5598    5.2818 C   0  0  0  0  0  3  0  0  0  0  0  0
    5.0030    9.2962    4.6717 H   0  0  0  0  0  0  0  0  0  0  0  0
    3.1378    8.6249    5.5171 C   0  0  0  0  0  0  0  0  0  0  0  0
    2.5624    9.4392    5.1051 H   0  0  0  0  0  0  0  0  0  0  0  0
    2.5211    7.6304    6.2702 C   0  0  0  0  0  0  0  0  0  0  0  0
    3.3337    6.6129    6.7651 C   0  0  0  0  0  0  0  0  0  0  0  0
    2.9133    5.8142    7.3563 H   0  0  0  0  0  0  0  0  0  0  0  0
    4.6867    6.6233    6.4878 C   0  0  0  0  0  0  0  0  0  0  0  0
    5.3484    5.8532    6.8580 H   0  0  0  0  0  0  0  0  0  0  0  0
    1.0490    7.6397    6.5132 C   0  0  0  0  0  0  0  0  0  0  0  0
    0.5432    7.1493    5.6809 H   0  0  0  0  0  0  0  0  0  0  0  0
    0.6718    8.6575    6.5797 H   0  0  0  0  0  0  0  0  0  0  0  0
    0.7994    7.1012    7.4242 H   0  0  0  0  0  0  0  0  0  0  0  0
  1  6  1  0  0  0  0
  1 46  1  0  0  0  0
  1  5  1  0  0  0  0
  2  1  1  0  0  0  0
  3  1  1  0  0  0  0
  4  1  1  0  0  0  0
  5  8  1  0  0  0  0
  5  7  1  0  0  0  0
  5  9  1  0  0  0  0
  6 10  1  0  0  0  0
  8 28  1  0  0  0  0
  9 29  1  0  0  0  0
 10 11  1  0  0  0  0
 11  7  1  0  0  0  0
 11 24  1  0  0  0  0
 11 20  1  0  0  0  0
 12 13  1  0  0  0  0
 12 10  1  0  0  0  0
 12 15  1  0  0  0  0
 14 12  1  0  0  0  0
 16 17  1  0  0  0  0
 16 10  1  0  0  0  0
 16 18  1  0  0  0  0
 19 16  1  0  0  0  0
 20 22  1  0  0  0  0
 21 20  1  0  0  0  0
 23 20  1  0  0  0  0
 24 26  1  0  0  0  0
 24 27  1  0  0  0  0
 25 24  1  0  0  0  0
 28 30  1  0  0  0  0
 28 29  1  0  0  0  0
 29 42  1  0  0  0  0
 29 38  1  0  0  0  0
 30 32  1  0  0  0  0
 30 33  1  0  0  0  0
 31 30  1  0  0  0  0
 34 37  1  0  0  0  0
 34 28  1  0  0  0  0
 35 34  1  0  0  0  0
 36 34  1  0  0  0  0
 38 40  1  0  0  0  0
 38 41  1  0  0  0  0
 39 38  1  0  0  0  0
 42 45  1  0  0  0  0
 42 44  1  0  0  0  0
 43 42  1  0  0  0  0
 46 54  1  0  0  0  0
 47 49  1  0  0  0  0
 47 46  1  0  0  0  0
 48 47  1  0  0  0  0
 49 51  2  0  0  0  0
 50 49  1  0  0  0  0
 51 56  1  0  0  0  0
 51 52  1  0  0  0  0
 52 53  1  0  0  0  0
 54 52  2  0  0  0  0
 54 55  1  0  0  0  0
 56 58  1  0  0  0  0
 56 59  1  0  0  0  0
 57 56  1  0  0  0  0
M  END
$$$$
