CSD_code = VECGOA | q = 0 | S = 0 | Stoichiometry = C25H25Cl2N3O2PdSe2 | MND = 4
 OpenBabel04212202103D

 60 63  0  0  1  0  0  0  0  0999 V2000
   -0.1574    6.4010    5.5334 Pd  0  0  0  0  0  0  0  0  0  0  0  0
    1.5413    8.0908    5.9788 Se  0  0  0  0  0  0  0  0  0  0  0  0
    1.3180    4.5559    5.0637 Se  0  0  0  0  0  0  0  0  0  0  0  0
   -0.4345    5.9079    7.7739 Cl  0  0  0  0  0  0  0  0  0  0  0  0
    0.1318    6.9257    3.2817 Cl  0  0  0  0  0  0  0  0  0  0  0  0
   -2.0339   10.2564    7.6940 O   0  0  0  0  0  0  0  0  0  0  0  0
   -3.4483    4.8937    3.6299 O   0  0  0  0  0  0  0  0  0  0  0  0
   -0.1918    9.0945    6.9948 N   0  0  0  0  0  2  0  0  0  0  0  0
   -1.9723    7.6114    5.4133 N   0  0  0  0  0  0  0  0  0  0  0  0
   -1.6243    4.9960    4.9749 N   0  0  0  0  0  0  0  0  0  0  0  0
    3.2084    7.0612    5.6867 C   0  0  0  0  0  0  0  0  0  0  0  0
    4.1396    6.7668    6.6738 C   0  0  0  0  0  0  0  0  0  0  0  0
    3.9601    7.0412    7.7016 H   0  0  0  0  0  0  0  0  0  0  0  0
    5.3128    6.1066    6.3521 C   0  0  0  0  0  0  0  0  0  0  0  0
    6.0257    5.8870    7.1340 H   0  0  0  0  0  0  0  0  0  0  0  0
    5.5857    5.7191    5.0479 C   0  0  0  0  0  0  0  0  0  0  0  0
    4.6505    6.0150    4.0608 C   0  0  0  0  0  0  0  0  0  0  0  0
    4.8483    5.7337    3.0366 H   0  0  0  0  0  0  0  0  0  0  0  0
    3.4800    6.6798    4.3717 C   0  0  0  0  0  0  0  0  0  0  0  0
    2.7727    6.9346    3.5905 H   0  0  0  0  0  0  0  0  0  0  0  0
    6.8612    5.0169    4.7017 C   0  0  0  0  0  0  0  0  0  0  0  0
    7.3230    4.5907    5.5886 H   0  0  0  0  0  0  0  0  0  0  0  0
    7.5644    5.7209    4.2563 H   0  0  0  0  0  0  0  0  0  0  0  0
    6.6811    4.2254    3.9776 H   0  0  0  0  0  0  0  0  0  0  0  0
    1.8552    8.5390    7.8712 C   0  0  0  0  0  0  0  0  0  0  0  0
    1.7894    7.6228    8.4603 H   0  0  0  0  0  0  0  0  0  0  0  0
    2.8283    9.0153    7.9962 H   0  0  0  0  0  0  0  0  0  0  0  0
    0.6611    9.4570    8.1013 C   0  0  0  0  0  0  0  0  0  0  0  0
    0.1644    9.2812    9.0604 H   0  0  0  0  0  0  0  0  0  0  0  0
    0.9401   10.5161    8.0468 H   0  0  0  0  0  0  0  0  0  0  0  0
   -1.4424    9.4909    6.9396 C   0  0  0  0  0  0  0  0  0  0  0  0
   -2.2245    8.8541    5.8054 C   0  0  2  0  0  3  0  0  0  0  0  0
   -3.3187    9.5633    5.3115 C   0  0  0  0  0  0  0  0  0  0  0  0
   -3.4759   10.5613    5.6904 H   0  0  0  0  0  0  0  0  0  0  0  0
   -4.1561    8.9699    4.3884 C   0  0  0  0  0  0  0  0  0  0  0  0
   -4.9877    9.5125    3.9647 H   0  0  0  0  0  0  0  0  0  0  0  0
   -3.9266    7.6465    4.0505 C   0  0  0  0  0  0  0  0  0  0  0  0
   -4.5664    7.0833    3.3883 H   0  0  0  0  0  0  0  0  0  0  0  0
   -2.8306    6.9925    4.5926 C   0  0  0  0  0  0  0  0  0  0  0  0
   -2.6559    5.5214    4.3203 C   0  0  0  0  0  0  0  0  0  0  0  0
   -1.3154    3.6026    4.7521 C   0  0  0  0  0  0  0  0  0  0  0  0
   -2.1681    2.9894    5.0749 H   0  0  0  0  0  0  0  0  0  0  0  0
   -1.1594    3.4206    3.6758 H   0  0  0  0  0  0  0  0  0  0  0  0
   -0.0747    3.2397    5.5447 C   0  0  0  0  0  0  0  0  0  0  0  0
    0.2935    2.2377    5.3103 H   0  0  0  0  0  0  0  0  0  0  0  0
   -0.2442    3.3494    6.6201 H   0  0  0  0  0  0  0  0  0  0  0  0
    2.6402    3.9579    6.3478 C   0  0  0  0  0  0  0  0  0  0  0  0
    3.7257    3.2511    5.8443 C   0  0  0  0  0  0  0  0  0  0  0  0
    3.7954    3.0712    4.7798 H   0  0  0  0  0  0  0  0  0  0  0  0
    4.6985    2.7884    6.7097 C   0  0  0  0  0  0  0  0  0  0  0  0
    5.5391    2.2339    6.3191 H   0  0  0  0  0  0  0  0  0  0  0  0
    4.6120    3.0361    8.0749 C   0  0  0  0  0  0  0  0  0  0  0  0
    3.5183    3.7483    8.5581 C   0  0  0  0  0  0  0  0  0  0  0  0
    3.4390    3.9449    9.6173 H   0  0  0  0  0  0  0  0  0  0  0  0
    2.5326    4.2108    7.7070 C   0  0  0  0  0  0  0  0  0  0  0  0
    1.6853    4.7647    8.0903 H   0  0  0  0  0  0  0  0  0  0  0  0
    5.6631    2.5349    9.0142 C   0  0  0  0  0  0  0  0  0  0  0  0
    6.5889    2.3190    8.4873 H   0  0  0  0  0  0  0  0  0  0  0  0
    5.3233    1.6161    9.4924 H   0  0  0  0  0  0  0  0  0  0  0  0
    5.8601    3.2625    9.7981 H   0  0  0  0  0  0  0  0  0  0  0  0
  1  4  1  0  0  0  0
  2 25  1  0  0  0  0
  3 44  1  0  0  0  0
  3 47  1  0  0  0  0
  5  1  1  0  0  0  0
  7 40  2  0  0  0  0
  8 28  1  0  0  0  0
  9  1  1  0  0  0  0
  9 32  1  0  0  0  0
 10  1  1  0  0  0  0
 11  2  1  0  0  0  0
 11 12  1  0  0  0  0
 12 13  1  0  0  0  0
 14 12  2  0  0  0  0
 14 15  1  0  0  0  0
 16 14  1  0  0  0  0
 17 19  1  0  0  0  0
 17 16  2  0  0  0  0
 18 17  1  0  0  0  0
 19 11  2  0  0  0  0
 20 19  1  0  0  0  0
 21 16  1  0  0  0  0
 21 22  1  0  0  0  0
 23 21  1  0  0  0  0
 24 21  1  0  0  0  0
 25 27  1  0  0  0  0
 25 28  1  0  0  0  0
 25 26  1  0  0  0  0
 28 29  1  0  0  0  0
 30 28  1  0  0  0  0
 31  8  1  0  0  0  0
 31  6  2  0  0  0  0
 32 31  1  1  0  0  0
 33 34  1  0  0  0  0
 33 32  1  0  0  0  0
 35 33  2  0  0  0  0
 36 35  1  0  0  0  0
 37 35  1  0  0  0  0
 37 39  2  0  0  0  0
 38 37  1  0  0  0  0
 39  9  1  0  0  0  0
 40 39  1  0  0  0  0
 40 10  1  0  0  0  0
 41 10  1  0  0  0  0
 41 42  1  0  0  0  0
 41 44  1  0  0  0  0
 43 41  1  0  0  0  0
 44 46  1  0  0  0  0
 45 44  1  0  0  0  0
 47 55  1  0  0  0  0
 48 47  2  0  0  0  0
 48 50  1  0  0  0  0
 49 48  1  0  0  0  0
 50 52  2  0  0  0  0
 51 50  1  0  0  0  0
 52 53  1  0  0  0  0
 52 57  1  0  0  0  0
 53 54  1  0  0  0  0
 55 56  1  0  0  0  0
 55 53  2  0  0  0  0
 57 59  1  0  0  0  0
 57 60  1  0  0  0  0
 58 57  1  0  0  0  0
M  END
$$$$
