CSD_code = VECKET | q = 0 | S = 0 | Stoichiometry = C23H26Cl2NTa | MND = 6
 OpenBabel04212202103D

 53 55  0  0  0  0  0  0  0  0999 V2000
    2.1725    4.6842    3.7966 Ta  0  0  0  0  0  0  0  0  0  0  0  0
    0.8014    4.9717    2.0133 Cl  0  0  0  0  0  0  0  0  0  0  0  0
    3.6224    4.2316    5.4884 Cl  0  0  0  0  0  0  0  0  0  0  0  0
    1.1329    1.9188    3.6690 N   0  0  0  0  0  0  0  0  0  0  0  0
   -0.2758    2.2640    3.8615 C   0  0  0  0  0  0  0  0  0  0  0  0
    1.6360    1.1718    4.8153 C   0  0  0  0  0  0  0  0  0  0  0  0
    1.2767    1.1256    2.4578 C   0  0  0  0  0  0  0  0  0  0  0  0
    3.6323    3.4958    2.3964 C   0  0  0  0  0  0  0  0  0  0  0  0
    2.7336    6.9538    3.9374 C   0  0  0  0  0  0  0  0  0  0  0  0
    0.4529    4.2590    5.1830 C   0  0  0  0  0  0  0  0  0  0  0  0
   -0.4575    3.2191    5.0094 C   0  0  0  0  0  0  0  0  0  0  0  0
   -1.5299    3.0661    5.8799 C   0  0  0  0  0  0  0  0  0  0  0  0
   -1.7104    3.9443    6.9332 C   0  0  0  0  0  0  0  0  0  0  0  0
   -0.8056    4.9723    7.1273 C   0  0  0  0  0  0  0  0  0  0  0  0
    0.2649    5.1183    6.2579 C   0  0  0  0  0  0  0  0  0  0  0  0
    4.5344    4.5627    1.9607 C   0  0  0  0  0  0  0  0  0  0  0  0
    5.6939    4.8733    2.6836 C   0  0  0  0  0  0  0  0  0  0  0  0
    6.5133    5.9140    2.2937 C   0  0  0  0  0  0  0  0  0  0  0  0
    6.2014    6.6675    1.1720 C   0  0  0  0  0  0  0  0  0  0  0  0
    5.0634    6.3674    0.4385 C   0  0  0  0  0  0  0  0  0  0  0  0
    4.2376    5.3307    0.8270 C   0  0  0  0  0  0  0  0  0  0  0  0
    1.8151    7.7807    3.1418 C   0  0  0  0  0  0  0  0  0  0  0  0
    2.1770    8.2443    1.8760 C   0  0  0  0  0  0  0  0  0  0  0  0
    1.2918    8.9811    1.1124 C   0  0  0  0  0  0  0  0  0  0  0  0
    0.0277    9.2740    1.5964 C   0  0  0  0  0  0  0  0  0  0  0  0
   -0.3453    8.8237    2.8528 C   0  0  0  0  0  0  0  0  0  0  0  0
    0.5370    8.0872    3.6180 C   0  0  0  0  0  0  0  0  0  0  0  0
   -0.6207    2.7548    2.9445 H   0  0  0  0  0  0  0  0  0  0  0  0
   -0.8864    1.3595    4.0209 H   0  0  0  0  0  0  0  0  0  0  0  0
    1.5168    1.7675    5.7184 H   0  0  0  0  0  0  0  0  0  0  0  0
    2.6958    0.9677    4.6740 H   0  0  0  0  0  0  0  0  0  0  0  0
    1.1047    0.2181    4.9450 H   0  0  0  0  0  0  0  0  0  0  0  0
    2.3193    0.8429    2.3285 H   0  0  0  0  0  0  0  0  0  0  0  0
    0.9599    1.7176    1.6008 H   0  0  0  0  0  0  0  0  0  0  0  0
    0.6708    0.2087    2.4968 H   0  0  0  0  0  0  0  0  0  0  0  0
    3.0836    3.0683    1.5612 H   0  0  0  0  0  0  0  0  0  0  0  0
    4.1517    2.7183    2.9541 H   0  0  0  0  0  0  0  0  0  0  0  0
    2.6854    7.2205    4.9955 H   0  0  0  0  0  0  0  0  0  0  0  0
    3.7636    7.0622    3.5936 H   0  0  0  0  0  0  0  0  0  0  0  0
   -2.2281    2.2540    5.7304 H   0  0  0  0  0  0  0  0  0  0  0  0
   -2.5470    3.8202    7.6045 H   0  0  0  0  0  0  0  0  0  0  0  0
   -0.9282    5.6569    7.9540 H   0  0  0  0  0  0  0  0  0  0  0  0
    0.9750    5.9178    6.4407 H   0  0  0  0  0  0  0  0  0  0  0  0
    5.9422    4.2864    3.5575 H   0  0  0  0  0  0  0  0  0  0  0  0
    7.4023    6.1413    2.8643 H   0  0  0  0  0  0  0  0  0  0  0  0
    6.8436    7.4813    0.8690 H   0  0  0  0  0  0  0  0  0  0  0  0
    4.8220    6.9463   -0.4418 H   0  0  0  0  0  0  0  0  0  0  0  0
    3.3483    5.1026    0.2547 H   0  0  0  0  0  0  0  0  0  0  0  0
    3.1628    8.0168    1.4942 H   0  0  0  0  0  0  0  0  0  0  0  0
    1.5886    9.3292    0.1334 H   0  0  0  0  0  0  0  0  0  0  0  0
   -0.6638    9.8488    0.9983 H   0  0  0  0  0  0  0  0  0  0  0  0
   -1.3309    9.0471    3.2356 H   0  0  0  0  0  0  0  0  0  0  0  0
    0.2351    7.7317    4.5954 H   0  0  0  0  0  0  0  0  0  0  0  0
  1  9  1  0  0  0  0
  1 10  1  0  0  0  0
  1  3  1  0  0  0  0
  2  1  1  0  0  0  0
  4  5  1  0  0  0  0
  4  6  1  0  0  0  0
  5 29  1  0  0  0  0
  5 11  1  0  0  0  0
  6 32  1  0  0  0  0
  6 30  1  0  0  0  0
  7 35  1  0  0  0  0
  7  4  1  0  0  0  0
  8 37  1  0  0  0  0
  8  1  1  0  0  0  0
  9 38  1  0  0  0  0
 10 15  1  0  0  0  0
 11 10  2  0  0  0  0
 11 12  1  0  0  0  0
 12 13  2  0  0  0  0
 13 14  1  0  0  0  0
 13 41  1  0  0  0  0
 14 42  1  0  0  0  0
 15 43  1  0  0  0  0
 15 14  2  0  0  0  0
 16  8  1  0  0  0  0
 16 17  1  0  0  0  0
 17 44  1  0  0  0  0
 18 17  2  0  0  0  0
 18 45  1  0  0  0  0
 19 18  1  0  0  0  0
 20 21  1  0  0  0  0
 20 19  2  0  0  0  0
 21 16  2  0  0  0  0
 22 27  1  0  0  0  0
 22  9  1  0  0  0  0
 23 22  2  0  0  0  0
 24 25  2  0  0  0  0
 24 23  1  0  0  0  0
 25 26  1  0  0  0  0
 26 52  1  0  0  0  0
 26 27  2  0  0  0  0
 27 53  1  0  0  0  0
 28  5  1  0  0  0  0
 31  6  1  0  0  0  0
 33  7  1  0  0  0  0
 34  7  1  0  0  0  0
 36  8  1  0  0  0  0
 39  9  1  0  0  0  0
 40 12  1  0  0  0  0
 46 19  1  0  0  0  0
 47 20  1  0  0  0  0
 48 21  1  0  0  0  0
 49 23  1  0  0  0  0
 50 24  1  0  0  0  0
 51 25  1  0  0  0  0
M  END
$$$$
