CSD_code = VEDPAX | q = 0 | S = 0 | Stoichiometry = C24H23BrN2Ni | MND = 4
 OpenBabel04212202103D

 51 55  0  0  0  0  0  0  0  0999 V2000
   20.3132    7.7775    6.2021 Br  0  0  0  0  0  0  0  0  0  0  0  0
   21.1783   11.0421    8.3799 C   0  0  0  0  0  0  0  0  0  0  0  0
   22.0300   10.9116    9.4848 C   0  0  0  0  0  0  0  0  0  0  0  0
   22.1403   11.9640   10.3919 C   0  0  0  0  0  0  0  0  0  0  0  0
   22.7964   11.8822   11.2470 H   0  0  0  0  0  0  0  0  0  0  0  0
   21.3906   13.1153   10.1933 C   0  0  0  0  0  0  0  0  0  0  0  0
   21.4788   13.9288   10.8985 H   0  0  0  0  0  0  0  0  0  0  0  0
   20.5182   13.2419    9.1209 C   0  0  0  0  0  0  0  0  0  0  0  0
   19.9299   14.1406    9.0005 H   0  0  0  0  0  0  0  0  0  0  0  0
   20.4005   12.1949    8.2084 C   0  0  0  0  0  0  0  0  0  0  0  0
   22.6560    9.6163    9.4651 C   0  0  0  0  0  3  0  0  0  0  0  0
   23.3835    9.2856   10.2046 H   0  0  0  0  0  0  0  0  0  0  0  0
   19.5652   12.0486    7.0462 C   0  0  0  0  0  3  0  0  0  0  0  0
   18.8882   12.8222    6.6877 H   0  0  0  0  0  0  0  0  0  0  0  0
   22.8593    7.5702    8.3457 C   0  0  0  0  0  0  0  0  0  0  0  0
   23.7889    7.3530    7.3245 C   0  0  0  0  0  0  0  0  0  0  0  0
   24.3346    6.0878    7.1815 C   0  0  0  0  0  0  0  0  0  0  0  0
   25.0523    5.9084    6.3950 H   0  0  0  0  0  0  0  0  0  0  0  0
   23.9566    5.0594    8.0255 C   0  0  0  0  0  0  0  0  0  0  0  0
   24.3855    4.0764    7.9028 H   0  0  0  0  0  0  0  0  0  0  0  0
   23.0104    5.2802    9.0100 C   0  0  0  0  0  0  0  0  0  0  0  0
   22.6938    4.4669    9.6461 H   0  0  0  0  0  0  0  0  0  0  0  0
   22.4442    6.5332    9.1854 C   0  0  0  0  0  0  0  0  0  0  0  0
   21.3696    6.7714   10.2030 C   0  0  0  0  0  0  0  0  0  0  0  0
   21.7376    7.3608   11.0437 H   0  0  0  0  0  0  0  0  0  0  0  0
   20.9940    5.8264   10.5858 H   0  0  0  0  0  0  0  0  0  0  0  0
   20.5415    7.3164    9.7468 H   0  0  0  0  0  0  0  0  0  0  0  0
   24.1548    8.4840    6.4149 C   0  0  0  0  0  0  0  0  0  0  0  0
   24.6386    8.1171    5.5142 H   0  0  0  0  0  0  0  0  0  0  0  0
   24.8239    9.1873    6.9130 H   0  0  0  0  0  0  0  0  0  0  0  0
   23.2477    9.0350    6.1306 H   0  0  0  0  0  0  0  0  0  0  0  0
   18.9227   10.6627    5.2730 C   0  0  0  0  0  0  0  0  0  0  0  0
   19.5757   10.6615    4.0370 C   0  0  0  0  0  0  0  0  0  0  0  0
   18.8343   10.4058    2.8950 C   0  0  0  0  0  0  0  0  0  0  0  0
   19.3286   10.4009    1.9350 H   0  0  0  0  0  0  0  0  0  0  0  0
   17.4787   10.1453    2.9801 C   0  0  0  0  0  0  0  0  0  0  0  0
   16.9114    9.9441    2.0840 H   0  0  0  0  0  0  0  0  0  0  0  0
   16.8526   10.1154    4.2132 C   0  0  0  0  0  0  0  0  0  0  0  0
   15.8007    9.8794    4.2786 H   0  0  0  0  0  0  0  0  0  0  0  0
   17.5606   10.3691    5.3775 C   0  0  0  0  0  0  0  0  0  0  0  0
   21.0486   10.9225    3.9868 C   0  0  0  0  0  0  0  0  0  0  0  0
   21.5473   10.3680    4.7934 H   0  0  0  0  0  0  0  0  0  0  0  0
   21.2647   11.9818    4.1338 H   0  0  0  0  0  0  0  0  0  0  0  0
   21.4666   10.6079    3.0348 H   0  0  0  0  0  0  0  0  0  0  0  0
   16.9115   10.2742    6.7254 C   0  0  0  0  0  0  0  0  0  0  0  0
   17.5336    9.6774    7.3946 H   0  0  0  0  0  0  0  0  0  0  0  0
   15.9366    9.8015    6.6443 H   0  0  0  0  0  0  0  0  0  0  0  0
   16.7800   11.2582    7.1770 H   0  0  0  0  0  0  0  0  0  0  0  0
   22.3033    8.8583    8.4824 N   0  0  0  0  0  0  0  0  0  0  0  0
   19.6821   10.9197    6.4326 N   0  0  0  0  0  0  0  0  0  0  0  0
   20.9259    9.6183    7.2702 Ni  0  0  0  0  0  0  0  0  0  0  0  0
  1 51  1  0  0  0  0
  2  3  1  0  0  0  0
  3  4  2  0  0  0  0
  4  5  1  0  0  0  0
  6  4  1  0  0  0  0
  6  7  1  0  0  0  0
  8  6  2  0  0  0  0
  9  8  1  0  0  0  0
 10  2  2  0  0  0  0
 10  8  1  0  0  0  0
 11  3  1  0  0  0  0
 11 12  1  0  0  0  0
 13 10  1  0  0  0  0
 14 13  1  0  0  0  0
 15 49  1  0  0  0  0
 15 23  1  0  0  0  0
 16 15  2  0  0  0  0
 17 16  1  0  0  0  0
 17 19  2  0  0  0  0
 18 17  1  0  0  0  0
 19 21  1  0  0  0  0
 20 19  1  0  0  0  0
 21 23  2  0  0  0  0
 21 22  1  0  0  0  0
 23 24  1  0  0  0  0
 24 26  1  0  0  0  0
 24 25  1  0  0  0  0
 27 24  1  0  0  0  0
 28 30  1  0  0  0  0
 28 16  1  0  0  0  0
 29 28  1  0  0  0  0
 31 28  1  0  0  0  0
 32 40  1  0  0  0  0
 32 50  1  0  0  0  0
 33 32  2  0  0  0  0
 34 36  2  0  0  0  0
 34 33  1  0  0  0  0
 35 34  1  0  0  0  0
 36 38  1  0  0  0  0
 37 36  1  0  0  0  0
 38 39  1  0  0  0  0
 38 40  2  0  0  0  0
 40 45  1  0  0  0  0
 41 33  1  0  0  0  0
 41 43  1  0  0  0  0
 41 42  1  0  0  0  0
 44 41  1  0  0  0  0
 45 48  1  0  0  0  0
 45 46  1  0  0  0  0
 47 45  1  0  0  0  0
 49 11  1  0  0  0  0
 50 13  1  0  0  0  0
 50 51  1  0  0  0  0
 51  2  1  0  0  0  0
 51 49  1  0  0  0  0
M  END
$$$$
