CSD_code = VEFQUU | q = 0 | S = 0 | Stoichiometry = C14H21I2N3Zn | MND = 5
 OpenBabel04212202103D

 41 43  0  0  1  0  0  0  0  0999 V2000
    0.3092    4.0339    3.0148 I   0  0  0  0  0  0  0  0  0  0  0  0
   -1.4363    0.2774    0.9538 I   0  0  0  0  0  0  0  0  0  0  0  0
    0.4024    1.8927    1.6232 Zn  0  0  0  0  0  0  0  0  0  0  0  0
    0.4112    2.9852   -0.3543 N   0  0  0  0  0  0  0  0  0  0  0  0
    2.4570    1.9486    0.9433 N   0  0  0  0  0  0  0  0  0  0  0  0
    1.5818    0.4175    3.1280 N   0  0  0  0  0  0  0  0  0  0  0  0
    1.6363    3.3231   -0.7599 C   0  0  1  0  0  3  0  0  0  0  0  0
    1.8376    4.3355   -1.6951 C   0  0  0  0  0  0  0  0  0  0  0  0
    2.8314    4.6360   -1.9850 H   0  0  0  0  0  0  0  0  0  0  0  0
    0.7337    4.9817   -2.2278 C   0  0  0  0  0  0  0  0  0  0  0  0
    0.8655    5.7763   -2.9468 H   0  0  0  0  0  0  0  0  0  0  0  0
   -0.5330    4.5945   -1.8245 C   0  0  0  0  0  0  0  0  0  0  0  0
   -1.4176    5.0638   -2.2227 H   0  0  0  0  0  0  0  0  0  0  0  0
   -0.6401    3.5898   -0.8740 C   0  0  0  0  0  0  0  0  0  0  0  0
   -1.6061    3.2592   -0.5159 H   0  0  0  0  0  0  0  0  0  0  0  0
    2.7409    2.5927   -0.1166 C   0  0  1  0  0  3  0  0  0  0  0  0
    4.1089    2.6652   -0.7210 C   0  0  0  0  0  0  0  0  0  0  0  0
    4.6542    1.7407   -0.5416 H   0  0  0  0  0  0  0  0  0  0  0  0
    4.6686    3.4839   -0.2663 H   0  0  0  0  0  0  0  0  0  0  0  0
    4.0549    2.8323   -1.7926 H   0  0  0  0  0  0  0  0  0  0  0  0
    3.4421    1.2624    1.7237 C   0  0  0  0  0  0  0  0  0  0  0  0
    4.3735    1.8370    1.7953 H   0  0  0  0  0  0  0  0  0  0  0  0
    3.6745    0.3037    1.2431 H   0  0  0  0  0  0  0  0  0  0  0  0
    2.9081    1.0272    3.1393 C   0  0  0  0  0  0  0  0  0  0  0  0
    3.6496    0.4325    3.6868 H   0  0  0  0  0  0  0  0  0  0  0  0
    2.8219    1.9967    3.6371 H   0  0  0  0  0  0  0  0  0  0  0  0
    1.5942   -0.9836    2.6916 C   0  0  0  0  0  0  0  0  0  0  0  0
    2.0667   -1.0497    1.7089 H   0  0  0  0  0  0  0  0  0  0  0  0
    0.5542   -1.2971    2.5756 H   0  0  0  0  0  0  0  0  0  0  0  0
    2.2714   -1.9425    3.6716 C   0  0  0  0  0  0  0  0  0  0  0  0
    3.3347   -1.7101    3.7707 H   0  0  0  0  0  0  0  0  0  0  0  0
    2.1932   -2.9558    3.2744 H   0  0  0  0  0  0  0  0  0  0  0  0
    1.5908   -1.8523    5.0340 C   0  0  0  0  0  0  0  0  0  0  0  0
    2.1044   -2.4863    5.7594 H   0  0  0  0  0  0  0  0  0  0  0  0
    0.5615   -2.2075    4.9452 H   0  0  0  0  0  0  0  0  0  0  0  0
    1.5843   -0.4010    5.5045 C   0  0  0  0  0  0  0  0  0  0  0  0
    2.6053   -0.0681    5.7044 H   0  0  0  0  0  0  0  0  0  0  0  0
    1.0196   -0.3056    6.4328 H   0  0  0  0  0  0  0  0  0  0  0  0
    0.9364    0.4913    4.4460 C   0  0  0  0  0  0  0  0  0  0  0  0
   -0.1058    0.1823    4.3162 H   0  0  0  0  0  0  0  0  0  0  0  0
    0.9429    1.5284    4.7876 H   0  0  0  0  0  0  0  0  0  0  0  0
  2  3  1  0  0  0  0
  3  1  1  0  0  0  0
  4  3  1  0  0  0  0
  5  3  1  0  0  0  0
  5 21  1  0  0  0  0
  6 24  1  0  0  0  0
  6 39  1  0  0  0  0
  7  8  1  1  0  0  0
  7  4  1  0  0  0  0
  7 16  1  0  0  0  0
  9  8  1  0  0  0  0
 10 12  1  0  0  0  0
 10  8  2  0  0  0  0
 11 10  1  0  0  0  0
 12 14  2  0  0  0  0
 13 12  1  0  0  0  0
 14 15  1  0  0  0  0
 14  4  1  0  0  0  0
 16 17  1  1  0  0  0
 16  5  1  0  0  0  0
 17 18  1  0  0  0  0
 17 19  1  0  0  0  0
 20 17  1  0  0  0  0
 21 22  1  0  0  0  0
 21 24  1  0  0  0  0
 23 21  1  0  0  0  0
 24 26  1  0  0  0  0
 24 25  1  0  0  0  0
 27  6  1  0  0  0  0
 27 30  1  0  0  0  0
 28 27  1  0  0  0  0
 29 27  1  0  0  0  0
 30 31  1  0  0  0  0
 30 33  1  0  0  0  0
 32 30  1  0  0  0  0
 33 36  1  0  0  0  0
 33 34  1  0  0  0  0
 35 33  1  0  0  0  0
 36 37  1  0  0  0  0
 36 38  1  0  0  0  0
 39 41  1  0  0  0  0
 39 36  1  0  0  0  0
 40 39  1  0  0  0  0
M  END
$$$$
