CSD_code = VEFQIG | q = 0 | S = 0 | Stoichiometry = C8H24As8Cl2O8Os | MND = 6
 OpenBabel04212202103D

 51 50  0  0  0  0  0  0  0  0999 V2000
    2.6284   14.5240    2.8051 Os  0  0  0  0  0  0  0  0  0  0  0  0
    4.0502   13.2573    1.3841 As  0  0  2  0  0  0  0  0  0  0  0  0
    6.4640   13.9091    3.2375 As  0  0  2  0  0  0  0  0  0  0  0  0
    4.3306   16.1632    3.0490 As  0  0  1  0  0  0  0  0  0  0  0  0
    3.5569   16.4972    6.0465 As  0  0  2  0  0  0  0  0  0  0  0  0
    1.1778   15.8331    4.1560 As  0  0  1  0  0  0  0  0  0  0  0  0
    0.0878   13.2347    5.4781 As  0  0  2  0  0  0  0  0  0  0  0  0
    0.8997   12.9255    2.4933 As  0  0  1  0  0  0  0  0  0  0  0  0
    3.0018   10.6374    2.6918 As  0  0  2  0  0  0  0  0  0  0  0  0
    3.4334   13.3419    4.7364 Cl  0  0  0  0  0  0  0  0  0  0  0  0
    1.8364   15.6897    0.9003 Cl  0  0  0  0  0  0  0  0  0  0  0  0
    5.7834   13.2869    1.6876 O   0  0  0  0  0  0  0  0  0  0  0  0
    6.0059   15.6317    2.9600 O   0  0  0  0  0  0  0  0  0  0  0  0
    4.4334   17.0452    4.5684 O   0  0  0  0  0  0  0  0  0  0  0  0
    1.9016   16.8307    5.4123 O   0  0  0  0  0  0  0  0  0  0  0  0
   -0.0123   15.0061    5.1543 O   0  0  0  0  0  0  0  0  0  0  0  0
   -0.2745   12.7193    3.7877 O   0  0  0  0  0  0  0  0  0  0  0  0
    1.3468   11.2348    2.2968 O   0  0  0  0  0  0  0  0  0  0  0  0
    3.8364   11.5108    1.3520 O   0  0  0  0  0  0  0  0  0  0  0  0
    4.1888   13.4665   -0.5555 C   0  0  0  0  0  0  0  0  0  0  0  0
    3.2125   13.2908   -1.0119 H   0  0  0  0  0  0  0  0  0  0  0  0
    4.9178   12.7382   -0.9192 H   0  0  0  0  0  0  0  0  0  0  0  0
    4.5147   14.4821   -0.7892 H   0  0  0  0  0  0  0  0  0  0  0  0
    8.2694   14.1513    2.4731 C   0  0  0  0  0  0  0  0  0  0  0  0
    8.7311   13.1811    2.2965 H   0  0  0  0  0  0  0  0  0  0  0  0
    8.8915   14.7243    3.1587 H   0  0  0  0  0  0  0  0  0  0  0  0
    8.1715   14.6868    1.5324 H   0  0  0  0  0  0  0  0  0  0  0  0
    4.5681   17.7279    1.8996 C   0  0  0  0  0  0  0  0  0  0  0  0
    3.6784   18.3584    1.9566 H   0  0  0  0  0  0  0  0  0  0  0  0
    4.7105   17.4038    0.8667 H   0  0  0  0  0  0  0  0  0  0  0  0
    5.4459   18.2736    2.2541 H   0  0  0  0  0  0  0  0  0  0  0  0
    3.6964   18.2643    6.9184 C   0  0  0  0  0  0  0  0  0  0  0  0
    3.0570   18.2972    7.7990 H   0  0  0  0  0  0  0  0  0  0  0  0
    3.3784   19.0214    6.2064 H   0  0  0  0  0  0  0  0  0  0  0  0
    4.7267   18.4511    7.2170 H   0  0  0  0  0  0  0  0  0  0  0  0
   -0.0438   17.2128    3.5006 C   0  0  0  0  0  0  0  0  0  0  0  0
   -0.7473   16.7701    2.7926 H   0  0  0  0  0  0  0  0  0  0  0  0
    0.5269   17.9947    2.9955 H   0  0  0  0  0  0  0  0  0  0  0  0
   -0.5761   17.6238    4.3618 H   0  0  0  0  0  0  0  0  0  0  0  0
   -1.8036   13.1188    6.0357 C   0  0  0  0  0  0  0  0  0  0  0  0
   -1.9379   13.6096    6.9983 H   0  0  0  0  0  0  0  0  0  0  0  0
   -2.1046   12.0758    6.1205 H   0  0  0  0  0  0  0  0  0  0  0  0
   -2.4109   13.6153    5.2833 H   0  0  0  0  0  0  0  0  0  0  0  0
   -0.4163   12.9476    1.0466 C   0  0  0  0  0  0  0  0  0  0  0  0
    0.0985   12.8744    0.0864 H   0  0  0  0  0  0  0  0  0  0  0  0
   -0.9792   13.8826    1.0797 H   0  0  0  0  0  0  0  0  0  0  0  0
   -1.0836   12.0939    1.1880 H   0  0  0  0  0  0  0  0  0  0  0  0
    2.7806    8.9885    1.6267 C   0  0  0  0  0  0  0  0  0  0  0  0
    2.0814    8.3171    2.1227 H   0  0  0  0  0  0  0  0  0  0  0  0
    3.7398    8.4860    1.5129 H   0  0  0  0  0  0  0  0  0  0  0  0
    2.3931    9.2641    0.6494 H   0  0  0  0  0  0  0  0  0  0  0  0
  1 10  1  0  0  0  0
  2 20  1  6  0  0  0
  2 12  1  0  0  0  0
  3 24  1  6  0  0  0
  4 28  1  6  0  0  0
  4 14  1  0  0  0  0
  5 32  1  1  0  0  0
  6 36  1  6  0  0  0
  6 16  1  0  0  0  0
  6 15  1  0  0  0  0
  7 40  1  1  0  0  0
  8 44  1  6  0  0  0
  8 17  1  0  0  0  0
  9 48  1  6  0  0  0
 11  1  1  0  0  0  0
 12  3  1  0  0  0  0
 13  4  1  0  0  0  0
 13  3  1  0  0  0  0
 14  5  1  0  0  0  0
 15  5  1  0  0  0  0
 16  7  1  0  0  0  0
 17  7  1  0  0  0  0
 18  8  1  0  0  0  0
 18  9  1  0  0  0  0
 19  2  1  0  0  0  0
 19  9  1  0  0  0  0
 21 20  1  0  0  0  0
 22 20  1  0  0  0  0
 23 20  1  0  0  0  0
 24 26  1  0  0  0  0
 25 24  1  0  0  0  0
 27 24  1  0  0  0  0
 28 29  1  0  0  0  0
 28 31  1  0  0  0  0
 30 28  1  0  0  0  0
 32 35  1  0  0  0  0
 32 33  1  0  0  0  0
 34 32  1  0  0  0  0
 36 39  1  0  0  0  0
 37 36  1  0  0  0  0
 38 36  1  0  0  0  0
 40 42  1  0  0  0  0
 40 41  1  0  0  0  0
 43 40  1  0  0  0  0
 44 46  1  0  0  0  0
 44 47  1  0  0  0  0
 45 44  1  0  0  0  0
 48 49  1  0  0  0  0
 50 48  1  0  0  0  0
 51 48  1  0  0  0  0
M  END
$$$$
