CSD_code = VEFYIR | q = 0 | S = 0 | Stoichiometry = C14H29BrMnNO2P2 | MND = 6
 OpenBabel04212202103D

 50 51  0  0  0  0  0  0  0  0999 V2000
   -0.1706    4.5660    5.6344 Br  0  0  0  0  0  0  0  0  0  0  0  0
    2.4764    5.5113    8.2073 C   0  0  0  0  0  0  0  0  0  0  0  0
    2.7671    5.5748    7.1525 H   0  0  0  0  0  0  0  0  0  0  0  0
    3.1355    6.1565    8.7913 H   0  0  0  0  0  0  0  0  0  0  0  0
    2.5512    4.0637    8.6857 C   0  0  0  0  0  0  0  0  0  0  0  0
    3.5638    3.6571    8.5292 H   0  0  0  0  0  0  0  0  0  0  0  0
    2.3257    4.0080    9.7575 H   0  0  0  0  0  0  0  0  0  0  0  0
    1.5449    1.8584    8.2900 C   0  0  0  0  0  0  0  0  0  0  0  0
    1.2728    1.7468    9.3463 H   0  0  0  0  0  0  0  0  0  0  0  0
    2.5426    1.4123    8.1458 H   0  0  0  0  0  0  0  0  0  0  0  0
    0.5159    1.1583    7.4056 C   0  0  0  0  0  0  0  0  0  0  0  0
    0.3864    0.1160    7.7045 H   0  0  0  0  0  0  0  0  0  0  0  0
    0.8381    1.1924    6.3585 H   0  0  0  0  0  0  0  0  0  0  0  0
    0.7181    7.5279    7.2166 C   0  0  0  0  0  0  0  0  0  0  0  0
    1.5061    8.2170    7.5352 H   0  0  0  0  0  0  0  0  0  0  0  0
    0.9560    7.1655    6.2121 H   0  0  0  0  0  0  0  0  0  0  0  0
   -0.6530    8.1933    7.2093 C   0  0  0  0  0  0  0  0  0  0  0  0
   -1.4118    7.4716    6.9064 H   0  0  0  0  0  0  0  0  0  0  0  0
   -0.6710    9.0229    6.5057 H   0  0  0  0  0  0  0  0  0  0  0  0
   -0.9175    8.5684    8.1968 H   0  0  0  0  0  0  0  0  0  0  0  0
    0.6485    6.8209   10.0240 C   0  0  0  0  0  0  0  0  0  0  0  0
   -0.4114    7.0060   10.2318 H   0  0  0  0  0  0  0  0  0  0  0  0
    0.9694    6.0287   10.7100 H   0  0  0  0  0  0  0  0  0  0  0  0
    1.4643    8.0849   10.2639 C   0  0  0  0  0  0  0  0  0  0  0  0
    2.5065    7.9518    9.9788 H   0  0  0  0  0  0  0  0  0  0  0  0
    1.4372    8.3378   11.3224 H   0  0  0  0  0  0  0  0  0  0  0  0
    1.0594    8.9273    9.7090 H   0  0  0  0  0  0  0  0  0  0  0  0
   -1.9661    1.1047    8.8181 C   0  0  0  0  0  0  0  0  0  0  0  0
   -1.9967    0.0524    8.5219 H   0  0  0  0  0  0  0  0  0  0  0  0
   -1.3747    1.1845    9.7362 H   0  0  0  0  0  0  0  0  0  0  0  0
   -3.3657    1.6570    9.0559 C   0  0  0  0  0  0  0  0  0  0  0  0
   -3.3099    2.7223    9.2846 H   0  0  0  0  0  0  0  0  0  0  0  0
   -3.8437    1.1490    9.8912 H   0  0  0  0  0  0  0  0  0  0  0  0
   -3.9894    1.5309    8.1730 H   0  0  0  0  0  0  0  0  0  0  0  0
   -1.9457    1.6088    5.9707 C   0  0  0  0  0  0  0  0  0  0  0  0
   -2.8808    2.1805    5.9509 H   0  0  0  0  0  0  0  0  0  0  0  0
   -1.3246    1.9926    5.1545 H   0  0  0  0  0  0  0  0  0  0  0  0
   -2.2176    0.1231    5.7713 C   0  0  0  0  0  0  0  0  0  0  0  0
   -1.3066   -0.4635    5.8726 H   0  0  0  0  0  0  0  0  0  0  0  0
   -2.6104   -0.0365    4.7689 H   0  0  0  0  0  0  0  0  0  0  0  0
   -2.9535   -0.2485    6.4803 H   0  0  0  0  0  0  0  0  0  0  0  0
   -2.1315    4.9438    8.0396 C   0  0  0  0  0  2  0  0  0  0  0  0
   -0.6772    3.9406    9.7180 C   0  0  0  0  0  2  0  0  0  0  0  0
   -0.5197    4.2161    7.9976 Mn  0  0  0  0  0  0  0  0  0  0  0  0
    1.5525    3.2814    7.9619 N   0  0  0  0  0  4  0  0  0  0  0  0
   -3.1877    5.4116    8.1304 O   0  0  0  0  0  1  0  0  0  0  0  0
   -0.8187    3.7806   10.8586 O   0  0  0  0  0  1  0  0  0  0  0  0
    0.7091    6.0692    8.3345 P   0  0  0  0  0  4  0  0  0  0  0  0
   -1.0894    2.0899    7.5304 P   0  0  0  0  0  4  0  0  0  0  0  0
    1.7791    3.3587    6.9619 H   0  0  0  0  0  0  0  0  0  0  0  0
  1 44  1  0  0  0  0
  2 48  1  0  0  0  0
  2  5  1  0  0  0  0
  2  4  1  0  0  0  0
  3  2  1  0  0  0  0
  5  7  1  0  0  0  0
  6  5  1  0  0  0  0
  8  9  1  0  0  0  0
 10  8  1  0  0  0  0
 11 49  1  0  0  0  0
 11 12  1  0  0  0  0
 11  8  1  0  0  0  0
 13 11  1  0  0  0  0
 14 15  1  0  0  0  0
 14 48  1  0  0  0  0
 16 14  1  0  0  0  0
 17 14  1  0  0  0  0
 17 20  1  0  0  0  0
 18 17  1  0  0  0  0
 19 17  1  0  0  0  0
 21 22  1  0  0  0  0
 21 24  1  0  0  0  0
 21 23  1  0  0  0  0
 24 26  1  0  0  0  0
 25 24  1  0  0  0  0
 27 24  1  0  0  0  0
 28 31  1  0  0  0  0
 28 30  1  0  0  0  0
 29 28  1  0  0  0  0
 31 32  1  0  0  0  0
 31 33  1  0  0  0  0
 34 31  1  0  0  0  0
 35 49  1  0  0  0  0
 36 35  1  0  0  0  0
 37 35  1  0  0  0  0
 38 39  1  0  0  0  0
 38 35  1  0  0  0  0
 38 41  1  0  0  0  0
 40 38  1  0  0  0  0
 42 46  1  0  0  0  0
 43 47  1  0  0  0  0
 44 42  1  0  0  0  0
 44 48  1  0  0  0  0
 44 43  1  0  0  0  0
 45 44  1  0  0  0  0
 45  8  1  0  0  0  0
 45  5  1  0  0  0  0
 48 21  1  0  0  0  0
 49 44  1  0  0  0  0
 49 28  1  0  0  0  0
 50 45  1  0  0  0  0
M  END
$$$$
