CSD_code = VEGFOD | q = 0 | S = 0 | Stoichiometry = C27H28BrN5Pd | MND = 4
 OpenBabel04212202103D

 62 67  0  0  0  0  0  0  0  0999 V2000
    1.4203    8.5367    2.5666 Pd  0  0  0  0  0  0  0  0  0  0  0  0
   -0.1696   10.2271    3.3078 Br  0  0  0  0  0  0  0  0  0  0  0  0
    3.2255    9.6326    2.8194 N   0  0  0  0  0  4  0  0  0  0  0  0
    0.0579    6.9683    2.1109 N   0  0  0  0  0  4  0  0  0  0  0  0
    7.2620    2.2728   -0.0808 N   0  0  0  0  0  0  0  0  0  0  0  0
    4.7267    1.7606   -2.5517 N   0  0  0  0  0  0  0  0  0  0  0  0
    9.0487    3.6001    2.7196 N   0  0  0  0  0  0  0  0  0  0  0  0
    2.6828    7.1913    1.9806 C   0  0  0  0  0  0  0  0  0  0  0  0
    4.0430    7.4164    2.1476 C   0  0  0  0  0  0  0  0  0  0  0  0
    4.9455    6.4544    1.7272 C   0  0  0  0  0  0  0  0  0  0  0  0
    6.0081    6.6246    1.8254 H   0  0  0  0  0  0  0  0  0  0  0  0
    4.4841    5.2656    1.1565 C   0  0  0  0  0  0  0  0  0  0  0  0
    3.1125    5.0508    1.0000 C   0  0  0  0  0  0  0  0  0  0  0  0
    2.7608    4.1207    0.5769 H   0  0  0  0  0  0  0  0  0  0  0  0
    2.2097    6.0187    1.4059 C   0  0  0  0  0  0  0  0  0  0  0  0
    4.3875    8.7061    2.8510 C   0  0  0  0  0  0  0  0  0  0  0  0
    4.6122    8.4755    3.8993 H   0  0  0  0  0  0  0  0  0  0  0  0
    5.2717    9.1971    2.4198 H   0  0  0  0  0  0  0  0  0  0  0  0
    3.2471   10.4168    1.5793 C   0  0  0  0  0  0  0  0  0  0  0  0
    2.3416   11.0307    1.5160 H   0  0  0  0  0  0  0  0  0  0  0  0
    3.2876    9.7437    0.7162 H   0  0  0  0  0  0  0  0  0  0  0  0
    4.1228   11.0802    1.5528 H   0  0  0  0  0  0  0  0  0  0  0  0
    3.2632   10.5342    3.9692 C   0  0  0  0  0  0  0  0  0  0  0  0
    4.2080   11.0920    4.0017 H   0  0  0  0  0  0  0  0  0  0  0  0
    3.1530    9.9603    4.8919 H   0  0  0  0  0  0  0  0  0  0  0  0
    2.4376   11.2445    3.9080 H   0  0  0  0  0  0  0  0  0  0  0  0
    0.7117    5.9610    1.2348 C   0  0  0  0  0  0  0  0  0  0  0  0
    0.3029    4.9612    1.4409 H   0  0  0  0  0  0  0  0  0  0  0  0
    0.4753    6.2097    0.1932 H   0  0  0  0  0  0  0  0  0  0  0  0
   -0.1640    6.3979    3.4446 C   0  0  0  0  0  0  0  0  0  0  0  0
   -0.5622    7.1694    4.1132 H   0  0  0  0  0  0  0  0  0  0  0  0
    0.7823    6.0232    3.8494 H   0  0  0  0  0  0  0  0  0  0  0  0
   -0.8834    5.5684    3.3994 H   0  0  0  0  0  0  0  0  0  0  0  0
   -1.2204    7.3867    1.5388 C   0  0  0  0  0  0  0  0  0  0  0  0
   -1.8798    6.5246    1.3749 H   0  0  0  0  0  0  0  0  0  0  0  0
   -1.0502    7.8947    0.5869 H   0  0  0  0  0  0  0  0  0  0  0  0
   -1.7159    8.0848    2.2149 H   0  0  0  0  0  0  0  0  0  0  0  0
    7.5088    3.0345    0.9801 C   0  0  0  0  0  0  0  0  0  0  0  0
    6.6276    4.0181    1.4231 C   0  0  0  0  0  0  0  0  0  0  0  0
    6.8816    4.5747    2.3101 H   0  0  0  0  0  0  0  0  0  0  0  0
    5.4413    4.2382    0.7269 C   0  0  0  0  0  0  0  0  0  0  0  0
    5.1996    3.4404   -0.3891 C   0  0  0  0  0  0  0  0  0  0  0  0
    4.3184    3.5600   -0.9976 H   0  0  0  0  0  0  0  0  0  0  0  0
    6.1300    2.4681   -0.7494 C   0  0  0  0  0  0  0  0  0  0  0  0
    5.8834    1.6009   -1.9108 C   0  0  0  0  0  0  0  0  0  0  0  0
    6.8268    0.6514   -2.3063 C   0  0  0  0  0  0  0  0  0  0  0  0
    7.7469    0.5656   -1.7522 H   0  0  0  0  0  0  0  0  0  0  0  0
    6.5490   -0.1494   -3.3979 C   0  0  0  0  0  0  0  0  0  0  0  0
    7.2587   -0.8944   -3.7289 H   0  0  0  0  0  0  0  0  0  0  0  0
    5.3431    0.0203   -4.0620 C   0  0  0  0  0  0  0  0  0  0  0  0
    5.0852   -0.5832   -4.9183 H   0  0  0  0  0  0  0  0  0  0  0  0
    4.4721    0.9926   -3.5926 C   0  0  0  0  0  0  0  0  0  0  0  0
    3.5180    1.1665   -4.0747 H   0  0  0  0  0  0  0  0  0  0  0  0
    8.7741    2.7995    1.6911 C   0  0  0  0  0  0  0  0  0  0  0  0
    9.6398    1.7805    1.2910 C   0  0  0  0  0  0  0  0  0  0  0  0
    9.3670    1.1610    0.4528 H   0  0  0  0  0  0  0  0  0  0  0  0
   10.8208    1.5986    1.9857 C   0  0  0  0  0  0  0  0  0  0  0  0
   11.5134    0.8196    1.6995 H   0  0  0  0  0  0  0  0  0  0  0  0
   11.1032    2.4356    3.0550 C   0  0  0  0  0  0  0  0  0  0  0  0
   12.0142    2.3306    3.6235 H   0  0  0  0  0  0  0  0  0  0  0  0
   10.1777    3.4181    3.3755 C   0  0  0  0  0  0  0  0  0  0  0  0
   10.3492    4.0980    4.2009 H   0  0  0  0  0  0  0  0  0  0  0  0
  1  3  1  0  0  0  0
  1  2  1  0  0  0  0
  3 16  1  0  0  0  0
  3 23  1  0  0  0  0
  4  1  1  0  0  0  0
  4 30  1  0  0  0  0
  5 38  1  0  0  0  0
  6 45  1  0  0  0  0
  7 61  1  0  0  0  0
  8  9  1  0  0  0  0
  8  1  1  0  0  0  0
  9 16  1  0  0  0  0
 10 11  1  0  0  0  0
 10  9  2  0  0  0  0
 12 10  1  0  0  0  0
 13 12  2  0  0  0  0
 13 15  1  0  0  0  0
 14 13  1  0  0  0  0
 15  8  2  0  0  0  0
 16 17  1  0  0  0  0
 18 16  1  0  0  0  0
 19  3  1  0  0  0  0
 20 19  1  0  0  0  0
 21 19  1  0  0  0  0
 22 19  1  0  0  0  0
 23 24  1  0  0  0  0
 23 25  1  0  0  0  0
 26 23  1  0  0  0  0
 27 15  1  0  0  0  0
 27 28  1  0  0  0  0
 27  4  1  0  0  0  0
 29 27  1  0  0  0  0
 30 32  1  0  0  0  0
 30 31  1  0  0  0  0
 33 30  1  0  0  0  0
 34  4  1  0  0  0  0
 34 37  1  0  0  0  0
 35 34  1  0  0  0  0
 36 34  1  0  0  0  0
 38 39  2  0  0  0  0
 38 54  1  0  0  0  0
 39 40  1  0  0  0  0
 41 12  1  0  0  0  0
 41 39  1  0  0  0  0
 42 41  2  0  0  0  0
 43 42  1  0  0  0  0
 44 42  1  0  0  0  0
 44  5  2  0  0  0  0
 45 44  1  0  0  0  0
 46 45  2  0  0  0  0
 46 47  1  0  0  0  0
 48 46  1  0  0  0  0
 49 48  1  0  0  0  0
 50 52  1  0  0  0  0
 50 48  2  0  0  0  0
 51 50  1  0  0  0  0
 52  6  2  0  0  0  0
 53 52  1  0  0  0  0
 54  7  2  0  0  0  0
 55 54  1  0  0  0  0
 55 57  2  0  0  0  0
 56 55  1  0  0  0  0
 57 59  1  0  0  0  0
 58 57  1  0  0  0  0
 59 61  2  0  0  0  0
 59 60  1  0  0  0  0
 61 62  1  0  0  0  0
M  END
$$$$
