CSD_code = VEGSAD | q = 0 | S = 0 | Stoichiometry = C16H13HgI2N3O | MND = 3
 OpenBabel04212202103D

 36 37  0  0  0  0  0  0  0  0999 V2000
    3.8942    3.4058   11.0377 Hg  0  0  0  0  0  0  0  0  0  0  0  0
    3.0983    1.0110   11.7012 I   0  0  0  0  0  0  0  0  0  0  0  0
    5.0541    5.7196   11.3084 I   0  0  0  0  0  0  0  0  0  0  0  0
    3.2616    3.4311    8.6211 N   0  0  0  0  0  0  0  0  0  0  0  0
    2.5317    5.8831    6.0000 N   0  0  0  0  0  0  0  0  0  0  0  0
    2.3985    5.8036    5.0011 H   0  0  0  0  0  0  0  0  0  0  0  0
    2.2260    8.1135    5.6413 N   0  0  0  0  0  0  0  0  0  0  0  0
    2.1996    7.8315    4.6730 H   0  0  0  0  0  0  0  0  0  0  0  0
    2.3877    7.3134    7.7798 O   0  0  0  0  0  0  0  0  0  0  0  0
    3.0573    4.5904    8.0076 C   0  0  0  0  0  0  0  0  0  0  0  0
    3.1392    5.4901    8.6005 H   0  0  0  0  0  0  0  0  0  0  0  0
    2.7390    4.6808    6.6494 C   0  0  0  0  0  0  0  0  0  0  0  0
    2.6521    3.4907    5.9231 C   0  0  0  0  0  0  0  0  0  0  0  0
    2.4211    3.5133    4.8670 H   0  0  0  0  0  0  0  0  0  0  0  0
    2.8618    2.2905    6.5721 C   0  0  0  0  0  0  0  0  0  0  0  0
    2.7952    1.3546    6.0411 H   0  0  0  0  0  0  0  0  0  0  0  0
    3.1599    2.3012    7.9236 C   0  0  0  0  0  0  0  0  0  0  0  0
    3.3235    1.3775    8.4615 H   0  0  0  0  0  0  0  0  0  0  0  0
    2.3833    7.1431    6.5866 C   0  0  0  0  0  0  0  0  0  0  0  0
    2.0640    9.4941    5.8491 C   0  0  0  0  0  0  0  0  0  0  0  0
    2.3981   10.0820    7.0454 C   0  0  0  0  0  0  0  0  0  0  0  0
    2.7636    9.4759    7.8564 H   0  0  0  0  0  0  0  0  0  0  0  0
    2.2658   11.4639    7.2230 C   0  0  0  0  0  0  0  0  0  0  0  0
    2.5371   11.8934    8.1751 H   0  0  0  0  0  0  0  0  0  0  0  0
    1.8142   12.2553    6.2063 C   0  0  0  0  0  0  0  0  0  0  0  0
    1.7203   13.3234    6.3345 H   0  0  0  0  0  0  0  0  0  0  0  0
    0.9799   12.4974    3.9119 C   0  0  0  0  0  0  0  0  0  0  0  0
    0.9091   13.5627    4.0764 H   0  0  0  0  0  0  0  0  0  0  0  0
    0.6128   11.9545    2.7140 C   0  0  0  0  0  0  0  0  0  0  0  0
    0.2489   12.5805    1.9133 H   0  0  0  0  0  0  0  0  0  0  0  0
    0.7001   10.5692    2.5241 C   0  0  0  0  0  0  0  0  0  0  0  0
    0.3946   10.1412    1.5805 H   0  0  0  0  0  0  0  0  0  0  0  0
    1.1634    9.7587    3.5238 C   0  0  0  0  0  0  0  0  0  0  0  0
    1.1952    8.6934    3.3368 H   0  0  0  0  0  0  0  0  0  0  0  0
    1.5657   10.2844    4.7712 C   0  0  0  0  0  0  0  0  0  0  0  0
    1.4557   11.6891    4.9658 C   0  0  0  0  0  0  0  0  0  0  0  0
  1  3  1  0  0  0  0
  1  2  1  0  0  0  0
  5 19  1  0  0  0  0
  5 12  1  0  0  0  0
  6  5  1  0  0  0  0
  7 20  1  0  0  0  0
  7 19  1  0  0  0  0
  8  7  1  0  0  0  0
 10 11  1  0  0  0  0
 10  4  1  0  0  0  0
 12 10  2  0  0  0  0
 13 15  2  0  0  0  0
 13 12  1  0  0  0  0
 14 13  1  0  0  0  0
 15 17  1  0  0  0  0
 16 15  1  0  0  0  0
 17 18  1  0  0  0  0
 17  4  2  0  0  0  0
 19  9  2  0  0  0  0
 20 21  1  0  0  0  0
 21 23  2  0  0  0  0
 21 22  1  0  0  0  0
 23 24  1  0  0  0  0
 25 26  1  0  0  0  0
 25 23  1  0  0  0  0
 27 28  1  0  0  0  0
 27 36  1  0  0  0  0
 29 27  2  0  0  0  0
 30 29  1  0  0  0  0
 31 29  1  0  0  0  0
 31 33  2  0  0  0  0
 32 31  1  0  0  0  0
 33 35  1  0  0  0  0
 34 33  1  0  0  0  0
 35 36  1  0  0  0  0
 35 20  2  0  0  0  0
 36 25  2  0  0  0  0
M  END
$$$$
