CSD_code = VEHLID | q = 0 | S = 0 | Stoichiometry = C14H23Cl3O2Zr | MND = 10
 OpenBabel04212202103D

 43 43  0  0  1  0  0  0  0  0999 V2000
   -0.2516    2.5355    4.6632 Zr  0  0  0  0  0  0  0  0  0  0  0  0
    0.9609    3.2024    2.6982 Cl  0  0  0  0  0  0  0  0  0  0  0  0
   -0.5929    1.1381    6.5956 Cl  0  0  0  0  0  0  0  0  0  0  0  0
    1.0047    4.0959    5.8916 Cl  0  0  0  0  0  0  0  0  0  0  0  0
    1.7234    1.2427    4.9251 O   0  0  0  0  0  0  0  0  0  0  0  0
   -0.4810    0.6437    3.4744 O   0  0  0  0  0  0  0  0  0  0  0  0
    2.7230    0.9768    3.9383 C   0  0  0  0  0  0  0  0  0  0  0  0
    3.8313    1.9861    4.2397 C   0  0  0  0  0  0  0  0  0  0  0  0
    3.7581    2.1264    5.7692 C   0  0  0  0  0  0  0  0  0  0  0  0
    2.4846    1.3508    6.1380 C   0  0  0  0  0  0  0  0  0  0  0  0
   -0.5533    0.5351    2.0384 C   0  0  0  0  0  0  0  0  0  0  0  0
   -1.4281   -0.6796    1.7544 C   0  0  0  0  0  0  0  0  0  0  0  0
   -1.0420   -1.5985    2.9093 C   0  0  0  0  0  0  0  0  0  0  0  0
   -0.9044   -0.6064    4.0603 C   0  0  0  0  0  0  0  0  0  0  0  0
   -2.1802    3.7981    5.4722 C   0  0  1  0  0  0  0  0  0  0  0  0
   -1.7150    4.4814    4.3175 C   0  0  0  0  0  0  0  0  0  0  0  0
   -2.0220    3.6915    3.1864 C   0  0  0  0  0  0  0  0  0  0  0  0
   -2.6612    2.5189    3.6324 C   0  0  0  0  0  0  0  0  0  0  0  0
   -2.7645    2.5843    5.0377 C   0  0  0  0  0  0  0  0  0  0  0  0
   -2.1519    4.3038    6.8872 C   0  0  0  0  0  0  0  0  0  0  0  0
    2.2898    1.1069    2.9465 H   0  0  0  0  0  0  0  0  0  0  0  0
    3.0828   -0.0555    4.0692 H   0  0  0  0  0  0  0  0  0  0  0  0
    3.5870    2.9328    3.7573 H   0  0  0  0  0  0  0  0  0  0  0  0
    4.8025    1.6463    3.8880 H   0  0  0  0  0  0  0  0  0  0  0  0
    3.6595    3.1708    6.0583 H   0  0  0  0  0  0  0  0  0  0  0  0
    4.6296    1.7033    6.2654 H   0  0  0  0  0  0  0  0  0  0  0  0
    2.7259    0.3346    6.4818 H   0  0  0  0  0  0  0  0  0  0  0  0
    1.8784    1.8550    6.8925 H   0  0  0  0  0  0  0  0  0  0  0  0
    0.4599    0.3843    1.6437 H   0  0  0  0  0  0  0  0  0  0  0  0
   -0.9485    1.4723    1.6375 H   0  0  0  0  0  0  0  0  0  0  0  0
   -1.2275   -1.1105    0.7772 H   0  0  0  0  0  0  0  0  0  0  0  0
   -2.4847   -0.4169    1.8154 H   0  0  0  0  0  0  0  0  0  0  0  0
   -0.0867   -2.0817    2.7028 H   0  0  0  0  0  0  0  0  0  0  0  0
   -1.7862   -2.3627    3.1169 H   0  0  0  0  0  0  0  0  0  0  0  0
   -1.8666   -0.4434    4.5639 H   0  0  0  0  0  0  0  0  0  0  0  0
   -0.1645   -0.9080    4.8079 H   0  0  0  0  0  0  0  0  0  0  0  0
   -1.2982    5.4832    4.2982 H   0  0  0  0  0  0  0  0  0  0  0  0
   -1.8732    3.9873    2.1559 H   0  0  0  0  0  0  0  0  0  0  0  0
   -3.1258    1.7706    3.0026 H   0  0  0  0  0  0  0  0  0  0  0  0
   -3.2879    1.8817    5.6736 H   0  0  0  0  0  0  0  0  0  0  0  0
   -1.4287    5.1128    6.9931 H   0  0  0  0  0  0  0  0  0  0  0  0
   -3.1357    4.6815    7.1754 H   0  0  0  0  0  0  0  0  0  0  0  0
   -1.8823    3.5005    7.5766 H   0  0  0  0  0  0  0  0  0  0  0  0
  1 15  1  0  0  0  0
  1  4  1  0  0  0  0
  1  3  1  0  0  0  0
  2  1  1  0  0  0  0
  5 10  1  0  0  0  0
  6 14  1  0  0  0  0
  7 22  1  0  0  0  0
  7  8  1  0  0  0  0
  7  5  1  0  0  0  0
  8  9  1  0  0  0  0
  9 25  1  0  0  0  0
  9 10  1  0  0  0  0
  9 26  1  0  0  0  0
 10 27  1  0  0  0  0
 10 28  1  0  0  0  0
 11  6  1  0  0  0  0
 12 32  1  0  0  0  0
 12 11  1  0  0  0  0
 12 13  1  0  0  0  0
 13 34  1  0  0  0  0
 13 14  1  0  0  0  0
 14 35  1  0  0  0  0
 14 36  1  0  0  0  0
 15 20  1  1  0  0  0
 16 15  1  0  0  0  0
 17 18  1  0  0  0  0
 17 16  2  0  0  0  0
 18 19  2  0  0  0  0
 19 15  1  0  0  0  0
 19 40  1  0  0  0  0
 20 41  1  0  0  0  0
 20 42  1  0  0  0  0
 20 43  1  0  0  0  0
 21  7  1  0  0  0  0
 23  8  1  0  0  0  0
 24  8  1  0  0  0  0
 29 11  1  0  0  0  0
 30 11  1  0  0  0  0
 31 12  1  0  0  0  0
 33 13  1  0  0  0  0
 37 16  1  0  0  0  0
 38 17  1  0  0  0  0
 39 18  1  0  0  0  0
M  END
$$$$
