CSD_code = VEHMEC | q = 0 | S = 0 | Stoichiometry = C31H22Br2CdN6 | MND = 5
 OpenBabel04212202113D

 62 69  0  0  1  0  0  0  0  0999 V2000
    0.5660   16.7241   -1.2757 Cd  0  0  0  0  0  0  0  0  0  0  0  0
    2.8370   15.6597   -1.0267 Br  0  0  0  0  0  0  0  0  0  0  0  0
   -0.5446   17.9729   -3.1159 Br  0  0  0  0  0  0  0  0  0  0  0  0
    0.0172   15.9384    0.9302 N   0  0  0  0  0  0  0  0  0  0  0  0
   -0.7390   13.9669   -0.1581 C   0  0  1  0  0  3  0  0  0  0  0  0
    0.6724   18.4949    0.4277 N   0  0  0  0  0  0  0  0  0  0  0  0
    0.6701   16.6037    1.8793 C   0  0  2  0  0  3  0  0  0  0  0  0
    0.5567   13.8827    1.9955 C   0  0  0  0  0  0  0  0  0  0  0  0
    0.5216   12.8053    2.0000 H   0  0  0  0  0  0  0  0  0  0  0  0
    5.1372    9.8377    8.2517 C   0  0  0  0  0  0  0  0  0  0  0  0
    2.6293   12.6599    3.7962 C   0  0  0  0  0  0  0  0  0  0  0  0
    2.7031   12.3147    2.7758 H   0  0  0  0  0  0  0  0  0  0  0  0
    6.3837    8.3805   10.2938 C   0  0  0  0  0  0  0  0  0  0  0  0
   -1.9569   12.1748   -1.1718 C   0  0  0  0  0  0  0  0  0  0  0  0
   -2.4252   11.2031   -1.1187 H   0  0  0  0  0  0  0  0  0  0  0  0
   -0.7686   14.6655   -1.2967 N   0  0  0  0  0  0  0  0  0  0  0  0
    1.9215   13.8291    4.0747 C   0  0  0  0  0  0  0  0  0  0  0  0
    3.2258   12.4119    6.1254 C   0  0  0  0  0  0  0  0  0  0  0  0
    4.4988   10.5370    7.1556 C   0  0  0  0  0  0  0  0  0  0  0  0
    4.5420   10.0127    6.2103 H   0  0  0  0  0  0  0  0  0  0  0  0
   -0.0442   14.6099    0.9747 C   0  0  0  0  0  0  0  0  0  0  0  0
    6.9940    7.6813   11.3365 N   0  0  0  0  0  0  0  0  0  0  0  0
    5.2758   10.3730    9.5369 C   0  0  0  0  0  0  0  0  0  0  0  0
    4.9063   11.3626    9.7536 H   0  0  0  0  0  0  0  0  0  0  0  0
    7.1067    8.2136   12.5651 N   0  0  0  0  0  0  0  0  0  0  0  0
   -1.3335   12.7110   -0.0576 C   0  0  0  0  0  0  0  0  0  0  0  0
   -1.3253   12.1729    0.8770 H   0  0  0  0  0  0  0  0  0  0  0  0
    0.7473   18.0658    1.6907 C   0  0  2  0  0  3  0  0  0  0  0  0
    0.8873   18.9526    2.7557 C   0  0  0  0  0  0  0  0  0  0  0  0
    0.9197   18.5894    3.7707 H   0  0  0  0  0  0  0  0  0  0  0  0
    1.2433   14.5607    3.0020 C   0  0  0  0  0  0  0  0  0  0  0  0
    3.8715   11.7215    7.2232 C   0  0  0  0  0  0  0  0  0  0  0  0
    3.8066   12.2357    8.1728 H   0  0  0  0  0  0  0  0  0  0  0  0
    5.8882    9.6589   10.5421 C   0  0  0  0  0  0  0  0  0  0  0  0
    5.9973   10.0692   11.5334 H   0  0  0  0  0  0  0  0  0  0  0  0
    2.5162   13.5879    6.3941 C   0  0  0  0  0  0  0  0  0  0  0  0
    2.4639   13.9520    7.4104 H   0  0  0  0  0  0  0  0  0  0  0  0
   -1.3658   14.1518   -2.3592 C   0  0  0  0  0  0  0  0  0  0  0  0
   -1.3610   14.7666   -3.2523 H   0  0  0  0  0  0  0  0  0  0  0  0
    1.2865   15.9528    2.9419 C   0  0  0  0  0  0  0  0  0  0  0  0
    1.8537   16.5062    3.6731 H   0  0  0  0  0  0  0  0  0  0  0  0
    5.6490    8.5559    8.0219 C   0  0  0  0  0  0  0  0  0  0  0  0
    5.5590    8.1205    7.0372 H   0  0  0  0  0  0  0  0  0  0  0  0
    3.2739   11.9700    4.7992 C   0  0  0  0  0  0  0  0  0  0  0  0
    3.8292   11.0809    4.5457 H   0  0  0  0  0  0  0  0  0  0  0  0
    0.9596   20.3099    2.4910 C   0  0  0  0  0  0  0  0  0  0  0  0
    1.0666   21.0177    3.2996 H   0  0  0  0  0  0  0  0  0  0  0  0
    1.8814   14.2870    5.3908 C   0  0  0  0  0  0  0  0  0  0  0  0
    1.3253   15.1821    5.6297 H   0  0  0  0  0  0  0  0  0  0  0  0
    7.5481    6.4451   11.3581 C   0  0  0  0  0  0  0  0  0  0  0  0
    7.6030    5.7845   10.5190 H   0  0  0  0  0  0  0  0  0  0  0  0
    8.0068    6.1750   12.5521 N   0  0  0  0  0  0  0  0  0  0  0  0
   -1.9732   12.9045   -2.3494 C   0  0  0  0  0  0  0  0  0  0  0  0
   -2.4469   12.5217   -3.2388 H   0  0  0  0  0  0  0  0  0  0  0  0
    7.7146    7.2873   13.2595 C   0  0  0  0  0  0  0  0  0  0  0  0
    7.9574    7.4030   14.2953 H   0  0  0  0  0  0  0  0  0  0  0  0
    0.8874   20.7428    1.1768 C   0  0  0  0  0  0  0  0  0  0  0  0
    0.9400   21.7906    0.9291 H   0  0  0  0  0  0  0  0  0  0  0  0
    0.7397   19.7921    0.1772 C   0  0  0  0  0  0  0  0  0  0  0  0
    0.6671   20.0809   -0.8652 H   0  0  0  0  0  0  0  0  0  0  0  0
    6.2620    7.8306    9.0211 C   0  0  0  0  0  0  0  0  0  0  0  0
    6.6422    6.8443    8.8071 H   0  0  0  0  0  0  0  0  0  0  0  0
  1  2  1  0  0  0  0
  1  6  1  0  0  0  0
  1  4  1  0  0  0  0
  3  1  1  0  0  0  0
  4 21  1  0  0  0  0
  4  7  1  0  0  0  0
  5 26  1  1  0  0  0
  5 21  1  0  0  0  0
  6 28  1  0  0  0  0
  7 40  1  6  0  0  0
  8  9  1  0  0  0  0
  8 31  1  0  0  0  0
 10 23  1  0  0  0  0
 11 17  2  0  0  0  0
 11 44  1  0  0  0  0
 12 11  1  0  0  0  0
 13 34  1  0  0  0  0
 13 22  1  0  0  0  0
 14 15  1  0  0  0  0
 14 26  2  0  0  0  0
 16  1  1  0  0  0  0
 16  5  1  0  0  0  0
 17 48  1  0  0  0  0
 18 36  1  0  0  0  0
 18 32  1  0  0  0  0
 19 32  2  0  0  0  0
 19 10  1  0  0  0  0
 20 19  1  0  0  0  0
 21  8  2  0  0  0  0
 22 50  1  0  0  0  0
 22 25  1  0  0  0  0
 23 24  1  0  0  0  0
 23 34  2  0  0  0  0
 25 55  2  0  0  0  0
 26 27  1  0  0  0  0
 28  7  1  0  0  0  0
 28 29  1  1  0  0  0
 29 30  1  0  0  0  0
 31 17  1  0  0  0  0
 32 33  1  0  0  0  0
 34 35  1  0  0  0  0
 36 37  1  0  0  0  0
 38 53  2  0  0  0  0
 38 16  1  0  0  0  0
 39 38  1  0  0  0  0
 40 31  2  0  0  0  0
 40 41  1  0  0  0  0
 42 10  2  0  0  0  0
 42 61  1  0  0  0  0
 43 42  1  0  0  0  0
 44 18  2  0  0  0  0
 45 44  1  0  0  0  0
 46 29  2  0  0  0  0
 46 47  1  0  0  0  0
 48 49  1  0  0  0  0
 48 36  2  0  0  0  0
 50 52  2  0  0  0  0
 51 50  1  0  0  0  0
 52 55  1  0  0  0  0
 53 14  1  0  0  0  0
 54 53  1  0  0  0  0
 55 56  1  0  0  0  0
 57 46  1  0  0  0  0
 58 57  1  0  0  0  0
 59  6  1  0  0  0  0
 59 57  2  0  0  0  0
 60 59  1  0  0  0  0
 61 13  2  0  0  0  0
 62 61  1  0  0  0  0
M  END
$$$$
