CSD_code = VEHMOM | q = 0 | S = 0 | Stoichiometry = C31H22CdI2N6 | MND = 5
 OpenBabel04212202113D

 62 69  0  0  1  0  0  0  0  0999 V2000
    9.0127    2.5790    7.8520 Cd  0  0  0  0  0  0  0  0  0  0  0  0
    6.3453    3.0357    7.7710 I   0  0  0  0  0  0  0  0  0  0  0  0
   10.7454    1.3342    9.4774 I   0  0  0  0  0  0  0  0  0  0  0  0
    4.3487   11.0930   -1.9053 C   0  0  0  0  0  0  0  0  0  0  0  0
    5.1152   11.6220   -1.3575 H   0  0  0  0  0  0  0  0  0  0  0  0
    4.1059    9.7464   -1.6135 C   0  0  0  0  0  0  0  0  0  0  0  0
    9.8516    4.8977    8.1333 N   0  0  0  0  0  0  0  0  0  0  0  0
    9.3186    3.7514    5.7509 N   0  0  0  0  0  0  0  0  0  0  0  0
    8.4280    5.7976    4.9219 C   0  0  0  0  0  0  0  0  0  0  0  0
    8.2591    6.8536    5.0591 H   0  0  0  0  0  0  0  0  0  0  0  0
    9.1842    1.0642    5.8971 N   0  0  0  0  0  0  0  0  0  0  0  0
    7.8451    5.1330    3.8441 C   0  0  0  0  0  0  0  0  0  0  0  0
    7.0440    5.8525    2.8513 C   0  0  0  0  0  0  0  0  0  0  0  0
    1.8998   11.7324   -4.5793 N   0  0  0  0  0  0  0  0  0  0  0  0
    5.5264    7.2224    0.9188 C   0  0  0  0  0  0  0  0  0  0  0  0
    8.7805    3.1009    4.7215 C   0  0  1  0  0  3  0  0  0  0  0  0
   10.7758    6.7092    9.3701 C   0  0  0  0  0  0  0  0  0  0  0  0
   11.1797    7.0707   10.3018 H   0  0  0  0  0  0  0  0  0  0  0  0
    9.1497    5.0671    5.8594 C   0  0  0  0  0  0  0  0  0  0  0  0
   10.3580    5.3920    9.2509 C   0  0  0  0  0  3  0  0  0  0  0  0
   10.4360    4.7048   10.0856 H   0  0  0  0  0  0  0  0  0  0  0  0
    8.9716    0.8959    3.5297 C   0  0  0  0  0  0  0  0  0  0  0  0
    8.8398    1.3816    2.5758 H   0  0  0  0  0  0  0  0  0  0  0  0
    5.1276    5.9708    1.4018 C   0  0  0  0  0  0  0  0  0  0  0  0
    4.2163    5.5270    1.0277 H   0  0  0  0  0  0  0  0  0  0  0  0
    9.7309    5.6900    7.0651 C   0  0  0  0  0  0  0  0  0  0  0  0
    8.9835    1.6389    4.7082 C   0  0  1  0  0  3  0  0  0  0  0  0
   10.1370    7.0222    7.0927 C   0  0  0  0  0  0  0  0  0  0  0  0
   10.0592    7.6373    6.2103 H   0  0  0  0  0  0  0  0  0  0  0  0
    0.9914   11.0667   -5.3120 N   0  0  0  0  0  0  0  0  0  0  0  0
    4.9041    9.1021   -0.5907 C   0  0  0  0  0  0  0  0  0  0  0  0
    5.7131    9.7116   -0.2105 H   0  0  0  0  0  0  0  0  0  0  0  0
    2.3892    9.7508   -3.3144 C   0  0  0  0  0  0  0  0  0  0  0  0
    1.6235    9.2472   -3.8826 H   0  0  0  0  0  0  0  0  0  0  0  0
    6.7032    7.7741    1.4354 C   0  0  0  0  0  0  0  0  0  0  0  0
    7.0505    8.7329    1.0839 H   0  0  0  0  0  0  0  0  0  0  0  0
    2.6437   11.0936   -3.5859 C   0  0  0  0  0  0  0  0  0  0  0  0
   10.6654    7.5365    8.2645 C   0  0  0  0  0  0  0  0  0  0  0  0
   10.9884    8.5659    8.3112 H   0  0  0  0  0  0  0  0  0  0  0  0
    1.0501   13.1988   -5.9578 N   0  0  0  0  0  0  0  0  0  0  0  0
    4.7159    7.8706   -0.0919 C   0  0  0  0  0  0  0  0  0  0  0  0
    3.8856    7.2749   -0.4464 H   0  0  0  0  0  0  0  0  0  0  0  0
    5.8709    5.2951    2.3443 C   0  0  0  0  0  0  0  0  0  0  0  0
    5.5276    4.3417    2.7171 H   0  0  0  0  0  0  0  0  0  0  0  0
    7.4419    7.1060    2.3869 C   0  0  0  0  0  0  0  0  0  0  0  0
    8.3586    7.5444    2.7547 H   0  0  0  0  0  0  0  0  0  0  0  0
    8.0362    3.7554    3.7469 C   0  0  0  0  0  0  0  0  0  0  0  0
    7.5866    3.2060    2.9357 H   0  0  0  0  0  0  0  0  0  0  0  0
    9.3515   -1.0619    4.8401 C   0  0  0  0  0  0  0  0  0  0  0  0
    9.4966   -2.1254    4.9392 H   0  0  0  0  0  0  0  0  0  0  0  0
    9.1557   -0.4745    3.6008 C   0  0  0  0  0  0  0  0  0  0  0  0
    9.1498   -1.0721    2.7015 H   0  0  0  0  0  0  0  0  0  0  0  0
    9.3631   -0.2448    5.9610 C   0  0  0  0  0  0  0  0  0  0  0  0
    9.5248   -0.6576    6.9503 H   0  0  0  0  0  0  0  0  0  0  0  0
    3.1089    9.0909   -2.3438 C   0  0  0  0  0  0  0  0  0  0  0  0
    2.8995    8.0494   -2.1589 H   0  0  0  0  0  0  0  0  0  0  0  0
    3.6322   11.7649   -2.8724 C   0  0  0  0  0  0  0  0  0  0  0  0
    3.8477   12.8028   -3.0710 H   0  0  0  0  0  0  0  0  0  0  0  0
    0.5094   11.9726   -6.1224 C   0  0  0  0  0  0  0  0  0  0  0  0
   -0.2477   11.7587   -6.8477 H   0  0  0  0  0  0  0  0  0  0  0  0
    1.9140   13.0226   -4.9926 C   0  0  0  0  0  0  0  0  0  0  0  0
    2.5379   13.7894   -4.5848 H   0  0  0  0  0  0  0  0  0  0  0  0
  1  7  1  0  0  0  0
  1  3  1  0  0  0  0
  2  1  1  0  0  0  0
  4  6  1  0  0  0  0
  4  5  1  0  0  0  0
  6 31  1  0  0  0  0
  7 20  1  0  0  0  0
  8 19  1  0  0  0  0
  8  1  1  0  0  0  0
  9 10  1  0  0  0  0
  9 19  2  0  0  0  0
 11 53  1  0  0  0  0
 11  1  1  0  0  0  0
 12  9  1  0  0  0  0
 13 12  1  0  0  0  0
 14 37  1  0  0  0  0
 15 24  2  0  0  0  0
 15 35  1  0  0  0  0
 16 47  1  1  0  0  0
 16  8  1  0  0  0  0
 17 18  1  0  0  0  0
 19 26  1  0  0  0  0
 20 17  1  0  0  0  0
 20 21  1  0  0  0  0
 22 51  2  0  0  0  0
 23 22  1  0  0  0  0
 24 43  1  0  0  0  0
 25 24  1  0  0  0  0
 26 28  2  0  0  0  0
 26  7  1  0  0  0  0
 27 22  1  6  0  0  0
 27 16  1  0  0  0  0
 27 11  1  0  0  0  0
 28 38  1  0  0  0  0
 29 28  1  0  0  0  0
 30 14  1  0  0  0  0
 31 32  1  0  0  0  0
 31 41  2  0  0  0  0
 33 55  1  0  0  0  0
 34 33  1  0  0  0  0
 35 45  2  0  0  0  0
 36 35  1  0  0  0  0
 37 33  2  0  0  0  0
 37 57  1  0  0  0  0
 38 39  1  0  0  0  0
 38 17  2  0  0  0  0
 40 61  2  0  0  0  0
 41 15  1  0  0  0  0
 42 41  1  0  0  0  0
 43 44  1  0  0  0  0
 43 13  2  0  0  0  0
 45 46  1  0  0  0  0
 45 13  1  0  0  0  0
 47 12  2  0  0  0  0
 48 47  1  0  0  0  0
 49 50  1  0  0  0  0
 49 53  2  0  0  0  0
 51 49  1  0  0  0  0
 52 51  1  0  0  0  0
 53 54  1  0  0  0  0
 55 56  1  0  0  0  0
 55  6  2  0  0  0  0
 57  4  2  0  0  0  0
 58 57  1  0  0  0  0
 59 40  1  0  0  0  0
 59 30  2  0  0  0  0
 60 59  1  0  0  0  0
 61 62  1  0  0  0  0
 61 14  1  0  0  0  0
M  END
$$$$
