CSD_code = VEHSEJ | q = 0 | S = 0 | Stoichiometry = C30H24ClN7Ru | MND = 6
 OpenBabel04212202113D

 63 71  0  0  1  0  0  0  0  0999 V2000
    7.7463    3.9151    9.5211 Ru  0  0  0  0  0  0  0  0  0  0  0  0
    8.1962    5.2574   11.4250 Cl  0  0  0  0  0  0  0  0  0  0  0  0
    6.4987    5.4351    8.8759 N   0  0  0  0  0  0  0  0  0  0  0  0
    4.4400    4.3941    9.5197 N   0  0  0  0  0  2  0  0  0  0  0  0
    6.2383    3.3109   10.6396 N   0  0  0  0  0  0  0  0  0  0  0  0
    7.4636    1.9524   12.1630 N   0  0  0  0  0  0  0  0  0  0  0  0
    8.8860    2.4188   10.2786 N   0  0  0  0  0  0  0  0  0  0  0  0
    7.1535    2.9619    7.8456 N   0  0  0  0  0  0  0  0  0  0  0  0
    9.1637    4.6014    8.2300 N   0  0  0  0  0  0  0  0  0  0  0  0
    7.0186    6.5395    8.3323 C   0  0  0  0  0  3  0  0  0  0  0  0
    8.0465    6.7625    8.5947 H   0  0  0  0  0  0  0  0  0  0  0  0
    6.3180    7.3924    7.5108 C   0  0  0  0  0  0  0  0  0  0  0  0
    6.7990    8.2669    7.1038 H   0  0  0  0  0  0  0  0  0  0  0  0
    4.9851    7.0937    7.2213 C   0  0  0  0  0  0  0  0  0  0  0  0
    4.4173    7.7112    6.5413 H   0  0  0  0  0  0  0  0  0  0  0  0
    4.4042    6.0333    7.8637 C   0  0  0  0  0  0  0  0  0  0  0  0
    3.3600    5.7916    7.7523 H   0  0  0  0  0  0  0  0  0  0  0  0
    5.1582    5.2376    8.7551 C   0  0  0  0  0  0  0  0  0  0  0  0
    4.9469    3.6420   10.4574 C   0  0  0  0  0  0  0  0  0  0  0  0
    4.1472    2.9894   11.4970 C   0  0  0  0  0  0  0  0  0  0  0  0
    2.7952    2.9883   11.7759 C   0  0  0  0  0  0  0  0  0  0  0  0
    2.1039    3.5279   11.1481 H   0  0  0  0  0  0  0  0  0  0  0  0
    2.3672    2.2728   12.8870 C   0  0  0  0  0  0  0  0  0  0  0  0
    1.3152    2.2524   13.1321 H   0  0  0  0  0  0  0  0  0  0  0  0
    3.2660    1.5870   13.6934 C   0  0  0  0  0  0  0  0  0  0  0  0
    2.8980    1.0464   14.5532 H   0  0  0  0  0  0  0  0  0  0  0  0
    4.6274    1.5870   13.4169 C   0  0  0  0  0  0  0  0  0  0  0  0
    5.3334    1.0624   14.0406 H   0  0  0  0  0  0  0  0  0  0  0  0
    5.0563    2.2943   12.3124 C   0  0  0  0  0  0  0  0  0  0  0  0
    6.3789    2.5057   11.7202 C   0  0  0  0  0  0  0  0  0  0  0  0
    8.6576    1.9376   11.5331 C   0  0  0  0  0  0  0  0  0  0  0  0
    9.6699    1.2365   12.2224 C   0  0  0  0  0  0  0  0  0  0  0  0
    9.4513    0.9325   13.2324 H   0  0  0  0  0  0  0  0  0  0  0  0
   10.8576    0.9386   11.6077 C   0  0  0  0  0  0  0  0  0  0  0  0
   11.6382    0.4050   12.1278 H   0  0  0  0  0  0  0  0  0  0  0  0
   11.0155    1.3118   10.2721 C   0  0  0  0  0  0  0  0  0  0  0  0
   11.9033    1.0504    9.7183 H   0  0  0  0  0  0  0  0  0  0  0  0
   10.0177    2.0426    9.6691 C   0  0  0  0  0  0  0  0  0  0  0  0
   10.1214    2.3447    8.6310 H   0  0  0  0  0  0  0  0  0  0  0  0
    6.0574    0.9796    8.7750 C   0  0  0  0  0  0  0  0  0  0  0  0
    6.8842    1.0065    9.4820 H   0  0  0  0  0  0  0  0  0  0  0  0
    5.9809   -0.0219    8.3543 H   0  0  0  0  0  0  0  0  0  0  0  0
    5.1303    1.1891    9.3089 H   0  0  0  0  0  0  0  0  0  0  0  0
    6.2674    1.9720    7.6744 C   0  0  2  0  0  3  0  0  0  0  0  0
    5.5557    1.8314    6.4922 C   0  0  0  0  0  0  0  0  0  0  0  0
    4.8250    1.0429    6.4075 H   0  0  0  0  0  0  0  0  0  0  0  0
    5.7716    2.7172    5.4454 C   0  0  0  0  0  0  0  0  0  0  0  0
    5.1899    2.6539    4.5393 H   0  0  0  0  0  0  0  0  0  0  0  0
    6.7715    3.6576    5.5784 C   0  0  0  0  0  0  0  0  0  0  0  0
    6.9905    4.3332    4.7688 H   0  0  0  0  0  0  0  0  0  0  0  0
    7.4756    3.7450    6.7804 C   0  0  0  0  0  0  0  0  0  0  0  0
    8.6365    4.6011    6.9750 C   0  0  2  0  0  3  0  0  0  0  0  0
    9.2288    5.3083    5.9256 C   0  0  0  0  0  0  0  0  0  0  0  0
    8.7813    5.3057    4.9462 H   0  0  0  0  0  0  0  0  0  0  0  0
   10.3891    6.0140    6.1566 C   0  0  0  0  0  0  0  0  0  0  0  0
   10.8547    6.5870    5.3699 H   0  0  0  0  0  0  0  0  0  0  0  0
   10.9571    5.9490    7.4215 C   0  0  0  0  0  0  0  0  0  0  0  0
   11.8816    6.4628    7.6317 H   0  0  0  0  0  0  0  0  0  0  0  0
   10.3354    5.2294    8.4334 C   0  0  0  0  0  0  0  0  0  0  0  0
   10.9797    5.1505    9.7749 C   0  0  0  0  0  0  0  0  0  0  0  0
   10.2423    5.3281   10.5606 H   0  0  0  0  0  0  0  0  0  0  0  0
   11.7796    5.8812    9.8564 H   0  0  0  0  0  0  0  0  0  0  0  0
   11.3971    4.1570    9.9368 H   0  0  0  0  0  0  0  0  0  0  0  0
  1  7  1  0  0  0  0
  1  5  1  0  0  0  0
  1  2  1  0  0  0  0
  3  1  1  0  0  0  0
  4 19  1  0  0  0  0
  5 30  1  0  0  0  0
  7 31  1  0  0  0  0
  8  1  1  0  0  0  0
  9 59  1  0  0  0  0
  9  1  1  0  0  0  0
 10 11  1  0  0  0  0
 10  3  1  0  0  0  0
 12 10  1  0  0  0  0
 13 12  1  0  0  0  0
 14 12  2  0  0  0  0
 14 16  1  0  0  0  0
 15 14  1  0  0  0  0
 16 18  2  0  0  0  0
 17 16  1  0  0  0  0
 18  3  1  0  0  0  0
 18  4  1  0  0  0  0
 19  5  1  0  0  0  0
 19 20  2  0  0  0  0
 20 21  1  0  0  0  0
 20 29  1  0  0  0  0
 21 23  2  0  0  0  0
 22 21  1  0  0  0  0
 23 24  1  0  0  0  0
 23 25  1  0  0  0  0
 25 26  1  0  0  0  0
 27 25  2  0  0  0  0
 27 28  1  0  0  0  0
 29 27  1  0  0  0  0
 30  6  1  0  0  0  0
 30 29  2  0  0  0  0
 31  6  2  0  0  0  0
 31 32  1  0  0  0  0
 32 33  1  0  0  0  0
 34 35  1  0  0  0  0
 34 32  2  0  0  0  0
 36 34  1  0  0  0  0
 37 36  1  0  0  0  0
 38 36  2  0  0  0  0
 38  7  1  0  0  0  0
 39 38  1  0  0  0  0
 40 43  1  0  0  0  0
 40 41  1  0  0  0  0
 42 40  1  0  0  0  0
 44  8  1  0  0  0  0
 44 40  1  6  0  0  0
 45 44  1  0  0  0  0
 46 45  1  0  0  0  0
 47 49  1  0  0  0  0
 47 45  2  0  0  0  0
 48 47  1  0  0  0  0
 49 51  2  0  0  0  0
 50 49  1  0  0  0  0
 51 52  1  0  0  0  0
 51  8  1  0  0  0  0
 52 53  1  6  0  0  0
 52  9  1  0  0  0  0
 53 55  2  0  0  0  0
 54 53  1  0  0  0  0
 55 57  1  0  0  0  0
 56 55  1  0  0  0  0
 57 58  1  0  0  0  0
 57 59  2  0  0  0  0
 59 60  1  0  0  0  0
 60 62  1  0  0  0  0
 60 63  1  0  0  0  0
 60 61  1  0  0  0  0
M  END
$$$$
