CSD_code = VEHTIL | q = 0 | S = 0 | Stoichiometry = C24H38Cl2Ti | MND = 12
 OpenBabel04212202113D

 65 66  0  0  1  0  0  0  0  0999 V2000
    1.1830    0.8371   12.2862 Ti  0  0  0  0  0  0  0  0  0  0  0  0
    1.2237    2.4891   10.7373 Cl  0  0  0  0  0  0  0  0  0  0  0  0
   -0.7351    0.2671   11.0788 C   0  0  1  0  0  3  0  0  0  0  0  0
   -1.1062    1.1881   12.1087 C   0  0  1  0  0  0  0  0  0  0  0  0
   -0.9578    0.5383   13.3621 C   0  0  0  0  0  0  0  0  0  0  0  0
   -0.4604   -0.7658   13.1262 C   0  0  0  0  0  0  0  0  0  0  0  0
   -0.3428   -0.9468   11.7138 C   0  0  1  0  0  3  0  0  0  0  0  0
   -1.0366    0.5059    9.6164 C   0  0  0  0  0  0  0  0  0  0  0  0
    0.0734    0.0939    8.6469 C   0  0  0  0  0  0  0  0  0  0  0  0
   -2.3601   -0.1776    9.2499 C   0  0  0  0  0  0  0  0  0  0  0  0
   -1.7453    2.5347   11.9531 C   0  0  0  0  0  0  0  0  0  0  0  0
   -1.5052    1.0439   14.6617 C   0  0  0  0  0  0  0  0  0  0  0  0
   -0.5163   -1.8549   14.1588 C   0  0  0  0  0  0  0  0  0  0  0  0
   -0.2932   -2.3053   11.0759 C   0  0  0  0  0  0  0  0  0  0  0  0
   -1.1749    1.5845    9.4880 H   0  0  0  0  0  0  0  0  0  0  0  0
    1.0305    0.4798    8.9963 H   0  0  0  0  0  0  0  0  0  0  0  0
    0.1311   -0.9857    8.5295 H   0  0  0  0  0  0  0  0  0  0  0  0
   -0.1277    0.5200    7.6658 H   0  0  0  0  0  0  0  0  0  0  0  0
   -3.1495    0.1400    9.9273 H   0  0  0  0  0  0  0  0  0  0  0  0
   -2.2682   -1.2589    9.3106 H   0  0  0  0  0  0  0  0  0  0  0  0
   -2.6471    0.0864    8.2345 H   0  0  0  0  0  0  0  0  0  0  0  0
   -1.5438    2.9696   10.9765 H   0  0  0  0  0  0  0  0  0  0  0  0
   -1.3682    3.2203   12.7133 H   0  0  0  0  0  0  0  0  0  0  0  0
   -2.8275    2.4479   12.0785 H   0  0  0  0  0  0  0  0  0  0  0  0
   -1.2621    2.0939   14.8153 H   0  0  0  0  0  0  0  0  0  0  0  0
   -1.1209    0.4731   15.5044 H   0  0  0  0  0  0  0  0  0  0  0  0
   -2.5939    0.9470   14.6501 H   0  0  0  0  0  0  0  0  0  0  0  0
   -0.0944   -2.7864   13.7951 H   0  0  0  0  0  0  0  0  0  0  0  0
   -0.0034   -1.5719   15.0765 H   0  0  0  0  0  0  0  0  0  0  0  0
   -1.5630   -2.0424   14.4120 H   0  0  0  0  0  0  0  0  0  0  0  0
    0.3082   -3.0027   11.6540 H   0  0  0  0  0  0  0  0  0  0  0  0
   -1.3094   -2.7087   11.0431 H   0  0  0  0  0  0  0  0  0  0  0  0
    0.0898   -2.2786   10.0621 H   0  0  0  0  0  0  0  0  0  0  0  0
    1.1423    2.4874   13.8365 Cl  0  0  0  0  0  0  0  0  0  0  0  0
    3.1008    0.2672   13.4944 C   0  0  1  0  0  3  0  0  0  0  0  0
    3.4721    1.1881   12.4645 C   0  0  1  0  0  0  0  0  0  0  0  0
    3.3241    0.5382   11.2111 C   0  0  0  0  0  0  0  0  0  0  0  0
    2.8265   -0.7658   11.4470 C   0  0  0  0  0  0  0  0  0  0  0  0
    2.7087   -0.9468   12.8593 C   0  0  1  0  0  3  0  0  0  0  0  0
    3.4025    0.5059   14.9567 C   0  0  0  0  0  0  0  0  0  0  0  0
    4.1113    2.5347   12.6201 C   0  0  0  0  0  0  0  0  0  0  0  0
    3.8714    1.0438    9.9115 C   0  0  0  0  0  0  0  0  0  0  0  0
    2.8823   -1.8549   10.4143 C   0  0  0  0  0  0  0  0  0  0  0  0
    2.6592   -2.3053   13.4973 C   0  0  0  0  0  0  0  0  0  0  0  0
    2.2926    0.0939   15.9262 C   0  0  0  0  0  0  0  0  0  0  0  0
    4.7260   -0.1776   15.3232 C   0  0  0  0  0  0  0  0  0  0  0  0
    3.5409    1.5846   15.0852 H   0  0  0  0  0  0  0  0  0  0  0  0
    3.9100    2.9696   13.5967 H   0  0  0  0  0  0  0  0  0  0  0  0
    3.7340    3.2204   11.8600 H   0  0  0  0  0  0  0  0  0  0  0  0
    5.1935    2.4479   12.4944 H   0  0  0  0  0  0  0  0  0  0  0  0
    3.6281    2.0938    9.7578 H   0  0  0  0  0  0  0  0  0  0  0  0
    3.4873    0.4729    9.0688 H   0  0  0  0  0  0  0  0  0  0  0  0
    4.9601    0.9472    9.9233 H   0  0  0  0  0  0  0  0  0  0  0  0
    2.4605   -2.7865   10.7781 H   0  0  0  0  0  0  0  0  0  0  0  0
    2.3692   -1.5719    9.4968 H   0  0  0  0  0  0  0  0  0  0  0  0
    3.9290   -2.0423   10.1611 H   0  0  0  0  0  0  0  0  0  0  0  0
    2.0579   -3.0027   12.9192 H   0  0  0  0  0  0  0  0  0  0  0  0
    3.6753   -2.7086   13.5303 H   0  0  0  0  0  0  0  0  0  0  0  0
    2.2760   -2.2786   14.5111 H   0  0  0  0  0  0  0  0  0  0  0  0
    1.3355    0.4799   15.5768 H   0  0  0  0  0  0  0  0  0  0  0  0
    2.2348   -0.9857   16.0436 H   0  0  0  0  0  0  0  0  0  0  0  0
    2.4937    0.5200   16.9073 H   0  0  0  0  0  0  0  0  0  0  0  0
    5.5155    0.1399   14.6458 H   0  0  0  0  0  0  0  0  0  0  0  0
    4.6342   -1.2589   15.2626 H   0  0  0  0  0  0  0  0  0  0  0  0
    5.0132    0.0864   16.3386 H   0  0  0  0  0  0  0  0  0  0  0  0
  1 36  1  0  0  0  0
  1 34  1  0  0  0  0
  2  1  1  0  0  0  0
  3  8  1  6  0  0  0
  3  7  1  0  0  0  0
  3  4  1  0  0  0  0
  4 11  1  6  0  0  0
  4  1  1  0  0  0  0
  4  5  1  0  0  0  0
  5 12  1  0  0  0  0
  6  5  2  0  0  0  0
  6 13  1  0  0  0  0
  7 14  1  6  0  0  0
  7  6  1  0  0  0  0
  9 16  1  0  0  0  0
  9  8  1  0  0  0  0
 10 20  1  0  0  0  0
 10  8  1  0  0  0  0
 10 19  1  0  0  0  0
 11 24  1  0  0  0  0
 11 23  1  0  0  0  0
 12 25  1  0  0  0  0
 12 26  1  0  0  0  0
 13 30  1  0  0  0  0
 13 29  1  0  0  0  0
 14 31  1  0  0  0  0
 15  8  1  0  0  0  0
 17  9  1  0  0  0  0
 18  9  1  0  0  0  0
 21 10  1  0  0  0  0
 22 11  1  0  0  0  0
 27 12  1  0  0  0  0
 28 13  1  0  0  0  0
 32 14  1  0  0  0  0
 33 14  1  0  0  0  0
 35 40  1  1  0  0  0
 36 41  1  1  0  0  0
 36 35  1  0  0  0  0
 37 38  2  0  0  0  0
 37 36  1  0  0  0  0
 38 39  1  0  0  0  0
 39 35  1  0  0  0  0
 39 44  1  1  0  0  0
 40 47  1  0  0  0  0
 40 46  1  0  0  0  0
 40 45  1  0  0  0  0
 41 48  1  0  0  0  0
 42 53  1  0  0  0  0
 42 37  1  0  0  0  0
 43 54  1  0  0  0  0
 43 38  1  0  0  0  0
 44 58  1  0  0  0  0
 44 59  1  0  0  0  0
 45 61  1  0  0  0  0
 45 62  1  0  0  0  0
 46 65  1  0  0  0  0
 49 41  1  0  0  0  0
 50 41  1  0  0  0  0
 51 42  1  0  0  0  0
 52 42  1  0  0  0  0
 55 43  1  0  0  0  0
 56 43  1  0  0  0  0
 57 44  1  0  0  0  0
 60 45  1  0  0  0  0
 63 46  1  0  0  0  0
 64 46  1  0  0  0  0
M  END
$$$$
