CSD_code = VEHZOA | q = 0 | S = 0 | Stoichiometry = C24H28ClIrN2O2 | MND = 8
 OpenBabel04212202113D

 58 61  0  0  1  0  0  0  0  0999 V2000
    2.9108    0.2528    3.9077 C   0  0  0  0  0  0  0  0  0  0  0  0
    2.2261    1.3451    3.3815 C   0  0  0  0  0  0  0  0  0  0  0  0
    1.8496    1.3173    2.3711 H   0  0  0  0  0  0  0  0  0  0  0  0
    1.9971    2.4728    4.1548 C   0  0  0  0  0  0  0  0  0  0  0  0
    2.4504    2.4819    5.4825 C   0  0  0  0  0  0  0  0  0  0  0  0
    3.1557    1.3965    6.0053 C   0  0  0  0  0  0  0  0  0  0  0  0
    3.4996    1.4433    7.0278 H   0  0  0  0  0  0  0  0  0  0  0  0
    3.3917    0.2936    5.2230 C   0  0  0  0  0  0  0  0  0  0  0  0
    3.9297   -0.5626    5.5978 H   0  0  0  0  0  0  0  0  0  0  0  0
    2.6775   -1.0281    1.9146 C   0  0  0  0  0  0  0  0  0  0  0  0
    3.1248   -0.2905    1.2401 H   0  0  0  0  0  0  0  0  0  0  0  0
    1.5878   -0.9339    1.8857 H   0  0  0  0  0  0  0  0  0  0  0  0
    2.9631   -2.0286    1.5925 H   0  0  0  0  0  0  0  0  0  0  0  0
    2.0923    3.6395    6.2966 C   0  0  0  0  0  0  0  0  0  0  0  0
    0.3525    5.2801    6.2169 C   0  0  0  0  0  0  0  0  0  0  0  0
   -0.6021    6.0325    5.4643 C   0  0  0  0  0  0  0  0  0  0  0  0
   -0.6286    5.9137    4.3944 H   0  0  0  0  0  0  0  0  0  0  0  0
   -1.5046    6.8379    6.0699 C   0  0  0  0  0  3  0  0  0  0  0  0
   -2.2349    7.3950    5.5027 H   0  0  0  0  0  0  0  0  0  0  0  0
   -0.6645    6.2870    8.1728 C   0  0  0  0  0  0  0  0  0  0  0  0
   -0.7420    6.4259    9.2407 H   0  0  0  0  0  0  0  0  0  0  0  0
    0.2653    5.4633    7.6344 C   0  0  0  0  0  0  0  0  0  0  0  0
    0.9474    4.9298    8.2745 H   0  0  0  0  0  0  0  0  0  0  0  0
   -2.5011    7.8644    8.0503 C   0  0  0  0  0  0  0  0  0  0  0  0
   -2.9970    7.3531    8.8761 H   0  0  0  0  0  0  0  0  0  0  0  0
   -3.2541    8.1765    7.3298 H   0  0  0  0  0  0  0  0  0  0  0  0
   -1.9998    8.7532    8.4421 H   0  0  0  0  0  0  0  0  0  0  0  0
    2.9046    5.5223    2.8598 C   0  0  2  0  0  0  0  0  0  0  0  0
    2.7133    4.5261    1.8567 C   0  0  1  0  0  3  0  0  0  0  0  0
    1.3846    4.6774    1.3618 C   0  0  1  0  0  0  0  0  0  0  0  0
    0.8390    5.9045    1.9203 C   0  0  0  0  0  0  0  0  0  0  0  0
    1.7664    6.4199    2.8232 C   0  0  0  0  0  0  0  0  0  0  0  0
    4.1950    5.8161    3.5563 C   0  0  0  0  0  0  0  0  0  0  0  0
    4.7684    4.9040    3.7054 H   0  0  0  0  0  0  0  0  0  0  0  0
    4.0199    6.2719    4.5289 H   0  0  0  0  0  0  0  0  0  0  0  0
    4.7975    6.5067    2.9616 H   0  0  0  0  0  0  0  0  0  0  0  0
    3.7682    3.5877    1.3597 C   0  0  0  0  0  0  0  0  0  0  0  0
    3.3388    2.8160    0.7267 H   0  0  0  0  0  0  0  0  0  0  0  0
    4.2908    3.1053    2.1836 H   0  0  0  0  0  0  0  0  0  0  0  0
    4.4995    4.1445    0.7708 H   0  0  0  0  0  0  0  0  0  0  0  0
    0.7666    3.9643    0.1986 C   0  0  0  0  0  0  0  0  0  0  0  0
    1.2571    3.0114    0.0150 H   0  0  0  0  0  0  0  0  0  0  0  0
    0.8499    4.5743   -0.7035 H   0  0  0  0  0  0  0  0  0  0  0  0
   -0.2884    3.7739    0.3860 H   0  0  0  0  0  0  0  0  0  0  0  0
   -0.4698    6.4889    1.4936 C   0  0  0  0  0  0  0  0  0  0  0  0
   -0.7072    7.3877    2.0595 H   0  0  0  0  0  0  0  0  0  0  0  0
   -1.2742    5.7665    1.6346 H   0  0  0  0  0  0  0  0  0  0  0  0
   -0.4361    6.7493    0.4344 H   0  0  0  0  0  0  0  0  0  0  0  0
    1.7044    7.7084    3.5806 C   0  0  0  0  0  0  0  0  0  0  0  0
    2.4178    8.4196    3.1596 H   0  0  0  0  0  0  0  0  0  0  0  0
    1.9629    7.5602    4.6291 H   0  0  0  0  0  0  0  0  0  0  0  0
    0.7120    8.1518    3.5331 H   0  0  0  0  0  0  0  0  0  0  0  0
   -1.5509    6.9834    7.4176 N   0  0  0  0  0  0  0  0  0  0  0  0
    1.1868    4.4625    5.5950 N   0  0  0  0  0  0  0  0  0  0  0  0
    3.1722   -0.8939    3.2249 O   0  0  0  0  0  0  0  0  0  0  0  0
    2.4981    3.8691    7.4215 O   0  0  0  0  0  0  0  0  0  0  0  0
   -0.9351    3.3068    3.6207 Cl  0  0  0  0  0 15  0  0  0  0  0  0
    1.2295    4.2200    3.5200 Ir  0  0  1  0  0  0  0  0  0  0  0  0
  1  8  1  0  0  0  0
  2  1  2  0  0  0  0
  2  4  1  0  0  0  0
  3  2  1  0  0  0  0
  4  5  2  0  0  0  0
  5  6  1  0  0  0  0
  5 14  1  0  0  0  0
  6  7  1  0  0  0  0
  8  9  1  0  0  0  0
  8  6  2  0  0  0  0
 10 55  1  0  0  0  0
 11 10  1  0  0  0  0
 12 10  1  0  0  0  0
 13 10  1  0  0  0  0
 14 56  2  0  0  0  0
 15 22  1  0  0  0  0
 16 18  1  0  0  0  0
 16 15  2  0  0  0  0
 17 16  1  0  0  0  0
 18 53  1  0  0  0  0
 19 18  1  0  0  0  0
 20 21  1  0  0  0  0
 22 20  2  0  0  0  0
 22 23  1  0  0  0  0
 24 27  1  0  0  0  0
 24 25  1  0  0  0  0
 26 24  1  0  0  0  0
 28 58  1  0  0  0  0
 28 33  1  1  0  0  0
 29 37  1  6  0  0  0
 29 28  1  0  0  0  0
 30 41  1  6  0  0  0
 30 29  1  0  0  0  0
 30 31  1  0  0  0  0
 30 58  1  0  0  0  0
 31 32  2  0  0  0  0
 32 28  1  0  0  0  0
 32 49  1  0  0  0  0
 33 34  1  0  0  0  0
 33 35  1  0  0  0  0
 36 33  1  0  0  0  0
 37 39  1  0  0  0  0
 38 37  1  0  0  0  0
 40 37  1  0  0  0  0
 41 44  1  0  0  0  0
 42 41  1  0  0  0  0
 43 41  1  0  0  0  0
 45 47  1  0  0  0  0
 45 31  1  0  0  0  0
 45 46  1  0  0  0  0
 48 45  1  0  0  0  0
 49 51  1  0  0  0  0
 50 49  1  0  0  0  0
 52 49  1  0  0  0  0
 53 24  1  0  0  0  0
 53 20  1  0  0  0  0
 54 15  1  0  0  0  0
 54 14  1  0  0  0  0
 55  1  1  0  0  0  0
 58  4  1  6  0  0  0
 58 54  1  0  0  0  0
M  END
$$$$
