CSD_code = VEJLEB | q = 0 | S = 0 | Stoichiometry = C21H20Br2N2Pd | MND = 6
 OpenBabel04212202113D

 46 50  0  0  0  0  0  0  0  0999 V2000
    0.1762    2.0254    4.1816 Pd  0  0  0  0  0  0  0  0  0  0  0  0
    1.9861    1.5545    2.4857 Br  0  0  0  0  0  0  0  0  0  0  0  0
    1.4852    2.4329    5.7108 C   0  0  0  0  0  0  0  0  0  0  0  0
    0.2658    0.0737    4.8210 C   0  0  0  0  0  0  0  0  0  0  0  0
   -1.2666    1.8782    2.4079 N   0  0  0  0  0  0  0  0  0  0  0  0
   -1.9217    0.8154    1.9946 C   0  0  0  0  0  0  0  0  0  0  0  0
   -2.8188    0.8338    0.9246 C   0  0  0  0  0  0  0  0  0  0  0  0
   -3.0404    2.0199    0.2694 C   0  0  0  0  0  0  0  0  0  0  0  0
   -2.3473    3.1692    0.6795 C   0  0  0  0  0  0  0  0  0  0  0  0
   -1.4489    3.0493    1.7658 C   0  0  0  0  0  0  0  0  0  0  0  0
   -2.5314    4.4301    0.0450 C   0  0  0  0  0  0  0  0  0  0  0  0
    0.1695    4.0908    3.2026 N   0  0  0  0  0  0  0  0  0  0  0  0
    0.9131    5.1251    3.5305 C   0  0  0  0  0  0  0  0  0  0  0  0
    0.8107    6.3692    2.9053 C   0  0  0  0  0  0  0  0  0  0  0  0
   -0.1077    6.5296    1.8975 C   0  0  0  0  0  0  0  0  0  0  0  0
   -0.8812    5.4293    1.4963 C   0  0  0  0  0  0  0  0  0  0  0  0
   -0.6981    4.2058    2.1803 C   0  0  0  0  0  0  0  0  0  0  0  0
   -1.8287    5.5169    0.4380 C   0  0  0  0  0  0  0  0  0  0  0  0
   -1.4527    2.3613    5.5011 C   0  0  0  0  0  0  0  0  0  0  0  0
   -2.0957    3.5791    5.0155 C   0  0  0  0  0  0  0  0  0  0  0  0
   -3.1659    3.5284    4.1098 C   0  0  0  0  0  0  0  0  0  0  0  0
   -3.6810    4.6727    3.5354 C   0  0  0  0  0  0  0  0  0  0  0  0
   -3.1405    5.9004    3.8754 C   0  0  0  0  0  0  0  0  0  0  0  0
   -3.7593    7.4748    2.9941 Br  0  0  0  0  0  0  0  0  0  0  0  0
   -2.1431    5.9994    4.8326 C   0  0  0  0  0  0  0  0  0  0  0  0
   -1.6394    4.8496    5.4017 C   0  0  0  0  0  0  0  0  0  0  0  0
    2.4983    2.3699    5.3034 H   0  0  0  0  0  0  0  0  0  0  0  0
    1.4086    1.7646    6.5697 H   0  0  0  0  0  0  0  0  0  0  0  0
    1.2893    3.4574    6.0459 H   0  0  0  0  0  0  0  0  0  0  0  0
   -0.2595   -0.1223    5.7573 H   0  0  0  0  0  0  0  0  0  0  0  0
    1.3116   -0.2253    4.9270 H   0  0  0  0  0  0  0  0  0  0  0  0
   -0.1806   -0.5233    4.0170 H   0  0  0  0  0  0  0  0  0  0  0  0
   -1.7397   -0.1080    2.5316 H   0  0  0  0  0  0  0  0  0  0  0  0
   -3.3245   -0.0730    0.6333 H   0  0  0  0  0  0  0  0  0  0  0  0
   -3.7332    2.0836   -0.5570 H   0  0  0  0  0  0  0  0  0  0  0  0
   -3.2451    4.4923   -0.7631 H   0  0  0  0  0  0  0  0  0  0  0  0
    1.6307    4.9728    4.3273 H   0  0  0  0  0  0  0  0  0  0  0  0
    1.4411    7.1834    3.2254 H   0  0  0  0  0  0  0  0  0  0  0  0
   -0.2417    7.4804    1.4030 H   0  0  0  0  0  0  0  0  0  0  0  0
   -1.9671    6.4742   -0.0418 H   0  0  0  0  0  0  0  0  0  0  0  0
   -2.1168    1.4954    5.4195 H   0  0  0  0  0  0  0  0  0  0  0  0
   -1.0927    2.4647    6.5259 H   0  0  0  0  0  0  0  0  0  0  0  0
   -3.5928    2.5698    3.8456 H   0  0  0  0  0  0  0  0  0  0  0  0
   -4.4877    4.6130    2.8198 H   0  0  0  0  0  0  0  0  0  0  0  0
   -1.7613    6.9681    5.1188 H   0  0  0  0  0  0  0  0  0  0  0  0
   -0.8573    4.9259    6.1446 H   0  0  0  0  0  0  0  0  0  0  0  0
  1  4  1  0  0  0  0
  1 19  1  0  0  0  0
  1  3  1  0  0  0  0
  2  1  1  0  0  0  0
  3 29  1  0  0  0  0
  3 28  1  0  0  0  0
  4 31  1  0  0  0  0
  4 30  1  0  0  0  0
  5  1  1  0  0  0  0
  6  5  1  0  0  0  0
  6 33  1  0  0  0  0
  7  6  2  0  0  0  0
  8  9  2  0  0  0  0
  8  7  1  0  0  0  0
  9 10  1  0  0  0  0
 10 17  2  0  0  0  0
 10  5  1  0  0  0  0
 11 18  2  0  0  0  0
 11  9  1  0  0  0  0
 12 13  1  0  0  0  0
 12  1  1  0  0  0  0
 13 37  1  0  0  0  0
 14 38  1  0  0  0  0
 14 13  2  0  0  0  0
 15 14  1  0  0  0  0
 16 15  2  0  0  0  0
 16 17  1  0  0  0  0
 17 12  1  0  0  0  0
 18 16  1  0  0  0  0
 19 42  1  0  0  0  0
 20 26  1  0  0  0  0
 20 19  1  0  0  0  0
 21 20  2  0  0  0  0
 22 23  2  0  0  0  0
 22 21  1  0  0  0  0
 23 25  1  0  0  0  0
 24 23  1  0  0  0  0
 25 45  1  0  0  0  0
 25 26  2  0  0  0  0
 26 46  1  0  0  0  0
 27  3  1  0  0  0  0
 32  4  1  0  0  0  0
 34  7  1  0  0  0  0
 35  8  1  0  0  0  0
 36 11  1  0  0  0  0
 39 15  1  0  0  0  0
 40 18  1  0  0  0  0
 41 19  1  0  0  0  0
 43 21  1  0  0  0  0
 44 22  1  0  0  0  0
M  END
$$$$
