CSD_code = VEJVEN | q = 0 | S = 0 | Stoichiometry = C15H16Cl2N2Pd | MND = 4
 OpenBabel04212202113D

 36 38  0  0  0  0  0  0  0  0999 V2000
    3.0783    5.8157    1.8202 Pd  0  0  0  0  0  0  0  0  0  0  0  0
    1.5038    7.4173    2.0263 Cl  0  0  0  0  0  0  0  0  0  0  0  0
    4.7552    7.0052    2.6781 Cl  0  0  0  0  0  0  0  0  0  0  0  0
    5.0125    4.0068    2.8415 N   0  0  0  0  0  0  0  0  0  0  0  0
    5.5300    4.8730    3.0438 H   0  0  0  0  0  0  0  0  0  0  0  0
    1.5898    4.5758    0.9370 N   0  0  0  0  0  4  0  0  0  0  0  0
    0.6554    4.6973    1.3352 H   0  0  0  0  0  0  0  0  0  0  0  0
    1.5647    4.9576   -0.0141 H   0  0  0  0  0  0  0  0  0  0  0  0
    4.0686    4.1435    1.9330 C   0  0  0  0  0  0  0  0  0  0  0  0
    3.3520    2.9822    1.4191 C   0  0  0  0  0  0  0  0  0  0  0  0
    3.8686    1.6840    1.3448 C   0  0  0  0  0  0  0  0  0  0  0  0
    4.8855    1.4928    1.6492 H   0  0  0  0  0  0  0  0  0  0  0  0
    3.0834    0.6499    0.8759 C   0  0  0  0  0  0  0  0  0  0  0  0
    3.4898   -0.3486    0.8251 H   0  0  0  0  0  0  0  0  0  0  0  0
    1.7724    0.8800    0.4845 C   0  0  0  0  0  0  0  0  0  0  0  0
    1.1587    0.0624    0.1395 H   0  0  0  0  0  0  0  0  0  0  0  0
    1.2543    2.1651    0.5133 C   0  0  0  0  0  0  0  0  0  0  0  0
    0.2419    2.3523    0.1841 H   0  0  0  0  0  0  0  0  0  0  0  0
    2.0464    3.2147    0.9460 C   0  0  0  0  0  0  0  0  0  0  0  0
    5.2010    2.9309    3.7395 C   0  0  0  0  0  0  0  0  0  0  0  0
    6.4768    2.3719    3.8598 C   0  0  0  0  0  0  0  0  0  0  0  0
    6.6648    1.3312    4.7549 C   0  0  0  0  0  0  0  0  0  0  0  0
    7.6422    0.8825    4.8511 H   0  0  0  0  0  0  0  0  0  0  0  0
    5.6113    0.8693    5.5252 C   0  0  0  0  0  0  0  0  0  0  0  0
    5.7668    0.0555    6.2169 H   0  0  0  0  0  0  0  0  0  0  0  0
    4.3663    1.4610    5.4261 C   0  0  0  0  0  0  0  0  0  0  0  0
    3.5564    1.1168    6.0518 H   0  0  0  0  0  0  0  0  0  0  0  0
    4.1368    2.5076    4.5410 C   0  0  0  0  0  0  0  0  0  0  0  0
    7.5979    2.9057    3.0229 C   0  0  0  0  0  0  0  0  0  0  0  0
    8.4842    2.2861    3.1270 H   0  0  0  0  0  0  0  0  0  0  0  0
    7.8484    3.9201    3.3339 H   0  0  0  0  0  0  0  0  0  0  0  0
    7.3164    2.9453    1.9713 H   0  0  0  0  0  0  0  0  0  0  0  0
    2.7879    3.1630    4.4954 C   0  0  0  0  0  0  0  0  0  0  0  0
    2.8419    4.2092    4.1561 H   0  0  0  0  0  0  0  0  0  0  0  0
    2.3423    3.1520    5.4875 H   0  0  0  0  0  0  0  0  0  0  0  0
    2.1220    2.6184    3.8238 H   0  0  0  0  0  0  0  0  0  0  0  0
  1  9  2  0  0  0  0
  1  2  1  0  0  0  0
  1  3  1  0  0  0  0
  4  5  1  0  0  0  0
  4 20  1  0  0  0  0
  6 19  1  0  0  0  0
  6  7  1  0  0  0  0
  6  1  1  0  0  0  0
  8  6  1  0  0  0  0
  9  4  1  0  0  0  0
 10  9  1  0  0  0  0
 11 10  1  0  0  0  0
 11 12  1  0  0  0  0
 13 11  2  0  0  0  0
 14 13  1  0  0  0  0
 15 17  2  0  0  0  0
 15 13  1  0  0  0  0
 16 15  1  0  0  0  0
 17 19  1  0  0  0  0
 18 17  1  0  0  0  0
 19 10  2  0  0  0  0
 20 21  2  0  0  0  0
 20 28  1  0  0  0  0
 21 22  1  0  0  0  0
 22 23  1  0  0  0  0
 22 24  2  0  0  0  0
 24 25  1  0  0  0  0
 26 24  1  0  0  0  0
 26 27  1  0  0  0  0
 28 26  2  0  0  0  0
 29 30  1  0  0  0  0
 29 31  1  0  0  0  0
 29 21  1  0  0  0  0
 32 29  1  0  0  0  0
 33 28  1  0  0  0  0
 33 35  1  0  0  0  0
 34 33  1  0  0  0  0
 36 33  1  0  0  0  0
M  END
$$$$
