CSD_code = VEJYAK | q = 0 | S = 0 | Stoichiometry = C26H30Cl2N2NiO2S2 | MND = 6
 OpenBabel04212202113D

 65 66  0  0  0  0  0  0  0  0999 V2000
    0.0001   -0.0000   -0.0001 Ni  0  0  0  0  0  0  0  0  0  0  0  0
    0.7112   -1.9300   -0.8484 Cl  0  0  0  0  0  0  0  0  0  0  0  0
    1.2138    2.9247   -0.9676 S   0  0  0  0  0  0  0  0  0  0  0  0
    1.4784    1.4851   -1.1874 O   0  0  0  0  0  0  0  0  0  0  0  0
    2.3983    3.7206   -2.1556 C   0  0  0  0  0  0  0  0  0  0  0  0
    2.1941    3.3902    0.5166 C   0  0  0  0  0  0  0  0  0  0  0  0
   -1.2419    0.1380   -1.3405 N   0  0  0  0  0  0  0  0  0  0  0  0
   -0.8639    0.1895   -2.6172 C   0  0  0  0  0  3  0  0  0  0  0  0
   -1.7678    0.2873   -3.6559 C   0  0  0  0  0  0  0  0  0  0  0  0
   -3.1349    0.3235   -3.3844 C   0  0  0  0  0  0  0  0  0  0  0  0
   -3.5118    0.2641   -2.0435 C   0  0  0  0  0  0  0  0  0  0  0  0
   -2.5443    0.1807   -1.0623 C   0  0  0  0  0  0  0  0  0  0  0  0
   -4.1294    0.4213   -4.4591 C   0  0  0  0  0  0  0  0  0  0  0  0
   -3.9047    1.2489   -5.5572 C   0  0  0  0  0  0  0  0  0  0  0  0
   -4.8442    1.3446   -6.5664 C   0  0  0  0  0  0  0  0  0  0  0  0
   -6.0160    0.6092   -6.4994 C   0  0  0  0  0  0  0  0  0  0  0  0
   -6.2464   -0.2199   -5.4142 C   0  0  0  0  0  0  0  0  0  0  0  0
   -5.3134   -0.3105   -4.3984 C   0  0  0  0  0  0  0  0  0  0  0  0
    2.0487    3.5021   -3.1587 H   0  0  0  0  0  0  0  0  0  0  0  0
    3.3910    3.3088   -2.0196 H   0  0  0  0  0  0  0  0  0  0  0  0
    2.3956    4.7913   -1.9904 H   0  0  0  0  0  0  0  0  0  0  0  0
    1.6503    3.0292    1.3828 H   0  0  0  0  0  0  0  0  0  0  0  0
    2.2726    4.4702    0.5543 H   0  0  0  0  0  0  0  0  0  0  0  0
    3.1726    2.9259    0.4593 H   0  0  0  0  0  0  0  0  0  0  0  0
    0.2004    0.1476   -2.8083 H   0  0  0  0  0  0  0  0  0  0  0  0
   -1.4093    0.3097   -4.6731 H   0  0  0  0  0  0  0  0  0  0  0  0
   -4.5528    0.3099   -1.7632 H   0  0  0  0  0  0  0  0  0  0  0  0
   -2.8164    0.1454   -0.0152 H   0  0  0  0  0  0  0  0  0  0  0  0
   -3.0001    1.8372   -5.6050 H   0  0  0  0  0  0  0  0  0  0  0  0
   -4.6625    1.9959   -7.4086 H   0  0  0  0  0  0  0  0  0  0  0  0
   -6.7474    0.6820   -7.2904 H   0  0  0  0  0  0  0  0  0  0  0  0
   -7.1570   -0.7983   -5.3598 H   0  0  0  0  0  0  0  0  0  0  0  0
   -5.4904   -0.9709   -3.5621 H   0  0  0  0  0  0  0  0  0  0  0  0
   -0.7109    1.9300    0.8485 Cl  0  0  0  0  0  0  0  0  0  0  0  0
   -1.4781   -1.4851    1.1872 O   0  0  0  0  0  0  0  0  0  0  0  0
    1.2419   -0.1380    1.3404 N   0  0  0  0  0  0  0  0  0  0  0  0
   -1.2135   -2.9247    0.9674 S   0  0  0  0  0  0  0  0  0  0  0  0
    0.8639   -0.1895    2.6171 C   0  0  0  0  0  3  0  0  0  0  0  0
    2.5444   -0.1807    1.0623 C   0  0  0  0  0  0  0  0  0  0  0  0
   -2.3981   -3.7207    2.1552 C   0  0  0  0  0  0  0  0  0  0  0  0
   -2.1940   -3.3902   -0.5167 C   0  0  0  0  0  0  0  0  0  0  0  0
    1.7677   -0.2873    3.6558 C   0  0  0  0  0  0  0  0  0  0  0  0
   -0.2004   -0.1476    2.8081 H   0  0  0  0  0  0  0  0  0  0  0  0
    3.5118   -0.2641    2.0435 C   0  0  0  0  0  0  0  0  0  0  0  0
    2.8165   -0.1455    0.0152 H   0  0  0  0  0  0  0  0  0  0  0  0
   -2.0485   -3.5023    3.1583 H   0  0  0  0  0  0  0  0  0  0  0  0
   -3.3909   -3.3089    2.0193 H   0  0  0  0  0  0  0  0  0  0  0  0
   -2.3955   -4.7914    1.9901 H   0  0  0  0  0  0  0  0  0  0  0  0
   -1.6502   -3.0291   -1.3828 H   0  0  0  0  0  0  0  0  0  0  0  0
   -2.2725   -4.4702   -0.5544 H   0  0  0  0  0  0  0  0  0  0  0  0
   -3.1725   -2.9259   -0.4593 H   0  0  0  0  0  0  0  0  0  0  0  0
    3.1348   -0.3236    3.3845 C   0  0  0  0  0  0  0  0  0  0  0  0
    1.4092   -0.3097    4.6730 H   0  0  0  0  0  0  0  0  0  0  0  0
    4.5528   -0.3100    1.7634 H   0  0  0  0  0  0  0  0  0  0  0  0
    4.1293   -0.4213    4.4592 C   0  0  0  0  0  0  0  0  0  0  0  0
    3.9046   -1.2489    5.5573 C   0  0  0  0  0  0  0  0  0  0  0  0
    5.3132    0.3106    4.3986 C   0  0  0  0  0  0  0  0  0  0  0  0
    4.8441   -1.3446    6.5665 C   0  0  0  0  0  0  0  0  0  0  0  0
    3.0001   -1.8373    5.6050 H   0  0  0  0  0  0  0  0  0  0  0  0
    6.2461    0.2201    5.4145 C   0  0  0  0  0  0  0  0  0  0  0  0
    5.4902    0.9710    3.5623 H   0  0  0  0  0  0  0  0  0  0  0  0
    6.0157   -0.6090    6.4997 C   0  0  0  0  0  0  0  0  0  0  0  0
    4.6623   -1.9959    7.4087 H   0  0  0  0  0  0  0  0  0  0  0  0
    7.1567    0.7985    5.3601 H   0  0  0  0  0  0  0  0  0  0  0  0
    6.7471   -0.6818    7.2907 H   0  0  0  0  0  0  0  0  0  0  0  0
  1 34  1  0  0  0  0
  1 36  1  0  0  0  0
  2  1  1  0  0  0  0
  3  6  1  0  0  0  0
  4  3  2  0  0  0  0
  5 20  1  0  0  0  0
  5 21  1  0  0  0  0
  5  3  1  0  0  0  0
  6 23  1  0  0  0  0
  6 22  1  0  0  0  0
  7 12  1  0  0  0  0
  7  1  1  0  0  0  0
  8  7  1  0  0  0  0
  9 10  2  0  0  0  0
  9  8  1  0  0  0  0
 10 11  1  0  0  0  0
 11 27  1  0  0  0  0
 11 12  2  0  0  0  0
 12 28  1  0  0  0  0
 13 18  1  0  0  0  0
 13 10  1  0  0  0  0
 14 13  2  0  0  0  0
 15 16  2  0  0  0  0
 15 14  1  0  0  0  0
 16 17  1  0  0  0  0
 17 32  1  0  0  0  0
 17 18  2  0  0  0  0
 18 33  1  0  0  0  0
 19  5  1  0  0  0  0
 24  6  1  0  0  0  0
 25  8  1  0  0  0  0
 26  9  1  0  0  0  0
 29 14  1  0  0  0  0
 30 15  1  0  0  0  0
 31 16  1  0  0  0  0
 36 38  1  0  0  0  0
 37 35  2  0  0  0  0
 37 40  1  0  0  0  0
 38 43  1  0  0  0  0
 38 42  1  0  0  0  0
 39 36  1  0  0  0  0
 39 44  2  0  0  0  0
 40 46  1  0  0  0  0
 41 51  1  0  0  0  0
 41 37  1  0  0  0  0
 42 53  1  0  0  0  0
 44 52  1  0  0  0  0
 45 39  1  0  0  0  0
 47 40  1  0  0  0  0
 48 40  1  0  0  0  0
 49 41  1  0  0  0  0
 50 41  1  0  0  0  0
 52 42  2  0  0  0  0
 52 55  1  0  0  0  0
 54 44  1  0  0  0  0
 55 56  1  0  0  0  0
 56 59  1  0  0  0  0
 56 58  2  0  0  0  0
 57 55  2  0  0  0  0
 57 60  1  0  0  0  0
 58 63  1  0  0  0  0
 60 62  2  0  0  0  0
 61 57  1  0  0  0  0
 62 58  1  0  0  0  0
 62 65  1  0  0  0  0
 64 60  1  0  0  0  0
M  END
$$$$
