CSD_code = VEKFAU | q = 0 | S = 0 | Stoichiometry = C26H34Cl2N2O4Pt | MND = 4
 OpenBabel04212202113D

 69 70  0  0  1  0  0  0  0  0999 V2000
   10.7020   13.3338   14.5043 Pt  0  0  0  0  0  0  0  0  0  0  0  0
   10.7020   12.2589   12.4437 Cl  0  0  0  0  0  0  0  0  0  0  0  0
   12.7082   13.3338   14.5045 N   0  0  0  0  0  0  0  0  0  0  0  0
   13.4064   10.1991   16.1612 O   0  0  0  0  0  0  0  0  0  0  0  0
   12.5769   11.1921   15.6192 C   0  0  0  0  0  0  0  0  0  0  0  0
   11.9195   11.6147   16.4010 H   0  0  0  0  0  0  0  0  0  0  0  0
   11.9408   10.7709   14.8194 H   0  0  0  0  0  0  0  0  0  0  0  0
   12.6776    9.1393   16.7437 C   0  0  0  0  0  0  0  0  0  0  0  0
   12.0270    8.6625   15.9948 H   0  0  0  0  0  0  0  0  0  0  0  0
   12.0339    9.5341   17.5507 H   0  0  0  0  0  0  0  0  0  0  0  0
   13.6389    8.1477   17.3196 C   0  0  0  0  0  0  0  0  0  0  0  0
   14.4819    8.5926   17.8277 H   0  0  0  0  0  0  0  0  0  0  0  0
   13.4971    6.8393   17.2360 C   0  0  0  0  0  0  0  0  0  0  0  0
   12.6620    6.3893   16.7246 H   0  0  0  0  0  0  0  0  0  0  0  0
   14.2041    6.1628   17.6832 H   0  0  0  0  0  0  0  0  0  0  0  0
   13.3877   12.3106   15.0349 C   0  0  2  0  0  3  0  0  0  0  0  0
   14.7731   12.2764   15.0501 C   0  0  0  0  0  0  0  0  0  0  0  0
   15.2610   11.4226   15.4889 H   0  0  0  0  0  0  0  0  0  0  0  0
   15.4792   13.3338   14.5045 C   0  0  0  0  0  0  0  0  0  0  0  0
   16.5581   13.3338   14.5045 H   0  0  0  0  0  0  0  0  0  0  0  0
   10.7020   14.4084   16.5652 Cl  0  0  0  0  0  0  0  0  0  0  0  0
    8.6958   13.3338   14.5045 N   0  0  0  0  0  0  0  0  0  0  0  0
   13.4063   16.4685   12.8478 O   0  0  0  0  0  0  0  0  0  0  0  0
    7.9977   16.4684   12.8476 O   0  0  0  0  0  0  0  0  0  0  0  0
    7.9976   10.1992   16.1614 O   0  0  0  0  0  0  0  0  0  0  0  0
   12.5769   15.4755   13.3899 C   0  0  0  0  0  0  0  0  0  0  0  0
    8.8271   15.4754   13.3898 C   0  0  0  0  0  0  0  0  0  0  0  0
    8.8271   11.1921   15.6193 C   0  0  0  0  0  0  0  0  0  0  0  0
   11.9194   15.0528   12.6081 H   0  0  0  0  0  0  0  0  0  0  0  0
    9.4846   15.0527   12.6080 H   0  0  0  0  0  0  0  0  0  0  0  0
    9.4845   11.6148   16.4011 H   0  0  0  0  0  0  0  0  0  0  0  0
   11.9407   15.8966   14.1897 H   0  0  0  0  0  0  0  0  0  0  0  0
    9.4633   15.8966   14.1895 H   0  0  0  0  0  0  0  0  0  0  0  0
    9.4632   10.7709   14.8195 H   0  0  0  0  0  0  0  0  0  0  0  0
   12.6774   17.5282   12.2652 C   0  0  0  0  0  0  0  0  0  0  0  0
    8.7266   17.5281   12.2650 C   0  0  0  0  0  0  0  0  0  0  0  0
    8.7264    9.1395   16.7440 C   0  0  0  0  0  0  0  0  0  0  0  0
   12.0266   18.0048   13.0141 H   0  0  0  0  0  0  0  0  0  0  0  0
    9.3774   18.0047   13.0138 H   0  0  0  0  0  0  0  0  0  0  0  0
    9.3770    8.6626   15.9951 H   0  0  0  0  0  0  0  0  0  0  0  0
   12.0339   17.1333   11.4581 H   0  0  0  0  0  0  0  0  0  0  0  0
    9.3701   17.1332   11.4579 H   0  0  0  0  0  0  0  0  0  0  0  0
    9.3701    9.5343   17.5510 H   0  0  0  0  0  0  0  0  0  0  0  0
   13.6386   18.5200   11.6895 C   0  0  0  0  0  0  0  0  0  0  0  0
    7.7653   18.5198   11.6893 C   0  0  0  0  0  0  0  0  0  0  0  0
    7.7650    8.1479   17.3199 C   0  0  0  0  0  0  0  0  0  0  0  0
   14.4819   18.0753   11.1817 H   0  0  0  0  0  0  0  0  0  0  0  0
    6.9221   18.0751   11.1814 H   0  0  0  0  0  0  0  0  0  0  0  0
    6.9221    8.5928   17.8280 H   0  0  0  0  0  0  0  0  0  0  0  0
   13.4964   19.8284   11.7729 C   0  0  0  0  0  0  0  0  0  0  0  0
    7.9075   19.8283   11.7727 C   0  0  0  0  0  0  0  0  0  0  0  0
    7.9069    6.8394   17.2362 C   0  0  0  0  0  0  0  0  0  0  0  0
   12.6612   20.2783   12.2842 H   0  0  0  0  0  0  0  0  0  0  0  0
    8.7430   20.2781   12.2836 H   0  0  0  0  0  0  0  0  0  0  0  0
    8.7421    6.3894   16.7251 H   0  0  0  0  0  0  0  0  0  0  0  0
   14.2034   20.5050   11.3259 H   0  0  0  0  0  0  0  0  0  0  0  0
    7.2007   20.5049   11.3254 H   0  0  0  0  0  0  0  0  0  0  0  0
    7.1999    6.1630   17.6836 H   0  0  0  0  0  0  0  0  0  0  0  0
   13.3877   14.3570   13.9741 C   0  0  0  0  0  0  0  0  0  0  0  0
    8.0163   14.3570   13.9741 C   0  0  1  0  0  3  0  0  0  0  0  0
    8.0163   12.3106   15.0350 C   0  0  0  0  0  0  0  0  0  0  0  0
   14.7731   14.3912   13.9589 C   0  0  0  0  0  0  0  0  0  0  0  0
    6.6309   14.3912   13.9589 C   0  0  0  0  0  0  0  0  0  0  0  0
    6.6309   12.2764   15.0501 C   0  0  0  0  0  0  0  0  0  0  0  0
   15.2610   15.2450   13.5201 H   0  0  0  0  0  0  0  0  0  0  0  0
    6.1430   15.2449   13.5200 H   0  0  0  0  0  0  0  0  0  0  0  0
    6.1430   11.4227   15.4890 H   0  0  0  0  0  0  0  0  0  0  0  0
    5.9248   13.3338   14.5045 C   0  0  0  0  0  0  0  0  0  0  0  0
    4.8459   13.3338   14.5045 H   0  0  0  0  0  0  0  0  0  0  0  0
  1 22  1  0  0  0  0
  1  3  1  0  0  0  0
  1 21  1  0  0  0  0
  2  1  1  0  0  0  0
  3 16  1  0  0  0  0
  4  8  1  0  0  0  0
  5  4  1  0  0  0  0
  5  6  1  0  0  0  0
  7  5  1  0  0  0  0
  8 11  1  0  0  0  0
  8 10  1  0  0  0  0
  9  8  1  0  0  0  0
 11 12  1  0  0  0  0
 13 11  2  0  0  0  0
 13 15  1  0  0  0  0
 14 13  1  0  0  0  0
 16 17  1  0  0  0  0
 16  5  1  1  0  0  0
 17 18  1  0  0  0  0
 19 20  1  0  0  0  0
 19 17  2  0  0  0  0
 22 61  1  0  0  0  0
 23 26  1  0  0  0  0
 24 27  1  0  0  0  0
 25 37  1  0  0  0  0
 26 59  1  0  0  0  0
 26 32  1  0  0  0  0
 27 33  1  0  0  0  0
 28 25  1  0  0  0  0
 28 31  1  0  0  0  0
 29 26  1  0  0  0  0
 30 27  1  0  0  0  0
 34 28  1  0  0  0  0
 35 23  1  0  0  0  0
 35 38  1  0  0  0  0
 36 24  1  0  0  0  0
 36 39  1  0  0  0  0
 37 46  1  0  0  0  0
 37 43  1  0  0  0  0
 40 37  1  0  0  0  0
 41 35  1  0  0  0  0
 42 36  1  0  0  0  0
 44 50  2  0  0  0  0
 44 35  1  0  0  0  0
 45 51  2  0  0  0  0
 45 36  1  0  0  0  0
 46 49  1  0  0  0  0
 47 44  1  0  0  0  0
 48 45  1  0  0  0  0
 50 53  1  0  0  0  0
 51 54  1  0  0  0  0
 52 46  2  0  0  0  0
 52 58  1  0  0  0  0
 55 52  1  0  0  0  0
 56 50  1  0  0  0  0
 57 51  1  0  0  0  0
 59  3  1  0  0  0  0
 60 27  1  6  0  0  0
 60 22  1  0  0  0  0
 61 64  2  0  0  0  0
 61 28  1  0  0  0  0
 62 59  2  0  0  0  0
 62 19  1  0  0  0  0
 63 60  1  0  0  0  0
 63 68  2  0  0  0  0
 64 67  1  0  0  0  0
 65 62  1  0  0  0  0
 66 63  1  0  0  0  0
 68 69  1  0  0  0  0
 68 64  1  0  0  0  0
M  END
$$$$
