CSD_code = VEMQAH | q = 0 | S = 0 | Stoichiometry = C16H16Cl2N2O4Pt | MND = 4
 OpenBabel04212202113D

 41 43  0  0  0  0  0  0  0  0999 V2000
    4.8620    8.3875    1.1074 Pt  0  0  0  0  0  0  0  0  0  0  0  0
    3.4191    9.3976   -0.2616 Cl  0  0  0  0  0  0  0  0  0  0  0  0
    6.2881   10.0607    0.7288 Cl  0  0  0  0  0  0  0  0  0  0  0  0
    3.6695    6.8469    1.5155 N   0  0  0  0  0  0  0  0  0  0  0  0
    2.4406    6.6494    1.0318 C   0  0  0  0  0  0  0  0  0  0  0  0
    1.6814    5.5496    1.3676 C   0  0  0  0  0  0  0  0  0  0  0  0
    2.2122    4.6015    2.2464 C   0  0  0  0  0  0  0  0  0  0  0  0
    3.4899    4.8054    2.7491 C   0  0  0  0  0  0  0  0  0  0  0  0
    4.2018    5.9390    2.3696 C   0  0  0  0  0  0  0  0  0  0  0  0
    5.5480    6.2523    2.8379 C   0  0  0  0  0  0  0  0  0  0  0  0
    6.2696    5.4558    3.7213 C   0  0  0  0  0  0  0  0  0  0  0  0
    7.5461    5.8443    4.1038 C   0  0  0  0  0  0  0  0  0  0  0  0
    8.0670    7.0321    3.5837 C   0  0  0  0  0  0  0  0  0  0  0  0
    7.2980    7.7751    2.7145 C   0  0  0  0  0  0  0  0  0  0  0  0
    6.0697    7.4026    2.3463 N   0  0  0  0  0  0  0  0  0  0  0  0
    1.3925    3.4113    2.6108 C   0  0  0  0  0  0  0  0  0  0  0  0
    0.2851    3.2128    2.1809 O   0  0  0  0  0  0  0  0  0  0  0  0
    2.0264    2.6119    3.4721 O   0  0  0  0  0  0  0  0  0  0  0  0
    1.3342    1.4292    3.8838 C   0  0  0  0  0  0  0  0  0  0  0  0
    1.4864    0.3111    2.8634 C   0  0  0  0  0  0  0  0  0  0  0  0
    8.3731    5.0389    5.0458 C   0  0  0  0  0  0  0  0  0  0  0  0
    9.4899    5.3428    5.3807 O   0  0  0  0  0  0  0  0  0  0  0  0
    7.7330    3.9499    5.4726 O   0  0  0  0  0  0  0  0  0  0  0  0
    8.4464    3.1135    6.3890 C   0  0  0  0  0  0  0  0  0  0  0  0
    7.5062    2.0274    6.8746 C   0  0  0  0  0  0  0  0  0  0  0  0
    2.0755    7.4124    0.3553 H   0  0  0  0  0  0  0  0  0  0  0  0
    0.6907    5.4091    0.9664 H   0  0  0  0  0  0  0  0  0  0  0  0
    3.9144    4.0844    3.4268 H   0  0  0  0  0  0  0  0  0  0  0  0
    5.8533    4.5434    4.1131 H   0  0  0  0  0  0  0  0  0  0  0  0
    9.0570    7.3496    3.8685 H   0  0  0  0  0  0  0  0  0  0  0  0
    7.6543    8.7033    2.2850 H   0  0  0  0  0  0  0  0  0  0  0  0
    1.7869    1.1579    4.8394 H   0  0  0  0  0  0  0  0  0  0  0  0
    0.2761    1.6710    4.0255 H   0  0  0  0  0  0  0  0  0  0  0  0
    1.0052   -0.5876    3.2376 H   0  0  0  0  0  0  0  0  0  0  0  0
    1.0165    0.5961    1.9255 H   0  0  0  0  0  0  0  0  0  0  0  0
    2.5384    0.1024    2.6841 H   0  0  0  0  0  0  0  0  0  0  0  0
    9.3151    2.6903    5.8729 H   0  0  0  0  0  0  0  0  0  0  0  0
    8.8110    3.7307    7.2172 H   0  0  0  0  0  0  0  0  0  0  0  0
    8.0278    1.3827    7.5754 H   0  0  0  0  0  0  0  0  0  0  0  0
    6.6468    2.4692    7.3720 H   0  0  0  0  0  0  0  0  0  0  0  0
    7.1566    1.4302    6.0366 H   0  0  0  0  0  0  0  0  0  0  0  0
  1  4  1  0  0  0  0
  1 15  1  0  0  0  0
  2  1  1  0  0  0  0
  3  1  1  0  0  0  0
  4  9  1  0  0  0  0
  5  6  2  0  0  0  0
  5  4  1  0  0  0  0
  6  7  1  0  0  0  0
  7 16  1  0  0  0  0
  7  8  2  0  0  0  0
  8 28  1  0  0  0  0
  9  8  1  0  0  0  0
  9 10  2  0  0  0  0
 10 11  1  0  0  0  0
 11 12  2  0  0  0  0
 11 29  1  0  0  0  0
 12 21  1  0  0  0  0
 13 30  1  0  0  0  0
 13 12  1  0  0  0  0
 14 13  2  0  0  0  0
 15 14  1  0  0  0  0
 15 10  1  0  0  0  0
 16 18  1  0  0  0  0
 17 16  2  0  0  0  0
 18 19  1  0  0  0  0
 19 33  1  0  0  0  0
 19 32  1  0  0  0  0
 20 34  1  0  0  0  0
 20 19  1  0  0  0  0
 21 22  2  0  0  0  0
 21 23  1  0  0  0  0
 23 24  1  0  0  0  0
 24 25  1  0  0  0  0
 24 38  1  0  0  0  0
 25 40  1  0  0  0  0
 25 39  1  0  0  0  0
 26  5  1  0  0  0  0
 27  6  1  0  0  0  0
 31 14  1  0  0  0  0
 35 20  1  0  0  0  0
 36 20  1  0  0  0  0
 37 24  1  0  0  0  0
 41 25  1  0  0  0  0
M  END
$$$$
