CSD_code = VEMWIU | q = 0 | S = 0 | Stoichiometry = C30H33IP2Pt | MND = 4
 OpenBabel04212202113D

 67 71  0  0  1  0  0  0  0  0999 V2000
    3.5507    8.8700   14.5655 C   0  0  0  0  0  0  0  0  0  0  0  0
    3.6777    9.5195   15.4364 H   0  0  0  0  0  0  0  0  0  0  0  0
    4.0106    7.9048   14.8084 H   0  0  0  0  0  0  0  0  0  0  0  0
    2.4773    8.7027   14.4300 H   0  0  0  0  0  0  0  0  0  0  0  0
    3.3554    8.6791    9.9163 C   0  0  2  0  0  0  0  0  0  0  0  0
    4.2125    8.0479   10.1976 H   0  0  0  0  0  0  0  0  0  0  0  0
    3.8713    9.7664    8.9617 C   0  0  0  0  0  0  0  0  0  0  0  0
    3.0234   10.1526    8.3864 H   0  0  0  0  0  0  0  0  0  0  0  0
    4.5377    9.2677    8.2500 H   0  0  0  0  0  0  0  0  0  0  0  0
    4.6125   10.9784    9.5426 C   0  0  2  0  0  0  0  0  0  0  0  0
    3.8589   11.6802    9.9272 H   0  0  0  0  0  0  0  0  0  0  0  0
    2.3525    7.7957    9.1738 C   0  0  0  0  0  0  0  0  0  0  0  0
    1.4380    8.3375    8.9422 H   0  0  0  0  0  0  0  0  0  0  0  0
    2.0872    6.9180    9.7581 H   0  0  0  0  0  0  0  0  0  0  0  0
    2.7915    7.4587    8.2354 H   0  0  0  0  0  0  0  0  0  0  0  0
    5.3753   11.6759    8.4189 C   0  0  0  0  0  0  0  0  0  0  0  0
    6.0809   10.9940    7.9489 H   0  0  0  0  0  0  0  0  0  0  0  0
    5.9179   12.5434    8.7892 H   0  0  0  0  0  0  0  0  0  0  0  0
    4.6750   12.0139    7.6551 H   0  0  0  0  0  0  0  0  0  0  0  0
    1.4662    8.1101   12.0218 C   0  0  0  0  0  0  0  0  0  0  0  0
    1.9017    6.8252   12.3428 C   0  0  0  0  0  0  0  0  0  0  0  0
    2.9613    6.6035   12.3007 H   0  0  0  0  0  0  0  0  0  0  0  0
    0.9958    5.8592   12.7319 C   0  0  0  0  0  0  0  0  0  0  0  0
    1.3372    4.8652   12.9800 H   0  0  0  0  0  0  0  0  0  0  0  0
   -0.3528    6.1727   12.8154 C   0  0  0  0  0  0  0  0  0  0  0  0
   -1.0632    5.4204   13.1238 H   0  0  0  0  0  0  0  0  0  0  0  0
   -0.7867    7.4530   12.5184 C   0  0  0  0  0  0  0  0  0  0  0  0
   -1.8351    7.7004   12.5986 H   0  0  0  0  0  0  0  0  0  0  0  0
    0.1184    8.4251   12.1260 C   0  0  0  0  0  0  0  0  0  0  0  0
   -0.2252    9.4273   11.9125 H   0  0  0  0  0  0  0  0  0  0  0  0
    1.8788   10.8698   11.2907 C   0  0  0  0  0  0  0  0  0  0  0  0
    2.2218   11.9100   12.1520 C   0  0  0  0  0  0  0  0  0  0  0  0
    2.9548   11.7214   12.9390 H   0  0  0  0  0  0  0  0  0  0  0  0
    1.6506   13.1598   12.0047 C   0  0  0  0  0  0  0  0  0  0  0  0
    1.9239   13.9622   12.6739 H   0  0  0  0  0  0  0  0  0  0  0  0
    0.7313   13.3787   10.9908 C   0  0  0  0  0  0  0  0  0  0  0  0
    0.2866   14.3549   10.8663 H   0  0  0  0  0  0  0  0  0  0  0  0
    0.3800   12.3466   10.1349 C   0  0  0  0  0  0  0  0  0  0  0  0
   -0.3394   12.5203    9.3477 H   0  0  0  0  0  0  0  0  0  0  0  0
    0.9473   11.0930   10.2819 C   0  0  0  0  0  0  0  0  0  0  0  0
    0.6651   10.2924    9.6133 H   0  0  0  0  0  0  0  0  0  0  0  0
    6.9255    9.4689   10.4660 C   0  0  0  0  0  0  0  0  0  0  0  0
    7.9225    9.8102    9.5569 C   0  0  0  0  0  0  0  0  0  0  0  0
    7.9985   10.8227    9.1877 H   0  0  0  0  0  0  0  0  0  0  0  0
    8.8372    8.8558    9.1503 C   0  0  0  0  0  0  0  0  0  0  0  0
    9.6119    9.1233    8.4461 H   0  0  0  0  0  0  0  0  0  0  0  0
    8.7712    7.5641    9.6485 C   0  0  0  0  0  0  0  0  0  0  0  0
    9.4923    6.8267    9.3283 H   0  0  0  0  0  0  0  0  0  0  0  0
    7.7950    7.2241   10.5704 C   0  0  0  0  0  0  0  0  0  0  0  0
    7.7570    6.2244   10.9770 H   0  0  0  0  0  0  0  0  0  0  0  0
    6.8779    8.1747   10.9774 C   0  0  0  0  0  0  0  0  0  0  0  0
    6.1254    7.9286   11.7284 H   0  0  0  0  0  0  0  0  0  0  0  0
    6.4862   12.1899   11.3132 C   0  0  0  0  0  0  0  0  0  0  0  0
    5.7365   13.3647   11.3421 C   0  0  0  0  0  0  0  0  0  0  0  0
    4.6754   13.3380   11.1303 H   0  0  0  0  0  0  0  0  0  0  0  0
    6.3396   14.5682   11.6530 C   0  0  0  0  0  0  0  0  0  0  0  0
    5.7514   15.4746   11.6669 H   0  0  0  0  0  0  0  0  0  0  0  0
    7.6898   14.6103   11.9610 C   0  0  0  0  0  0  0  0  0  0  0  0
    8.1574   15.5511   12.2105 H   0  0  0  0  0  0  0  0  0  0  0  0
    8.4317   13.4414   11.9690 C   0  0  0  0  0  0  0  0  0  0  0  0
    9.4778   13.4651   12.2349 H   0  0  0  0  0  0  0  0  0  0  0  0
    7.8350   12.2345   11.6534 C   0  0  0  0  0  0  0  0  0  0  0  0
    8.4134   11.3228   11.6915 H   0  0  0  0  0  0  0  0  0  0  0  0
    2.7580    9.3074   11.5768 P   0  0  0  0  0  4  0  0  0  0  0  0
    5.6396   10.6042   11.0629 P   0  0  0  0  0  4  0  0  0  0  0  0
    6.6289   10.1469   14.3793 I   0  0  0  0  0  0  0  0  0  0  0  0
    4.5158    9.6858   12.9287 Pt  0  0  1  0  0  0  0  0  0  0  0  0
  1  3  1  0  0  0  0
  1  2  1  0  0  0  0
  4  1  1  0  0  0  0
  5  6  1  1  0  0  0
  5 64  1  0  0  0  0
  7 10  1  0  0  0  0
  7  5  1  0  0  0  0
  8  7  1  0  0  0  0
  9  7  1  0  0  0  0
 10 11  1  1  0  0  0
 10 65  1  0  0  0  0
 12 14  1  0  0  0  0
 12  5  1  0  0  0  0
 13 12  1  0  0  0  0
 15 12  1  0  0  0  0
 16 18  1  0  0  0  0
 16 10  1  0  0  0  0
 17 16  1  0  0  0  0
 19 16  1  0  0  0  0
 20 29  2  0  0  0  0
 20 21  1  0  0  0  0
 21 23  2  0  0  0  0
 22 21  1  0  0  0  0
 23 25  1  0  0  0  0
 23 24  1  0  0  0  0
 25 26  1  0  0  0  0
 27 28  1  0  0  0  0
 27 25  2  0  0  0  0
 29 27  1  0  0  0  0
 30 29  1  0  0  0  0
 31 64  1  0  0  0  0
 31 32  1  0  0  0  0
 32 33  1  0  0  0  0
 34 32  2  0  0  0  0
 34 35  1  0  0  0  0
 36 34  1  0  0  0  0
 37 36  1  0  0  0  0
 38 40  1  0  0  0  0
 38 36  2  0  0  0  0
 39 38  1  0  0  0  0
 40 31  2  0  0  0  0
 41 40  1  0  0  0  0
 42 51  1  0  0  0  0
 42 65  1  0  0  0  0
 43 42  2  0  0  0  0
 44 43  1  0  0  0  0
 45 43  1  0  0  0  0
 45 47  2  0  0  0  0
 46 45  1  0  0  0  0
 47 49  1  0  0  0  0
 48 47  1  0  0  0  0
 49 50  1  0  0  0  0
 49 51  2  0  0  0  0
 51 52  1  0  0  0  0
 53 54  2  0  0  0  0
 53 62  1  0  0  0  0
 54 56  1  0  0  0  0
 55 54  1  0  0  0  0
 56 57  1  0  0  0  0
 56 58  2  0  0  0  0
 58 60  1  0  0  0  0
 58 59  1  0  0  0  0
 60 61  1  0  0  0  0
 62 63  1  0  0  0  0
 62 60  2  0  0  0  0
 64 20  1  0  0  0  0
 64 67  1  0  0  0  0
 65 53  1  0  0  0  0
 65 67  1  0  0  0  0
 67 66  1  6  0  0  0
 67  1  1  0  0  0  0
M  END
$$$$
