CSD_code = VENHAA | q = 0 | S = 0 | Stoichiometry = C12H8Cl2N4Pt | MND = 4
 OpenBabel04212202113D

 27 28  0  0  0  0  0  0  0  0999 V2000
    3.1963   10.3607    7.8012 Pt  0  0  0  0  0  0  0  0  0  0  0  0
    4.5705    8.6895    7.2235 Cl  0  0  0  0  0  0  0  0  0  0  0  0
    1.9225   11.8421    8.2810 N   0  0  0  0  0  0  0  0  0  0  0  0
    0.4081   12.8508    9.8241 C   0  0  0  0  0  0  0  0  0  0  0  0
    0.0251   12.9180   10.8302 H   0  0  0  0  0  0  0  0  0  0  0  0
   -0.1199   13.6517    8.8063 C   0  0  0  0  0  0  0  0  0  0  0  0
    1.4218   12.6098    7.3054 C   0  0  0  0  0  3  0  0  0  0  0  0
    1.8450   12.4715    6.3192 H   0  0  0  0  0  0  0  0  0  0  0  0
    0.4096   13.5219    7.5202 C   0  0  0  0  0  0  0  0  0  0  0  0
    0.0286   14.1188    6.7069 H   0  0  0  0  0  0  0  0  0  0  0  0
   -1.9946   15.3209    9.3094 N   0  0  0  0  0  0  0  0  0  0  0  0
    1.4202   11.9685    9.5141 C   0  0  0  0  0  0  0  0  0  0  0  0
    1.8426   11.3285   10.2792 H   0  0  0  0  0  0  0  0  0  0  0  0
   -1.1598   14.5712    9.0787 C   0  0  0  0  0  0  0  0  0  0  0  0
    1.6663    9.6742    6.3189 Cl  0  0  0  0  0  0  0  0  0  0  0  0
    8.9826   11.8849   12.0302 N   0  0  0  0  0  0  0  0  0  0  0  0
    8.0514   11.6696   11.3988 C   0  0  0  0  0  0  0  0  0  0  0  0
    6.1821   10.2194   10.7738 C   0  0  0  0  0  0  0  0  0  0  0  0
    6.5074    9.4678   11.4752 H   0  0  0  0  0  0  0  0  0  0  0  0
    4.6215   10.9141    9.1097 N   0  0  0  0  0  0  0  0  0  0  0  0
    6.8938   11.4124   10.6274 C   0  0  0  0  0  0  0  0  0  0  0  0
    6.4307   12.3514    9.7007 C   0  0  0  0  0  0  0  0  0  0  0  0
    6.9547   13.2826    9.5539 H   0  0  0  0  0  0  0  0  0  0  0  0
    5.2976   12.0591    8.9727 C   0  0  0  0  0  3  0  0  0  0  0  0
    4.9176   12.7628    8.2422 H   0  0  0  0  0  0  0  0  0  0  0  0
    5.0611   10.0140    9.9967 C   0  0  0  0  0  0  0  0  0  0  0  0
    4.4944    9.0950   10.0716 H   0  0  0  0  0  0  0  0  0  0  0  0
  1  3  1  0  0  0  0
  1 20  1  0  0  0  0
  2  1  1  0  0  0  0
  3 12  1  0  0  0  0
  4  5  1  0  0  0  0
  6 14  1  0  0  0  0
  6  4  1  0  0  0  0
  7  9  1  0  0  0  0
  7  3  1  0  0  0  0
  8  7  1  0  0  0  0
  9  6  2  0  0  0  0
 10  9  1  0  0  0  0
 12  4  2  0  0  0  0
 12 13  1  0  0  0  0
 14 11  3  0  0  0  0
 15  1  1  0  0  0  0
 17 16  3  0  0  0  0
 18 19  1  0  0  0  0
 20 26  1  0  0  0  0
 21 18  1  0  0  0  0
 21 17  1  0  0  0  0
 22 21  2  0  0  0  0
 23 22  1  0  0  0  0
 24 20  1  0  0  0  0
 24 22  1  0  0  0  0
 25 24  1  0  0  0  0
 26 27  1  0  0  0  0
 26 18  2  0  0  0  0
M  END
$$$$
