CSD_code = VENWAN | q = 1 | S = 0 | Stoichiometry = C10H12ClOTi(1+) | MND = 12
 OpenBabel04212202113D

 25 26  0  0  1  0  0  0  0  0999 V2000
    3.7072    7.9949    3.0268 Ti  0  0  1  0  0  0  0  0  0  0  0  0
    1.7039    7.2553    3.5690 Cl  0  0  0  0  0  0  0  0  0  0  0  0
    2.5440    9.3268    1.6787 O   0  0  0  0  0  0  0  0  0  0  0  0
    4.3424    7.4436    0.8469 C   0  0  0  0  0  0  0  0  0  0  0  0
    4.1904    8.0093   -0.0650 H   0  0  0  0  0  0  0  0  0  0  0  0
    5.5106    7.4610    1.6352 C   0  0  0  0  0  0  0  0  0  0  0  0
    6.4017    8.0316    1.4160 H   0  0  0  0  0  0  0  0  0  0  0  0
    4.9289    8.2523    4.9680 C   0  0  2  0  0  0  0  0  0  0  0  0
    5.4705    7.5109    5.5459 H   0  0  0  0  0  0  0  0  0  0  0  0
    4.1358    5.8195    2.4503 C   0  0  1  0  0  0  0  0  0  0  0  0
    3.7931    4.9342    2.9748 H   0  0  0  0  0  0  0  0  0  0  0  0
    4.5107   10.0701    3.6412 C   0  0  1  0  0  0  0  0  0  0  0  0
    4.6716   10.9359    3.0087 H   0  0  0  0  0  0  0  0  0  0  0  0
    3.4935    6.4252    1.3444 C   0  0  0  0  0  0  0  0  0  0  0  0
    2.5724    6.0826    0.8906 H   0  0  0  0  0  0  0  0  0  0  0  0
    5.3871    6.4601    2.6291 C   0  0  0  0  0  0  0  0  0  0  0  0
    6.1781    6.1212    3.2874 H   0  0  0  0  0  0  0  0  0  0  0  0
    3.3455    9.8070    4.4169 C   0  0  0  0  0  0  0  0  0  0  0  0
    2.4605   10.4289    4.4796 H   0  0  0  0  0  0  0  0  0  0  0  0
    3.6157    8.7022    5.2481 C   0  0  0  0  0  0  0  0  0  0  0  0
    2.9687    8.3224    6.0287 H   0  0  0  0  0  0  0  0  0  0  0  0
    5.4942    9.1364    4.0124 C   0  0  0  0  0  3  0  0  0  0  0  0
    6.5332    9.1603    3.7174 H   0  0  0  0  0  0  0  0  0  0  0  0
    1.8071    8.8114    1.3007 H   0  0  0  0  0  0  0  0  0  0  0  0
    2.1534   10.1700    1.9701 H   0  0  0  0  0  0  0  0  0  0  0  0
  1  2  1  1  0  0  0
  1 12  1  0  0  0  0
  1  8  1  0  0  0  0
  3 25  1  0  0  0  0
  4 14  2  0  0  0  0
  4  6  1  0  0  0  0
  5  4  1  0  0  0  0
  6 16  2  0  0  0  0
  7  6  1  0  0  0  0
  8 20  1  0  0  0  0
  8  9  1  1  0  0  0
 10 16  1  0  0  0  0
 10 11  1  1  0  0  0
 10  1  1  0  0  0  0
 12 13  1  6  0  0  0
 12 22  1  0  0  0  0
 12 18  1  0  0  0  0
 14 10  1  0  0  0  0
 15 14  1  0  0  0  0
 16 17  1  0  0  0  0
 18 19  1  0  0  0  0
 18 20  2  0  0  0  0
 20 21  1  0  0  0  0
 22  8  1  0  0  0  0
 23 22  1  0  0  0  0
 24  3  1  0  0  0  0
M  END
$$$$
