CSD_code = VEPFIF | q = 0 | S = 0 | Stoichiometry = C15H19ClZr | MND = 12
 OpenBabel04212202113D

 36 38  0  0  1  0  0  0  0  0999 V2000
    1.6268   11.3736    8.4477 Zr  0  0  2  0  0  0  0  0  0  0  0  0
    0.4313   11.3686   10.4661 Cl  0  0  0  0  0  0  0  0  0  0  0  0
    1.8413    8.8816    8.6424 C   0  0  0  0  0  0  0  0  0  0  0  0
    2.3470    9.2510    7.3709 C   0  0  2  0  0  0  0  0  0  0  0  0
    3.5313    9.9924    7.5765 C   0  0  0  0  0  0  0  0  0  0  0  0
    3.7481   10.0908    8.9696 C   0  0  0  0  0  0  0  0  0  0  0  0
    2.7086    9.3996    9.6232 C   0  0  0  0  0  0  0  0  0  0  0  0
    1.4821   13.8352    8.7804 C   0  0  0  0  0  3  0  0  0  0  0  0
    1.5144   13.6172    7.3840 C   0  0  1  0  0  0  0  0  0  0  0  0
    2.7970   13.1180    7.0518 C   0  0  0  0  0  3  0  0  0  0  0  0
    3.5532   13.0439    8.2392 C   0  0  0  0  0  0  0  0  0  0  0  0
    2.7367   13.4627    9.3096 C   0  0  0  0  0  0  0  0  0  0  0  0
   -0.2122   10.9686    7.3029 C   0  0  0  0  0  0  0  0  0  0  0  0
   -0.0805   11.1054    5.7575 C   0  0  0  0  0  0  0  0  0  0  0  0
   -1.2488   12.0020    5.3012 C   0  0  0  0  0  0  0  0  0  0  0  0
   -2.2724   11.9001    6.4294 C   0  0  0  0  0  0  0  0  0  0  0  0
   -1.3937   11.8879    7.6848 C   0  0  0  0  0  0  0  0  0  0  0  0
    0.9988    8.2259    8.8281 H   0  0  0  0  0  0  0  0  0  0  0  0
    1.9864    8.8876    6.4159 H   0  0  0  0  0  0  0  0  0  0  0  0
    4.2209   10.3044    6.8013 H   0  0  0  0  0  0  0  0  0  0  0  0
    4.6322   10.4919    9.4518 H   0  0  0  0  0  0  0  0  0  0  0  0
    2.6368    9.2206   10.6889 H   0  0  0  0  0  0  0  0  0  0  0  0
    0.6750   14.2958    9.3379 H   0  0  0  0  0  0  0  0  0  0  0  0
    0.7656   13.9448    6.6744 H   0  0  0  0  0  0  0  0  0  0  0  0
    3.1788   12.9766    6.0475 H   0  0  0  0  0  0  0  0  0  0  0  0
    4.6128   12.8293    8.2975 H   0  0  0  0  0  0  0  0  0  0  0  0
    3.0511   13.5930   10.3395 H   0  0  0  0  0  0  0  0  0  0  0  0
   -0.5561    9.9353    7.5147 H   0  0  0  0  0  0  0  0  0  0  0  0
    0.8819   11.5373    5.4407 H   0  0  0  0  0  0  0  0  0  0  0  0
   -0.1657   10.1235    5.2805 H   0  0  0  0  0  0  0  0  0  0  0  0
   -0.9175   13.0376    5.2024 H   0  0  0  0  0  0  0  0  0  0  0  0
   -1.6557   11.6886    4.3402 H   0  0  0  0  0  0  0  0  0  0  0  0
   -2.9893   12.7204    6.4171 H   0  0  0  0  0  0  0  0  0  0  0  0
   -2.8209   10.9596    6.3506 H   0  0  0  0  0  0  0  0  0  0  0  0
   -1.9271   11.5096    8.5608 H   0  0  0  0  0  0  0  0  0  0  0  0
   -1.0706   12.9146    7.9022 H   0  0  0  0  0  0  0  0  0  0  0  0
  1  2  1  1  0  0  0
  3 18  1  0  0  0  0
  3  7  2  0  0  0  0
  4 19  1  6  0  0  0
  4  5  1  0  0  0  0
  4  1  1  0  0  0  0
  4  3  1  0  0  0  0
  5  6  2  0  0  0  0
  6 21  1  0  0  0  0
  6  7  1  0  0  0  0
  7 22  1  0  0  0  0
  8 12  1  0  0  0  0
  8 23  1  0  0  0  0
  9 24  1  6  0  0  0
  9  1  1  0  0  0  0
  9  8  1  0  0  0  0
 10  9  1  0  0  0  0
 10 11  1  0  0  0  0
 11 26  1  0  0  0  0
 11 12  2  0  0  0  0
 12 27  1  0  0  0  0
 13 28  1  0  0  0  0
 13 17  1  0  0  0  0
 13  1  1  0  0  0  0
 14 13  1  0  0  0  0
 15 14  1  0  0  0  0
 15 16  1  0  0  0  0
 16 17  1  0  0  0  0
 17 36  1  0  0  0  0
 17 35  1  0  0  0  0
 20  5  1  0  0  0  0
 25 10  1  0  0  0  0
 29 14  1  0  0  0  0
 30 14  1  0  0  0  0
 31 15  1  0  0  0  0
 32 15  1  0  0  0  0
 33 16  1  0  0  0  0
 34 16  1  0  0  0  0
M  END
$$$$
