CSD_code = VEQSAL | q = 0 | S = 0 | Stoichiometry = C11H27I2O11P3W | MND = 7
 OpenBabel04212202113D

 55 53  0  0  0  0  0  0  0  0999 V2000
   11.5253    0.1940    3.9356 W   0  0  0  0  0  0  0  0  0  0  0  0
   13.7215   -0.3922    2.1704 I   0  0  0  0  0 15  0  0  0  0  0  0
    9.8811   -0.3908    1.7604 I   0  0  0  0  0  0  0  0  0  0  0  0
    9.3296    0.2637    4.8934 P   0  0  0  0  0  4  0  0  0  0  0  0
   13.3369    1.6135    4.5887 P   0  0  0  0  0  4  0  0  0  0  0  0
   11.7105   -2.2090    4.1757 P   0  0  0  0  0  4  0  0  0  0  0  0
   12.2352   -0.3070    6.9375 O   0  0  0  0  0  1  0  0  0  0  0  0
   10.7259    3.2180    3.7999 O   0  0  0  0  0  1  0  0  0  0  0  0
    8.3572   -1.0062    4.8152 O   0  0  0  0  0  0  0  0  0  0  0  0
    8.4850    1.4027    4.1257 O   0  0  0  0  0  0  0  0  0  0  0  0
    9.1021    0.6406    6.4578 O   0  0  0  0  0  0  0  0  0  0  0  0
   13.9691    2.7340    3.6091 O   0  0  0  0  0  0  0  0  0  0  0  0
   14.7163    1.1511    5.2809 O   0  0  0  0  0  0  0  0  0  0  0  0
   12.7408    2.4721    5.8208 O   0  0  0  0  0  0  0  0  0  0  0  0
   10.7196   -2.5191    5.4142 O   0  0  0  0  0  0  0  0  0  0  0  0
   11.2100   -3.3517    3.1858 O   0  0  0  0  0  0  0  0  0  0  0  0
   13.1012   -2.9421    4.5900 O   0  0  0  0  0  0  0  0  0  0  0  0
   11.9890   -0.0743    5.8218 C   0  0  0  0  0  2  0  0  0  0  0  0
   11.0231    2.0969    3.7530 C   0  0  0  0  0  2  0  0  0  0  0  0
    7.8235   -1.7136    5.9243 C   0  0  0  0  0  0  0  0  0  0  0  0
    7.0800    1.5504    4.2955 C   0  0  0  0  0  0  0  0  0  0  0  0
    9.6042    1.8684    6.9566 C   0  0  0  0  0  0  0  0  0  0  0  0
   13.4388    3.2041    2.3832 C   0  0  0  0  0  0  0  0  0  0  0  0
   15.9727    0.9443    4.6470 C   0  0  0  0  0  0  0  0  0  0  0  0
   13.4874    3.5163    6.4426 C   0  0  0  0  0  0  0  0  0  0  0  0
   10.5379   -3.8542    5.8817 C   0  0  0  0  0  0  0  0  0  0  0  0
   11.8219   -3.6739    1.9389 C   0  0  0  0  0  0  0  0  0  0  0  0
   14.1449   -2.3783    5.3535 C   0  0  0  0  0  0  0  0  0  0  0  0
    8.5852   -1.8837    6.6830 H   0  0  0  0  0  0  0  0  0  0  0  0
    7.4682   -2.6653    5.5301 H   0  0  0  0  0  0  0  0  0  0  0  0
    6.9905   -1.1642    6.3661 H   0  0  0  0  0  0  0  0  0  0  0  0
    6.8224    2.5238    3.8805 H   0  0  0  0  0  0  0  0  0  0  0  0
    6.8015    1.5108    5.3517 H   0  0  0  0  0  0  0  0  0  0  0  0
    6.5547    0.7670    3.7471 H   0  0  0  0  0  0  0  0  0  0  0  0
    9.2954    1.9257    7.9999 H   0  0  0  0  0  0  0  0  0  0  0  0
    9.1893    2.7122    6.4001 H   0  0  0  0  0  0  0  0  0  0  0  0
   10.6932    1.9054    6.8925 H   0  0  0  0  0  0  0  0  0  0  0  0
   14.2685    3.2809    1.6792 H   0  0  0  0  0  0  0  0  0  0  0  0
   12.9806    4.1833    2.5325 H   0  0  0  0  0  0  0  0  0  0  0  0
   12.6877    2.5208    1.9711 H   0  0  0  0  0  0  0  0  0  0  0  0
   16.7358    1.2638    5.3569 H   0  0  0  0  0  0  0  0  0  0  0  0
   16.0525    1.5300    3.7317 H   0  0  0  0  0  0  0  0  0  0  0  0
   16.1110   -0.1117    4.4108 H   0  0  0  0  0  0  0  0  0  0  0  0
   12.7815    4.3055    6.7015 H   0  0  0  0  0  0  0  0  0  0  0  0
   14.2467    3.9073    5.7640 H   0  0  0  0  0  0  0  0  0  0  0  0
   13.9660    3.1340    7.3450 H   0  0  0  0  0  0  0  0  0  0  0  0
    9.6894   -4.3127    5.3741 H   0  0  0  0  0  0  0  0  0  0  0  0
   10.3485   -3.7989    6.9538 H   0  0  0  0  0  0  0  0  0  0  0  0
   11.4327   -4.4500    5.6956 H   0  0  0  0  0  0  0  0  0  0  0  0
   11.5432   -2.9489    1.1726 H   0  0  0  0  0  0  0  0  0  0  0  0
   11.4378   -4.6552    1.6644 H   0  0  0  0  0  0  0  0  0  0  0  0
   12.9071   -3.7124    2.0329 H   0  0  0  0  0  0  0  0  0  0  0  0
   15.0812   -2.7778    4.9610 H   0  0  0  0  0  0  0  0  0  0  0  0
   14.0351   -2.6550    6.4042 H   0  0  0  0  0  0  0  0  0  0  0  0
   14.1557   -1.2873    5.2837 H   0  0  0  0  0  0  0  0  0  0  0  0
  1  6  1  0  0  0  0
  1  5  1  0  0  0  0
  1  4  1  0  0  0  0
  1 18  1  0  0  0  0
  3  1  1  0  0  0  0
  4 11  1  0  0  0  0
  5 13  1  0  0  0  0
  5 14  1  0  0  0  0
  6 17  1  0  0  0  0
  6 15  1  0  0  0  0
  9  4  1  0  0  0  0
  9 20  1  0  0  0  0
 10 21  1  0  0  0  0
 10  4  1  0  0  0  0
 11 22  1  0  0  0  0
 12  5  1  0  0  0  0
 14 25  1  0  0  0  0
 15 26  1  0  0  0  0
 16  6  1  0  0  0  0
 17 28  1  0  0  0  0
 18  7  1  0  0  0  0
 19  8  1  0  0  0  0
 19  1  1  0  0  0  0
 20 31  1  0  0  0  0
 20 29  1  0  0  0  0
 21 33  1  0  0  0  0
 22 35  1  0  0  0  0
 23 39  1  0  0  0  0
 23 12  1  0  0  0  0
 24 13  1  0  0  0  0
 24 41  1  0  0  0  0
 25 44  1  0  0  0  0
 25 46  1  0  0  0  0
 26 48  1  0  0  0  0
 27 52  1  0  0  0  0
 27 16  1  0  0  0  0
 28 54  1  0  0  0  0
 30 20  1  0  0  0  0
 32 21  1  0  0  0  0
 34 21  1  0  0  0  0
 36 22  1  0  0  0  0
 37 22  1  0  0  0  0
 38 23  1  0  0  0  0
 40 23  1  0  0  0  0
 42 24  1  0  0  0  0
 43 24  1  0  0  0  0
 45 25  1  0  0  0  0
 47 26  1  0  0  0  0
 49 26  1  0  0  0  0
 50 27  1  0  0  0  0
 51 27  1  0  0  0  0
 53 28  1  0  0  0  0
 55 28  1  0  0  0  0
M  END
$$$$
