CSD_code = VEQTUI | q = 0 | S = 0 | Stoichiometry = C17H10ClN2O3ReS2 | MND = 6
 OpenBabel04212202113D

 36 39  0  0  0  0  0  0  0  0999 V2000
    8.6330    8.0743   10.1365 Re  0  0  0  0  0  0  0  0  0  0  0  0
    9.8544    6.8939    8.6462 N   0  0  0  0  0  0  0  0  0  0  0  0
    9.6650    9.8309    9.1543 N   0  0  0  0  0  0  0  0  0  0  0  0
    7.6711    5.5096   11.5579 O   0  0  0  0  0  1  0  0  0  0  0  0
    7.4617    9.9180   12.3163 O   0  0  0  0  0  1  0  0  0  0  0  0
    6.1822    8.1542    8.2545 O   0  0  0  0  0  1  0  0  0  0  0  0
   11.7811    5.3302    7.9657 S   0  0  0  0  0  0  0  0  0  0  0  0
   11.6170   11.0846    8.0411 S   0  0  0  0  0  0  0  0  0  0  0  0
   10.6222    7.9654   11.4060 Cl  0  0  0  0  0  0  0  0  0  0  0  0
    7.9728    6.4695   11.0133 C   0  0  0  0  0  2  0  0  0  0  0  0
    7.8408    9.2221   11.4908 C   0  0  0  0  0  2  0  0  0  0  0  0
    7.0982    8.1387    8.9536 C   0  0  0  0  0  2  0  0  0  0  0  0
   10.0949    7.1752    7.3215 C   0  0  0  0  0  0  0  0  0  0  0  0
    9.4213    8.0980    6.5203 C   0  0  0  0  0  0  0  0  0  0  0  0
    8.5917    8.6589    6.9238 H   0  0  0  0  0  0  0  0  0  0  0  0
    9.8262    8.2669    5.2149 C   0  0  0  0  0  0  0  0  0  0  0  0
    9.3135    8.9824    4.5906 H   0  0  0  0  0  0  0  0  0  0  0  0
   10.8822    7.5267    4.6838 C   0  0  0  0  0  0  0  0  0  0  0  0
   11.1779    7.6818    3.6579 H   0  0  0  0  0  0  0  0  0  0  0  0
   11.5470    6.5912    5.4493 C   0  0  0  0  0  0  0  0  0  0  0  0
   12.3556    6.0040    5.0442 H   0  0  0  0  0  0  0  0  0  0  0  0
   11.1459    6.4202    6.7650 C   0  0  0  0  0  0  0  0  0  0  0  0
   10.6425    5.9680    9.0857 C   0  0  0  0  0  3  0  0  0  0  0  0
   10.6259    5.6033   10.0972 H   0  0  0  0  0  0  0  0  0  0  0  0
    9.1015   10.9609    8.6070 C   0  0  0  0  0  0  0  0  0  0  0  0
    7.7628   11.3462    8.6735 C   0  0  0  0  0  0  0  0  0  0  0  0
    7.0564   10.7277    9.2074 H   0  0  0  0  0  0  0  0  0  0  0  0
    7.3803   12.5201    8.0622 C   0  0  0  0  0  0  0  0  0  0  0  0
    6.3479   12.8292    8.1096 H   0  0  0  0  0  0  0  0  0  0  0  0
    8.3031   13.3183    7.3866 C   0  0  0  0  0  0  0  0  0  0  0  0
    7.9737   14.2321    6.9168 H   0  0  0  0  0  0  0  0  0  0  0  0
    9.6341   12.9614    7.3171 C   0  0  0  0  0  0  0  0  0  0  0  0
   10.3571   13.5769    6.8058 H   0  0  0  0  0  0  0  0  0  0  0  0
   10.0242   11.7832    7.9336 C   0  0  0  0  0  0  0  0  0  0  0  0
   10.9391    9.7888    8.9468 C   0  0  0  0  0  3  0  0  0  0  0  0
   11.5800    9.0189    9.3417 H   0  0  0  0  0  0  0  0  0  0  0  0
  1 10  1  0  0  0  0
  1  9  1  0  0  0  0
  1 11  1  0  0  0  0
  2 23  1  0  0  0  0
  2  1  1  0  0  0  0
  3  1  1  0  0  0  0
  6 12  1  0  0  0  0
  7 23  1  0  0  0  0
  8 35  1  0  0  0  0
 10  4  1  0  0  0  0
 11  5  1  0  0  0  0
 12  1  1  0  0  0  0
 13  2  1  0  0  0  0
 14 15  1  0  0  0  0
 14 13  2  0  0  0  0
 16 14  1  0  0  0  0
 17 16  1  0  0  0  0
 18 16  2  0  0  0  0
 18 20  1  0  0  0  0
 19 18  1  0  0  0  0
 20 22  2  0  0  0  0
 21 20  1  0  0  0  0
 22 13  1  0  0  0  0
 22  7  1  0  0  0  0
 23 24  1  0  0  0  0
 25 26  1  0  0  0  0
 25  3  1  0  0  0  0
 26 27  1  0  0  0  0
 28 29  1  0  0  0  0
 28 26  2  0  0  0  0
 30 28  1  0  0  0  0
 31 30  1  0  0  0  0
 32 30  2  0  0  0  0
 32 34  1  0  0  0  0
 33 32  1  0  0  0  0
 34  8  1  0  0  0  0
 34 25  2  0  0  0  0
 35  3  1  0  0  0  0
 35 36  1  0  0  0  0
M  END
$$$$
