CSD_code = VEQWEV | q = 0 | S = 0 | Stoichiometry = C20H25ClN2O5Pt | MND = 6
 OpenBabel04212202113D

 54 56  0  0  1  0  0  0  0  0999 V2000
    0.3780   13.5055   14.1770 Pt  0  0  0  0  0  0  0  0  0  0  0  0
    2.5365   13.8865   13.0317 Cl  0  0  0  0  0  0  0  0  0  0  0  0
    0.9313   11.7103   15.0208 C   0  0  0  0  0  0  0  0  0  0  0  0
    1.9659   11.5153   14.7305 H   0  0  0  0  0  0  0  0  0  0  0  0
    0.2995   10.9169   14.6137 H   0  0  0  0  0  0  0  0  0  0  0  0
    0.8544   11.6625   16.1073 H   0  0  0  0  0  0  0  0  0  0  0  0
   -1.5031   13.2256   14.9801 C   0  0  0  0  0  0  0  0  0  0  0  0
   -1.5177   12.7589   15.9630 H   0  0  0  0  0  0  0  0  0  0  0  0
   -2.0815   12.6064   14.2922 H   0  0  0  0  0  0  0  0  0  0  0  0
   -1.9827   14.2018   15.0609 H   0  0  0  0  0  0  0  0  0  0  0  0
    1.0189   14.5470   15.7734 C   0  0  0  0  0  0  0  0  0  0  0  0
    0.3471   15.4694   16.1321 O   0  0  0  0  0  0  0  0  0  0  0  0
    2.3689   14.2177   16.3257 C   0  0  0  0  0  0  0  0  0  0  0  0
    2.6790   15.0028   17.0141 H   0  0  0  0  0  0  0  0  0  0  0  0
    3.0796   14.1315   15.5040 H   0  0  0  0  0  0  0  0  0  0  0  0
    2.3448   13.2626   16.8439 H   0  0  0  0  0  0  0  0  0  0  0  0
   -0.2407   15.2770   12.9847 N   0  0  0  0  0  0  0  0  0  0  0  0
   -0.5083   16.4886   13.4468 C   0  0  0  0  0  3  0  0  0  0  0  0
   -0.5794   16.5850   14.5225 H   0  0  0  0  0  0  0  0  0  0  0  0
   -0.6803   17.5890   12.6239 C   0  0  0  0  0  0  0  0  0  0  0  0
   -0.8851   18.5627   13.0366 H   0  0  0  0  0  0  0  0  0  0  0  0
   -0.5857   17.4015   11.2489 C   0  0  0  0  0  0  0  0  0  0  0  0
   -0.3151   16.1276   10.7650 C   0  0  0  0  0  0  0  0  0  0  0  0
   -0.2629   15.9772    9.6986 H   0  0  0  0  0  0  0  0  0  0  0  0
   -0.1326   15.0813   11.6650 C   0  0  0  0  0  0  0  0  0  0  0  0
    0.1603   13.7129   11.2066 C   0  0  2  0  0  3  0  0  0  0  0  0
    0.7164   13.4613    9.9557 C   0  0  0  0  0  0  0  0  0  0  0  0
    0.9980   14.2573    9.2853 H   0  0  0  0  0  0  0  0  0  0  0  0
    0.9722   12.1482    9.5819 C   0  0  0  0  0  0  0  0  0  0  0  0
    0.6320   11.1228   10.4585 C   0  0  0  0  0  0  0  0  0  0  0  0
    0.8082   10.0925   10.1981 H   0  0  0  0  0  0  0  0  0  0  0  0
    0.0796   11.4682   11.6799 C   0  0  0  0  0  0  0  0  0  0  0  0
   -0.2020   10.7038   12.3918 H   0  0  0  0  0  0  0  0  0  0  0  0
   -0.1385   12.7193   12.0543 N   0  0  0  0  0  0  0  0  0  0  0  0
   -0.7730   18.5118   10.2686 C   0  0  0  0  0  0  0  0  0  0  0  0
   -0.7816   18.3526    9.0737 O   0  0  0  0  0  0  0  0  0  0  0  0
   -0.9324   19.6889   10.8678 O   0  0  0  0  0  0  0  0  0  0  0  0
   -1.1129   20.8187   10.0096 C   0  0  0  0  0  0  0  0  0  0  0  0
   -1.9777   20.6338    9.3625 H   0  0  0  0  0  0  0  0  0  0  0  0
   -0.2278   20.9193    9.3717 H   0  0  0  0  0  0  0  0  0  0  0  0
   -1.3166   22.0473   10.8745 C   0  0  0  0  0  0  0  0  0  0  0  0
   -2.1948   21.9234   11.5027 H   0  0  0  0  0  0  0  0  0  0  0  0
   -1.4534   22.9188   10.2413 H   0  0  0  0  0  0  0  0  0  0  0  0
   -0.4512   22.2042   11.5127 H   0  0  0  0  0  0  0  0  0  0  0  0
    1.5972   11.8947    8.2506 C   0  0  0  0  0  0  0  0  0  0  0  0
    1.7780   12.7551    7.4267 O   0  0  0  0  0  0  0  0  0  0  0  0
    1.9317   10.6139    8.0938 O   0  0  0  0  0  0  0  0  0  0  0  0
    2.5423   10.2519    6.8534 C   0  0  0  0  0  0  0  0  0  0  0  0
    3.0967    9.3366    7.0698 H   0  0  0  0  0  0  0  0  0  0  0  0
    3.2334   11.0465    6.5544 H   0  0  0  0  0  0  0  0  0  0  0  0
    1.5017   10.0231    5.7669 C   0  0  0  0  0  0  0  0  0  0  0  0
    0.7849    9.2687    6.0829 H   0  0  0  0  0  0  0  0  0  0  0  0
    1.9939    9.6870    4.8591 H   0  0  0  0  0  0  0  0  0  0  0  0
    0.9725   10.9495    5.5575 H   0  0  0  0  0  0  0  0  0  0  0  0
  1  7  1  0  0  0  0
  1  3  1  0  0  0  0
  1 11  1  0  0  0  0
  2  1  1  0  0  0  0
  3  6  1  0  0  0  0
  4  3  1  0  0  0  0
  5  3  1  0  0  0  0
  7 10  1  0  0  0  0
  7  8  1  0  0  0  0
  9  7  1  0  0  0  0
 11 12  2  0  0  0  0
 11 13  1  0  0  0  0
 13 16  1  0  0  0  0
 13 14  1  0  0  0  0
 15 13  1  0  0  0  0
 17 18  1  0  0  0  0
 17  1  1  0  0  0  0
 18 19  1  0  0  0  0
 20 21  1  0  0  0  0
 20 18  1  0  0  0  0
 22 20  2  0  0  0  0
 23 22  1  0  0  0  0
 23 25  2  0  0  0  0
 24 23  1  0  0  0  0
 25 17  1  0  0  0  0
 26 27  1  6  0  0  0
 26 25  1  0  0  0  0
 26 34  1  0  0  0  0
 28 27  1  0  0  0  0
 29 27  2  0  0  0  0
 29 30  1  0  0  0  0
 30 32  2  0  0  0  0
 31 30  1  0  0  0  0
 32 34  1  0  0  0  0
 32 33  1  0  0  0  0
 34  1  1  0  0  0  0
 35 37  1  0  0  0  0
 35 22  1  0  0  0  0
 36 35  2  0  0  0  0
 38 37  1  0  0  0  0
 38 41  1  0  0  0  0
 39 38  1  0  0  0  0
 40 38  1  0  0  0  0
 41 42  1  0  0  0  0
 41 44  1  0  0  0  0
 43 41  1  0  0  0  0
 45 29  1  0  0  0  0
 46 45  2  0  0  0  0
 47 45  1  0  0  0  0
 48 49  1  0  0  0  0
 48 47  1  0  0  0  0
 50 48  1  0  0  0  0
 51 52  1  0  0  0  0
 51 48  1  0  0  0  0
 53 51  1  0  0  0  0
 54 51  1  0  0  0  0
M  END
$$$$
