CSD_code = VEQWOF | q = 0 | S = 0 | Stoichiometry = C26H29BrN2O6Pt | MND = 6
 OpenBabel04212202113D

 65 68  0  0  1  0  0  0  0  0999 V2000
    7.7572    7.9933    0.3504 Pt  0  0  0  0  0  0  0  0  0  0  0  0
    5.3153    8.3822   -0.3927 Br  0  0  0  0  0  0  0  0  0  0  0  0
    6.2717    1.2116    1.6251 O   0  0  0  0  0  0  0  0  0  0  0  0
    5.9466    1.9237    3.7363 O   0  0  0  0  0  0  0  0  0  0  0  0
    6.9594    4.2327   -5.7413 O   0  0  0  0  0  0  0  0  0  0  0  0
    6.1150    2.8630   -4.1787 O   0  0  0  0  0  0  0  0  0  0  0  0
    9.9437    1.2085    0.4225 O   0  0  0  0  0  0  0  0  0  0  0  0
    9.8771    0.2653    0.6375 H   0  0  0  0  0  0  0  0  0  0  0  0
    9.5611    1.3976    2.6108 O   0  0  0  0  0  0  0  0  0  0  0  0
    7.7424    6.6052   -1.3938 N   0  0  0  0  0  0  0  0  0  0  0  0
    6.9911    6.0794    1.1706 N   0  0  0  0  0  0  0  0  0  0  0  0
   10.1408    5.2955   -0.0833 C   0  0  0  0  0  0  0  0  0  0  0  0
   10.3335    5.7138   -1.0621 H   0  0  0  0  0  0  0  0  0  0  0  0
    7.2362    5.3950   -1.1132 C   0  0  1  0  0  3  0  0  0  0  0  0
    7.0003    5.0624    0.2995 C   0  0  2  0  0  3  0  0  0  0  0  0
    6.6673    5.8515    2.4353 C   0  0  0  0  0  0  0  0  0  0  0  0
    6.6317    6.7150    3.0845 H   0  0  0  0  0  0  0  0  0  0  0  0
    6.3792    4.5913    2.9219 C   0  0  0  0  0  0  0  0  0  0  0  0
    6.1155    4.4280    3.9542 H   0  0  0  0  0  0  0  0  0  0  0  0
    6.4611    3.5103    2.0482 C   0  0  0  0  0  0  0  0  0  0  0  0
    6.7652    3.7527    0.7172 C   0  0  0  0  0  0  0  0  0  0  0  0
    6.8350    2.9256    0.0316 H   0  0  0  0  0  0  0  0  0  0  0  0
    6.2070    2.1371    2.5812 C   0  0  0  0  0  0  0  0  0  0  0  0
    6.0655   -0.1527    2.0081 C   0  0  0  0  0  0  0  0  0  0  0  0
    5.2987   -0.5459    1.3342 H   0  0  0  0  0  0  0  0  0  0  0  0
    5.6987   -0.1732    3.0386 H   0  0  0  0  0  0  0  0  0  0  0  0
    7.3619   -0.9375    1.8837 C   0  0  0  0  0  0  0  0  0  0  0  0
    7.6883   -0.9606    0.8457 H   0  0  0  0  0  0  0  0  0  0  0  0
    7.2034   -1.9559    2.2263 H   0  0  0  0  0  0  0  0  0  0  0  0
    8.1305   -0.4712    2.4969 H   0  0  0  0  0  0  0  0  0  0  0  0
    6.8801    4.5092   -2.1290 C   0  0  0  0  0  0  0  0  0  0  0  0
    6.4317    3.5563   -1.9065 H   0  0  0  0  0  0  0  0  0  0  0  0
    7.0786    4.8744   -3.4523 C   0  0  0  0  0  0  0  0  0  0  0  0
    7.6214    6.1276   -3.7247 C   0  0  0  0  0  0  0  0  0  0  0  0
    7.7829    6.4358   -4.7449 H   0  0  0  0  0  0  0  0  0  0  0  0
    7.9260    6.9529   -2.6599 C   0  0  0  0  0  0  0  0  0  0  0  0
    8.3307    7.9405   -2.8342 H   0  0  0  0  0  0  0  0  0  0  0  0
    6.7210    3.9753   -4.5884 C   0  0  0  0  0  0  0  0  0  0  0  0
    5.7129    1.9463   -5.2009 C   0  0  0  0  0  0  0  0  0  0  0  0
    6.6010    1.6331   -5.7611 H   0  0  0  0  0  0  0  0  0  0  0  0
    5.0412    2.4661   -5.8927 H   0  0  0  0  0  0  0  0  0  0  0  0
    5.0258    0.7669   -4.5404 C   0  0  0  0  0  0  0  0  0  0  0  0
    5.7091    0.2657   -3.8599 H   0  0  0  0  0  0  0  0  0  0  0  0
    4.7029    0.0624   -5.3010 H   0  0  0  0  0  0  0  0  0  0  0  0
    4.1588    1.1049   -3.9791 H   0  0  0  0  0  0  0  0  0  0  0  0
    8.3899    9.7449   -0.5362 C   0  0  0  0  0  0  0  0  0  0  0  0
    7.5364   10.4183   -0.6354 H   0  0  0  0  0  0  0  0  0  0  0  0
    8.7697    9.5203   -1.5368 H   0  0  0  0  0  0  0  0  0  0  0  0
    9.1770   10.2639    0.0114 H   0  0  0  0  0  0  0  0  0  0  0  0
    7.5418    9.0819    2.0872 C   0  0  0  0  0  0  0  0  0  0  0  0
    7.9258   10.1003    2.0396 H   0  0  0  0  0  0  0  0  0  0  0  0
    8.0399    8.5696    2.9139 H   0  0  0  0  0  0  0  0  0  0  0  0
    6.4698    9.1358    2.2925 H   0  0  0  0  0  0  0  0  0  0  0  0
    9.7998    7.6071    0.7887 C   0  0  0  0  0  0  0  0  0  0  0  0
   10.3735    7.9293   -0.0823 H   0  0  0  0  0  0  0  0  0  0  0  0
   10.1123    8.1706    1.6672 H   0  0  0  0  0  0  0  0  0  0  0  0
    9.9091    6.1635    0.9947 C   0  0  0  0  0  0  0  0  0  0  0  0
   10.1218    3.9295    0.0796 C   0  0  0  0  0  0  0  0  0  0  0  0
   10.2840    3.2747   -0.7628 H   0  0  0  0  0  0  0  0  0  0  0  0
    9.8831    3.3793    1.3399 C   0  0  0  0  0  0  0  0  0  0  0  0
    9.7842    1.9314    1.5483 C   0  0  0  0  0  0  0  0  0  0  0  0
    9.7252    4.2306    2.4373 C   0  0  0  0  0  0  0  0  0  0  0  0
    9.5774    3.7906    3.4123 H   0  0  0  0  0  0  0  0  0  0  0  0
    9.7457    5.5941    2.2673 C   0  0  0  0  0  0  0  0  0  0  0  0
    9.6179    6.2450    3.1205 H   0  0  0  0  0  0  0  0  0  0  0  0
  1 54  1  0  0  0  0
  1 11  1  0  0  0  0
  1 50  1  0  0  0  0
  2  1  1  0  0  0  0
  3 24  1  0  0  0  0
  3 23  1  0  0  0  0
  5 38  2  0  0  0  0
  7  8  1  0  0  0  0
  7 61  1  0  0  0  0
 10 14  1  0  0  0  0
 10  1  1  0  0  0  0
 11 16  1  0  0  0  0
 12 58  2  0  0  0  0
 12 57  1  0  0  0  0
 13 12  1  0  0  0  0
 14 31  1  6  0  0  0
 14 15  1  0  0  0  0
 15 21  1  6  0  0  0
 15 11  1  0  0  0  0
 16 18  2  0  0  0  0
 16 17  1  0  0  0  0
 18 19  1  0  0  0  0
 20 23  1  0  0  0  0
 20 18  1  0  0  0  0
 21 20  2  0  0  0  0
 22 21  1  0  0  0  0
 23  4  2  0  0  0  0
 24 26  1  0  0  0  0
 25 24  1  0  0  0  0
 27 24  1  0  0  0  0
 27 29  1  0  0  0  0
 27 30  1  0  0  0  0
 28 27  1  0  0  0  0
 31 32  1  0  0  0  0
 33 31  2  0  0  0  0
 34 33  1  0  0  0  0
 34 36  2  0  0  0  0
 35 34  1  0  0  0  0
 36 10  1  0  0  0  0
 37 36  1  0  0  0  0
 38  6  1  0  0  0  0
 38 33  1  0  0  0  0
 39 42  1  0  0  0  0
 39  6  1  0  0  0  0
 40 39  1  0  0  0  0
 41 39  1  0  0  0  0
 42 45  1  0  0  0  0
 42 43  1  0  0  0  0
 44 42  1  0  0  0  0
 46 49  1  0  0  0  0
 46  1  1  0  0  0  0
 47 46  1  0  0  0  0
 48 46  1  0  0  0  0
 50 53  1  0  0  0  0
 50 52  1  0  0  0  0
 51 50  1  0  0  0  0
 54 57  1  0  0  0  0
 54 56  1  0  0  0  0
 55 54  1  0  0  0  0
 57 64  2  0  0  0  0
 58 60  1  0  0  0  0
 59 58  1  0  0  0  0
 60 61  1  0  0  0  0
 60 62  2  0  0  0  0
 61  9  2  0  0  0  0
 62 63  1  0  0  0  0
 64 62  1  0  0  0  0
 64 65  1  0  0  0  0
M  END
$$$$
