CSD_code = VEQZEX | q = 1 | S = 0 | Stoichiometry = C4H16Cl2CoN4(1+) | MND = 6
 OpenBabel04212202113D

 27 28  0  0  0  0  0  0  0  0999 V2000
    3.4583    3.3531   13.6000 Co  0  0  0  0  0  0  0  0  0  0  0  0
    5.1596    3.0944   12.2055 Cl  0  0  0  0  0  0  0  0  0  0  0  0
    3.5562    1.4585   14.0936 N   0  0  0  0  0  4  0  0  0  0  0  0
    2.7072    1.2521   14.6283 H   0  0  0  0  0  0  0  0  0  0  0  0
    3.6024    0.7993   13.3158 H   0  0  0  0  0  0  0  0  0  0  0  0
    4.7238    3.6335   15.0710 N   0  0  0  0  0  4  0  0  0  0  0  0
    5.6466    3.7630   14.6456 H   0  0  0  0  0  0  0  0  0  0  0  0
    4.5372    4.4436   15.6634 H   0  0  0  0  0  0  0  0  0  0  0  0
    4.7227    1.2423   14.9669 C   0  0  0  0  0  0  0  0  0  0  0  0
    5.6212    1.2334   14.3454 H   0  0  0  0  0  0  0  0  0  0  0  0
    4.6527    0.2957   15.5096 H   0  0  0  0  0  0  0  0  0  0  0  0
    4.7637    2.4284   15.9176 C   0  0  0  0  0  0  0  0  0  0  0  0
    3.8757    2.4249   16.5542 H   0  0  0  0  0  0  0  0  0  0  0  0
    5.6567    2.4056   16.5480 H   0  0  0  0  0  0  0  0  0  0  0  0
    1.7589    3.6149   14.9961 Cl  0  0  0  0  0  0  0  0  0  0  0  0
    3.3616    5.2477   13.1061 N   0  0  0  0  0  4  0  0  0  0  0  0
    4.2108    5.4539   12.5713 H   0  0  0  0  0  0  0  0  0  0  0  0
    3.3156    5.9071   13.8837 H   0  0  0  0  0  0  0  0  0  0  0  0
    2.1938    3.0729   12.1282 N   0  0  0  0  0  4  0  0  0  0  0  0
    1.2709    2.9434   12.5534 H   0  0  0  0  0  0  0  0  0  0  0  0
    2.3805    2.2629   11.5359 H   0  0  0  0  0  0  0  0  0  0  0  0
    2.1953    5.4642   12.2326 C   0  0  0  0  0  0  0  0  0  0  0  0
    1.2967    5.4732   12.8541 H   0  0  0  0  0  0  0  0  0  0  0  0
    2.2654    6.4108   11.6900 H   0  0  0  0  0  0  0  0  0  0  0  0
    2.1541    4.2782   11.2818 C   0  0  0  0  0  0  0  0  0  0  0  0
    3.0423    4.2816   10.6454 H   0  0  0  0  0  0  0  0  0  0  0  0
    1.2612    4.3011   10.6512 H   0  0  0  0  0  0  0  0  0  0  0  0
  1  3  1  0  0  0  0
  1 15  1  0  0  0  0
  1  6  1  0  0  0  0
  2  1  1  0  0  0  0
  3  4  1  0  0  0  0
  3  9  1  0  0  0  0
  5  3  1  0  0  0  0
  6  8  1  0  0  0  0
  6 12  1  0  0  0  0
  7  6  1  0  0  0  0
  9 11  1  0  0  0  0
  9 12  1  0  0  0  0
 10  9  1  0  0  0  0
 12 14  1  0  0  0  0
 12 13  1  0  0  0  0
 16  1  1  0  0  0  0
 16 18  1  0  0  0  0
 17 16  1  0  0  0  0
 19 20  1  0  0  0  0
 19  1  1  0  0  0  0
 21 19  1  0  0  0  0
 22 23  1  0  0  0  0
 22 16  1  0  0  0  0
 24 22  1  0  0  0  0
 25 19  1  0  0  0  0
 25 22  1  0  0  0  0
 26 25  1  0  0  0  0
 27 25  1  0  0  0  0
M  END
$$$$
