CSD_code = VERBAV | q = 0 | S = 0 | Stoichiometry = C19H24Cl2NPPt | MND = 4
 OpenBabel04212202113D

 48 50  0  0  0  0  0  0  0  0999 V2000
    0.0168    3.2166    4.9847 Pt  0  0  0  0  0  0  0  0  0  0  0  0
    1.1496    4.5395    6.5179 Cl  0  0  0  0  0  0  0  0  0  0  0  0
   -1.2355    1.9021    3.5139 Cl  0  0  0  0  0  0  0  0  0  0  0  0
    1.2193    1.3597    5.4579 P   0  0  0  0  0  4  0  0  0  0  0  0
   -1.2883    4.7224    4.5649 N   0  0  0  0  0  0  0  0  0  0  0  0
   -2.1875    4.9087    5.5168 C   0  0  0  0  0  0  0  0  0  0  0  0
   -3.4554    5.4285    5.2699 C   0  0  0  0  0  0  0  0  0  0  0  0
   -3.8061    5.7167    3.9729 C   0  0  0  0  0  0  0  0  0  0  0  0
   -3.1814    5.7895    1.5854 C   0  0  0  0  0  3  0  0  0  0  0  0
   -2.2670    5.5782    0.6120 C   0  0  0  0  0  0  0  0  0  0  0  0
    0.0325    5.0541   -0.0849 C   0  0  0  0  0  0  0  0  0  0  0  0
    1.3377    4.7661    0.2229 C   0  0  0  0  0  0  0  0  0  0  0  0
    1.7280    4.6546    1.5587 C   0  0  0  0  0  0  0  0  0  0  0  0
    0.8032    4.7741    2.5679 C   0  0  0  0  0  0  0  0  0  0  0  0
   -2.8590    5.5531    2.9514 C   0  0  0  0  0  0  0  0  0  0  0  0
   -0.9298    5.2028    0.9265 C   0  0  0  0  0  0  0  0  0  0  0  0
   -0.5519    5.0077    2.2761 C   0  0  0  0  0  0  0  0  0  0  0  0
   -1.5646    5.0944    3.2966 C   0  0  0  0  0  0  0  0  0  0  0  0
    2.7249    1.6246    6.4845 C   0  0  0  0  0  0  0  0  0  0  0  0
    3.5548    0.3855    6.7896 C   0  0  0  0  0  0  0  0  0  0  0  0
    1.7713    0.3650    4.0164 C   0  0  0  0  0  0  0  0  0  0  0  0
    2.6288    1.2079    3.0810 C   0  0  0  0  0  0  0  0  0  0  0  0
    0.1733    0.1801    6.3986 C   0  0  0  0  0  0  0  0  0  0  0  0
   -0.4958    0.8979    7.5650 C   0  0  0  0  0  0  0  0  0  0  0  0
    1.1395    4.7361    3.6023 H   0  0  0  0  0  0  0  0  0  0  0  0
   -1.8912    4.6364    6.5244 H   0  0  0  0  0  0  0  0  0  0  0  0
   -4.1489    5.5598    6.0851 H   0  0  0  0  0  0  0  0  0  0  0  0
   -4.7990    6.0627    3.7250 H   0  0  0  0  0  0  0  0  0  0  0  0
   -4.1848    6.1134    1.3506 H   0  0  0  0  0  0  0  0  0  0  0  0
   -2.5257    5.7168   -0.4278 H   0  0  0  0  0  0  0  0  0  0  0  0
   -0.2730    5.1816   -1.1135 H   0  0  0  0  0  0  0  0  0  0  0  0
    2.0701    4.6484   -0.5619 H   0  0  0  0  0  0  0  0  0  0  0  0
    2.7666    4.4823    1.7990 H   0  0  0  0  0  0  0  0  0  0  0  0
    3.3275    2.3728    5.9623 H   0  0  0  0  0  0  0  0  0  0  0  0
    2.3813    2.0975    7.4076 H   0  0  0  0  0  0  0  0  0  0  0  0
    3.9733   -0.0442    5.8827 H   0  0  0  0  0  0  0  0  0  0  0  0
    4.3810    0.6536    7.4452 H   0  0  0  0  0  0  0  0  0  0  0  0
    2.9620   -0.3749    7.2926 H   0  0  0  0  0  0  0  0  0  0  0  0
    2.3022   -0.5247    4.3639 H   0  0  0  0  0  0  0  0  0  0  0  0
    0.8636    0.0489    3.4977 H   0  0  0  0  0  0  0  0  0  0  0  0
    3.5431    1.5354    3.5723 H   0  0  0  0  0  0  0  0  0  0  0  0
    2.8972    0.6425    2.1908 H   0  0  0  0  0  0  0  0  0  0  0  0
    2.0632    2.0877    2.7739 H   0  0  0  0  0  0  0  0  0  0  0  0
    0.7648   -0.6744    6.7363 H   0  0  0  0  0  0  0  0  0  0  0  0
   -0.5854   -0.1777    5.6976 H   0  0  0  0  0  0  0  0  0  0  0  0
    0.2374    1.2169    8.3028 H   0  0  0  0  0  0  0  0  0  0  0  0
   -1.2235    0.2536    8.0542 H   0  0  0  0  0  0  0  0  0  0  0  0
   -1.0119    1.7859    7.1903 H   0  0  0  0  0  0  0  0  0  0  0  0
  1  4  1  0  0  0  0
  1  2  1  0  0  0  0
  3  1  1  0  0  0  0
  4 23  1  0  0  0  0
  4 19  1  0  0  0  0
  5  1  1  0  0  0  0
  5  6  1  0  0  0  0
  6 26  1  0  0  0  0
  7  6  2  0  0  0  0
  7 27  1  0  0  0  0
  8  7  1  0  0  0  0
  9 15  1  0  0  0  0
 10 16  2  0  0  0  0
 10  9  1  0  0  0  0
 11 12  2  0  0  0  0
 11 16  1  0  0  0  0
 12 13  1  0  0  0  0
 13 33  1  0  0  0  0
 13 14  2  0  0  0  0
 14 25  1  0  0  0  0
 15 18  1  0  0  0  0
 15  8  2  0  0  0  0
 16 17  1  0  0  0  0
 17 14  1  0  0  0  0
 17 18  2  0  0  0  0
 18  5  1  0  0  0  0
 19 20  1  0  0  0  0
 19 35  1  0  0  0  0
 20 38  1  0  0  0  0
 20 37  1  0  0  0  0
 21 39  1  0  0  0  0
 21  4  1  0  0  0  0
 22 41  1  0  0  0  0
 22 21  1  0  0  0  0
 23 44  1  0  0  0  0
 23 24  1  0  0  0  0
 24 47  1  0  0  0  0
 24 46  1  0  0  0  0
 28  8  1  0  0  0  0
 29  9  1  0  0  0  0
 30 10  1  0  0  0  0
 31 11  1  0  0  0  0
 32 12  1  0  0  0  0
 34 19  1  0  0  0  0
 36 20  1  0  0  0  0
 40 21  1  0  0  0  0
 42 22  1  0  0  0  0
 43 22  1  0  0  0  0
 45 23  1  0  0  0  0
 48 24  1  0  0  0  0
M  END
$$$$
