CSD_code = VERFOP | q = 0 | S = 0 | Stoichiometry = C24H19ClN2OPtS | MND = 4
 OpenBabel04212202113D

 49 54  0  0  0  0  0  0  0  0999 V2000
    5.2493    1.1932    2.3148 Pt  0  0  1  0  0  0  0  0  0  0  0  0
    6.8169   -0.1385    3.8053 S   0  0  2  0  0  3  0  0  0  0  0  0
    6.0468    3.2141    2.8842 Cl  0  0  0  0  0  0  0  0  0  0  0  0
    3.5313   -0.6401    1.0459 N   0  0  0  0  0  0  0  0  0  0  0  0
    4.5770   -0.5556    1.7998 N   0  0  0  0  0  0  0  0  0  0  0  0
    3.0599    0.5613    0.6710 C   0  0  0  0  0  0  0  0  0  0  0  0
    3.7455    1.7213    1.1154 C   0  0  0  0  0  0  0  0  0  0  0  0
    3.2738    2.9785    0.7485 C   0  0  0  0  0  0  0  0  0  0  0  0
    3.8118    3.8465    1.0980 H   0  0  0  0  0  0  0  0  0  0  0  0
    2.1497    3.1181   -0.0466 C   0  0  0  0  0  0  0  0  0  0  0  0
    1.6430    4.3041   -0.4439 O   0  0  0  0  0  0  0  0  0  0  0  0
    2.2883    5.4925   -0.0440 C   0  0  0  0  0  0  0  0  0  0  0  0
    1.7103    6.3027   -0.4859 H   0  0  0  0  0  0  0  0  0  0  0  0
    3.3160    5.5326   -0.4153 H   0  0  0  0  0  0  0  0  0  0  0  0
    2.2917    5.5982    1.0445 H   0  0  0  0  0  0  0  0  0  0  0  0
    0.2863    2.0809   -1.3065 C   0  0  0  0  0  0  0  0  0  0  0  0
   -0.0535    3.0684   -1.5766 H   0  0  0  0  0  0  0  0  0  0  0  0
   -0.3857    0.9647   -1.7330 C   0  0  0  0  0  0  0  0  0  0  0  0
   -1.2675    1.0650   -2.3484 H   0  0  0  0  0  0  0  0  0  0  0  0
    0.0660   -0.3090   -1.3737 C   0  0  0  0  0  0  0  0  0  0  0  0
   -0.4722   -1.1811   -1.7153 H   0  0  0  0  0  0  0  0  0  0  0  0
    1.1853   -0.4513   -0.5938 C   0  0  0  0  0  0  0  0  0  0  0  0
    1.5480   -1.4256   -0.3069 H   0  0  0  0  0  0  0  0  0  0  0  0
    1.4362    1.9629   -0.5056 C   0  0  0  0  0  0  0  0  0  0  0  0
    1.8931    0.6742   -0.1463 C   0  0  0  0  0  0  0  0  0  0  0  0
    5.1555   -1.7327    2.2315 C   0  0  0  0  0  0  0  0  0  0  0  0
    6.2276   -1.6933    3.1344 C   0  0  0  0  0  0  0  0  0  0  0  0
    6.8357   -2.8610    3.5601 C   0  0  0  0  0  0  0  0  0  0  0  0
    7.6657   -2.8001    4.2484 H   0  0  0  0  0  0  0  0  0  0  0  0
    6.3809   -4.0871    3.1081 C   0  0  0  0  0  0  0  0  0  0  0  0
    6.8576   -4.9951    3.4435 H   0  0  0  0  0  0  0  0  0  0  0  0
    5.3113   -4.1407    2.2239 C   0  0  0  0  0  0  0  0  0  0  0  0
    4.9532   -5.0963    1.8717 H   0  0  0  0  0  0  0  0  0  0  0  0
    4.7059   -2.9829    1.7872 C   0  0  0  0  0  0  0  0  0  0  0  0
    3.8787   -3.0013    1.0959 H   0  0  0  0  0  0  0  0  0  0  0  0
    5.7730   -0.1150    5.3410 C   0  0  0  0  0  0  0  0  0  0  0  0
    6.0601   -0.9908    5.9221 H   0  0  0  0  0  0  0  0  0  0  0  0
    6.0725    0.7977    5.8545 H   0  0  0  0  0  0  0  0  0  0  0  0
    4.3310   -0.1142    4.9664 C   0  0  0  0  0  0  0  0  0  0  0  0
    3.6350   -1.3092    4.8260 C   0  0  0  0  0  0  0  0  0  0  0  0
    4.1109   -2.2425    5.0943 H   0  0  0  0  0  0  0  0  0  0  0  0
    2.3394   -1.3113    4.3361 C   0  0  0  0  0  0  0  0  0  0  0  0
    1.8149   -2.2477    4.2200 H   0  0  0  0  0  0  0  0  0  0  0  0
    1.7273   -0.1217    3.9829 C   0  0  0  0  0  0  0  0  0  0  0  0
    0.7248   -0.1276    3.5827 H   0  0  0  0  0  0  0  0  0  0  0  0
    2.3987    1.0795    4.1516 C   0  0  0  0  0  0  0  0  0  0  0  0
    1.9113    2.0115    3.9093 H   0  0  0  0  0  0  0  0  0  0  0  0
    3.7009    1.0896    4.6318 C   0  0  0  0  0  0  0  0  0  0  0  0
    4.1988    2.0328    4.8252 H   0  0  0  0  0  0  0  0  0  0  0  0
  1  3  1  6  0  0  0
  1  2  1  0  0  0  0
  2 36  1  1  0  0  0
  4  5  1  0  0  0  0
  5 26  1  0  0  0  0
  5  1  1  0  0  0  0
  6  4  2  0  0  0  0
  6  7  1  0  0  0  0
  7  1  2  0  0  0  0
  8  9  1  0  0  0  0
  8  7  1  0  0  0  0
 10  8  2  0  0  0  0
 11 10  1  0  0  0  0
 11 12  1  0  0  0  0
 12 15  1  0  0  0  0
 13 12  1  0  0  0  0
 14 12  1  0  0  0  0
 16 24  1  0  0  0  0
 17 16  1  0  0  0  0
 18 20  1  0  0  0  0
 18 16  2  0  0  0  0
 19 18  1  0  0  0  0
 20 22  2  0  0  0  0
 21 20  1  0  0  0  0
 22 23  1  0  0  0  0
 22 25  1  0  0  0  0
 24 25  2  0  0  0  0
 24 10  1  0  0  0  0
 25  6  1  0  0  0  0
 26 27  1  0  0  0  0
 27 28  2  0  0  0  0
 27  2  1  0  0  0  0
 28 29  1  0  0  0  0
 30 31  1  0  0  0  0
 30 28  1  0  0  0  0
 32 30  2  0  0  0  0
 33 32  1  0  0  0  0
 34 32  1  0  0  0  0
 34 26  2  0  0  0  0
 35 34  1  0  0  0  0
 36 38  1  0  0  0  0
 36 37  1  0  0  0  0
 39 36  1  0  0  0  0
 40 39  1  0  0  0  0
 40 41  1  0  0  0  0
 42 40  2  0  0  0  0
 43 42  1  0  0  0  0
 44 46  2  0  0  0  0
 44 42  1  0  0  0  0
 45 44  1  0  0  0  0
 46 48  1  0  0  0  0
 47 46  1  0  0  0  0
 48 49  1  0  0  0  0
 48 39  2  0  0  0  0
M  END
$$$$
