CSD_code = VERLEL | q = 0 | S = 0 | Stoichiometry = C18H26Cl2OPdS2Si2 | MND = 4
 OpenBabel04212202113D

 52 54  0  0  0  0  0  0  0  0999 V2000
    2.9639    6.5497    5.1842 C   0  0  0  0  0  0  0  0  0  0  0  0
    2.8922    5.5258    5.5422 H   0  0  0  0  0  0  0  0  0  0  0  0
    3.9549    6.9432    5.3972 H   0  0  0  0  0  0  0  0  0  0  0  0
   -0.8029    3.9981    4.2044 C   0  0  0  0  0  0  0  0  0  0  0  0
   -1.8589    4.1409    4.4164 H   0  0  0  0  0  0  0  0  0  0  0  0
   -0.5887    2.9354    4.0971 H   0  0  0  0  0  0  0  0  0  0  0  0
    1.9800    8.4136    2.8404 C   0  0  0  0  0  0  0  0  0  0  0  0
    1.7312    8.4827    1.7851 H   0  0  0  0  0  0  0  0  0  0  0  0
    2.7648    9.1369    3.0406 H   0  0  0  0  0  0  0  0  0  0  0  0
    1.0989    8.7241    3.4066 H   0  0  0  0  0  0  0  0  0  0  0  0
    3.9109    5.9257    2.2877 C   0  0  0  0  0  0  0  0  0  0  0  0
    4.1703    4.9205    2.6023 H   0  0  0  0  0  0  0  0  0  0  0  0
    4.8010    6.5391    2.3608 H   0  0  0  0  0  0  0  0  0  0  0  0
    3.6273    5.8792    1.2430 H   0  0  0  0  0  0  0  0  0  0  0  0
    0.1201    3.8911    1.2395 C   0  0  0  0  0  0  0  0  0  0  0  0
    0.5243    4.4450    0.4007 H   0  0  0  0  0  0  0  0  0  0  0  0
   -0.7886    3.4044    0.9061 H   0  0  0  0  0  0  0  0  0  0  0  0
    0.8368    3.1205    1.5010 H   0  0  0  0  0  0  0  0  0  0  0  0
   -1.3078    6.5488    2.2088 C   0  0  0  0  0  0  0  0  0  0  0  0
   -1.1445    7.3953    2.8865 H   0  0  0  0  0  0  0  0  0  0  0  0
   -2.3667    6.3104    2.2440 H   0  0  0  0  0  0  0  0  0  0  0  0
   -1.0737    6.8802    1.2008 H   0  0  0  0  0  0  0  0  0  0  0  0
    1.5834    6.7286    7.6703 C   0  0  0  0  0  0  0  0  0  0  0  0
    0.3563    6.8618    8.3235 C   0  0  0  0  0  0  0  0  0  0  0  0
   -0.4434    7.4672    7.8806 H   0  0  0  0  0  0  0  0  0  0  0  0
    0.1604    6.2401    9.5423 C   0  0  0  0  0  0  0  0  0  0  0  0
   -0.7919    6.3334   10.0415 H   0  0  0  0  0  0  0  0  0  0  0  0
    1.1773    5.4914   10.1154 C   0  0  0  0  0  0  0  0  0  0  0  0
    1.0168    4.9989   11.0620 H   0  0  0  0  0  0  0  0  0  0  0  0
    2.3986    5.3820    9.4747 C   0  0  0  0  0  0  0  0  0  0  0  0
    3.1980    4.8115    9.9238 H   0  0  0  0  0  0  0  0  0  0  0  0
    2.6107    6.0051    8.2557 C   0  0  0  0  0  0  0  0  0  0  0  0
    3.5700    5.9240    7.7677 H   0  0  0  0  0  0  0  0  0  0  0  0
   -0.6339    3.8551    7.0569 C   0  0  0  0  0  0  0  0  0  0  0  0
   -1.9841    3.9952    7.3355 C   0  0  0  0  0  0  0  0  0  0  0  0
   -2.6182    4.5704    6.6758 H   0  0  0  0  0  0  0  0  0  0  0  0
   -2.4981    3.4211    8.4849 C   0  0  0  0  0  0  0  0  0  0  0  0
   -3.5489    3.5318    8.7064 H   0  0  0  0  0  0  0  0  0  0  0  0
   -1.6743    2.7198    9.3502 C   0  0  0  0  0  0  0  0  0  0  0  0
   -2.0830    2.2793   10.2474 H   0  0  0  0  0  0  0  0  0  0  0  0
   -0.3254    2.5864    9.0661 C   0  0  0  0  0  0  0  0  0  0  0  0
    0.3215    2.0416    9.7374 H   0  0  0  0  0  0  0  0  0  0  0  0
    0.1975    3.1506    7.9170 C   0  0  0  0  0  0  0  0  0  0  0  0
    1.2483    3.0561    7.6860 H   0  0  0  0  0  0  0  0  0  0  0  0
   -2.6237    6.4815    5.2042 Cl  0  0  0  0  0  0  0  0  0  0  0  0
   -0.8487    9.0985    5.1341 Cl  0  0  0  0  0  0  0  0  0  0  0  0
    1.2203    5.6390    3.2261 O   0  0  0  0  0  0  0  0  0  0  0  0
   -0.4026    6.8931    5.3951 Pd  0  0  0  0  0  0  0  0  0  0  0  0
    1.7644    7.5580    6.0990 S   0  0  2  0  0  3  0  0  0  0  0  0
    0.1483    4.6021    5.6297 S   0  0  2  0  0  3  0  0  0  0  0  0
    2.4933    6.6502    3.3176 Si  0  0  0  0  0  0  0  0  0  0  0  0
   -0.2282    5.0601    2.6936 Si  0  0  0  0  0  0  0  0  0  0  0  0
  1  3  1  0  0  0  0
  1  2  1  0  0  0  0
  1 49  1  0  0  0  0
  4  5  1  0  0  0  0
  4 50  1  0  0  0  0
  6  4  1  0  0  0  0
  7  9  1  0  0  0  0
  7 51  1  0  0  0  0
  7 10  1  0  0  0  0
  8  7  1  0  0  0  0
 11 13  1  0  0  0  0
 11 12  1  0  0  0  0
 11 51  1  0  0  0  0
 14 11  1  0  0  0  0
 15 18  1  0  0  0  0
 15 52  1  0  0  0  0
 16 15  1  0  0  0  0
 17 15  1  0  0  0  0
 19 21  1  0  0  0  0
 19 52  1  0  0  0  0
 19 20  1  0  0  0  0
 22 19  1  0  0  0  0
 23 32  2  0  0  0  0
 23 24  1  0  0  0  0
 24 26  2  0  0  0  0
 25 24  1  0  0  0  0
 26 27  1  0  0  0  0
 26 28  1  0  0  0  0
 28 29  1  0  0  0  0
 30 31  1  0  0  0  0
 30 28  2  0  0  0  0
 32 30  1  0  0  0  0
 33 32  1  0  0  0  0
 34 35  2  0  0  0  0
 34 43  1  0  0  0  0
 35 37  1  0  0  0  0
 36 35  1  0  0  0  0
 37 38  1  0  0  0  0
 37 39  2  0  0  0  0
 39 40  1  0  0  0  0
 41 39  1  0  0  0  0
 41 42  1  0  0  0  0
 43 41  2  0  0  0  0
 44 43  1  0  0  0  0
 45 48  1  0  0  0  0
 46 48  1  0  0  0  0
 47 51  1  0  0  0  0
 48 50  1  0  0  0  0
 48 49  1  0  0  0  0
 49 23  1  1  0  0  0
 50 34  1  1  0  0  0
 51  1  1  0  0  0  0
 52 47  1  0  0  0  0
 52  4  1  0  0  0  0
M  END
$$$$
