CSD_code = VERYEW | q = 0 | S = 0 | Stoichiometry = C11H9ClO2Pt | MND = 4
 OpenBabel04212202113D

 24 25  0  0  0  0  0  0  0  0999 V2000
    9.1649    4.5203    1.7444 Pt  0  0  2  0  0  0  0  0  0  0  0  0
    8.2029    2.4607    1.7345 Cl  0  0  0  0  0  0  0  0  0  0  0  0
    7.3777    5.3409    1.1966 O   0  0  0  0  0  0  0  0  0  0  0  0
   11.7342    3.3200    2.6651 O   0  0  0  0  0  1  0  0  0  0  0  0
    9.6939    6.4832    1.6698 C   0  0  0  0  0  0  0  0  0  0  0  0
    8.6244    7.2782    1.3687 C   0  0  0  0  0  0  0  0  0  0  0  0
    7.3974    6.5903    1.1265 C   0  0  0  0  0  0  0  0  0  0  0  0
    6.1472    7.3339    0.7764 C   0  0  0  0  0  0  0  0  0  0  0  0
   11.0077    7.0635    1.9020 C   0  0  0  0  0  0  0  0  0  0  0  0
   12.1446    6.4649    1.3515 C   0  0  0  0  0  0  0  0  0  0  0  0
   13.3934    7.0218    1.5383 C   0  0  0  0  0  0  0  0  0  0  0  0
   13.5368    8.1687    2.3049 C   0  0  0  0  0  0  0  0  0  0  0  0
   12.4201    8.7646    2.8678 C   0  0  0  0  0  0  0  0  0  0  0  0
   11.1642    8.2278    2.6587 C   0  0  0  0  0  0  0  0  0  0  0  0
   10.7721    3.8067    2.2965 C   0  0  0  0  0  2  0  0  0  0  0  0
    8.6823    8.3539    1.2690 H   0  0  0  0  0  0  0  0  0  0  0  0
    5.9141    8.0537    1.5590 H   0  0  0  0  0  0  0  0  0  0  0  0
    6.2986    7.8868   -0.1493 H   0  0  0  0  0  0  0  0  0  0  0  0
    5.3183    6.6415    0.6553 H   0  0  0  0  0  0  0  0  0  0  0  0
   12.0252    5.5724    0.7502 H   0  0  0  0  0  0  0  0  0  0  0  0
   14.2610    6.5568    1.0949 H   0  0  0  0  0  0  0  0  0  0  0  0
   14.5162    8.5932    2.4657 H   0  0  0  0  0  0  0  0  0  0  0  0
   12.5291    9.6547    3.4697 H   0  0  0  0  0  0  0  0  0  0  0  0
   10.2971    8.6887    3.1079 H   0  0  0  0  0  0  0  0  0  0  0  0
  1  2  1  6  0  0  0
  1 15  1  0  0  0  0
  3  1  1  0  0  0  0
  5  1  2  0  0  0  0
  5  9  1  0  0  0  0
  6  5  1  0  0  0  0
  7  3  1  0  0  0  0
  7  6  2  0  0  0  0
  8  7  1  0  0  0  0
  8 17  1  0  0  0  0
  9 14  1  0  0  0  0
 10 11  1  0  0  0  0
 10  9  2  0  0  0  0
 11 12  2  0  0  0  0
 12 22  1  0  0  0  0
 12 13  1  0  0  0  0
 13 23  1  0  0  0  0
 14 13  2  0  0  0  0
 14 24  1  0  0  0  0
 15  4  1  0  0  0  0
 16  6  1  0  0  0  0
 18  8  1  0  0  0  0
 19  8  1  0  0  0  0
 20 10  1  0  0  0  0
 21 11  1  0  0  0  0
M  END
$$$$
