CSD_code = VESQOZ | q = 0 | S = 0 | Stoichiometry = C18H17ClN4OPd | MND = 4
 OpenBabel04212202113D

 42 46  0  0  1  0  0  0  0  0999 V2000
    5.9988    3.1343   14.1261 Pd  0  0  2  0  0  0  0  0  0  0  0  0
    7.6541    3.9725   15.3050 Cl  0  0  0  0  0  0  0  0  0  0  0  0
    5.5234    1.9823   15.7590 C   0  0  0  0  0  0  0  0  0  0  0  0
    4.5045    2.5188   13.0001 N   0  0  0  0  0  0  0  0  0  0  0  0
    3.6633    3.3403   12.3695 C   0  0  2  0  0  3  0  0  0  0  0  0
    2.6220    2.6374   11.8078 N   0  0  0  0  0  0  0  0  0  0  0  0
    1.5068    3.1205   11.0392 C   0  0  0  0  0  0  0  0  0  0  0  0
    2.8486    1.3141   12.0610 C   0  0  0  0  0  0  0  0  0  0  0  0
    4.0428    1.2502   12.8100 C   0  0  0  0  0  0  0  0  0  0  0  0
    4.5868    0.0250   13.1919 C   0  0  0  0  0  0  0  0  0  0  0  0
    3.8941   -1.1099   12.8353 C   0  0  0  0  0  0  0  0  0  0  0  0
    2.6953   -1.0410   12.1147 C   0  0  0  0  0  0  0  0  0  0  0  0
    2.1556    0.1609   11.7089 C   0  0  0  0  0  0  0  0  0  0  0  0
    6.2664    4.5997   12.5196 N   0  0  0  0  0  0  0  0  0  0  0  0
    5.1713    5.3328   12.3159 C   0  0  1  0  0  3  0  0  0  0  0  0
    5.4928    6.6410   12.0517 N   0  0  0  0  0  0  0  0  0  0  0  0
    4.6276    7.7667   11.8215 C   0  0  0  0  0  0  0  0  0  0  0  0
    6.8551    6.7350   12.1067 C   0  0  0  0  0  0  0  0  0  0  0  0
    7.3307    5.4355   12.3990 C   0  0  0  0  0  0  0  0  0  0  0  0
    8.6973    5.1769   12.5185 C   0  0  0  0  0  0  0  0  0  0  0  0
    9.5499    6.2441   12.3608 C   0  0  0  0  0  0  0  0  0  0  0  0
    9.0741    7.5321   12.0796 C   0  0  0  0  0  0  0  0  0  0  0  0
    7.7295    7.8030   11.9433 C   0  0  0  0  0  0  0  0  0  0  0  0
    3.8143    4.7877   12.2128 C   0  0  0  0  0  0  0  0  0  0  0  0
    2.8490    5.5016   11.9167 O   0  0  0  0  0  0  0  0  0  0  0  0
    6.3261    1.2638   15.9664 H   0  0  0  0  0  0  0  0  0  0  0  0
    4.5762    1.4465   15.6232 H   0  0  0  0  0  0  0  0  0  0  0  0
    5.4334    2.6475   16.6269 H   0  0  0  0  0  0  0  0  0  0  0  0
    1.5362    4.2062   11.0004 H   0  0  0  0  0  0  0  0  0  0  0  0
    0.5746    2.8053   11.5116 H   0  0  0  0  0  0  0  0  0  0  0  0
    1.5476    2.7118   10.0271 H   0  0  0  0  0  0  0  0  0  0  0  0
    5.5253   -0.0062   13.7296 H   0  0  0  0  0  0  0  0  0  0  0  0
    4.2807   -2.0793   13.1097 H   0  0  0  0  0  0  0  0  0  0  0  0
    2.1860   -1.9585   11.8615 H   0  0  0  0  0  0  0  0  0  0  0  0
    1.2405    0.2028   11.1395 H   0  0  0  0  0  0  0  0  0  0  0  0
    4.8935    8.2450   10.8769 H   0  0  0  0  0  0  0  0  0  0  0  0
    4.7439    8.4910   12.6304 H   0  0  0  0  0  0  0  0  0  0  0  0
    3.5955    7.4287   11.7817 H   0  0  0  0  0  0  0  0  0  0  0  0
    9.0454    4.1804   12.7440 H   0  0  0  0  0  0  0  0  0  0  0  0
   10.6141    6.0942   12.4582 H   0  0  0  0  0  0  0  0  0  0  0  0
    9.7860    8.3360   11.9662 H   0  0  0  0  0  0  0  0  0  0  0  0
    7.3747    8.7982   11.7249 H   0  0  0  0  0  0  0  0  0  0  0  0
  1  2  1  6  0  0  0
  1  3  1  0  0  0  0
  3 26  1  0  0  0  0
  3 28  1  0  0  0  0
  4  1  1  0  0  0  0
  5 24  1  6  0  0  0
  5  4  1  0  0  0  0
  6  8  1  0  0  0  0
  6  5  1  0  0  0  0
  7 30  1  0  0  0  0
  7  6  1  0  0  0  0
  8  9  1  0  0  0  0
  9  4  1  0  0  0  0
  9 10  2  0  0  0  0
 10 32  1  0  0  0  0
 11 33  1  0  0  0  0
 11 10  1  0  0  0  0
 12 11  2  0  0  0  0
 13  8  2  0  0  0  0
 13 12  1  0  0  0  0
 14  1  1  0  0  0  0
 15 24  1  6  0  0  0
 15 14  1  0  0  0  0
 16 18  1  0  0  0  0
 16 15  1  0  0  0  0
 17 16  1  0  0  0  0
 17 37  1  0  0  0  0
 18 19  1  0  0  0  0
 19 20  2  0  0  0  0
 19 14  1  0  0  0  0
 20 39  1  0  0  0  0
 21 40  1  0  0  0  0
 21 20  1  0  0  0  0
 22 21  2  0  0  0  0
 23 22  1  0  0  0  0
 23 18  2  0  0  0  0
 25 24  2  0  0  0  0
 27  3  1  0  0  0  0
 29  7  1  0  0  0  0
 31  7  1  0  0  0  0
 34 12  1  0  0  0  0
 35 13  1  0  0  0  0
 36 17  1  0  0  0  0
 38 17  1  0  0  0  0
 41 22  1  0  0  0  0
 42 23  1  0  0  0  0
M  END
$$$$
