CSD_code = VETDOQ | q = 0 | S = 0 | Stoichiometry = C25H26IN2OPPt | MND = 6
 OpenBabel04212202113D

 57 61  0  0  0  0  0  0  0  0999 V2000
    7.2102    6.7913    5.7414 C   0  0  0  0  0  3  0  0  0  0  0  0
    7.5428    6.4460    4.7702 H   0  0  0  0  0  0  0  0  0  0  0  0
    8.0321    7.5934    6.5088 C   0  0  0  0  0  0  0  0  0  0  0  0
    8.9996    7.8892    6.1364 H   0  0  0  0  0  0  0  0  0  0  0  0
    7.5769    7.9850    7.7583 C   0  0  0  0  0  0  0  0  0  0  0  0
    8.1843    8.6077    8.3973 H   0  0  0  0  0  0  0  0  0  0  0  0
    6.3397    7.5504    8.1898 C   0  0  0  0  0  0  0  0  0  0  0  0
    5.9646    7.8216    9.1624 H   0  0  0  0  0  0  0  0  0  0  0  0
    5.5625    6.7371    7.3594 C   0  0  0  0  0  0  0  0  0  0  0  0
    4.2967    6.1171    7.7457 C   0  0  0  0  0  0  0  0  0  0  0  0
    3.7713    5.1065    6.9233 C   0  0  0  0  0  0  0  0  0  0  0  0
    2.6356    4.4235    7.3313 C   0  0  0  0  0  0  0  0  0  0  0  0
    2.2017    3.6414    6.7304 H   0  0  0  0  0  0  0  0  0  0  0  0
    2.0490    4.7542    8.5435 C   0  0  0  0  0  0  0  0  0  0  0  0
    1.1769    4.2274    8.8975 H   0  0  0  0  0  0  0  0  0  0  0  0
    2.5674    5.7774    9.2942 C   0  0  0  0  0  0  0  0  0  0  0  0
    2.1391    6.1063   10.2282 H   0  0  0  0  0  0  0  0  0  0  0  0
    3.5484    3.3302    4.4724 C   0  0  0  0  0  0  0  0  0  0  0  0
    3.4474    2.5682    5.2479 H   0  0  0  0  0  0  0  0  0  0  0  0
    4.0189    2.8540    3.6080 H   0  0  0  0  0  0  0  0  0  0  0  0
    2.5536    3.6598    4.1704 H   0  0  0  0  0  0  0  0  0  0  0  0
    3.3515    6.2419    4.4720 C   0  0  0  0  0  0  0  0  0  0  0  0
    3.6372    7.2473    4.7899 H   0  0  0  0  0  0  0  0  0  0  0  0
    2.3486    6.0503    4.8533 H   0  0  0  0  0  0  0  0  0  0  0  0
    3.3026    6.2122    3.3830 H   0  0  0  0  0  0  0  0  0  0  0  0
    7.2616    3.4972    2.8449 C   0  0  0  0  0  0  0  0  0  0  0  0
    7.5322    3.3357    1.8019 H   0  0  0  0  0  0  0  0  0  0  0  0
    6.8795    2.5700    3.2716 H   0  0  0  0  0  0  0  0  0  0  0  0
    8.1366    3.7891    3.4270 H   0  0  0  0  0  0  0  0  0  0  0  0
    4.9374    4.4640    1.5438 C   0  0  0  0  0  0  0  0  0  0  0  0
    4.2915    5.5121    0.8947 C   0  0  0  0  0  0  0  0  0  0  0  0
    4.4519    6.5307    1.2198 H   0  0  0  0  0  0  0  0  0  0  0  0
    3.4581    5.2628   -0.1798 C   0  0  0  0  0  0  0  0  0  0  0  0
    2.9664    6.0858   -0.6775 H   0  0  0  0  0  0  0  0  0  0  0  0
    3.2538    3.9646   -0.6161 C   0  0  0  0  0  0  0  0  0  0  0  0
    2.6008    3.7707   -1.4538 H   0  0  0  0  0  0  0  0  0  0  0  0
    3.8916    2.9165    0.0253 C   0  0  0  0  0  0  0  0  0  0  0  0
    3.7374    1.9016   -0.3104 H   0  0  0  0  0  0  0  0  0  0  0  0
    4.7271    3.1616    1.0998 C   0  0  0  0  0  0  0  0  0  0  0  0
    5.2155    2.3310    1.5885 H   0  0  0  0  0  0  0  0  0  0  0  0
    6.8387    6.2966    2.3913 C   0  0  0  0  0  0  0  0  0  0  0  0
    7.9731    6.2387    1.5899 C   0  0  0  0  0  0  0  0  0  0  0  0
    8.4121    5.2899    1.3237 H   0  0  0  0  0  0  0  0  0  0  0  0
    8.5559    7.4047    1.1246 C   0  0  0  0  0  0  0  0  0  0  0  0
    9.4381    7.3478    0.5040 H   0  0  0  0  0  0  0  0  0  0  0  0
    8.0151    8.6375    1.4478 C   0  0  0  0  0  0  0  0  0  0  0  0
    8.4740    9.5434    1.0811 H   0  0  0  0  0  0  0  0  0  0  0  0
    6.8860    8.7041    2.2471 C   0  0  0  0  0  0  0  0  0  0  0  0
    6.4602    9.6620    2.5080 H   0  0  0  0  0  0  0  0  0  0  0  0
    6.3047    7.5416    2.7170 C   0  0  0  0  0  0  0  0  0  0  0  0
    5.4356    7.5966    3.3575 H   0  0  0  0  0  0  0  0  0  0  0  0
    6.0103    6.3936    6.1361 N   0  0  0  0  0  0  0  0  0  0  0  0
    3.6591    6.4702    8.9085 N   0  3  0  0  0  0  0  0  0  0  0  0
    4.0437    7.4317    9.6278 O   0  5  0  0  0  0  0  0  0  0  0  0
    4.7610    4.8706    5.1784 Pt  0  0  0  0  0  0  0  0  0  0  0  0
    6.4835    3.0862    6.3065 I   0  0  0  0  0  0  0  0  0  0  0  0
    5.9834    4.7968    3.0051 P   0  0  0  0  0  4  0  0  0  0  0  0
  1 52  1  0  0  0  0
  1  3  1  0  0  0  0
  2  1  1  0  0  0  0
  3  5  2  0  0  0  0
  4  3  1  0  0  0  0
  5  7  1  0  0  0  0
  5  6  1  0  0  0  0
  7  8  1  0  0  0  0
  9 10  1  0  0  0  0
  9  7  2  0  0  0  0
 10 53  1  0  0  0  0
 11 12  1  0  0  0  0
 11 10  2  0  0  0  0
 12 14  2  0  0  0  0
 13 12  1  0  0  0  0
 14 15  1  0  0  0  0
 14 16  1  0  0  0  0
 16 17  1  0  0  0  0
 18 55  1  0  0  0  0
 18 19  1  0  0  0  0
 20 18  1  0  0  0  0
 21 18  1  0  0  0  0
 22 23  1  0  0  0  0
 22 24  1  0  0  0  0
 22 55  1  0  0  0  0
 25 22  1  0  0  0  0
 26 57  1  0  0  0  0
 26 28  1  0  0  0  0
 26 29  1  0  0  0  0
 27 26  1  0  0  0  0
 30 57  1  0  0  0  0
 31 32  1  0  0  0  0
 31 30  2  0  0  0  0
 33 31  1  0  0  0  0
 34 33  1  0  0  0  0
 35 33  2  0  0  0  0
 35 37  1  0  0  0  0
 36 35  1  0  0  0  0
 37 39  2  0  0  0  0
 38 37  1  0  0  0  0
 39 30  1  0  0  0  0
 39 40  1  0  0  0  0
 41 50  1  0  0  0  0
 41 57  1  0  0  0  0
 42 41  2  0  0  0  0
 43 42  1  0  0  0  0
 44 46  2  0  0  0  0
 44 42  1  0  0  0  0
 45 44  1  0  0  0  0
 46 48  1  0  0  0  0
 47 46  1  0  0  0  0
 48 49  1  0  0  0  0
 48 50  2  0  0  0  0
 50 51  1  0  0  0  0
 52  9  1  0  0  0  0
 53 16  2  0  0  0  0
 53 54  1  0  0  0  0
 55 52  1  0  0  0  0
 55 56  1  0  0  0  0
 55 11  1  0  0  0  0
 57 55  1  0  0  0  0
M  CHG  2  53   1  54  -1
M  END
$$$$
