CSD_code = VETLIR | q = 0 | S = 0 | Stoichiometry = C25H24ClN3OPt | MND = 4
 OpenBabel04212202113D

 55 61  0  0  0  0  0  0  0  0999 V2000
    4.3877    7.0694    6.6883 Pt  0  0  1  0  0  0  0  0  0  0  0  0
    3.6276    8.9103    5.7378 Cl  0  0  0  0  0  0  0  0  0  0  0  0
    5.0064    5.5051    7.5891 N   0  0  0  0  0  0  0  0  0  0  0  0
    5.7475    4.5958    6.9355 C   0  0  0  0  0  0  0  0  0  0  0  0
    6.1943    3.4561    7.6205 C   0  0  0  0  0  0  0  0  0  0  0  0
    6.7897    2.7224    7.1012 H   0  0  0  0  0  0  0  0  0  0  0  0
    5.8765    3.2742    8.9481 C   0  0  0  0  0  0  0  0  0  0  0  0
    6.2137    2.4036    9.4875 H   0  0  0  0  0  0  0  0  0  0  0  0
    5.1000    4.2345    9.6224 C   0  0  0  0  0  0  0  0  0  0  0  0
    4.7146    4.1484   11.0060 C   0  0  0  0  0  0  0  0  0  0  0  0
    3.9561    5.1376   11.5711 C   0  0  0  0  0  0  0  0  0  0  0  0
    3.6572    5.0864   12.6061 H   0  0  0  0  0  0  0  0  0  0  0  0
    3.5264    6.2696   10.8272 C   0  0  0  0  0  0  0  0  0  0  0  0
    2.7452    7.3087   11.3617 C   0  0  0  0  0  0  0  0  0  0  0  0
    2.4364    7.2694   12.3962 H   0  0  0  0  0  0  0  0  0  0  0  0
    2.3852    8.3627   10.5534 C   0  0  0  0  0  0  0  0  0  0  0  0
    1.7859    9.1736   10.9361 H   0  0  0  0  0  0  0  0  0  0  0  0
    2.8000    8.3858    9.2187 C   0  0  0  0  0  0  0  0  0  0  0  0
    2.5332    9.2019    8.5608 H   0  0  0  0  0  0  0  0  0  0  0  0
    3.5308    7.4269    8.6909 N   0  0  0  0  0  0  0  0  0  0  0  0
    3.8918    6.3840    9.4701 C   0  0  0  0  0  0  0  0  0  0  0  0
    4.6821    5.3523    8.8818 C   0  0  0  0  0  0  0  0  0  0  0  0
    5.9702    4.9785    5.5516 C   0  0  0  0  0  0  0  0  0  0  0  0
    5.3751    6.2150    5.1744 C   0  0  0  0  0  0  0  0  0  0  0  0
    5.5486    6.6461    3.8655 C   0  0  0  0  0  3  0  0  0  0  0  0
    5.1098    7.5812    3.5483 H   0  0  0  0  0  0  0  0  0  0  0  0
    6.2780    5.8926    2.9579 C   0  0  0  0  0  0  0  0  0  0  0  0
    6.4005    6.2469    1.9445 H   0  0  0  0  0  0  0  0  0  0  0  0
    6.8521    4.6881    3.3377 C   0  0  0  0  0  0  0  0  0  0  0  0
    7.4176    4.1089    2.6223 H   0  0  0  0  0  0  0  0  0  0  0  0
    6.7008    4.2293    4.6308 C   0  0  0  0  0  0  0  0  0  0  0  0
    7.1483    3.2911    4.9261 H   0  0  0  0  0  0  0  0  0  0  0  0
    5.1637    3.0448   11.6424 O   0  0  0  0  0  0  0  0  0  0  0  0
    4.8781    2.8822   13.0171 C   0  0  0  0  0  0  0  0  0  0  0  0
    3.7955    2.8375   13.1874 H   0  0  0  0  0  0  0  0  0  0  0  0
    5.2916    3.7240   13.5856 H   0  0  0  0  0  0  0  0  0  0  0  0
    5.5063    1.5586   13.4590 C   0  0  0  0  0  0  0  0  0  0  0  0
    5.1253    0.7808   12.7933 H   0  0  0  0  0  0  0  0  0  0  0  0
    6.5992    1.6136   13.3212 H   0  0  0  0  0  0  0  0  0  0  0  0
    5.1297    1.2388   14.8208 N   0  0  0  0  0  0  0  0  0  0  0  0
    5.1403   -0.1897   15.0888 C   0  0  0  0  0  0  0  0  0  0  0  0
    6.1665   -0.5993   15.0542 H   0  0  0  0  0  0  0  0  0  0  0  0
    4.5487   -0.6885   14.3173 H   0  0  0  0  0  0  0  0  0  0  0  0
    4.5290   -0.4669   16.4588 C   0  0  0  0  0  0  0  0  0  0  0  0
    3.4979   -0.1106   16.4604 H   0  0  0  0  0  0  0  0  0  0  0  0
    4.5237   -1.5423   16.6429 H   0  0  0  0  0  0  0  0  0  0  0  0
    5.3173    0.2601   17.5418 C   0  0  0  0  0  0  0  0  0  0  0  0
    6.3330   -0.1402   17.5871 H   0  0  0  0  0  0  0  0  0  0  0  0
    4.8515    0.1102   18.5171 H   0  0  0  0  0  0  0  0  0  0  0  0
    5.3681    1.7442   17.1994 C   0  0  0  0  0  0  0  0  0  0  0  0
    4.3583    2.1566   17.2223 H   0  0  0  0  0  0  0  0  0  0  0  0
    5.9796    2.2859   17.9228 H   0  0  0  0  0  0  0  0  0  0  0  0
    5.9450    1.9370   15.8008 C   0  0  0  0  0  0  0  0  0  0  0  0
    5.9556    3.0004   15.5546 H   0  0  0  0  0  0  0  0  0  0  0  0
    6.9891    1.5719   15.7793 H   0  0  0  0  0  0  0  0  0  0  0  0
  1  2  1  1  0  0  0
  1  3  1  0  0  0  0
  1 20  1  0  0  0  0
  3 22  1  0  0  0  0
  4  3  1  0  0  0  0
  4  5  2  0  0  0  0
  5  7  1  0  0  0  0
  6  5  1  0  0  0  0
  7  8  1  0  0  0  0
  7  9  2  0  0  0  0
  9 10  1  0  0  0  0
 10 11  2  0  0  0  0
 10 33  1  0  0  0  0
 11 12  1  0  0  0  0
 13 14  2  0  0  0  0
 13 11  1  0  0  0  0
 14 15  1  0  0  0  0
 16 17  1  0  0  0  0
 16 14  1  0  0  0  0
 18 16  2  0  0  0  0
 19 18  1  0  0  0  0
 20 18  1  0  0  0  0
 20 21  1  0  0  0  0
 21 13  1  0  0  0  0
 22 21  2  0  0  0  0
 22  9  1  0  0  0  0
 23  4  1  0  0  0  0
 24 23  1  0  0  0  0
 24  1  2  0  0  0  0
 25 24  1  0  0  0  0
 26 25  1  0  0  0  0
 27 29  2  0  0  0  0
 27 25  1  0  0  0  0
 28 27  1  0  0  0  0
 29 31  1  0  0  0  0
 30 29  1  0  0  0  0
 31 32  1  0  0  0  0
 31 23  2  0  0  0  0
 33 34  1  0  0  0  0
 34 35  1  0  0  0  0
 34 37  1  0  0  0  0
 34 36  1  0  0  0  0
 37 40  1  0  0  0  0
 38 37  1  0  0  0  0
 39 37  1  0  0  0  0
 40 41  1  0  0  0  0
 40 53  1  0  0  0  0
 41 44  1  0  0  0  0
 42 41  1  0  0  0  0
 43 41  1  0  0  0  0
 44 45  1  0  0  0  0
 44 46  1  0  0  0  0
 44 47  1  0  0  0  0
 47 48  1  0  0  0  0
 47 49  1  0  0  0  0
 50 51  1  0  0  0  0
 50 47  1  0  0  0  0
 50 52  1  0  0  0  0
 53 50  1  0  0  0  0
 54 53  1  0  0  0  0
 55 53  1  0  0  0  0
M  END
$$$$
