CSD_code = VETTUM | q = 0 | S = 0 | Stoichiometry = C24H27ClN2NiO | MND = 4
 OpenBabel04212202113D

 56 60  0  0  1  0  0  0  0  0999 V2000
    1.8415    6.1896   10.4574 Ni  0  0  1  0  0  0  0  0  0  0  0  0
    3.2097    7.7119   10.7041 Cl  0  0  0  0  0  0  0  0  0  0  0  0
    2.0440    6.1573    8.5699 N   0  0  0  0  0  0  0  0  0  0  0  0
    0.5753    4.7776   10.2179 N   0  0  0  0  0  0  0  0  0  0  0  0
    1.5990    6.1705   12.2673 O   0  0  0  0  0  0  0  0  0  0  0  0
    2.8100    6.8887    7.7855 C   0  0  0  0  0  0  0  0  0  0  0  0
    3.4309    7.6309    8.2728 H   0  0  0  0  0  0  0  0  0  0  0  0
    2.8390    6.7350    6.3930 C   0  0  0  0  0  0  0  0  0  0  0  0
    3.4902    7.3686    5.8125 H   0  0  0  0  0  0  0  0  0  0  0  0
    2.0469    5.7911    5.7972 C   0  0  0  0  0  0  0  0  0  0  0  0
    2.0455    5.6473    4.7266 H   0  0  0  0  0  0  0  0  0  0  0  0
    0.3607    3.9904    6.0974 C   0  0  0  0  0  3  0  0  0  0  0  0
    0.3328    3.8176    5.0326 H   0  0  0  0  0  0  0  0  0  0  0  0
   -0.4171    3.2558    6.9523 C   0  0  0  0  0  0  0  0  0  0  0  0
   -1.0707    2.4902    6.5615 H   0  0  0  0  0  0  0  0  0  0  0  0
   -0.3903    3.4702    8.3334 C   0  0  0  0  0  0  0  0  0  0  0  0
   -1.0262    2.8599    8.9550 H   0  0  0  0  0  0  0  0  0  0  0  0
    0.4320    4.4405    8.8796 C   0  0  0  0  0  0  0  0  0  0  0  0
    1.2470    5.2120    8.0018 C   0  0  0  0  0  0  0  0  0  0  0  0
    1.2146    4.9902    6.6047 C   0  0  0  0  0  0  0  0  0  0  0  0
   -0.0199    4.4459   12.5361 C   0  0  0  0  0  0  0  0  0  0  0  0
   -0.8237    3.6934   13.4264 C   0  0  0  0  0  0  0  0  0  0  0  0
   -1.4589    2.9367   12.9936 H   0  0  0  0  0  0  0  0  0  0  0  0
   -0.7952    3.9176   14.7708 C   0  0  0  0  0  0  0  0  0  0  0  0
    0.0692    4.9316   15.2461 C   0  0  0  0  0  0  0  0  0  0  0  0
    0.0842    5.1041   16.3085 H   0  0  0  0  0  0  0  0  0  0  0  0
    0.8771    5.6966   14.4503 C   0  0  0  0  0  0  0  0  0  0  0  0
    0.8540    5.4685   13.0309 C   0  0  1  0  0  3  0  0  0  0  0  0
   -0.0996    4.1685   11.1630 C   0  0  0  0  0  0  0  0  0  0  0  0
   -0.7910    3.3737   10.8869 H   0  0  0  0  0  0  0  0  0  0  0  0
   -1.6360    3.1446   15.7739 C   0  0  0  0  0  0  0  0  0  0  0  0
    1.7950    6.7740   15.0117 C   0  0  0  0  0  0  0  0  0  0  0  0
   -2.5027    2.0740   15.1055 C   0  0  0  0  0  0  0  0  0  0  0  0
   -1.8881    1.3431   14.5851 H   0  0  0  0  0  0  0  0  0  0  0  0
   -3.2013    2.5201   14.4016 H   0  0  0  0  0  0  0  0  0  0  0  0
   -3.0801    1.5486   15.8634 H   0  0  0  0  0  0  0  0  0  0  0  0
   -0.7091    2.4479   16.7796 C   0  0  0  0  0  0  0  0  0  0  0  0
   -0.0278    1.7768   16.2607 H   0  0  0  0  0  0  0  0  0  0  0  0
   -1.2955    1.8658   17.4874 H   0  0  0  0  0  0  0  0  0  0  0  0
   -0.1176    3.1660   17.3404 H   0  0  0  0  0  0  0  0  0  0  0  0
   -2.5639    4.1211   16.5094 C   0  0  0  0  0  0  0  0  0  0  0  0
   -3.1886    3.5819   17.2184 H   0  0  0  0  0  0  0  0  0  0  0  0
   -3.2100    4.6327   15.7991 H   0  0  0  0  0  0  0  0  0  0  0  0
   -1.9995    4.8710   17.0564 H   0  0  0  0  0  0  0  0  0  0  0  0
    1.6981    6.8885   16.5370 C   0  0  0  0  0  0  0  0  0  0  0  0
    0.6922    7.1600   16.8509 H   0  0  0  0  0  0  0  0  0  0  0  0
    2.3746    7.6697   16.8767 H   0  0  0  0  0  0  0  0  0  0  0  0
    1.9910    5.9604   17.0236 H   0  0  0  0  0  0  0  0  0  0  0  0
    1.4123    8.1330   14.4091 C   0  0  0  0  0  0  0  0  0  0  0  0
    0.3662    8.3570   14.6113 H   0  0  0  0  0  0  0  0  0  0  0  0
    1.5711    8.1375   13.3355 H   0  0  0  0  0  0  0  0  0  0  0  0
    2.0268    8.9168   14.8456 H   0  0  0  0  0  0  0  0  0  0  0  0
    3.2492    6.4376   14.6531 C   0  0  0  0  0  0  0  0  0  0  0  0
    3.9177    7.1747   15.0913 H   0  0  0  0  0  0  0  0  0  0  0  0
    3.3935    6.4475   13.5775 H   0  0  0  0  0  0  0  0  0  0  0  0
    3.5166    5.4538   15.0353 H   0  0  0  0  0  0  0  0  0  0  0  0
  1  2  1  1  0  0  0
  1  5  1  0  0  0  0
  3  1  1  0  0  0  0
  4  1  1  0  0  0  0
  4 29  1  0  0  0  0
  6  7  1  0  0  0  0
  6  3  1  0  0  0  0
  8  6  2  0  0  0  0
  9  8  1  0  0  0  0
 10  8  1  0  0  0  0
 10 20  2  0  0  0  0
 11 10  1  0  0  0  0
 12 20  1  0  0  0  0
 12 14  1  0  0  0  0
 13 12  1  0  0  0  0
 14 16  2  0  0  0  0
 15 14  1  0  0  0  0
 16 18  1  0  0  0  0
 16 17  1  0  0  0  0
 18  4  1  0  0  0  0
 19  3  1  0  0  0  0
 19 18  2  0  0  0  0
 20 19  1  0  0  0  0
 21 28  1  0  0  0  0
 21 22  1  0  0  0  0
 22 24  2  0  0  0  0
 23 22  1  0  0  0  0
 24 25  1  0  0  0  0
 24 31  1  0  0  0  0
 25 26  1  0  0  0  0
 27 32  1  0  0  0  0
 27 25  2  0  0  0  0
 28  5  1  1  0  0  0
 28 27  1  0  0  0  0
 29 21  2  0  0  0  0
 30 29  1  0  0  0  0
 31 41  1  0  0  0  0
 31 37  1  0  0  0  0
 32 45  1  0  0  0  0
 33 31  1  0  0  0  0
 33 36  1  0  0  0  0
 34 33  1  0  0  0  0
 35 33  1  0  0  0  0
 37 40  1  0  0  0  0
 37 39  1  0  0  0  0
 38 37  1  0  0  0  0
 41 44  1  0  0  0  0
 41 42  1  0  0  0  0
 43 41  1  0  0  0  0
 45 46  1  0  0  0  0
 45 47  1  0  0  0  0
 45 48  1  0  0  0  0
 49 50  1  0  0  0  0
 49 52  1  0  0  0  0
 49 32  1  0  0  0  0
 51 49  1  0  0  0  0
 53 32  1  0  0  0  0
 53 56  1  0  0  0  0
 53 54  1  0  0  0  0
 55 53  1  0  0  0  0
M  END
$$$$
