CSD_code = VEVCUW | q = 1 | S = 0 | Stoichiometry = C16H38ClN2P2PdS(1+) | MND = 4
 OpenBabel04212202113D

 61 62  0  0  0  0  0  0  0  0999 V2000
    6.0083    4.0752    4.1131 Pd  0  0  1  0  0  0  0  0  0  0  0  0
    5.3674    3.7626    6.2422 Cl  0  0  0  0  0  0  0  0  0  0  0  0
    6.3171    4.3872    1.8167 S   0  0  1  0  0  3  0  0  0  0  0  0
    5.4595    6.2798    4.4290 P   0  0  0  0  0  4  0  0  0  0  0  0
    6.6064    1.8580    4.0992 P   0  0  0  0  0  4  0  0  0  0  0  0
    6.3364    7.2516    3.3575 N   0  0  0  0  0  0  0  0  0  0  0  0
    7.1681    1.1684    2.6595 N   0  0  0  0  0  0  0  0  0  0  0  0
    8.1541    0.9330    2.6780 H   0  0  0  0  0  0  0  0  0  0  0  0
    5.8268    7.0687    6.0641 C   0  0  0  0  0  0  0  0  0  0  0  0
    5.2123    6.5531    6.8081 H   0  0  0  0  0  0  0  0  0  0  0  0
    3.6857    6.6000    4.0223 C   0  0  0  0  0  0  0  0  0  0  0  0
    3.5606    7.6650    3.7914 H   0  0  0  0  0  0  0  0  0  0  0  0
    8.0719    1.5393    5.1880 C   0  0  0  0  0  0  0  0  0  0  0  0
    8.5967    0.6616    4.7873 H   0  0  0  0  0  0  0  0  0  0  0  0
    5.1764    0.7886    4.5919 C   0  0  0  0  0  0  0  0  0  0  0  0
    5.0494    0.9476    5.6685 H   0  0  0  0  0  0  0  0  0  0  0  0
    7.5545    6.6886    2.8125 C   0  0  0  0  0  0  0  0  0  0  0  0
    7.9971    6.0386    3.5860 H   0  0  0  0  0  0  0  0  0  0  0  0
    8.2593    7.4988    2.5947 H   0  0  0  0  0  0  0  0  0  0  0  0
    7.3480    5.8751    1.5357 C   0  0  0  0  0  0  0  0  0  0  0  0
    8.3034    5.5426    1.1348 H   0  0  0  0  0  0  0  0  0  0  0  0
    6.8299    6.4713    0.7828 H   0  0  0  0  0  0  0  0  0  0  0  0
    6.7726    1.7074    1.3762 C   0  0  0  0  0  0  0  0  0  0  0  0
    5.6812    1.7782    1.3448 H   0  0  0  0  0  0  0  0  0  0  0  0
    7.0872    1.0063    0.5982 H   0  0  0  0  0  0  0  0  0  0  0  0
    7.3679    3.0876    1.0785 C   0  0  0  0  0  0  0  0  0  0  0  0
    7.3674    3.2783    0.0057 H   0  0  0  0  0  0  0  0  0  0  0  0
    8.3825    3.1730    1.4716 H   0  0  0  0  0  0  0  0  0  0  0  0
    5.5091    8.5577    6.0417 C   0  0  0  0  0  0  0  0  0  0  0  0
    5.7825    9.0029    6.9958 H   0  0  0  0  0  0  0  0  0  0  0  0
    4.4505    8.7416    5.8757 H   0  0  0  0  0  0  0  0  0  0  0  0
    6.0781    9.0551    5.2589 H   0  0  0  0  0  0  0  0  0  0  0  0
    7.2992    6.8113    6.3780 C   0  0  0  0  0  0  0  0  0  0  0  0
    7.9387    7.3727    5.6989 H   0  0  0  0  0  0  0  0  0  0  0  0
    7.5233    5.7435    6.2905 H   0  0  0  0  0  0  0  0  0  0  0  0
    7.5283    7.1201    7.3950 H   0  0  0  0  0  0  0  0  0  0  0  0
    2.8040    6.1985    5.2008 C   0  0  0  0  0  0  0  0  0  0  0  0
    1.7554    6.2474    4.9149 H   0  0  0  0  0  0  0  0  0  0  0  0
    2.9511    6.8541    6.0550 H   0  0  0  0  0  0  0  0  0  0  0  0
    3.0277    5.1755    5.5062 H   0  0  0  0  0  0  0  0  0  0  0  0
    3.3481    5.7479    2.7985 C   0  0  0  0  0  0  0  0  0  0  0  0
    3.5321    4.6862    3.0246 H   0  0  0  0  0  0  0  0  0  0  0  0
    3.9475    6.0301    1.9320 H   0  0  0  0  0  0  0  0  0  0  0  0
    2.2990    5.8596    2.5333 H   0  0  0  0  0  0  0  0  0  0  0  0
    8.9494    2.7876    5.0408 C   0  0  0  0  0  0  0  0  0  0  0  0
    8.3833    3.6751    5.3665 H   0  0  0  0  0  0  0  0  0  0  0  0
    9.2682    2.9291    4.0044 H   0  0  0  0  0  0  0  0  0  0  0  0
    9.8413    2.7102    5.6586 H   0  0  0  0  0  0  0  0  0  0  0  0
    7.7143    1.2840    6.6456 C   0  0  0  0  0  0  0  0  0  0  0  0
    8.6259    1.1833    7.2314 H   0  0  0  0  0  0  0  0  0  0  0  0
    7.1418    0.3663    6.7541 H   0  0  0  0  0  0  0  0  0  0  0  0
    7.1352    2.1090    7.0537 H   0  0  0  0  0  0  0  0  0  0  0  0
    5.4279   -0.6828    4.2992 C   0  0  0  0  0  0  0  0  0  0  0  0
    4.5856   -1.2779    4.6444 H   0  0  0  0  0  0  0  0  0  0  0  0
    6.3247   -1.0342    4.8047 H   0  0  0  0  0  0  0  0  0  0  0  0
    5.5497   -0.8463    3.2308 H   0  0  0  0  0  0  0  0  0  0  0  0
    3.9379    1.3309    3.8750 C   0  0  0  0  0  0  0  0  0  0  0  0
    3.9763    1.1061    2.8095 H   0  0  0  0  0  0  0  0  0  0  0  0
    3.8669    2.4231    4.0121 H   0  0  0  0  0  0  0  0  0  0  0  0
    3.0349    0.8820    4.2818 H   0  0  0  0  0  0  0  0  0  0  0  0
    5.8070    7.7922    2.6838 H   0  0  0  0  0  0  0  0  0  0  0  0
  1  4  1  0  0  0  0
  1  2  1  6  0  0  0
  3 26  1  1  0  0  0
  3  1  1  0  0  0  0
  4  9  1  0  0  0  0
  5  1  1  0  0  0  0
  5 15  1  0  0  0  0
  5 13  1  0  0  0  0
  6  4  1  0  0  0  0
  7  8  1  0  0  0  0
  7  5  1  0  0  0  0
  9 33  1  0  0  0  0
  9 10  1  0  0  0  0
 11  4  1  0  0  0  0
 11 37  1  0  0  0  0
 12 11  1  0  0  0  0
 13 49  1  0  0  0  0
 14 13  1  0  0  0  0
 15 16  1  0  0  0  0
 17  6  1  0  0  0  0
 17 18  1  0  0  0  0
 19 17  1  0  0  0  0
 20  3  1  0  0  0  0
 20 17  1  0  0  0  0
 21 20  1  0  0  0  0
 22 20  1  0  0  0  0
 23  7  1  0  0  0  0
 24 23  1  0  0  0  0
 25 23  1  0  0  0  0
 26 23  1  0  0  0  0
 26 28  1  0  0  0  0
 27 26  1  0  0  0  0
 29  9  1  0  0  0  0
 29 30  1  0  0  0  0
 31 29  1  0  0  0  0
 32 29  1  0  0  0  0
 33 36  1  0  0  0  0
 34 33  1  0  0  0  0
 35 33  1  0  0  0  0
 37 40  1  0  0  0  0
 37 39  1  0  0  0  0
 38 37  1  0  0  0  0
 41 42  1  0  0  0  0
 41 11  1  0  0  0  0
 43 41  1  0  0  0  0
 44 41  1  0  0  0  0
 45 13  1  0  0  0  0
 45 46  1  0  0  0  0
 45 48  1  0  0  0  0
 47 45  1  0  0  0  0
 49 51  1  0  0  0  0
 49 52  1  0  0  0  0
 49 50  1  0  0  0  0
 53 15  1  0  0  0  0
 53 54  1  0  0  0  0
 53 55  1  0  0  0  0
 56 53  1  0  0  0  0
 57 59  1  0  0  0  0
 57 60  1  0  0  0  0
 57 15  1  0  0  0  0
 58 57  1  0  0  0  0
 61  6  1  0  0  0  0
M  END
$$$$
