CSD_code = VEVDEH | q = 1 | S = 0 | Stoichiometry = C16H39ClN3P2Pd(1+) | MND = 4
 OpenBabel04212202113D

 62 63  0  0  1  0  0  0  0  0999 V2000
   14.2238    7.8603    6.8050 Pd  0  0  1  0  0  0  0  0  0  0  0  0
   16.4532    7.8871    6.6848 Cl  0  0  0  0  0  0  0  0  0  0  0  0
   14.3379   10.0780    6.2268 P   0  0  0  0  0  4  0  0  0  0  0  0
   14.5511    5.6581    7.3235 P   0  0  0  0  0  4  0  0  0  0  0  0
   12.8372   10.7801    5.9164 N   0  0  0  0  0  0  0  0  0  0  0  0
   12.8504   11.7947    5.9224 H   0  0  0  0  0  0  0  0  0  0  0  0
   13.1092    4.8045    7.4668 N   0  0  0  0  0  0  0  0  0  0  0  0
   13.2090    3.8832    7.8793 H   0  0  0  0  0  0  0  0  0  0  0  0
   12.0784    7.8206    6.9707 N   0  0  1  0  0  4  0  0  0  0  0  0
   11.9127    8.1213    7.9390 H   0  0  0  0  0  0  0  0  0  0  0  0
   15.1631   11.2391    7.4259 C   0  0  0  0  0  0  0  0  0  0  0  0
   14.7730   12.2443    7.2120 H   0  0  0  0  0  0  0  0  0  0  0  0
   15.1579   10.2342    4.5764 C   0  0  0  0  0  0  0  0  0  0  0  0
   16.2063    9.9532    4.7243 H   0  0  0  0  0  0  0  0  0  0  0  0
   15.4847    5.5138    8.9304 C   0  0  0  0  0  0  0  0  0  0  0  0
   16.5248    5.7600    8.6945 H   0  0  0  0  0  0  0  0  0  0  0  0
   15.3750    4.5933    6.0515 C   0  0  0  0  0  0  0  0  0  0  0  0
   14.9323    3.5951    6.1644 H   0  0  0  0  0  0  0  0  0  0  0  0
   11.6101   10.2453    6.4849 C   0  0  0  0  0  0  0  0  0  0  0  0
   10.7834   10.8293    6.0707 H   0  0  0  0  0  0  0  0  0  0  0  0
   11.5605   10.3384    7.5808 H   0  0  0  0  0  0  0  0  0  0  0  0
   11.3998    8.7852    6.0876 C   0  0  0  0  0  0  0  0  0  0  0  0
   11.7564    8.6345    5.0633 H   0  0  0  0  0  0  0  0  0  0  0  0
   10.3189    8.5881    6.1094 H   0  0  0  0  0  0  0  0  0  0  0  0
   11.8847    5.4781    7.8721 C   0  0  0  0  0  0  0  0  0  0  0  0
   11.9609    5.9733    8.8514 H   0  0  0  0  0  0  0  0  0  0  0  0
   11.1025    4.7189    7.9465 H   0  0  0  0  0  0  0  0  0  0  0  0
   11.4551    6.4968    6.8162 C   0  0  0  0  0  0  0  0  0  0  0  0
   11.7061    6.1065    5.8246 H   0  0  0  0  0  0  0  0  0  0  0  0
   10.3632    6.6070    6.8765 H   0  0  0  0  0  0  0  0  0  0  0  0
   16.6829   11.2576    7.3360 C   0  0  0  0  0  0  0  0  0  0  0  0
   17.0818   11.9405    8.0837 H   0  0  0  0  0  0  0  0  0  0  0  0
   17.0194   11.5935    6.3587 H   0  0  0  0  0  0  0  0  0  0  0  0
   17.0933   10.2688    7.5229 H   0  0  0  0  0  0  0  0  0  0  0  0
   14.6990   10.7924    8.8130 C   0  0  0  0  0  0  0  0  0  0  0  0
   15.1310   11.4207    9.5885 H   0  0  0  0  0  0  0  0  0  0  0  0
   15.0236    9.7602    8.9888 H   0  0  0  0  0  0  0  0  0  0  0  0
   13.6120   10.8436    8.9021 H   0  0  0  0  0  0  0  0  0  0  0  0
   15.0684   11.6354    3.9853 C   0  0  0  0  0  0  0  0  0  0  0  0
   15.6079   11.6694    3.0414 H   0  0  0  0  0  0  0  0  0  0  0  0
   15.5052   12.3781    4.6494 H   0  0  0  0  0  0  0  0  0  0  0  0
   14.0327   11.9039    3.7901 H   0  0  0  0  0  0  0  0  0  0  0  0
   14.4829    9.1961    3.6777 C   0  0  0  0  0  0  0  0  0  0  0  0
   15.0397    9.0651    2.7531 H   0  0  0  0  0  0  0  0  0  0  0  0
   13.4738    9.5198    3.4260 H   0  0  0  0  0  0  0  0  0  0  0  0
   14.4280    8.2210    4.1912 H   0  0  0  0  0  0  0  0  0  0  0  0
   14.9297    6.5780    9.8787 C   0  0  0  0  0  0  0  0  0  0  0  0
   15.5749    6.6943   10.7466 H   0  0  0  0  0  0  0  0  0  0  0  0
   13.9363    6.3022   10.2341 H   0  0  0  0  0  0  0  0  0  0  0  0
   14.8687    7.5504    9.3628 H   0  0  0  0  0  0  0  0  0  0  0  0
   15.4046    4.1164    9.5327 C   0  0  0  0  0  0  0  0  0  0  0  0
   16.0707    4.0456   10.3899 H   0  0  0  0  0  0  0  0  0  0  0  0
   15.7002    3.3557    8.8125 H   0  0  0  0  0  0  0  0  0  0  0  0
   14.3959    3.8956    9.8805 H   0  0  0  0  0  0  0  0  0  0  0  0
   14.9463    5.1833    4.7070 C   0  0  0  0  0  0  0  0  0  0  0  0
   15.2336    4.5307    3.8859 H   0  0  0  0  0  0  0  0  0  0  0  0
   15.4349    6.1506    4.5621 H   0  0  0  0  0  0  0  0  0  0  0  0
   13.8611    5.3165    4.6764 H   0  0  0  0  0  0  0  0  0  0  0  0
   16.8909    4.5010    6.1580 C   0  0  0  0  0  0  0  0  0  0  0  0
   17.2736    3.9111    5.3275 H   0  0  0  0  0  0  0  0  0  0  0  0
   17.2003    4.0190    7.0819 H   0  0  0  0  0  0  0  0  0  0  0  0
   17.3442    5.4876    6.1094 H   0  0  0  0  0  0  0  0  0  0  0  0
  1  2  1  1  0  0  0
  1  9  1  0  0  0  0
  1  4  1  0  0  0  0
  3  1  1  0  0  0  0
  3 11  1  0  0  0  0
  4  7  1  0  0  0  0
  4 15  1  0  0  0  0
  5  6  1  0  0  0  0
  5  3  1  0  0  0  0
  5 19  1  0  0  0  0
  7 25  1  0  0  0  0
  7  8  1  0  0  0  0
  9 10  1  1  0  0  0
 11 35  1  0  0  0  0
 12 11  1  0  0  0  0
 13 14  1  0  0  0  0
 13  3  1  0  0  0  0
 15 51  1  0  0  0  0
 15 47  1  0  0  0  0
 16 15  1  0  0  0  0
 17 59  1  0  0  0  0
 17 18  1  0  0  0  0
 17  4  1  0  0  0  0
 19 21  1  0  0  0  0
 20 19  1  0  0  0  0
 22 24  1  0  0  0  0
 22 19  1  0  0  0  0
 22  9  1  0  0  0  0
 23 22  1  0  0  0  0
 25 27  1  0  0  0  0
 25 26  1  0  0  0  0
 28 30  1  0  0  0  0
 28  9  1  0  0  0  0
 28 25  1  0  0  0  0
 29 28  1  0  0  0  0
 31 11  1  0  0  0  0
 31 34  1  0  0  0  0
 31 32  1  0  0  0  0
 33 31  1  0  0  0  0
 35 38  1  0  0  0  0
 35 37  1  0  0  0  0
 35 36  1  0  0  0  0
 39 13  1  0  0  0  0
 39 41  1  0  0  0  0
 40 39  1  0  0  0  0
 42 39  1  0  0  0  0
 43 46  1  0  0  0  0
 43 13  1  0  0  0  0
 44 43  1  0  0  0  0
 45 43  1  0  0  0  0
 47 49  1  0  0  0  0
 47 48  1  0  0  0  0
 50 47  1  0  0  0  0
 51 54  1  0  0  0  0
 51 52  1  0  0  0  0
 53 51  1  0  0  0  0
 55 17  1  0  0  0  0
 56 55  1  0  0  0  0
 57 55  1  0  0  0  0
 58 55  1  0  0  0  0
 59 61  1  0  0  0  0
 60 59  1  0  0  0  0
 62 59  1  0  0  0  0
M  END
$$$$
