CSD_code = VEVDIL | q = 1 | S = 0 | Stoichiometry = C16H39ClN3NiP2(1+) | MND = 4
 OpenBabel04212202113D

 62 63  0  0  1  0  0  0  0  0999 V2000
    6.2019   11.2269   16.8810 Ni  0  0  1  0  0  0  0  0  0  0  0  0
    4.6855   11.1590   15.5003 Cl  0  0  0  0  0  0  0  0  0  0  0  0
    5.0682   12.8979   17.6951 P   0  0  0  0  0  4  0  0  0  0  0  0
    7.0663    9.4257   15.9366 P   0  0  0  0  0  4  0  0  0  0  0  0
    5.6713   13.4018   19.1956 N   0  0  0  0  0  0  0  0  0  0  0  0
    6.0649   14.3361   19.1978 H   0  0  0  0  0  0  0  0  0  0  0  0
    8.5345    9.0164   16.6578 N   0  0  0  0  0  0  0  0  0  0  0  0
    8.9301    8.1357   16.3476 H   0  0  0  0  0  0  0  0  0  0  0  0
    7.7887   11.3194   18.1498 N   0  0  2  0  0  4  0  0  0  0  0  0
    7.7397   10.3740   18.5421 H   0  0  0  0  0  0  0  0  0  0  0  0
    3.2631   12.6525   18.0541 C   0  0  0  0  0  0  0  0  0  0  0  0
    2.7672   12.5565   17.0837 H   0  0  0  0  0  0  0  0  0  0  0  0
    5.2254   14.4499   16.6928 C   0  0  0  0  0  0  0  0  0  0  0  0
    5.0742   15.2873   17.3861 H   0  0  0  0  0  0  0  0  0  0  0  0
    6.1393    7.8858   16.3999 C   0  0  0  0  0  0  0  0  0  0  0  0
    6.8163    7.0355   16.2535 H   0  0  0  0  0  0  0  0  0  0  0  0
    7.2619    9.3755   14.0819 C   0  0  0  0  0  0  0  0  0  0  0  0
    6.2474    9.3300   13.6755 H   0  0  0  0  0  0  0  0  0  0  0  0
    6.4988   12.4730   19.9394 C   0  0  0  0  0  0  0  0  0  0  0  0
    5.9655   11.5202   20.0075 H   0  0  0  0  0  0  0  0  0  0  0  0
    6.6371   12.8630   20.9502 H   0  0  0  0  0  0  0  0  0  0  0  0
    7.8709   12.2433   19.2882 C   0  0  0  0  0  0  0  0  0  0  0  0
    8.2493   13.2060   18.9320 H   0  0  0  0  0  0  0  0  0  0  0  0
    8.5687   11.8569   20.0401 H   0  0  0  0  0  0  0  0  0  0  0  0
    9.5692    9.9737   17.0276 C   0  0  0  0  0  0  0  0  0  0  0  0
   10.3463   10.0655   16.2586 H   0  0  0  0  0  0  0  0  0  0  0  0
   10.0536    9.5967   17.9385 H   0  0  0  0  0  0  0  0  0  0  0  0
    9.0004   11.3645   17.2943 C   0  0  0  0  0  0  0  0  0  0  0  0
    8.7540   11.8546   16.3442 H   0  0  0  0  0  0  0  0  0  0  0  0
    9.7827   11.9546   17.7811 H   0  0  0  0  0  0  0  0  0  0  0  0
    3.0885   11.3479   18.8249 C   0  0  0  0  0  0  0  0  0  0  0  0
    2.0326   11.1199   18.9486 H   0  0  0  0  0  0  0  0  0  0  0  0
    3.5376   11.4233   19.8134 H   0  0  0  0  0  0  0  0  0  0  0  0
    3.5519   10.5227   18.2809 H   0  0  0  0  0  0  0  0  0  0  0  0
    2.6982   13.8368   18.8259 C   0  0  0  0  0  0  0  0  0  0  0  0
    1.6415   13.6696   19.0224 H   0  0  0  0  0  0  0  0  0  0  0  0
    2.7943   14.7649   18.2682 H   0  0  0  0  0  0  0  0  0  0  0  0
    3.2087   13.9486   19.7796 H   0  0  0  0  0  0  0  0  0  0  0  0
    4.2181   14.5483   15.5544 C   0  0  0  0  0  0  0  0  0  0  0  0
    4.3924   15.4667   14.9972 H   0  0  0  0  0  0  0  0  0  0  0  0
    3.1968   14.5703   15.9244 H   0  0  0  0  0  0  0  0  0  0  0  0
    4.3216   13.7105   14.8698 H   0  0  0  0  0  0  0  0  0  0  0  0
    6.6556   14.4720   16.1527 C   0  0  0  0  0  0  0  0  0  0  0  0
    6.8123   15.3325   15.5066 H   0  0  0  0  0  0  0  0  0  0  0  0
    6.8346   13.5663   15.5631 H   0  0  0  0  0  0  0  0  0  0  0  0
    7.3883   14.5166   16.9585 H   0  0  0  0  0  0  0  0  0  0  0  0
    4.8714    7.6752   15.5831 C   0  0  0  0  0  0  0  0  0  0  0  0
    4.3428    6.7976   15.9503 H   0  0  0  0  0  0  0  0  0  0  0  0
    5.0966    7.5135   14.5321 H   0  0  0  0  0  0  0  0  0  0  0  0
    4.2078    8.5324   15.6681 H   0  0  0  0  0  0  0  0  0  0  0  0
    5.8198    8.0197   17.8892 C   0  0  0  0  0  0  0  0  0  0  0  0
    5.1866    7.2015   18.2240 H   0  0  0  0  0  0  0  0  0  0  0  0
    5.2853    8.9598   18.0701 H   0  0  0  0  0  0  0  0  0  0  0  0
    6.7312    8.0095   18.4849 H   0  0  0  0  0  0  0  0  0  0  0  0
    7.9041   10.6846   13.6305 C   0  0  0  0  0  0  0  0  0  0  0  0
    7.9251   10.7439   12.5450 H   0  0  0  0  0  0  0  0  0  0  0  0
    8.9290   10.7627   13.9925 H   0  0  0  0  0  0  0  0  0  0  0  0
    7.3282   11.5333   14.0046 H   0  0  0  0  0  0  0  0  0  0  0  0
    8.0626    8.1647   13.6214 C   0  0  0  0  0  0  0  0  0  0  0  0
    8.0914    8.1393   12.5341 H   0  0  0  0  0  0  0  0  0  0  0  0
    7.6171    7.2339   13.9663 H   0  0  0  0  0  0  0  0  0  0  0  0
    9.0912    8.2165   13.9764 H   0  0  0  0  0  0  0  0  0  0  0  0
  1  2  1  6  0  0  0
  1  3  1  0  0  0  0
  1  9  1  0  0  0  0
  3 11  1  0  0  0  0
  3  5  1  0  0  0  0
  4 15  1  0  0  0  0
  4  7  1  0  0  0  0
  4  1  1  0  0  0  0
  5  6  1  0  0  0  0
  5 19  1  0  0  0  0
  7 25  1  0  0  0  0
  8  7  1  0  0  0  0
  9 10  1  1  0  0  0
  9 22  1  0  0  0  0
 11 31  1  0  0  0  0
 11 35  1  0  0  0  0
 12 11  1  0  0  0  0
 13 14  1  0  0  0  0
 13  3  1  0  0  0  0
 15 51  1  0  0  0  0
 16 15  1  0  0  0  0
 17  4  1  0  0  0  0
 18 17  1  0  0  0  0
 19 20  1  0  0  0  0
 19 21  1  0  0  0  0
 22 19  1  0  0  0  0
 22 24  1  0  0  0  0
 23 22  1  0  0  0  0
 25 28  1  0  0  0  0
 25 27  1  0  0  0  0
 26 25  1  0  0  0  0
 28 30  1  0  0  0  0
 28  9  1  0  0  0  0
 29 28  1  0  0  0  0
 31 32  1  0  0  0  0
 31 33  1  0  0  0  0
 34 31  1  0  0  0  0
 35 36  1  0  0  0  0
 35 38  1  0  0  0  0
 37 35  1  0  0  0  0
 39 41  1  0  0  0  0
 39 13  1  0  0  0  0
 40 39  1  0  0  0  0
 42 39  1  0  0  0  0
 43 13  1  0  0  0  0
 43 46  1  0  0  0  0
 44 43  1  0  0  0  0
 45 43  1  0  0  0  0
 47 50  1  0  0  0  0
 47 48  1  0  0  0  0
 47 15  1  0  0  0  0
 49 47  1  0  0  0  0
 51 53  1  0  0  0  0
 51 52  1  0  0  0  0
 51 54  1  0  0  0  0
 55 57  1  0  0  0  0
 55 58  1  0  0  0  0
 55 17  1  0  0  0  0
 56 55  1  0  0  0  0
 59 61  1  0  0  0  0
 59 62  1  0  0  0  0
 59 17  1  0  0  0  0
 60 59  1  0  0  0  0
M  END
$$$$
