CSD_code = VEVQOF | q = 0 | S = 0 | Stoichiometry = C22H35Br2FeNOP2 | MND = 6
 OpenBabel04212202113D

 64 68  0  0  1  0  0  0  0  0999 V2000
    6.8323    6.7717    9.4131 Fe  0  0  0  0  0  0  0  0  0  0  0  0
    8.8393    5.9906    8.4618 Br  0  0  0  0  0  0  0  0  0  0  0  0
    4.8120    7.5804   10.3115 Br  0  0  0  0  0  0  0  0  0  0  0  0
    5.9184    4.8486    8.9221 P   0  0  1  0  0  4  0  0  0  0  0  0
    7.8577    8.4615   10.3455 P   0  0  1  0  0  4  0  0  0  0  0  0
    7.2751    5.8386   11.1781 N   0  0  0  0  0  0  0  0  0  0  0  0
    6.4535    7.5676    7.9045 C   0  0  0  0  0  2  0  0  0  0  0  0
    6.2047    8.0889    6.9156 O   0  0  0  0  0  1  0  0  0  0  0  0
    6.9062    3.7359   10.0252 C   0  0  0  0  0  0  0  0  0  0  0  0
    6.3803    2.8082   10.2642 H   0  0  0  0  0  0  0  0  0  0  0  0
    7.8358    3.4950    9.4956 H   0  0  0  0  0  0  0  0  0  0  0  0
    7.2449    4.5014   11.2638 C   0  0  1  0  0  3  0  0  0  0  0  0
    7.5352    3.8405   12.4485 C   0  0  0  0  0  0  0  0  0  0  0  0
    7.4972    2.7631   12.4780 H   0  0  0  0  0  0  0  0  0  0  0  0
    7.8797    4.5738   13.5697 C   0  0  0  0  0  0  0  0  0  0  0  0
    8.1153    4.0815   14.5003 H   0  0  0  0  0  0  0  0  0  0  0  0
    7.9150    5.9529   13.4698 C   0  0  0  0  0  0  0  0  0  0  0  0
    8.1752    6.5661   14.3179 H   0  0  0  0  0  0  0  0  0  0  0  0
    7.6003    6.5576   12.2614 C   0  0  0  0  0  0  0  0  0  0  0  0
    7.5937    8.0467   12.1312 C   0  0  0  0  0  0  0  0  0  0  0  0
    8.3419    8.5045   12.7831 H   0  0  0  0  0  0  0  0  0  0  0  0
    6.6003    8.4199   12.4079 H   0  0  0  0  0  0  0  0  0  0  0  0
    4.2206    4.4421    9.4619 C   0  0  0  0  0  0  0  0  0  0  0  0
    3.9901    3.3982    9.2493 H   0  0  0  0  0  0  0  0  0  0  0  0
    3.5110    5.0961    8.9563 H   0  0  0  0  0  0  0  0  0  0  0  0
    4.1417    4.6277   10.5337 H   0  0  0  0  0  0  0  0  0  0  0  0
    6.0692    4.0696    7.2494 C   0  0  0  0  0  0  0  0  0  0  0  0
    7.0798    4.3260    6.9031 H   0  0  0  0  0  0  0  0  0  0  0  0
    5.9219    2.5494    7.2168 C   0  0  0  0  0  0  0  0  0  0  0  0
    6.6489    2.0756    7.8795 H   0  0  0  0  0  0  0  0  0  0  0  0
    4.9198    2.2579    7.5405 H   0  0  0  0  0  0  0  0  0  0  0  0
    6.1460    2.0525    5.7891 C   0  0  0  0  0  0  0  0  0  0  0  0
    7.1648    2.2976    5.4811 H   0  0  0  0  0  0  0  0  0  0  0  0
    6.0384    0.9659    5.7583 H   0  0  0  0  0  0  0  0  0  0  0  0
    5.1560    2.7017    4.8265 C   0  0  0  0  0  0  0  0  0  0  0  0
    4.1388    2.4090    5.0991 H   0  0  0  0  0  0  0  0  0  0  0  0
    5.3434    2.3494    3.8105 H   0  0  0  0  0  0  0  0  0  0  0  0
    5.2770    4.2216    4.8808 C   0  0  0  0  0  0  0  0  0  0  0  0
    4.5463    4.6796    4.2113 H   0  0  0  0  0  0  0  0  0  0  0  0
    6.2728    4.5207    4.5467 H   0  0  0  0  0  0  0  0  0  0  0  0
    5.0535    4.7163    6.3063 C   0  0  0  0  0  0  0  0  0  0  0  0
    4.0395    4.4563    6.6219 H   0  0  0  0  0  0  0  0  0  0  0  0
    5.1464    5.8042    6.3424 H   0  0  0  0  0  0  0  0  0  0  0  0
    9.6788    8.6046   10.2957 C   0  0  0  0  0  0  0  0  0  0  0  0
   10.0169    9.4240   10.9298 H   0  0  0  0  0  0  0  0  0  0  0  0
   10.0042    8.7630    9.2682 H   0  0  0  0  0  0  0  0  0  0  0  0
   10.1116    7.6656   10.6427 H   0  0  0  0  0  0  0  0  0  0  0  0
    7.2537   10.2057   10.1998 C   0  0  0  0  0  0  0  0  0  0  0  0
    6.1575   10.1334   10.2179 H   0  0  0  0  0  0  0  0  0  0  0  0
    7.6818   10.7688    8.8436 C   0  0  0  0  0  0  0  0  0  0  0  0
    8.7707   10.8625    8.8103 H   0  0  0  0  0  0  0  0  0  0  0  0
    7.3799   10.0901    8.0428 H   0  0  0  0  0  0  0  0  0  0  0  0
    7.0536   12.1417    8.6261 C   0  0  0  0  0  0  0  0  0  0  0  0
    7.3673   12.5433    7.6607 H   0  0  0  0  0  0  0  0  0  0  0  0
    5.9660   12.0431    8.6119 H   0  0  0  0  0  0  0  0  0  0  0  0
    7.4644   13.0919    9.7469 C   0  0  0  0  0  0  0  0  0  0  0  0
    6.9926   14.0654    9.6015 H   0  0  0  0  0  0  0  0  0  0  0  0
    8.5473   13.2383    9.7194 H   0  0  0  0  0  0  0  0  0  0  0  0
    7.0637   12.5209   11.1038 C   0  0  0  0  0  0  0  0  0  0  0  0
    5.9765   12.4291   11.1517 H   0  0  0  0  0  0  0  0  0  0  0  0
    7.3789   13.1976   11.9012 H   0  0  0  0  0  0  0  0  0  0  0  0
    7.6927   11.1453   11.3215 C   0  0  0  0  0  0  0  0  0  0  0  0
    8.7804   11.2505   11.3246 H   0  0  0  0  0  0  0  0  0  0  0  0
    7.3817   10.7587   12.2941 H   0  0  0  0  0  0  0  0  0  0  0  0
  1  3  1  0  0  0  0
  1  5  1  0  0  0  0
  1  6  1  0  0  0  0
  2  1  1  0  0  0  0
  4  1  1  0  0  0  0
  4 23  1  1  0  0  0
  4  9  1  0  0  0  0
  5 44  1  6  0  0  0
  5 20  1  0  0  0  0
  6 12  1  0  0  0  0
  6 19  1  0  0  0  0
  7  1  1  0  0  0  0
  8  7  1  0  0  0  0
  9 10  1  0  0  0  0
  9 12  1  0  0  0  0
 11  9  1  0  0  0  0
 12 13  1  6  0  0  0
 13 14  1  0  0  0  0
 13 15  2  0  0  0  0
 15 16  1  0  0  0  0
 17 15  1  0  0  0  0
 17 18  1  0  0  0  0
 19 17  2  0  0  0  0
 20 19  1  0  0  0  0
 20 22  1  0  0  0  0
 20 21  1  0  0  0  0
 23 26  1  0  0  0  0
 24 23  1  0  0  0  0
 25 23  1  0  0  0  0
 27  4  1  0  0  0  0
 28 27  1  0  0  0  0
 29 27  1  0  0  0  0
 29 31  1  0  0  0  0
 29 30  1  0  0  0  0
 32 29  1  0  0  0  0
 33 32  1  0  0  0  0
 34 32  1  0  0  0  0
 35 38  1  0  0  0  0
 35 36  1  0  0  0  0
 35 32  1  0  0  0  0
 37 35  1  0  0  0  0
 38 41  1  0  0  0  0
 39 38  1  0  0  0  0
 40 38  1  0  0  0  0
 41 43  1  0  0  0  0
 41 42  1  0  0  0  0
 41 27  1  0  0  0  0
 44 47  1  0  0  0  0
 44 45  1  0  0  0  0
 46 44  1  0  0  0  0
 48 49  1  0  0  0  0
 48  5  1  0  0  0  0
 48 62  1  0  0  0  0
 50 48  1  0  0  0  0
 51 50  1  0  0  0  0
 52 50  1  0  0  0  0
 53 50  1  0  0  0  0
 53 56  1  0  0  0  0
 54 53  1  0  0  0  0
 55 53  1  0  0  0  0
 56 59  1  0  0  0  0
 57 56  1  0  0  0  0
 58 56  1  0  0  0  0
 59 60  1  0  0  0  0
 59 62  1  0  0  0  0
 59 61  1  0  0  0  0
 62 63  1  0  0  0  0
 62 64  1  0  0  0  0
M  END
$$$$
