CSD_code = VEWDIN | q = 0 | S = 0 | Stoichiometry = C20H13BrN2NiO | MND = 4
 OpenBabel04212202113D

 38 43  0  0  1  0  0  0  0  0999 V2000
   -0.9405    2.2566    9.2781 Br  0  0  0  0  0  0  0  0  0  0  0  0
    1.2554    2.4301    9.6027 Ni  0  0  2  0  0  0  0  0  0  0  0  0
    1.3530    3.4089    8.0758 O   0  0  0  0  0  0  0  0  0  0  0  0
    1.2957    1.3982   11.2094 N   0  0  0  0  0  0  0  0  0  0  0  0
    2.3113    3.9880    7.4755 C   0  0  0  0  0  0  0  0  0  0  0  0
    3.1600    2.6364    9.8545 N   0  0  0  0  0  0  0  0  0  0  0  0
    3.9964    3.3126    9.0979 C   0  0  0  0  0  0  0  0  0  0  0  0
    5.0366    3.3384    9.4027 H   0  0  0  0  0  0  0  0  0  0  0  0
    3.6687    4.0019    7.9254 C   0  0  0  0  0  0  0  0  0  0  0  0
    5.1746    1.1697   12.6388 C   0  0  0  0  0  0  0  0  0  0  0  0
    6.1969    1.1282   12.9836 H   0  0  0  0  0  0  0  0  0  0  0  0
    3.5957    1.9693   10.9905 C   0  0  0  0  0  0  0  0  0  0  0  0
    4.8912    1.8853   11.4733 C   0  0  0  0  0  0  0  0  0  0  0  0
    5.7131    2.3648   10.9656 H   0  0  0  0  0  0  0  0  0  0  0  0
    2.9260    5.3209    5.5443 C   0  0  0  0  0  0  0  0  0  0  0  0
    2.6614    5.8286    4.6275 H   0  0  0  0  0  0  0  0  0  0  0  0
    0.5292    0.0524   13.0331 C   0  0  0  0  0  0  0  0  0  0  0  0
   -0.3182   -0.4176   13.5053 H   0  0  0  0  0  0  0  0  0  0  0  0
    4.6697    4.7124    7.1615 C   0  0  0  0  0  0  0  0  0  0  0  0
    6.0200    4.7969    7.5354 C   0  0  0  0  0  0  0  0  0  0  0  0
    6.3725    4.3245    8.4393 H   0  0  0  0  0  0  0  0  0  0  0  0
    4.2853    5.3670    5.9666 C   0  0  0  0  0  0  0  0  0  0  0  0
    0.3227    0.7887   11.8601 C   0  0  0  0  0  0  0  0  0  0  0  0
   -0.6767    0.8718   11.4547 H   0  0  0  0  0  0  0  0  0  0  0  0
    2.5602    1.3050   11.7078 C   0  0  2  0  0  3  0  0  0  0  0  0
    5.2369    6.0594    5.2038 C   0  0  0  0  0  3  0  0  0  0  0  0
    4.9142    6.5482    4.2957 H   0  0  0  0  0  0  0  0  0  0  0  0
    4.1891    0.5283   13.3397 C   0  0  0  0  0  0  0  0  0  0  0  0
    4.4139   -0.0236   14.2391 H   0  0  0  0  0  0  0  0  0  0  0  0
    1.7898   -0.0568   13.5526 C   0  0  0  0  0  0  0  0  0  0  0  0
    1.9860   -0.6175   14.4545 H   0  0  0  0  0  0  0  0  0  0  0  0
    1.9824    4.6701    6.2574 C   0  0  0  0  0  0  0  0  0  0  0  0
    0.9490    4.6328    5.9485 H   0  0  0  0  0  0  0  0  0  0  0  0
    6.5499    6.1193    5.5970 C   0  0  0  0  0  0  0  0  0  0  0  0
    7.2780    6.6539    5.0061 H   0  0  0  0  0  0  0  0  0  0  0  0
    2.8559    0.5807   12.8880 C   0  0  0  0  0  0  0  0  0  0  0  0
    6.9370    5.4820    6.7738 C   0  0  0  0  0  0  0  0  0  0  0  0
    7.9683    5.5266    7.0924 H   0  0  0  0  0  0  0  0  0  0  0  0
  2  1  1  1  0  0  0
  2  6  1  0  0  0  0
  2  4  1  0  0  0  0
  3  2  1  0  0  0  0
  4 25  1  0  0  0  0
  4 23  1  0  0  0  0
  5  9  1  0  0  0  0
  5  3  1  0  0  0  0
  6 12  1  0  0  0  0
  7  8  1  0  0  0  0
  7  6  1  0  0  0  0
  9  7  2  0  0  0  0
 10 11  1  0  0  0  0
 10 28  2  0  0  0  0
 12 13  2  0  0  0  0
 13 10  1  0  0  0  0
 14 13  1  0  0  0  0
 15 22  2  0  0  0  0
 15 32  1  0  0  0  0
 16 15  1  0  0  0  0
 17 18  1  0  0  0  0
 17 30  1  0  0  0  0
 19 20  2  0  0  0  0
 19  9  1  0  0  0  0
 20 21  1  0  0  0  0
 22 19  1  0  0  0  0
 23 17  2  0  0  0  0
 24 23  1  0  0  0  0
 25 12  1  6  0  0  0
 25 36  1  0  0  0  0
 26 34  1  0  0  0  0
 26 22  1  0  0  0  0
 27 26  1  0  0  0  0
 28 29  1  0  0  0  0
 30 31  1  0  0  0  0
 32  5  2  0  0  0  0
 33 32  1  0  0  0  0
 34 37  2  0  0  0  0
 35 34  1  0  0  0  0
 36 28  1  0  0  0  0
 36 30  2  0  0  0  0
 37 38  1  0  0  0  0
 37 20  1  0  0  0  0
M  END
$$$$
