CSD_code = VEXWIG | q = 0 | S = 0 | Stoichiometry = C11H18Br2N2Ni | MND = 4
 OpenBabel04212202113D

 34 35  0  0  0  0  0  0  0  0999 V2000
    2.4815   -0.0846    0.9294 Ni  0  0  0  0  0  0  0  0  0  0  0  0
    0.3101   -0.0617    1.3622 Br  0  0  0  0  0  0  0  0  0  0  0  0
    2.9366   -0.8459    2.9683 Br  0  0  0  0  0  0  0  0  0  0  0  0
    4.2556   -0.5503    0.1610 N   0  0  0  0  0  0  0  0  0  0  0  0
    2.2195    1.2844   -0.7676 N   0  0  0  0  0  4  0  0  0  0  0  0
    1.1992    1.3125   -0.6923 H   0  0  0  0  0  0  0  0  0  0  0  0
    5.4207   -0.5519    0.8032 C   0  0  0  0  0  3  0  0  0  0  0  0
    5.4016   -0.2630    1.8458 H   0  0  0  0  0  0  0  0  0  0  0  0
    6.6083   -0.9162    0.1964 C   0  0  0  0  0  0  0  0  0  0  0  0
    7.5258   -0.9025    0.7613 H   0  0  0  0  0  0  0  0  0  0  0  0
    6.5841   -1.3016   -1.1343 C   0  0  0  0  0  0  0  0  0  0  0  0
    7.4881   -1.6016   -1.6420 H   0  0  0  0  0  0  0  0  0  0  0  0
    5.3724   -1.2930   -1.8015 C   0  0  0  0  0  0  0  0  0  0  0  0
    5.3081   -1.5852   -2.8384 H   0  0  0  0  0  0  0  0  0  0  0  0
    4.2205   -0.9115   -1.1250 C   0  0  0  0  0  0  0  0  0  0  0  0
    2.9007   -0.8222   -1.8306 C   0  0  0  0  0  0  0  0  0  0  0  0
    2.9441   -1.3422   -2.7875 H   0  0  0  0  0  0  0  0  0  0  0  0
    2.1104   -1.2841   -1.2219 H   0  0  0  0  0  0  0  0  0  0  0  0
    2.5495    0.6620   -2.0503 C   0  0  0  0  0  0  0  0  0  0  0  0
    3.4099    1.1572   -2.5061 H   0  0  0  0  0  0  0  0  0  0  0  0
    1.7098    0.7263   -2.7515 H   0  0  0  0  0  0  0  0  0  0  0  0
    2.6735    2.6739   -0.5357 C   0  0  0  0  0  0  0  0  0  0  0  0
    4.2011    2.7568   -0.5210 C   0  0  0  0  0  0  0  0  0  0  0  0
    4.6061    2.1037    0.2496 H   0  0  0  0  0  0  0  0  0  0  0  0
    4.5061    3.7752   -0.2958 H   0  0  0  0  0  0  0  0  0  0  0  0
    4.6408    2.4819   -1.4773 H   0  0  0  0  0  0  0  0  0  0  0  0
    2.0938    3.6155   -1.5969 C   0  0  0  0  0  0  0  0  0  0  0  0
    2.4892    3.3906   -2.5853 H   0  0  0  0  0  0  0  0  0  0  0  0
    2.3472    4.6446   -1.3572 H   0  0  0  0  0  0  0  0  0  0  0  0
    1.0089    3.5320   -1.6293 H   0  0  0  0  0  0  0  0  0  0  0  0
    2.1475    3.0656    0.8492 C   0  0  0  0  0  0  0  0  0  0  0  0
    2.4661    2.3219    1.5929 H   0  0  0  0  0  0  0  0  0  0  0  0
    1.0603    3.1121    0.8566 H   0  0  0  0  0  0  0  0  0  0  0  0
    2.5387    4.0324    1.1527 H   0  0  0  0  0  0  0  0  0  0  0  0
  1  2  1  0  0  0  0
  1  3  1  0  0  0  0
  4  7  1  0  0  0  0
  4  1  1  0  0  0  0
  5  6  1  0  0  0  0
  5 22  1  0  0  0  0
  5  1  1  0  0  0  0
  7  8  1  0  0  0  0
  9 10  1  0  0  0  0
  9  7  1  0  0  0  0
 11  9  2  0  0  0  0
 12 11  1  0  0  0  0
 13 11  1  0  0  0  0
 13 15  2  0  0  0  0
 14 13  1  0  0  0  0
 15  4  1  0  0  0  0
 16 18  1  0  0  0  0
 16 15  1  0  0  0  0
 17 16  1  0  0  0  0
 19 16  1  0  0  0  0
 19  5  1  0  0  0  0
 20 19  1  0  0  0  0
 21 19  1  0  0  0  0
 22 23  1  0  0  0  0
 22 31  1  0  0  0  0
 23 25  1  0  0  0  0
 23 24  1  0  0  0  0
 26 23  1  0  0  0  0
 27 29  1  0  0  0  0
 27 22  1  0  0  0  0
 28 27  1  0  0  0  0
 30 27  1  0  0  0  0
 31 33  1  0  0  0  0
 31 34  1  0  0  0  0
 31 32  1  0  0  0  0
M  END
$$$$
