CSD_code = VEXXAA | q = 0 | S = 0 | Stoichiometry = C18H31AuClNO2Si2 | MND = 2
 OpenBabel04212202113D

 56 56  0  0  0  0  0  0  0  0999 V2000
    9.6512    2.0683   11.2636 Au  0  0  0  0  0  0  0  0  0  0  0  0
    8.1380    2.4358   10.2329 C   0  0  0  0  0  0  0  0  0  0  0  0
    6.0850    2.9328    8.8642 C   0  0  0  0  0  0  0  0  0  0  0  0
    5.5595    4.2222    8.8426 C   0  0  0  0  0  0  0  0  0  0  0  0
    6.0403    5.0032    9.4115 H   0  0  0  0  0  0  0  0  0  0  0  0
    4.4303    4.4958    8.0979 C   0  0  0  0  0  0  0  0  0  0  0  0
    4.0397    5.5003    8.0944 H   0  0  0  0  0  0  0  0  0  0  0  0
    3.8091    3.4832    7.3636 C   0  0  0  0  0  0  0  0  0  0  0  0
    4.3508    2.1901    7.3918 C   0  0  0  0  0  0  0  0  0  0  0  0
    3.8597    1.4208    6.8181 H   0  0  0  0  0  0  0  0  0  0  0  0
    5.4740    1.9118    8.1307 C   0  0  0  0  0  0  0  0  0  0  0  0
    5.8896    0.9164    8.1530 H   0  0  0  0  0  0  0  0  0  0  0  0
    2.0804    4.9079    6.5305 C   0  0  0  0  0  0  0  0  0  0  0  0
    2.7753    5.6444    6.1054 H   0  0  0  0  0  0  0  0  0  0  0  0
    1.7800    5.2427    7.5323 H   0  0  0  0  0  0  0  0  0  0  0  0
    0.8543    4.7631    5.6365 C   0  0  0  0  0  0  0  0  0  0  0  0
    0.1958    4.0084    6.0694 H   0  0  0  0  0  0  0  0  0  0  0  0
    1.1759    4.4019    4.6585 H   0  0  0  0  0  0  0  0  0  0  0  0
    0.1039    6.0834    5.4846 C   0  0  0  0  0  0  0  0  0  0  0  0
    0.7650    6.8292    5.0375 H   0  0  0  0  0  0  0  0  0  0  0  0
   -0.1887    6.4503    6.4713 H   0  0  0  0  0  0  0  0  0  0  0  0
   -1.1420    5.9267    4.6157 C   0  0  0  0  0  0  0  0  0  0  0  0
   -1.8013    5.1803    5.0649 H   0  0  0  0  0  0  0  0  0  0  0  0
   -0.8500    5.5579    3.6301 H   0  0  0  0  0  0  0  0  0  0  0  0
   -1.9044    7.2407    4.4571 C   0  0  0  0  0  0  0  0  0  0  0  0
   -1.2571    7.9843    3.9894 H   0  0  0  0  0  0  0  0  0  0  0  0
   -2.1790    7.6171    5.4443 H   0  0  0  0  0  0  0  0  0  0  0  0
   -3.1623    7.0741    3.6090 C   0  0  0  0  0  0  0  0  0  0  0  0
   -3.8216    6.3508    4.0906 H   0  0  0  0  0  0  0  0  0  0  0  0
   -2.8786    6.6401    2.6490 H   0  0  0  0  0  0  0  0  0  0  0  0
   -5.5460    8.4758    2.1116 C   0  0  0  0  0  0  0  0  0  0  0  0
   -6.0505    9.4179    1.9222 H   0  0  0  0  0  0  0  0  0  0  0  0
   -6.2815    7.7820    2.5049 H   0  0  0  0  0  0  0  0  0  0  0  0
   -5.2063    8.0899    1.1558 H   0  0  0  0  0  0  0  0  0  0  0  0
   -4.6866    9.4858    4.9531 C   0  0  0  0  0  0  0  0  0  0  0  0
   -3.8473    9.7416    5.5927 H   0  0  0  0  0  0  0  0  0  0  0  0
   -5.3296    8.8085    5.5061 H   0  0  0  0  0  0  0  0  0  0  0  0
   -5.2480   10.3977    4.7741 H   0  0  0  0  0  0  0  0  0  0  0  0
   -0.9681   11.5691    3.3874 C   0  0  0  0  0  0  0  0  0  0  0  0
   -1.4556   11.8103    4.3272 H   0  0  0  0  0  0  0  0  0  0  0  0
   -0.4056   12.4430    3.0749 H   0  0  0  0  0  0  0  0  0  0  0  0
   -0.2554   10.7740    3.5851 H   0  0  0  0  0  0  0  0  0  0  0  0
   -1.3847   10.5361    0.4442 C   0  0  0  0  0  0  0  0  0  0  0  0
   -0.6950    9.7131    0.6042 H   0  0  0  0  0  0  0  0  0  0  0  0
   -0.8215   11.3590    0.0159 H   0  0  0  0  0  0  0  0  0  0  0  0
   -2.1103   10.2133   -0.2960 H   0  0  0  0  0  0  0  0  0  0  0  0
   -3.5204   12.4252    1.7737 C   0  0  0  0  0  0  0  0  0  0  0  0
   -4.2792   12.1068    1.0653 H   0  0  0  0  0  0  0  0  0  0  0  0
   -3.0608   13.3260    1.3801 H   0  0  0  0  0  0  0  0  0  0  0  0
   -4.0276   12.6909    2.6965 H   0  0  0  0  0  0  0  0  0  0  0  0
   11.4355    1.6351   12.4877 Cl  0  0  0  0  0  0  0  0  0  0  0  0
    7.1896    2.6670    9.5990 N   0  0  0  0  0  2  0  0  0  0  0  0
    2.7066    3.6380    6.6102 O   0  0  0  0  0  0  0  0  0  0  0  0
   -3.0091    9.7199    2.6252 O   0  0  0  0  0  0  0  0  0  0  0  0
   -4.0921    8.7171    3.3146 Si  0  0  0  0  0  0  0  0  0  0  0  0
   -2.2389   11.0480    2.0668 Si  0  0  0  0  0  0  0  0  0  0  0  0
  1 51  1  0  0  0  0
  2  1  3  0  0  0  0
  3 52  1  0  0  0  0
  4  3  1  0  0  0  0
  4  5  1  0  0  0  0
  6  4  2  0  0  0  0
  7  6  1  0  0  0  0
  8  9  2  0  0  0  0
  8  6  1  0  0  0  0
  9 11  1  0  0  0  0
 10  9  1  0  0  0  0
 11 12  1  0  0  0  0
 11  3  2  0  0  0  0
 13 53  1  0  0  0  0
 13 15  1  0  0  0  0
 14 13  1  0  0  0  0
 16 17  1  0  0  0  0
 16 13  1  0  0  0  0
 18 16  1  0  0  0  0
 19 16  1  0  0  0  0
 19 21  1  0  0  0  0
 20 19  1  0  0  0  0
 22 23  1  0  0  0  0
 22 19  1  0  0  0  0
 24 22  1  0  0  0  0
 25 22  1  0  0  0  0
 25 27  1  0  0  0  0
 26 25  1  0  0  0  0
 28 29  1  0  0  0  0
 28 25  1  0  0  0  0
 30 28  1  0  0  0  0
 31 33  1  0  0  0  0
 31 55  1  0  0  0  0
 32 31  1  0  0  0  0
 34 31  1  0  0  0  0
 35 37  1  0  0  0  0
 35 36  1  0  0  0  0
 38 35  1  0  0  0  0
 39 42  1  0  0  0  0
 39 40  1  0  0  0  0
 41 39  1  0  0  0  0
 43 44  1  0  0  0  0
 43 56  1  0  0  0  0
 45 43  1  0  0  0  0
 46 43  1  0  0  0  0
 47 56  1  0  0  0  0
 47 50  1  0  0  0  0
 48 47  1  0  0  0  0
 49 47  1  0  0  0  0
 52  2  1  0  0  0  0
 53  8  1  0  0  0  0
 54 55  1  0  0  0  0
 55 28  1  0  0  0  0
 55 35  1  0  0  0  0
 56 54  1  0  0  0  0
 56 39  1  0  0  0  0
M  END
$$$$
