CSD_code = VEYDOT | q = 0 | S = 0 | Stoichiometry = C10H13Cl2N3OPt | MND = 4
 OpenBabel04212202113D

 30 31  0  0  0  0  0  0  0  0999 V2000
   -3.0730    3.0856   -4.0989 Pt  0  0  0  0  0  0  0  0  0  0  0  0
   -4.7255    2.2606   -5.3566 Cl  0  0  0  0  0  0  0  0  0  0  0  0
   -4.0995    5.0975   -4.1386 Cl  0  0  0  0  0  0  0  0  0  0  0  0
   -2.0144    1.3870   -4.0844 N   0  0  0  0  0  0  0  0  0  0  0  0
   -2.3282    0.2184   -4.6327 C   0  0  0  0  0  0  0  0  0  0  0  0
   -3.2795    0.1782   -5.1478 H   0  0  0  0  0  0  0  0  0  0  0  0
   -1.4934   -0.8810   -4.5554 C   0  0  0  0  0  0  0  0  0  0  0  0
   -1.7863   -1.8106   -5.0153 H   0  0  0  0  0  0  0  0  0  0  0  0
   -0.2794   -0.7683   -3.8818 C   0  0  0  0  0  0  0  0  0  0  0  0
    0.3907   -1.6113   -3.8115 H   0  0  0  0  0  0  0  0  0  0  0  0
    0.0486    0.4396   -3.3036 C   0  0  0  0  0  0  0  0  0  0  0  0
    0.9761    0.5738   -2.7688 H   0  0  0  0  0  0  0  0  0  0  0  0
   -0.8425    1.5118   -3.4134 C   0  0  0  0  0  0  0  0  0  0  0  0
   -0.6573    2.7868   -2.7933 C   0  0  0  0  0  0  0  0  0  0  0  0
    0.1993    2.9690   -2.1481 H   0  0  0  0  0  0  0  0  0  0  0  0
   -1.5826    3.6777   -2.9699 N   0  0  0  0  0  0  0  0  0  0  0  0
   -1.5833    4.8752   -2.1818 C   0  0  0  0  0  0  0  0  0  0  0  0
   -1.8520    5.7208   -2.8200 H   0  0  0  0  0  0  0  0  0  0  0  0
   -0.6031    5.0388   -1.7137 H   0  0  0  0  0  0  0  0  0  0  0  0
   -2.6814    4.7436   -1.1045 C   0  0  0  0  0  0  0  0  0  0  0  0
   -2.7346    5.6664   -0.5270 H   0  0  0  0  0  0  0  0  0  0  0  0
   -3.6323    4.5777   -1.6208 H   0  0  0  0  0  0  0  0  0  0  0  0
   -2.4426    3.6333   -0.2140 N   0  0  0  0  0  0  0  0  0  0  0  0
   -1.9260    3.8059    0.6334 H   0  0  0  0  0  0  0  0  0  0  0  0
   -2.8430    2.3683   -0.4894 C   0  0  0  0  0  0  0  0  0  0  0  0
   -2.4962    1.3729    0.5976 C   0  0  0  0  0  0  0  0  0  0  0  0
   -1.4253    1.3733    0.7894 H   0  0  0  0  0  0  0  0  0  0  0  0
   -2.8055    0.3806    0.2837 H   0  0  0  0  0  0  0  0  0  0  0  0
   -3.0167    1.6325    1.5168 H   0  0  0  0  0  0  0  0  0  0  0  0
   -3.4295    2.0552   -1.5051 O   0  0  0  0  0  0  0  0  0  0  0  0
  1  4  1  0  0  0  0
  1 16  1  0  0  0  0
  2  1  1  0  0  0  0
  3  1  1  0  0  0  0
  4 13  1  0  0  0  0
  5  7  2  0  0  0  0
  5  4  1  0  0  0  0
  6  5  1  0  0  0  0
  7  9  1  0  0  0  0
  8  7  1  0  0  0  0
  9 10  1  0  0  0  0
  9 11  2  0  0  0  0
 11 12  1  0  0  0  0
 13 11  1  0  0  0  0
 13 14  2  0  0  0  0
 14 15  1  0  0  0  0
 16 14  1  0  0  0  0
 16 17  1  0  0  0  0
 17 19  1  0  0  0  0
 17 20  1  0  0  0  0
 18 17  1  0  0  0  0
 20 21  1  0  0  0  0
 20 23  1  0  0  0  0
 22 20  1  0  0  0  0
 23 24  1  0  0  0  0
 25 23  1  0  0  0  0
 25 26  1  0  0  0  0
 26 27  1  0  0  0  0
 26 29  1  0  0  0  0
 28 26  1  0  0  0  0
 30 25  2  0  0  0  0
M  END
$$$$
