CSD_code = VEYKEP | q = 0 | S = 0 | Stoichiometry = C16H26Cl3OTa | MND = 10
 OpenBabel04212202113D

 47 44  0  0  1  0  0  0  0  0999 V2000
    9.0272    2.7407    4.1906 Ta  0  0  0  0  0  0  0  0  0  0  0  0
    8.5847    0.5310    3.9691 Cl  0  0  0  0  0  0  0  0  0  0  0  0
    8.0783    3.2033    2.1100 Cl  0  0  0  0  0 15  0  0  0  0  0  0
   10.8640    2.2957    5.5879 Cl  0  0  0  0  0 15  0  0  0  0  0  0
    9.8059    4.9016    4.1585 O   0  0  0  0  0  0  0  0  0  0  0  0
   10.4813    4.1251    3.5229 C   0  0  0  0  0  0  0  0  0  0  0  0
   11.8094    4.4153    2.9253 C   0  0  0  0  0  0  0  0  0  0  0  0
   12.1615    3.5920    1.6701 C   0  0  0  0  0  0  0  0  0  0  0  0
   11.2743    4.0431    0.5096 C   0  0  0  0  0  0  0  0  0  0  0  0
   13.6314    3.8554    1.3298 C   0  0  0  0  0  0  0  0  0  0  0  0
   11.9609    2.0969    1.9315 C   0  0  0  0  0  0  0  0  0  0  0  0
    7.5215    2.2870    6.7641 C   0  0  0  0  0  0  0  0  0  0  0  0
    7.9210    3.5510    6.2451 C   0  0  1  0  0  3  0  0  0  0  0  0
    7.0310    3.8473    5.1263 C   0  0  0  0  0  0  0  0  0  0  0  0
    6.1300    2.7497    5.0165 C   0  0  0  0  0  0  0  0  0  0  0  0
    6.4342    1.8105    6.0148 C   0  0  0  0  0  0  0  0  0  0  0  0
    8.2076    1.6105    7.9007 C   0  0  0  0  0  0  0  0  0  0  0  0
    8.6805    4.5665    7.0448 C   0  0  0  0  0  0  0  0  0  0  0  0
    6.7270    5.2164    4.5967 C   0  0  0  0  0  0  0  0  0  0  0  0
    5.0736    2.6574    3.9697 C   0  0  0  0  0  0  0  0  0  0  0  0
    5.7926    0.4750    6.1775 C   0  0  0  0  0  0  0  0  0  0  0  0
   12.5154    4.1591    3.7246 H   0  0  0  0  0  0  0  0  0  0  0  0
   11.9048    5.4869    2.7250 H   0  0  0  0  0  0  0  0  0  0  0  0
   11.4511    5.0902    0.2729 H   0  0  0  0  0  0  0  0  0  0  0  0
   10.2239    3.9194    0.7624 H   0  0  0  0  0  0  0  0  0  0  0  0
   11.4863    3.4527   -0.3780 H   0  0  0  0  0  0  0  0  0  0  0  0
   13.8984    3.3549    0.4026 H   0  0  0  0  0  0  0  0  0  0  0  0
   13.8155    4.9202    1.2048 H   0  0  0  0  0  0  0  0  0  0  0  0
   14.2816    3.4834    2.1181 H   0  0  0  0  0  0  0  0  0  0  0  0
   12.4305    1.5193    1.1388 H   0  0  0  0  0  0  0  0  0  0  0  0
   12.4084    1.8034    2.8787 H   0  0  0  0  0  0  0  0  0  0  0  0
   10.9026    1.8378    1.9494 H   0  0  0  0  0  0  0  0  0  0  0  0
    7.8326    0.6021    8.0467 H   0  0  0  0  0  0  0  0  0  0  0  0
    8.0709    2.1751    8.8240 H   0  0  0  0  0  0  0  0  0  0  0  0
    9.2793    1.5544    7.7018 H   0  0  0  0  0  0  0  0  0  0  0  0
    9.0091    5.3972    6.4246 H   0  0  0  0  0  0  0  0  0  0  0  0
    9.5557    4.1105    7.5048 H   0  0  0  0  0  0  0  0  0  0  0  0
    8.0438    4.9611    7.8388 H   0  0  0  0  0  0  0  0  0  0  0  0
    6.3994    5.1580    3.5601 H   0  0  0  0  0  0  0  0  0  0  0  0
    7.5981    5.8652    4.6470 H   0  0  0  0  0  0  0  0  0  0  0  0
    5.9260    5.6695    5.1836 H   0  0  0  0  0  0  0  0  0  0  0  0
    5.5185    2.8084    2.9845 H   0  0  0  0  0  0  0  0  0  0  0  0
    4.3193    3.4319    4.1155 H   0  0  0  0  0  0  0  0  0  0  0  0
    4.5869    1.6867    3.9804 H   0  0  0  0  0  0  0  0  0  0  0  0
    6.3469   -0.2661    5.5960 H   0  0  0  0  0  0  0  0  0  0  0  0
    4.7649    0.4876    5.8235 H   0  0  0  0  0  0  0  0  0  0  0  0
    5.7954    0.1635    7.2194 H   0  0  0  0  0  0  0  0  0  0  0  0
  2  1  1  0  0  0  0
  6  5  2  0  0  0  0
  6  1  1  0  0  0  0
  7  6  1  0  0  0  0
  7 22  1  0  0  0  0
  8 11  1  0  0  0  0
  8  7  1  0  0  0  0
  9 25  1  0  0  0  0
  9  8  1  0  0  0  0
 10  8  1  0  0  0  0
 10 29  1  0  0  0  0
 11 32  1  0  0  0  0
 11 31  1  0  0  0  0
 12 17  1  0  0  0  0
 13 12  1  0  0  0  0
 13 18  1  1  0  0  0
 14 13  1  0  0  0  0
 15 14  2  0  0  0  0
 15 16  1  0  0  0  0
 16 21  1  0  0  0  0
 16 12  2  0  0  0  0
 17 33  1  0  0  0  0
 17 34  1  0  0  0  0
 18 37  1  0  0  0  0
 18 38  1  0  0  0  0
 19 40  1  0  0  0  0
 19 14  1  0  0  0  0
 19 41  1  0  0  0  0
 20 44  1  0  0  0  0
 20 43  1  0  0  0  0
 20 15  1  0  0  0  0
 21 47  1  0  0  0  0
 23  7  1  0  0  0  0
 24  9  1  0  0  0  0
 26  9  1  0  0  0  0
 27 10  1  0  0  0  0
 28 10  1  0  0  0  0
 30 11  1  0  0  0  0
 35 17  1  0  0  0  0
 36 18  1  0  0  0  0
 39 19  1  0  0  0  0
 42 20  1  0  0  0  0
 45 21  1  0  0  0  0
 46 21  1  0  0  0  0
M  END
$$$$
