CSD_code = VEYSAU | q = 0 | S = 0 | Stoichiometry = C22H16Cl2F16N2O2Pd | MND = 4
 OpenBabel04212202113D

 61 63  0  0  0  0  0  0  0  0999 V2000
    5.7788   -0.1221    6.9322 Pd  0  0  0  0  0  0  0  0  0  0  0  0
    4.7743   -2.0745    7.1875 Cl  0  0  0  0  0  0  0  0  0  0  0  0
    6.4434   -0.7686    4.9248 Cl  0  0  0  0  0  0  0  0  0  0  0  0
    2.1582    1.5600   16.5299 F   0  0  0  0  0  0  0  0  0  0  0  0
    3.5675    0.0809   15.8309 F   0  0  0  0  0  0  0  0  0  0  0  0
    0.8688    1.1991   13.8939 F   0  0  0  0  0  0  0  0  0  0  0  0
    2.1038   -0.5676   13.7354 F   0  0  0  0  0  0  0  0  0  0  0  0
   -0.2958    0.4409   16.0745 F   0  0  0  0  0  0  0  0  0  0  0  0
    1.1765   -1.0684   16.5491 F   0  0  0  0  0  0  0  0  0  0  0  0
   -0.8181   -1.0203   13.6566 F   0  0  0  0  0  0  0  0  0  0  0  0
    0.4476   -2.5851   14.4610 F   0  0  0  0  0  0  0  0  0  0  0  0
   12.1845    6.2671    5.8569 F   0  0  0  0  0  0  0  0  0  0  0  0
   11.6748    8.1545    4.9612 F   0  0  0  0  0  0  0  0  0  0  0  0
   11.0620    4.8480    4.0675 F   0  0  0  0  0  0  0  0  0  0  0  0
    9.6410    6.3515    3.4804 F   0  0  0  0  0  0  0  0  0  0  0  0
   13.1520    6.5110    3.1757 F   0  0  0  0  0  0  0  0  0  0  0  0
   11.7664    5.7403    1.7122 F   0  0  0  0  0  0  0  0  0  0  0  0
   11.5899    8.0592    0.8713 F   0  0  0  0  0  0  0  0  0  0  0  0
   10.5000    8.5818    2.6582 F   0  0  0  0  0  0  0  0  0  0  0  0
    3.6938    1.5558   13.3422 O   0  0  0  0  0  0  0  0  0  0  0  0
    9.3845    5.7373    6.1700 O   0  0  0  0  0  0  0  0  0  0  0  0
    5.2368    0.5909    8.7378 N   0  0  0  0  0  0  0  0  0  0  0  0
    6.6352    1.6964    6.8247 N   0  0  0  0  0  0  0  0  0  0  0  0
    5.6572    1.8521    8.9862 C   0  0  0  0  0  0  0  0  0  0  0  0
    5.3693    2.4734   10.1997 C   0  0  0  0  0  0  0  0  0  0  0  0
    5.7109    3.4777   10.3927 H   0  0  0  0  0  0  0  0  0  0  0  0
    4.6435    1.7973   11.1693 C   0  0  0  0  0  0  0  0  0  0  0  0
    4.2185    0.5009   10.8899 C   0  0  0  0  0  0  0  0  0  0  0  0
    3.6551   -0.0549   11.6195 H   0  0  0  0  0  0  0  0  0  0  0  0
    4.5373   -0.0584    9.6671 C   0  0  0  0  0  0  0  0  0  0  0  0
    4.2286   -1.0651    9.4046 H   0  0  0  0  0  0  0  0  0  0  0  0
    6.4255    2.4761    7.9090 C   0  0  0  0  0  0  0  0  0  0  0  0
    6.9299    3.7750    7.9626 C   0  0  0  0  0  0  0  0  0  0  0  0
    6.7535    4.3913    8.8293 H   0  0  0  0  0  0  0  0  0  0  0  0
    7.6598    4.2785    6.8980 C   0  0  0  0  0  0  0  0  0  0  0  0
    7.8734    3.4515    5.7965 C   0  0  0  0  0  0  0  0  0  0  0  0
    8.4508    3.8019    4.9583 H   0  0  0  0  0  0  0  0  0  0  0  0
    7.3455    2.1757    5.8036 C   0  0  0  0  0  0  0  0  0  0  0  0
    7.4818    1.4971    4.9678 H   0  0  0  0  0  0  0  0  0  0  0  0
    4.3339    2.4677   12.4786 C   0  0  0  0  0  0  0  0  0  0  0  0
    5.2664    2.8335   12.9378 H   0  0  0  0  0  0  0  0  0  0  0  0
    3.6819    3.3390   12.3011 H   0  0  0  0  0  0  0  0  0  0  0  0
    3.3739    2.0956   14.5877 C   0  0  0  0  0  0  0  0  0  0  0  0
    2.6811    2.9476   14.5024 H   0  0  0  0  0  0  0  0  0  0  0  0
    4.2701    2.4138   15.1424 H   0  0  0  0  0  0  0  0  0  0  0  0
    2.6833    1.0071   15.4119 C   0  0  0  0  0  0  0  0  0  0  0  0
    1.5552    0.2860   14.6131 C   0  0  0  0  0  0  0  0  0  0  0  0
    0.5416   -0.4662   15.5277 C   0  0  0  0  0  0  0  0  0  0  0  0
   -0.3106   -1.5311   14.7873 C   0  0  0  0  0  0  0  0  0  0  0  0
    8.1913    5.6837    6.9242 C   0  0  0  0  0  0  0  0  0  0  0  0
    7.4430    6.3659    6.4868 H   0  0  0  0  0  0  0  0  0  0  0  0
    8.3807    6.0042    7.9595 H   0  0  0  0  0  0  0  0  0  0  0  0
    9.9425    7.0130    6.0918 C   0  0  0  0  0  0  0  0  0  0  0  0
   10.2521    7.3910    7.0781 H   0  0  0  0  0  0  0  0  0  0  0  0
    9.2576    7.7374    5.6237 H   0  0  0  0  0  0  0  0  0  0  0  0
   11.1909    6.9096    5.2171 C   0  0  0  0  0  0  0  0  0  0  0  0
   10.9176    6.1684    3.8721 C   0  0  0  0  0  0  0  0  0  0  0  0
   11.8802    6.6106    2.7274 C   0  0  0  0  0  0  0  0  0  0  0  0
   11.6566    8.0640    2.2063 C   0  0  0  0  0  0  0  0  0  0  0  0
   -1.1345   -1.8627   15.4390 H   0  0  0  0  0  0  0  0  0  0  0  0
   12.4844    8.7143    2.5300 H   0  0  0  0  0  0  0  0  0  0  0  0
  1  2  1  0  0  0  0
  1 22  1  0  0  0  0
  3  1  1  0  0  0  0
  6 47  1  0  0  0  0
  7 47  1  0  0  0  0
 10 49  1  0  0  0  0
 11 49  1  0  0  0  0
 13 56  1  0  0  0  0
 15 57  1  0  0  0  0
 17 58  1  0  0  0  0
 18 59  1  0  0  0  0
 20 43  1  0  0  0  0
 21 50  1  0  0  0  0
 22 24  1  0  0  0  0
 22 30  1  0  0  0  0
 23  1  1  0  0  0  0
 23 32  1  0  0  0  0
 24 25  1  0  0  0  0
 25 26  1  0  0  0  0
 25 27  2  0  0  0  0
 27 40  1  0  0  0  0
 28 27  1  0  0  0  0
 28 29  1  0  0  0  0
 30 28  2  0  0  0  0
 31 30  1  0  0  0  0
 32 33  1  0  0  0  0
 32 24  2  0  0  0  0
 33 34  1  0  0  0  0
 35 50  1  0  0  0  0
 35 33  2  0  0  0  0
 36 38  2  0  0  0  0
 36 35  1  0  0  0  0
 37 36  1  0  0  0  0
 38 23  1  0  0  0  0
 39 38  1  0  0  0  0
 40 41  1  0  0  0  0
 40 20  1  0  0  0  0
 42 40  1  0  0  0  0
 43 45  1  0  0  0  0
 43 46  1  0  0  0  0
 44 43  1  0  0  0  0
 46  5  1  0  0  0  0
 46  4  1  0  0  0  0
 47 46  1  0  0  0  0
 47 48  1  0  0  0  0
 48  8  1  0  0  0  0
 48  9  1  0  0  0  0
 49 60  1  0  0  0  0
 49 48  1  0  0  0  0
 50 52  1  0  0  0  0
 51 50  1  0  0  0  0
 53 21  1  0  0  0  0
 53 54  1  0  0  0  0
 55 53  1  0  0  0  0
 56 12  1  0  0  0  0
 56 53  1  0  0  0  0
 57 14  1  0  0  0  0
 57 56  1  0  0  0  0
 58 16  1  0  0  0  0
 58 57  1  0  0  0  0
 59 61  1  0  0  0  0
 59 19  1  0  0  0  0
 59 58  1  0  0  0  0
M  END
$$$$
