CSD_code = VEYTEB | q = 0 | S = 0 | Stoichiometry = C19H21ClNNiOP | MND = 4
 OpenBabel04212202113D

 45 48  0  0  1  0  0  0  0  0999 V2000
    0.2789    5.2958    7.9439 Ni  0  0  1  0  0  0  0  0  0  0  0  0
   -0.1635    6.8084    9.3033 Cl  0  0  0  0  0  0  0  0  0  0  0  0
    1.8897    4.9970    9.2364 P   0  0  0  0  0  4  0  0  0  0  0  0
   -1.2697    5.6195    6.9400 O   0  0  0  0  0  0  0  0  0  0  0  0
    0.9631    3.9292    6.7637 N   0  0  1  0  0  0  0  0  0  0  0  0
    1.0683    2.6380    4.6745 C   0  0  0  0  0  0  0  0  0  0  0  0
    2.0811    2.9686    4.4485 H   0  0  0  0  0  0  0  0  0  0  0  0
    0.5116    2.5719    3.7448 H   0  0  0  0  0  0  0  0  0  0  0  0
    1.1211    1.6396    5.1097 H   0  0  0  0  0  0  0  0  0  0  0  0
    0.3892    3.5975    5.6219 C   0  0  1  0  0  3  0  0  0  0  0  0
   -0.8584    4.0780    5.2057 C   0  0  0  0  0  0  0  0  0  0  0  0
   -1.2605    3.6904    4.2832 H   0  0  0  0  0  0  0  0  0  0  0  0
   -1.6173    5.0265    5.8820 C   0  0  0  0  0  0  0  0  0  0  0  0
   -2.9644    5.4027    5.3038 C   0  0  0  0  0  0  0  0  0  0  0  0
   -3.4190    6.1745    5.9182 H   0  0  0  0  0  0  0  0  0  0  0  0
   -3.6148    4.5315    5.2791 H   0  0  0  0  0  0  0  0  0  0  0  0
   -2.8460    5.7716    4.2881 H   0  0  0  0  0  0  0  0  0  0  0  0
    2.2738    3.3577    7.0687 C   0  0  0  0  0  0  0  0  0  0  0  0
    3.0422    3.9163    6.5151 H   0  0  0  0  0  0  0  0  0  0  0  0
    2.3215    2.3111    6.7461 H   0  0  0  0  0  0  0  0  0  0  0  0
    2.5771    3.4064    8.5670 C   0  0  0  0  0  0  0  0  0  0  0  0
    3.6394    3.2645    8.7744 H   0  0  0  0  0  0  0  0  0  0  0  0
    2.0157    2.6155    9.0755 H   0  0  0  0  0  0  0  0  0  0  0  0
    1.6354    4.5694   10.9819 C   0  0  0  0  0  0  0  0  0  0  0  0
    0.3596    4.2124   11.4007 C   0  0  0  0  0  0  0  0  0  0  0  0
   -0.4595    4.2683   10.6933 H   0  0  0  0  0  0  0  0  0  0  0  0
    0.1458    3.8157   12.7080 C   0  0  0  0  0  0  0  0  0  0  0  0
   -0.8471    3.5452   13.0350 H   0  0  0  0  0  0  0  0  0  0  0  0
    1.2066    3.7714   13.5981 C   0  0  0  0  0  0  0  0  0  0  0  0
    1.0409    3.4666   14.6209 H   0  0  0  0  0  0  0  0  0  0  0  0
    2.4811    4.1206   13.1806 C   0  0  0  0  0  0  0  0  0  0  0  0
    3.3063    4.0850   13.8768 H   0  0  0  0  0  0  0  0  0  0  0  0
    2.7004    4.5173   11.8740 C   0  0  0  0  0  0  0  0  0  0  0  0
    3.6927    4.7943   11.5461 H   0  0  0  0  0  0  0  0  0  0  0  0
    3.2522    6.1897    9.2924 C   0  0  0  0  0  0  0  0  0  0  0  0
    3.1056    7.2933   10.1312 C   0  0  0  0  0  0  0  0  0  0  0  0
    2.2018    7.3915   10.7158 H   0  0  0  0  0  0  0  0  0  0  0  0
    4.0992    8.2515   10.1914 C   0  0  0  0  0  0  0  0  0  0  0  0
    3.9839    9.1046   10.8432 H   0  0  0  0  0  0  0  0  0  0  0  0
    5.2393    8.1220    9.4132 C   0  0  0  0  0  0  0  0  0  0  0  0
    6.0153    8.8716    9.4605 H   0  0  0  0  0  0  0  0  0  0  0  0
    5.3795    7.0356    8.5660 C   0  0  0  0  0  0  0  0  0  0  0  0
    6.2632    6.9388    7.9519 H   0  0  0  0  0  0  0  0  0  0  0  0
    4.3876    6.0727    8.4991 C   0  0  0  0  0  0  0  0  0  0  0  0
    4.5018    5.2344    7.8272 H   0  0  0  0  0  0  0  0  0  0  0  0
  1  3  1  0  0  0  0
  1  2  1  6  0  0  0
  3 35  1  0  0  0  0
  3 24  1  0  0  0  0
  4  1  1  0  0  0  0
  5 18  1  6  0  0  0
  5  1  1  0  0  0  0
  6  9  1  0  0  0  0
  7  6  1  0  0  0  0
  8  6  1  0  0  0  0
 10  6  1  1  0  0  0
 10  5  1  0  0  0  0
 11 10  1  0  0  0  0
 11 13  2  0  0  0  0
 12 11  1  0  0  0  0
 13  4  1  0  0  0  0
 14 13  1  0  0  0  0
 14 15  1  0  0  0  0
 16 14  1  0  0  0  0
 17 14  1  0  0  0  0
 18 21  1  0  0  0  0
 19 18  1  0  0  0  0
 20 18  1  0  0  0  0
 21 22  1  0  0  0  0
 21 23  1  0  0  0  0
 21  3  1  0  0  0  0
 24 25  2  0  0  0  0
 24 33  1  0  0  0  0
 25 27  1  0  0  0  0
 26 25  1  0  0  0  0
 27 28  1  0  0  0  0
 27 29  2  0  0  0  0
 29 30  1  0  0  0  0
 31 29  1  0  0  0  0
 31 32  1  0  0  0  0
 33 31  2  0  0  0  0
 34 33  1  0  0  0  0
 35 36  1  0  0  0  0
 36 38  2  0  0  0  0
 36 37  1  0  0  0  0
 38 39  1  0  0  0  0
 40 41  1  0  0  0  0
 40 38  1  0  0  0  0
 42 40  2  0  0  0  0
 43 42  1  0  0  0  0
 44 42  1  0  0  0  0
 44 35  2  0  0  0  0
 45 44  1  0  0  0  0
M  END
$$$$
