CSD_code = VEYTIF | q = 0 | S = 0 | Stoichiometry = C20H32ClN3Ni | MND = 4
 OpenBabel04212202113D

 57 59  0  0  1  0  0  0  0  0999 V2000
    4.5894    2.0776    2.0440 Ni  0  0  2  0  0  0  0  0  0  0  0  0
    4.2585    0.5723    3.4660 Cl  0  0  0  0  0  0  0  0  0  0  0  0
    5.1236    3.5912    1.0020 N   0  0  1  0  0  0  0  0  0  0  0  0
    2.7533    2.5290    1.9352 N   0  0  0  0  0  0  0  0  0  0  0  0
    6.5977    1.5712    2.0484 N   0  0  0  0  0  4  0  0  0  0  0  0
    5.0116    5.8477    0.0362 C   0  0  0  0  0  0  0  0  0  0  0  0
    5.8289    6.2188    0.6534 H   0  0  0  0  0  0  0  0  0  0  0  0
    4.2725    6.6359   -0.0707 H   0  0  0  0  0  0  0  0  0  0  0  0
    5.4110    5.6178   -0.9521 H   0  0  0  0  0  0  0  0  0  0  0  0
    4.3847    4.6239    0.6547 C   0  0  1  0  0  3  0  0  0  0  0  0
    3.0001    4.6327    0.8045 C   0  0  0  0  0  0  0  0  0  0  0  0
    2.4690    5.4960    0.4379 H   0  0  0  0  0  0  0  0  0  0  0  0
    2.2453    3.6043    1.3560 C   0  0  0  0  0  0  0  0  0  0  0  0
    0.7450    3.7395    1.2684 C   0  0  0  0  0  0  0  0  0  0  0  0
    0.2924    3.7247    2.2573 H   0  0  0  0  0  0  0  0  0  0  0  0
    0.3268    2.9045    0.7089 H   0  0  0  0  0  0  0  0  0  0  0  0
    0.4737    4.6662    0.7710 H   0  0  0  0  0  0  0  0  0  0  0  0
    6.5499    3.6513    0.7382 C   0  0  0  0  0  0  0  0  0  0  0  0
    7.0458    4.3364    1.4421 H   0  0  0  0  0  0  0  0  0  0  0  0
    6.7513    4.0215   -0.2759 H   0  0  0  0  0  0  0  0  0  0  0  0
    7.1272    2.2480    0.8587 C   0  0  0  0  0  0  0  0  0  0  0  0
    6.8055    1.6778   -0.0152 H   0  0  0  0  0  0  0  0  0  0  0  0
    8.2252    2.2732    0.8653 H   0  0  0  0  0  0  0  0  0  0  0  0
    6.9707    0.1461    1.9987 C   0  0  0  0  0  0  0  0  0  0  0  0
    6.7442   -0.2851    2.9748 H   0  0  0  0  0  0  0  0  0  0  0  0
    8.0469    0.0492    1.8031 H   0  0  0  0  0  0  0  0  0  0  0  0
    6.1861   -0.6315    0.9484 C   0  0  0  0  0  0  0  0  0  0  0  0
    5.1286   -0.3730    1.0319 H   0  0  0  0  0  0  0  0  0  0  0  0
    6.2892   -1.6969    1.1350 H   0  0  0  0  0  0  0  0  0  0  0  0
    6.5259   -0.4291   -0.0650 H   0  0  0  0  0  0  0  0  0  0  0  0
    7.0719    2.1833    3.3077 C   0  0  0  0  0  0  0  0  0  0  0  0
    6.6305    1.6034    4.1226 H   0  0  0  0  0  0  0  0  0  0  0  0
    6.6667    3.1989    3.3711 H   0  0  0  0  0  0  0  0  0  0  0  0
    8.5863    2.2429    3.5103 C   0  0  0  0  0  0  0  0  0  0  0  0
    9.0736    2.8870    2.7815 H   0  0  0  0  0  0  0  0  0  0  0  0
    9.0346    1.2542    3.4633 H   0  0  0  0  0  0  0  0  0  0  0  0
    8.7830    2.6525    4.4981 H   0  0  0  0  0  0  0  0  0  0  0  0
    1.8157    1.5699    2.4084 C   0  0  0  0  0  0  0  0  0  0  0  0
    1.4300    0.5161    1.5759 C   0  0  0  0  0  0  0  0  0  0  0  0
    0.4832   -0.3889    2.0295 C   0  0  0  0  0  0  0  0  0  0  0  0
    0.1886   -1.2061    1.3856 H   0  0  0  0  0  0  0  0  0  0  0  0
   -0.0814   -0.2714    3.2896 C   0  0  0  0  0  0  0  0  0  0  0  0
    0.3372    0.7659    4.1134 C   0  0  0  0  0  0  0  0  0  0  0  0
   -0.0756    0.8487    5.1092 H   0  0  0  0  0  0  0  0  0  0  0  0
    1.2806    1.6882    3.6969 C   0  0  0  0  0  0  0  0  0  0  0  0
    2.0637    0.3680    0.2245 C   0  0  0  0  0  0  0  0  0  0  0  0
    1.5612    0.9924   -0.5156 H   0  0  0  0  0  0  0  0  0  0  0  0
    2.0239   -0.6655   -0.1101 H   0  0  0  0  0  0  0  0  0  0  0  0
    3.1110    0.6922    0.2731 H   0  0  0  0  0  0  0  0  0  0  0  0
   -1.0981   -1.2589    3.7792 C   0  0  0  0  0  0  0  0  0  0  0  0
   -1.4478   -1.8929    2.9681 H   0  0  0  0  0  0  0  0  0  0  0  0
   -1.9526   -0.7455    4.2174 H   0  0  0  0  0  0  0  0  0  0  0  0
   -0.6609   -1.8951    4.5485 H   0  0  0  0  0  0  0  0  0  0  0  0
    1.7705    2.7714    4.6084 C   0  0  0  0  0  0  0  0  0  0  0  0
    1.4424    3.7561    4.2746 H   0  0  0  0  0  0  0  0  0  0  0  0
    2.8619    2.7718    4.6086 H   0  0  0  0  0  0  0  0  0  0  0  0
    1.4156    2.6105    5.6229 H   0  0  0  0  0  0  0  0  0  0  0  0
  1  5  1  0  0  0  0
  1  2  1  1  0  0  0
  3 18  1  1  0  0  0
  3  1  1  0  0  0  0
  4  1  1  0  0  0  0
  4 38  1  0  0  0  0
  5 31  1  0  0  0  0
  6  7  1  0  0  0  0
  8  6  1  0  0  0  0
  9  6  1  0  0  0  0
 10  6  1  6  0  0  0
 10 11  1  0  0  0  0
 10  3  1  0  0  0  0
 11 13  2  0  0  0  0
 12 11  1  0  0  0  0
 13  4  1  0  0  0  0
 14 13  1  0  0  0  0
 14 15  1  0  0  0  0
 16 14  1  0  0  0  0
 17 14  1  0  0  0  0
 18 21  1  0  0  0  0
 18 19  1  0  0  0  0
 20 18  1  0  0  0  0
 21 23  1  0  0  0  0
 21  5  1  0  0  0  0
 22 21  1  0  0  0  0
 24  5  1  0  0  0  0
 24 25  1  0  0  0  0
 26 24  1  0  0  0  0
 27 28  1  0  0  0  0
 27 29  1  0  0  0  0
 27 24  1  0  0  0  0
 30 27  1  0  0  0  0
 31 33  1  0  0  0  0
 31 34  1  0  0  0  0
 31 32  1  0  0  0  0
 34 37  1  0  0  0  0
 35 34  1  0  0  0  0
 36 34  1  0  0  0  0
 38 45  1  0  0  0  0
 39 40  1  0  0  0  0
 39 38  2  0  0  0  0
 40 42  2  0  0  0  0
 41 40  1  0  0  0  0
 42 50  1  0  0  0  0
 42 43  1  0  0  0  0
 43 44  1  0  0  0  0
 45 43  2  0  0  0  0
 45 54  1  0  0  0  0
 46 49  1  0  0  0  0
 46 39  1  0  0  0  0
 47 46  1  0  0  0  0
 48 46  1  0  0  0  0
 50 52  1  0  0  0  0
 50 53  1  0  0  0  0
 51 50  1  0  0  0  0
 54 56  1  0  0  0  0
 54 57  1  0  0  0  0
 55 54  1  0  0  0  0
M  END
$$$$
