CSD_code = VEYWOO | q = 0 | S = 0 | Stoichiometry = C18H17Br2FeN3 | MND = 5
 OpenBabel04212202113D

 41 45  0  0  1  0  0  0  0  0999 V2000
    3.7149   11.4662    5.9784 Br  0  0  0  0  0  0  0  0  0  0  0  0
    3.4908   15.6924    7.7446 Br  0  0  0  0  0  0  0  0  0  0  0  0
    3.2431   13.6386    6.6805 Fe  0  0  0  0  0  0  0  0  0  0  0  0
    2.2881   12.9975    8.1955 N   0  0  0  0  0  0  0  0  0  0  0  0
    1.4094   13.5973    5.7646 N   0  0  0  0  0  4  0  0  0  0  0  0
    1.5927   13.1758    4.8518 H   0  0  0  0  0  0  0  0  0  0  0  0
    3.9325   14.3968    5.0408 N   0  0  0  0  0  0  0  0  0  0  0  0
    1.0630   14.9612    5.5891 C   0  0  0  0  0  0  0  0  0  0  0  0
    5.7128   14.4469    3.4288 C   0  0  0  0  0  0  0  0  0  0  0  0
    1.9815   12.6348   10.5312 C   0  0  0  0  0  0  0  0  0  0  0  0
    2.4201   12.6008   11.5150 H   0  0  0  0  0  0  0  0  0  0  0  0
    0.5531   12.7077    6.5549 C   0  0  0  0  0  0  0  0  0  0  0  0
    0.7167   11.6880    6.1873 H   0  0  0  0  0  0  0  0  0  0  0  0
   -0.5108   12.9411    6.4475 H   0  0  0  0  0  0  0  0  0  0  0  0
    1.9085   15.7235    4.7606 C   0  0  0  0  0  0  0  0  0  0  0  0
    4.9113   15.1999    2.5745 C   0  0  0  0  0  0  0  0  0  0  0  0
    5.2729   15.4898    1.5995 H   0  0  0  0  0  0  0  0  0  0  0  0
    0.9870   12.7288    7.9982 C   0  0  1  0  0  3  0  0  0  0  0  0
    2.7664   12.9393    9.4374 C   0  0  0  0  0  0  0  0  0  0  0  0
    3.8213   13.1532    9.5441 H   0  0  0  0  0  0  0  0  0  0  0  0
   -0.0256   15.5615    6.2039 C   0  0  0  0  0  0  0  0  0  0  0  0
   -0.6447   15.0052    6.8891 H   0  0  0  0  0  0  0  0  0  0  0  0
    0.4859   17.6402    5.1206 C   0  0  0  0  0  0  0  0  0  0  0  0
    0.2659   18.6806    4.9404 H   0  0  0  0  0  0  0  0  0  0  0  0
    5.1617   14.0781    4.6445 C   0  0  0  0  0  3  0  0  0  0  0  0
    5.7359   13.4791    5.3403 H   0  0  0  0  0  0  0  0  0  0  0  0
    0.6313   12.3859   10.3369 C   0  0  0  0  0  0  0  0  0  0  0  0
   -0.0172   12.1579   11.1678 H   0  0  0  0  0  0  0  0  0  0  0  0
    0.1322   12.4310    9.0426 C   0  0  0  0  0  0  0  0  0  0  0  0
   -0.9090   12.2306    8.8421 H   0  0  0  0  0  0  0  0  0  0  0  0
   -0.3100   16.8964    5.9720 C   0  0  0  0  0  0  0  0  0  0  0  0
   -1.1543   17.3528    6.4651 H   0  0  0  0  0  0  0  0  0  0  0  0
    7.1061   14.0481    3.0691 C   0  0  0  0  0  0  0  0  0  0  0  0
    7.2444   14.0612    1.9910 H   0  0  0  0  0  0  0  0  0  0  0  0
    7.3297   13.0531    3.4462 H   0  0  0  0  0  0  0  0  0  0  0  0
    7.8175   14.7448    3.5132 H   0  0  0  0  0  0  0  0  0  0  0  0
    1.5944   17.0590    4.5327 C   0  0  0  0  0  0  0  0  0  0  0  0
    2.2539   17.6605    3.9265 H   0  0  0  0  0  0  0  0  0  0  0  0
    3.1823   15.1910    4.2473 C   0  0  0  0  0  0  0  0  0  0  0  0
    3.6532   15.5828    2.9968 C   0  0  0  0  0  0  0  0  0  0  0  0
    3.0170   16.1724    2.3556 H   0  0  0  0  0  0  0  0  0  0  0  0
  1  3  1  0  0  0  0
  3  2  1  0  0  0  0
  3  4  1  0  0  0  0
  4 19  1  0  0  0  0
  5 12  1  0  0  0  0
  5  3  1  0  0  0  0
  6  5  1  0  0  0  0
  7  3  1  0  0  0  0
  8  5  1  0  0  0  0
  8 21  1  0  0  0  0
  9 25  1  0  0  0  0
 10 11  1  0  0  0  0
 12 18  1  0  0  0  0
 13 12  1  0  0  0  0
 14 12  1  0  0  0  0
 15  8  2  0  0  0  0
 16 40  1  0  0  0  0
 16  9  2  0  0  0  0
 17 16  1  0  0  0  0
 18  4  1  0  0  0  0
 18 29  1  6  0  0  0
 19 20  1  0  0  0  0
 19 10  2  0  0  0  0
 21 22  1  0  0  0  0
 23 31  1  0  0  0  0
 24 23  1  0  0  0  0
 25  7  1  0  0  0  0
 25 26  1  0  0  0  0
 27 10  1  0  0  0  0
 27 28  1  0  0  0  0
 29 27  2  0  0  0  0
 30 29  1  0  0  0  0
 31 21  2  0  0  0  0
 31 32  1  0  0  0  0
 33  9  1  0  0  0  0
 33 35  1  0  0  0  0
 33 36  1  0  0  0  0
 34 33  1  0  0  0  0
 37 15  1  0  0  0  0
 37 23  2  0  0  0  0
 38 37  1  0  0  0  0
 39 15  1  0  0  0  0
 39  7  1  0  0  0  0
 40 39  2  0  0  0  0
 41 40  1  0  0  0  0
M  END
$$$$
