CSD_code = VEZFAH | q = 0 | S = 0 | Stoichiometry = C12H33ClOP3Rh | MND = 6
 OpenBabel04212202113D

 51 50  0  0  0  0  0  0  0  0999 V2000
    2.6225    1.4921    5.1331 Rh  0  0  0  0  0  0  0  0  0  0  0  0
    1.1176    0.7954    3.4226 Cl  0  0  0  0  0  0  0  0  0  0  0  0
    0.9545    3.0162    5.5100 P   0  0  0  0  0  4  0  0  0  0  0  0
    4.2470    0.1688    4.1907 P   0  0  0  0  0  4  0  0  0  0  0  0
    1.8008   -0.1226    6.6064 P   0  0  0  0  0  4  0  0  0  0  0  0
    6.0476    2.5227    5.4951 O   0  0  0  0  0  0  0  0  0  0  0  0
    3.9860    2.2212    6.6306 C   0  0  0  0  0  0  0  0  0  0  0  0
    5.0260    3.0059    5.9627 C   0  0  0  0  0  0  0  0  0  0  0  0
    4.7997    4.5083    5.9052 C   0  0  0  0  0  0  0  0  0  0  0  0
    0.7839    4.2177    4.1411 C   0  0  0  0  0  0  0  0  0  0  0  0
    0.9665    4.1597    6.9544 C   0  0  0  0  0  0  0  0  0  0  0  0
   -0.7836    2.4307    5.5866 C   0  0  0  0  0  0  0  0  0  0  0  0
    5.1163    0.9690    2.8005 C   0  0  0  0  0  0  0  0  0  0  0  0
    3.6237   -1.3438    3.3575 C   0  0  0  0  0  0  0  0  0  0  0  0
    5.6753   -0.5104    5.1168 C   0  0  0  0  0  0  0  0  0  0  0  0
    1.1815    0.4556    8.2413 C   0  0  0  0  0  0  0  0  0  0  0  0
    0.3822   -1.1289    6.0327 C   0  0  0  0  0  0  0  0  0  0  0  0
    2.8763   -1.4765    7.2367 C   0  0  0  0  0  0  0  0  0  0  0  0
    3.1484    2.5376    4.1883 H   0  0  0  0  0  0  0  0  0  0  0  0
    4.4278    1.3443    7.1109 H   0  0  0  0  0  0  0  0  0  0  0  0
    4.9469    4.9238    6.9018 H   0  0  0  0  0  0  0  0  0  0  0  0
    0.6282    3.6543    3.2220 H   0  0  0  0  0  0  0  0  0  0  0  0
    1.6989    4.7995    4.0434 H   0  0  0  0  0  0  0  0  0  0  0  0
    1.8683    4.7673    6.9350 H   0  0  0  0  0  0  0  0  0  0  0  0
   -0.9543    1.8238    6.4733 H   0  0  0  0  0  0  0  0  0  0  0  0
   -0.9769    1.8326    4.6977 H   0  0  0  0  0  0  0  0  0  0  0  0
    4.3812    1.3236    2.0794 H   0  0  0  0  0  0  0  0  0  0  0  0
    2.8604   -1.0542    2.6376 H   0  0  0  0  0  0  0  0  0  0  0  0
    3.1742   -2.0210    4.0817 H   0  0  0  0  0  0  0  0  0  0  0  0
    6.2856   -1.0983    4.4322 H   0  0  0  0  0  0  0  0  0  0  0  0
    0.3987    1.1993    8.1103 H   0  0  0  0  0  0  0  0  0  0  0  0
    2.0073    0.9126    8.7848 H   0  0  0  0  0  0  0  0  0  0  0  0
    0.0698   -1.8310    6.8055 H   0  0  0  0  0  0  0  0  0  0  0  0
    2.3135   -2.1047    7.9271 H   0  0  0  0  0  0  0  0  0  0  0  0
    3.2321   -2.0861    6.4085 H   0  0  0  0  0  0  0  0  0  0  0  0
    3.4377    2.8189    7.3603 H   0  0  0  0  0  0  0  0  0  0  0  0
    3.7865    4.7285    5.5797 H   0  0  0  0  0  0  0  0  0  0  0  0
    5.5128    4.9665    5.2244 H   0  0  0  0  0  0  0  0  0  0  0  0
   -0.0619    4.8825    4.3183 H   0  0  0  0  0  0  0  0  0  0  0  0
    0.0945    4.8110    6.9110 H   0  0  0  0  0  0  0  0  0  0  0  0
    0.9478    3.5946    7.8842 H   0  0  0  0  0  0  0  0  0  0  0  0
   -1.4522    3.2912    5.6040 H   0  0  0  0  0  0  0  0  0  0  0  0
    5.6775    1.8143    3.1948 H   0  0  0  0  0  0  0  0  0  0  0  0
    5.7971    0.2627    2.3250 H   0  0  0  0  0  0  0  0  0  0  0  0
    4.4454   -1.8457    2.8473 H   0  0  0  0  0  0  0  0  0  0  0  0
    6.2549    0.3287    5.4944 H   0  0  0  0  0  0  0  0  0  0  0  0
    5.3537   -1.1365    5.9443 H   0  0  0  0  0  0  0  0  0  0  0  0
    0.7903   -0.3829    8.8168 H   0  0  0  0  0  0  0  0  0  0  0  0
    0.6824   -1.6669    5.1347 H   0  0  0  0  0  0  0  0  0  0  0  0
   -0.4438   -0.4764    5.7603 H   0  0  0  0  0  0  0  0  0  0  0  0
    3.7315   -1.0499    7.7582 H   0  0  0  0  0  0  0  0  0  0  0  0
  1  3  1  0  0  0  0
  1  5  1  0  0  0  0
  1  7  1  0  0  0  0
  2  1  1  0  0  0  0
  3 12  1  0  0  0  0
  3 11  1  0  0  0  0
  4 15  1  0  0  0  0
  4  1  1  0  0  0  0
  5 18  1  0  0  0  0
  5 16  1  0  0  0  0
  6  8  2  0  0  0  0
  7 20  1  0  0  0  0
  7 36  1  0  0  0  0
  8  7  1  0  0  0  0
  9  8  1  0  0  0  0
  9 21  1  0  0  0  0
 10 39  1  0  0  0  0
 10  3  1  0  0  0  0
 11 41  1  0  0  0  0
 12 42  1  0  0  0  0
 12 25  1  0  0  0  0
 13 43  1  0  0  0  0
 13  4  1  0  0  0  0
 14 29  1  0  0  0  0
 14  4  1  0  0  0  0
 15 46  1  0  0  0  0
 15 47  1  0  0  0  0
 16 32  1  0  0  0  0
 16 48  1  0  0  0  0
 17  5  1  0  0  0  0
 17 33  1  0  0  0  0
 18 51  1  0  0  0  0
 18 34  1  0  0  0  0
 19  1  1  0  0  0  0
 22 10  1  0  0  0  0
 23 10  1  0  0  0  0
 24 11  1  0  0  0  0
 26 12  1  0  0  0  0
 27 13  1  0  0  0  0
 28 14  1  0  0  0  0
 30 15  1  0  0  0  0
 31 16  1  0  0  0  0
 35 18  1  0  0  0  0
 37  9  1  0  0  0  0
 38  9  1  0  0  0  0
 40 11  1  0  0  0  0
 44 13  1  0  0  0  0
 45 14  1  0  0  0  0
 49 17  1  0  0  0  0
 50 17  1  0  0  0  0
M  END
$$$$
