CSD_code = VEZGOX | q = 0 | S = 0 | Stoichiometry = C8H3Cl2N3O3Ru | MND = 6
 OpenBabel04212202113D

 20 20  0  0  0  0  0  0  0  0999 V2000
    1.8080    8.4417   10.6647 Ru  0  0  0  0  0  0  0  0  0  0  0  0
    2.9942    6.4016   10.7371 Cl  0  0  0  0  0  0  0  0  0  0  0  0
    3.2370    9.1404    8.9185 Cl  0  0  0  0  0  0  0  0  0  0  0  0
    4.3269    9.2054   12.1098 O   0  0  0  0  0  1  0  0  0  0  0  0
    0.5922   11.1685   10.2788 O   0  0  0  0  0  1  0  0  0  0  0  0
    0.2802    7.2085   12.9462 O   0  0  0  0  0  1  0  0  0  0  0  0
    0.6400    7.5335    9.1726 N   0  0  0  0  0  0  0  0  0  0  0  0
   -0.2277    6.1015    6.9437 N   0  0  0  0  0  0  0  0  0  0  0  0
   -0.7569    3.0574    8.3921 N   0  0  0  0  0  0  0  0  0  0  0  0
    3.3073    8.9963   11.6730 C   0  0  0  0  0  2  0  0  0  0  0  0
    0.9958   10.1241   10.4679 C   0  0  0  0  0  2  0  0  0  0  0  0
    0.8033    7.7243   12.0812 C   0  0  0  0  0  2  0  0  0  0  0  0
    0.3138    6.2436    9.2654 C   0  0  0  0  0  3  0  0  0  0  0  0
    0.4079    5.7500   10.2253 H   0  0  0  0  0  0  0  0  0  0  0  0
   -0.1233    5.5326    8.1411 C   0  0  0  0  0  0  0  0  0  0  0  0
    0.0802    7.3782    6.8676 C   0  0  0  0  0  0  0  0  0  0  0  0
   -0.0071    7.8380    5.8938 H   0  0  0  0  0  0  0  0  0  0  0  0
    0.5083    8.1099    7.9737 C   0  0  0  0  0  0  0  0  0  0  0  0
    0.7618    9.1583    7.8801 H   0  0  0  0  0  0  0  0  0  0  0  0
   -0.4707    4.1576    8.2679 C   0  0  0  0  0  0  0  0  0  0  0  0
  1  2  1  0  0  0  0
  1 10  1  0  0  0  0
  1 12  1  0  0  0  0
  3  1  1  0  0  0  0
  5 11  1  0  0  0  0
  7 13  1  0  0  0  0
  7  1  1  0  0  0  0
  8 15  2  0  0  0  0
 10  4  1  0  0  0  0
 11  1  1  0  0  0  0
 12  6  1  0  0  0  0
 13 14  1  0  0  0  0
 15 20  1  0  0  0  0
 15 13  1  0  0  0  0
 16  8  1  0  0  0  0
 16 18  2  0  0  0  0
 17 16  1  0  0  0  0
 18  7  1  0  0  0  0
 19 18  1  0  0  0  0
 20  9  3  0  0  0  0
M  END
$$$$
