CSD_code = VEZJIW | q = 0 | S = 0 | Stoichiometry = C16H18ClNO2Pt | MND = 5
 OpenBabel04212202113D

 39 39  0  0  0  0  0  0  0  0999 V2000
   -0.1379    7.6027   10.0453 Pt  0  0  0  0  0  0  0  0  0  0  0  0
   -2.0545    8.5330   10.6995 Cl  0  0  0  0  0 15  0  0  0  0  0  0
   -2.6420    3.6862   12.8386 O   0  0  0  0  0  0  0  0  0  0  0  0
   -2.7340    2.7240   12.8301 H   0  0  0  0  0  0  0  0  0  0  0  0
    0.4261    9.6628    9.5421 N   0  0  0  0  0  0  0  0  0  0  0  0
   -0.7313    5.7391   10.5034 C   0  0  0  0  0  0  0  0  0  0  0  0
   -1.6482    1.7464   11.2993 O   0  0  0  0  0  0  0  0  0  0  0  0
   -0.1836    4.7470    9.6891 C   0  0  0  0  0  0  0  0  0  0  0  0
   -0.4711    3.4069    9.9159 C   0  0  0  0  0  0  0  0  0  0  0  0
   -0.0379    2.6601    9.2677 H   0  0  0  0  0  0  0  0  0  0  0  0
   -1.2952    3.0417   10.9653 C   0  0  0  0  0  0  0  0  0  0  0  0
   -1.8374    4.0322   11.7962 C   0  0  0  0  0  0  0  0  0  0  0  0
   -1.5518    5.3685   11.5588 C   0  0  0  0  0  0  0  0  0  0  0  0
   -1.9991    6.1002   12.2138 H   0  0  0  0  0  0  0  0  0  0  0  0
    0.7112    5.1722    8.5469 C   0  0  0  0  0  0  0  0  0  0  0  0
    1.5502    4.4770    8.4362 H   0  0  0  0  0  0  0  0  0  0  0  0
    0.1432    5.1479    7.6115 H   0  0  0  0  0  0  0  0  0  0  0  0
    1.2383    6.5691    8.7904 C   0  0  0  0  0  3  0  0  0  0  0  0
    1.4682    7.1505    7.8969 H   0  0  0  0  0  0  0  0  0  0  0  0
    1.8632    6.9033    9.9916 C   0  0  0  0  0  0  0  0  0  0  0  0
    2.0256    6.1331   10.7394 H   0  0  0  0  0  0  0  0  0  0  0  0
    2.5679    7.7286   10.0150 H   0  0  0  0  0  0  0  0  0  0  0  0
   -1.1522    0.7038   10.5025 C   0  0  0  0  0  0  0  0  0  0  0  0
   -1.4870    0.7980    9.4643 H   0  0  0  0  0  0  0  0  0  0  0  0
   -1.5557   -0.2135   10.9294 H   0  0  0  0  0  0  0  0  0  0  0  0
   -0.0581    0.6640   10.5292 H   0  0  0  0  0  0  0  0  0  0  0  0
   -0.1014   10.2232    8.4589 C   0  0  0  0  0  0  0  0  0  0  0  0
   -0.3711    9.5503    7.6533 H   0  0  0  0  0  0  0  0  0  0  0  0
   -0.3058   11.5847    8.3433 C   0  0  0  0  0  0  0  0  0  0  0  0
   -0.7418   11.9903    7.4432 H   0  0  0  0  0  0  0  0  0  0  0  0
    0.0411   12.4216    9.3997 C   0  0  0  0  0  0  0  0  0  0  0  0
    0.5955   11.8235   10.5273 C   0  0  0  0  0  0  0  0  0  0  0  0
    0.8823   12.4204   11.3793 H   0  0  0  0  0  0  0  0  0  0  0  0
    0.7647   10.4526   10.5563 C   0  0  0  0  0  0  0  0  0  0  0  0
    1.1876    9.9617   11.4256 H   0  0  0  0  0  0  0  0  0  0  0  0
   -0.1981   13.8935    9.3367 C   0  0  0  0  0  0  0  0  0  0  0  0
   -0.1262   14.2566    8.3142 H   0  0  0  0  0  0  0  0  0  0  0  0
    0.5112   14.4311    9.9613 H   0  0  0  0  0  0  0  0  0  0  0  0
   -1.2022   14.1120    9.7015 H   0  0  0  0  0  0  0  0  0  0  0  0
  1  6  1  0  0  0  0
  4  3  1  0  0  0  0
  5 34  1  0  0  0  0
  6 13  1  0  0  0  0
  8  9  1  0  0  0  0
  8  6  2  0  0  0  0
  9 11  2  0  0  0  0
 10  9  1  0  0  0  0
 11  7  1  0  0  0  0
 11 12  1  0  0  0  0
 12  3  1  0  0  0  0
 13 12  2  0  0  0  0
 13 14  1  0  0  0  0
 15 18  1  0  0  0  0
 15  8  1  0  0  0  0
 16 15  1  0  0  0  0
 17 15  1  0  0  0  0
 18 20  1  0  0  0  0
 19 18  1  0  0  0  0
 20 22  1  0  0  0  0
 20  1  1  0  0  0  0
 20 21  1  0  0  0  0
 23 26  1  0  0  0  0
 23 25  1  0  0  0  0
 23  7  1  0  0  0  0
 24 23  1  0  0  0  0
 27  5  2  0  0  0  0
 28 27  1  0  0  0  0
 29 27  1  0  0  0  0
 29 31  2  0  0  0  0
 30 29  1  0  0  0  0
 31 32  1  0  0  0  0
 32 34  2  0  0  0  0
 32 33  1  0  0  0  0
 34 35  1  0  0  0  0
 36 31  1  0  0  0  0
 36 39  1  0  0  0  0
 36 38  1  0  0  0  0
 37 36  1  0  0  0  0
M  END
$$$$
