CSD_code = VEZJIU | q = 0 | S = 0 | Stoichiometry = C30H33ClO2PRh | MND = 6
 OpenBabel04212202113D

 68 70  0  0  1  0  0  0  0  0999 V2000
    4.8082    9.2307    7.5686 Rh  0  0  0  0  0  0  0  0  0  0  0  0
    2.6396    9.4224    6.9488 Cl  0  0  0  0  0 15  0  0  0  0  0  0
    3.8748    9.2216    9.6290 P   0  0  0  0  0  0  0  0  0  0  0  0
    8.5805    8.4413   14.3507 O   0  0  0  0  0  0  0  0  0  0  0  0
    8.4941   10.7646   14.2120 O   0  0  0  0  0  0  0  0  0  0  0  0
    4.9389    9.3522   11.1119 C   0  0  0  0  0  0  0  0  0  0  0  0
    5.5860    8.2044   11.5627 C   0  0  0  0  0  0  0  0  0  0  0  0
    5.3645    7.2536   11.0955 H   0  0  0  0  0  0  0  0  0  0  0  0
    6.4920    8.2678   12.6029 C   0  0  0  0  0  0  0  0  0  0  0  0
    6.9971    7.3807   12.9501 H   0  0  0  0  0  0  0  0  0  0  0  0
    6.7740    9.4872   13.2035 C   0  0  0  0  0  0  0  0  0  0  0  0
    6.1345   10.6361   12.7587 C   0  0  0  0  0  0  0  0  0  0  0  0
    6.3641   11.5816   13.2249 H   0  0  0  0  0  0  0  0  0  0  0  0
    5.2292   10.5705   11.7159 C   0  0  0  0  0  0  0  0  0  0  0  0
    4.7396   11.4708   11.3714 H   0  0  0  0  0  0  0  0  0  0  0  0
    7.7594    9.5762   14.3443 C   0  0  0  0  0  0  0  0  0  0  0  0
    7.2031    9.6140   15.3155 H   0  0  0  0  0  0  0  0  0  0  0  0
    9.5144    8.4734   15.4104 C   0  0  0  0  0  0  0  0  0  0  0  0
   10.1119    7.5659   15.3086 H   0  0  0  0  0  0  0  0  0  0  0  0
    8.9788    8.4492   16.3741 H   0  0  0  0  0  0  0  0  0  0  0  0
   10.3749    9.7344   15.3289 C   0  0  0  0  0  0  0  0  0  0  0  0
   11.0325    9.8104   16.1935 H   0  0  0  0  0  0  0  0  0  0  0  0
   10.9722    9.7014   14.4170 H   0  0  0  0  0  0  0  0  0  0  0  0
    9.4242   10.9298   15.2625 C   0  0  0  0  0  0  0  0  0  0  0  0
    8.8852   11.0306   16.2194 H   0  0  0  0  0  0  0  0  0  0  0  0
    9.9536   11.8595   15.0482 H   0  0  0  0  0  0  0  0  0  0  0  0
    2.8858    7.7624   10.0724 C   0  0  0  0  0  0  0  0  0  0  0  0
    2.6538    6.7951    9.1023 C   0  0  0  0  0  0  0  0  0  0  0  0
    3.0575    6.9432    8.1065 H   0  0  0  0  0  0  0  0  0  0  0  0
    1.9098    5.6693    9.4076 C   0  0  0  0  0  0  0  0  0  0  0  0
    1.7266    4.9213    8.6504 H   0  0  0  0  0  0  0  0  0  0  0  0
    1.4004    5.5025   10.6845 C   0  0  0  0  0  0  0  0  0  0  0  0
    0.8152    4.6265   10.9236 H   0  0  0  0  0  0  0  0  0  0  0  0
    1.6483    6.4543   11.6618 C   0  0  0  0  0  0  0  0  0  0  0  0
    1.2604    6.3164   12.6609 H   0  0  0  0  0  0  0  0  0  0  0  0
    2.3940    7.5794   11.3627 C   0  0  0  0  0  0  0  0  0  0  0  0
    2.6096    8.3110   12.1303 H   0  0  0  0  0  0  0  0  0  0  0  0
    2.7710   10.6570    9.8247 C   0  0  0  0  0  0  0  0  0  0  0  0
    1.5297   10.6356   10.4431 C   0  0  0  0  0  0  0  0  0  0  0  0
    1.1417    9.7162   10.8563 H   0  0  0  0  0  0  0  0  0  0  0  0
    0.7716   11.7934   10.5024 C   0  0  0  0  0  0  0  0  0  0  0  0
   -0.1993   11.7721   10.9761 H   0  0  0  0  0  0  0  0  0  0  0  0
    1.2445   12.9705    9.9491 C   0  0  0  0  0  0  0  0  0  0  0  0
    0.6454   13.8681    9.9950 H   0  0  0  0  0  0  0  0  0  0  0  0
    2.4780   12.9924    9.3162 C   0  0  0  0  0  0  0  0  0  0  0  0
    2.8393   13.9054    8.8652 H   0  0  0  0  0  0  0  0  0  0  0  0
    3.2338   11.8391    9.2490 C   0  0  0  0  0  0  0  0  0  0  0  0
    4.1851   11.8275    8.7213 H   0  0  0  0  0  0  0  0  0  0  0  0
    6.7398    9.8365    8.1779 C   0  0  1  0  0  0  0  0  0  0  0  0
    6.7142   10.2520    9.1875 H   0  0  0  0  0  0  0  0  0  0  0  0
    6.7255    8.4460    8.0608 C   0  0  0  0  0  3  0  0  0  0  0  0
    6.6555    7.8769    8.9879 H   0  0  0  0  0  0  0  0  0  0  0  0
    7.3815    7.6994    6.9176 C   0  0  0  0  0  0  0  0  0  0  0  0
    7.7565    6.7427    7.2871 H   0  0  0  0  0  0  0  0  0  0  0  0
    8.2445    8.2683    6.5686 H   0  0  0  0  0  0  0  0  0  0  0  0
    6.4049    7.4296    5.7559 C   0  0  0  0  0  0  0  0  0  0  0  0
    6.9569    7.3418    4.8135 H   0  0  0  0  0  0  0  0  0  0  0  0
    5.9065    6.4721    5.9285 H   0  0  0  0  0  0  0  0  0  0  0  0
    5.3384    8.4895    5.6085 C   0  0  0  0  0  3  0  0  0  0  0  0
    4.4144    8.1326    5.1532 H   0  0  0  0  0  0  0  0  0  0  0  0
    5.5660    9.8506    5.6224 C   0  0  0  0  0  3  0  0  0  0  0  0
    4.7925   10.4962    5.2060 H   0  0  0  0  0  0  0  0  0  0  0  0
    6.9430   10.4690    5.7133 C   0  0  0  0  0  0  0  0  0  0  0  0
    6.9539   11.3972    5.1381 H   0  0  0  0  0  0  0  0  0  0  0  0
    7.6670    9.7956    5.2527 H   0  0  0  0  0  0  0  0  0  0  0  0
    7.3469   10.7827    7.1669 C   0  0  0  0  0  0  0  0  0  0  0  0
    8.4382   10.7668    7.2663 H   0  0  0  0  0  0  0  0  0  0  0  0
    7.0181   11.7957    7.4149 H   0  0  0  0  0  0  0  0  0  0  0  0
  1 49  1  0  0  0  0
  3 38  1  0  0  0  0
  3 27  1  0  0  0  0
  3  6  1  0  0  0  0
  4 18  1  0  0  0  0
  5 16  1  0  0  0  0
  5 24  1  0  0  0  0
  6  7  2  0  0  0  0
  6 14  1  0  0  0  0
  7  9  1  0  0  0  0
  8  7  1  0  0  0  0
  9 10  1  0  0  0  0
  9 11  2  0  0  0  0
 11 16  1  0  0  0  0
 12 11  1  0  0  0  0
 12 13  1  0  0  0  0
 14 12  2  0  0  0  0
 15 14  1  0  0  0  0
 16  4  1  0  0  0  0
 16 17  1  0  0  0  0
 18 20  1  0  0  0  0
 19 18  1  0  0  0  0
 21 18  1  0  0  0  0
 21 22  1  0  0  0  0
 23 21  1  0  0  0  0
 24 21  1  0  0  0  0
 24 25  1  0  0  0  0
 26 24  1  0  0  0  0
 27 36  1  0  0  0  0
 28 30  1  0  0  0  0
 28 27  2  0  0  0  0
 29 28  1  0  0  0  0
 30 32  2  0  0  0  0
 31 30  1  0  0  0  0
 32 33  1  0  0  0  0
 32 34  1  0  0  0  0
 34 35  1  0  0  0  0
 36 34  2  0  0  0  0
 36 37  1  0  0  0  0
 38 39  1  0  0  0  0
 39 41  2  0  0  0  0
 39 40  1  0  0  0  0
 41 42  1  0  0  0  0
 43 44  1  0  0  0  0
 43 41  1  0  0  0  0
 45 43  2  0  0  0  0
 46 45  1  0  0  0  0
 47 45  1  0  0  0  0
 47 38  2  0  0  0  0
 48 47  1  0  0  0  0
 49 50  1  1  0  0  0
 51 49  1  0  0  0  0
 51 52  1  0  0  0  0
 53 54  1  0  0  0  0
 53 51  1  0  0  0  0
 55 53  1  0  0  0  0
 56 58  1  0  0  0  0
 56 53  1  0  0  0  0
 57 56  1  0  0  0  0
 59 61  1  0  0  0  0
 59 56  1  0  0  0  0
 60 59  1  0  0  0  0
 61 63  1  0  0  0  0
 62 61  1  0  0  0  0
 63 66  1  0  0  0  0
 64 63  1  0  0  0  0
 65 63  1  0  0  0  0
 66 67  1  0  0  0  0
 66 68  1  0  0  0  0
 66 49  1  0  0  0  0
M  END
$$$$
