CSD_code = VEZJOC | q = 0 | S = 0 | Stoichiometry = C17H20ClNO2Pt | MND = 5
 OpenBabel04212202113D

 42 42  0  0  0  0  0  0  0  0999 V2000
    1.4157    1.3598    6.4113 Pt  0  0  0  0  0  0  0  0  0  0  0  0
    0.5435   -0.2733    7.6439 Cl  0  0  0  0  0 15  0  0  0  0  0  0
    2.1878    3.0065   11.5104 O   0  0  0  0  0  0  0  0  0  0  0  0
    2.8412    3.4871   12.0366 H   0  0  0  0  0  0  0  0  0  0  0  0
    0.3441    0.2397    4.6848 N   0  0  0  0  0  0  0  0  0  0  0  0
    0.6514   -0.7007    4.9301 H   0  0  0  0  0  0  0  0  0  0  0  0
   -0.6328    0.3530    4.9494 H   0  0  0  0  0  0  0  0  0  0  0  0
    2.3638    2.2269    7.9549 C   0  0  0  0  0  0  0  0  0  0  0  0
    4.5119    4.1830   10.9382 O   0  0  0  0  0  0  0  0  0  0  0  0
    3.5637    2.8483    7.6127 C   0  0  0  0  0  0  0  0  0  0  0  0
    4.3126    3.5049    8.5818 C   0  0  0  0  0  0  0  0  0  0  0  0
    5.2419    3.9745    8.2969 H   0  0  0  0  0  0  0  0  0  0  0  0
    3.8637    3.5590    9.8896 C   0  0  0  0  0  0  0  0  0  0  0  0
    2.6469    2.9506   10.2314 C   0  0  0  0  0  0  0  0  0  0  0  0
    1.9069    2.2898    9.2618 C   0  0  0  0  0  0  0  0  0  0  0  0
    0.9812    1.8273    9.5675 H   0  0  0  0  0  0  0  0  0  0  0  0
    4.0280    2.7696    6.1766 C   0  0  0  0  0  0  0  0  0  0  0  0
    4.4716    3.7206    5.8638 H   0  0  0  0  0  0  0  0  0  0  0  0
    4.8042    2.0031    6.0865 H   0  0  0  0  0  0  0  0  0  0  0  0
    2.8649    2.4297    5.2703 C   0  0  0  0  0  3  0  0  0  0  0  0
    3.1170    1.8899    4.3577 H   0  0  0  0  0  0  0  0  0  0  0  0
    1.6776    3.1560    5.3149 C   0  0  0  0  0  0  0  0  0  0  0  0
    1.6040    4.0207    5.9670 H   0  0  0  0  0  0  0  0  0  0  0  0
    1.0343    3.1759    4.4411 H   0  0  0  0  0  0  0  0  0  0  0  0
    5.7394    4.8106   10.6751 C   0  0  0  0  0  0  0  0  0  0  0  0
    6.4848    4.0968   10.3093 H   0  0  0  0  0  0  0  0  0  0  0  0
    6.0714    5.2218   11.6274 H   0  0  0  0  0  0  0  0  0  0  0  0
    5.6267    5.6232    9.9498 H   0  0  0  0  0  0  0  0  0  0  0  0
    0.5925    0.5699    3.3371 C   0  0  0  0  0  0  0  0  0  0  0  0
    1.6967    0.0399    2.6765 C   0  0  0  0  0  0  0  0  0  0  0  0
    2.3335   -0.6679    3.1890 H   0  0  0  0  0  0  0  0  0  0  0  0
    1.9817    0.4212    1.3799 C   0  0  0  0  0  0  0  0  0  0  0  0
    2.8425    0.0003    0.8805 H   0  0  0  0  0  0  0  0  0  0  0  0
    1.1781    1.3343    0.7074 C   0  0  0  0  0  0  0  0  0  0  0  0
    0.0731    1.8531    1.3706 C   0  0  0  0  0  0  0  0  0  0  0  0
   -0.5680    2.5609    0.8655 H   0  0  0  0  0  0  0  0  0  0  0  0
   -0.2212    1.4783    2.6678 C   0  0  0  0  0  0  0  0  0  0  0  0
   -1.0837    1.8940    3.1703 H   0  0  0  0  0  0  0  0  0  0  0  0
    1.4807    1.7294   -0.7058 C   0  0  0  0  0  0  0  0  0  0  0  0
    2.5486    1.6729   -0.9039 H   0  0  0  0  0  0  0  0  0  0  0  0
    1.1367    2.7414   -0.9073 H   0  0  0  0  0  0  0  0  0  0  0  0
    0.9735    1.0570   -1.3989 H   0  0  0  0  0  0  0  0  0  0  0  0
  1  8  1  0  0  0  0
  3  4  1  0  0  0  0
  5  6  1  0  0  0  0
  5  7  1  0  0  0  0
  8 15  1  0  0  0  0
 10  8  2  0  0  0  0
 10 11  1  0  0  0  0
 11 13  2  0  0  0  0
 12 11  1  0  0  0  0
 13 14  1  0  0  0  0
 13  9  1  0  0  0  0
 14  3  1  0  0  0  0
 15 16  1  0  0  0  0
 15 14  2  0  0  0  0
 17 10  1  0  0  0  0
 18 17  1  0  0  0  0
 19 17  1  0  0  0  0
 20 22  1  0  0  0  0
 20 17  1  0  0  0  0
 21 20  1  0  0  0  0
 22 23  1  0  0  0  0
 22  1  1  0  0  0  0
 24 22  1  0  0  0  0
 25  9  1  0  0  0  0
 25 27  1  0  0  0  0
 26 25  1  0  0  0  0
 28 25  1  0  0  0  0
 29  5  1  0  0  0  0
 30 31  1  0  0  0  0
 30 29  1  0  0  0  0
 32 30  2  0  0  0  0
 33 32  1  0  0  0  0
 34 35  2  0  0  0  0
 34 32  1  0  0  0  0
 35 37  1  0  0  0  0
 36 35  1  0  0  0  0
 37 38  1  0  0  0  0
 37 29  2  0  0  0  0
 39 34  1  0  0  0  0
 40 39  1  0  0  0  0
 41 39  1  0  0  0  0
 42 39  1  0  0  0  0
M  END
$$$$
