CSD_code = VIBCOZ | q = 0 | S = 0 | Stoichiometry = C22H27BClIrN6O | MND = 6
 OpenBabel04212202113D

 59 65  0  0  1  0  0  0  0  0999 V2000
    0.3794    2.9910    2.2295 Ir  0  0  0  0  0  0  0  0  0  0  0  0
    2.1537    1.8671    1.2416 Cl  0  0  0  0  0  0  0  0  0  0  0  0
   -0.5925    1.1440    2.0534 O   0  0  0  0  0  0  0  0  0  0  0  0
    1.1469    2.6049    4.2048 N   0  0  1  0  0  0  0  0  0  0  0  0
    1.1513    3.6161    5.0895 N   0  0  0  0  0  0  0  0  0  0  0  0
    1.4413    4.7116    2.3131 N   0  0  1  0  0  0  0  0  0  0  0  0
    1.3877    5.4481    3.4430 N   0  0  0  0  0  0  0  0  0  0  0  0
   -1.1732    3.9849    3.1946 N   0  0  2  0  0  0  0  0  0  0  0  0
   -0.8629    4.7751    4.2361 N   0  0  0  0  0  0  0  0  0  0  0  0
    0.5973    4.9796    4.6756 B   0  0  1  0  0  0  0  0  0  0  0  0
    0.6701    5.7629    5.5506 H   0  0  0  0  0  0  0  0  0  0  0  0
    1.6326    1.5253    4.8028 C   0  0  1  0  0  3  0  0  0  0  0  0
    1.9675    1.8542    6.1211 C   0  0  0  0  0  0  0  0  0  0  0  0
    2.3857    1.2027    6.8615 H   0  0  0  0  0  0  0  0  0  0  0  0
    1.6479    3.1902    6.2665 C   0  0  0  0  0  0  0  0  0  0  0  0
    1.7687    0.2099    4.1303 C   0  0  0  0  0  0  0  0  0  0  0  0
    0.8318   -0.0646    3.6508 H   0  0  0  0  0  0  0  0  0  0  0  0
    2.0467   -0.5533    4.8525 H   0  0  0  0  0  0  0  0  0  0  0  0
    2.5285    0.2653    3.3527 H   0  0  0  0  0  0  0  0  0  0  0  0
    1.7950    4.0597    7.4631 C   0  0  0  0  0  0  0  0  0  0  0  0
    0.8282    4.4469    7.7812 H   0  0  0  0  0  0  0  0  0  0  0  0
    2.4435    4.9068    7.2461 H   0  0  0  0  0  0  0  0  0  0  0  0
    2.2281    3.4849    8.2771 H   0  0  0  0  0  0  0  0  0  0  0  0
    2.2869    5.3064    1.4678 C   0  0  1  0  0  3  0  0  0  0  0  0
    2.7743    6.4666    2.0744 C   0  0  0  0  0  0  0  0  0  0  0  0
    3.4689    7.1641    1.6530 H   0  0  0  0  0  0  0  0  0  0  0  0
    2.1875    6.5214    3.3228 C   0  0  0  0  0  0  0  0  0  0  0  0
    2.6850    4.8052    0.1283 C   0  0  0  0  0  0  0  0  0  0  0  0
    1.9383    4.1383   -0.2861 H   0  0  0  0  0  0  0  0  0  0  0  0
    3.6121    4.2411    0.2175 H   0  0  0  0  0  0  0  0  0  0  0  0
    2.8521    5.6433   -0.5448 H   0  0  0  0  0  0  0  0  0  0  0  0
    2.3628    7.5522    4.3787 C   0  0  0  0  0  0  0  0  0  0  0  0
    2.7862    7.1127    5.2796 H   0  0  0  0  0  0  0  0  0  0  0  0
    1.4076    8.0039    4.6390 H   0  0  0  0  0  0  0  0  0  0  0  0
    3.0334    8.3271    4.0176 H   0  0  0  0  0  0  0  0  0  0  0  0
   -2.4999    3.9652    3.0714 C   0  0  1  0  0  3  0  0  0  0  0  0
   -3.0544    4.7701    4.0672 C   0  0  0  0  0  0  0  0  0  0  0  0
   -4.0948    4.9600    4.2356 H   0  0  0  0  0  0  0  0  0  0  0  0
   -1.9844    5.2665    4.7883 C   0  0  0  0  0  0  0  0  0  0  0  0
   -3.2462    3.2039    2.0352 C   0  0  0  0  0  0  0  0  0  0  0  0
   -3.0464    2.1380    2.1245 H   0  0  0  0  0  0  0  0  0  0  0  0
   -2.9541    3.5229    1.0368 H   0  0  0  0  0  0  0  0  0  0  0  0
   -4.3126    3.3715    2.1631 H   0  0  0  0  0  0  0  0  0  0  0  0
   -2.0054    6.1758    5.9630 C   0  0  0  0  0  0  0  0  0  0  0  0
   -1.4511    7.0886    5.7537 H   0  0  0  0  0  0  0  0  0  0  0  0
   -1.5526    5.6965    6.8288 H   0  0  0  0  0  0  0  0  0  0  0  0
   -3.0335    6.4341    6.2016 H   0  0  0  0  0  0  0  0  0  0  0  0
   -0.9073    0.9084    0.8794 C   0  0  0  0  0  3  0  0  0  0  0  0
   -1.2550   -0.0997    0.6201 H   0  0  0  0  0  0  0  0  0  0  0  0
   -0.9040    1.9481   -0.1025 C   0  0  0  0  0  0  0  0  0  0  0  0
   -0.4241    3.1925    0.3844 C   0  0  0  0  0  0  0  0  0  0  0  0
   -0.5561    4.2873   -0.4657 C   0  0  0  0  0  0  0  0  0  0  0  0
   -0.2418    5.2662   -0.1330 H   0  0  0  0  0  0  0  0  0  0  0  0
   -1.0906    4.1493   -1.7356 C   0  0  0  0  0  0  0  0  0  0  0  0
   -1.1807    5.0180   -2.3727 H   0  0  0  0  0  0  0  0  0  0  0  0
   -1.5062    2.9084   -2.2117 C   0  0  0  0  0  0  0  0  0  0  0  0
   -1.9013    2.8202   -3.2128 H   0  0  0  0  0  0  0  0  0  0  0  0
   -1.4212    1.8045   -1.3953 C   0  0  0  0  0  0  0  0  0  0  0  0
   -1.7546    0.8337   -1.7333 H   0  0  0  0  0  0  0  0  0  0  0  0
  1  6  1  0  0  0  0
  1  8  1  0  0  0  0
  1  4  1  0  0  0  0
  2  1  1  0  0  0  0
  3  1  1  0  0  0  0
  4 12  1  0  0  0  0
  4  5  1  1  0  0  0
  5 15  1  0  0  0  0
  6  7  1  1  0  0  0
  7 10  1  0  0  0  0
  8  9  1  1  0  0  0
  9 10  1  0  0  0  0
  9 39  1  0  0  0  0
 10  5  1  0  0  0  0
 10 11  1  1  0  0  0
 12 16  1  1  0  0  0
 12 13  1  0  0  0  0
 13 15  2  0  0  0  0
 13 14  1  0  0  0  0
 15 20  1  0  0  0  0
 16 18  1  0  0  0  0
 17 16  1  0  0  0  0
 19 16  1  0  0  0  0
 20 21  1  0  0  0  0
 20 23  1  0  0  0  0
 22 20  1  0  0  0  0
 24 28  1  1  0  0  0
 24 25  1  0  0  0  0
 24  6  1  0  0  0  0
 25 27  2  0  0  0  0
 26 25  1  0  0  0  0
 27  7  1  0  0  0  0
 27 32  1  0  0  0  0
 28 30  1  0  0  0  0
 29 28  1  0  0  0  0
 31 28  1  0  0  0  0
 32 34  1  0  0  0  0
 32 33  1  0  0  0  0
 35 32  1  0  0  0  0
 36 40  1  6  0  0  0
 36  8  1  0  0  0  0
 36 37  1  0  0  0  0
 37 38  1  0  0  0  0
 37 39  2  0  0  0  0
 39 44  1  0  0  0  0
 40 41  1  0  0  0  0
 40 43  1  0  0  0  0
 42 40  1  0  0  0  0
 44 47  1  0  0  0  0
 44 46  1  0  0  0  0
 45 44  1  0  0  0  0
 48  3  1  0  0  0  0
 49 48  1  0  0  0  0
 50 51  1  0  0  0  0
 50 48  1  0  0  0  0
 51  1  1  0  0  0  0
 52 53  1  0  0  0  0
 52 51  2  0  0  0  0
 54 52  1  0  0  0  0
 55 54  1  0  0  0  0
 56 54  2  0  0  0  0
 56 58  1  0  0  0  0
 57 56  1  0  0  0  0
 58 50  2  0  0  0  0
 59 58  1  0  0  0  0
M  END
$$$$
