CSD_code = VIBDOA | q = 0 | S = 0 | Stoichiometry = C22H21ClNOPPd | MND = 4
 OpenBabel04212202113D

 48 52  0  0  1  0  0  0  0  0999 V2000
   10.1567    4.6503    1.5772 Pd  0  0  2  0  0  0  0  0  0  0  0  0
    8.8012    6.1983    0.7006 Cl  0  0  0  0  0  0  0  0  0  0  0  0
   11.2208    2.9806    2.6120 P   0  0  0  0  0  4  0  0  0  0  0  0
   11.6944    5.9883    1.4340 C   0  0  0  0  0  0  0  0  0  0  0  0
   11.3321    6.9996    1.6428 H   0  0  0  0  0  0  0  0  0  0  0  0
   12.0617    5.9519    0.3976 H   0  0  0  0  0  0  0  0  0  0  0  0
   12.5146    5.7458    2.1217 H   0  0  0  0  0  0  0  0  0  0  0  0
    8.4759    3.1532    1.7411 N   0  0  1  0  0  0  0  0  0  0  0  0
    7.1266    3.6636    1.8771 C   0  0  0  0  0  0  0  0  0  0  0  0
    6.9166    4.3504    1.0512 H   0  0  0  0  0  0  0  0  0  0  0  0
    7.0497    4.2269    2.8136 H   0  0  0  0  0  0  0  0  0  0  0  0
    6.2601    2.3870    1.8629 C   0  0  0  0  0  0  0  0  0  0  0  0
    5.6734    2.2527    2.7750 H   0  0  0  0  0  0  0  0  0  0  0  0
    5.5975    2.3306    0.9949 H   0  0  0  0  0  0  0  0  0  0  0  0
    7.2080    1.3226    1.7770 O   0  0  0  0  0  0  0  0  0  0  0  0
    8.4359    1.8789    1.7022 C   0  0  1  0  0  3  0  0  0  0  0  0
    9.5669    0.9637    1.5704 C   0  0  0  0  0  0  0  0  0  0  0  0
    9.3113   -0.3120    1.0706 C   0  0  0  0  0  0  0  0  0  0  0  0
    8.2969   -0.5754    0.8136 H   0  0  0  0  0  0  0  0  0  0  0  0
   10.3371   -1.2209    0.8944 C   0  0  0  0  0  0  0  0  0  0  0  0
   10.1252   -2.2029    0.4998 H   0  0  0  0  0  0  0  0  0  0  0  0
   11.6341   -0.8634    1.2222 C   0  0  0  0  0  0  0  0  0  0  0  0
   12.4427   -1.5655    1.0840 H   0  0  0  0  0  0  0  0  0  0  0  0
   11.8978    0.3943    1.7365 C   0  0  0  0  0  0  0  0  0  0  0  0
   12.9112    0.6602    2.0003 H   0  0  0  0  0  0  0  0  0  0  0  0
   10.8792    1.3223    1.9256 C   0  0  0  0  0  0  0  0  0  0  0  0
   10.3638    2.8584    4.2176 C   0  0  0  0  0  0  0  0  0  0  0  0
   10.3017    1.6874    4.9660 C   0  0  0  0  0  0  0  0  0  0  0  0
   10.8007    0.7946    4.6121 H   0  0  0  0  0  0  0  0  0  0  0  0
    9.5956    1.6680    6.1560 C   0  0  0  0  0  0  0  0  0  0  0  0
    9.5463    0.7582    6.7366 H   0  0  0  0  0  0  0  0  0  0  0  0
    8.9491    2.8102    6.6010 C   0  0  0  0  0  0  0  0  0  0  0  0
    8.3960    2.7880    7.5283 H   0  0  0  0  0  0  0  0  0  0  0  0
    9.0051    3.9783    5.8564 C   0  0  0  0  0  0  0  0  0  0  0  0
    8.4958    4.8654    6.2032 H   0  0  0  0  0  0  0  0  0  0  0  0
    9.7091    4.0040    4.6659 C   0  0  0  0  0  0  0  0  0  0  0  0
    9.7557    4.9164    4.0569 H   0  0  0  0  0  0  0  0  0  0  0  0
   12.9928    2.9107    3.0139 C   0  0  0  0  0  0  0  0  0  0  0  0
   13.5016    2.6955    4.2883 C   0  0  0  0  0  0  0  0  0  0  0  0
   12.8312    2.5208    5.1176 H   0  0  0  0  0  0  0  0  0  0  0  0
   14.8712    2.7127    4.4919 C   0  0  0  0  0  0  0  0  0  0  0  0
   15.2669    2.5453    5.4830 H   0  0  0  0  0  0  0  0  0  0  0  0
   15.7330    2.9477    3.4336 C   0  0  0  0  0  0  0  0  0  0  0  0
   16.7997    2.9618    3.6005 H   0  0  0  0  0  0  0  0  0  0  0  0
   15.2282    3.1773    2.1623 C   0  0  0  0  0  0  0  0  0  0  0  0
   15.9003    3.3724    1.3399 H   0  0  0  0  0  0  0  0  0  0  0  0
   13.8627    3.1677    1.9547 C   0  0  0  0  0  0  0  0  0  0  0  0
   13.4448    3.3639    0.9735 H   0  0  0  0  0  0  0  0  0  0  0  0
  1  2  1  1  0  0  0
  1  8  1  0  0  0  0
  1  3  1  0  0  0  0
  3 38  1  0  0  0  0
  3 27  1  0  0  0  0
  4  1  1  0  0  0  0
  4  5  1  0  0  0  0
  4  7  1  0  0  0  0
  6  4  1  0  0  0  0
  8  9  1  6  0  0  0
  9 11  1  0  0  0  0
 10  9  1  0  0  0  0
 12  9  1  0  0  0  0
 12 13  1  0  0  0  0
 14 12  1  0  0  0  0
 15 12  1  0  0  0  0
 16 17  1  6  0  0  0
 16  8  1  0  0  0  0
 16 15  1  0  0  0  0
 17 26  1  0  0  0  0
 18 17  2  0  0  0  0
 19 18  1  0  0  0  0
 20 18  1  0  0  0  0
 20 22  2  0  0  0  0
 21 20  1  0  0  0  0
 22 24  1  0  0  0  0
 23 22  1  0  0  0  0
 24 26  2  0  0  0  0
 24 25  1  0  0  0  0
 26  3  1  0  0  0  0
 27 36  2  0  0  0  0
 27 28  1  0  0  0  0
 28 30  2  0  0  0  0
 29 28  1  0  0  0  0
 30 32  1  0  0  0  0
 30 31  1  0  0  0  0
 32 33  1  0  0  0  0
 34 35  1  0  0  0  0
 34 32  2  0  0  0  0
 36 34  1  0  0  0  0
 37 36  1  0  0  0  0
 38 39  1  0  0  0  0
 39 41  2  0  0  0  0
 39 40  1  0  0  0  0
 41 42  1  0  0  0  0
 43 44  1  0  0  0  0
 43 41  1  0  0  0  0
 45 43  2  0  0  0  0
 46 45  1  0  0  0  0
 47 45  1  0  0  0  0
 47 38  2  0  0  0  0
 48 47  1  0  0  0  0
M  END
$$$$
