CSD_code = VIBPOM | q = 1 | S = 0 | Stoichiometry = C28H31BrN4NiO4P(1+) | MND = 4
 OpenBabel04212202113D

 70 74  0  0  1  0  0  0  0  0999 V2000
    7.8384   18.7422    3.1812 Br  0  0  0  0  0  0  0  0  0  0  0  0
    7.9898   16.4721    3.2115 Ni  0  0  2  0  0  0  0  0  0  0  0  0
    8.6332   14.3929    3.2629 P   0  0  0  0  0  4  0  0  0  0  0  0
    8.4862   16.0786    0.3492 N   0  0  0  0  0  0  0  0  0  0  0  0
    8.8375   16.6835    6.1929 N   0  0  0  0  0  0  0  0  0  0  0  0
    6.8720   16.2452    5.5425 N   0  0  0  0  0  0  0  0  0  0  0  0
    6.4619   16.5252    0.7797 N   0  0  0  0  0  0  0  0  0  0  0  0
    5.3168   16.7891    1.4815 O   0  0  0  0  0  0  0  0  0  0  0  0
   10.1847   16.9150    6.2135 O   0  0  0  0  0  0  0  0  0  0  0  0
    9.8164   15.8101    0.5149 O   0  0  0  0  0  0  0  0  0  0  0  0
    7.6591   16.3735    1.3649 C   0  0  1  0  0  3  0  0  0  0  0  0
    8.1057   16.4951    5.0859 C   0  0  0  0  0  0  0  0  0  0  0  0
   11.0705   15.6625    3.3431 C   0  0  0  0  0  0  0  0  0  0  0  0
   10.4653   16.5645    3.2411 H   0  0  0  0  0  0  0  0  0  0  0  0
    8.1588   13.3746    4.6945 C   0  0  0  0  0  0  0  0  0  0  0  0
    5.8842   15.9471    4.6335 O   0  0  0  0  0  0  0  0  0  0  0  0
    8.8945   13.5090    5.8717 C   0  0  0  0  0  0  0  0  0  0  0  0
    9.7698   14.1448    5.8925 H   0  0  0  0  0  0  0  0  0  0  0  0
    6.8167   13.3973    1.4688 C   0  0  0  0  0  0  0  0  0  0  0  0
    6.1095   13.9573    2.0711 H   0  0  0  0  0  0  0  0  0  0  0  0
   10.4398   14.4241    3.3744 C   0  0  0  0  0  0  0  0  0  0  0  0
    6.3866   12.7042    0.3538 C   0  0  0  0  0  0  0  0  0  0  0  0
    5.3387   12.6975    0.0932 H   0  0  0  0  0  0  0  0  0  0  0  0
    7.0465   12.5406    4.6728 C   0  0  0  0  0  0  0  0  0  0  0  0
    6.4744   12.4191    3.7653 H   0  0  0  0  0  0  0  0  0  0  0  0
   12.5668   13.3516    3.6384 C   0  0  0  0  0  0  0  0  0  0  0  0
   13.1534   12.4538    3.7610 H   0  0  0  0  0  0  0  0  0  0  0  0
    7.8251   16.0410   -0.8457 C   0  0  0  0  0  0  0  0  0  0  0  0
    8.3191   15.8170   -1.7677 H   0  0  0  0  0  0  0  0  0  0  0  0
    8.1680   13.3992    1.8151 C   0  0  0  0  0  0  0  0  0  0  0  0
   12.4460   15.7459    3.4503 C   0  0  0  0  0  0  0  0  0  0  0  0
   12.9349   16.7083    3.4279 H   0  0  0  0  0  0  0  0  0  0  0  0
    9.0880   12.7355    1.0145 C   0  0  0  0  0  0  0  0  0  0  0  0
   10.1401   12.7673    1.2538 H   0  0  0  0  0  0  0  0  0  0  0  0
   10.6351   16.9584    0.2945 C   0  0  0  0  0  0  0  0  0  0  0  0
   10.5878   17.2796   -0.7487 H   0  0  0  0  0  0  0  0  0  0  0  0
   11.6429   16.6333    0.5376 H   0  0  0  0  0  0  0  0  0  0  0  0
   10.3382   17.7824    0.9491 H   0  0  0  0  0  0  0  0  0  0  0  0
   11.1908   13.2632    3.5359 C   0  0  0  0  0  0  0  0  0  0  0  0
   10.6968   12.3028    3.5959 H   0  0  0  0  0  0  0  0  0  0  0  0
    8.5215   12.8141    7.0064 C   0  0  0  0  0  0  0  0  0  0  0  0
    9.1014   12.9167    7.9111 H   0  0  0  0  0  0  0  0  0  0  0  0
    4.7881   18.0901    1.2198 C   0  0  0  0  0  0  0  0  0  0  0  0
    5.4870   18.8700    1.5300 H   0  0  0  0  0  0  0  0  0  0  0  0
    3.8817   18.1482    1.8163 H   0  0  0  0  0  0  0  0  0  0  0  0
    4.5371   18.2083    0.1639 H   0  0  0  0  0  0  0  0  0  0  0  0
   10.5185   18.2948    6.0632 C   0  0  0  0  0  0  0  0  0  0  0  0
   10.1144   18.7002    5.1331 H   0  0  0  0  0  0  0  0  0  0  0  0
   11.6043   18.3118    6.0383 H   0  0  0  0  0  0  0  0  0  0  0  0
   10.1556   18.8816    6.9100 H   0  0  0  0  0  0  0  0  0  0  0  0
    6.5298   16.3199   -0.5701 C   0  0  0  0  0  0  0  0  0  0  0  0
    5.6749   16.3849   -1.2101 H   0  0  0  0  0  0  0  0  0  0  0  0
    8.6500   12.0471   -0.1043 C   0  0  0  0  0  0  0  0  0  0  0  0
    9.3653   11.5289   -0.7246 H   0  0  0  0  0  0  0  0  0  0  0  0
    7.4103   11.9859    6.9810 C   0  0  0  0  0  0  0  0  0  0  0  0
    7.1194   11.4452    7.8683 H   0  0  0  0  0  0  0  0  0  0  0  0
    6.6794   11.8474    5.8129 C   0  0  0  0  0  0  0  0  0  0  0  0
    5.8194   11.1957    5.7870 H   0  0  0  0  0  0  0  0  0  0  0  0
    8.0692   16.5493    7.3182 C   0  0  0  0  0  0  0  0  0  0  0  0
    8.4782   16.6641    8.3002 H   0  0  0  0  0  0  0  0  0  0  0  0
    6.8119   16.2585    6.9041 C   0  0  0  0  0  0  0  0  0  0  0  0
    5.9170   16.0751    7.4600 H   0  0  0  0  0  0  0  0  0  0  0  0
    4.7623   16.8229    4.7061 C   0  0  0  0  0  0  0  0  0  0  0  0
    4.2280   16.6989    5.6503 H   0  0  0  0  0  0  0  0  0  0  0  0
    4.1271   16.5172    3.8788 H   0  0  0  0  0  0  0  0  0  0  0  0
    5.0660   17.8649    4.5761 H   0  0  0  0  0  0  0  0  0  0  0  0
    7.3047   12.0245   -0.4321 C   0  0  0  0  0  0  0  0  0  0  0  0
    6.9707   11.4855   -1.3052 H   0  0  0  0  0  0  0  0  0  0  0  0
   13.1936   14.5880    3.5919 C   0  0  0  0  0  0  0  0  0  0  0  0
   14.2679   14.6477    3.6757 H   0  0  0  0  0  0  0  0  0  0  0  0
  2  1  1  6  0  0  0
  2  3  1  0  0  0  0
  2 12  2  0  0  0  0
  3 21  1  0  0  0  0
  3 15  1  0  0  0  0
  4 10  1  0  0  0  0
  4 11  1  0  0  0  0
  5  9  1  0  0  0  0
  5 59  1  0  0  0  0
  6 61  1  0  0  0  0
  7 11  1  0  0  0  0
  7  8  1  0  0  0  0
 11  2  1  1  0  0  0
 12  6  1  0  0  0  0
 12  5  1  0  0  0  0
 13 21  2  0  0  0  0
 13 31  1  0  0  0  0
 14 13  1  0  0  0  0
 15 17  1  0  0  0  0
 16 63  1  0  0  0  0
 16  6  1  0  0  0  0
 17 18  1  0  0  0  0
 17 41  2  0  0  0  0
 19 30  1  0  0  0  0
 19 20  1  0  0  0  0
 21 39  1  0  0  0  0
 22 19  2  0  0  0  0
 23 22  1  0  0  0  0
 24 15  2  0  0  0  0
 24 57  1  0  0  0  0
 25 24  1  0  0  0  0
 26 27  1  0  0  0  0
 28 51  2  0  0  0  0
 28  4  1  0  0  0  0
 29 28  1  0  0  0  0
 30  3  1  0  0  0  0
 31 69  2  0  0  0  0
 32 31  1  0  0  0  0
 33 34  1  0  0  0  0
 33 30  2  0  0  0  0
 35 10  1  0  0  0  0
 35 37  1  0  0  0  0
 35 38  1  0  0  0  0
 36 35  1  0  0  0  0
 39 40  1  0  0  0  0
 39 26  2  0  0  0  0
 41 42  1  0  0  0  0
 43  8  1  0  0  0  0
 43 44  1  0  0  0  0
 43 45  1  0  0  0  0
 46 43  1  0  0  0  0
 47  9  1  0  0  0  0
 47 50  1  0  0  0  0
 48 47  1  0  0  0  0
 49 47  1  0  0  0  0
 51  7  1  0  0  0  0
 52 51  1  0  0  0  0
 53 33  1  0  0  0  0
 54 53  1  0  0  0  0
 55 41  1  0  0  0  0
 55 56  1  0  0  0  0
 57 55  2  0  0  0  0
 58 57  1  0  0  0  0
 59 60  1  0  0  0  0
 61 59  2  0  0  0  0
 61 62  1  0  0  0  0
 63 64  1  0  0  0  0
 65 63  1  0  0  0  0
 66 63  1  0  0  0  0
 67 53  2  0  0  0  0
 67 22  1  0  0  0  0
 68 67  1  0  0  0  0
 69 26  1  0  0  0  0
 69 70  1  0  0  0  0
M  END
$$$$
