CSD_code = VIBWUZ | q = 0 | S = 0 | Stoichiometry = C33H29BrNNiPS | MND = 4
 OpenBabel04212202113D

 67 72  0  0  1  0  0  0  0  0999 V2000
    6.6943    7.0150    0.6077 Br  0  0  0  0  0  0  0  0  0  0  0  0
    6.8563    4.8087    0.0304 Ni  0  0  1  0  0  0  0  0  0  0  0  0
    7.8232    3.0910   -1.0041 S   0  0  0  0  0  0  0  0  0  0  0  0
    8.0463    4.5001    1.7622 P   0  0  0  0  0  4  0  0  0  0  0  0
    5.7584    4.9617   -1.4935 N   0  0  0  0  0  0  0  0  0  0  0  0
    8.3061    4.0005   -2.4071 C   0  0  0  0  0  0  0  0  0  0  0  0
    9.6007    3.7826   -2.8835 C   0  0  0  0  0  0  0  0  0  0  0  0
   10.0662    4.4303   -4.0056 C   0  0  0  0  0  0  0  0  0  0  0  0
    9.2386    5.3048   -4.6985 C   0  0  0  0  0  0  0  0  0  0  0  0
    7.9415    5.4966   -4.2731 C   0  0  0  0  0  0  0  0  0  0  0  0
    7.4490    4.8576   -3.1349 C   0  0  0  0  0  0  0  0  0  0  0  0
    6.0564    5.0199   -2.7381 C   0  0  1  0  0  3  0  0  0  0  0  0
    5.0243    5.1436   -3.8175 C   0  0  0  0  0  0  0  0  0  0  0  0
    4.4746    5.0283   -0.9368 C   0  0  0  0  0  0  0  0  0  0  0  0
    4.1178    4.0348   -0.0192 C   0  0  0  0  0  0  0  0  0  0  0  0
    2.9041    4.1005    0.6377 C   0  0  0  0  0  0  0  0  0  0  0  0
    2.0270    5.1529    0.4085 C   0  0  0  0  0  0  0  0  0  0  0  0
    2.3957    6.1414   -0.4989 C   0  0  0  0  0  0  0  0  0  0  0  0
    3.6008    6.0897   -1.1689 C   0  0  0  0  0  0  0  0  0  0  0  0
    0.7142    5.2396    1.1233 C   0  0  0  0  0  0  0  0  0  0  0  0
    7.3583    5.0269    3.3650 C   0  0  0  0  0  0  0  0  0  0  0  0
    5.9837    5.1977    3.4711 C   0  0  0  0  0  0  0  0  0  0  0  0
    5.4173    5.5202    4.6904 C   0  0  0  0  0  0  0  0  0  0  0  0
    6.2227    5.6661    5.8073 C   0  0  0  0  0  0  0  0  0  0  0  0
    7.5930    5.4823    5.7067 C   0  0  0  0  0  0  0  0  0  0  0  0
    8.1634    5.1556    4.4908 C   0  0  0  0  0  0  0  0  0  0  0  0
    9.6333    5.3544    1.5683 C   0  0  0  0  0  0  0  0  0  0  0  0
    9.8577    6.6175    2.1051 C   0  0  0  0  0  0  0  0  0  0  0  0
   11.0521    7.2667    1.8487 C   0  0  0  0  0  0  0  0  0  0  0  0
   12.0130    6.6723    1.0472 C   0  0  0  0  0  0  0  0  0  0  0  0
   11.7798    5.4248    0.4899 C   0  0  0  0  0  0  0  0  0  0  0  0
   10.5919    4.7671    0.7449 C   0  0  0  0  0  0  0  0  0  0  0  0
    8.5148    2.8015    2.2443 C   0  0  0  0  0  0  0  0  0  0  0  0
    7.5479    1.8146    2.0912 C   0  0  0  0  0  0  0  0  0  0  0  0
    7.7994    0.5180    2.4954 C   0  0  0  0  0  0  0  0  0  0  0  0
    9.0230    0.2001    3.0620 C   0  0  0  0  0  0  0  0  0  0  0  0
    9.9872    1.1811    3.2238 C   0  0  0  0  0  0  0  0  0  0  0  0
    9.7373    2.4808    2.8205 C   0  0  0  0  0  0  0  0  0  0  0  0
   10.2384    3.0995   -2.3416 H   0  0  0  0  0  0  0  0  0  0  0  0
   11.0794    4.2626   -4.3397 H   0  0  0  0  0  0  0  0  0  0  0  0
    9.6056    5.8288   -5.5678 H   0  0  0  0  0  0  0  0  0  0  0  0
    7.2996    6.1799   -4.8089 H   0  0  0  0  0  0  0  0  0  0  0  0
    4.7904    3.1946    0.1454 H   0  0  0  0  0  0  0  0  0  0  0  0
    2.6403    3.3256    1.3436 H   0  0  0  0  0  0  0  0  0  0  0  0
    1.7298    6.9732   -0.6747 H   0  0  0  0  0  0  0  0  0  0  0  0
    3.8959    6.8927   -1.8260 H   0  0  0  0  0  0  0  0  0  0  0  0
    5.3634    5.0951    2.5865 H   0  0  0  0  0  0  0  0  0  0  0  0
    4.3497    5.6624    4.7678 H   0  0  0  0  0  0  0  0  0  0  0  0
    5.7835    5.9240    6.7597 H   0  0  0  0  0  0  0  0  0  0  0  0
    8.2188    5.5941    6.5802 H   0  0  0  0  0  0  0  0  0  0  0  0
    9.2313    5.0078    4.4106 H   0  0  0  0  0  0  0  0  0  0  0  0
    9.0929    7.0943    2.7015 H   0  0  0  0  0  0  0  0  0  0  0  0
   11.2270    8.2466    2.2671 H   0  0  0  0  0  0  0  0  0  0  0  0
   12.9413    7.1866    0.8455 H   0  0  0  0  0  0  0  0  0  0  0  0
   12.5219    4.9685   -0.1493 H   0  0  0  0  0  0  0  0  0  0  0  0
   10.3934    3.7974    0.3072 H   0  0  0  0  0  0  0  0  0  0  0  0
    6.5988    2.0753    1.6384 H   0  0  0  0  0  0  0  0  0  0  0  0
    7.0464   -0.2457    2.3666 H   0  0  0  0  0  0  0  0  0  0  0  0
    9.2266   -0.8133    3.3753 H   0  0  0  0  0  0  0  0  0  0  0  0
   10.9414    0.9329    3.6658 H   0  0  0  0  0  0  0  0  0  0  0  0
   10.4972    3.2397    2.9442 H   0  0  0  0  0  0  0  0  0  0  0  0
    4.9475    6.1836   -4.1346 H   0  0  0  0  0  0  0  0  0  0  0  0
    5.3091    4.5443   -4.6794 H   0  0  0  0  0  0  0  0  0  0  0  0
    4.0492    4.8234   -3.4545 H   0  0  0  0  0  0  0  0  0  0  0  0
    0.6401    6.1827    1.6626 H   0  0  0  0  0  0  0  0  0  0  0  0
   -0.1086    5.1997    0.4101 H   0  0  0  0  0  0  0  0  0  0  0  0
    0.5995    4.4226    1.8310 H   0  0  0  0  0  0  0  0  0  0  0  0
  2  1  1  6  0  0  0
  2  4  1  0  0  0  0
  3  2  1  0  0  0  0
  4 33  1  0  0  0  0
  4 21  1  0  0  0  0
  5 14  1  0  0  0  0
  5  2  1  0  0  0  0
  6  3  1  0  0  0  0
  7  6  1  0  0  0  0
  7 39  1  0  0  0  0
  8  7  2  0  0  0  0
  9 10  2  0  0  0  0
  9  8  1  0  0  0  0
 10 11  1  0  0  0  0
 11 12  1  0  0  0  0
 11  6  2  0  0  0  0
 12 13  1  6  0  0  0
 12  5  1  0  0  0  0
 13 64  1  0  0  0  0
 14 15  1  0  0  0  0
 15 43  1  0  0  0  0
 15 16  2  0  0  0  0
 16 44  1  0  0  0  0
 17 16  1  0  0  0  0
 17 20  1  0  0  0  0
 18 17  2  0  0  0  0
 19 14  2  0  0  0  0
 19 18  1  0  0  0  0
 20 65  1  0  0  0  0
 20 67  1  0  0  0  0
 21 22  2  0  0  0  0
 21 26  1  0  0  0  0
 22 23  1  0  0  0  0
 23 48  1  0  0  0  0
 23 24  2  0  0  0  0
 24 49  1  0  0  0  0
 25 24  1  0  0  0  0
 25 50  1  0  0  0  0
 26 25  2  0  0  0  0
 27  4  1  0  0  0  0
 27 28  1  0  0  0  0
 28 52  1  0  0  0  0
 29 28  2  0  0  0  0
 29 53  1  0  0  0  0
 30 29  1  0  0  0  0
 31 32  1  0  0  0  0
 31 30  2  0  0  0  0
 32 27  2  0  0  0  0
 33 38  1  0  0  0  0
 34 33  2  0  0  0  0
 34 35  1  0  0  0  0
 35 36  2  0  0  0  0
 36 37  1  0  0  0  0
 36 59  1  0  0  0  0
 37 60  1  0  0  0  0
 38 61  1  0  0  0  0
 38 37  2  0  0  0  0
 40  8  1  0  0  0  0
 41  9  1  0  0  0  0
 42 10  1  0  0  0  0
 45 18  1  0  0  0  0
 46 19  1  0  0  0  0
 47 22  1  0  0  0  0
 51 26  1  0  0  0  0
 54 30  1  0  0  0  0
 55 31  1  0  0  0  0
 56 32  1  0  0  0  0
 57 34  1  0  0  0  0
 58 35  1  0  0  0  0
 62 13  1  0  0  0  0
 63 13  1  0  0  0  0
 66 20  1  0  0  0  0
M  END
$$$$
