CSD_code = VICBIT | q = 0 | S = 0 | Stoichiometry = C15H21AuClP | MND = 2
 OpenBabel04212202113D

 39 40  0  0  0  0  0  0  0  0999 V2000
    2.0206    0.2009    1.8956 Au  0  0  0  0  0  0  0  0  0  0  0  0
    0.7378   -0.6493    3.5620 Cl  0  0  0  0  0  0  0  0  0  0  0  0
    3.2459    1.0496    0.2170 P   0  0  0  0  0  4  0  0  0  0  0  0
    7.1762    2.1472    0.7862 C   0  0  0  0  0  0  0  0  0  0  0  0
    7.8995    2.2037   -0.0315 H   0  0  0  0  0  0  0  0  0  0  0  0
    7.4728    2.8941    1.5271 H   0  0  0  0  0  0  0  0  0  0  0  0
    5.7798    2.3821    0.3049 C   0  0  0  0  0  0  0  0  0  0  0  0
    5.4962    3.3009   -0.1776 H   0  0  0  0  0  0  0  0  0  0  0  0
    4.9905    1.3224    0.5684 C   0  0  0  0  0  0  0  0  0  0  0  0
    5.7828    0.2975    1.2442 C   0  0  0  0  0  0  0  0  0  0  0  0
    5.4308   -0.9546    1.7202 C   0  0  0  0  0  0  0  0  0  0  0  0
    4.4150   -1.3172    1.6294 H   0  0  0  0  0  0  0  0  0  0  0  0
    6.4067   -1.7226    2.3327 C   0  0  0  0  0  0  0  0  0  0  0  0
    6.1528   -2.6990    2.7166 H   0  0  0  0  0  0  0  0  0  0  0  0
    7.7053   -1.2509    2.4630 C   0  0  0  0  0  0  0  0  0  0  0  0
    8.4487   -1.8678    2.9455 H   0  0  0  0  0  0  0  0  0  0  0  0
    8.0614    0.0034    1.9874 C   0  0  0  0  0  0  0  0  0  0  0  0
    9.0733    0.3657    2.0961 H   0  0  0  0  0  0  0  0  0  0  0  0
    7.0942    0.7746    1.3783 C   0  0  0  0  0  0  0  0  0  0  0  0
    2.6262    2.7097   -0.3145 C   0  0  0  0  0  0  0  0  0  0  0  0
    3.3060    3.1265   -1.0671 H   0  0  0  0  0  0  0  0  0  0  0  0
    2.6114    3.5941    0.9316 C   0  0  0  0  0  0  0  0  0  0  0  0
    2.2983    4.6049    0.6762 H   0  0  0  0  0  0  0  0  0  0  0  0
    3.5939    3.6422    1.3984 H   0  0  0  0  0  0  0  0  0  0  0  0
    1.9099    3.1919    1.6626 H   0  0  0  0  0  0  0  0  0  0  0  0
    1.2177    2.5864   -0.8873 C   0  0  0  0  0  0  0  0  0  0  0  0
    0.7715    3.5736   -0.9952 H   0  0  0  0  0  0  0  0  0  0  0  0
    0.5895    2.0009   -0.2150 H   0  0  0  0  0  0  0  0  0  0  0  0
    1.2203    2.1104   -1.8650 H   0  0  0  0  0  0  0  0  0  0  0  0
    3.4053   -0.0551   -1.2724 C   0  0  0  0  0  0  0  0  0  0  0  0
    4.1426   -0.8007   -0.9373 H   0  0  0  0  0  0  0  0  0  0  0  0
    3.9675    0.6699   -2.4905 C   0  0  0  0  0  0  0  0  0  0  0  0
    4.2101   -0.0520   -3.2682 H   0  0  0  0  0  0  0  0  0  0  0  0
    4.8770    1.2107   -2.2315 H   0  0  0  0  0  0  0  0  0  0  0  0
    3.2452    1.3735   -2.8982 H   0  0  0  0  0  0  0  0  0  0  0  0
    2.0984   -0.7820   -1.5708 C   0  0  0  0  0  0  0  0  0  0  0  0
    2.2705   -1.5710   -2.3009 H   0  0  0  0  0  0  0  0  0  0  0  0
    1.3476   -0.1068   -1.9730 H   0  0  0  0  0  0  0  0  0  0  0  0
    1.6986   -1.2341   -0.6630 H   0  0  0  0  0  0  0  0  0  0  0  0
  1  2  1  0  0  0  0
  3  9  1  0  0  0  0
  3  1  1  0  0  0  0
  4 19  1  0  0  0  0
  4  6  1  0  0  0  0
  5  4  1  0  0  0  0
  7  9  2  0  0  0  0
  7  4  1  0  0  0  0
  8  7  1  0  0  0  0
  9 10  1  0  0  0  0
 10 19  2  0  0  0  0
 10 11  1  0  0  0  0
 11 13  2  0  0  0  0
 12 11  1  0  0  0  0
 13 15  1  0  0  0  0
 13 14  1  0  0  0  0
 15 16  1  0  0  0  0
 17 18  1  0  0  0  0
 17 15  2  0  0  0  0
 19 17  1  0  0  0  0
 20  3  1  0  0  0  0
 20 22  1  0  0  0  0
 21 20  1  0  0  0  0
 22 24  1  0  0  0  0
 22 25  1  0  0  0  0
 23 22  1  0  0  0  0
 26 20  1  0  0  0  0
 26 28  1  0  0  0  0
 27 26  1  0  0  0  0
 29 26  1  0  0  0  0
 30 31  1  0  0  0  0
 30  3  1  0  0  0  0
 32 34  1  0  0  0  0
 32 30  1  0  0  0  0
 33 32  1  0  0  0  0
 35 32  1  0  0  0  0
 36 30  1  0  0  0  0
 36 39  1  0  0  0  0
 37 36  1  0  0  0  0
 38 36  1  0  0  0  0
M  END
$$$$
