CSD_code = VICBEP | q = 0 | S = 0 | Stoichiometry = C17H26AuClNP | MND = 2
 OpenBabel04212202113D

 47 48  0  0  1  0  0  0  0  0999 V2000
    2.5980    3.8674    2.5902 Au  0  0  0  0  0  0  0  0  0  0  0  0
    4.7702    4.1050    1.9518 Cl  0  0  0  0  0  0  0  0  0  0  0  0
    0.4393    3.5332    3.1006 P   0  0  0  0  0  4  0  0  0  0  0  0
    1.7601    1.4704    1.1146 N   0  0  0  0  0  0  0  0  0  0  0  0
   -0.4296    2.4695    1.8411 C   0  0  1  0  0  0  0  0  0  0  0  0
   -0.5830    3.1076    0.9666 H   0  0  0  0  0  0  0  0  0  0  0  0
    0.4837    1.2882    1.5873 C   0  0  0  0  0  0  0  0  0  0  0  0
   -0.1113    0.1522    2.0292 C   0  0  0  0  0  0  0  0  0  0  0  0
    0.3014   -0.8393    2.0090 H   0  0  0  0  0  0  0  0  0  0  0  0
   -1.4495    0.4452    2.4715 C   0  0  0  0  0  0  0  0  0  0  0  0
   -2.4617   -0.3904    2.9241 C   0  0  0  0  0  0  0  0  0  0  0  0
   -2.2850   -1.4481    3.0514 H   0  0  0  0  0  0  0  0  0  0  0  0
   -3.7047    0.1579    3.1926 C   0  0  0  0  0  0  0  0  0  0  0  0
   -4.5033   -0.4791    3.5440 H   0  0  0  0  0  0  0  0  0  0  0  0
   -3.9492    1.5093    2.9963 C   0  0  0  0  0  0  0  0  0  0  0  0
   -4.9343    1.9083    3.1863 H   0  0  0  0  0  0  0  0  0  0  0  0
   -2.9404    2.3549    2.5515 C   0  0  0  0  0  0  0  0  0  0  0  0
   -3.1448    3.4028    2.3834 H   0  0  0  0  0  0  0  0  0  0  0  0
   -1.6901    1.8242    2.3211 C   0  0  0  0  0  0  0  0  0  0  0  0
    0.3036    2.7836    4.7931 C   0  0  0  0  0  0  0  0  0  0  0  0
    0.8242    3.5486    5.3920 H   0  0  0  0  0  0  0  0  0  0  0  0
   -1.0906    2.5737    5.3746 C   0  0  0  0  0  0  0  0  0  0  0  0
   -1.0003    2.3490    6.4365 H   0  0  0  0  0  0  0  0  0  0  0  0
   -1.5943    1.7395    4.8956 H   0  0  0  0  0  0  0  0  0  0  0  0
   -1.7123    3.4599    5.2693 H   0  0  0  0  0  0  0  0  0  0  0  0
    1.1386    1.5072    4.8606 C   0  0  0  0  0  0  0  0  0  0  0  0
    1.3227    1.2373    5.8990 H   0  0  0  0  0  0  0  0  0  0  0  0
    2.1006    1.6547    4.3670 H   0  0  0  0  0  0  0  0  0  0  0  0
    0.6222    0.6817    4.3778 H   0  0  0  0  0  0  0  0  0  0  0  0
   -0.5937    5.0718    3.1740 C   0  0  0  0  0  0  0  0  0  0  0  0
   -1.6347    4.8042    3.3875 H   0  0  0  0  0  0  0  0  0  0  0  0
   -0.5071    5.7804    1.8233 C   0  0  0  0  0  0  0  0  0  0  0  0
   -0.9676    6.7647    1.8864 H   0  0  0  0  0  0  0  0  0  0  0  0
   -1.0198    5.2251    1.0400 H   0  0  0  0  0  0  0  0  0  0  0  0
    0.5370    5.9111    1.5345 H   0  0  0  0  0  0  0  0  0  0  0  0
   -0.0472    5.9741    4.2778 C   0  0  0  0  0  0  0  0  0  0  0  0
   -0.5134    6.9562    4.2238 H   0  0  0  0  0  0  0  0  0  0  0  0
    1.0295    6.1018    4.1566 H   0  0  0  0  0  0  0  0  0  0  0  0
   -0.2408    5.5641    5.2663 H   0  0  0  0  0  0  0  0  0  0  0  0
    1.9550    2.2462   -0.0970 C   0  0  0  0  0  0  0  0  0  0  0  0
    1.3144    3.1243   -0.1004 H   0  0  0  0  0  0  0  0  0  0  0  0
    1.7394    1.6461   -0.9907 H   0  0  0  0  0  0  0  0  0  0  0  0
    2.9909    2.5807   -0.1392 H   0  0  0  0  0  0  0  0  0  0  0  0
    2.6632    0.3440    1.2045 C   0  0  0  0  0  0  0  0  0  0  0  0
    2.5874   -0.1024    2.1941 H   0  0  0  0  0  0  0  0  0  0  0  0
    3.6796    0.7095    1.0634 H   0  0  0  0  0  0  0  0  0  0  0  0
    2.4532   -0.4222    0.4484 H   0  0  0  0  0  0  0  0  0  0  0  0
  1  3  1  0  0  0  0
  2  1  1  0  0  0  0
  3 30  1  0  0  0  0
  3 20  1  0  0  0  0
  4 44  1  0  0  0  0
  4  7  1  0  0  0  0
  5  6  1  6  0  0  0
  5 19  1  0  0  0  0
  5  3  1  0  0  0  0
  7  5  1  0  0  0  0
  7  8  2  0  0  0  0
  8 10  1  0  0  0  0
  9  8  1  0  0  0  0
 10 11  1  0  0  0  0
 11 12  1  0  0  0  0
 11 13  2  0  0  0  0
 13 14  1  0  0  0  0
 15 16  1  0  0  0  0
 15 13  1  0  0  0  0
 17 15  2  0  0  0  0
 18 17  1  0  0  0  0
 19 10  2  0  0  0  0
 19 17  1  0  0  0  0
 20 26  1  0  0  0  0
 20 22  1  0  0  0  0
 20 21  1  0  0  0  0
 22 23  1  0  0  0  0
 24 22  1  0  0  0  0
 25 22  1  0  0  0  0
 26 27  1  0  0  0  0
 28 26  1  0  0  0  0
 29 26  1  0  0  0  0
 30 31  1  0  0  0  0
 30 36  1  0  0  0  0
 32 33  1  0  0  0  0
 32 30  1  0  0  0  0
 34 32  1  0  0  0  0
 35 32  1  0  0  0  0
 36 39  1  0  0  0  0
 37 36  1  0  0  0  0
 38 36  1  0  0  0  0
 40  4  1  0  0  0  0
 41 40  1  0  0  0  0
 42 40  1  0  0  0  0
 43 40  1  0  0  0  0
 44 45  1  0  0  0  0
 46 44  1  0  0  0  0
 47 44  1  0  0  0  0
M  END
$$$$
