CSD_code = VICFIZ | q = 0 | S = 0 | Stoichiometry = C15H18Cl3NOPtS | MND = 4
 OpenBabel04212202113D

 40 42  0  0  1  0  0  0  0  0999 V2000
    3.1260    0.3499    4.8231 Pt  0  0  0  0  0  0  0  0  0  0  0  0
    4.9734    1.4911    4.2537 S   0  0  0  0  0  0  0  0  0  0  0  0
    2.9320   -0.2628    2.5791 Cl  0  0  0  0  0  0  0  0  0  0  0  0
   -2.2452   -3.1130    5.9722 Cl  0  0  0  0  0  0  0  0  0  0  0  0
   -2.1687   -0.1047    5.4087 C   0  0  0  0  0  0  0  0  0  0  0  0
   -3.0820   -0.6525    5.5805 H   0  0  0  0  0  0  0  0  0  0  0  0
   -0.9437   -0.7997    5.4410 C   0  0  0  0  0  0  0  0  0  0  0  0
    0.2599   -0.0820    5.2152 C   0  0  2  0  0  3  0  0  0  0  0  0
    2.9858   -3.9762    6.1274 C   0  0  0  0  0  0  0  0  0  0  0  0
    3.9639   -4.4219    5.9455 H   0  0  0  0  0  0  0  0  0  0  0  0
    2.8487   -3.8902    7.2065 H   0  0  0  0  0  0  0  0  0  0  0  0
    2.9297   -2.5939    5.4889 C   0  0  0  0  0  0  0  0  0  0  0  0
    3.5952   -1.8972    6.0173 H   0  0  0  0  0  0  0  0  0  0  0  0
    3.2675   -2.6535    4.4472 H   0  0  0  0  0  0  0  0  0  0  0  0
    1.4619   -0.7101    5.2411 N   0  0  0  0  0  0  0  0  0  0  0  0
    3.3137    0.9101    7.0333 Cl  0  0  0  0  0  0  0  0  0  0  0  0
    0.4086   -2.8070    5.6942 C   0  0  0  0  0  0  0  0  0  0  0  0
    0.1963    1.3029    4.9675 C   0  0  0  0  0  0  0  0  0  0  0  0
    1.1301    1.8384    4.8088 H   0  0  0  0  0  0  0  0  0  0  0  0
    1.5514   -2.0067    5.4792 C   0  0  0  0  0  0  0  0  0  0  0  0
   -1.0089    1.9491    4.9419 C   0  0  0  0  0  0  0  0  0  0  0  0
   -1.0504    3.0109    4.7544 H   0  0  0  0  0  0  0  0  0  0  0  0
    0.5255   -4.2824    5.9475 C   0  0  0  0  0  0  0  0  0  0  0  0
   -0.2733   -4.8004    5.4123 H   0  0  0  0  0  0  0  0  0  0  0  0
    0.3626   -4.4575    7.0158 H   0  0  0  0  0  0  0  0  0  0  0  0
   -0.8237   -2.1875    5.6826 C   0  0  0  0  0  0  0  0  0  0  0  0
   -2.1988    1.2402    5.1626 C   0  0  0  0  0  0  0  0  0  0  0  0
   -3.1419    1.7642    5.1397 H   0  0  0  0  0  0  0  0  0  0  0  0
    1.8819   -4.8438    5.5397 C   0  0  0  0  0  0  0  0  0  0  0  0
    1.9695   -5.8718    5.8931 H   0  0  0  0  0  0  0  0  0  0  0  0
    1.9661   -4.8516    4.4514 H   0  0  0  0  0  0  0  0  0  0  0  0
    6.1393    0.3783    3.4126 C   0  0  0  0  0  0  0  0  0  0  0  0
    5.6082   -0.1140    2.6058 H   0  0  0  0  0  0  0  0  0  0  0  0
    6.4858   -0.3469    4.1418 H   0  0  0  0  0  0  0  0  0  0  0  0
    6.9742    0.9649    3.0472 H   0  0  0  0  0  0  0  0  0  0  0  0
    4.6267    2.6241    2.8740 C   0  0  0  0  0  0  0  0  0  0  0  0
    4.1387    2.0590    2.0881 H   0  0  0  0  0  0  0  0  0  0  0  0
    5.5637    3.0534    2.5389 H   0  0  0  0  0  0  0  0  0  0  0  0
    3.9732    3.4067    3.2458 H   0  0  0  0  0  0  0  0  0  0  0  0
    5.7264    2.2371    5.2368 O   0  0  0  0  0  1  0  0  0  0  0  0
  1 15  1  0  0  0  0
  1 16  1  0  0  0  0
  2  1  1  0  0  0  0
  2 40  1  0  0  0  0
  3  1  1  0  0  0  0
  5  7  1  0  0  0  0
  5  6  1  0  0  0  0
  7 26  2  0  0  0  0
  8 18  1  1  0  0  0
  8 15  1  0  0  0  0
  8  7  1  0  0  0  0
  9 11  1  0  0  0  0
 10  9  1  0  0  0  0
 12 13  1  0  0  0  0
 12  9  1  0  0  0  0
 14 12  1  0  0  0  0
 15 20  1  0  0  0  0
 17 23  1  0  0  0  0
 19 18  1  0  0  0  0
 20 12  1  0  0  0  0
 20 17  2  0  0  0  0
 21 18  2  0  0  0  0
 21 27  1  0  0  0  0
 22 21  1  0  0  0  0
 23 25  1  0  0  0  0
 24 23  1  0  0  0  0
 26 17  1  0  0  0  0
 26  4  1  0  0  0  0
 27  5  2  0  0  0  0
 28 27  1  0  0  0  0
 29 30  1  0  0  0  0
 29 23  1  0  0  0  0
 29  9  1  0  0  0  0
 31 29  1  0  0  0  0
 32 34  1  0  0  0  0
 32  2  1  0  0  0  0
 33 32  1  0  0  0  0
 35 32  1  0  0  0  0
 36 39  1  0  0  0  0
 36  2  1  0  0  0  0
 37 36  1  0  0  0  0
 38 36  1  0  0  0  0
M  END
$$$$
