CSD_code = VICLIC | q = 0 | S = 0 | Stoichiometry = C10H10ClTc | MND = 11
 OpenBabel04212202113D

 22 21  0  0  1  0  0  0  0  0999 V2000
    2.2835    3.4761    3.7979 Tc  0  0  0  0  0  0  0  0  0  0  0  0
    2.2835    3.3361    1.4875 Cl  0  0  0  0  0 15  0  0  0  0  0  0
    2.2835    0.9578    3.3825 C   0  0  0  0  0  0  0  0  0  0  0  0
    1.1346    1.3493    4.1063 C   0  0  0  0  0  0  0  0  0  0  0  0
    1.5706    1.9569    5.3131 C   0  0  1  0  0  0  0  0  0  0  0  0
    2.2835    5.1283    5.4124 C   0  0  0  0  0  0  0  0  0  0  0  0
    1.1302    5.3896    4.6222 C   0  0  0  0  0  3  0  0  0  0  0  0
    1.5638    5.7341    3.3363 C   0  0  0  0  0  0  0  0  0  0  0  0
    2.2835    0.4315    2.4408 H   0  0  0  0  0  0  0  0  0  0  0  0
    0.1170    1.1170    3.8440 H   0  0  0  0  0  0  0  0  0  0  0  0
    0.9395    2.1887    6.1571 H   0  0  0  0  0  0  0  0  0  0  0  0
    2.2835    4.9774    6.4810 H   0  0  0  0  0  0  0  0  0  0  0  0
    0.1120    5.3783    4.9710 H   0  0  0  0  0  0  0  0  0  0  0  0
    0.9468    6.0647    2.5162 H   0  0  0  0  0  0  0  0  0  0  0  0
    3.4324    1.3493    4.1063 C   0  0  0  0  0  0  0  0  0  0  0  0
    2.9964    1.9569    5.3131 C   0  0  0  0  0  0  0  0  0  0  0  0
    3.4368    5.3896    4.6222 C   0  0  0  0  0  0  0  0  0  0  0  0
    3.0032    5.7341    3.3363 C   0  0  0  0  0  0  0  0  0  0  0  0
    4.4500    1.1170    3.8440 H   0  0  0  0  0  0  0  0  0  0  0  0
    3.6275    2.1887    6.1571 H   0  0  0  0  0  0  0  0  0  0  0  0
    4.4550    5.3783    4.9710 H   0  0  0  0  0  0  0  0  0  0  0  0
    3.6202    6.0647    2.5162 H   0  0  0  0  0  0  0  0  0  0  0  0
  1  5  1  0  0  0  0
  3  4  2  0  0  0  0
  3 15  1  0  0  0  0
  4  5  1  0  0  0  0
  5 16  1  0  0  0  0
  5 11  1  1  0  0  0
  6 12  1  0  0  0  0
  7 13  1  0  0  0  0
  7  6  1  0  0  0  0
  8  7  1  0  0  0  0
  9  3  1  0  0  0  0
 10  4  1  0  0  0  0
 14  8  1  0  0  0  0
 15 16  2  0  0  0  0
 16 20  1  0  0  0  0
 17 21  1  0  0  0  0
 17  6  2  0  0  0  0
 18  8  2  0  0  0  0
 18 17  1  0  0  0  0
 19 15  1  0  0  0  0
 22 18  1  0  0  0  0
M  END
$$$$
