CSD_code = VICNAZ | q = 0 | S = 0 | Stoichiometry = C23H13ClN5O4Re | MND = 6
 OpenBabel04212202113D

 47 52  0  0  0  0  0  0  0  0999 V2000
   -0.1529    5.5726   14.1968 C   0  0  0  0  0  2  0  0  0  0  0  0
   -0.0242    8.2959   15.0510 C   0  0  0  0  0  2  0  0  0  0  0  0
    2.3334    6.7863   14.9118 C   0  0  0  0  0  2  0  0  0  0  0  0
   -1.6501    8.3931   12.1596 C   0  0  0  0  0  3  0  0  0  0  0  0
   -2.0506    8.5192   13.1568 H   0  0  0  0  0  0  0  0  0  0  0  0
   -2.3065    8.9217   11.0613 C   0  0  0  0  0  0  0  0  0  0  0  0
   -3.2235    9.4717   11.1969 H   0  0  0  0  0  0  0  0  0  0  0  0
   -1.7605    8.7380    9.7992 C   0  0  0  0  0  0  0  0  0  0  0  0
   -2.2426    9.1437    8.9229 H   0  0  0  0  0  0  0  0  0  0  0  0
   -0.5815    8.0259    9.6862 C   0  0  0  0  0  0  0  0  0  0  0  0
   -0.1164    7.8584    8.7276 H   0  0  0  0  0  0  0  0  0  0  0  0
    0.0179    7.5326   10.8408 C   0  0  0  0  0  0  0  0  0  0  0  0
    1.2604    6.7906   10.8374 C   0  0  0  0  0  0  0  0  0  0  0  0
    2.1587    6.3894    9.8717 C   0  0  0  0  0  0  0  0  0  0  0  0
    2.1606    6.5299    8.8132 H   0  0  0  0  0  0  0  0  0  0  0  0
    4.3040    5.1308   10.0807 C   0  0  0  0  0  0  0  0  0  0  0  0
    4.6276    5.1648    8.7176 C   0  0  0  0  0  0  0  0  0  0  0  0
    3.9762    5.6693    8.0225 H   0  0  0  0  0  0  0  0  0  0  0  0
    5.7733    4.5686    8.2369 C   0  0  0  0  0  0  0  0  0  0  0  0
    6.0256    4.5947    7.1903 H   0  0  0  0  0  0  0  0  0  0  0  0
    6.6008    3.9290    9.1513 C   0  0  0  0  0  0  0  0  0  0  0  0
    6.2599    3.9073   10.5245 C   0  0  0  0  0  0  0  0  0  0  0  0
    5.1181    4.4999   11.0167 C   0  0  0  0  0  0  0  0  0  0  0  0
    4.8559    4.4895   12.0610 H   0  0  0  0  0  0  0  0  0  0  0  0
    8.1094    2.8658   10.1942 C   0  0  0  0  0  0  0  0  0  0  0  0
    9.2902    2.1075   10.5381 C   0  0  0  0  0  0  0  0  0  0  0  0
   10.1861    1.7410    9.5322 C   0  0  0  0  0  0  0  0  0  0  0  0
    9.9733    2.0368    8.5174 H   0  0  0  0  0  0  0  0  0  0  0  0
   11.3158    1.0147    9.8513 C   0  0  0  0  0  0  0  0  0  0  0  0
   12.0099    0.7304    9.0748 H   0  0  0  0  0  0  0  0  0  0  0  0
   11.5611    0.6495   11.1669 C   0  0  0  0  0  0  0  0  0  0  0  0
   12.4457    0.0810   11.4125 H   0  0  0  0  0  0  0  0  0  0  0  0
   10.6735    1.0126   12.1678 C   0  0  0  0  0  0  0  0  0  0  0  0
   10.8672    0.7275   13.1910 H   0  0  0  0  0  0  0  0  0  0  0  0
    9.5397    1.7396   11.8606 C   0  0  0  0  0  0  0  0  0  0  0  0
    8.8434    2.0271   12.6335 H   0  0  0  0  0  0  0  0  0  0  0  0
    7.7795    3.2553    9.0003 N   0  0  0  0  0  0  0  0  0  0  0  0
   -0.5123    7.7163   12.0633 N   0  0  0  0  0  0  0  0  0  0  0  0
    1.7530    6.3604   12.0315 N   0  0  0  0  0  0  0  0  0  0  0  0
    2.8540    5.7395   11.8534 N   0  0  0  0  0  2  0  0  0  0  0  0
    3.1338    5.7415   10.5532 N   0  0  0  0  0  0  0  0  0  0  0  0
   -0.7562    4.6260   14.4453 O   0  0  0  0  0  1  0  0  0  0  0  0
   -0.5108    9.0513   15.7593 O   0  0  0  0  0  1  0  0  0  0  0  0
    3.2766    6.6149   15.5330 O   0  0  0  0  0  1  0  0  0  0  0  0
    7.2298    3.2273   11.1716 O   0  0  0  0  0  0  0  0  0  0  0  0
    1.9605    9.1082   12.8821 Cl  0  0  0  0  0  0  0  0  0  0  0  0
    0.8411    7.1705   13.7174 Re  0  0  0  0  0  0  0  0  0  0  0  0
  1 42  1  0  0  0  0
  2 43  1  0  0  0  0
  3 44  1  0  0  0  0
  4  5  1  0  0  0  0
  6  7  1  0  0  0  0
  6  4  1  0  0  0  0
  8  6  2  0  0  0  0
  9  8  1  0  0  0  0
 10  8  1  0  0  0  0
 10 12  2  0  0  0  0
 11 10  1  0  0  0  0
 12 38  1  0  0  0  0
 13 12  1  0  0  0  0
 13 39  1  0  0  0  0
 14 41  1  0  0  0  0
 14 13  2  0  0  0  0
 15 14  1  0  0  0  0
 16 41  1  0  0  0  0
 16 23  1  0  0  0  0
 17 16  2  0  0  0  0
 18 17  1  0  0  0  0
 19 17  1  0  0  0  0
 19 21  2  0  0  0  0
 20 19  1  0  0  0  0
 21 22  1  0  0  0  0
 22 23  2  0  0  0  0
 22 45  1  0  0  0  0
 23 24  1  0  0  0  0
 25 26  1  0  0  0  0
 25 45  1  0  0  0  0
 26 35  1  0  0  0  0
 27 29  1  0  0  0  0
 27 26  2  0  0  0  0
 28 27  1  0  0  0  0
 29 31  2  0  0  0  0
 30 29  1  0  0  0  0
 31 32  1  0  0  0  0
 31 33  1  0  0  0  0
 33 34  1  0  0  0  0
 35 33  2  0  0  0  0
 35 36  1  0  0  0  0
 37 21  1  0  0  0  0
 37 25  2  0  0  0  0
 38  4  1  0  0  0  0
 38 47  1  0  0  0  0
 39 47  1  0  0  0  0
 40 39  1  0  0  0  0
 41 40  1  0  0  0  0
 46 47  1  0  0  0  0
 47  1  1  0  0  0  0
 47  3  1  0  0  0  0
 47  2  1  0  0  0  0
M  END
$$$$
