CSD_code = VIDGIA | q = 0 | S = 0 | Stoichiometry = C14H22Cl2N2Pt | MND = 4
 OpenBabel04212202113D

 41 42  0  0  0  0  0  0  0  0999 V2000
    3.4586    0.5874    7.6645 Pt  0  0  0  0  0  0  0  0  0  0  0  0
    4.4109   -0.2194    9.5489 Cl  0  0  0  0  0  0  0  0  0  0  0  0
    4.0844    2.6665    8.2156 Cl  0  0  0  0  0  0  0  0  0  0  0  0
    1.9904    1.5454    5.1508 N   0  0  0  0  0  2  0  0  0  0  0  0
    2.8538   -2.4160    7.4843 N   0  0  0  0  0  2  0  0  0  0  0  0
    2.5961    1.2328    6.0945 C   0  0  0  0  0  2  0  0  0  0  0  0
    1.1331    1.5682    4.0441 C   0  0  0  0  0  0  0  0  0  0  0  0
    1.1587    2.5804    3.6241 H   0  0  0  0  0  0  0  0  0  0  0  0
   -0.2901    1.2237    4.5073 C   0  0  0  0  0  0  0  0  0  0  0  0
   -0.6020    1.9278    5.2802 H   0  0  0  0  0  0  0  0  0  0  0  0
   -0.9593    1.3344    3.6523 H   0  0  0  0  0  0  0  0  0  0  0  0
   -0.3602   -0.2048    5.0396 C   0  0  0  0  0  0  0  0  0  0  0  0
   -1.3866   -0.4301    5.3330 H   0  0  0  0  0  0  0  0  0  0  0  0
    0.2714   -0.2937    5.9284 H   0  0  0  0  0  0  0  0  0  0  0  0
    0.1111   -1.1942    3.9779 C   0  0  0  0  0  0  0  0  0  0  0  0
    0.0632   -2.2113    4.3700 H   0  0  0  0  0  0  0  0  0  0  0  0
   -0.5503   -1.1394    3.1101 H   0  0  0  0  0  0  0  0  0  0  0  0
    1.5398   -0.8721    3.5498 C   0  0  0  0  0  0  0  0  0  0  0  0
    2.2094   -0.9767    4.4080 H   0  0  0  0  0  0  0  0  0  0  0  0
    1.8673   -1.5730    2.7804 H   0  0  0  0  0  0  0  0  0  0  0  0
    1.6283    0.5512    3.0057 C   0  0  0  0  0  0  0  0  0  0  0  0
    1.0055    0.6472    2.1147 H   0  0  0  0  0  0  0  0  0  0  0  0
    2.6582    0.7838    2.7303 H   0  0  0  0  0  0  0  0  0  0  0  0
    3.0215   -1.2663    7.4295 C   0  0  0  0  0  2  0  0  0  0  0  0
    2.5556   -3.7664    7.6881 C   0  0  0  0  0  0  0  0  0  0  0  0
    3.5016   -4.3206    7.6430 H   0  0  0  0  0  0  0  0  0  0  0  0
    1.9189   -3.9480    9.0705 C   0  0  0  0  0  0  0  0  0  0  0  0
    1.0095   -3.3456    9.1231 H   0  0  0  0  0  0  0  0  0  0  0  0
    2.6062   -3.5879    9.8372 H   0  0  0  0  0  0  0  0  0  0  0  0
    1.5823   -5.4191    9.2921 C   0  0  0  0  0  0  0  0  0  0  0  0
    2.5018   -6.0084    9.2878 H   0  0  0  0  0  0  0  0  0  0  0  0
    1.1133   -5.5393   10.2694 H   0  0  0  0  0  0  0  0  0  0  0  0
    0.6467   -5.9263    8.1982 C   0  0  0  0  0  0  0  0  0  0  0  0
   -0.2961   -5.3768    8.2435 H   0  0  0  0  0  0  0  0  0  0  0  0
    0.4261   -6.9825    8.3593 H   0  0  0  0  0  0  0  0  0  0  0  0
    1.2787   -5.7347    6.8224 C   0  0  0  0  0  0  0  0  0  0  0  0
    2.1918   -6.3302    6.7550 H   0  0  0  0  0  0  0  0  0  0  0  0
    0.5958   -6.0814    6.0452 H   0  0  0  0  0  0  0  0  0  0  0  0
    1.6134   -4.2646    6.5871 C   0  0  0  0  0  0  0  0  0  0  0  0
    2.0838   -4.1315    5.6107 H   0  0  0  0  0  0  0  0  0  0  0  0
    0.6983   -3.6683    6.6088 H   0  0  0  0  0  0  0  0  0  0  0  0
  1  3  1  0  0  0  0
  1  2  1  0  0  0  0
  4  6  1  0  0  0  0
  5 25  1  0  0  0  0
  6  1  1  0  0  0  0
  7  9  1  0  0  0  0
  7  4  1  0  0  0  0
  8  7  1  0  0  0  0
  9 12  1  0  0  0  0
  9 10  1  0  0  0  0
 11  9  1  0  0  0  0
 12 13  1  0  0  0  0
 12 14  1  0  0  0  0
 15 16  1  0  0  0  0
 15 12  1  0  0  0  0
 17 15  1  0  0  0  0
 18 15  1  0  0  0  0
 18 19  1  0  0  0  0
 20 18  1  0  0  0  0
 21 18  1  0  0  0  0
 21  7  1  0  0  0  0
 22 21  1  0  0  0  0
 23 21  1  0  0  0  0
 24  5  1  0  0  0  0
 24  1  1  0  0  0  0
 25 27  1  0  0  0  0
 26 25  1  0  0  0  0
 27 28  1  0  0  0  0
 27 30  1  0  0  0  0
 27 29  1  0  0  0  0
 30 32  1  0  0  0  0
 31 30  1  0  0  0  0
 33 34  1  0  0  0  0
 33 35  1  0  0  0  0
 33 30  1  0  0  0  0
 36 33  1  0  0  0  0
 37 36  1  0  0  0  0
 38 36  1  0  0  0  0
 39 41  1  0  0  0  0
 39 36  1  0  0  0  0
 39 25  1  0  0  0  0
 40 39  1  0  0  0  0
M  END
$$$$
