CSD_code = VIDGEV | q = 0 | S = 0 | Stoichiometry = C12H16BrCl3N2OZn | MND = 4
 OpenBabel04212202113D

 36 37  0  0  0  0  0  0  0  0999 V2000
   -0.4475    0.9386    3.4905 Zn  0  0  0  0  0  0  0  0  0  0  0  0
    2.4583    0.1961    7.0737 Br  0  0  0  0  0  0  0  0  0  0  0  0
    6.2700    3.2128    4.4369 Cl  0  0  0  0  0  0  0  0  0  0  0  0
   -2.1822    2.2171    3.9419 Cl  0  0  0  0  0  0  0  0  0  0  0  0
   -1.2572   -0.8056    2.2478 Cl  0  0  0  0  0  0  0  0  0  0  0  0
    0.9821    0.7588    4.6541 O   0  0  0  0  0  0  0  0  0  0  0  0
    0.5830    1.8822    1.9808 N   0  0  0  0  0  0  0  0  0  0  0  0
   -2.3351    1.3395    0.5689 N   0  0  0  0  0  4  0  0  0  0  0  0
   -1.9519    0.5238    1.1901 H   0  0  0  0  0  0  0  0  0  0  0  0
   -2.3155    0.9939   -0.3934 H   0  0  0  0  0  0  0  0  0  0  0  0
    2.5544    2.0859    3.3942 C   0  0  0  0  0  0  0  0  0  0  0  0
    2.1159    1.3321    4.5242 C   0  0  0  0  0  0  0  0  0  0  0  0
    3.0509    1.2062    5.5930 C   0  0  0  0  0  0  0  0  0  0  0  0
    4.2986    1.7640    5.5851 C   0  0  0  0  0  0  0  0  0  0  0  0
    4.9654    1.6380    6.4238 H   0  0  0  0  0  0  0  0  0  0  0  0
    4.6938    2.5022    4.4643 C   0  0  0  0  0  0  0  0  0  0  0  0
    3.8464    2.6565    3.4004 C   0  0  0  0  0  0  0  0  0  0  0  0
    4.1671    3.2258    2.5411 H   0  0  0  0  0  0  0  0  0  0  0  0
    1.7802    2.2867    2.2167 C   0  0  0  0  0  3  0  0  0  0  0  0
    2.3009    2.8419    1.4268 H   0  0  0  0  0  0  0  0  0  0  0  0
    0.0326    2.1268    0.6645 C   0  0  0  0  0  0  0  0  0  0  0  0
    0.1505    1.2064    0.0793 H   0  0  0  0  0  0  0  0  0  0  0  0
    0.6022    2.9216    0.1638 H   0  0  0  0  0  0  0  0  0  0  0  0
   -1.4498    2.5124    0.7098 C   0  0  0  0  0  0  0  0  0  0  0  0
   -1.6730    2.9738    1.6759 H   0  0  0  0  0  0  0  0  0  0  0  0
   -1.6643    3.2232   -0.0900 H   0  0  0  0  0  0  0  0  0  0  0  0
   -3.7521    1.5505    0.9799 C   0  0  0  0  0  0  0  0  0  0  0  0
   -3.7185    1.8890    2.0205 H   0  0  0  0  0  0  0  0  0  0  0  0
   -4.4589    0.2070    0.8936 C   0  0  0  0  0  0  0  0  0  0  0  0
   -4.5242   -0.1355   -0.1374 H   0  0  0  0  0  0  0  0  0  0  0  0
   -5.4660    0.2934    1.2884 H   0  0  0  0  0  0  0  0  0  0  0  0
   -3.9248   -0.5359    1.4789 H   0  0  0  0  0  0  0  0  0  0  0  0
   -4.4194    2.5956    0.0988 C   0  0  0  0  0  0  0  0  0  0  0  0
   -3.9730    3.5762    0.2326 H   0  0  0  0  0  0  0  0  0  0  0  0
   -5.4684    2.6723    0.3670 H   0  0  0  0  0  0  0  0  0  0  0  0
   -4.3605    2.3146   -0.9518 H   0  0  0  0  0  0  0  0  0  0  0  0
  1  4  1  0  0  0  0
  1  6  1  0  0  0  0
  3 16  1  0  0  0  0
  5  1  1  0  0  0  0
  7 19  1  0  0  0  0
  7  1  1  0  0  0  0
  8 24  1  0  0  0  0
  8 27  1  0  0  0  0
  8  9  1  0  0  0  0
 10  8  1  0  0  0  0
 11 17  2  0  0  0  0
 11 12  1  0  0  0  0
 12  6  1  0  0  0  0
 12 13  2  0  0  0  0
 13  2  1  0  0  0  0
 14 13  1  0  0  0  0
 14 15  1  0  0  0  0
 16 14  2  0  0  0  0
 17 16  1  0  0  0  0
 18 17  1  0  0  0  0
 19 11  1  0  0  0  0
 20 19  1  0  0  0  0
 21 24  1  0  0  0  0
 21  7  1  0  0  0  0
 22 21  1  0  0  0  0
 23 21  1  0  0  0  0
 24 25  1  0  0  0  0
 26 24  1  0  0  0  0
 27 28  1  0  0  0  0
 29 27  1  0  0  0  0
 29 31  1  0  0  0  0
 29 32  1  0  0  0  0
 30 29  1  0  0  0  0
 33 34  1  0  0  0  0
 33 35  1  0  0  0  0
 33 27  1  0  0  0  0
 36 33  1  0  0  0  0
M  END
$$$$
