CSD_code = VIDHIZ | q = 0 | S = 0 | Stoichiometry = C18H33ClN2O4PtS2 | MND = 4
 OpenBabel04212202113D

 61 63  0  0  1  0  0  0  0  0999 V2000
    8.3808    1.5137    1.8484 Pt  0  0  2  0  0  0  0  0  0  0  0  0
    7.4941   -0.4543    1.1064 Cl  0  0  0  0  0  0  0  0  0  0  0  0
    9.2417    3.5190    2.6416 S   0  0  0  0  0  0  0  0  0  0  0  0
    6.2986    2.1336    2.2486 S   0  0  0  0  0  0  0  0  0  0  0  0
   10.2384    0.8095    1.3431 O   0  0  0  0  0  0  0  0  0  0  0  0
   12.3130    0.9926    0.5460 O   0  0  0  0  0  0  0  0  0  0  0  0
    6.0828    3.4422    2.8293 O   0  0  0  0  0  1  0  0  0  0  0  0
   11.6981    2.4948    2.0098 N   0  0  0  0  0  0  0  0  0  0  0  0
   11.6208    4.0975    3.5908 N   0  0  0  0  0  0  0  0  0  0  0  0
   10.9563    3.3064    2.7363 C   0  0  1  0  0  3  0  0  0  0  0  0
   11.3268    1.4423    1.3108 C   0  0  0  0  0  0  0  0  0  0  0  0
   11.0311    5.1888    4.3312 C   0  0  0  0  0  0  0  0  0  0  0  0
   11.3442    5.1018    5.3772 H   0  0  0  0  0  0  0  0  0  0  0  0
    9.9450    5.1463    4.2690 H   0  0  0  0  0  0  0  0  0  0  0  0
   11.5531    6.5122    3.7572 C   0  0  0  0  0  0  0  0  0  0  0  0
   11.2042    6.6177    2.7192 H   0  0  0  0  0  0  0  0  0  0  0  0
   11.1965    7.3566    4.3482 H   0  0  0  0  0  0  0  0  0  0  0  0
   12.9604    6.5607    3.8054 O   0  0  0  0  0  0  0  0  0  0  0  0
   13.5338    5.4967    3.0809 C   0  0  0  0  0  0  0  0  0  0  0  0
   14.6143    5.6036    3.1851 H   0  0  0  0  0  0  0  0  0  0  0  0
   13.2590    5.5707    2.0183 H   0  0  0  0  0  0  0  0  0  0  0  0
   13.0687    4.1383    3.6214 C   0  0  0  0  0  0  0  0  0  0  0  0
   13.4557    3.3264    3.0090 H   0  0  0  0  0  0  0  0  0  0  0  0
   13.3966    4.0235    4.6593 H   0  0  0  0  0  0  0  0  0  0  0  0
    5.4067    0.9298    3.2736 C   0  0  0  0  0  0  0  0  0  0  0  0
    5.8766    0.9147    4.2514 H   0  0  0  0  0  0  0  0  0  0  0  0
    5.4890   -0.0395    2.7955 H   0  0  0  0  0  0  0  0  0  0  0  0
    4.3767    1.2555    3.3605 H   0  0  0  0  0  0  0  0  0  0  0  0
    5.2981    2.0339    0.7368 C   0  0  0  0  0  0  0  0  0  0  0  0
    4.2755    2.2937    0.9846 H   0  0  0  0  0  0  0  0  0  0  0  0
    5.3794    1.0236    0.3521 H   0  0  0  0  0  0  0  0  0  0  0  0
    5.7012    2.7476    0.0256 H   0  0  0  0  0  0  0  0  0  0  0  0
   12.1147   -0.2201   -0.2011 C   0  0  1  0  0  0  0  0  0  0  0  0
   11.0552   -0.4911   -0.1662 H   0  0  0  0  0  0  0  0  0  0  0  0
   12.5259    0.0607   -1.6448 C   0  0  0  0  0  0  0  0  0  0  0  0
   13.5679    0.3867   -1.6546 H   0  0  0  0  0  0  0  0  0  0  0  0
   11.9157    0.8768   -2.0367 H   0  0  0  0  0  0  0  0  0  0  0  0
   12.3600   -1.1868   -2.5114 C   0  0  2  0  0  0  0  0  0  0  0  0
   11.3033   -1.4762   -2.5033 H   0  0  0  0  0  0  0  0  0  0  0  0
   13.1796   -2.3289   -1.9125 C   0  0  0  0  0  0  0  0  0  0  0  0
   14.2401   -2.0687   -1.9480 H   0  0  0  0  0  0  0  0  0  0  0  0
   13.0378   -3.2337   -2.5073 H   0  0  0  0  0  0  0  0  0  0  0  0
   12.7651   -2.5959   -0.4687 C   0  0  0  0  0  0  0  0  0  0  0  0
   13.3563   -3.4201   -0.0686 H   0  0  0  0  0  0  0  0  0  0  0  0
   11.7145   -2.8885   -0.4501 H   0  0  0  0  0  0  0  0  0  0  0  0
   12.9642   -1.3509    0.3982 C   0  0  2  0  0  0  0  0  0  0  0  0
   14.0113   -1.0349    0.3193 H   0  0  0  0  0  0  0  0  0  0  0  0
   12.6763   -1.5769    1.8969 C   0  0  0  0  0  0  0  0  0  0  0  0
   12.7149   -0.5918    2.3776 H   0  0  0  0  0  0  0  0  0  0  0  0
   13.7699   -2.4355    2.5337 C   0  0  0  0  0  0  0  0  0  0  0  0
   13.6248   -2.4854    3.6104 H   0  0  0  0  0  0  0  0  0  0  0  0
   14.7547   -2.0150    2.3414 H   0  0  0  0  0  0  0  0  0  0  0  0
   13.7445   -3.4503    2.1445 H   0  0  0  0  0  0  0  0  0  0  0  0
   11.3055   -2.1876    2.1811 C   0  0  0  0  0  0  0  0  0  0  0  0
   11.2310   -3.1923    1.7731 H   0  0  0  0  0  0  0  0  0  0  0  0
   10.5050   -1.5796    1.7686 H   0  0  0  0  0  0  0  0  0  0  0  0
   11.1525   -2.2494    3.2567 H   0  0  0  0  0  0  0  0  0  0  0  0
   12.7777   -0.9027   -3.9512 C   0  0  0  0  0  0  0  0  0  0  0  0
   12.1792   -0.0985   -4.3723 H   0  0  0  0  0  0  0  0  0  0  0  0
   12.6451   -1.7886   -4.5679 H   0  0  0  0  0  0  0  0  0  0  0  0
   13.8245   -0.6093   -3.9926 H   0  0  0  0  0  0  0  0  0  0  0  0
  1  2  1  1  0  0  0
  1  4  1  0  0  0  0
  1  3  1  0  0  0  0
  3 10  1  0  0  0  0
  4  7  1  0  0  0  0
  4 25  1  0  0  0  0
  5  1  1  0  0  0  0
  6 11  1  0  0  0  0
  8 10  1  0  0  0  0
  9 22  1  0  0  0  0
  9 12  1  0  0  0  0
 10  9  1  6  0  0  0
 11  5  1  0  0  0  0
 11  8  2  0  0  0  0
 12 13  1  0  0  0  0
 14 12  1  0  0  0  0
 15 18  1  0  0  0  0
 15 12  1  0  0  0  0
 15 17  1  0  0  0  0
 16 15  1  0  0  0  0
 19 20  1  0  0  0  0
 19 22  1  0  0  0  0
 19 18  1  0  0  0  0
 21 19  1  0  0  0  0
 22 24  1  0  0  0  0
 23 22  1  0  0  0  0
 25 28  1  0  0  0  0
 25 26  1  0  0  0  0
 27 25  1  0  0  0  0
 29 30  1  0  0  0  0
 29  4  1  0  0  0  0
 31 29  1  0  0  0  0
 32 29  1  0  0  0  0
 33 34  1  1  0  0  0
 33 46  1  0  0  0  0
 33  6  1  0  0  0  0
 35 33  1  0  0  0  0
 36 35  1  0  0  0  0
 37 35  1  0  0  0  0
 38 39  1  1  0  0  0
 38 40  1  0  0  0  0
 38 35  1  0  0  0  0
 40 43  1  0  0  0  0
 41 40  1  0  0  0  0
 42 40  1  0  0  0  0
 43 45  1  0  0  0  0
 43 44  1  0  0  0  0
 43 46  1  0  0  0  0
 46 47  1  6  0  0  0
 46 48  1  0  0  0  0
 48 54  1  0  0  0  0
 48 49  1  0  0  0  0
 48 50  1  0  0  0  0
 50 51  1  0  0  0  0
 52 50  1  0  0  0  0
 53 50  1  0  0  0  0
 54 57  1  0  0  0  0
 55 54  1  0  0  0  0
 56 54  1  0  0  0  0
 58 38  1  0  0  0  0
 59 58  1  0  0  0  0
 60 58  1  0  0  0  0
 61 58  1  0  0  0  0
M  END
$$$$
