CSD_code = VIDROP | q = 0 | S = 0 | Stoichiometry = C10H8F2N2O2W | MND = 6
 OpenBabel04212202113D

 25 27  0  0  0  0  0  0  0  0999 V2000
    1.5708    5.0269    2.5367 W   0  0  0  0  0  0  0  0  0  0  0  0
    0.7343    3.2518    2.6080 F   0  0  0  0  0  0  0  0  0  0  0  0
    1.1452    6.9006    2.9390 F   0  0  0  0  0  0  0  0  0  0  0  0
    2.9060    4.7835    3.5485 O   0  0  0  0  0  1  0  0  0  0  0  0
    1.9352    5.1361    0.8871 O   0  0  0  0  0  1  0  0  0  0  0  0
    0.1518    5.0081    4.4375 N   0  0  0  0  0  0  0  0  0  0  0  0
   -0.7254    5.3336    2.0288 N   0  0  0  0  0  0  0  0  0  0  0  0
   -1.1792    5.1439    4.3467 C   0  0  0  0  0  0  0  0  0  0  0  0
   -1.9908    5.0833    5.4775 C   0  0  0  0  0  0  0  0  0  0  0  0
   -1.4007    4.8775    6.7149 C   0  0  0  0  0  0  0  0  0  0  0  0
   -0.0238    4.7390    6.7927 C   0  0  0  0  0  0  0  0  0  0  0  0
    0.7162    4.8119    5.6196 C   0  0  0  0  0  0  0  0  0  0  0  0
   -1.6783    5.3525    2.9721 C   0  0  0  0  0  0  0  0  0  0  0  0
   -3.0170    5.5553    2.6435 C   0  0  0  0  0  0  0  0  0  0  0  0
   -3.3594    5.7371    1.3126 C   0  0  0  0  0  0  0  0  0  0  0  0
   -2.3635    5.7130    0.3488 C   0  0  0  0  0  0  0  0  0  0  0  0
   -1.0519    5.5080    0.7570 C   0  0  0  0  0  0  0  0  0  0  0  0
   -3.0605    5.1907    5.4009 H   0  0  0  0  0  0  0  0  0  0  0  0
   -2.0121    4.8257    7.6034 H   0  0  0  0  0  0  0  0  0  0  0  0
    0.4674    4.5770    7.7384 H   0  0  0  0  0  0  0  0  0  0  0  0
    1.7975    4.7127    5.5954 H   0  0  0  0  0  0  0  0  0  0  0  0
   -3.7798    5.5738    3.4048 H   0  0  0  0  0  0  0  0  0  0  0  0
   -4.3910    5.8951    1.0361 H   0  0  0  0  0  0  0  0  0  0  0  0
   -2.5949    5.8504   -0.6950 H   0  0  0  0  0  0  0  0  0  0  0  0
   -0.2151    5.4773    0.0653 H   0  0  0  0  0  0  0  0  0  0  0  0
  1  2  1  0  0  0  0
  1  3  1  0  0  0  0
  1  4  1  0  0  0  0
  1  6  1  0  0  0  0
  5  1  1  0  0  0  0
  6 12  1  0  0  0  0
  7  1  1  0  0  0  0
  7 13  1  0  0  0  0
  8  6  1  0  0  0  0
  8  9  1  0  0  0  0
  9 10  2  0  0  0  0
 10 11  1  0  0  0  0
 10 19  1  0  0  0  0
 11 20  1  0  0  0  0
 12 11  2  0  0  0  0
 13  8  2  0  0  0  0
 14 13  1  0  0  0  0
 14 22  1  0  0  0  0
 15 14  2  0  0  0  0
 16 17  2  0  0  0  0
 16 15  1  0  0  0  0
 17  7  1  0  0  0  0
 18  9  1  0  0  0  0
 21 12  1  0  0  0  0
 23 15  1  0  0  0  0
 24 16  1  0  0  0  0
 25 17  1  0  0  0  0
M  END
$$$$
