CSD_code = VIDROQ | q = 0 | S = 0 | Stoichiometry = C9H17AuClN | MND = 2
 OpenBabel04212202113D

 29 28  0  0  0  0  0  0  0  0999 V2000
   20.3079    0.0100    1.7466 Au  0  0  0  0  0  0  0  0  0  0  0  0
   22.2260   -0.9995    1.3197 Cl  0  0  0  0  0  0  0  0  0  0  0  0
   17.7163    1.4787    2.2782 N   0  0  0  0  0  2  0  0  0  0  0  0
   18.6917    0.8833    2.0906 C   0  0  0  0  0  0  0  0  0  0  0  0
   16.4942    2.1411    2.4919 C   0  0  0  0  0  0  0  0  0  0  0  0
   15.3872    1.0975    2.2677 C   0  0  0  0  0  0  0  0  0  0  0  0
   15.3867    0.7506    1.2371 H   0  0  0  0  0  0  0  0  0  0  0  0
   14.4186    1.5368    2.4899 H   0  0  0  0  0  0  0  0  0  0  0  0
   15.5375    0.2397    2.9195 H   0  0  0  0  0  0  0  0  0  0  0  0
   16.4583    2.6108    3.9471 C   0  0  0  0  0  0  0  0  0  0  0  0
   16.4108    1.7496    4.6109 H   0  0  0  0  0  0  0  0  0  0  0  0
   15.5787    3.2260    4.1118 H   0  0  0  0  0  0  0  0  0  0  0  0
   17.3469    3.1809    4.2004 H   0  0  0  0  0  0  0  0  0  0  0  0
   16.3292    3.2518    1.4314 C   0  0  0  0  0  0  0  0  0  0  0  0
   15.2854    3.5704    1.4739 H   0  0  0  0  0  0  0  0  0  0  0  0
   16.4782    2.7655    0.4632 H   0  0  0  0  0  0  0  0  0  0  0  0
   17.2052    4.5255    1.4450 C   0  0  0  0  0  0  0  0  0  0  0  0
   18.6913    4.2215    1.6380 C   0  0  0  0  0  0  0  0  0  0  0  0
   19.2668    5.1377    1.5270 H   0  0  0  0  0  0  0  0  0  0  0  0
   19.0437    3.5099    0.8945 H   0  0  0  0  0  0  0  0  0  0  0  0
   18.8997    3.8172    2.6250 H   0  0  0  0  0  0  0  0  0  0  0  0
   17.0230    5.1788    0.0669 C   0  0  0  0  0  0  0  0  0  0  0  0
   17.5760    6.1131    0.0159 H   0  0  0  0  0  0  0  0  0  0  0  0
   15.9736    5.3940   -0.1224 H   0  0  0  0  0  0  0  0  0  0  0  0
   17.3892    4.5270   -0.7231 H   0  0  0  0  0  0  0  0  0  0  0  0
   16.7392    5.5324    2.5012 C   0  0  0  0  0  0  0  0  0  0  0  0
   16.9519    5.1981    3.5107 H   0  0  0  0  0  0  0  0  0  0  0  0
   15.6702    5.7149    2.4138 H   0  0  0  0  0  0  0  0  0  0  0  0
   17.2538    6.4791    2.3536 H   0  0  0  0  0  0  0  0  0  0  0  0
  1  4  3  0  0  0  0
  2  1  1  0  0  0  0
  3  5  1  0  0  0  0
  4  3  1  0  0  0  0
  5 10  1  0  0  0  0
  6  8  1  0  0  0  0
  6  5  1  0  0  0  0
  6  9  1  0  0  0  0
  7  6  1  0  0  0  0
 10 12  1  0  0  0  0
 10 13  1  0  0  0  0
 10 11  1  0  0  0  0
 14 17  1  0  0  0  0
 14 15  1  0  0  0  0
 14  5  1  0  0  0  0
 16 14  1  0  0  0  0
 17 18  1  0  0  0  0
 17 26  1  0  0  0  0
 18 21  1  0  0  0  0
 19 18  1  0  0  0  0
 20 18  1  0  0  0  0
 22 17  1  0  0  0  0
 23 22  1  0  0  0  0
 24 22  1  0  0  0  0
 25 22  1  0  0  0  0
 26 27  1  0  0  0  0
 28 26  1  0  0  0  0
 29 26  1  0  0  0  0
M  END
$$$$
