CSD_code = VIDTUY | q = 0 | S = 0 | Stoichiometry = C18H24BFN7OPW | MND = 7
 OpenBabel04212202113D

 54 58  0  0  1  0  0  0  0  0999 V2000
    1.9027   11.6747    2.0567 W   0  0  0  0  0  0  0  0  0  0  0  0
    0.3073   12.7380    3.7374 P   0  0  0  0  0  0  0  0  0  0  0  0
    1.4620   10.3143    3.5947 F   0  0  0  0  0  0  0  0  0  0  0  0
    4.1468   13.0698    3.4135 O   0  0  0  0  0  1  0  0  0  0  0  0
    3.1548    9.9185    1.6946 N   0  0  0  0  0  0  0  0  0  0  0  0
    2.9965    9.0861    0.6630 N   0  0  2  0  0  0  0  0  0  0  0  0
    0.4087   10.4971    1.0581 N   0  0  0  0  0  0  0  0  0  0  0  0
    0.6861    9.6761    0.0392 N   0  0  2  0  0  0  0  0  0  0  0  0
    2.8278   11.8669    0.0484 N   0  0  0  0  0  0  0  0  0  0  0  0
    2.6499   10.9222   -0.8855 N   0  0  1  0  0  0  0  0  0  0  0  0
    3.2221   12.5227    2.8655 N   0  0  0  0  0  2  0  0  0  0  0  0
    1.1122   13.5029    1.1074 C   0  0  0  0  0  0  0  0  0  0  0  0
    0.0872   13.4823    0.1530 C   0  0  0  0  0  0  0  0  0  0  0  0
   -0.3961   12.5448   -0.1073 H   0  0  0  0  0  0  0  0  0  0  0  0
   -0.3553   14.6228   -0.4996 C   0  0  0  0  0  0  0  0  0  0  0  0
   -1.1483   14.5509   -1.2321 H   0  0  0  0  0  0  0  0  0  0  0  0
    0.2136   15.8512   -0.2170 C   0  0  0  0  0  0  0  0  0  0  0  0
   -0.1303   16.7436   -0.7201 H   0  0  0  0  0  0  0  0  0  0  0  0
    1.2334   15.9174    0.7164 C   0  0  0  0  0  0  0  0  0  0  0  0
    1.6940   16.8690    0.9448 H   0  0  0  0  0  0  0  0  0  0  0  0
    1.6656   14.7669    1.3568 C   0  0  0  0  0  0  0  0  0  0  0  0
    2.4780   14.8533    2.0700 H   0  0  0  0  0  0  0  0  0  0  0  0
    3.7274    7.9791    0.8573 C   0  0  0  0  0  3  0  0  0  0  0  0
    3.7404    7.1871    0.1358 H   0  0  0  0  0  0  0  0  0  0  0  0
    4.3767    8.1015    2.0688 C   0  0  0  0  0  0  0  0  0  0  0  0
    5.0374    7.3971    2.5302 H   0  0  0  0  0  0  0  0  0  0  0  0
    3.9801    9.3463    2.5579 C   0  0  0  0  0  0  0  0  0  0  0  0
    4.2448    9.8428    3.4741 H   0  0  0  0  0  0  0  0  0  0  0  0
   -0.4093    8.9773   -0.2983 C   0  0  0  0  0  3  0  0  0  0  0  0
   -0.3895    8.2634   -1.0963 H   0  0  0  0  0  0  0  0  0  0  0  0
   -1.4390    9.3604    0.5346 C   0  0  0  0  0  0  0  0  0  0  0  0
   -2.4476    9.0020    0.5394 H   0  0  0  0  0  0  0  0  0  0  0  0
   -0.8679   10.3177    1.3723 C   0  0  0  0  0  0  0  0  0  0  0  0
   -1.3240   10.8797    2.1679 H   0  0  0  0  0  0  0  0  0  0  0  0
    3.2245   11.3054   -2.0342 C   0  0  0  0  0  3  0  0  0  0  0  0
    3.1953   10.6820   -2.9047 H   0  0  0  0  0  0  0  0  0  0  0  0
    3.7949   12.5461   -1.8405 C   0  0  0  0  0  0  0  0  0  0  0  0
    4.3309   13.1392   -2.5518 H   0  0  0  0  0  0  0  0  0  0  0  0
    3.5214   12.8534   -0.5101 C   0  0  0  0  0  0  0  0  0  0  0  0
    3.7919   13.7271    0.0519 H   0  0  0  0  0  0  0  0  0  0  0  0
   -1.1262   13.8102    3.2817 C   0  0  0  0  0  0  0  0  0  0  0  0
   -1.6255   14.1618    4.1831 H   0  0  0  0  0  0  0  0  0  0  0  0
   -1.8377   13.2570    2.6722 H   0  0  0  0  0  0  0  0  0  0  0  0
   -0.7755   14.6631    2.7068 H   0  0  0  0  0  0  0  0  0  0  0  0
    1.2210   13.8964    4.8259 C   0  0  0  0  0  0  0  0  0  0  0  0
    0.5769   14.2636    5.6243 H   0  0  0  0  0  0  0  0  0  0  0  0
    1.5901   14.7326    4.2374 H   0  0  0  0  0  0  0  0  0  0  0  0
    2.0734   13.3674    5.2503 H   0  0  0  0  0  0  0  0  0  0  0  0
   -0.4767   11.6903    5.0297 C   0  0  0  0  0  0  0  0  0  0  0  0
    0.3144   11.1782    5.5727 H   0  0  0  0  0  0  0  0  0  0  0  0
   -1.1127   10.9341    4.5752 H   0  0  0  0  0  0  0  0  0  0  0  0
   -1.0628   12.3066    5.7104 H   0  0  0  0  0  0  0  0  0  0  0  0
    2.1109    9.5329   -0.5078 B   0  0  1  0  0  0  0  0  0  0  0  0
    2.1509    8.7806   -1.4178 H   0  0  0  0  0  0  0  0  0  0  0  0
  1 11  1  0  0  0  0
  1  3  1  0  0  0  0
  2 45  1  0  0  0  0
  2 49  1  0  0  0  0
  5  1  1  0  0  0  0
  5 27  1  0  0  0  0
  6 23  1  6  0  0  0
  6  5  1  0  0  0  0
  7 33  1  0  0  0  0
  7  1  1  0  0  0  0
  8 29  1  1  0  0  0
  8  7  1  0  0  0  0
  9  1  1  0  0  0  0
 10 35  1  1  0  0  0
 10 53  1  0  0  0  0
 10  9  1  0  0  0  0
 11  4  1  0  0  0  0
 12 21  1  0  0  0  0
 12  1  1  0  0  0  0
 13 12  2  0  0  0  0
 14 13  1  0  0  0  0
 15 17  2  0  0  0  0
 15 13  1  0  0  0  0
 16 15  1  0  0  0  0
 17 19  1  0  0  0  0
 18 17  1  0  0  0  0
 19 20  1  0  0  0  0
 19 21  2  0  0  0  0
 21 22  1  0  0  0  0
 23 25  1  0  0  0  0
 24 23  1  0  0  0  0
 25 26  1  0  0  0  0
 25 27  2  0  0  0  0
 27 28  1  0  0  0  0
 29 31  1  0  0  0  0
 30 29  1  0  0  0  0
 31 32  1  0  0  0  0
 31 33  2  0  0  0  0
 33 34  1  0  0  0  0
 35 37  1  0  0  0  0
 36 35  1  0  0  0  0
 37 39  2  0  0  0  0
 38 37  1  0  0  0  0
 39  9  1  0  0  0  0
 39 40  1  0  0  0  0
 41  2  1  0  0  0  0
 41 42  1  0  0  0  0
 43 41  1  0  0  0  0
 44 41  1  0  0  0  0
 45 48  1  0  0  0  0
 45 46  1  0  0  0  0
 47 45  1  0  0  0  0
 49 50  1  0  0  0  0
 49 52  1  0  0  0  0
 51 49  1  0  0  0  0
 53 54  1  6  0  0  0
 53  8  1  0  0  0  0
 53  6  1  0  0  0  0
M  END
$$$$
