CSD_code = VIDZEO | q = 0 | S = 0 | Stoichiometry = C12H16BClMoN6O2S3 | MND = 6
 OpenBabel04212202113D

 42 46  0  0  1  0  0  0  0  0999 V2000
   14.9094    6.2919   11.9671 C   0  0  0  0  0  0  0  0  0  0  0  0
   15.3165    5.2733   12.0409 H   0  0  0  0  0  0  0  0  0  0  0  0
   15.5494    6.9844   12.5075 H   0  0  0  0  0  0  0  0  0  0  0  0
   14.8637    6.5660   10.9124 H   0  0  0  0  0  0  0  0  0  0  0  0
    9.3531    5.5358   13.4124 H   0  0  0  0  0  0  0  0  0  0  0  0
   13.7997    2.2586   12.1278 Mo  0  0  0  0  0  0  0  0  0  0  0  0
   12.7927    4.3478   10.9008 S   0  0  0  0  0  0  0  0  0  0  0  0
   14.0661    0.4678   13.4574 Cl  0  0  0  0  0  0  0  0  0  0  0  0
   11.1528    1.5670   12.4945 S   0  0  0  0  0  0  0  0  0  0  0  0
   13.2313    3.5912   14.4183 S   0  0  0  0  0  0  0  0  0  0  0  0
   13.5932    1.5853   10.6411 O   0  0  0  0  0  1  0  0  0  0  0  0
   10.4791    3.8666   14.3839 N   0  0  0  0  0  0  0  0  0  0  0  0
   11.2780    2.3978   15.8008 N   0  0  0  0  0  0  0  0  0  0  0  0
   11.6045    3.2831   14.8381 C   0  0  2  0  0  3  0  0  0  0  0  0
   15.1946    3.1062   12.3448 O   0  0  0  0  0  1  0  0  0  0  0  0
   10.3990    2.7686   11.5548 C   0  0  1  0  0  3  0  0  0  0  0  0
   10.0666    2.5516   10.2669 N   0  0  0  0  0  0  0  0  0  0  0  0
    9.9746    3.9964   11.9152 N   0  0  0  0  0  0  0  0  0  0  0  0
   11.5490    5.6646   12.9907 N   0  0  0  0  0  0  0  0  0  0  0  0
    9.9194    2.3957   15.9391 C   0  0  0  0  0  0  0  0  0  0  0  0
    9.4189    1.7571   16.6367 H   0  0  0  0  0  0  0  0  0  0  0  0
   13.5939    6.3113   12.5421 N   0  0  0  0  0  0  0  0  0  0  0  0
   12.6179    5.4480   12.2077 C   0  0  2  0  0  3  0  0  0  0  0  0
    9.4404    3.6684    9.7920 C   0  0  0  0  0  0  0  0  0  0  0  0
    9.0937    3.7402    8.7823 H   0  0  0  0  0  0  0  0  0  0  0  0
   11.8792    6.6784   13.8474 C   0  0  0  0  0  0  0  0  0  0  0  0
   11.1871    7.0243   14.5858 H   0  0  0  0  0  0  0  0  0  0  0  0
    9.4307    3.3039   15.0625 C   0  0  0  0  0  0  0  0  0  0  0  0
    8.4226    3.5969   14.8592 H   0  0  0  0  0  0  0  0  0  0  0  0
   10.4658    1.3891    9.5251 C   0  0  0  0  0  0  0  0  0  0  0  0
   11.5554    1.2777    9.5920 H   0  0  0  0  0  0  0  0  0  0  0  0
   10.1707    1.5060    8.4858 H   0  0  0  0  0  0  0  0  0  0  0  0
   10.0038    0.4958    9.9483 H   0  0  0  0  0  0  0  0  0  0  0  0
    9.3824    4.5551   10.8124 C   0  0  0  0  0  0  0  0  0  0  0  0
    8.9740    5.5426   10.8482 H   0  0  0  0  0  0  0  0  0  0  0  0
   13.1451    7.0803   13.5752 C   0  0  0  0  0  0  0  0  0  0  0  0
   13.7511    7.8360   14.0300 H   0  0  0  0  0  0  0  0  0  0  0  0
   12.2233    1.5548   16.4769 C   0  0  0  0  0  0  0  0  0  0  0  0
   12.7461    0.9269   15.7481 H   0  0  0  0  0  0  0  0  0  0  0  0
   11.6970    0.9279   17.1919 H   0  0  0  0  0  0  0  0  0  0  0  0
   12.9642    2.1678   16.9922 H   0  0  0  0  0  0  0  0  0  0  0  0
   10.2673    4.8139   13.1862 B   0  0  2  0  0  0  0  0  0  0  0  0
  1  2  1  0  0  0  0
  1  3  1  0  0  0  0
  1 22  1  0  0  0  0
  4  1  1  0  0  0  0
  6 15  1  0  0  0  0
  6  9  1  0  0  0  0
  6  8  1  0  0  0  0
  6 10  1  0  0  0  0
  7  6  1  0  0  0  0
 11  6  1  0  0  0  0
 12 14  1  0  0  0  0
 12 28  1  0  0  0  0
 13 20  1  0  0  0  0
 13 38  1  0  0  0  0
 14 10  1  1  0  0  0
 14 13  1  0  0  0  0
 16 18  1  0  0  0  0
 16  9  1  1  0  0  0
 17 16  1  0  0  0  0
 18 42  1  0  0  0  0
 19 42  1  0  0  0  0
 19 26  1  0  0  0  0
 20 21  1  0  0  0  0
 22 36  1  0  0  0  0
 23  7  1  6  0  0  0
 23 22  1  0  0  0  0
 23 19  1  0  0  0  0
 24 17  1  0  0  0  0
 24 34  2  0  0  0  0
 25 24  1  0  0  0  0
 26 27  1  0  0  0  0
 28 20  2  0  0  0  0
 29 28  1  0  0  0  0
 30 31  1  0  0  0  0
 30 33  1  0  0  0  0
 30 17  1  0  0  0  0
 32 30  1  0  0  0  0
 34 35  1  0  0  0  0
 34 18  1  0  0  0  0
 36 26  2  0  0  0  0
 36 37  1  0  0  0  0
 38 41  1  0  0  0  0
 38 40  1  0  0  0  0
 39 38  1  0  0  0  0
 42  5  1  1  0  0  0
 42 12  1  0  0  0  0
M  END
$$$$
