CSD_code = VIFLEC | q = 0 | S = 0 | Stoichiometry = C18H10Cl2N4Pd | MND = 4
 OpenBabel04212202113D

 35 38  0  0  1  0  0  0  0  0999 V2000
   -1.3775    5.8759   12.0724 Pd  0  0  0  0  0  0  0  0  0  0  0  0
   -2.3600    4.7019   10.3781 Cl  0  0  0  0  0  0  0  0  0  0  0  0
   -0.3822    7.0588   13.7534 Cl  0  0  0  0  0  0  0  0  0  0  0  0
   -2.6836    7.2577   11.8740 N   0  0  0  0  0  0  0  0  0  0  0  0
   -0.1756    4.4223   12.3843 N   0  0  0  0  0  0  0  0  0  0  0  0
   -4.5730    9.2582   11.5951 N   0  0  0  0  0  0  0  0  0  0  0  0
    1.5632    2.3203   12.8404 N   0  0  0  0  0  0  0  0  0  0  0  0
   -3.8228    7.2245   12.5638 C   0  0  0  0  0  3  0  0  0  0  0  0
   -3.9725    6.3797   13.2363 H   0  0  0  0  0  0  0  0  0  0  0  0
   -4.7632    8.2318   12.4166 C   0  0  0  0  0  0  0  0  0  0  0  0
   -5.6927    8.2231   12.9664 H   0  0  0  0  0  0  0  0  0  0  0  0
   -3.4496    9.2925   10.9137 C   0  0  0  0  0  0  0  0  0  0  0  0
   -3.3012   10.1304   10.2473 H   0  0  0  0  0  0  0  0  0  0  0  0
   -2.4760    8.2901   11.0372 C   0  0  0  0  0  0  0  0  0  0  0  0
   -1.2609    8.2857   10.3280 C   0  0  0  0  0  0  0  0  0  0  0  0
   -0.2308    8.3337    9.6895 C   0  0  0  0  0  0  0  0  0  0  0  0
    0.9749    8.3498    8.9699 C   0  0  0  0  0  0  0  0  0  0  0  0
    1.2720    9.3787    8.0756 C   0  0  0  0  0  0  0  0  0  0  0  0
    0.5587   10.1770    7.9362 H   0  0  0  0  0  0  0  0  0  0  0  0
    2.4655    9.3688    7.3811 C   0  0  0  0  0  0  0  0  0  0  0  0
    2.6903   10.1672    6.6903 H   0  0  0  0  0  0  0  0  0  0  0  0
    3.3786    8.3369    7.5666 C   0  0  0  0  0  0  0  0  0  0  0  0
    4.3090    8.3380    7.0192 H   0  0  0  0  0  0  0  0  0  0  0  0
    3.1026    7.3098    8.4474 C   0  0  0  0  0  0  0  0  0  0  0  0
    3.8074    6.5055    8.5960 H   0  0  0  0  0  0  0  0  0  0  0  0
    1.9020    7.3019    9.1582 C   0  0  0  0  0  0  0  0  0  0  0  0
    1.5945    6.2705   10.0600 C   0  0  0  0  0  0  0  0  0  0  0  0
    1.2921    5.3983   10.8469 C   0  0  0  0  0  0  0  0  0  0  0  0
    1.0055    4.3536   11.7445 C   0  0  2  0  0  3  0  0  0  0  0  0
    1.8702    3.2773   11.9932 C   0  0  0  0  0  0  0  0  0  0  0  0
    2.8237    3.2043   11.4896 H   0  0  0  0  0  0  0  0  0  0  0  0
    0.3930    2.4026   13.4637 C   0  0  0  0  0  0  0  0  0  0  0  0
    0.1607    1.6060   14.1550 H   0  0  0  0  0  0  0  0  0  0  0  0
   -0.4852    3.4516   13.2425 C   0  0  0  0  0  0  0  0  0  0  0  0
   -1.4467    3.5252   13.7508 H   0  0  0  0  0  0  0  0  0  0  0  0
  1  5  1  0  0  0  0
  1  3  1  0  0  0  0
  2  1  1  0  0  0  0
  4  1  1  0  0  0  0
  4  8  1  0  0  0  0
  5 34  1  0  0  0  0
  6 10  2  0  0  0  0
  7 32  1  0  0  0  0
  8  9  1  0  0  0  0
 10  8  1  0  0  0  0
 10 11  1  0  0  0  0
 12 14  2  0  0  0  0
 12  6  1  0  0  0  0
 13 12  1  0  0  0  0
 14  4  1  0  0  0  0
 15 14  1  0  0  0  0
 16 15  3  0  0  0  0
 17 26  1  0  0  0  0
 17 16  1  0  0  0  0
 18 17  2  0  0  0  0
 19 18  1  0  0  0  0
 20 22  2  0  0  0  0
 20 18  1  0  0  0  0
 21 20  1  0  0  0  0
 22 24  1  0  0  0  0
 23 22  1  0  0  0  0
 24 25  1  0  0  0  0
 24 26  2  0  0  0  0
 26 27  1  0  0  0  0
 27 28  3  0  0  0  0
 29 28  1  6  0  0  0
 29 30  1  0  0  0  0
 29  5  1  0  0  0  0
 30  7  2  0  0  0  0
 31 30  1  0  0  0  0
 32 33  1  0  0  0  0
 34 32  2  0  0  0  0
 34 35  1  0  0  0  0
M  END
$$$$
