CSD_code = VIFNIJ | q = 0 | S = 0 | Stoichiometry = C20H14Cl2N4Zn | MND = 4
 OpenBabel04212202113D

 41 46  0  0  1  0  0  0  0  0999 V2000
    2.3076    8.3983    1.3459 Zn  0  0  0  0  0  0  0  0  0  0  0  0
    2.5365    9.9739    2.8489 Cl  0  0  0  0  0  0  0  0  0  0  0  0
    1.0279    8.3091   -0.4599 Cl  0  0  0  0  0  0  0  0  0  0  0  0
    2.0721    6.5459    2.2501 N   0  0  0  0  0  0  0  0  0  0  0  0
    1.7081    4.3679    2.2951 N   0  0  0  0  0  0  0  0  0  0  0  0
    1.6012    3.4235    1.9626 H   0  0  0  0  0  0  0  0  0  0  0  0
    4.1573    7.7102    0.7086 N   0  0  0  0  0  0  0  0  0  0  0  0
    5.5319    6.5018   -0.5276 N   0  0  0  0  0  0  0  0  0  0  0  0
    5.8444    5.7902   -1.1677 H   0  0  0  0  0  0  0  0  0  0  0  0
    1.8284    6.1836    3.5512 C   0  0  0  0  0  0  0  0  0  0  0  0
    1.7900    6.9517    4.7098 C   0  0  0  0  0  0  0  0  0  0  0  0
    1.9719    8.0136    4.6669 H   0  0  0  0  0  0  0  0  0  0  0  0
    1.5128    6.2917    5.8882 C   0  0  0  0  0  0  0  0  0  0  0  0
    1.4713    6.8511    6.8101 H   0  0  0  0  0  0  0  0  0  0  0  0
    1.2811    4.9135    5.9268 C   0  0  0  0  0  0  0  0  0  0  0  0
    1.0651    4.4446    6.8749 H   0  0  0  0  0  0  0  0  0  0  0  0
    1.3195    4.1373    4.7858 C   0  0  0  0  0  0  0  0  0  0  0  0
    1.1397    3.0735    4.8163 H   0  0  0  0  0  0  0  0  0  0  0  0
    1.5960    4.7933    3.5963 C   0  0  0  0  0  0  0  0  0  0  0  0
    2.0004    5.4545    1.5269 C   0  0  1  0  0  3  0  0  0  0  0  0
    2.1184    5.3428    0.0763 C   0  0  0  0  0  0  0  0  0  0  0  0
    1.1379    4.5930   -0.5744 C   0  0  0  0  0  0  0  0  0  0  0  0
    0.3265    4.1766    0.0045 H   0  0  0  0  0  0  0  0  0  0  0  0
    1.1522    4.4242   -1.9445 C   0  0  0  0  0  0  0  0  0  0  0  0
    0.3652    3.8650   -2.4262 H   0  0  0  0  0  0  0  0  0  0  0  0
    2.1703    4.9880   -2.6939 C   0  0  0  0  0  0  0  0  0  0  0  0
    2.1866    4.8729   -3.7666 H   0  0  0  0  0  0  0  0  0  0  0  0
    3.1609    5.7146   -2.0642 C   0  0  0  0  0  0  0  0  0  0  0  0
    3.9374    6.1785   -2.6549 H   0  0  0  0  0  0  0  0  0  0  0  0
    3.1497    5.9154   -0.6834 C   0  0  0  0  0  0  0  0  0  0  0  0
    4.2449    6.7053   -0.1293 C   0  0  2  0  0  3  0  0  0  0  0  0
    6.3183    7.4330    0.1055 C   0  0  0  0  0  0  0  0  0  0  0  0
    7.6792    7.6955    0.0820 C   0  0  0  0  0  0  0  0  0  0  0  0
    8.3578    7.1108   -0.5201 H   0  0  0  0  0  0  0  0  0  0  0  0
    8.1212    8.7449    0.8627 C   0  0  0  0  0  0  0  0  0  0  0  0
    9.1730    8.9876    0.8710 H   0  0  0  0  0  0  0  0  0  0  0  0
    7.2432    9.5041    1.6421 C   0  0  0  0  0  0  0  0  0  0  0  0
    7.6420   10.3132    2.2343 H   0  0  0  0  0  0  0  0  0  0  0  0
    5.8886    9.2486    1.6727 C   0  0  0  0  0  0  0  0  0  0  0  0
    5.2012    9.8256    2.2703 H   0  0  0  0  0  0  0  0  0  0  0  0
    5.4278    8.1969    0.8881 C   0  0  0  0  0  0  0  0  0  0  0  0
  1  4  1  0  0  0  0
  1  2  1  0  0  0  0
  3  1  1  0  0  0  0
  4 10  1  0  0  0  0
  5 19  1  0  0  0  0
  6  5  1  0  0  0  0
  7 41  1  0  0  0  0
  7  1  1  0  0  0  0
  8 31  1  0  0  0  0
  8 32  1  0  0  0  0
  9  8  1  0  0  0  0
 10 19  2  0  0  0  0
 10 11  1  0  0  0  0
 11 13  2  0  0  0  0
 12 11  1  0  0  0  0
 13 15  1  0  0  0  0
 13 14  1  0  0  0  0
 15 16  1  0  0  0  0
 17 18  1  0  0  0  0
 17 15  2  0  0  0  0
 19 17  1  0  0  0  0
 20 21  1  6  0  0  0
 20  4  1  0  0  0  0
 20  5  1  0  0  0  0
 22 23  1  0  0  0  0
 22 21  1  0  0  0  0
 24 22  2  0  0  0  0
 25 24  1  0  0  0  0
 26 28  2  0  0  0  0
 26 24  1  0  0  0  0
 27 26  1  0  0  0  0
 28 30  1  0  0  0  0
 29 28  1  0  0  0  0
 30 21  2  0  0  0  0
 31 30  1  6  0  0  0
 31  7  1  0  0  0  0
 32 41  1  0  0  0  0
 33 32  2  0  0  0  0
 33 35  1  0  0  0  0
 34 33  1  0  0  0  0
 35 36  1  0  0  0  0
 35 37  2  0  0  0  0
 37 39  1  0  0  0  0
 37 38  1  0  0  0  0
 39 40  1  0  0  0  0
 41 39  2  0  0  0  0
M  END
$$$$
