CSD_code = VIFPIK | q = 0 | S = 0 | Stoichiometry = C23H21Cl2FeN5O4 | MND = 5
 OpenBabel04212202113D

 56 60  0  0  1  0  0  0  0  0999 V2000
    4.6908    2.0659    2.6312 Fe  0  0  0  0  0  0  0  0  0  0  0  0
    5.2596    0.8375    1.0638 Cl  0  0  0  0  0  0  0  0  0  0  0  0
    4.5123    2.0117    4.6936 Cl  0  0  0  0  0  0  0  0  0  0  0  0
   11.3882    0.6697    5.8002 O   0  0  0  0  0  0  0  0  0  0  0  0
   11.5143   -0.4898    3.9956 O   0  0  0  0  0  0  0  0  0  0  0  0
    0.3397   -3.6214    4.5697 O   0  0  0  0  0  0  0  0  0  0  0  0
    0.2139   -4.0072    2.4598 O   0  0  0  0  0  0  0  0  0  0  0  0
    6.4566    2.9518    2.7006 N   0  0  0  0  0  0  0  0  0  0  0  0
    4.2162    3.6386    2.0121 N   0  0  0  0  0  0  0  0  0  0  0  0
    2.7633    1.7052    2.3636 N   0  0  0  0  0  0  0  0  0  0  0  0
   10.9936    0.3519    4.6972 N   0  0  0  0  0  0  0  0  0  0  0  0
    0.5052   -3.3093    3.4091 N   0  0  0  0  0  0  0  0  0  0  0  0
    6.4502    4.1731    2.2386 C   0  0  0  0  0  0  0  0  0  0  0  0
    5.1518    4.6226    1.8359 C   0  0  0  0  0  0  0  0  0  0  0  0
    4.7936    5.8708    1.3384 C   0  0  0  0  0  0  0  0  0  0  0  0
    5.5469    6.6295    1.2021 H   0  0  0  0  0  0  0  0  0  0  0  0
    3.4663    6.1271    1.0275 C   0  0  0  0  0  0  0  0  0  0  0  0
    3.1755    7.0923    0.6456 H   0  0  0  0  0  0  0  0  0  0  0  0
    2.5156    5.1339    1.2114 C   0  0  0  0  0  0  0  0  0  0  0  0
    1.4794    5.3138    0.9761 H   0  0  0  0  0  0  0  0  0  0  0  0
    2.9078    3.8921    1.6992 C   0  0  0  0  0  0  0  0  0  0  0  0
    2.0916    2.7393    1.9344 C   0  0  2  0  0  3  0  0  0  0  0  0
    7.6647    5.0317    2.0900 C   0  0  0  0  0  0  0  0  0  0  0  0
    8.5551    4.5059    2.4242 H   0  0  0  0  0  0  0  0  0  0  0  0
    7.5529    5.9507    2.6637 H   0  0  0  0  0  0  0  0  0  0  0  0
    7.7915    5.3042    1.0430 H   0  0  0  0  0  0  0  0  0  0  0  0
    0.6096    2.7684    1.7420 C   0  0  0  0  0  0  0  0  0  0  0  0
    0.1656    1.8122    2.0059 H   0  0  0  0  0  0  0  0  0  0  0  0
    0.3644    3.0055    0.7077 H   0  0  0  0  0  0  0  0  0  0  0  0
    0.1764    3.5422    2.3745 H   0  0  0  0  0  0  0  0  0  0  0  0
    7.6114    2.3432    3.2062 C   0  0  0  0  0  0  0  0  0  0  0  0
    8.1030    2.6807    4.4819 C   0  0  0  0  0  0  0  0  0  0  0  0
    9.2143    2.0040    4.9519 C   0  0  0  0  0  0  0  0  0  0  0  0
    9.6196    2.2296    5.9271 H   0  0  0  0  0  0  0  0  0  0  0  0
    9.8317    1.0251    4.1826 C   0  0  0  0  0  0  0  0  0  0  0  0
    9.3456    0.6931    2.9241 C   0  0  0  0  0  0  0  0  0  0  0  0
    9.8404   -0.0703    2.3447 H   0  0  0  0  0  0  0  0  0  0  0  0
    8.2366    1.3543    2.4429 C   0  0  0  0  0  0  0  0  0  0  0  0
    7.8349    1.1139    1.4714 H   0  0  0  0  0  0  0  0  0  0  0  0
    7.4445    3.7314    5.3177 C   0  0  0  0  0  0  0  0  0  0  0  0
    7.8579    3.7266    6.3219 H   0  0  0  0  0  0  0  0  0  0  0  0
    6.3738    3.5466    5.3755 H   0  0  0  0  0  0  0  0  0  0  0  0
    7.5930    4.7212    4.8887 H   0  0  0  0  0  0  0  0  0  0  0  0
    2.1630    0.4621    2.5978 C   0  0  0  0  0  0  0  0  0  0  0  0
    1.8185   -0.3842    1.5265 C   0  0  0  0  0  0  0  0  0  0  0  0
    1.2807   -1.6240    1.8224 C   0  0  0  0  0  0  0  0  0  0  0  0
    1.0066   -2.3044    1.0300 H   0  0  0  0  0  0  0  0  0  0  0  0
    1.0797   -2.0189    3.1396 C   0  0  0  0  0  0  0  0  0  0  0  0
    1.4194   -1.1826    4.1958 C   0  0  0  0  0  0  0  0  0  0  0  0
    1.2546   -1.5091    5.2105 H   0  0  0  0  0  0  0  0  0  0  0  0
    1.9595    0.0543    3.9184 C   0  0  0  0  0  0  0  0  0  0  0  0
    2.2360    0.7225    4.7183 H   0  0  0  0  0  0  0  0  0  0  0  0
    2.0298    0.0311    0.1055 C   0  0  0  0  0  0  0  0  0  0  0  0
    3.0428    0.4048   -0.0297 H   0  0  0  0  0  0  0  0  0  0  0  0
    1.3376    0.8237   -0.1755 H   0  0  0  0  0  0  0  0  0  0  0  0
    1.8734   -0.8131   -0.5597 H   0  0  0  0  0  0  0  0  0  0  0  0
  1  8  1  0  0  0  0
  1  3  1  0  0  0  0
  2  1  1  0  0  0  0
  5 11  2  0  0  0  0
  7 12  2  0  0  0  0
  8 31  1  0  0  0  0
  9  1  1  0  0  0  0
 10 44  1  0  0  0  0
 10  1  1  0  0  0  0
 11  4  2  0  0  0  0
 12  6  2  0  0  0  0
 13  8  1  0  0  0  0
 14  9  1  0  0  0  0
 14 13  2  0  0  0  0
 15 14  1  0  0  0  0
 16 15  1  0  0  0  0
 17 19  1  0  0  0  0
 17 15  2  0  0  0  0
 18 17  1  0  0  0  0
 19 21  2  0  0  0  0
 20 19  1  0  0  0  0
 21 22  1  0  0  0  0
 21  9  1  0  0  0  0
 22 27  1  1  0  0  0
 22 10  1  0  0  0  0
 23 13  1  0  0  0  0
 23 24  1  0  0  0  0
 23 25  1  0  0  0  0
 26 23  1  0  0  0  0
 27 28  1  0  0  0  0
 27 30  1  0  0  0  0
 29 27  1  0  0  0  0
 31 32  1  0  0  0  0
 32 33  2  0  0  0  0
 32 40  1  0  0  0  0
 33 34  1  0  0  0  0
 35 11  1  0  0  0  0
 35 33  1  0  0  0  0
 36 35  2  0  0  0  0
 37 36  1  0  0  0  0
 38 36  1  0  0  0  0
 38 31  2  0  0  0  0
 39 38  1  0  0  0  0
 40 42  1  0  0  0  0
 40 41  1  0  0  0  0
 43 40  1  0  0  0  0
 44 51  1  0  0  0  0
 45 46  1  0  0  0  0
 45 44  2  0  0  0  0
 46 48  2  0  0  0  0
 47 46  1  0  0  0  0
 48 12  1  0  0  0  0
 48 49  1  0  0  0  0
 49 50  1  0  0  0  0
 51 49  2  0  0  0  0
 51 52  1  0  0  0  0
 53 45  1  0  0  0  0
 54 53  1  0  0  0  0
 55 53  1  0  0  0  0
 56 53  1  0  0  0  0
M  END
$$$$
