CSD_code = VIGBUL | q = 0 | S = 0 | Stoichiometry = C10H16Cl2HgN4S2 | MND = 4
 OpenBabel04212202113D

 35 36  0  0  1  0  0  0  0  0999 V2000
   -0.0362    7.0531    2.6385 Hg  0  0  0  0  0  0  0  0  0  0  0  0
   -1.9190    8.0276    3.5342 Cl  0  0  0  0  0  0  0  0  0  0  0  0
    1.5282    7.4743    0.5235 S   0  0  0  0  0  0  0  0  0  0  0  0
   -0.1374    4.7030    2.9076 Cl  0  0  0  0  0  0  0  0  0  0  0  0
    1.9383    7.3729    4.6055 S   0  0  0  0  0  0  0  0  0  0  0  0
    3.1901    5.4430    1.2417 N   0  0  0  0  0  0  0  0  0  0  0  0
    3.8704    7.4057    1.9006 N   0  0  0  0  0  0  0  0  0  0  0  0
    1.2328    5.1345    5.9542 N   0  0  0  0  0  0  0  0  0  0  0  0
    2.8822    6.7536    1.2569 C   0  0  1  0  0  3  0  0  0  0  0  0
    0.0950    6.9007    6.5390 N   0  0  0  0  0  0  0  0  0  0  0  0
    1.0509    6.4458    5.7057 C   0  0  1  0  0  3  0  0  0  0  0  0
    4.7847    6.4872    2.3331 C   0  0  0  0  0  0  0  0  0  0  0  0
    5.6505    6.7738    2.8925 H   0  0  0  0  0  0  0  0  0  0  0  0
    4.3617    5.2668    1.9224 C   0  0  0  0  0  0  0  0  0  0  0  0
    4.7971    4.2982    2.0557 H   0  0  0  0  0  0  0  0  0  0  0  0
   -0.3644    5.8484    7.2811 C   0  0  0  0  0  0  0  0  0  0  0  0
   -1.1497    5.9648    7.9986 H   0  0  0  0  0  0  0  0  0  0  0  0
    2.3940    4.4139    0.6313 C   0  0  0  0  0  0  0  0  0  0  0  0
    1.5726    4.1286    1.2965 H   0  0  0  0  0  0  0  0  0  0  0  0
    3.0203    3.5491    0.4260 H   0  0  0  0  0  0  0  0  0  0  0  0
    1.9694    4.7970   -0.2966 H   0  0  0  0  0  0  0  0  0  0  0  0
    3.9112    8.8192    2.1460 C   0  0  0  0  0  0  0  0  0  0  0  0
    3.2124    9.3076    1.4682 H   0  0  0  0  0  0  0  0  0  0  0  0
    4.9188    9.1943    1.9736 H   0  0  0  0  0  0  0  0  0  0  0  0
    3.6129    9.0271    3.1757 H   0  0  0  0  0  0  0  0  0  0  0  0
    0.3410    4.7509    6.9168 C   0  0  0  0  0  0  0  0  0  0  0  0
    0.2805    3.7388    7.2585 H   0  0  0  0  0  0  0  0  0  0  0  0
    2.1587    4.2814    5.2647 C   0  0  0  0  0  0  0  0  0  0  0  0
    1.6662    3.8367    4.3956 H   0  0  0  0  0  0  0  0  0  0  0  0
    2.5054    3.5020    5.9402 H   0  0  0  0  0  0  0  0  0  0  0  0
    2.9990    4.8865    4.9239 H   0  0  0  0  0  0  0  0  0  0  0  0
   -0.3732    8.2578    6.6038 C   0  0  0  0  0  0  0  0  0  0  0  0
    0.4587    8.9278    6.3853 H   0  0  0  0  0  0  0  0  0  0  0  0
   -0.7616    8.4568    7.6003 H   0  0  0  0  0  0  0  0  0  0  0  0
   -1.1576    8.4241    5.8593 H   0  0  0  0  0  0  0  0  0  0  0  0
  1  4  1  0  0  0  0
  1  2  1  0  0  0  0
  1  5  1  0  0  0  0
  3  1  1  0  0  0  0
  6  9  1  0  0  0  0
  6 14  1  0  0  0  0
  7 22  1  0  0  0  0
  7 12  1  0  0  0  0
  8 26  1  0  0  0  0
  9  3  1  6  0  0  0
  9  7  1  0  0  0  0
 10 32  1  0  0  0  0
 10 16  1  0  0  0  0
 11  5  1  1  0  0  0
 11  8  1  0  0  0  0
 11 10  1  0  0  0  0
 12 13  1  0  0  0  0
 14 15  1  0  0  0  0
 14 12  2  0  0  0  0
 16 17  1  0  0  0  0
 18  6  1  0  0  0  0
 18 19  1  0  0  0  0
 20 18  1  0  0  0  0
 21 18  1  0  0  0  0
 22 25  1  0  0  0  0
 23 22  1  0  0  0  0
 24 22  1  0  0  0  0
 26 27  1  0  0  0  0
 26 16  2  0  0  0  0
 28 30  1  0  0  0  0
 28  8  1  0  0  0  0
 29 28  1  0  0  0  0
 31 28  1  0  0  0  0
 32 34  1  0  0  0  0
 33 32  1  0  0  0  0
 35 32  1  0  0  0  0
M  END
$$$$
