CSD_code = VIGSOT | q = 1 | S = 0 | Stoichiometry = C25H30ClN3OOsP(1+) | MND = 6
 OpenBabel04212202113D

 62 67  0  0  1  0  0  0  0  0999 V2000
    8.8618    4.5386    0.8539 Os  0  0  0  0  0  0  0  0  0  0  0  0
    7.7918    6.6229    0.8852 Cl  0  0  0  0  0  0  0  0  0  0  0  0
   10.3102    5.6256   -0.6366 P   0  0  0  0  0  4  0  0  0  0  0  0
   10.6075    4.9571    3.2698 O   0  0  0  0  0  1  0  0  0  0  0  0
    7.2737    3.5756    2.0224 N   0  0  1  0  0  4  0  0  0  0  0  0
    7.4722    3.9140   -0.7067 N   0  0  2  0  0  4  0  0  0  0  0  0
    9.3767    2.3845    0.6376 N   0  0  2  0  0  4  0  0  0  0  0  0
    9.4523    6.0897   -2.1738 C   0  0  0  0  0  0  0  0  0  0  0  0
    8.9048    7.3646   -2.2918 C   0  0  0  0  0  0  0  0  0  0  0  0
    8.1710    7.7022   -3.4152 C   0  0  0  0  0  0  0  0  0  0  0  0
    7.9713    6.7737   -4.4244 C   0  0  0  0  0  0  0  0  0  0  0  0
    8.5014    5.4982   -4.3071 C   0  0  0  0  0  0  0  0  0  0  0  0
    9.2306    5.1524   -3.1832 C   0  0  0  0  0  0  0  0  0  0  0  0
   11.1140    7.1820   -0.1409 C   0  0  0  0  0  0  0  0  0  0  0  0
   11.9358    7.8244   -1.0664 C   0  0  0  0  0  0  0  0  0  0  0  0
   12.5722    9.0014   -0.7236 C   0  0  0  0  0  0  0  0  0  0  0  0
   12.3987    9.5424    0.5414 C   0  0  0  0  0  0  0  0  0  0  0  0
   11.5852    8.9048    1.4626 C   0  0  0  0  0  0  0  0  0  0  0  0
   10.9432    7.7253    1.1258 C   0  0  0  0  0  0  0  0  0  0  0  0
   11.7735    4.6655   -1.1598 C   0  0  0  0  0  0  0  0  0  0  0  0
   12.4196    3.9446   -0.1570 C   0  0  0  0  0  0  0  0  0  0  0  0
   13.5744    3.2376   -0.4340 C   0  0  0  0  0  0  0  0  0  0  0  0
   14.0944    3.2432   -1.7194 C   0  0  0  0  0  0  0  0  0  0  0  0
   13.4627    3.9655   -2.7178 C   0  0  0  0  0  0  0  0  0  0  0  0
   12.3083    4.6794   -2.4431 C   0  0  0  0  0  0  0  0  0  0  0  0
    6.0671    3.2929    1.2218 C   0  0  0  0  0  0  0  0  0  0  0  0
    6.1320    4.0387   -0.1163 C   0  0  0  0  0  0  0  0  0  0  0  0
    7.7635    2.5694   -1.2351 C   0  0  0  0  0  0  0  0  0  0  0  0
    9.1510    2.0862   -0.7830 C   0  0  0  0  0  0  0  0  0  0  0  0
    8.5863    1.5375    1.5580 C   0  0  0  0  0  0  0  0  0  0  0  0
    7.8733    2.3813    2.6291 C   0  0  0  0  0  0  0  0  0  0  0  0
    9.9641    4.8632    2.3191 C   0  0  0  0  0  2  0  0  0  0  0  0
    7.0267    4.2367    2.7586 H   0  0  0  0  0  0  0  0  0  0  0  0
    7.5267    4.5897   -1.4702 H   0  0  0  0  0  0  0  0  0  0  0  0
   10.3668    2.2414    0.8282 H   0  0  0  0  0  0  0  0  0  0  0  0
    9.0522    8.0826   -1.4989 H   0  0  0  0  0  0  0  0  0  0  0  0
    7.7534    8.6931   -3.5029 H   0  0  0  0  0  0  0  0  0  0  0  0
    7.4030    7.0408   -5.3017 H   0  0  0  0  0  0  0  0  0  0  0  0
    8.3482    4.7730   -5.0927 H   0  0  0  0  0  0  0  0  0  0  0  0
    9.6480    4.1570   -3.0985 H   0  0  0  0  0  0  0  0  0  0  0  0
   12.0703    7.4043   -2.0535 H   0  0  0  0  0  0  0  0  0  0  0  0
   13.2040    9.4989   -1.4437 H   0  0  0  0  0  0  0  0  0  0  0  0
   12.8967   10.4625    0.8058 H   0  0  0  0  0  0  0  0  0  0  0  0
   11.4460    9.3268    2.4459 H   0  0  0  0  0  0  0  0  0  0  0  0
   10.2922    7.2360    1.8354 H   0  0  0  0  0  0  0  0  0  0  0  0
   12.0111    3.9714    0.8475 H   0  0  0  0  0  0  0  0  0  0  0  0
   14.0746    2.6889    0.3496 H   0  0  0  0  0  0  0  0  0  0  0  0
   14.9956    2.6926   -1.9396 H   0  0  0  0  0  0  0  0  0  0  0  0
   13.8738    3.9802   -3.7158 H   0  0  0  0  0  0  0  0  0  0  0  0
   11.8306    5.2454   -3.2298 H   0  0  0  0  0  0  0  0  0  0  0  0
    5.9937    2.2159    1.0530 H   0  0  0  0  0  0  0  0  0  0  0  0
    5.1603    3.5995    1.7497 H   0  0  0  0  0  0  0  0  0  0  0  0
    5.9565    5.1037    0.0614 H   0  0  0  0  0  0  0  0  0  0  0  0
    5.3509    3.6627   -0.7890 H   0  0  0  0  0  0  0  0  0  0  0  0
    6.9992    1.8712   -0.8865 H   0  0  0  0  0  0  0  0  0  0  0  0
    7.7309    2.5553   -2.3288 H   0  0  0  0  0  0  0  0  0  0  0  0
    9.9264    2.6126   -1.3480 H   0  0  0  0  0  0  0  0  0  0  0  0
    9.2475    1.0128   -0.9913 H   0  0  0  0  0  0  0  0  0  0  0  0
    7.8497    0.9769    0.9791 H   0  0  0  0  0  0  0  0  0  0  0  0
    9.2249    0.8071    2.0609 H   0  0  0  0  0  0  0  0  0  0  0  0
    8.6026    2.7106    3.3741 H   0  0  0  0  0  0  0  0  0  0  0  0
    7.1235    1.7603    3.1358 H   0  0  0  0  0  0  0  0  0  0  0  0
  1  2  1  0  0  0  0
  1  5  1  0  0  0  0
  1 32  1  0  0  0  0
  3 14  1  0  0  0  0
  3  1  1  0  0  0  0
  5 31  1  0  0  0  0
  5 33  1  1  0  0  0
  6 34  1  6  0  0  0
  6 27  1  0  0  0  0
  6  1  1  0  0  0  0
  7 35  1  1  0  0  0
  7  1  1  0  0  0  0
  7 30  1  0  0  0  0
  8  3  1  0  0  0  0
  9  8  1  0  0  0  0
  9 36  1  0  0  0  0
 10  9  2  0  0  0  0
 11 12  2  0  0  0  0
 11 10  1  0  0  0  0
 12 13  1  0  0  0  0
 13 40  1  0  0  0  0
 13  8  2  0  0  0  0
 14 19  1  0  0  0  0
 15 16  1  0  0  0  0
 15 14  2  0  0  0  0
 16 17  2  0  0  0  0
 17 43  1  0  0  0  0
 17 18  1  0  0  0  0
 18 44  1  0  0  0  0
 19 18  2  0  0  0  0
 19 45  1  0  0  0  0
 20  3  1  0  0  0  0
 20 21  1  0  0  0  0
 21 46  1  0  0  0  0
 22 21  2  0  0  0  0
 22 47  1  0  0  0  0
 23 22  1  0  0  0  0
 24 25  1  0  0  0  0
 24 23  2  0  0  0  0
 25 20  2  0  0  0  0
 26 52  1  0  0  0  0
 26  5  1  0  0  0  0
 27 53  1  0  0  0  0
 27 26  1  0  0  0  0
 28 55  1  0  0  0  0
 28 29  1  0  0  0  0
 28  6  1  0  0  0  0
 29  7  1  0  0  0  0
 30 60  1  0  0  0  0
 30 31  1  0  0  0  0
 31 62  1  0  0  0  0
 31 61  1  0  0  0  0
 32  4  1  0  0  0  0
 37 10  1  0  0  0  0
 38 11  1  0  0  0  0
 39 12  1  0  0  0  0
 41 15  1  0  0  0  0
 42 16  1  0  0  0  0
 48 23  1  0  0  0  0
 49 24  1  0  0  0  0
 50 25  1  0  0  0  0
 51 26  1  0  0  0  0
 54 27  1  0  0  0  0
 56 28  1  0  0  0  0
 57 29  1  0  0  0  0
 58 29  1  0  0  0  0
 59 30  1  0  0  0  0
M  END
$$$$
