CSD_code = VIGYUG | q = 0 | S = 0 | Stoichiometry = C29H27Cl2N3O3Pd | MND = 4
 OpenBabel04212202113D

 65 71  0  0  1  0  0  0  0  0999 V2000
   -1.4510    7.4381    9.4884 C   0  0  2  0  0  3  0  0  0  0  0  0
   -3.4318    8.4401    9.4924 C   0  0  0  0  0  0  0  0  0  0  0  0
   -4.0920    8.5810    8.6346 H   0  0  0  0  0  0  0  0  0  0  0  0
   -3.6019    9.2376   10.2221 H   0  0  0  0  0  0  0  0  0  0  0  0
   -3.5363    7.0178   10.1066 C   0  0  1  0  0  0  0  0  0  0  0  0
   -3.9455    7.0180   11.1219 H   0  0  0  0  0  0  0  0  0  0  0  0
   -4.3921    6.1097    9.2382 C   0  0  0  0  0  0  0  0  0  0  0  0
   -3.9118    4.9561    8.6330 C   0  0  0  0  0  0  0  0  0  0  0  0
   -2.8955    4.6067    8.8199 H   0  0  0  0  0  0  0  0  0  0  0  0
   -4.7413    4.2006    7.8201 C   0  0  0  0  0  0  0  0  0  0  0  0
   -4.3606    3.3004    7.3612 H   0  0  0  0  0  0  0  0  0  0  0  0
   -6.0509    4.5874    7.6016 C   0  0  0  0  0  0  0  0  0  0  0  0
   -6.6932    3.9953    6.9673 H   0  0  0  0  0  0  0  0  0  0  0  0
   -6.5383    5.7299    8.2134 C   0  0  0  0  0  0  0  0  0  0  0  0
   -7.5644    6.0315    8.0630 H   0  0  0  0  0  0  0  0  0  0  0  0
   -5.7142    6.4852    9.0269 C   0  0  0  0  0  0  0  0  0  0  0  0
   -6.1024    7.3694    9.5129 H   0  0  0  0  0  0  0  0  0  0  0  0
   -0.0037    7.2621    9.0913 C   0  0  1  0  0  0  0  0  0  0  0  0
    0.6119    8.5656    8.5954 C   0  0  0  0  0  0  0  0  0  0  0  0
    0.5895    9.3149    9.3819 H   0  0  0  0  0  0  0  0  0  0  0  0
    0.0578    8.9223    7.7331 H   0  0  0  0  0  0  0  0  0  0  0  0
    1.6417    8.3902    8.2990 H   0  0  0  0  0  0  0  0  0  0  0  0
    0.7347    6.7008   10.2717 C   0  0  2  0  0  3  0  0  0  0  0  0
    2.1025    6.7506   12.0266 C   0  0  0  0  0  0  0  0  0  0  0  0
    1.8827    7.3102   12.9401 H   0  0  0  0  0  0  0  0  0  0  0  0
    3.1835    6.6359   11.9209 H   0  0  0  0  0  0  0  0  0  0  0  0
    1.3450    5.3993   11.9620 C   0  0  1  0  0  0  0  0  0  0  0  0
    2.0179    4.5446   11.8411 H   0  0  0  0  0  0  0  0  0  0  0  0
    0.3995    5.1399   13.1170 C   0  0  0  0  0  0  0  0  0  0  0  0
   -0.6561    6.0276   13.3554 C   0  0  0  0  0  0  0  0  0  0  0  0
   -0.7207    6.9648   12.8054 H   0  0  0  0  0  0  0  0  0  0  0  0
   -1.5956    5.7409   14.3339 C   0  0  0  0  0  0  0  0  0  0  0  0
   -2.4161    6.4217   14.5074 H   0  0  0  0  0  0  0  0  0  0  0  0
   -1.4897    4.5760   15.0771 C   0  0  0  0  0  0  0  0  0  0  0  0
   -2.2380    4.3431   15.8191 H   0  0  0  0  0  0  0  0  0  0  0  0
   -0.4343    3.7087   14.8584 C   0  0  0  0  0  0  0  0  0  0  0  0
   -0.3533    2.7985   15.4324 H   0  0  0  0  0  0  0  0  0  0  0  0
    0.5058    3.9845   13.8794 C   0  0  0  0  0  0  0  0  0  0  0  0
    1.3061    3.2865   13.6857 H   0  0  0  0  0  0  0  0  0  0  0  0
   -0.0646    6.2390    7.9798 C   0  0  0  0  0  0  0  0  0  0  0  0
   -0.4276    4.2353    7.0853 C   0  0  0  0  0  0  0  0  0  0  0  0
   -1.3947    3.7483    6.9441 H   0  0  0  0  0  0  0  0  0  0  0  0
    0.3562    3.4785    7.1739 H   0  0  0  0  0  0  0  0  0  0  0  0
   -0.1253    5.3038    5.9949 C   0  0  1  0  0  0  0  0  0  0  0  0
    0.7462    5.0447    5.3885 H   0  0  0  0  0  0  0  0  0  0  0  0
   -1.3161    5.5637    5.1030 C   0  0  0  0  0  0  0  0  0  0  0  0
   -1.2465    5.3508    3.7341 C   0  0  0  0  0  0  0  0  0  0  0  0
   -0.3215    5.0123    3.2905 H   0  0  0  0  0  0  0  0  0  0  0  0
   -2.3578    5.5673    2.9376 C   0  0  0  0  0  0  0  0  0  0  0  0
   -2.2951    5.3978    1.8729 H   0  0  0  0  0  0  0  0  0  0  0  0
   -3.5466    5.9970    3.5021 C   0  0  0  0  0  0  0  0  0  0  0  0
   -4.4134    6.1613    2.8796 H   0  0  0  0  0  0  0  0  0  0  0  0
   -3.6205    6.2174    4.8671 C   0  0  0  0  0  0  0  0  0  0  0  0
   -4.5442    6.5493    5.3180 H   0  0  0  0  0  0  0  0  0  0  0  0
   -2.5091    6.0059    5.6613 C   0  0  0  0  0  0  0  0  0  0  0  0
   -2.5733    6.1850    6.7250 H   0  0  0  0  0  0  0  0  0  0  0  0
   -3.4406    4.1572   11.6540 Cl  0  0  0  0  0  0  0  0  0  0  0  0
   -0.6775    2.6814   11.1698 Cl  0  0  0  0  0  0  0  0  0  0  0  0
   -2.1439    6.6024   10.1538 N   0  0  1  0  0  0  0  0  0  0  0  0
    0.5496    5.5400   10.7487 N   0  0  1  0  0  0  0  0  0  0  0  0
    0.1744    6.4950    6.7689 N   0  0  0  0  0  0  0  0  0  0  0  0
   -2.0805    8.5279    9.0383 O   0  0  0  0  0  0  0  0  0  0  0  0
    1.6147    7.4945   10.9077 O   0  0  0  0  0  0  0  0  0  0  0  0
   -0.4621    4.9905    8.2995 O   0  0  0  0  0  0  0  0  0  0  0  0
   -1.4345    4.7407   10.8463 Pd  0  0  0  0  0  0  0  0  0  0  0  0
  1 62  1  6  0  0  0
  1 59  1  0  0  0  0
  2  5  1  0  0  0  0
  2  4  1  0  0  0  0
  3  2  1  0  0  0  0
  5 59  1  0  0  0  0
  5  6  1  1  0  0  0
  7  5  1  0  0  0  0
  8  9  1  0  0  0  0
  8  7  2  0  0  0  0
 10  8  1  0  0  0  0
 11 10  1  0  0  0  0
 12 10  2  0  0  0  0
 12 14  1  0  0  0  0
 13 12  1  0  0  0  0
 14 16  2  0  0  0  0
 15 14  1  0  0  0  0
 16  7  1  0  0  0  0
 16 17  1  0  0  0  0
 18 19  1  6  0  0  0
 18  1  1  0  0  0  0
 18 23  1  0  0  0  0
 19 20  1  0  0  0  0
 21 19  1  0  0  0  0
 22 19  1  0  0  0  0
 23 60  1  0  0  0  0
 23 63  1  1  0  0  0
 24 25  1  0  0  0  0
 26 24  1  0  0  0  0
 27 28  1  6  0  0  0
 27 24  1  0  0  0  0
 27 29  1  0  0  0  0
 29 30  2  0  0  0  0
 29 38  1  0  0  0  0
 30 32  1  0  0  0  0
 31 30  1  0  0  0  0
 32 33  1  0  0  0  0
 32 34  2  0  0  0  0
 34 35  1  0  0  0  0
 36 34  1  0  0  0  0
 36 37  1  0  0  0  0
 38 36  2  0  0  0  0
 39 38  1  0  0  0  0
 40 64  1  0  0  0  0
 40 18  1  0  0  0  0
 41 43  1  0  0  0  0
 41 64  1  0  0  0  0
 42 41  1  0  0  0  0
 44 45  1  6  0  0  0
 44 61  1  0  0  0  0
 44 41  1  0  0  0  0
 46 55  1  0  0  0  0
 46 44  1  0  0  0  0
 47 46  2  0  0  0  0
 48 47  1  0  0  0  0
 49 51  2  0  0  0  0
 49 47  1  0  0  0  0
 50 49  1  0  0  0  0
 51 53  1  0  0  0  0
 52 51  1  0  0  0  0
 53 54  1  0  0  0  0
 53 55  2  0  0  0  0
 55 56  1  0  0  0  0
 59 65  1  6  0  0  0
 60 65  1  1  0  0  0
 60 27  1  0  0  0  0
 61 40  2  0  0  0  0
 62  2  1  0  0  0  0
 63 24  1  0  0  0  0
 65 58  1  0  0  0  0
 65 57  1  0  0  0  0
M  END
$$$$
