CSD_code = VIHCIY | q = 0 | S = 0 | Stoichiometry = C14H14Cl2Ti | MND = 12
 OpenBabel04212202113D

 31 32  0  0  1  0  0  0  0  0999 V2000
    6.4655    1.5949    3.4484 Ti  0  0  0  0  0  0  0  0  0  0  0  0
    5.1337    0.0419    4.3111 Cl  0  0  0  0  0  0  0  0  0  0  0  0
    6.6838    1.9703    5.8019 C   0  0  0  0  0  0  0  0  0  0  0  0
    6.5310    3.2245    5.1933 C   0  0  0  0  0  0  0  0  0  0  0  0
    7.6514    3.4408    4.3528 C   0  0  0  0  0  3  0  0  0  0  0  0
    8.4722    2.3049    4.4136 C   0  0  1  0  0  0  0  0  0  0  0  0
    7.8826    1.3768    5.3248 C   0  0  1  0  0  3  0  0  0  0  0  0
    8.3977    0.0949    5.7618 C   0  0  0  0  0  0  0  0  0  0  0  0
    9.5490   -0.4446    5.3693 C   0  0  0  0  0  0  0  0  0  0  0  0
    6.0441    1.5551    6.5701 H   0  0  0  0  0  0  0  0  0  0  0  0
    5.7774    3.9570    5.4519 H   0  0  0  0  0  0  0  0  0  0  0  0
    7.8996    4.3725    3.8625 H   0  0  0  0  0  0  0  0  0  0  0  0
    9.4424    2.2036    3.9454 H   0  0  0  0  0  0  0  0  0  0  0  0
    7.7648   -0.4357    6.4656 H   0  0  0  0  0  0  0  0  0  0  0  0
    9.8693   -1.4055    5.7319 H   0  0  0  0  0  0  0  0  0  0  0  0
   10.2010    0.0431    4.6642 H   0  0  0  0  0  0  0  0  0  0  0  0
    7.7966    0.0411    2.5861 Cl  0  0  0  0  0  0  0  0  0  0  0  0
    6.2479    1.9703    1.0950 C   0  0  0  0  0  0  0  0  0  0  0  0
    6.4005    3.2246    1.7035 C   0  0  0  0  0  0  0  0  0  0  0  0
    5.2798    3.4409    2.5437 C   0  0  0  0  0  3  0  0  0  0  0  0
    4.4591    2.3051    2.4828 C   0  0  1  0  0  0  0  0  0  0  0  0
    5.0489    1.3768    1.5719 C   0  0  1  0  0  3  0  0  0  0  0  0
    6.8877    1.5550    0.3270 H   0  0  0  0  0  0  0  0  0  0  0  0
    7.1541    3.9571    1.4450 H   0  0  0  0  0  0  0  0  0  0  0  0
    5.0315    4.3726    3.0340 H   0  0  0  0  0  0  0  0  0  0  0  0
    3.4888    2.2038    2.9507 H   0  0  0  0  0  0  0  0  0  0  0  0
    4.5340    0.0948    1.1349 C   0  0  0  0  0  0  0  0  0  0  0  0
    3.3826   -0.4446    1.5270 C   0  0  0  0  0  0  0  0  0  0  0  0
    5.1672   -0.4359    0.4313 H   0  0  0  0  0  0  0  0  0  0  0  0
    3.0624   -1.4056    1.1646 H   0  0  0  0  0  0  0  0  0  0  0  0
    2.7303    0.0432    2.2318 H   0  0  0  0  0  0  0  0  0  0  0  0
  1  2  1  0  0  0  0
  1  6  1  0  0  0  0
  3 10  1  0  0  0  0
  4 11  1  0  0  0  0
  4  3  2  0  0  0  0
  5  6  1  0  0  0  0
  5  4  1  0  0  0  0
  6 13  1  6  0  0  0
  6  7  1  0  0  0  0
  7  8  1  1  0  0  0
  7  3  1  0  0  0  0
  8 14  1  0  0  0  0
  9 15  1  0  0  0  0
  9  8  2  0  0  0  0
 12  5  1  0  0  0  0
 16  9  1  0  0  0  0
 17  1  1  0  0  0  0
 18 22  1  0  0  0  0
 18 19  2  0  0  0  0
 19 20  1  0  0  0  0
 20 25  1  0  0  0  0
 21 20  1  0  0  0  0
 21 26  1  1  0  0  0
 21  1  1  0  0  0  0
 22 27  1  6  0  0  0
 22 21  1  0  0  0  0
 23 18  1  0  0  0  0
 24 19  1  0  0  0  0
 27 28  2  0  0  0  0
 28 31  1  0  0  0  0
 29 27  1  0  0  0  0
 30 28  1  0  0  0  0
M  END
$$$$
