CSD_code = VIHMAB | q = 0 | S = 0 | Stoichiometry = C18H12BrN2O3Re | MND = 6
 OpenBabel04212202113D

 37 42  0  0  1  0  0  0  0  0999 V2000
    3.0386    0.1823    0.2342 Re  0  0  0  0  0  0  0  0  0  0  0  0
    1.9915   -1.7737    1.3638 Br  0  0  0  0  0  0  0  0  0  0  0  0
    2.3562   -0.2194   -1.2163 O   0  0  0  0  0  1  0  0  0  0  0  0
    1.6532    1.6413    0.9053 N   0  0  0  0  0  0  0  0  0  0  0  0
    0.5185    1.4598    1.5447 C   0  0  0  0  0  0  0  0  0  0  0  0
    0.2383    0.4410    1.7754 H   0  0  0  0  0  0  0  0  0  0  0  0
   -0.3008    2.5307    1.9190 C   0  0  0  0  0  0  0  0  0  0  0  0
   -1.2217    2.3262    2.4409 H   0  0  0  0  0  0  0  0  0  0  0  0
    0.0824    3.8114    1.6153 C   0  0  0  0  0  0  0  0  0  0  0  0
   -0.5297    4.6568    1.8942 H   0  0  0  0  0  0  0  0  0  0  0  0
    1.2930    4.0369    0.9290 C   0  0  0  0  0  0  0  0  0  0  0  0
    2.0627    2.8928    0.5871 C   0  0  0  0  0  0  0  0  0  0  0  0
    1.7760    5.3053    0.5685 C   0  0  0  0  0  3  0  0  0  0  0  0
    1.1972    6.1797    0.8208 H   0  0  0  0  0  0  0  0  0  0  0  0
    2.9721    5.4144   -0.1004 C   0  0  0  0  0  0  0  0  0  0  0  0
    3.3393    6.3921   -0.3769 H   0  0  0  0  0  0  0  0  0  0  0  0
    3.7341    4.3002   -0.4381 C   0  0  0  0  0  0  0  0  0  0  0  0
    4.6677    4.4126   -0.9667 H   0  0  0  0  0  0  0  0  0  0  0  0
    3.3069    3.0137   -0.1111 C   0  0  0  0  0  0  0  0  0  0  0  0
    3.9929    1.9556   -0.4011 O   0  0  0  0  0  0  0  0  0  0  0  0
    4.8401   -0.9563   -0.0683 N   0  0  0  0  0  0  0  0  0  0  0  0
    5.1913   -1.7023   -1.0929 C   0  0  0  0  0  0  0  0  0  0  0  0
    4.4569   -1.8267   -1.8762 H   0  0  0  0  0  0  0  0  0  0  0  0
    6.4511   -2.3121   -1.1575 C   0  0  0  0  0  0  0  0  0  0  0  0
    6.6907   -2.9157   -2.0180 H   0  0  0  0  0  0  0  0  0  0  0  0
    7.3530   -2.1431   -0.1375 C   0  0  0  0  0  0  0  0  0  0  0  0
    8.3263   -2.6095   -0.1698 H   0  0  0  0  0  0  0  0  0  0  0  0
    7.0004   -1.3484    0.9734 C   0  0  0  0  0  0  0  0  0  0  0  0
    5.7121   -0.7729    0.9428 C   0  0  2  0  0  3  0  0  0  0  0  0
    7.8097   -1.0837    2.0947 C   0  0  0  0  0  0  0  0  0  0  0  0
    8.7987   -1.5118    2.1405 H   0  0  0  0  0  0  0  0  0  0  0  0
    7.3374   -0.2927    3.1135 C   0  0  0  0  0  0  0  0  0  0  0  0
    7.9680   -0.1007    3.9692 H   0  0  0  0  0  0  0  0  0  0  0  0
    6.0621    0.2794    3.0905 C   0  0  0  0  0  0  0  0  0  0  0  0
    5.7216    0.8943    3.9089 H   0  0  0  0  0  0  0  0  0  0  0  0
    5.2297    0.0525    2.0071 C   0  0  0  0  0  0  0  0  0  0  0  0
    4.0247    0.5108    1.8270 O   0  0  0  0  0  0  0  0  0  0  0  0
  1  4  1  0  0  0  0
  1  2  1  0  0  0  0
  1 37  1  0  0  0  0
  3  1  1  0  0  0  0
  4  5  1  0  0  0  0
  5  6  1  0  0  0  0
  5  7  2  0  0  0  0
  7  8  1  0  0  0  0
  9 10  1  0  0  0  0
  9  7  1  0  0  0  0
 11  9  2  0  0  0  0
 12  4  1  0  0  0  0
 12 11  1  0  0  0  0
 13 14  1  0  0  0  0
 13 11  1  0  0  0  0
 15 13  1  0  0  0  0
 16 15  1  0  0  0  0
 17 19  1  0  0  0  0
 17 15  2  0  0  0  0
 18 17  1  0  0  0  0
 19 12  2  0  0  0  0
 20 19  1  0  0  0  0
 20  1  1  0  0  0  0
 21  1  1  0  0  0  0
 21 29  1  0  0  0  0
 22 21  1  0  0  0  0
 23 22  1  0  0  0  0
 24 22  2  0  0  0  0
 24 26  1  0  0  0  0
 25 24  1  0  0  0  0
 26 28  2  0  0  0  0
 27 26  1  0  0  0  0
 28 30  1  0  0  0  0
 29 28  1  1  0  0  0
 29 36  1  0  0  0  0
 30 31  1  0  0  0  0
 30 32  2  0  0  0  0
 32 33  1  0  0  0  0
 34 32  1  0  0  0  0
 34 35  1  0  0  0  0
 36 34  2  0  0  0  0
 37 36  1  0  0  0  0
M  END
$$$$
