CSD_code = VIHQEK | q = 0 | S = 0 | Stoichiometry = C30H22BrClO2P2Pd | MND = 4
 OpenBabel04212202113D

 59 65  0  0  0  0  0  0  0  0999 V2000
    5.9436    0.7031   11.4489 Pd  0  0  0  0  0  0  0  0  0  0  0  0
    6.9827   -5.7625   10.4470 Br  0  0  0  0  0  0  0  0  0  0  0  0
    5.5366    2.8910   11.9219 Cl  0  0  0  0  0  0  0  0  0  0  0  0
    3.8142    0.0338   11.3191 P   0  0  0  0  0  4  0  0  0  0  0  0
    8.1668    0.7395   11.2051 P   0  0  0  0  0  4  0  0  0  0  0  0
    3.9012   -1.5995   11.1814 O   0  0  0  0  0  0  0  0  0  0  0  0
    8.6117   -0.8342   11.1075 O   0  0  0  0  0  0  0  0  0  0  0  0
    3.2151    0.5238    9.6646 C   0  0  0  0  0  0  0  0  0  0  0  0
    4.1933    0.6715    8.6837 C   0  0  0  0  0  0  0  0  0  0  0  0
    3.8384    1.0424    7.4004 C   0  0  0  0  0  0  0  0  0  0  0  0
    2.5056    1.2720    7.0943 C   0  0  0  0  0  0  0  0  0  0  0  0
    1.5318    1.1266    8.0685 C   0  0  0  0  0  0  0  0  0  0  0  0
    1.8817    0.7532    9.3550 C   0  0  0  0  0  0  0  0  0  0  0  0
    2.3841    0.2496   12.3970 C   0  0  0  0  0  0  0  0  0  0  0  0
    2.1177    1.5479   12.8244 C   0  0  0  0  0  0  0  0  0  0  0  0
    1.0294    1.7880   13.6420 C   0  0  0  0  0  0  0  0  0  0  0  0
    0.2156    0.7368   14.0369 C   0  0  0  0  0  0  0  0  0  0  0  0
    0.4902   -0.5559   13.6197 C   0  0  0  0  0  0  0  0  0  0  0  0
    1.5766   -0.8065   12.8000 C   0  0  0  0  0  0  0  0  0  0  0  0
    6.2568   -1.2143   11.1285 C   0  0  0  0  0  0  0  0  0  0  0  0
    5.1845   -2.0966   11.0483 C   0  0  0  0  0  0  0  0  0  0  0  0
    5.3829   -3.4547   10.8468 C   0  0  0  0  0  0  0  0  0  0  0  0
    6.6866   -3.9082   10.7275 C   0  0  0  0  0  0  0  0  0  0  0  0
    7.7833   -3.0652   10.8032 C   0  0  0  0  0  0  0  0  0  0  0  0
    7.5486   -1.7133   11.0079 C   0  0  0  0  0  0  0  0  0  0  0  0
    8.4980    1.3570    9.5200 C   0  0  0  0  0  0  0  0  0  0  0  0
    9.6615    1.0125    8.8425 C   0  0  0  0  0  0  0  0  0  0  0  0
    9.8664    1.4756    7.5560 C   0  0  0  0  0  0  0  0  0  0  0  0
    8.9175    2.2853    6.9501 C   0  0  0  0  0  0  0  0  0  0  0  0
    7.7606    2.6346    7.6279 C   0  0  0  0  0  0  0  0  0  0  0  0
    7.5457    2.1700    8.9142 C   0  0  0  0  0  0  0  0  0  0  0  0
    9.5332    1.4477   12.1501 C   0  0  0  0  0  0  0  0  0  0  0  0
   10.6562    0.7210   12.5216 C   0  0  0  0  0  0  0  0  0  0  0  0
   11.6700    1.3505   13.2222 C   0  0  0  0  0  0  0  0  0  0  0  0
   11.5605    2.6917   13.5519 C   0  0  0  0  0  0  0  0  0  0  0  0
   10.4324    3.4122   13.1891 C   0  0  0  0  0  0  0  0  0  0  0  0
    9.4147    2.7923   12.4895 C   0  0  0  0  0  0  0  0  0  0  0  0
    5.2429    0.4864    8.9384 H   0  0  0  0  0  0  0  0  0  0  0  0
    4.5984    1.1574    6.6417 H   0  0  0  0  0  0  0  0  0  0  0  0
    2.2264    1.5680    6.0941 H   0  0  0  0  0  0  0  0  0  0  0  0
    0.4950    1.3077    7.8264 H   0  0  0  0  0  0  0  0  0  0  0  0
    1.1247    0.6441   10.1185 H   0  0  0  0  0  0  0  0  0  0  0  0
    2.7746    2.3519   12.5183 H   0  0  0  0  0  0  0  0  0  0  0  0
    0.8177    2.7924   13.9769 H   0  0  0  0  0  0  0  0  0  0  0  0
   -0.6330    0.9249   14.6780 H   0  0  0  0  0  0  0  0  0  0  0  0
   -0.1434   -1.3717   13.9355 H   0  0  0  0  0  0  0  0  0  0  0  0
    1.8032   -1.8097   12.4711 H   0  0  0  0  0  0  0  0  0  0  0  0
    4.5453   -4.1307   10.7857 H   0  0  0  0  0  0  0  0  0  0  0  0
    8.7888   -3.4422   10.7084 H   0  0  0  0  0  0  0  0  0  0  0  0
   10.3922    0.3808    9.3279 H   0  0  0  0  0  0  0  0  0  0  0  0
   10.7678    1.2089    7.0239 H   0  0  0  0  0  0  0  0  0  0  0  0
    9.0835    2.6466    5.9458 H   0  0  0  0  0  0  0  0  0  0  0  0
    7.0260    3.2702    7.1560 H   0  0  0  0  0  0  0  0  0  0  0  0
    6.6486    2.4542    9.4659 H   0  0  0  0  0  0  0  0  0  0  0  0
   10.7272   -0.3263   12.2678 H   0  0  0  0  0  0  0  0  0  0  0  0
   12.5475    0.7921   13.5142 H   0  0  0  0  0  0  0  0  0  0  0  0
   12.3550    3.1761   14.1002 H   0  0  0  0  0  0  0  0  0  0  0  0
   10.3463    4.4546   13.4568 H   0  0  0  0  0  0  0  0  0  0  0  0
    8.5176    3.3312   12.2121 H   0  0  0  0  0  0  0  0  0  0  0  0
  1  3  1  0  0  0  0
  2 23  1  0  0  0  0
  4  1  1  0  0  0  0
  4 14  1  0  0  0  0
  5  1  1  0  0  0  0
  5 32  1  0  0  0  0
  6  4  1  0  0  0  0
  7  5  1  0  0  0  0
  8  4  1  0  0  0  0
  9 38  1  0  0  0  0
  9  8  2  0  0  0  0
 10  9  1  0  0  0  0
 11 10  2  0  0  0  0
 11 12  1  0  0  0  0
 12 13  2  0  0  0  0
 13  8  1  0  0  0  0
 13 42  1  0  0  0  0
 14 19  2  0  0  0  0
 14 15  1  0  0  0  0
 15 16  2  0  0  0  0
 16 44  1  0  0  0  0
 16 17  1  0  0  0  0
 17 45  1  0  0  0  0
 18 46  1  0  0  0  0
 18 17  2  0  0  0  0
 19 18  1  0  0  0  0
 20  1  1  0  0  0  0
 21 20  1  0  0  0  0
 21  6  1  0  0  0  0
 22 21  2  0  0  0  0
 23 24  2  0  0  0  0
 23 22  1  0  0  0  0
 24 25  1  0  0  0  0
 25  7  1  0  0  0  0
 25 20  2  0  0  0  0
 26  5  1  0  0  0  0
 27 50  1  0  0  0  0
 27 26  2  0  0  0  0
 28 27  1  0  0  0  0
 29 28  2  0  0  0  0
 29 30  1  0  0  0  0
 30 31  2  0  0  0  0
 31 54  1  0  0  0  0
 31 26  1  0  0  0  0
 32 37  2  0  0  0  0
 32 33  1  0  0  0  0
 33 34  2  0  0  0  0
 34 56  1  0  0  0  0
 34 35  1  0  0  0  0
 35 57  1  0  0  0  0
 36 58  1  0  0  0  0
 36 35  2  0  0  0  0
 37 36  1  0  0  0  0
 39 10  1  0  0  0  0
 40 11  1  0  0  0  0
 41 12  1  0  0  0  0
 43 15  1  0  0  0  0
 47 19  1  0  0  0  0
 48 22  1  0  0  0  0
 49 24  1  0  0  0  0
 51 28  1  0  0  0  0
 52 29  1  0  0  0  0
 53 30  1  0  0  0  0
 55 33  1  0  0  0  0
 59 37  1  0  0  0  0
M  END
$$$$
