CSD_code = VIJBEX | q = 0 | S = 0 | Stoichiometry = C13H11I3N2Pt | MND = 6
 OpenBabel04212202113D

 30 32  0  0  0  0  0  0  0  0999 V2000
    4.4735    4.3218    1.5828 Pt  0  0  0  0  0  0  0  0  0  0  0  0
    5.8581    2.0638    1.8766 I   0  0  0  0  0  0  0  0  0  0  0  0
    5.6956    4.9299   -0.7332 I   0  0  0  0  0  0  0  0  0  0  0  0
    3.1173    3.9455    3.8708 I   0  0  0  0  0  0  0  0  0  0  0  0
    3.3803    6.0404    1.3382 N   0  0  0  0  0  0  0  0  0  0  0  0
    2.9510    3.0757    0.4589 N   0  0  0  0  0  2  0  0  0  0  0  0
    2.2206    6.0951    0.7013 C   0  0  0  0  0  3  0  0  0  0  0  0
    1.8390    5.1705    0.2872 H   0  0  0  0  0  0  0  0  0  0  0  0
    1.5177    7.2754    0.5644 C   0  0  0  0  0  0  0  0  0  0  0  0
    0.5768    7.2833    0.0397 H   0  0  0  0  0  0  0  0  0  0  0  0
    2.0527    8.4326    1.1156 C   0  0  0  0  0  0  0  0  0  0  0  0
    1.5301    9.3726    1.0283 H   0  0  0  0  0  0  0  0  0  0  0  0
    3.2616    8.3656    1.7768 C   0  0  0  0  0  0  0  0  0  0  0  0
    3.6979    9.2484    2.2131 H   0  0  0  0  0  0  0  0  0  0  0  0
    3.9247    7.1416    1.8811 C   0  0  0  0  0  0  0  0  0  0  0  0
    5.1989    6.9262    2.5458 C   0  0  0  0  0  0  0  0  0  0  0  0
    5.9373    7.9329    3.1720 C   0  0  0  0  0  0  0  0  0  0  0  0
    5.5673    8.9462    3.1814 H   0  0  0  0  0  0  0  0  0  0  0  0
    7.1396    7.6345    3.7783 C   0  0  0  0  0  0  0  0  0  0  0  0
    7.7063    8.4163    4.2603 H   0  0  0  0  0  0  0  0  0  0  0  0
    7.6198    6.3353    3.7691 C   0  0  0  0  0  0  0  0  0  0  0  0
    8.5600    6.0978    4.2425 H   0  0  0  0  0  0  0  0  0  0  0  0
    6.9005    5.3209    3.1519 C   0  0  0  0  0  0  0  0  0  0  0  0
    7.3028    4.3194    3.1625 H   0  0  0  0  0  0  0  0  0  0  0  0
    5.6998    5.6175    2.5455 C   0  0  0  0  0  0  0  0  0  0  0  0
    2.7666    1.9973    0.1143 C   0  0  0  0  0  2  0  0  0  0  0  0
    2.5646    0.6542   -0.3016 C   0  0  0  0  0  0  0  0  0  0  0  0
    3.3624    0.0424    0.1248 H   0  0  0  0  0  0  0  0  0  0  0  0
    2.6050    0.5943   -1.3890 H   0  0  0  0  0  0  0  0  0  0  0  0
    1.6001    0.2944    0.0555 H   0  0  0  0  0  0  0  0  0  0  0  0
  1  2  1  0  0  0  0
  1 25  1  0  0  0  0
  1  4  1  0  0  0  0
  3  1  1  0  0  0  0
  5  1  1  0  0  0  0
  5 15  1  0  0  0  0
  6  1  1  0  0  0  0
  7  5  1  0  0  0  0
  8  7  1  0  0  0  0
  9  7  1  0  0  0  0
  9 11  2  0  0  0  0
 10  9  1  0  0  0  0
 11 13  1  0  0  0  0
 12 11  1  0  0  0  0
 13 15  2  0  0  0  0
 13 14  1  0  0  0  0
 15 16  1  0  0  0  0
 16 17  1  0  0  0  0
 17 18  1  0  0  0  0
 17 19  2  0  0  0  0
 19 20  1  0  0  0  0
 21 19  1  0  0  0  0
 21 22  1  0  0  0  0
 23 24  1  0  0  0  0
 23 21  2  0  0  0  0
 25 16  2  0  0  0  0
 25 23  1  0  0  0  0
 26  6  1  0  0  0  0
 27 30  1  0  0  0  0
 27 26  1  0  0  0  0
 27 28  1  0  0  0  0
 29 27  1  0  0  0  0
M  END
$$$$
