CSD_code = VIJJIJ | q = 0 | S = 0 | Stoichiometry = C11H10Cl2INO2PtS | MND = 4
 OpenBabel04212202113D

 29 31  0  0  1  0  0  0  0  0999 V2000
    6.7109    9.7358    4.6564 C   0  0  0  0  0  0  0  0  0  0  0  0
    6.8441   10.2227    3.6994 H   0  0  0  0  0  0  0  0  0  0  0  0
    6.5938   10.4877    5.8330 C   0  0  0  0  0  0  0  0  0  0  0  0
    6.6394   11.5628    5.7715 H   0  0  0  0  0  0  0  0  0  0  0  0
    6.4236    9.8548    7.0368 C   0  0  0  0  0  0  0  0  0  0  0  0
    6.3301   10.4115    7.9565 H   0  0  0  0  0  0  0  0  0  0  0  0
    6.1999    7.6652    8.2346 C   0  0  0  0  0  0  0  0  0  0  0  0
    6.1623    6.2909    8.1644 C   0  0  0  0  0  0  0  0  0  0  0  0
    6.0315    5.7106    9.0646 H   0  0  0  0  0  0  0  0  0  0  0  0
    6.2917    5.6414    6.9425 C   0  0  0  0  0  0  0  0  0  0  0  0
    6.4612    6.3419    5.7526 C   0  0  0  0  0  0  0  0  0  0  0  0
    6.4984    7.7638    5.8373 C   0  0  2  0  0  3  0  0  0  0  0  0
    5.8036    8.2534    0.0777 C   0  0  0  0  0  0  0  0  0  0  0  0
    4.8309    8.4781    0.5029 H   0  0  0  0  0  0  0  0  0  0  0  0
    5.8575    7.2122   -0.2184 H   0  0  0  0  0  0  0  0  0  0  0  0
    6.0125    8.9238   -0.7479 H   0  0  0  0  0  0  0  0  0  0  0  0
    8.5469    8.1659    0.3986 C   0  0  0  0  0  0  0  0  0  0  0  0
    8.5732    8.8368   -0.4523 H   0  0  0  0  0  0  0  0  0  0  0  0
    8.5008    7.1260    0.0966 H   0  0  0  0  0  0  0  0  0  0  0  0
    9.4077    8.3394    1.0360 H   0  0  0  0  0  0  0  0  0  0  0  0
    6.3699    8.4476    7.0744 C   0  0  0  0  0  0  0  0  0  0  0  0
    6.6645    8.4207    4.6589 N   0  0  0  0  0  0  0  0  0  0  0  0
    6.5830    5.7581    4.6009 O   0  0  0  0  0  0  0  0  0  0  0  0
    7.0651    9.9516    1.6545 O   0  0  0  0  0  1  0  0  0  0  0  0
    7.0534    8.5218    1.3654 S   0  0  0  0  0  0  0  0  0  0  0  0
    6.0353    8.4430    9.7709 Cl  0  0  0  0  0  0  0  0  0  0  0  0
    6.9340    5.5194    1.5527 Cl  0  0  0  0  0  0  0  0  0  0  0  0
    6.2398    3.5487    6.8085 I   0  0  0  0  0  0  0  0  0  0  0  0
    6.8044    7.1116    3.1079 Pt  0  0  1  0  0  0  0  0  0  0  0  0
  1 22  1  0  0  0  0
  1  3  2  0  0  0  0
  2  1  1  0  0  0  0
  3  5  1  0  0  0  0
  4  3  1  0  0  0  0
  5 21  2  0  0  0  0
  5  6  1  0  0  0  0
  7 26  1  0  0  0  0
  8  7  2  0  0  0  0
  8  9  1  0  0  0  0
 10  8  1  0  0  0  0
 11 10  2  0  0  0  0
 12 11  1  6  0  0  0
 12 21  1  0  0  0  0
 13 14  1  0  0  0  0
 13 25  1  0  0  0  0
 15 13  1  0  0  0  0
 16 13  1  0  0  0  0
 17 20  1  0  0  0  0
 17 25  1  0  0  0  0
 18 17  1  0  0  0  0
 19 17  1  0  0  0  0
 21  7  1  0  0  0  0
 22 12  1  0  0  0  0
 23 11  1  0  0  0  0
 25 24  1  0  0  0  0
 25 29  1  0  0  0  0
 28 10  1  0  0  0  0
 29 27  1  1  0  0  0
 29 23  1  0  0  0  0
 29 22  1  0  0  0  0
M  END
$$$$
