CSD_code = VIKPIP | q = 0 | S = 0 | Stoichiometry = C12H12Cl4N4O4Pt | MND = 6
 OpenBabel04212202113D

 37 38  0  0  0  0  0  0  0  0999 V2000
    3.6893    2.5499    6.2016 Pt  0  0  0  0  0  0  0  0  0  0  0  0
    3.1840    0.9418    7.7635 Cl  0  0  0  0  0  0  0  0  0  0  0  0
    5.9353    2.5541    6.9600 Cl  0  0  0  0  0  0  0  0  0  0  0  0
    4.1641    3.9857    4.7209 N   0  0  0  0  0  0  0  0  0  0  0  0
    5.2945    3.8441    4.0345 C   0  0  0  0  0  3  0  0  0  0  0  0
    5.9859    3.0895    4.3850 H   0  0  0  0  0  0  0  0  0  0  0  0
    5.5878    4.6238    2.9295 C   0  0  0  0  0  0  0  0  0  0  0  0
    6.5265    4.4837    2.4184 H   0  0  0  0  0  0  0  0  0  0  0  0
    4.6691    5.5868    2.5224 C   0  0  0  0  0  0  0  0  0  0  0  0
    3.5050    5.7424    3.2713 C   0  0  0  0  0  0  0  0  0  0  0  0
    2.7870    6.4976    2.9937 H   0  0  0  0  0  0  0  0  0  0  0  0
    3.2874    4.9189    4.3592 C   0  0  0  0  0  0  0  0  0  0  0  0
    2.3783    4.9915    4.9409 H   0  0  0  0  0  0  0  0  0  0  0  0
    4.8819    6.4940    1.3586 C   0  0  0  0  0  0  0  0  0  0  0  0
    4.4250    7.6224    1.2927 O   0  0  0  0  0  0  0  0  0  0  0  0
    5.6572    6.0033    0.3735 N   0  0  0  0  0  0  0  0  0  0  0  0
    5.9084    5.0411    0.2165 H   0  0  0  0  0  0  0  0  0  0  0  0
    5.8265    6.7859   -0.7646 O   0  0  0  0  0  0  0  0  0  0  0  0
    5.3622    7.6213   -0.5442 H   0  0  0  0  0  0  0  0  0  0  0  0
    4.1932    0.9434    4.6378 Cl  0  0  0  0  0  0  0  0  0  0  0  0
    1.4436    2.5537    5.4430 Cl  0  0  0  0  0  0  0  0  0  0  0  0
    3.2150    3.9850    7.6830 N   0  0  0  0  0  0  0  0  0  0  0  0
    2.0851    3.8430    8.3700 C   0  0  0  0  0  3  0  0  0  0  0  0
    1.3940    3.0877    8.0203 H   0  0  0  0  0  0  0  0  0  0  0  0
    1.7920    4.6228    9.4750 C   0  0  0  0  0  0  0  0  0  0  0  0
    0.8537    4.4822    9.9867 H   0  0  0  0  0  0  0  0  0  0  0  0
    2.7104    5.5864    9.8813 C   0  0  0  0  0  0  0  0  0  0  0  0
    3.8740    5.7424    9.1317 C   0  0  0  0  0  0  0  0  0  0  0  0
    4.5918    6.4981    9.4087 H   0  0  0  0  0  0  0  0  0  0  0  0
    4.0914    4.9187    8.0440 C   0  0  0  0  0  0  0  0  0  0  0  0
    5.0002    4.9916    7.4618 H   0  0  0  0  0  0  0  0  0  0  0  0
    2.4979    6.4941   11.0449 C   0  0  0  0  0  0  0  0  0  0  0  0
    2.9546    7.6225   11.1102 O   0  0  0  0  0  0  0  0  0  0  0  0
    1.7230    6.0036   12.0304 N   0  0  0  0  0  0  0  0  0  0  0  0
    1.4718    5.0414   12.1878 H   0  0  0  0  0  0  0  0  0  0  0  0
    1.5539    6.7865   13.1683 O   0  0  0  0  0  0  0  0  0  0  0  0
    2.0179    7.6219   12.9474 H   0  0  0  0  0  0  0  0  0  0  0  0
  1  3  1  0  0  0  0
  1 22  1  0  0  0  0
  1  2  1  0  0  0  0
  4  1  1  0  0  0  0
  5  6  1  0  0  0  0
  5  4  1  0  0  0  0
  7  5  1  0  0  0  0
  8  7  1  0  0  0  0
  9  7  2  0  0  0  0
  9 10  1  0  0  0  0
 10 12  2  0  0  0  0
 11 10  1  0  0  0  0
 12  4  1  0  0  0  0
 12 13  1  0  0  0  0
 14  9  1  0  0  0  0
 15 14  2  0  0  0  0
 16 14  1  0  0  0  0
 17 16  1  0  0  0  0
 18 19  1  0  0  0  0
 18 16  1  0  0  0  0
 20  1  1  0  0  0  0
 21  1  1  0  0  0  0
 22 30  1  0  0  0  0
 22 23  1  0  0  0  0
 23 25  1  0  0  0  0
 24 23  1  0  0  0  0
 25 27  2  0  0  0  0
 25 26  1  0  0  0  0
 27 32  1  0  0  0  0
 28 29  1  0  0  0  0
 28 27  1  0  0  0  0
 30 28  2  0  0  0  0
 31 30  1  0  0  0  0
 32 33  2  0  0  0  0
 32 34  1  0  0  0  0
 34 35  1  0  0  0  0
 34 36  1  0  0  0  0
 37 36  1  0  0  0  0
M  END
$$$$
