CSD_code = VIKYUK | q = 0 | S = 0 | Stoichiometry = C26H36Br2N4Pt | MND = 4
 OpenBabel04212202113D

 69 72  0  0  0  0  0  0  0  0999 V2000
    0.0000   -0.0000   -0.0000 Pt  0  0  0  0  0  0  0  0  0  0  0  0
   -1.5357    1.5831    1.1243 Br  0  0  0  0  0  0  0  0  0  0  0  0
    2.2020    0.8342    1.8730 N   0  0  0  0  0  0  0  0  0  0  0  0
    1.0802   -0.8515    2.6760 N   0  0  0  0  0  0  0  0  0  0  0  0
    1.1816   -0.0086    1.6326 C   0  0  0  0  0  0  0  0  0  0  0  0
    2.7730    0.5382    3.0910 C   0  0  0  0  0  0  0  0  0  0  0  0
    3.8305    1.0907    3.7992 C   0  0  0  0  0  0  0  0  0  0  0  0
    4.3971    1.9255    3.4209 H   0  0  0  0  0  0  0  0  0  0  0  0
    4.1439    0.5347    5.0236 C   0  0  0  0  0  0  0  0  0  0  0  0
    4.9616    0.9453    5.5960 H   0  0  0  0  0  0  0  0  0  0  0  0
    3.4280   -0.5433    5.5362 C   0  0  0  0  0  0  0  0  0  0  0  0
    3.7032   -0.9507    6.4969 H   0  0  0  0  0  0  0  0  0  0  0  0
    2.3734   -1.1026    4.8423 C   0  0  0  0  0  0  0  0  0  0  0  0
    1.8318   -1.9367    5.2574 H   0  0  0  0  0  0  0  0  0  0  0  0
    2.0472   -0.5535    3.6106 C   0  0  0  0  0  0  0  0  0  0  0  0
    2.5819    1.8731    0.9335 C   0  0  0  0  0  0  0  0  0  0  0  0
    1.8790    1.7636    0.0895 H   0  0  0  0  0  0  0  0  0  0  0  0
    3.9941    1.6402    0.4054 C   0  0  0  0  0  0  0  0  0  0  0  0
    4.7346    1.7313    1.1950 H   0  0  0  0  0  0  0  0  0  0  0  0
    4.2199    2.3700   -0.3676 H   0  0  0  0  0  0  0  0  0  0  0  0
    4.0682    0.6447   -0.0275 H   0  0  0  0  0  0  0  0  0  0  0  0
    2.3804    3.2577    1.5415 C   0  0  0  0  0  0  0  0  0  0  0  0
    1.3515    3.3682    1.8777 H   0  0  0  0  0  0  0  0  0  0  0  0
    2.5822    4.0186    0.7925 H   0  0  0  0  0  0  0  0  0  0  0  0
    3.0414    3.4202    2.3881 H   0  0  0  0  0  0  0  0  0  0  0  0
    0.0752   -1.8972    2.7280 C   0  0  0  0  0  0  0  0  0  0  0  0
   -0.4930   -1.7920    1.7876 H   0  0  0  0  0  0  0  0  0  0  0  0
    0.7262   -3.2770    2.7356 C   0  0  0  0  0  0  0  0  0  0  0  0
    1.3805   -3.3822    1.8726 H   0  0  0  0  0  0  0  0  0  0  0  0
   -0.0419   -4.0438    2.6814 H   0  0  0  0  0  0  0  0  0  0  0  0
    1.3120   -3.4355    3.6366 H   0  0  0  0  0  0  0  0  0  0  0  0
   -0.8873   -1.6723    3.8901 C   0  0  0  0  0  0  0  0  0  0  0  0
   -0.3830   -1.7620    4.8480 H   0  0  0  0  0  0  0  0  0  0  0  0
   -1.6869   -2.4071    3.8491 H   0  0  0  0  0  0  0  0  0  0  0  0
   -1.3268   -0.6794    3.8202 H   0  0  0  0  0  0  0  0  0  0  0  0
    1.5357   -1.5831   -1.1243 Br  0  0  0  0  0  0  0  0  0  0  0  0
   -2.2020   -0.8342   -1.8730 N   0  0  0  0  0  0  0  0  0  0  0  0
   -1.0802    0.8515   -2.6760 N   0  0  0  0  0  0  0  0  0  0  0  0
   -1.1816    0.0086   -1.6326 C   0  0  0  0  0  3  0  0  0  0  0  0
   -2.7730   -0.5382   -3.0910 C   0  0  0  0  0  0  0  0  0  0  0  0
   -3.8305   -1.0907   -3.7992 C   0  0  0  0  0  0  0  0  0  0  0  0
   -4.3971   -1.9255   -3.4209 H   0  0  0  0  0  0  0  0  0  0  0  0
   -4.1439   -0.5347   -5.0236 C   0  0  0  0  0  0  0  0  0  0  0  0
   -4.9616   -0.9453   -5.5960 H   0  0  0  0  0  0  0  0  0  0  0  0
   -3.4280    0.5433   -5.5362 C   0  0  0  0  0  0  0  0  0  0  0  0
   -3.7032    0.9507   -6.4969 H   0  0  0  0  0  0  0  0  0  0  0  0
   -2.3734    1.1026   -4.8423 C   0  0  0  0  0  0  0  0  0  0  0  0
   -1.8318    1.9367   -5.2574 H   0  0  0  0  0  0  0  0  0  0  0  0
   -2.0472    0.5535   -3.6106 C   0  0  0  0  0  0  0  0  0  0  0  0
   -2.5819   -1.8731   -0.9335 C   0  0  0  0  0  0  0  0  0  0  0  0
   -1.8790   -1.7636   -0.0895 H   0  0  0  0  0  0  0  0  0  0  0  0
   -3.9941   -1.6402   -0.4054 C   0  0  0  0  0  0  0  0  0  0  0  0
   -4.7346   -1.7313   -1.1950 H   0  0  0  0  0  0  0  0  0  0  0  0
   -4.2199   -2.3700    0.3676 H   0  0  0  0  0  0  0  0  0  0  0  0
   -4.0682   -0.6447    0.0275 H   0  0  0  0  0  0  0  0  0  0  0  0
   -2.3804   -3.2577   -1.5415 C   0  0  0  0  0  0  0  0  0  0  0  0
   -1.3515   -3.3682   -1.8777 H   0  0  0  0  0  0  0  0  0  0  0  0
   -2.5822   -4.0186   -0.7925 H   0  0  0  0  0  0  0  0  0  0  0  0
   -3.0414   -3.4202   -2.3881 H   0  0  0  0  0  0  0  0  0  0  0  0
   -0.0752    1.8972   -2.7280 C   0  0  0  0  0  0  0  0  0  0  0  0
    0.4930    1.7920   -1.7876 H   0  0  0  0  0  0  0  0  0  0  0  0
   -0.7262    3.2770   -2.7356 C   0  0  0  0  0  0  0  0  0  0  0  0
   -1.3805    3.3822   -1.8726 H   0  0  0  0  0  0  0  0  0  0  0  0
    0.0419    4.0438   -2.6814 H   0  0  0  0  0  0  0  0  0  0  0  0
   -1.3120    3.4355   -3.6366 H   0  0  0  0  0  0  0  0  0  0  0  0
    0.8873    1.6723   -3.8901 C   0  0  0  0  0  0  0  0  0  0  0  0
    0.3830    1.7620   -4.8480 H   0  0  0  0  0  0  0  0  0  0  0  0
    1.6869    2.4071   -3.8491 H   0  0  0  0  0  0  0  0  0  0  0  0
    1.3268    0.6794   -3.8202 H   0  0  0  0  0  0  0  0  0  0  0  0
  1  2  1  0  0  0  0
  1  5  2  0  0  0  0
  3  6  1  0  0  0  0
  4 26  1  0  0  0  0
  4 15  1  0  0  0  0
  5  3  1  0  0  0  0
  5  4  1  0  0  0  0
  6 15  2  0  0  0  0
  6  7  1  0  0  0  0
  7  9  2  0  0  0  0
  8  7  1  0  0  0  0
  9 11  1  0  0  0  0
  9 10  1  0  0  0  0
 11 12  1  0  0  0  0
 13 14  1  0  0  0  0
 13 11  2  0  0  0  0
 15 13  1  0  0  0  0
 16 22  1  0  0  0  0
 16  3  1  0  0  0  0
 17 16  1  0  0  0  0
 18 16  1  0  0  0  0
 18 19  1  0  0  0  0
 20 18  1  0  0  0  0
 21 18  1  0  0  0  0
 22 23  1  0  0  0  0
 22 25  1  0  0  0  0
 24 22  1  0  0  0  0
 26 28  1  0  0  0  0
 26 32  1  0  0  0  0
 27 26  1  0  0  0  0
 28 31  1  0  0  0  0
 29 28  1  0  0  0  0
 30 28  1  0  0  0  0
 32 33  1  0  0  0  0
 34 32  1  0  0  0  0
 35 32  1  0  0  0  0
 36  1  1  0  0  0  0
 37 39  1  0  0  0  0
 37 50  1  0  0  0  0
 38 39  1  0  0  0  0
 39  1  1  0  0  0  0
 40 37  1  0  0  0  0
 41 42  1  0  0  0  0
 41 40  2  0  0  0  0
 43 41  1  0  0  0  0
 44 43  1  0  0  0  0
 45 43  2  0  0  0  0
 45 47  1  0  0  0  0
 46 45  1  0  0  0  0
 47 49  2  0  0  0  0
 48 47  1  0  0  0  0
 49 40  1  0  0  0  0
 49 38  1  0  0  0  0
 50 52  1  0  0  0  0
 50 51  1  0  0  0  0
 52 55  1  0  0  0  0
 52 54  1  0  0  0  0
 53 52  1  0  0  0  0
 56 50  1  0  0  0  0
 56 58  1  0  0  0  0
 57 56  1  0  0  0  0
 59 56  1  0  0  0  0
 60 38  1  0  0  0  0
 60 61  1  0  0  0  0
 62 60  1  0  0  0  0
 62 64  1  0  0  0  0
 62 63  1  0  0  0  0
 65 62  1  0  0  0  0
 66 68  1  0  0  0  0
 66 69  1  0  0  0  0
 66 60  1  0  0  0  0
 67 66  1  0  0  0  0
M  END
$$$$
