CSD_code = VIKZIZ | q = 0 | S = 0 | Stoichiometry = C18H23Br2N3Pt | MND = 4
 OpenBabel04212202113D

 47 49  0  0  0  0  0  0  0  0999 V2000
    8.7385    2.1082    2.9911 Pt  0  0  0  0  0  0  0  0  0  0  0  0
   10.3743    3.4998    1.7998 Br  0  0  0  0  0  0  0  0  0  0  0  0
    7.1232    0.7239    4.2222 Br  0  0  0  0  0  0  0  0  0  0  0  0
    9.6833    3.2316    5.5753 N   0  0  0  0  0  0  0  0  0  0  0  0
   10.8167    1.4544    5.0067 N   0  0  0  0  0  0  0  0  0  0  0  0
    7.6434    1.9362    1.3125 N   0  0  0  0  0  0  0  0  0  0  0  0
    9.8199    2.2771    4.6398 C   0  0  0  0  0  0  0  0  0  0  0  0
   10.6101    3.0281    6.5748 C   0  0  0  0  0  0  0  0  0  0  0  0
   10.8964    3.7080    7.7500 C   0  0  0  0  0  0  0  0  0  0  0  0
   10.3509    4.5883    8.0473 H   0  0  0  0  0  0  0  0  0  0  0  0
   11.9160    3.2196    8.5428 C   0  0  0  0  0  0  0  0  0  0  0  0
   12.1597    3.7289    9.4625 H   0  0  0  0  0  0  0  0  0  0  0  0
   12.6362    2.0845    8.1820 C   0  0  0  0  0  0  0  0  0  0  0  0
   13.4256    1.7329    8.8283 H   0  0  0  0  0  0  0  0  0  0  0  0
   12.3630    1.3989    7.0149 C   0  0  0  0  0  0  0  0  0  0  0  0
   12.9322    0.5222    6.7536 H   0  0  0  0  0  0  0  0  0  0  0  0
   11.3415    1.8793    6.2080 C   0  0  0  0  0  0  0  0  0  0  0  0
    8.6798    4.2777    5.4709 C   0  0  0  0  0  0  0  0  0  0  0  0
    8.1433    4.0655    4.5265 H   0  0  0  0  0  0  0  0  0  0  0  0
    7.6788    4.1836    6.6179 C   0  0  0  0  0  0  0  0  0  0  0  0
    7.2470    3.1857    6.6511 H   0  0  0  0  0  0  0  0  0  0  0  0
    6.8774    4.9005    6.4619 H   0  0  0  0  0  0  0  0  0  0  0  0
    8.1490    4.3916    7.5746 H   0  0  0  0  0  0  0  0  0  0  0  0
    9.3383    5.6481    5.3487 C   0  0  0  0  0  0  0  0  0  0  0  0
    9.8898    5.9049    6.2486 H   0  0  0  0  0  0  0  0  0  0  0  0
    8.5772    6.4050    5.1802 H   0  0  0  0  0  0  0  0  0  0  0  0
   10.0256    5.6545    4.5053 H   0  0  0  0  0  0  0  0  0  0  0  0
   11.2101    0.3104    4.2011 C   0  0  0  0  0  0  0  0  0  0  0  0
   10.5422    0.3390    3.3191 H   0  0  0  0  0  0  0  0  0  0  0  0
   12.6476    0.4581    3.7133 C   0  0  0  0  0  0  0  0  0  0  0  0
   12.7632    1.4003    3.1820 H   0  0  0  0  0  0  0  0  0  0  0  0
   12.8861   -0.3534    3.0313 H   0  0  0  0  0  0  0  0  0  0  0  0
   13.3527    0.4355    4.5392 H   0  0  0  0  0  0  0  0  0  0  0  0
   10.9529   -0.9916    4.9530 C   0  0  0  0  0  0  0  0  0  0  0  0
   11.5817   -1.0712    5.8351 H   0  0  0  0  0  0  0  0  0  0  0  0
   11.1598   -1.8363    4.3018 H   0  0  0  0  0  0  0  0  0  0  0  0
    9.9110   -1.0403    5.2622 H   0  0  0  0  0  0  0  0  0  0  0  0
    7.0947    3.0075    0.7427 C   0  0  0  0  0  3  0  0  0  0  0  0
    7.2758    3.9620    1.2244 H   0  0  0  0  0  0  0  0  0  0  0  0
    6.3364    2.9286   -0.4103 C   0  0  0  0  0  0  0  0  0  0  0  0
    5.9101    3.8238   -0.8341 H   0  0  0  0  0  0  0  0  0  0  0  0
    6.1442    1.6904   -1.0030 C   0  0  0  0  0  0  0  0  0  0  0  0
    5.5608    1.5947   -1.9059 H   0  0  0  0  0  0  0  0  0  0  0  0
    6.7195    0.5780   -0.4089 C   0  0  0  0  0  0  0  0  0  0  0  0
    6.5989   -0.4069   -0.8309 H   0  0  0  0  0  0  0  0  0  0  0  0
    7.4568    0.7445    0.7484 C   0  0  0  0  0  0  0  0  0  0  0  0
    7.9076   -0.1065    1.2469 H   0  0  0  0  0  0  0  0  0  0  0  0
  1  3  1  0  0  0  0
  1  7  2  0  0  0  0
  2  1  1  0  0  0  0
  4  8  1  0  0  0  0
  5 17  1  0  0  0  0
  6  1  1  0  0  0  0
  7  5  1  0  0  0  0
  7  4  1  0  0  0  0
  8  9  1  0  0  0  0
  9 10  1  0  0  0  0
  9 11  2  0  0  0  0
 11 12  1  0  0  0  0
 13 11  1  0  0  0  0
 13 14  1  0  0  0  0
 15 13  2  0  0  0  0
 16 15  1  0  0  0  0
 17  8  2  0  0  0  0
 17 15  1  0  0  0  0
 18  4  1  0  0  0  0
 18 20  1  0  0  0  0
 19 18  1  0  0  0  0
 20 21  1  0  0  0  0
 20 23  1  0  0  0  0
 22 20  1  0  0  0  0
 24 18  1  0  0  0  0
 24 25  1  0  0  0  0
 26 24  1  0  0  0  0
 27 24  1  0  0  0  0
 28 34  1  0  0  0  0
 28  5  1  0  0  0  0
 29 28  1  0  0  0  0
 30 28  1  0  0  0  0
 30 33  1  0  0  0  0
 31 30  1  0  0  0  0
 32 30  1  0  0  0  0
 34 37  1  0  0  0  0
 34 35  1  0  0  0  0
 36 34  1  0  0  0  0
 38 39  1  0  0  0  0
 38  6  1  0  0  0  0
 40 38  1  0  0  0  0
 41 40  1  0  0  0  0
 42 40  2  0  0  0  0
 42 44  1  0  0  0  0
 43 42  1  0  0  0  0
 44 46  2  0  0  0  0
 45 44  1  0  0  0  0
 46 47  1  0  0  0  0
 46  6  1  0  0  0  0
M  END
$$$$
