CSD_code = VILDEB | q = 0 | S = 0 | Stoichiometry = C19H37Cl2NNiP2S | MND = 4
 OpenBabel04212202113D

 63 64  0  0  0  0  0  0  0  0999 V2000
    3.4746   12.1481    3.5037 Ni  0  0  0  0  0  0  0  0  0  0  0  0
    2.4723   10.5978    2.4960 Cl  0  0  0  0  0  0  0  0  0  0  0  0
    2.6699   13.6982    2.3272 Cl  0  0  0  0  0  0  0  0  0  0  0  0
    9.1602   11.6047    4.1737 S   0  0  0  0  0  0  0  0  0  0  0  0
    3.9470   10.5975    4.9240 P   0  0  0  0  0  4  0  0  0  0  0  0
    4.7764   13.7010    4.2280 P   0  0  0  0  0  4  0  0  0  0  0  0
    6.2037   11.9108    5.7377 N   0  0  0  0  0  0  0  0  0  0  0  0
    5.1569   11.0590    6.2686 C   0  0  0  0  0  0  0  0  0  0  0  0
    4.6194   11.5480    7.1001 H   0  0  0  0  0  0  0  0  0  0  0  0
    5.5972   10.1400    6.6584 H   0  0  0  0  0  0  0  0  0  0  0  0
    5.8038   13.3056    5.7282 C   0  0  0  0  0  0  0  0  0  0  0  0
    6.7001   13.9295    5.6900 H   0  0  0  0  0  0  0  0  0  0  0  0
    5.2406   13.5657    6.6430 H   0  0  0  0  0  0  0  0  0  0  0  0
    4.5068    8.9064    4.3935 C   0  0  0  0  0  0  0  0  0  0  0  0
    3.6590    8.5239    3.8149 H   0  0  0  0  0  0  0  0  0  0  0  0
    5.7009    9.0516    3.4553 C   0  0  0  0  0  0  0  0  0  0  0  0
    5.4188    9.6510    2.5918 H   0  0  0  0  0  0  0  0  0  0  0  0
    6.0252    8.0745    3.1021 H   0  0  0  0  0  0  0  0  0  0  0  0
    6.5380    9.5320    3.9611 H   0  0  0  0  0  0  0  0  0  0  0  0
    4.8169    7.9450    5.5374 C   0  0  0  0  0  0  0  0  0  0  0  0
    5.7987    8.1416    5.9643 H   0  0  0  0  0  0  0  0  0  0  0  0
    4.8285    6.9259    5.1544 H   0  0  0  0  0  0  0  0  0  0  0  0
    4.0740    7.9990    6.3303 H   0  0  0  0  0  0  0  0  0  0  0  0
    2.4344   10.3195    5.9847 C   0  0  0  0  0  0  0  0  0  0  0  0
    2.7824   10.0058    6.9792 H   0  0  0  0  0  0  0  0  0  0  0  0
    1.4687    9.2788    5.4318 C   0  0  0  0  0  0  0  0  0  0  0  0
    1.1856    9.5309    4.4128 H   0  0  0  0  0  0  0  0  0  0  0  0
    0.5691    9.2565    6.0455 H   0  0  0  0  0  0  0  0  0  0  0  0
    1.9055    8.2837    5.4350 H   0  0  0  0  0  0  0  0  0  0  0  0
    1.7482   11.6821    6.0890 C   0  0  0  0  0  0  0  0  0  0  0  0
    2.3990   12.4150    6.5671 H   0  0  0  0  0  0  0  0  0  0  0  0
    0.8252   11.6163    6.6622 H   0  0  0  0  0  0  0  0  0  0  0  0
    1.4994   12.0412    5.0806 H   0  0  0  0  0  0  0  0  0  0  0  0
    6.1198   13.9042    2.9485 C   0  0  0  0  0  0  0  0  0  0  0  0
    7.0460   14.1780    3.4713 H   0  0  0  0  0  0  0  0  0  0  0  0
    5.8034   14.9507    1.8863 C   0  0  0  0  0  0  0  0  0  0  0  0
    4.8320   14.7537    1.4386 H   0  0  0  0  0  0  0  0  0  0  0  0
    6.5585   14.9083    1.1026 H   0  0  0  0  0  0  0  0  0  0  0  0
    5.8013   15.9567    2.2988 H   0  0  0  0  0  0  0  0  0  0  0  0
    6.2878   12.5247    2.3144 C   0  0  0  0  0  0  0  0  0  0  0  0
    6.5630   11.7954    3.0748 H   0  0  0  0  0  0  0  0  0  0  0  0
    7.0555   12.5342    1.5426 H   0  0  0  0  0  0  0  0  0  0  0  0
    5.3395   12.2181    1.8507 H   0  0  0  0  0  0  0  0  0  0  0  0
    4.1824   15.4162    4.6256 C   0  0  0  0  0  0  0  0  0  0  0  0
    3.8614   15.8238    3.6616 H   0  0  0  0  0  0  0  0  0  0  0  0
    5.2589   16.3128    5.2288 C   0  0  0  0  0  0  0  0  0  0  0  0
    5.4917   16.0184    6.2500 H   0  0  0  0  0  0  0  0  0  0  0  0
    4.9003   17.3407    5.2533 H   0  0  0  0  0  0  0  0  0  0  0  0
    6.1750   16.2884    4.6426 H   0  0  0  0  0  0  0  0  0  0  0  0
    2.9541   15.3278    5.5272 C   0  0  0  0  0  0  0  0  0  0  0  0
    2.1989   14.6982    5.0585 H   0  0  0  0  0  0  0  0  0  0  0  0
    2.5264   16.3163    5.6821 H   0  0  0  0  0  0  0  0  0  0  0  0
    3.2069   14.9113    6.5019 H   0  0  0  0  0  0  0  0  0  0  0  0
    7.4880   11.7220    6.4130 C   0  0  0  0  0  0  0  0  0  0  0  0
    7.6697   10.6459    6.4889 H   0  0  0  0  0  0  0  0  0  0  0  0
    7.4796   12.1445    7.4333 H   0  0  0  0  0  0  0  0  0  0  0  0
    8.5958   12.3458    5.6337 C   0  0  0  0  0  0  0  0  0  0  0  0
    9.2568   13.5109    5.8779 C   0  0  0  0  0  0  0  0  0  0  0  0
    9.0728   14.1288    6.7400 H   0  0  0  0  0  0  0  0  0  0  0  0
   10.2231   13.8173    4.8931 C   0  0  0  0  0  0  0  0  0  0  0  0
   10.8431   14.6953    4.9187 H   0  0  0  0  0  0  0  0  0  0  0  0
   10.2789   12.8812    3.9135 C   0  0  0  0  0  0  0  0  0  0  0  0
   10.9119   12.8573    3.0492 H   0  0  0  0  0  0  0  0  0  0  0  0
  1  6  1  0  0  0  0
  1  5  1  0  0  0  0
  2  1  1  0  0  0  0
  3  1  1  0  0  0  0
  4 57  1  0  0  0  0
  5 24  1  0  0  0  0
  5  8  1  0  0  0  0
  6 44  1  0  0  0  0
  6 11  1  0  0  0  0
  7  8  1  0  0  0  0
  7 54  1  0  0  0  0
  8 10  1  0  0  0  0
  8  9  1  0  0  0  0
 11  7  1  0  0  0  0
 11 13  1  0  0  0  0
 12 11  1  0  0  0  0
 14  5  1  0  0  0  0
 14 20  1  0  0  0  0
 15 14  1  0  0  0  0
 16 19  1  0  0  0  0
 16 14  1  0  0  0  0
 17 16  1  0  0  0  0
 18 16  1  0  0  0  0
 20 21  1  0  0  0  0
 20 23  1  0  0  0  0
 22 20  1  0  0  0  0
 24 30  1  0  0  0  0
 24 25  1  0  0  0  0
 26 29  1  0  0  0  0
 26 24  1  0  0  0  0
 26 28  1  0  0  0  0
 27 26  1  0  0  0  0
 30 31  1  0  0  0  0
 30 32  1  0  0  0  0
 33 30  1  0  0  0  0
 34 35  1  0  0  0  0
 34  6  1  0  0  0  0
 36 39  1  0  0  0  0
 36 34  1  0  0  0  0
 37 36  1  0  0  0  0
 38 36  1  0  0  0  0
 40 34  1  0  0  0  0
 40 41  1  0  0  0  0
 42 40  1  0  0  0  0
 43 40  1  0  0  0  0
 44 46  1  0  0  0  0
 44 50  1  0  0  0  0
 45 44  1  0  0  0  0
 46 48  1  0  0  0  0
 46 47  1  0  0  0  0
 49 46  1  0  0  0  0
 50 52  1  0  0  0  0
 50 53  1  0  0  0  0
 51 50  1  0  0  0  0
 54 55  1  0  0  0  0
 54 56  1  0  0  0  0
 57 58  2  0  0  0  0
 57 54  1  0  0  0  0
 58 59  1  0  0  0  0
 60 61  1  0  0  0  0
 60 58  1  0  0  0  0
 62  4  1  0  0  0  0
 62 60  2  0  0  0  0
 63 62  1  0  0  0  0
M  END
$$$$
