CSD_code = VILSIU | q = 0 | S = 0 | Stoichiometry = C22H28Cl4NNbO2 | MND = 6
 OpenBabel04212202113D

 58 60  0  0  0  0  0  0  0  0999 V2000
    5.0870    2.9980    3.1270 Nb  0  0  0  0  0  0  0  0  0  0  0  0
    5.3400    3.8735    0.8948 Cl  0  0  0  0  0  0  0  0  0  0  0  0
    7.2718    3.3069    3.4795 Cl  0  0  0  0  0  0  0  0  0  0  0  0
    5.3448    0.7841    2.6534 Cl  0  0  0  0  0  0  0  0  0  0  0  0
    4.6997    2.7905    5.4935 Cl  0  0  0  0  0  0  0  0  0  0  0  0
    4.5448    5.2624    3.5687 N   0  0  0  0  0  0  0  0  0  0  0  0
    3.3219    3.0747    2.8930 O   0  0  0  0  0  0  0  0  0  0  0  0
    5.1966    7.0963    1.7018 O   0  0  0  0  0  0  0  0  0  0  0  0
    2.1782    3.6877    2.8118 C   0  0  0  0  0  0  0  0  0  0  0  0
    2.1804    5.0885    3.0388 C   0  0  0  0  0  0  0  0  0  0  0  0
    0.9784    5.8009    2.9497 C   0  0  0  0  0  0  0  0  0  0  0  0
    1.0148    6.8636    3.1246 H   0  0  0  0  0  0  0  0  0  0  0  0
   -0.2112    5.1668    2.6539 C   0  0  0  0  0  0  0  0  0  0  0  0
   -0.1814    3.7844    2.4330 C   0  0  0  0  0  0  0  0  0  0  0  0
   -1.1084    3.2904    2.1983 H   0  0  0  0  0  0  0  0  0  0  0  0
    0.9710    3.0244    2.4972 C   0  0  0  0  0  0  0  0  0  0  0  0
    5.6535    6.0977    3.7798 C   0  0  0  0  0  0  0  0  0  0  0  0
    6.4408    5.9367    4.9124 C   0  0  0  0  0  0  0  0  0  0  0  0
    6.1378    5.2116    5.6564 H   0  0  0  0  0  0  0  0  0  0  0  0
    7.5897    6.6901    5.0703 C   0  0  0  0  0  0  0  0  0  0  0  0
    8.1952    6.5674    5.9543 H   0  0  0  0  0  0  0  0  0  0  0  0
    7.9685    7.5801    4.0804 C   0  0  0  0  0  0  0  0  0  0  0  0
    8.8754    8.1555    4.1884 H   0  0  0  0  0  0  0  0  0  0  0  0
    7.2011    7.7381    2.9386 C   0  0  0  0  0  0  0  0  0  0  0  0
    7.5209    8.4285    2.1741 H   0  0  0  0  0  0  0  0  0  0  0  0
    6.0246    7.0163    2.7789 C   0  0  0  0  0  0  0  0  0  0  0  0
    3.3954    5.7929    3.3490 C   0  0  0  0  0  3  0  0  0  0  0  0
    3.2982    6.8796    3.4236 H   0  0  0  0  0  0  0  0  0  0  0  0
   -1.5403    5.8987    2.5526 C   0  0  0  0  0  0  0  0  0  0  0  0
   -1.4066    7.3972    2.8355 C   0  0  0  0  0  0  0  0  0  0  0  0
   -2.3839    7.8683    2.7554 H   0  0  0  0  0  0  0  0  0  0  0  0
   -0.7456    7.8745    2.1161 H   0  0  0  0  0  0  0  0  0  0  0  0
   -1.0316    7.5732    3.8408 H   0  0  0  0  0  0  0  0  0  0  0  0
   -2.5194    5.3044    3.5750 C   0  0  0  0  0  0  0  0  0  0  0  0
   -2.7190    4.2555    3.3756 H   0  0  0  0  0  0  0  0  0  0  0  0
   -3.4646    5.8412    3.5402 H   0  0  0  0  0  0  0  0  0  0  0  0
   -2.1109    5.3895    4.5795 H   0  0  0  0  0  0  0  0  0  0  0  0
   -2.0973    5.7250    1.1324 C   0  0  0  0  0  0  0  0  0  0  0  0
   -2.2818    4.6799    0.9013 H   0  0  0  0  0  0  0  0  0  0  0  0
   -1.3926    6.1166    0.4022 H   0  0  0  0  0  0  0  0  0  0  0  0
   -3.0356    6.2655    1.0315 H   0  0  0  0  0  0  0  0  0  0  0  0
    1.0009    1.5245    2.2433 C   0  0  0  0  0  0  0  0  0  0  0  0
   -0.3881    0.9594    1.9294 C   0  0  0  0  0  0  0  0  0  0  0  0
   -0.3062   -0.1110    1.7569 H   0  0  0  0  0  0  0  0  0  0  0  0
   -0.8036    1.4104    1.0311 H   0  0  0  0  0  0  0  0  0  0  0  0
   -1.0725    1.1121    2.7608 H   0  0  0  0  0  0  0  0  0  0  0  0
    1.9138    1.2416    1.0397 C   0  0  0  0  0  0  0  0  0  0  0  0
    1.9429    0.1722    0.8447 H   0  0  0  0  0  0  0  0  0  0  0  0
    2.9353    1.5806    1.2149 H   0  0  0  0  0  0  0  0  0  0  0  0
    1.5330    1.7456    0.1532 H   0  0  0  0  0  0  0  0  0  0  0  0
    1.5335    0.8118    3.4964 C   0  0  0  0  0  0  0  0  0  0  0  0
    1.5269   -0.2639    3.3370 H   0  0  0  0  0  0  0  0  0  0  0  0
    0.9028    1.0386    4.3541 H   0  0  0  0  0  0  0  0  0  0  0  0
    2.5554    1.1108    3.7318 H   0  0  0  0  0  0  0  0  0  0  0  0
    5.7099    7.6379    0.5051 C   0  0  0  0  0  0  0  0  0  0  0  0
    4.9667    7.4128   -0.2578 H   0  0  0  0  0  0  0  0  0  0  0  0
    6.6590    7.1693    0.2336 H   0  0  0  0  0  0  0  0  0  0  0  0
    5.8390    8.7228    0.5797 H   0  0  0  0  0  0  0  0  0  0  0  0
  1  3  1  0  0  0  0
  1  6  1  0  0  0  0
  1  5  1  0  0  0  0
  2  1  1  0  0  0  0
  4  1  1  0  0  0  0
  6 17  1  0  0  0  0
  7  1  1  0  0  0  0
  8 26  1  0  0  0  0
  9  7  1  0  0  0  0
  9 10  1  0  0  0  0
 10 27  1  0  0  0  0
 11 10  2  0  0  0  0
 11 12  1  0  0  0  0
 13 11  1  0  0  0  0
 14 16  1  0  0  0  0
 14 13  2  0  0  0  0
 15 14  1  0  0  0  0
 16  9  2  0  0  0  0
 17 18  1  0  0  0  0
 18 20  2  0  0  0  0
 18 19  1  0  0  0  0
 20 21  1  0  0  0  0
 22 23  1  0  0  0  0
 22 20  1  0  0  0  0
 24 22  2  0  0  0  0
 25 24  1  0  0  0  0
 26 24  1  0  0  0  0
 26 17  2  0  0  0  0
 27 28  1  0  0  0  0
 27  6  1  0  0  0  0
 29 13  1  0  0  0  0
 29 30  1  0  0  0  0
 29 34  1  0  0  0  0
 30 33  1  0  0  0  0
 31 30  1  0  0  0  0
 32 30  1  0  0  0  0
 34 37  1  0  0  0  0
 35 34  1  0  0  0  0
 36 34  1  0  0  0  0
 38 29  1  0  0  0  0
 39 38  1  0  0  0  0
 40 38  1  0  0  0  0
 41 38  1  0  0  0  0
 42 16  1  0  0  0  0
 42 51  1  0  0  0  0
 43 42  1  0  0  0  0
 43 46  1  0  0  0  0
 44 43  1  0  0  0  0
 45 43  1  0  0  0  0
 47 49  1  0  0  0  0
 47 42  1  0  0  0  0
 48 47  1  0  0  0  0
 50 47  1  0  0  0  0
 51 54  1  0  0  0  0
 51 53  1  0  0  0  0
 52 51  1  0  0  0  0
 55 58  1  0  0  0  0
 55  8  1  0  0  0  0
 56 55  1  0  0  0  0
 57 55  1  0  0  0  0
M  END
$$$$
