CSD_code = VILTAM | q = 0 | S = 0 | Stoichiometry = C24H21ClN3OPPdS | MND = 4
 OpenBabel04212202113D

 53 57  0  0  0  0  0  0  0  0999 V2000
   -1.4401   -2.0443   12.1806 C   0  0  0  0  0  0  0  0  0  0  0  0
   -0.0590   -1.8426   12.2012 C   0  0  0  0  0  0  0  0  0  0  0  0
    0.3982   -1.2150   11.4238 H   0  0  0  0  0  0  0  0  0  0  0  0
    0.7082   -2.4018   13.2033 C   0  0  0  0  0  0  0  0  0  0  0  0
    1.7763   -2.2430   13.2236 H   0  0  0  0  0  0  0  0  0  0  0  0
    0.0982   -3.1558   14.1955 C   0  0  0  0  0  0  0  0  0  0  0  0
    0.6945   -3.5868   14.9861 H   0  0  0  0  0  0  0  0  0  0  0  0
   -1.2735   -3.3411   14.1862 C   0  0  0  0  0  0  0  0  0  0  0  0
   -1.7458   -3.9135   14.9713 H   0  0  0  0  0  0  0  0  0  0  0  0
   -2.0490   -2.7885   13.1797 C   0  0  0  0  0  0  0  0  0  0  0  0
   -3.1211   -2.9159   13.1883 H   0  0  0  0  0  0  0  0  0  0  0  0
   -2.3166   -2.5170    9.5028 C   0  0  0  0  0  0  0  0  0  0  0  0
   -1.7313   -3.7682    9.6452 C   0  0  0  0  0  0  0  0  0  0  0  0
   -1.2156   -4.0236   10.5607 H   0  0  0  0  0  0  0  0  0  0  0  0
   -1.8099   -4.6840    8.6096 C   0  0  0  0  0  0  0  0  0  0  0  0
   -1.3549   -5.6576    8.7205 H   0  0  0  0  0  0  0  0  0  0  0  0
   -2.4647   -4.3550    7.4352 C   0  0  0  0  0  0  0  0  0  0  0  0
   -2.5204   -5.0726    6.6299 H   0  0  0  0  0  0  0  0  0  0  0  0
   -3.0430   -3.1030    7.2880 C   0  0  0  0  0  0  0  0  0  0  0  0
   -3.5468   -2.8441    6.3685 H   0  0  0  0  0  0  0  0  0  0  0  0
   -2.9674   -2.1859    8.3169 C   0  0  0  0  0  0  0  0  0  0  0  0
   -3.3995   -1.1973    8.2130 H   0  0  0  0  0  0  0  0  0  0  0  0
   -4.0320   -0.9626   11.0714 C   0  0  0  0  0  0  0  0  0  0  0  0
   -4.9195   -1.9996   11.3398 C   0  0  0  0  0  0  0  0  0  0  0  0
   -4.5569   -3.0160   11.4101 H   0  0  0  0  0  0  0  0  0  0  0  0
   -6.2662   -1.7252   11.4938 C   0  0  0  0  0  0  0  0  0  0  0  0
   -6.9564   -2.5265   11.7147 H   0  0  0  0  0  0  0  0  0  0  0  0
   -6.7331   -0.4273   11.3569 C   0  0  0  0  0  0  0  0  0  0  0  0
   -7.7857   -0.2194   11.4799 H   0  0  0  0  0  0  0  0  0  0  0  0
   -5.8570    0.6011   11.0483 C   0  0  0  0  0  0  0  0  0  0  0  0
   -6.2272    1.6077   10.9226 H   0  0  0  0  0  0  0  0  0  0  0  0
   -4.5079    0.3354   10.9016 C   0  0  0  0  0  0  0  0  0  0  0  0
   -3.8014    1.1382   10.6560 H   0  0  0  0  0  0  0  0  0  0  0  0
    0.0781    1.9890    8.0842 C   0  0  0  0  0  0  0  0  0  0  0  0
   -0.0933    3.3529   11.2329 C   0  0  0  0  0  3  0  0  0  0  0  0
   -0.4995    3.0759   12.2005 H   0  0  0  0  0  0  0  0  0  0  0  0
    0.5781    4.6119   11.1629 C   0  0  0  0  0  0  0  0  0  0  0  0
    1.1983    5.3060   10.1429 C   0  0  0  0  0  0  0  0  0  0  0  0
    1.2853    4.9789    9.1288 H   0  0  0  0  0  0  0  0  0  0  0  0
    1.6716    6.5035   10.7111 C   0  0  0  0  0  0  0  0  0  0  0  0
    2.2043    7.2885   10.2143 H   0  0  0  0  0  0  0  0  0  0  0  0
    1.3136    6.4628   12.0281 C   0  0  0  0  0  0  0  0  0  0  0  0
    1.4674    7.1568   12.8312 H   0  0  0  0  0  0  0  0  0  0  0  0
    0.5209    2.3114    6.8481 N   0  0  0  0  0  0  0  0  0  0  0  0
    1.1123    3.1168    6.7418 H   0  0  0  0  0  0  0  0  0  0  0  0
    0.5499    1.5893    6.1504 H   0  0  0  0  0  0  0  0  0  0  0  0
    0.2355    2.8473    9.0460 N   0  0  0  0  0  0  0  0  0  0  0  0
   -0.2647    2.5169   10.2569 N   0  0  0  0  0  0  0  0  0  0  0  0
   -2.2602   -1.2241   10.7860 P   0  0  0  0  0  4  0  0  0  0  0  0
   -0.6973    0.4431    8.2309 S   0  0  0  0  0  0  0  0  0  0  0  0
   -1.7564    0.9858   12.6771 Cl  0  0  0  0  0  0  0  0  0  0  0  0
   -1.2210    0.7212   10.4622 Pd  0  0  2  0  0  0  0  0  0  0  0  0
    0.6576    5.3346   12.3108 O   0  0  0  0  0  0  0  0  0  0  0  0
  1  2  2  0  0  0  0
  1 10  1  0  0  0  0
  2  4  1  0  0  0  0
  3  2  1  0  0  0  0
  4  5  1  0  0  0  0
  4  6  2  0  0  0  0
  6  7  1  0  0  0  0
  8  6  1  0  0  0  0
  8  9  1  0  0  0  0
 10 11  1  0  0  0  0
 10  8  2  0  0  0  0
 12 13  1  0  0  0  0
 12 49  1  0  0  0  0
 13 14  1  0  0  0  0
 15 16  1  0  0  0  0
 15 13  2  0  0  0  0
 17 15  1  0  0  0  0
 18 17  1  0  0  0  0
 19 17  2  0  0  0  0
 19 21  1  0  0  0  0
 20 19  1  0  0  0  0
 21 12  2  0  0  0  0
 22 21  1  0  0  0  0
 23 24  1  0  0  0  0
 24 25  1  0  0  0  0
 24 26  2  0  0  0  0
 26 27  1  0  0  0  0
 28 29  1  0  0  0  0
 28 26  1  0  0  0  0
 30 28  2  0  0  0  0
 31 30  1  0  0  0  0
 32 30  1  0  0  0  0
 32 23  2  0  0  0  0
 33 32  1  0  0  0  0
 34 50  1  0  0  0  0
 34 47  2  0  0  0  0
 35 36  1  0  0  0  0
 37 35  1  0  0  0  0
 37 53  1  0  0  0  0
 38 40  1  0  0  0  0
 38 37  2  0  0  0  0
 39 38  1  0  0  0  0
 40 42  2  0  0  0  0
 41 40  1  0  0  0  0
 42 53  1  0  0  0  0
 42 43  1  0  0  0  0
 44 34  1  0  0  0  0
 45 44  1  0  0  0  0
 46 44  1  0  0  0  0
 47 48  1  0  0  0  0
 48 52  1  0  0  0  0
 48 35  1  0  0  0  0
 49 23  1  0  0  0  0
 49  1  1  0  0  0  0
 50 52  1  0  0  0  0
 52 49  1  0  0  0  0
 52 51  1  6  0  0  0
M  END
$$$$
