CSD_code = VIMDIG | q = 0 | S = 0 | Stoichiometry = C29H31Cl4N2OTa | MND = 6
 OpenBabel04212202113D

 68 72  0  0  1  0  0  0  0  0999 V2000
    7.5319    4.0355   15.3880 Ta  0  0  0  0  0  0  0  0  0  0  0  0
    5.7608    2.6795   14.6516 Cl  0  0  0  0  0  0  0  0  0  0  0  0
    8.6878    3.6434   13.5211 Cl  0  0  0  0  0  0  0  0  0  0  0  0
    8.6547    2.4296   16.5180 Cl  0  0  0  0  0  0  0  0  0  0  0  0
    8.9673    5.8702   15.8528 Cl  0  0  0  0  0  0  0  0  0  0  0  0
    6.5437    4.5490   16.7877 O   0  0  0  0  0  0  0  0  0  0  0  0
    5.7611    5.3601   17.4611 C   0  0  0  0  0  0  0  0  0  0  0  0
    5.2686    6.4966   16.7810 C   0  0  0  0  0  0  0  0  0  0  0  0
    4.4467    7.4013   17.4595 C   0  0  0  0  0  0  0  0  0  0  0  0
    4.0585    8.2529   16.9270 H   0  0  0  0  0  0  0  0  0  0  0  0
    4.1074    7.2124   18.7849 C   0  0  0  0  0  0  0  0  0  0  0  0
    3.2211    8.1771   19.5581 C   0  0  0  0  0  0  0  0  0  0  0  0
    2.7691    9.3717   18.7133 C   0  0  0  0  0  0  0  0  0  0  0  0
    2.1447   10.0249   19.3188 H   0  0  0  0  0  0  0  0  0  0  0  0
    2.1802    9.0482   17.8580 H   0  0  0  0  0  0  0  0  0  0  0  0
    3.6217    9.9523   18.3685 H   0  0  0  0  0  0  0  0  0  0  0  0
    4.0035    8.7159   20.7641 C   0  0  0  0  0  0  0  0  0  0  0  0
    3.3972    9.4341   21.3113 H   0  0  0  0  0  0  0  0  0  0  0  0
    4.9122    9.2128   20.4316 H   0  0  0  0  0  0  0  0  0  0  0  0
    4.2821    7.9186   21.4465 H   0  0  0  0  0  0  0  0  0  0  0  0
    1.9691    7.4303   20.0387 C   0  0  0  0  0  0  0  0  0  0  0  0
    1.3134    8.1099   20.5781 H   0  0  0  0  0  0  0  0  0  0  0  0
    2.2262    6.6093   20.7012 H   0  0  0  0  0  0  0  0  0  0  0  0
    1.4238    7.0249   19.1893 H   0  0  0  0  0  0  0  0  0  0  0  0
    4.6071    6.0810   19.4320 C   0  0  0  0  0  0  0  0  0  0  0  0
    4.3430    5.9290   20.4636 H   0  0  0  0  0  0  0  0  0  0  0  0
    5.4207    5.1494   18.8141 C   0  0  0  0  0  0  0  0  0  0  0  0
    5.9728    3.9321   19.5405 C   0  0  0  0  0  0  0  0  0  0  0  0
    5.4660    3.8279   20.9829 C   0  0  0  0  0  0  0  0  0  0  0  0
    4.3821    3.7435   21.0148 H   0  0  0  0  0  0  0  0  0  0  0  0
    5.7803    4.6831   21.5765 H   0  0  0  0  0  0  0  0  0  0  0  0
    5.8843    2.9348   21.4408 H   0  0  0  0  0  0  0  0  0  0  0  0
    5.5463    2.6566   18.7993 C   0  0  0  0  0  0  0  0  0  0  0  0
    5.9330    2.6330   17.7832 H   0  0  0  0  0  0  0  0  0  0  0  0
    4.4606    2.5930   18.7567 H   0  0  0  0  0  0  0  0  0  0  0  0
    5.9242    1.7826   19.3243 H   0  0  0  0  0  0  0  0  0  0  0  0
    7.5039    4.0427   19.5805 C   0  0  0  0  0  0  0  0  0  0  0  0
    7.9242    4.1082   18.5796 H   0  0  0  0  0  0  0  0  0  0  0  0
    7.9256    3.1681   20.0695 H   0  0  0  0  0  0  0  0  0  0  0  0
    7.8010    4.9299   20.1367 H   0  0  0  0  0  0  0  0  0  0  0  0
    6.1878    5.8565   14.5458 N   0  0  0  0  0  0  0  0  0  0  0  0
    5.6096    6.7137   15.3896 C   0  0  1  0  0  3  0  0  0  0  0  0
    5.3295    7.8593   14.7302 N   0  0  0  0  0  0  0  0  0  0  0  0
    4.8950    8.6777   15.1234 H   0  0  0  0  0  0  0  0  0  0  0  0
    5.7240    7.7357   13.4234 C   0  0  0  0  0  0  0  0  0  0  0  0
    6.2580    6.4659   13.3252 C   0  0  0  0  0  0  0  0  0  0  0  0
    5.5327    8.7896   12.4426 C   0  0  0  0  0  0  0  0  0  0  0  0
    5.3139    8.4792   11.1000 C   0  0  0  0  0  0  0  0  0  0  0  0
    5.2850    7.4456   10.7933 H   0  0  0  0  0  0  0  0  0  0  0  0
    5.1242    9.4867   10.1744 C   0  0  0  0  0  0  0  0  0  0  0  0
    4.9551    9.2343    9.1385 H   0  0  0  0  0  0  0  0  0  0  0  0
    5.1454   10.8149   10.5695 C   0  0  0  0  0  0  0  0  0  0  0  0
    4.9972   11.5996    9.8434 H   0  0  0  0  0  0  0  0  0  0  0  0
    5.3592   11.1322   11.9004 C   0  0  0  0  0  0  0  0  0  0  0  0
    5.3810   12.1654   12.2137 H   0  0  0  0  0  0  0  0  0  0  0  0
    5.5504   10.1296   12.8324 C   0  0  0  0  0  0  0  0  0  0  0  0
    5.7433   10.3920   13.8631 H   0  0  0  0  0  0  0  0  0  0  0  0
    6.8170    5.8044   12.1466 C   0  0  0  0  0  0  0  0  0  0  0  0
    7.8272    6.4160   11.4094 C   0  0  0  0  0  0  0  0  0  0  0  0
    8.2126    7.3735   11.7271 H   0  0  0  0  0  0  0  0  0  0  0  0
    8.3434    5.7871   10.2921 C   0  0  0  0  0  0  0  0  0  0  0  0
    9.1375    6.2575    9.7315 H   0  0  0  0  0  0  0  0  0  0  0  0
    7.8512    4.5538    9.8974 C   0  0  0  0  0  0  0  0  0  0  0  0
    8.2602    4.0637    9.0264 H   0  0  0  0  0  0  0  0  0  0  0  0
    6.8426    3.9451   10.6255 C   0  0  0  0  0  0  0  0  0  0  0  0
    6.4630    2.9802   10.3250 H   0  0  0  0  0  0  0  0  0  0  0  0
    6.3267    4.5625   11.7502 C   0  0  0  0  0  0  0  0  0  0  0  0
    5.5489    4.0870   12.3298 H   0  0  0  0  0  0  0  0  0  0  0  0
  1  5  1  0  0  0  0
  1  4  1  0  0  0  0
  1  6  1  0  0  0  0
  2  1  1  0  0  0  0
  3  1  1  0  0  0  0
  6  7  1  0  0  0  0
  7 27  1  0  0  0  0
  8  9  1  0  0  0  0
  8  7  2  0  0  0  0
  9 11  2  0  0  0  0
 10  9  1  0  0  0  0
 11 25  1  0  0  0  0
 11 12  1  0  0  0  0
 12 21  1  0  0  0  0
 12 17  1  0  0  0  0
 13 14  1  0  0  0  0
 13 12  1  0  0  0  0
 15 13  1  0  0  0  0
 16 13  1  0  0  0  0
 17 18  1  0  0  0  0
 17 20  1  0  0  0  0
 19 17  1  0  0  0  0
 21 22  1  0  0  0  0
 21 23  1  0  0  0  0
 24 21  1  0  0  0  0
 25 26  1  0  0  0  0
 27 25  2  0  0  0  0
 27 28  1  0  0  0  0
 28 37  1  0  0  0  0
 28 29  1  0  0  0  0
 29 30  1  0  0  0  0
 29 32  1  0  0  0  0
 29 31  1  0  0  0  0
 33 36  1  0  0  0  0
 33 28  1  0  0  0  0
 34 33  1  0  0  0  0
 35 33  1  0  0  0  0
 37 39  1  0  0  0  0
 37 40  1  0  0  0  0
 38 37  1  0  0  0  0
 41  1  1  0  0  0  0
 41 42  1  0  0  0  0
 42  8  1  6  0  0  0
 43 44  1  0  0  0  0
 43 42  1  0  0  0  0
 45 43  1  0  0  0  0
 46 45  2  0  0  0  0
 46 41  1  0  0  0  0
 47 56  1  0  0  0  0
 47 45  1  0  0  0  0
 48 47  2  0  0  0  0
 49 48  1  0  0  0  0
 50 52  2  0  0  0  0
 50 48  1  0  0  0  0
 51 50  1  0  0  0  0
 52 54  1  0  0  0  0
 53 52  1  0  0  0  0
 54 55  1  0  0  0  0
 54 56  2  0  0  0  0
 56 57  1  0  0  0  0
 58 46  1  0  0  0  0
 59 60  1  0  0  0  0
 59 58  2  0  0  0  0
 61 59  1  0  0  0  0
 62 61  1  0  0  0  0
 63 61  2  0  0  0  0
 63 65  1  0  0  0  0
 64 63  1  0  0  0  0
 65 67  2  0  0  0  0
 66 65  1  0  0  0  0
 67 58  1  0  0  0  0
 67 68  1  0  0  0  0
M  END
$$$$
