CSD_code = VIMFUU | q = 0 | S = 0 | Stoichiometry = C20H18ClI2N3Pd | MND = 4
 OpenBabel04212202113D

 45 48  0  0  1  0  0  0  0  0999 V2000
    4.9078    2.2385    1.6870 Pd  0  0  0  0  0  0  0  0  0  0  0  0
    3.7738    0.0493    2.5341 I   0  0  0  0  0  0  0  0  0  0  0  0
    6.0113    4.3245    0.5416 I   0  0  0  0  0  0  0  0  0  0  0  0
    3.3695    2.8393    8.0037 Cl  0  0  0  0  0  0  0  0  0  0  0  0
    2.5275    3.0987    0.0727 N   0  0  0  0  0  0  0  0  0  0  0  0
    1.1254    3.9800    1.5152 N   0  0  0  0  0  0  0  0  0  0  0  0
    6.7094    1.4924    2.1333 N   0  0  0  0  0  0  0  0  0  0  0  0
    3.1298    2.9754    1.2945 C   0  0  0  0  0  0  0  0  0  0  0  0
    2.2419    3.5215    2.1962 C   0  0  0  0  0  0  0  0  0  0  0  0
    1.3135    3.7261    0.2042 C   0  0  2  0  0  3  0  0  0  0  0  0
    0.0814    4.8282    2.0407 C   0  0  0  0  0  0  0  0  0  0  0  0
    0.0314    4.6788    3.1192 H   0  0  0  0  0  0  0  0  0  0  0  0
   -0.8724    4.5279    1.5974 H   0  0  0  0  0  0  0  0  0  0  0  0
    0.3740    6.2975    1.7438 C   0  0  0  0  0  0  0  0  0  0  0  0
    1.3259    6.5858    2.1837 H   0  0  0  0  0  0  0  0  0  0  0  0
   -0.4075    6.9210    2.1684 H   0  0  0  0  0  0  0  0  0  0  0  0
    0.4215    6.4772    0.6724 H   0  0  0  0  0  0  0  0  0  0  0  0
    0.5271    3.9630   -0.9236 C   0  0  0  0  0  0  0  0  0  0  0  0
   -0.4265    4.4556   -0.8262 H   0  0  0  0  0  0  0  0  0  0  0  0
    0.9999    3.5460   -2.1429 C   0  0  0  0  0  0  0  0  0  0  0  0
    0.4155    3.7128   -3.0330 H   0  0  0  0  0  0  0  0  0  0  0  0
    2.2446    2.8922   -2.2444 C   0  0  0  0  0  0  0  0  0  0  0  0
    2.6037    2.5633   -3.2050 H   0  0  0  0  0  0  0  0  0  0  0  0
    2.9900    2.6737   -1.1276 C   0  0  0  0  0  0  0  0  0  0  0  0
    3.9549    2.1693   -1.1138 H   0  0  0  0  0  0  0  0  0  0  0  0
    2.4482    3.4573    3.6365 C   0  0  0  0  0  0  0  0  0  0  0  0
    3.7461    3.6607    4.1264 C   0  0  0  0  0  0  0  0  0  0  0  0
    4.5326    4.0273    3.4592 H   0  0  0  0  0  0  0  0  0  0  0  0
    4.0275    3.4785    5.4673 C   0  0  0  0  0  0  0  0  0  0  0  0
    5.0226    3.6503    5.8493 H   0  0  0  0  0  0  0  0  0  0  0  0
    3.0185    3.0743    6.3294 C   0  0  0  0  0  0  0  0  0  0  0  0
    1.7335    2.8544    5.8598 C   0  0  0  0  0  0  0  0  0  0  0  0
    0.9624    2.5189    6.5350 H   0  0  0  0  0  0  0  0  0  0  0  0
    1.4532    3.0416    4.5198 C   0  0  0  0  0  0  0  0  0  0  0  0
    0.4644    2.8065    4.1546 H   0  0  0  0  0  0  0  0  0  0  0  0
    7.4522    0.9190    1.1925 C   0  0  0  0  0  3  0  0  0  0  0  0
    7.0382    0.9098    0.1836 H   0  0  0  0  0  0  0  0  0  0  0  0
    8.6877    0.3614    1.4676 C   0  0  0  0  0  0  0  0  0  0  0  0
    9.2605   -0.0981    0.6780 H   0  0  0  0  0  0  0  0  0  0  0  0
    9.1657    0.4093    2.7681 C   0  0  0  0  0  0  0  0  0  0  0  0
   10.1270   -0.0139    3.0167 H   0  0  0  0  0  0  0  0  0  0  0  0
    8.3836    1.0076    3.7444 C   0  0  0  0  0  0  0  0  0  0  0  0
    8.7150    1.0626    4.7691 H   0  0  0  0  0  0  0  0  0  0  0  0
    7.1565    1.5340    3.3840 C   0  0  0  0  0  0  0  0  0  0  0  0
    6.4983    1.9971    4.1192 H   0  0  0  0  0  0  0  0  0  0  0  0
  1  7  1  0  0  0  0
  1  2  1  0  0  0  0
  3  1  1  0  0  0  0
  5 10  1  0  0  0  0
  5  8  1  0  0  0  0
  6 11  1  0  0  0  0
  6  9  1  0  0  0  0
  7 44  1  0  0  0  0
  8  1  1  0  0  0  0
  8  9  2  0  0  0  0
  9 26  1  0  0  0  0
 10 18  1  1  0  0  0
 10  6  1  0  0  0  0
 11 12  1  0  0  0  0
 13 11  1  0  0  0  0
 14 11  1  0  0  0  0
 14 16  1  0  0  0  0
 14 15  1  0  0  0  0
 17 14  1  0  0  0  0
 18 19  1  0  0  0  0
 20 18  2  0  0  0  0
 21 20  1  0  0  0  0
 22 20  1  0  0  0  0
 22 24  2  0  0  0  0
 23 22  1  0  0  0  0
 24 25  1  0  0  0  0
 24  5  1  0  0  0  0
 26 27  2  0  0  0  0
 26 34  1  0  0  0  0
 27 29  1  0  0  0  0
 28 27  1  0  0  0  0
 29 30  1  0  0  0  0
 29 31  2  0  0  0  0
 31  4  1  0  0  0  0
 32 31  1  0  0  0  0
 32 33  1  0  0  0  0
 34 32  2  0  0  0  0
 35 34  1  0  0  0  0
 36 38  1  0  0  0  0
 36  7  1  0  0  0  0
 37 36  1  0  0  0  0
 38 40  2  0  0  0  0
 39 38  1  0  0  0  0
 40 41  1  0  0  0  0
 40 42  1  0  0  0  0
 42 43  1  0  0  0  0
 44 42  2  0  0  0  0
 44 45  1  0  0  0  0
M  END
$$$$
