CSD_code = VIMGEF | q = 0 | S = 0 | Stoichiometry = C20H18BrI2N3Pd | MND = 4
 OpenBabel04212202113D

 45 48  0  0  0  0  0  0  0  0999 V2000
    1.3370    7.8529    2.0004 Pd  0  0  0  0  0  0  0  0  0  0  0  0
   -1.2516    8.0707    2.2293 I   0  0  0  0  0  0  0  0  0  0  0  0
    3.9021    7.6369    1.4933 I   0  0  0  0  0  0  0  0  0  0  0  0
   -0.3734    6.8803    8.4302 Br  0  0  0  0  0  0  0  0  0  0  0  0
    1.2001    5.2207    0.5891 N   0  0  0  0  0  0  0  0  0  0  0  0
    0.7602    3.7204    2.1298 N   0  0  0  0  0  0  0  0  0  0  0  0
    1.5274    9.8265    2.2751 N   0  0  0  0  0  0  0  0  0  0  0  0
    1.1161    5.9140    1.7650 C   0  0  0  0  0  0  0  0  0  0  0  0
    0.8265    4.9690    2.7282 C   0  0  0  0  0  0  0  0  0  0  0  0
    1.4330    5.7130   -0.6520 C   0  0  0  0  0  3  0  0  0  0  0  0
    1.5474    6.7937   -0.7224 H   0  0  0  0  0  0  0  0  0  0  0  0
    1.5098    4.8564   -1.7055 C   0  0  0  0  0  0  0  0  0  0  0  0
    1.6990    5.2353   -2.6956 H   0  0  0  0  0  0  0  0  0  0  0  0
    1.3459    3.4714   -1.4997 C   0  0  0  0  0  0  0  0  0  0  0  0
    1.4199    2.7991   -2.3389 H   0  0  0  0  0  0  0  0  0  0  0  0
    1.0874    2.9774   -0.2458 C   0  0  0  0  0  0  0  0  0  0  0  0
    0.9558    1.9221   -0.0721 H   0  0  0  0  0  0  0  0  0  0  0  0
    1.0015    3.8817    0.8137 C   0  0  0  0  0  0  0  0  0  0  0  0
    0.5305    2.4453    2.7663 C   0  0  0  0  0  0  0  0  0  0  0  0
    0.6845    2.5757    3.8392 H   0  0  0  0  0  0  0  0  0  0  0  0
    1.2775    1.7352    2.3967 H   0  0  0  0  0  0  0  0  0  0  0  0
   -0.8741    1.9164    2.4843 C   0  0  0  0  0  0  0  0  0  0  0  0
   -1.6290    2.6368    2.7903 H   0  0  0  0  0  0  0  0  0  0  0  0
   -1.0335    0.9912    3.0308 H   0  0  0  0  0  0  0  0  0  0  0  0
   -1.0088    1.7219    1.4233 H   0  0  0  0  0  0  0  0  0  0  0  0
    0.5694    5.3154    4.1184 C   0  0  0  0  0  0  0  0  0  0  0  0
    1.3046    6.3756    4.6723 C   0  0  0  0  0  0  0  0  0  0  0  0
    2.1471    6.8076    4.1220 H   0  0  0  0  0  0  0  0  0  0  0  0
    1.0304    6.8352    5.9457 C   0  0  0  0  0  0  0  0  0  0  0  0
    1.6070    7.6406    6.3762 H   0  0  0  0  0  0  0  0  0  0  0  0
    0.0091    6.2472    6.6751 C   0  0  0  0  0  0  0  0  0  0  0  0
   -0.7321    5.2040    6.1486 C   0  0  0  0  0  0  0  0  0  0  0  0
   -1.5337    4.7640    6.7213 H   0  0  0  0  0  0  0  0  0  0  0  0
   -0.4525    4.7441    4.8758 C   0  0  0  0  0  0  0  0  0  0  0  0
   -1.0727    3.9657    4.4618 H   0  0  0  0  0  0  0  0  0  0  0  0
    1.6232   10.6416    1.2302 C   0  0  0  0  0  3  0  0  0  0  0  0
    1.6399   10.1717    0.2460 H   0  0  0  0  0  0  0  0  0  0  0  0
    1.6993   12.0154    1.3723 C   0  0  0  0  0  0  0  0  0  0  0  0
    1.7720   12.6452    0.5000 H   0  0  0  0  0  0  0  0  0  0  0  0
    1.6798   12.5552    2.6491 C   0  0  0  0  0  0  0  0  0  0  0  0
    1.7376   13.6230    2.7957 H   0  0  0  0  0  0  0  0  0  0  0  0
    1.5802   11.6979    3.7345 C   0  0  0  0  0  0  0  0  0  0  0  0
    1.5577   12.0754    4.7444 H   0  0  0  0  0  0  0  0  0  0  0  0
    1.5023   10.3368    3.5017 C   0  0  0  0  0  0  0  0  0  0  0  0
    1.4069    9.6250    4.3219 H   0  0  0  0  0  0  0  0  0  0  0  0
  1  2  1  0  0  0  0
  1  7  1  0  0  0  0
  3  1  1  0  0  0  0
  5 18  1  0  0  0  0
  5  8  1  0  0  0  0
  6  9  1  0  0  0  0
  6 19  1  0  0  0  0
  7 44  1  0  0  0  0
  8  1  1  0  0  0  0
  8  9  2  0  0  0  0
  9 26  1  0  0  0  0
 10  5  1  0  0  0  0
 11 10  1  0  0  0  0
 12 14  2  0  0  0  0
 12 10  1  0  0  0  0
 13 12  1  0  0  0  0
 14 16  1  0  0  0  0
 15 14  1  0  0  0  0
 16 17  1  0  0  0  0
 16 18  2  0  0  0  0
 18  6  1  0  0  0  0
 19 20  1  0  0  0  0
 21 19  1  0  0  0  0
 22 19  1  0  0  0  0
 22 23  1  0  0  0  0
 22 24  1  0  0  0  0
 25 22  1  0  0  0  0
 26 27  2  0  0  0  0
 26 34  1  0  0  0  0
 27 29  1  0  0  0  0
 28 27  1  0  0  0  0
 29 30  1  0  0  0  0
 29 31  2  0  0  0  0
 31  4  1  0  0  0  0
 32 31  1  0  0  0  0
 32 33  1  0  0  0  0
 34 32  2  0  0  0  0
 35 34  1  0  0  0  0
 36 38  1  0  0  0  0
 36  7  1  0  0  0  0
 37 36  1  0  0  0  0
 38 40  2  0  0  0  0
 39 38  1  0  0  0  0
 40 41  1  0  0  0  0
 40 42  1  0  0  0  0
 42 43  1  0  0  0  0
 44 42  2  0  0  0  0
 44 45  1  0  0  0  0
M  END
$$$$
