CSD_code = VIMHOP | q = 0 | S = 0 | Stoichiometry = C17H19Cl2IrN2O2 | MND = 6
 OpenBabel04212202113D

 43 46  0  0  1  0  0  0  0  0999 V2000
    3.9407   -0.1148   -0.2232 Ir  0  0  0  0  0  0  0  0  0  0  0  0
    2.7837    0.3636   -2.2177 Cl  0  0  0  0  0  0  0  0  0  0  0  0
    5.0876   -0.5659    1.7844 Cl  0  0  0  0  0  0  0  0  0  0  0  0
    5.5669   -0.7439   -1.3101 O   0  0  0  0  0  0  0  0  0  0  0  0
    3.1989   -2.0312   -0.2439 O   0  0  0  0  0  0  0  0  0  0  0  0
    4.5314    1.7544   -0.1216 N   0  0  0  0  0  0  0  0  0  0  0  0
    2.4463    0.6240    0.8142 N   0  0  0  0  0  0  0  0  0  0  0  0
    7.0363   -2.1427   -2.5086 C   0  0  0  0  0  0  0  0  0  0  0  0
    7.5844   -1.2087   -2.5970 H   0  0  0  0  0  0  0  0  0  0  0  0
    6.7893   -2.5126   -3.5010 H   0  0  0  0  0  0  0  0  0  0  0  0
    7.6587   -2.8818   -2.0094 H   0  0  0  0  0  0  0  0  0  0  0  0
    5.7676   -1.9219   -1.7154 C   0  0  0  0  0  0  0  0  0  0  0  0
    4.9477   -3.0319   -1.5082 C   0  0  0  0  0  0  0  0  0  0  0  0
    5.2704   -3.9721   -1.9272 H   0  0  0  0  0  0  0  0  0  0  0  0
    3.7439   -3.0229   -0.8026 C   0  0  2  0  0  3  0  0  0  0  0  0
    2.9997   -4.3354   -0.6952 C   0  0  0  0  0  0  0  0  0  0  0  0
    2.1286   -4.2153   -0.0567 H   0  0  0  0  0  0  0  0  0  0  0  0
    3.6524   -5.1012   -0.2825 H   0  0  0  0  0  0  0  0  0  0  0  0
    2.6781   -4.6519   -1.6857 H   0  0  0  0  0  0  0  0  0  0  0  0
    5.6507    2.2302   -0.6558 C   0  0  0  0  0  3  0  0  0  0  0  0
    6.2600    1.5129   -1.1866 H   0  0  0  0  0  0  0  0  0  0  0  0
    6.0191    3.5538   -0.5439 C   0  0  0  0  0  0  0  0  0  0  0  0
    6.9380    3.8956   -0.9933 H   0  0  0  0  0  0  0  0  0  0  0  0
    5.1996    4.4436    0.1519 C   0  0  0  0  0  0  0  0  0  0  0  0
    4.0330    3.9361    0.7038 C   0  0  0  0  0  0  0  0  0  0  0  0
    3.3695    4.5877    1.2495 H   0  0  0  0  0  0  0  0  0  0  0  0
    3.7166    2.5896    0.5566 C   0  0  0  0  0  0  0  0  0  0  0  0
    2.5229    1.9425    1.0921 C   0  0  2  0  0  3  0  0  0  0  0  0
    1.5278    2.5785    1.8270 C   0  0  0  0  0  0  0  0  0  0  0  0
    1.6068    3.6327    2.0391 H   0  0  0  0  0  0  0  0  0  0  0  0
    0.4344    1.8613    2.2890 C   0  0  0  0  0  0  0  0  0  0  0  0
    0.3851    0.5007    1.9828 C   0  0  0  0  0  0  0  0  0  0  0  0
   -0.4432   -0.1040    2.3165 H   0  0  0  0  0  0  0  0  0  0  0  0
    1.4023   -0.0723    1.2497 C   0  0  0  0  0  0  0  0  0  0  0  0
    1.3978   -1.1221    0.9942 H   0  0  0  0  0  0  0  0  0  0  0  0
    5.5774    5.8808    0.2922 C   0  0  0  0  0  0  0  0  0  0  0  0
    4.8166    6.4374    0.8320 H   0  0  0  0  0  0  0  0  0  0  0  0
    5.7133    6.3306   -0.6899 H   0  0  0  0  0  0  0  0  0  0  0  0
    6.5217    5.9672    0.8280 H   0  0  0  0  0  0  0  0  0  0  0  0
   -0.6502    2.5056    3.0868 C   0  0  0  0  0  0  0  0  0  0  0  0
   -0.4810    3.5735    3.1917 H   0  0  0  0  0  0  0  0  0  0  0  0
   -0.6974    2.0593    4.0792 H   0  0  0  0  0  0  0  0  0  0  0  0
   -1.6146    2.3463    2.6075 H   0  0  0  0  0  0  0  0  0  0  0  0
  1  6  1  0  0  0  0
  1  7  1  0  0  0  0
  1  3  1  0  0  0  0
  2  1  1  0  0  0  0
  4  1  1  0  0  0  0
  5  1  1  0  0  0  0
  6 27  1  0  0  0  0
  7 28  1  0  0  0  0
  7 34  1  0  0  0  0
  8 11  1  0  0  0  0
  8 12  1  0  0  0  0
  9  8  1  0  0  0  0
 10  8  1  0  0  0  0
 12 13  2  0  0  0  0
 12  4  1  0  0  0  0
 13 15  1  0  0  0  0
 14 13  1  0  0  0  0
 15 16  1  6  0  0  0
 15  5  1  0  0  0  0
 16 18  1  0  0  0  0
 16 17  1  0  0  0  0
 19 16  1  0  0  0  0
 20 22  1  0  0  0  0
 20  6  1  0  0  0  0
 21 20  1  0  0  0  0
 22 24  2  0  0  0  0
 23 22  1  0  0  0  0
 24 36  1  0  0  0  0
 24 25  1  0  0  0  0
 25 26  1  0  0  0  0
 27 25  2  0  0  0  0
 28 27  1  1  0  0  0
 28 29  1  0  0  0  0
 29 30  1  0  0  0  0
 29 31  2  0  0  0  0
 31 40  1  0  0  0  0
 32 31  1  0  0  0  0
 32 33  1  0  0  0  0
 34 32  2  0  0  0  0
 35 34  1  0  0  0  0
 36 39  1  0  0  0  0
 36 37  1  0  0  0  0
 38 36  1  0  0  0  0
 40 41  1  0  0  0  0
 40 42  1  0  0  0  0
 43 40  1  0  0  0  0
M  END
$$$$
