CSD_code = VINJIM | q = 0 | S = 0 | Stoichiometry = C26H23Cl2NO2PRe | MND = 6
 OpenBabel04212202113D

 56 60  0  0  1  0  0  0  0  0999 V2000
   -1.1781   -0.5223    2.4814 Re  0  0  0  0  0  0  0  0  0  0  0  0
   -2.0351    1.8380    2.4248 P   0  0  0  0  0  4  0  0  0  0  0  0
   -0.3248   -2.6311    2.9531 Cl  0  0  0  0  0  0  0  0  0  0  0  0
   -3.2637   -1.2316    3.1279 Cl  0  0  0  0  0  0  0  0  0  0  0  0
   -0.7442    0.0019    4.2597 O   0  0  0  0  0  0  0  0  0  0  0  0
   -1.4321   -0.6959    0.8521 O   0  0  0  0  0  1  0  0  0  0  0  0
    0.8740    0.0121    2.1989 N   0  0  0  0  0  0  0  0  0  0  0  0
    1.2387   -0.3738    1.3310 H   0  0  0  0  0  0  0  0  0  0  0  0
    0.1448    0.7085    4.8868 C   0  0  0  0  0  0  0  0  0  0  0  0
   -0.1245    1.1618    6.1922 C   0  0  0  0  0  0  0  0  0  0  0  0
   -1.0705    0.8871    6.6339 H   0  0  0  0  0  0  0  0  0  0  0  0
    0.7767    1.9428    6.8730 C   0  0  0  0  0  0  0  0  0  0  0  0
    0.5404    2.2918    7.8672 H   0  0  0  0  0  0  0  0  0  0  0  0
    1.9893    2.2880    6.2841 C   0  0  0  0  0  0  0  0  0  0  0  0
    2.6925    2.9091    6.8169 H   0  0  0  0  0  0  0  0  0  0  0  0
    2.2952    1.8255    5.0249 C   0  0  0  0  0  0  0  0  0  0  0  0
    3.2394    2.1021    4.5834 H   0  0  0  0  0  0  0  0  0  0  0  0
    1.4020    1.0323    4.2955 C   0  0  0  0  0  0  0  0  0  0  0  0
    1.7560    0.5099    2.9886 C   0  0  1  0  0  3  0  0  0  0  0  0
    3.1936    0.5557    2.5613 C   0  0  0  0  0  0  0  0  0  0  0  0
    3.3359   -0.0116    1.6441 H   0  0  0  0  0  0  0  0  0  0  0  0
    3.8345    0.1401    3.3355 H   0  0  0  0  0  0  0  0  0  0  0  0
    3.4924    1.5877    2.3813 H   0  0  0  0  0  0  0  0  0  0  0  0
   -2.8774    2.2556    0.8741 C   0  0  0  0  0  0  0  0  0  0  0  0
   -3.7624    1.3040    0.3728 C   0  0  0  0  0  0  0  0  0  0  0  0
   -3.8782    0.3630    0.8949 H   0  0  0  0  0  0  0  0  0  0  0  0
   -4.4642    1.5640   -0.7894 C   0  0  0  0  0  0  0  0  0  0  0  0
   -5.1474    0.8260   -1.1809 H   0  0  0  0  0  0  0  0  0  0  0  0
   -4.2846    2.7673   -1.4542 C   0  0  0  0  0  0  0  0  0  0  0  0
   -4.8294    2.9682   -2.3648 H   0  0  0  0  0  0  0  0  0  0  0  0
   -3.4018    3.7121   -0.9574 C   0  0  0  0  0  0  0  0  0  0  0  0
   -3.2596    4.6475   -1.4788 H   0  0  0  0  0  0  0  0  0  0  0  0
   -2.6963    3.4621    0.2065 C   0  0  0  0  0  0  0  0  0  0  0  0
   -2.0016    4.1979    0.5886 H   0  0  0  0  0  0  0  0  0  0  0  0
   -0.6450    2.9930    2.5561 C   0  0  0  0  0  0  0  0  0  0  0  0
   -0.4145    3.7640    3.6897 C   0  0  0  0  0  0  0  0  0  0  0  0
   -1.1268    3.7557    4.5025 H   0  0  0  0  0  0  0  0  0  0  0  0
    0.7306    4.5361    3.7764 C   0  0  0  0  0  0  0  0  0  0  0  0
    0.9076    5.1330    4.6585 H   0  0  0  0  0  0  0  0  0  0  0  0
    1.6491    4.5403    2.7401 C   0  0  0  0  0  0  0  0  0  0  0  0
    2.5415    5.1440    2.8133 H   0  0  0  0  0  0  0  0  0  0  0  0
    1.4248    3.7693    1.6089 C   0  0  0  0  0  0  0  0  0  0  0  0
    2.1405    3.7746    0.7995 H   0  0  0  0  0  0  0  0  0  0  0  0
    0.2866    2.9920    1.5185 C   0  0  0  0  0  0  0  0  0  0  0  0
    0.1020    2.3715    0.6509 H   0  0  0  0  0  0  0  0  0  0  0  0
   -3.2012    2.3967    3.7027 C   0  0  0  0  0  0  0  0  0  0  0  0
   -3.4725    1.6206    4.8226 C   0  0  0  0  0  0  0  0  0  0  0  0
   -3.0245    0.6433    4.9206 H   0  0  0  0  0  0  0  0  0  0  0  0
   -4.3451    2.0902    5.7896 C   0  0  0  0  0  0  0  0  0  0  0  0
   -4.5604    1.4834    6.6563 H   0  0  0  0  0  0  0  0  0  0  0  0
   -4.9475    3.3279    5.6425 C   0  0  0  0  0  0  0  0  0  0  0  0
   -5.6306    3.6903    6.3964 H   0  0  0  0  0  0  0  0  0  0  0  0
   -4.6822    4.1008    4.5222 C   0  0  0  0  0  0  0  0  0  0  0  0
   -5.1576    5.0634    4.4035 H   0  0  0  0  0  0  0  0  0  0  0  0
   -3.8129    3.6399    3.5522 C   0  0  0  0  0  0  0  0  0  0  0  0
   -3.6083    4.2380    2.6750 H   0  0  0  0  0  0  0  0  0  0  0  0
  1  3  1  0  0  0  0
  1  4  1  0  0  0  0
  1  5  1  0  0  0  0
  2  1  1  0  0  0  0
  2 35  1  0  0  0  0
  2 46  1  0  0  0  0
  5  9  1  0  0  0  0
  6  1  1  0  0  0  0
  7  1  1  0  0  0  0
  7 19  1  0  0  0  0
  8  7  1  0  0  0  0
  9 10  1  0  0  0  0
 10 11  1  0  0  0  0
 10 12  2  0  0  0  0
 12 13  1  0  0  0  0
 14 15  1  0  0  0  0
 14 12  1  0  0  0  0
 16 14  2  0  0  0  0
 17 16  1  0  0  0  0
 18  9  2  0  0  0  0
 18 16  1  0  0  0  0
 19 20  1  1  0  0  0
 19 18  1  0  0  0  0
 20 22  1  0  0  0  0
 21 20  1  0  0  0  0
 23 20  1  0  0  0  0
 24  2  1  0  0  0  0
 25 24  1  0  0  0  0
 25 26  1  0  0  0  0
 27 25  2  0  0  0  0
 28 27  1  0  0  0  0
 29 31  2  0  0  0  0
 29 27  1  0  0  0  0
 30 29  1  0  0  0  0
 31 33  1  0  0  0  0
 32 31  1  0  0  0  0
 33 34  1  0  0  0  0
 33 24  2  0  0  0  0
 35 36  1  0  0  0  0
 36 38  2  0  0  0  0
 36 37  1  0  0  0  0
 38 39  1  0  0  0  0
 40 41  1  0  0  0  0
 40 38  1  0  0  0  0
 42 40  2  0  0  0  0
 43 42  1  0  0  0  0
 44 42  1  0  0  0  0
 44 35  2  0  0  0  0
 45 44  1  0  0  0  0
 46 47  1  0  0  0  0
 47 48  1  0  0  0  0
 47 49  2  0  0  0  0
 49 50  1  0  0  0  0
 51 49  1  0  0  0  0
 51 52  1  0  0  0  0
 53 51  2  0  0  0  0
 54 53  1  0  0  0  0
 55 46  2  0  0  0  0
 55 53  1  0  0  0  0
 56 55  1  0  0  0  0
M  END
$$$$
