CSD_code = VINMEL | q = 0 | S = 0 | Stoichiometry = C9H14ClN4OS4Tc | MND = 5
 OpenBabel04212202113D

 34 36  0  0  1  0  0  0  0  0999 V2000
    9.3871    1.5026    0.4669 Tc  0  0  0  0  0  0  0  0  0  0  0  0
   10.1528    2.4553   -1.2768 Cl  0  0  0  0  0  0  0  0  0  0  0  0
   11.2660    2.1564    1.8035 S   0  0  0  0  0  0  0  0  0  0  0  0
   13.2488    0.2846    2.9652 S   0  0  0  0  0  0  0  0  0  0  0  0
    7.4691    0.6292   -1.1829 S   0  0  0  0  0  0  0  0  0  0  0  0
    8.0874   -0.9280   -3.6553 S   0  0  0  0  0  0  0  0  0  0  0  0
    8.2841    1.4504    1.6688 O   0  0  0  0  0  1  0  0  0  0  0  0
   11.3452   -0.4645    1.3145 N   0  0  0  0  0  0  0  0  0  0  0  0
   10.2959   -0.2140    0.4907 N   0  0  0  0  0  0  0  0  0  0  0  0
    9.9620   -2.1607   -2.2649 N   0  0  0  0  0  0  0  0  0  0  0  0
    9.3138   -1.3001   -1.4367 N   0  0  0  0  0  0  0  0  0  0  0  0
   11.8681    0.5219    1.9370 C   0  0  0  0  0  0  0  0  0  0  0  0
   13.5306   -1.4973    2.7373 C   0  0  0  0  0  0  0  0  0  0  0  0
   14.3116   -1.7768    3.4359 H   0  0  0  0  0  0  0  0  0  0  0  0
   13.8515   -1.6816    1.7176 H   0  0  0  0  0  0  0  0  0  0  0  0
   12.6100   -2.0274    2.9535 H   0  0  0  0  0  0  0  0  0  0  0  0
    9.7207   -1.4559   -0.0148 C   0  0  2  0  0  0  0  0  0  0  0  0
    8.5275   -1.8891    0.8422 C   0  0  0  0  0  0  0  0  0  0  0  0
    8.0349   -2.7507    0.3971 H   0  0  0  0  0  0  0  0  0  0  0  0
    7.8136   -1.0754    0.9491 H   0  0  0  0  0  0  0  0  0  0  0  0
    8.8921   -2.1456    1.8335 H   0  0  0  0  0  0  0  0  0  0  0  0
   10.7696   -2.5835   -0.1383 C   0  0  0  0  0  0  0  0  0  0  0  0
   11.7437   -2.2295    0.2022 H   0  0  0  0  0  0  0  0  0  0  0  0
   10.4990   -3.4559    0.4555 H   0  0  0  0  0  0  0  0  0  0  0  0
   10.7727   -2.8874   -1.6055 C   0  0  0  0  0  0  0  0  0  0  0  0
   11.6310   -3.9154   -2.2291 C   0  0  0  0  0  0  0  0  0  0  0  0
   11.4332   -3.9646   -3.2953 H   0  0  0  0  0  0  0  0  0  0  0  0
   11.4395   -4.8869   -1.7758 H   0  0  0  0  0  0  0  0  0  0  0  0
   12.6804   -3.6737   -2.0653 H   0  0  0  0  0  0  0  0  0  0  0  0
    8.3559   -0.5438   -1.9794 C   0  0  2  0  0  3  0  0  0  0  0  0
    6.8235    0.2900   -4.1007 C   0  0  0  0  0  0  0  0  0  0  0  0
    6.6315    0.1521   -5.1596 H   0  0  0  0  0  0  0  0  0  0  0  0
    7.2030    1.2886   -3.9086 H   0  0  0  0  0  0  0  0  0  0  0  0
    5.9241    0.1113   -3.5210 H   0  0  0  0  0  0  0  0  0  0  0  0
  1  9  1  0  0  0  0
  1  7  1  0  0  0  0
  1  3  1  0  0  0  0
  2  1  1  0  0  0  0
  3 12  1  0  0  0  0
  5  1  1  0  0  0  0
  8 12  2  0  0  0  0
  9  8  1  0  0  0  0
 10 25  2  0  0  0  0
 10 11  1  0  0  0  0
 11 17  1  0  0  0  0
 12  4  1  0  0  0  0
 13 16  1  0  0  0  0
 13  4  1  0  0  0  0
 13 14  1  0  0  0  0
 15 13  1  0  0  0  0
 17  9  1  0  0  0  0
 17 18  1  1  0  0  0
 18 20  1  0  0  0  0
 18 21  1  0  0  0  0
 19 18  1  0  0  0  0
 22 17  1  0  0  0  0
 22 23  1  0  0  0  0
 22 24  1  0  0  0  0
 25 22  1  0  0  0  0
 26 29  1  0  0  0  0
 26 28  1  0  0  0  0
 26 25  1  0  0  0  0
 27 26  1  0  0  0  0
 30  6  1  1  0  0  0
 30 11  1  0  0  0  0
 30  5  1  0  0  0  0
 31 33  1  0  0  0  0
 31  6  1  0  0  0  0
 31 34  1  0  0  0  0
 32 31  1  0  0  0  0
M  END
$$$$
