CSD_code = VINMIP | q = 1 | S = 0 | Stoichiometry = C28H28ClNiO3P2(1+) | MND = 6
 OpenBabel04212202113D

 63 67  0  0  0  0  0  0  0  0999 V2000
    3.7350    0.9494   12.7843 Ni  0  0  0  0  0  0  0  0  0  0  0  0
    1.4409    2.4503   14.7976 P   0  0  0  0  0  4  0  0  0  0  0  0
    5.2544    3.4464   12.7863 P   0  0  0  0  0  4  0  0  0  0  0  0
    4.6381   -0.7796   13.3359 Cl  0  0  0  0  0  0  0  0  0  0  0  0
    2.0941    0.2394   12.6484 O   0  0  0  0  0  0  0  0  0  0  0  0
    2.6640    2.8061   13.8303 O   0  0  0  0  0  0  0  0  0  0  0  0
    2.2649    1.8409   16.2707 C   0  0  0  0  0  0  0  0  0  0  0  0
    5.2429    2.0465   12.2801 O   0  0  0  0  0  0  0  0  0  0  0  0
    1.1505   -0.0657   13.5804 C   0  0  0  0  0  0  0  0  0  0  0  0
    1.5718   -0.5797   14.4599 H   0  0  0  0  0  0  0  0  0  0  0  0
    0.4239   -0.7579   13.1223 H   0  0  0  0  0  0  0  0  0  0  0  0
    5.4183    3.5055   14.5935 C   0  0  0  0  0  0  0  0  0  0  0  0
    0.3530    1.1923   14.0428 C   0  0  0  0  0  0  0  0  0  0  0  0
   -0.4084    0.9184   14.7748 H   0  0  0  0  0  0  0  0  0  0  0  0
   -0.1309    1.6395   13.1682 H   0  0  0  0  0  0  0  0  0  0  0  0
    7.5192    3.6628   11.2573 C   0  0  0  0  0  0  0  0  0  0  0  0
    7.3786    2.6014   11.1156 H   0  0  0  0  0  0  0  0  0  0  0  0
    1.3456    5.0766   15.5337 C   0  0  0  0  0  0  0  0  0  0  0  0
    2.4062    4.9326   15.6946 H   0  0  0  0  0  0  0  0  0  0  0  0
    3.2474    0.8624   16.1533 C   0  0  0  0  0  0  0  0  0  0  0  0
    3.5845    0.5240   15.1735 H   0  0  0  0  0  0  0  0  0  0  0  0
    5.9345    2.3662   15.1995 C   0  0  0  0  0  0  0  0  0  0  0  0
    6.1807    1.5030   14.5938 H   0  0  0  0  0  0  0  0  0  0  0  0
    2.4947    3.4406   12.5383 C   0  0  0  0  0  0  0  0  0  0  0  0
    1.5497    3.9961   12.5124 H   0  0  0  0  0  0  0  0  0  0  0  0
    2.4680    2.6519   11.7705 H   0  0  0  0  0  0  0  0  0  0  0  0
    3.6877    4.3543   12.3260 C   0  0  0  0  0  0  0  0  0  0  0  0
    3.5868    5.2641   12.9171 H   0  0  0  0  0  0  0  0  0  0  0  0
    3.7599    4.6308   11.2712 H   0  0  0  0  0  0  0  0  0  0  0  0
   -0.7958    4.1514   14.8993 C   0  0  0  0  0  0  0  0  0  0  0  0
   -1.3950    3.3167   14.5679 H   0  0  0  0  0  0  0  0  0  0  0  0
    6.6107    4.3688   12.0347 C   0  0  0  0  0  0  0  0  0  0  0  0
    5.7862    3.4449   17.3359 C   0  0  0  0  0  0  0  0  0  0  0  0
    5.9297    3.4258   18.4052 H   0  0  0  0  0  0  0  0  0  0  0  0
    0.7460    6.2979   15.7764 C   0  0  0  0  0  0  0  0  0  0  0  0
    1.3376    7.1309   16.1232 H   0  0  0  0  0  0  0  0  0  0  0  0
   -0.6198    6.4483   15.5810 C   0  0  0  0  0  0  0  0  0  0  0  0
   -1.0873    7.4013   15.7730 H   0  0  0  0  0  0  0  0  0  0  0  0
    0.5736    4.0051   15.0868 C   0  0  0  0  0  0  0  0  0  0  0  0
    1.8474    2.2808   17.5252 C   0  0  0  0  0  0  0  0  0  0  0  0
    1.0760    3.0334   17.6075 H   0  0  0  0  0  0  0  0  0  0  0  0
    6.1246    2.3418   16.5701 C   0  0  0  0  0  0  0  0  0  0  0  0
    6.5438    1.4649   17.0372 H   0  0  0  0  0  0  0  0  0  0  0  0
    5.2757    4.5827   16.7307 C   0  0  0  0  0  0  0  0  0  0  0  0
    5.0255    5.4464   17.3288 H   0  0  0  0  0  0  0  0  0  0  0  0
   -1.3874    5.3791   15.1469 C   0  0  0  0  0  0  0  0  0  0  0  0
   -2.4496    5.4994   15.0027 H   0  0  0  0  0  0  0  0  0  0  0  0
    3.8091    0.3229   17.2967 C   0  0  0  0  0  0  0  0  0  0  0  0
    4.5553   -0.4495   17.1997 H   0  0  0  0  0  0  0  0  0  0  0  0
    2.4294    1.7462   18.6597 C   0  0  0  0  0  0  0  0  0  0  0  0
    2.1150    2.0881   19.6335 H   0  0  0  0  0  0  0  0  0  0  0  0
    6.7690    5.7340   12.2414 C   0  0  0  0  0  0  0  0  0  0  0  0
    6.0653    6.2776   12.8551 H   0  0  0  0  0  0  0  0  0  0  0  0
    3.4021    0.7635   18.5462 C   0  0  0  0  0  0  0  0  0  0  0  0
    3.8392    0.3386   19.4364 H   0  0  0  0  0  0  0  0  0  0  0  0
    5.1030    4.6216   15.3586 C   0  0  0  0  0  0  0  0  0  0  0  0
    4.7350    5.5233   14.8893 H   0  0  0  0  0  0  0  0  0  0  0  0
    8.7394    5.6898   10.8732 C   0  0  0  0  0  0  0  0  0  0  0  0
    9.5693    6.2089   10.4193 H   0  0  0  0  0  0  0  0  0  0  0  0
    7.8344    6.3917   11.6558 C   0  0  0  0  0  0  0  0  0  0  0  0
    7.9618    7.4524   11.8094 H   0  0  0  0  0  0  0  0  0  0  0  0
    8.5835    4.3276   10.6744 C   0  0  0  0  0  0  0  0  0  0  0  0
    9.2902    3.7834   10.0674 H   0  0  0  0  0  0  0  0  0  0  0  0
  1  4  1  0  0  0  0
  2 39  1  0  0  0  0
  2  7  1  0  0  0  0
  3 12  1  0  0  0  0
  5  1  1  0  0  0  0
  5  9  1  0  0  0  0
  6  2  1  0  0  0  0
  7 40  1  0  0  0  0
  8  1  1  0  0  0  0
  8  3  1  0  0  0  0
  9 13  1  0  0  0  0
  9 10  1  0  0  0  0
 11  9  1  0  0  0  0
 12 22  2  0  0  0  0
 12 56  1  0  0  0  0
 13 14  1  0  0  0  0
 13  2  1  0  0  0  0
 15 13  1  0  0  0  0
 16 32  1  0  0  0  0
 17 16  1  0  0  0  0
 18 19  1  0  0  0  0
 18 35  1  0  0  0  0
 20  7  2  0  0  0  0
 20 48  1  0  0  0  0
 21 20  1  0  0  0  0
 22 42  1  0  0  0  0
 23 22  1  0  0  0  0
 24  6  1  0  0  0  0
 25 24  1  0  0  0  0
 26 24  1  0  0  0  0
 27 24  1  0  0  0  0
 27  3  1  0  0  0  0
 27 28  1  0  0  0  0
 29 27  1  0  0  0  0
 30 39  1  0  0  0  0
 30 46  2  0  0  0  0
 31 30  1  0  0  0  0
 32 52  2  0  0  0  0
 32  3  1  0  0  0  0
 33 34  1  0  0  0  0
 35 36  1  0  0  0  0
 37 38  1  0  0  0  0
 37 35  2  0  0  0  0
 39 18  2  0  0  0  0
 40 41  1  0  0  0  0
 40 50  2  0  0  0  0
 42 43  1  0  0  0  0
 42 33  2  0  0  0  0
 44 45  1  0  0  0  0
 44 33  1  0  0  0  0
 46 37  1  0  0  0  0
 47 46  1  0  0  0  0
 48 54  2  0  0  0  0
 49 48  1  0  0  0  0
 50 51  1  0  0  0  0
 52 53  1  0  0  0  0
 54 50  1  0  0  0  0
 54 55  1  0  0  0  0
 56 44  2  0  0  0  0
 57 56  1  0  0  0  0
 58 60  2  0  0  0  0
 59 58  1  0  0  0  0
 60 61  1  0  0  0  0
 60 52  1  0  0  0  0
 62 58  1  0  0  0  0
 62 16  2  0  0  0  0
 63 62  1  0  0  0  0
M  END
$$$$
