CSD_code = VINRIW | q = 0 | S = 0 | Stoichiometry = C14H24Cl2N2Zn | MND = 4
 OpenBabel04212202113D

 43 44  0  0  1  0  0  0  0  0999 V2000
    1.9269    9.5570    6.6928 Zn  0  0  0  0  0  0  0  0  0  0  0  0
    0.1762   10.5282    7.6147 Cl  0  0  0  0  0  0  0  0  0  0  0  0
    4.1363    9.7352    6.9398 Cl  0  0  0  0  0  0  0  0  0  0  0  0
    1.5969    9.3226    4.5296 N   0  0  0  0  0  4  0  0  0  0  0  0
    1.8760    7.3704    6.6660 N   0  0  0  0  0  4  0  0  0  0  0  0
    2.8780    7.1867    6.7358 H   0  0  0  0  0  0  0  0  0  0  0  0
    2.2161   11.7001    4.0933 C   0  0  0  0  0  0  0  0  0  0  0  0
    1.2889   12.0387    3.6391 H   0  0  0  0  0  0  0  0  0  0  0  0
    3.0296   12.3034    3.6985 H   0  0  0  0  0  0  0  0  0  0  0  0
    2.1626   11.8656    5.1704 H   0  0  0  0  0  0  0  0  0  0  0  0
    2.4986   10.2336    3.8057 C   0  0  0  0  0  0  0  0  0  0  0  0
    2.4514   10.0418    2.7260 H   0  0  0  0  0  0  0  0  0  0  0  0
    3.5125   10.0118    4.1470 H   0  0  0  0  0  0  0  0  0  0  0  0
   -0.2081    9.4659    2.7310 C   0  0  0  0  0  0  0  0  0  0  0  0
    0.2805   10.2341    2.1382 H   0  0  0  0  0  0  0  0  0  0  0  0
   -1.2818    9.6130    2.6489 H   0  0  0  0  0  0  0  0  0  0  0  0
    0.0280    8.4933    2.3056 H   0  0  0  0  0  0  0  0  0  0  0  0
    0.1789    9.5566    4.2059 C   0  0  0  0  0  0  0  0  0  0  0  0
   -0.0841   10.5433    4.5873 H   0  0  0  0  0  0  0  0  0  0  0  0
   -0.4117    8.8389    4.7761 H   0  0  0  0  0  0  0  0  0  0  0  0
    2.0053    7.9345    4.2900 C   0  0  0  0  0  0  0  0  0  0  0  0
    3.0956    7.8996    4.3593 H   0  0  0  0  0  0  0  0  0  0  0  0
    1.7171    7.5980    3.2872 H   0  0  0  0  0  0  0  0  0  0  0  0
    1.4380    6.9717    5.3313 C   0  0  0  0  0  0  0  0  0  0  0  0
    0.3455    6.9859    5.3155 H   0  0  0  0  0  0  0  0  0  0  0  0
    1.7637    5.9517    5.0858 H   0  0  0  0  0  0  0  0  0  0  0  0
    1.2133    6.6277    7.7489 C   0  0  1  0  0  0  0  0  0  0  0  0
    0.1384    6.8264    7.6628 H   0  0  0  0  0  0  0  0  0  0  0  0
    1.4561    5.1374    7.6420 C   0  0  0  0  0  0  0  0  0  0  0  0
    0.3886    4.2502    7.6163 C   0  0  0  0  0  0  0  0  0  0  0  0
   -0.6213    4.6313    7.6711 H   0  0  0  0  0  0  0  0  0  0  0  0
    0.6062    2.8862    7.5280 C   0  0  0  0  0  0  0  0  0  0  0  0
   -0.2341    2.2082    7.5124 H   0  0  0  0  0  0  0  0  0  0  0  0
    1.8975    2.3933    7.4578 C   0  0  0  0  0  0  0  0  0  0  0  0
    2.0694    1.3298    7.3871 H   0  0  0  0  0  0  0  0  0  0  0  0
    2.9690    3.2701    7.4812 C   0  0  0  0  0  0  0  0  0  0  0  0
    3.9792    2.8918    7.4297 H   0  0  0  0  0  0  0  0  0  0  0  0
    2.7499    4.6325    7.5745 C   0  0  0  0  0  0  0  0  0  0  0  0
    3.5981    5.3029    7.6014 H   0  0  0  0  0  0  0  0  0  0  0  0
    1.7022    7.1585    9.0938 C   0  0  0  0  0  0  0  0  0  0  0  0
    2.7768    7.0243    9.1938 H   0  0  0  0  0  0  0  0  0  0  0  0
    1.2090    6.6273    9.9038 H   0  0  0  0  0  0  0  0  0  0  0  0
    1.4713    8.2195    9.1813 H   0  0  0  0  0  0  0  0  0  0  0  0
  1  3  1  0  0  0  0
  1  2  1  0  0  0  0
  4  1  1  0  0  0  0
  5  1  1  0  0  0  0
  5  6  1  0  0  0  0
  5 27  1  0  0  0  0
  7 10  1  0  0  0  0
  8  7  1  0  0  0  0
  9  7  1  0  0  0  0
 11  7  1  0  0  0  0
 11 13  1  0  0  0  0
 11  4  1  0  0  0  0
 12 11  1  0  0  0  0
 14 18  1  0  0  0  0
 15 14  1  0  0  0  0
 16 14  1  0  0  0  0
 17 14  1  0  0  0  0
 18  4  1  0  0  0  0
 18 19  1  0  0  0  0
 18 20  1  0  0  0  0
 21 22  1  0  0  0  0
 21  4  1  0  0  0  0
 21 24  1  0  0  0  0
 23 21  1  0  0  0  0
 24  5  1  0  0  0  0
 25 24  1  0  0  0  0
 26 24  1  0  0  0  0
 27 28  1  6  0  0  0
 27 40  1  0  0  0  0
 29 27  1  0  0  0  0
 30 29  1  0  0  0  0
 30 31  1  0  0  0  0
 32 30  2  0  0  0  0
 33 32  1  0  0  0  0
 34 36  2  0  0  0  0
 34 32  1  0  0  0  0
 35 34  1  0  0  0  0
 36 38  1  0  0  0  0
 37 36  1  0  0  0  0
 38 39  1  0  0  0  0
 38 29  2  0  0  0  0
 40 43  1  0  0  0  0
 40 41  1  0  0  0  0
 40 42  1  0  0  0  0
M  END
$$$$
