CSD_code = VIPLEM | q = 0 | S = 0 | Stoichiometry = C15H39ClIrP3Si | MND = 6
 OpenBabel04212202113D

 60 59  0  0  0  0  0  0  0  0999 V2000
    3.2853    3.2626    6.7405 Ir  0  0  0  0  0  0  0  0  0  0  0  0
    5.7698    2.8518    6.7400 Cl  0  0  0  0  0  0  0  0  0  0  0  0
    3.2971    2.9083    4.4330 P   0  0  0  0  0  4  0  0  0  0  0  0
    4.2468    5.4311    6.7404 P   0  0  0  0  0  4  0  0  0  0  0  0
    0.9562    3.8388    6.7403 Si  0  0  0  0  0  0  0  0  0  0  0  0
   -3.7589    1.3107    6.7404 C   0  0  0  0  0  0  0  0  0  0  0  0
   -4.2694    2.2602    6.7404 H   0  0  0  0  0  0  0  0  0  0  0  0
   -4.3829    0.4331    6.7404 H   0  0  0  0  0  0  0  0  0  0  0  0
   -2.4311    1.2375    6.7404 C   0  0  0  0  0  0  0  0  0  0  0  0
   -1.9414    0.2713    6.7403 H   0  0  0  0  0  0  0  0  0  0  0  0
   -1.5593    2.3903    6.7404 C   0  0  0  0  0  0  0  0  0  0  0  0
   -2.0545    3.3522    6.7404 H   0  0  0  0  0  0  0  0  0  0  0  0
   -0.2255    2.3220    6.7404 C   0  0  0  0  0  0  0  0  0  0  0  0
    0.2179    1.3332    6.7403 H   0  0  0  0  0  0  0  0  0  0  0  0
    0.2814    4.8894    5.2555 C   0  0  0  0  0  0  0  0  0  0  0  0
   -0.7717    5.0997    5.4073 H   0  0  0  0  0  0  0  0  0  0  0  0
    0.3755    4.3687    4.3091 H   0  0  0  0  0  0  0  0  0  0  0  0
    0.7919    5.8422    5.1654 H   0  0  0  0  0  0  0  0  0  0  0  0
    3.1629    4.1993    3.1190 C   0  0  0  0  0  0  0  0  0  0  0  0
    2.7883    3.7481    2.2016 H   0  0  0  0  0  0  0  0  0  0  0  0
    4.1464    4.6217    2.9259 H   0  0  0  0  0  0  0  0  0  0  0  0
    2.4868    4.9906    3.4301 H   0  0  0  0  0  0  0  0  0  0  0  0
    4.7650    2.0097    3.8173 C   0  0  0  0  0  0  0  0  0  0  0  0
    4.6502    1.7792    2.7575 H   0  0  0  0  0  0  0  0  0  0  0  0
    4.8731    1.0934    4.3943 H   0  0  0  0  0  0  0  0  0  0  0  0
    5.6569    2.6119    3.9759 H   0  0  0  0  0  0  0  0  0  0  0  0
    1.9900    1.7428    3.8783 C   0  0  0  0  0  0  0  0  0  0  0  0
    2.0874    1.5402    2.8120 H   0  0  0  0  0  0  0  0  0  0  0  0
    1.0066    2.1522    4.0914 H   0  0  0  0  0  0  0  0  0  0  0  0
    2.1026    0.8164    4.4369 H   0  0  0  0  0  0  0  0  0  0  0  0
    3.2508    6.9842    6.7403 C   0  0  0  0  0  0  0  0  0  0  0  0
    3.8990    7.8601    6.7403 H   0  0  0  0  0  0  0  0  0  0  0  0
    2.6142    7.0104    7.6216 H   0  0  0  0  0  0  0  0  0  0  0  0
    2.6142    7.0104    5.8590 H   0  0  0  0  0  0  0  0  0  0  0  0
    5.3624    5.8410    8.1379 C   0  0  0  0  0  0  0  0  0  0  0  0
    5.9426    6.7336    7.9014 H   0  0  0  0  0  0  0  0  0  0  0  0
    6.0379    5.0056    8.3066 H   0  0  0  0  0  0  0  0  0  0  0  0
    4.7728    6.0269    9.0328 H   0  0  0  0  0  0  0  0  0  0  0  0
    2.9182    1.7625    6.7409 H   0  0  0  0  0  0  0  0  0  0  0  0
    3.2971    2.9083    9.0478 P   0  0  0  0  0  4  0  0  0  0  0  0
    0.2815    4.8893    8.2252 C   0  0  0  0  0  0  0  0  0  0  0  0
   -0.7716    5.0997    8.0734 H   0  0  0  0  0  0  0  0  0  0  0  0
    0.3756    4.3687    9.1715 H   0  0  0  0  0  0  0  0  0  0  0  0
    0.7919    5.8421    8.3153 H   0  0  0  0  0  0  0  0  0  0  0  0
    3.1629    4.1993   10.3617 C   0  0  0  0  0  0  0  0  0  0  0  0
    2.7883    3.7481   11.2791 H   0  0  0  0  0  0  0  0  0  0  0  0
    4.1465    4.6217   10.5548 H   0  0  0  0  0  0  0  0  0  0  0  0
    2.4868    4.9907   10.0506 H   0  0  0  0  0  0  0  0  0  0  0  0
    4.7651    2.0096    9.6634 C   0  0  0  0  0  0  0  0  0  0  0  0
    4.6502    1.7791   10.7232 H   0  0  0  0  0  0  0  0  0  0  0  0
    4.8732    1.0934    9.0864 H   0  0  0  0  0  0  0  0  0  0  0  0
    5.6569    2.6119    9.5048 H   0  0  0  0  0  0  0  0  0  0  0  0
    1.9899    1.7428    9.6024 C   0  0  0  0  0  0  0  0  0  0  0  0
    2.0874    1.5401   10.6687 H   0  0  0  0  0  0  0  0  0  0  0  0
    1.0066    2.1522    9.3893 H   0  0  0  0  0  0  0  0  0  0  0  0
    2.1025    0.8164    9.0438 H   0  0  0  0  0  0  0  0  0  0  0  0
    5.3624    5.8410    5.3428 C   0  0  0  0  0  0  0  0  0  0  0  0
    5.9426    6.7336    5.5793 H   0  0  0  0  0  0  0  0  0  0  0  0
    6.0380    5.0056    5.1742 H   0  0  0  0  0  0  0  0  0  0  0  0
    4.7729    6.0268    4.4479 H   0  0  0  0  0  0  0  0  0  0  0  0
  1 39  1  0  0  0  0
  1 40  1  0  0  0  0
  2  1  1  0  0  0  0
  3  1  1  0  0  0  0
  4  1  1  0  0  0  0
  4 35  1  0  0  0  0
  5 13  1  0  0  0  0
  5  1  1  0  0  0  0
  5 41  1  0  0  0  0
  6  9  2  0  0  0  0
  6  8  1  0  0  0  0
  6  7  1  0  0  0  0
  9 11  1  0  0  0  0
 10  9  1  0  0  0  0
 12 11  1  0  0  0  0
 13 11  2  0  0  0  0
 14 13  1  0  0  0  0
 15 16  1  0  0  0  0
 15  5  1  0  0  0  0
 17 15  1  0  0  0  0
 18 15  1  0  0  0  0
 19 22  1  0  0  0  0
 19  3  1  0  0  0  0
 20 19  1  0  0  0  0
 21 19  1  0  0  0  0
 23 26  1  0  0  0  0
 23 25  1  0  0  0  0
 23  3  1  0  0  0  0
 24 23  1  0  0  0  0
 27 29  1  0  0  0  0
 27  3  1  0  0  0  0
 27 30  1  0  0  0  0
 28 27  1  0  0  0  0
 31 32  1  0  0  0  0
 31  4  1  0  0  0  0
 31 33  1  0  0  0  0
 34 31  1  0  0  0  0
 35 37  1  0  0  0  0
 35 38  1  0  0  0  0
 36 35  1  0  0  0  0
 40 53  1  0  0  0  0
 40 49  1  0  0  0  0
 40 45  1  0  0  0  0
 41 44  1  0  0  0  0
 41 43  1  0  0  0  0
 42 41  1  0  0  0  0
 45 47  1  0  0  0  0
 45 46  1  0  0  0  0
 48 45  1  0  0  0  0
 49 50  1  0  0  0  0
 51 49  1  0  0  0  0
 52 49  1  0  0  0  0
 53 54  1  0  0  0  0
 55 53  1  0  0  0  0
 56 53  1  0  0  0  0
 57 58  1  0  0  0  0
 57  4  1  0  0  0  0
 59 57  1  0  0  0  0
 60 57  1  0  0  0  0
M  END
$$$$
