CSD_code = VIQJUB | q = 1 | S = 0 | Stoichiometry = C18H28ClN2NiO5(1+) | MND = 6
 OpenBabel04212202113D

 55 53  0  0  0  0  0  0  0  0999 V2000
    1.3524    5.6686   13.0140 Ni  0  0  0  0  0  0  0  0  0  0  0  0
    3.3036    6.1527   13.5945 Cl  0  0  0  0  0  0  0  0  0  0  0  0
    2.7144    6.1228    4.9193 N   0  0  0  0  0  0  0  0  0  0  0  0
   -0.7669    5.0253   20.9308 N   0  0  0  0  0  0  0  0  0  0  0  0
    1.7437    5.7940   11.2205 O   0  0  0  0  0  0  0  0  0  0  0  0
    0.7961    5.5523   14.7572 O   0  0  0  0  0  0  0  0  0  0  0  0
    0.5543    7.9925   13.0594 O   0  0  0  0  0  0  0  0  0  0  0  0
    0.4963    8.1667   14.0049 H   0  0  0  0  0  0  0  0  0  0  0  0
    1.3308    8.4699   12.7474 H   0  0  0  0  0  0  0  0  0  0  0  0
    1.4903    3.2837   12.9122 O   0  0  0  0  0  0  0  0  0  0  0  0
    2.3782    3.0635   12.6120 H   0  0  0  0  0  0  0  0  0  0  0  0
    0.8766    3.0323   12.2153 H   0  0  0  0  0  0  0  0  0  0  0  0
   -0.7342    5.3586   12.4050 O   0  0  0  0  0  0  0  0  0  0  0  0
   -1.2488    5.2418   13.2097 H   0  0  0  0  0  0  0  0  0  0  0  0
   -0.9521    6.2282   12.0498 H   0  0  0  0  0  0  0  0  0  0  0  0
    2.6485    6.2740   10.5172 C   0  0  0  0  0  3  0  0  0  0  0  0
    3.5138    6.7617   10.9877 H   0  0  0  0  0  0  0  0  0  0  0  0
    2.6554    6.2290    9.0962 C   0  0  0  0  0  0  0  0  0  0  0  0
    3.7261    6.7841    8.3697 C   0  0  0  0  0  0  0  0  0  0  0  0
    4.5428    7.2418    8.9076 H   0  0  0  0  0  0  0  0  0  0  0  0
    3.7481    6.7496    7.0043 C   0  0  0  0  0  0  0  0  0  0  0  0
    4.5872    7.1864    6.4906 H   0  0  0  0  0  0  0  0  0  0  0  0
    2.6948    6.1564    6.2659 C   0  0  0  0  0  0  0  0  0  0  0  0
    1.6197    5.6003    7.0027 C   0  0  0  0  0  0  0  0  0  0  0  0
    0.7954    5.1372    6.4879 H   0  0  0  0  0  0  0  0  0  0  0  0
    1.6041    5.6369    8.3674 C   0  0  0  0  0  0  0  0  0  0  0  0
    0.7770    5.2103    8.9148 H   0  0  0  0  0  0  0  0  0  0  0  0
    3.8223    6.6855    4.1814 C   0  0  0  0  0  0  0  0  0  0  0  0
    3.9162    7.7577    4.3710 H   0  0  0  0  0  0  0  0  0  0  0  0
    3.6612    6.5433    3.1167 H   0  0  0  0  0  0  0  0  0  0  0  0
    4.7610    6.1957    4.4507 H   0  0  0  0  0  0  0  0  0  0  0  0
    1.6271    5.5265    4.1777 C   0  0  0  0  0  0  0  0  0  0  0  0
    1.5238    4.4652    4.4172 H   0  0  0  0  0  0  0  0  0  0  0  0
    1.8204    5.6150    3.1125 H   0  0  0  0  0  0  0  0  0  0  0  0
    0.6823    6.0313    4.3937 H   0  0  0  0  0  0  0  0  0  0  0  0
    1.2730    4.9171   15.7147 C   0  0  0  0  0  3  0  0  0  0  0  0
    2.1688    4.2997   15.5779 H   0  0  0  0  0  0  0  0  0  0  0  0
    0.7312    4.9386   17.0289 C   0  0  0  0  0  0  0  0  0  0  0  0
   -0.4061    5.7035   17.3577 C   0  0  0  0  0  0  0  0  0  0  0  0
   -0.8841    6.2793   16.5792 H   0  0  0  0  0  0  0  0  0  0  0  0
   -0.9007    5.7322   18.6300 C   0  0  0  0  0  0  0  0  0  0  0  0
   -1.7681    6.3363   18.8347 H   0  0  0  0  0  0  0  0  0  0  0  0
   -0.2885    4.9928   19.6720 C   0  0  0  0  0  0  0  0  0  0  0  0
    0.8490    4.2193   19.3344 C   0  0  0  0  0  0  0  0  0  0  0  0
    1.3460    3.6341   20.0888 H   0  0  0  0  0  0  0  0  0  0  0  0
    1.3381    4.1950   18.0592 C   0  0  0  0  0  0  0  0  0  0  0  0
    2.2086    3.5987   17.8310 H   0  0  0  0  0  0  0  0  0  0  0  0
   -0.1098    4.2952   21.9909 C   0  0  0  0  0  0  0  0  0  0  0  0
   -0.1413    3.2186   21.8053 H   0  0  0  0  0  0  0  0  0  0  0  0
   -0.6118    4.4911   22.9340 H   0  0  0  0  0  0  0  0  0  0  0  0
    0.9325    4.6062   22.0911 H   0  0  0  0  0  0  0  0  0  0  0  0
   -1.9448    5.7964   21.2559 C   0  0  0  0  0  0  0  0  0  0  0  0
   -1.7774    6.8627   21.0835 H   0  0  0  0  0  0  0  0  0  0  0  0
   -2.1931    5.6583   22.3043 H   0  0  0  0  0  0  0  0  0  0  0  0
   -2.8011    5.4719   20.6601 H   0  0  0  0  0  0  0  0  0  0  0  0
  1  2  1  0  0  0  0
  1  6  1  0  0  0  0
  3 23  1  0  0  0  0
  4 52  1  0  0  0  0
  4 48  1  0  0  0  0
  5  1  1  0  0  0  0
  6 36  1  0  0  0  0
  7  8  1  0  0  0  0
  9  7  1  0  0  0  0
 11 10  1  0  0  0  0
 12 10  1  0  0  0  0
 13 14  1  0  0  0  0
 15 13  1  0  0  0  0
 16 17  1  0  0  0  0
 16  5  1  0  0  0  0
 18 16  1  0  0  0  0
 19 20  1  0  0  0  0
 19 18  1  0  0  0  0
 21 19  2  0  0  0  0
 22 21  1  0  0  0  0
 23 24  2  0  0  0  0
 23 21  1  0  0  0  0
 24 26  1  0  0  0  0
 25 24  1  0  0  0  0
 26 27  1  0  0  0  0
 26 18  2  0  0  0  0
 28 29  1  0  0  0  0
 28 31  1  0  0  0  0
 28  3  1  0  0  0  0
 30 28  1  0  0  0  0
 32 35  1  0  0  0  0
 32 33  1  0  0  0  0
 32  3  1  0  0  0  0
 34 32  1  0  0  0  0
 36 38  1  0  0  0  0
 37 36  1  0  0  0  0
 38 39  2  0  0  0  0
 38 46  1  0  0  0  0
 39 41  1  0  0  0  0
 40 39  1  0  0  0  0
 41 42  1  0  0  0  0
 41 43  2  0  0  0  0
 43  4  1  0  0  0  0
 44 43  1  0  0  0  0
 44 45  1  0  0  0  0
 46 44  2  0  0  0  0
 47 46  1  0  0  0  0
 48 51  1  0  0  0  0
 48 50  1  0  0  0  0
 49 48  1  0  0  0  0
 52 54  1  0  0  0  0
 53 52  1  0  0  0  0
 55 52  1  0  0  0  0
M  END
$$$$
