CSD_code = VIQSOD | q = 1 | S = 0 | Stoichiometry = C27H31ClOPRu(1+) | MND = 9
 OpenBabel04212202113D

 62 64  0  0  1  0  0  0  0  0999 V2000
    3.3749   -7.8201   -5.0851 Ru  0  0  1  0  0  0  0  0  0  0  0  0
    5.5790   -7.4503   -5.6992 P   0  0  0  0  0  4  0  0  0  0  0  0
    4.1193  -10.0338   -4.8826 Cl  0  0  0  0  0 15  0  0  0  0  0  0
    3.3788   -7.1281   -2.8419 C   0  0  0  0  0  0  0  0  0  0  0  0
    2.4861   -8.2234   -2.9036 C   0  0  0  0  0  0  0  0  0  0  0  0
    1.4670   -8.2649   -3.9029 C   0  0  1  0  0  0  0  0  0  0  0  0
    1.1840   -7.0995   -4.6625 C   0  0  0  0  0  0  0  0  0  0  0  0
    2.0539   -5.9709   -4.5744 C   0  0  0  0  0  0  0  0  0  0  0  0
    3.1724   -5.9918   -3.6919 C   0  0  2  0  0  0  0  0  0  0  0  0
    4.4273   -7.1214   -1.7594 C   0  0  0  0  0  0  0  0  0  0  0  0
    2.5761   -9.3379   -1.9058 C   0  0  0  0  0  0  0  0  0  0  0  0
    0.6258   -9.5031   -4.0478 C   0  0  0  0  0  0  0  0  0  0  0  0
   -0.0806   -6.9828   -5.4675 C   0  0  0  0  0  0  0  0  0  0  0  0
    1.6788   -4.7099   -5.3040 C   0  0  0  0  0  0  0  0  0  0  0  0
    3.9710   -4.7262   -3.5306 C   0  0  0  0  0  0  0  0  0  0  0  0
    6.2564   -8.7603   -6.7456 C   0  0  0  0  0  0  0  0  0  0  0  0
    7.4628   -9.2927   -6.6251 C   0  0  0  0  0  0  0  0  0  0  0  0
    6.7092   -7.2871   -4.2965 C   0  0  0  0  0  0  0  0  0  0  0  0
    6.9678   -8.4288   -3.5368 C   0  0  0  0  0  0  0  0  0  0  0  0
    7.8109   -8.3509   -2.4435 C   0  0  0  0  0  0  0  0  0  0  0  0
    8.3862   -7.1382   -2.0941 C   0  0  0  0  0  0  0  0  0  0  0  0
    8.1136   -5.9993   -2.8359 C   0  0  0  0  0  0  0  0  0  0  0  0
    7.2739   -6.0666   -3.9344 C   0  0  0  0  0  0  0  0  0  0  0  0
    5.8465   -6.0014   -6.7595 C   0  0  0  0  0  0  0  0  0  0  0  0
    4.7629   -5.2822   -7.2490 C   0  0  0  0  0  0  0  0  0  0  0  0
    4.9706   -4.2053   -8.0931 C   0  0  0  0  0  0  0  0  0  0  0  0
    6.2601   -3.8494   -8.4537 C   0  0  0  0  0  0  0  0  0  0  0  0
    7.3427   -4.5755   -7.9796 C   0  0  0  0  0  0  0  0  0  0  0  0
    7.1413   -5.6530   -7.1374 C   0  0  0  0  0  0  0  0  0  0  0  0
    2.9935   -8.1111   -6.8620 C   0  0  0  0  0  2  0  0  0  0  0  0
    2.6698   -8.2783   -7.9445 O   0  0  0  0  0  1  0  0  0  0  0  0
    5.2638   -6.4702   -1.9918 H   0  0  0  0  0  0  0  0  0  0  0  0
    4.8339   -8.1188   -1.6114 H   0  0  0  0  0  0  0  0  0  0  0  0
    3.9829   -6.7827   -0.8217 H   0  0  0  0  0  0  0  0  0  0  0  0
    1.6011   -9.7895   -1.7458 H   0  0  0  0  0  0  0  0  0  0  0  0
    2.9429   -8.9786   -0.9487 H   0  0  0  0  0  0  0  0  0  0  0  0
    3.2534  -10.1160   -2.2656 H   0  0  0  0  0  0  0  0  0  0  0  0
    1.2283  -10.3905   -3.8654 H   0  0  0  0  0  0  0  0  0  0  0  0
    0.2246   -9.5886   -5.0547 H   0  0  0  0  0  0  0  0  0  0  0  0
   -0.2053   -9.4952   -3.3407 H   0  0  0  0  0  0  0  0  0  0  0  0
    0.1180   -6.9994   -6.5394 H   0  0  0  0  0  0  0  0  0  0  0  0
   -0.5730   -6.0403   -5.2326 H   0  0  0  0  0  0  0  0  0  0  0  0
   -0.7748   -7.7847   -5.2401 H   0  0  0  0  0  0  0  0  0  0  0  0
    1.2421   -4.9285   -6.2754 H   0  0  0  0  0  0  0  0  0  0  0  0
    2.5286   -4.0526   -5.4557 H   0  0  0  0  0  0  0  0  0  0  0  0
    0.9364   -4.1660   -4.7164 H   0  0  0  0  0  0  0  0  0  0  0  0
    4.7752   -4.8297   -2.8117 H   0  0  0  0  0  0  0  0  0  0  0  0
    3.3126   -3.9302   -3.1817 H   0  0  0  0  0  0  0  0  0  0  0  0
    4.4096   -4.4141   -4.4786 H   0  0  0  0  0  0  0  0  0  0  0  0
    5.5763   -9.0620   -7.5380 H   0  0  0  0  0  0  0  0  0  0  0  0
    8.1431   -9.0123   -5.8368 H   0  0  0  0  0  0  0  0  0  0  0  0
    7.8088  -10.0502   -7.3089 H   0  0  0  0  0  0  0  0  0  0  0  0
    6.5031   -9.3659   -3.8132 H   0  0  0  0  0  0  0  0  0  0  0  0
    8.0218   -9.2362   -1.8631 H   0  0  0  0  0  0  0  0  0  0  0  0
    9.0461   -7.0797   -1.2424 H   0  0  0  0  0  0  0  0  0  0  0  0
    8.5585   -5.0551   -2.5603 H   0  0  0  0  0  0  0  0  0  0  0  0
    7.0672   -5.1785   -4.5148 H   0  0  0  0  0  0  0  0  0  0  0  0
    3.7591   -5.5876   -6.9723 H   0  0  0  0  0  0  0  0  0  0  0  0
    4.1287   -3.6480   -8.4749 H   0  0  0  0  0  0  0  0  0  0  0  0
    6.4222   -3.0108   -9.1128 H   0  0  0  0  0  0  0  0  0  0  0  0
    8.3450   -4.3042   -8.2731 H   0  0  0  0  0  0  0  0  0  0  0  0
    7.9793   -6.2316   -6.7744 H   0  0  0  0  0  0  0  0  0  0  0  0
  1 30  1  6  0  0  0
  1  6  1  0  0  0  0
  1  9  1  0  0  0  0
  2  1  1  0  0  0  0
  2 18  1  0  0  0  0
  4 10  1  0  0  0  0
  5  4  2  0  0  0  0
  5 11  1  0  0  0  0
  6 12  1  6  0  0  0
  6  5  1  0  0  0  0
  7  8  2  0  0  0  0
  7  6  1  0  0  0  0
  8  9  1  0  0  0  0
  9 15  1  6  0  0  0
  9  4  1  0  0  0  0
 10 33  1  0  0  0  0
 10 34  1  0  0  0  0
 11 35  1  0  0  0  0
 11 36  1  0  0  0  0
 12 38  1  0  0  0  0
 12 40  1  0  0  0  0
 13 43  1  0  0  0  0
 13 42  1  0  0  0  0
 13  7  1  0  0  0  0
 14 46  1  0  0  0  0
 14  8  1  0  0  0  0
 15 48  1  0  0  0  0
 15 47  1  0  0  0  0
 16 17  2  0  0  0  0
 16  2  1  0  0  0  0
 17 51  1  0  0  0  0
 18 23  2  0  0  0  0
 18 19  1  0  0  0  0
 19 20  2  0  0  0  0
 20 21  1  0  0  0  0
 20 54  1  0  0  0  0
 21 55  1  0  0  0  0
 22 56  1  0  0  0  0
 22 21  2  0  0  0  0
 23 22  1  0  0  0  0
 24  2  1  0  0  0  0
 25 58  1  0  0  0  0
 25 24  2  0  0  0  0
 26 25  1  0  0  0  0
 27 26  2  0  0  0  0
 27 28  1  0  0  0  0
 28 29  2  0  0  0  0
 29 62  1  0  0  0  0
 29 24  1  0  0  0  0
 31 30  1  0  0  0  0
 32 10  1  0  0  0  0
 37 11  1  0  0  0  0
 39 12  1  0  0  0  0
 41 13  1  0  0  0  0
 44 14  1  0  0  0  0
 45 14  1  0  0  0  0
 49 15  1  0  0  0  0
 50 16  1  0  0  0  0
 52 17  1  0  0  0  0
 53 19  1  0  0  0  0
 57 23  1  0  0  0  0
 59 26  1  0  0  0  0
 60 27  1  0  0  0  0
 61 28  1  0  0  0  0
M  END
$$$$
