CSD_code = VIQVOI | q = 0 | S = 0 | Stoichiometry = C17H32ClN4O2P3Ru | MND = 6
 OpenBabel04212202113D

 60 62  0  0  1  0  0  0  0  0999 V2000
   14.2243    2.8336   15.4312 C   0  0  2  0  0  3  0  0  0  0  0  0
   13.1756    2.1654   14.7948 C   0  0  0  0  0  0  0  0  0  0  0  0
   12.6057    2.6841   14.0412 H   0  0  0  0  0  0  0  0  0  0  0  0
   12.8925    0.8607   15.1435 C   0  0  0  0  0  0  0  0  0  0  0  0
   12.0851    0.3322   14.6604 H   0  0  0  0  0  0  0  0  0  0  0  0
   13.6614    0.2419   16.1231 C   0  0  0  0  0  0  0  0  0  0  0  0
   13.4740   -0.7760   16.4250 H   0  0  0  0  0  0  0  0  0  0  0  0
   14.6832    0.9589   16.7132 C   0  0  0  0  0  0  0  0  0  0  0  0
   15.3091    0.5199   17.4816 H   0  0  0  0  0  0  0  0  0  0  0  0
   14.6420    4.1873   15.1797 C   0  0  0  0  0  0  0  0  0  0  0  0
   14.2911    5.2896   14.3481 C   0  0  0  0  0  0  0  0  0  0  0  0
   15.2108    6.2896   14.7124 C   0  0  0  0  0  0  0  0  0  0  0  0
   15.2820    7.2819   14.3135 H   0  0  0  0  0  0  0  0  0  0  0  0
   13.8730    5.3270   18.7013 C   0  0  0  0  0  0  0  0  0  0  0  0
   13.2396    5.1801   17.8261 H   0  0  0  0  0  0  0  0  0  0  0  0
   14.4777    6.2162   18.5403 H   0  0  0  0  0  0  0  0  0  0  0  0
   13.2460    5.4582   19.5825 H   0  0  0  0  0  0  0  0  0  0  0  0
   15.5743    3.9916   20.6020 C   0  0  0  0  0  0  0  0  0  0  0  0
   14.7438    4.1407   21.2922 H   0  0  0  0  0  0  0  0  0  0  0  0
   16.2829    4.8106   20.6982 H   0  0  0  0  0  0  0  0  0  0  0  0
   16.0858    3.0561   20.8316 H   0  0  0  0  0  0  0  0  0  0  0  0
   13.6595    2.5775   19.1951 C   0  0  0  0  0  0  0  0  0  0  0  0
   14.1506    1.6326   19.4250 H   0  0  0  0  0  0  0  0  0  0  0  0
   13.0218    2.4532   18.3205 H   0  0  0  0  0  0  0  0  0  0  0  0
   13.0477    2.8843   20.0439 H   0  0  0  0  0  0  0  0  0  0  0  0
   19.1835    4.4641   19.1833 C   0  0  0  0  0  0  0  0  0  0  0  0
   19.7531    3.5988   18.8483 H   0  0  0  0  0  0  0  0  0  0  0  0
   18.6312    4.1705   20.0745 H   0  0  0  0  0  0  0  0  0  0  0  0
   19.8551    5.2915   19.4120 H   0  0  0  0  0  0  0  0  0  0  0  0
   17.3591    6.5321   18.5135 C   0  0  0  0  0  0  0  0  0  0  0  0
   18.1979    7.1777   18.7732 H   0  0  0  0  0  0  0  0  0  0  0  0
   16.7296    6.3889   19.3877 H   0  0  0  0  0  0  0  0  0  0  0  0
   16.7771    6.9879   17.7147 H   0  0  0  0  0  0  0  0  0  0  0  0
   19.1100    5.6367   16.6009 C   0  0  0  0  0  0  0  0  0  0  0  0
   18.4814    6.1159   15.8527 H   0  0  0  0  0  0  0  0  0  0  0  0
   19.7123    4.8637   16.1310 H   0  0  0  0  0  0  0  0  0  0  0  0
   19.7650    6.3764   17.0607 H   0  0  0  0  0  0  0  0  0  0  0  0
   19.5682    1.9405   16.2104 C   0  0  0  0  0  0  0  0  0  0  0  0
   20.0892    1.4051   15.4165 H   0  0  0  0  0  0  0  0  0  0  0  0
   19.4764    1.3041   17.0912 H   0  0  0  0  0  0  0  0  0  0  0  0
   20.1283    2.8324   16.4808 H   0  0  0  0  0  0  0  0  0  0  0  0
   18.1192    3.1699   14.0473 C   0  0  0  0  0  0  0  0  0  0  0  0
   18.4668    4.1911   14.1831 H   0  0  0  0  0  0  0  0  0  0  0  0
   17.1603    3.2001   13.5293 H   0  0  0  0  0  0  0  0  0  0  0  0
   18.8358    2.6097   13.4476 H   0  0  0  0  0  0  0  0  0  0  0  0
   17.3638    0.6880   15.1028 C   0  0  0  0  0  0  0  0  0  0  0  0
   18.1300    0.2910   14.4364 H   0  0  0  0  0  0  0  0  0  0  0  0
   16.4140    0.7323   14.5706 H   0  0  0  0  0  0  0  0  0  0  0  0
   17.2650    0.0364   15.9703 H   0  0  0  0  0  0  0  0  0  0  0  0
   14.9658    2.2157   16.3868 N   0  0  0  0  0  0  0  0  0  0  0  0
   15.6801    4.6003   15.9257 N   0  0  0  0  0  0  0  0  0  0  0  0
   16.0243    5.8454   15.6557 N   0  0  0  0  0  0  0  0  0  0  0  0
   13.3061    5.4535   13.3827 N   0  0  0  0  0  0  0  0  0  0  0  0
   12.5459    4.5213   13.1343 O   0  0  0  0  0  0  0  0  0  0  0  0
   13.2416    6.5371   12.8182 O   0  0  0  0  0  0  0  0  0  0  0  0
   14.9438    3.8500   18.8899 P   0  0  0  0  0  4  0  0  0  0  0  0
   17.9933    4.9373   17.8733 P   0  0  0  0  0  4  0  0  0  0  0  0
   17.8694    2.3560   15.6719 P   0  0  0  0  0  4  0  0  0  0  0  0
   17.2215    1.6489   18.6930 Cl  0  0  0  0  0  0  0  0  0  0  0  0
   16.4488    3.3560   17.2007 Ru  0  0  0  0  0  0  0  0  0  0  0  0
  1  2  1  6  0  0  0
  1 50  1  0  0  0  0
  2  4  2  0  0  0  0
  3  2  1  0  0  0  0
  4  6  1  0  0  0  0
  5  4  1  0  0  0  0
  6  7  1  0  0  0  0
  6  8  2  0  0  0  0
  8  9  1  0  0  0  0
 10  1  1  0  0  0  0
 10 51  1  0  0  0  0
 11 12  1  0  0  0  0
 11 10  2  0  0  0  0
 12 52  2  0  0  0  0
 13 12  1  0  0  0  0
 14 56  1  0  0  0  0
 14 17  1  0  0  0  0
 15 14  1  0  0  0  0
 16 14  1  0  0  0  0
 18 20  1  0  0  0  0
 18 21  1  0  0  0  0
 18 19  1  0  0  0  0
 22 23  1  0  0  0  0
 22 25  1  0  0  0  0
 24 22  1  0  0  0  0
 26 29  1  0  0  0  0
 26 28  1  0  0  0  0
 27 26  1  0  0  0  0
 30 31  1  0  0  0  0
 30 32  1  0  0  0  0
 33 30  1  0  0  0  0
 34 37  1  0  0  0  0
 34 57  1  0  0  0  0
 35 34  1  0  0  0  0
 36 34  1  0  0  0  0
 38 41  1  0  0  0  0
 38 40  1  0  0  0  0
 39 38  1  0  0  0  0
 42 43  1  0  0  0  0
 42 58  1  0  0  0  0
 44 42  1  0  0  0  0
 45 42  1  0  0  0  0
 46 58  1  0  0  0  0
 46 49  1  0  0  0  0
 47 46  1  0  0  0  0
 48 46  1  0  0  0  0
 50  8  1  0  0  0  0
 50 60  1  0  0  0  0
 51 60  1  0  0  0  0
 52 51  1  0  0  0  0
 53 11  1  0  0  0  0
 54 53  2  0  0  0  0
 55 53  2  0  0  0  0
 56 22  1  0  0  0  0
 56 18  1  0  0  0  0
 57 30  1  0  0  0  0
 57 26  1  0  0  0  0
 58 38  1  0  0  0  0
 58 60  1  0  0  0  0
 60 57  1  0  0  0  0
 60 59  1  0  0  0  0
 60 56  1  0  0  0  0
M  END
$$$$
