CSD_code = VIQYOK | q = 0 | S = 0 | Stoichiometry = C17H18Cl2N4O2Zn | MND = 4
 OpenBabel04212202113D

 44 47  0  0  1  0  0  0  0  0999 V2000
    2.0449    2.5134    3.5077 Zn  0  0  0  0  0  0  0  0  0  0  0  0
    1.1096    0.8035    2.5724 Cl  0  0  0  0  0  0  0  0  0  0  0  0
    3.5432    2.6480    5.1783 Cl  0  0  0  0  0  0  0  0  0  0  0  0
    4.9812    5.1419    4.5640 O   0  0  0  0  0  0  0  0  0  0  0  0
    3.6062    5.5851    6.2969 O   0  0  0  0  0  0  0  0  0  0  0  0
    0.6359    5.8500    5.3880 N   0  0  0  0  0  0  0  0  0  0  0  0
    0.8171    4.0032    4.2231 N   0  0  0  0  0  0  0  0  0  0  0  0
    3.9733    5.7658    1.8862 N   0  0  0  0  0  0  0  0  0  0  0  0
    2.8806    3.8984    2.2291 N   0  0  0  0  0  0  0  0  0  0  0  0
    3.8152    5.3687    5.1351 C   0  0  0  0  0  0  0  0  0  0  0  0
    2.7273    5.6286    4.0422 C   0  0  2  0  0  0  0  0  0  0  0  0
    2.6788    6.7240    3.9678 H   0  0  0  0  0  0  0  0  0  0  0  0
    1.4021    5.1435    4.5302 C   0  0  2  0  0  3  0  0  0  0  0  0
   -0.4851    5.1095    5.6282 C   0  0  0  0  0  0  0  0  0  0  0  0
   -1.2573    5.4455    6.2884 H   0  0  0  0  0  0  0  0  0  0  0  0
   -0.3610    3.9670    4.8996 C   0  0  0  0  0  0  0  0  0  0  0  0
   -1.0217    3.1293    4.8074 H   0  0  0  0  0  0  0  0  0  0  0  0
    0.9365    7.1229    5.9861 C   0  0  0  0  0  0  0  0  0  0  0  0
    1.8920    7.0670    6.5086 H   0  0  0  0  0  0  0  0  0  0  0  0
    0.1537    7.3685    6.7002 H   0  0  0  0  0  0  0  0  0  0  0  0
    0.9773    7.9068    5.2259 H   0  0  0  0  0  0  0  0  0  0  0  0
    3.1632    5.0842    2.7272 C   0  0  1  0  0  3  0  0  0  0  0  0
    4.2024    4.9592    0.8080 C   0  0  0  0  0  0  0  0  0  0  0  0
    4.8218    5.2659   -0.0090 H   0  0  0  0  0  0  0  0  0  0  0  0
    3.5174    3.8055    1.0325 C   0  0  0  0  0  0  0  0  0  0  0  0
    3.4290    2.9242    0.4308 H   0  0  0  0  0  0  0  0  0  0  0  0
    4.5496    7.0661    2.0907 C   0  0  0  0  0  0  0  0  0  0  0  0
    3.7707    7.8248    2.1937 H   0  0  0  0  0  0  0  0  0  0  0  0
    5.1670    7.3164    1.2306 H   0  0  0  0  0  0  0  0  0  0  0  0
    5.1753    7.0667    2.9852 H   0  0  0  0  0  0  0  0  0  0  0  0
    6.0985    4.8442    5.4159 C   0  0  0  0  0  0  0  0  0  0  0  0
    6.4898    3.8830    5.0779 H   0  0  0  0  0  0  0  0  0  0  0  0
    5.7320    4.7449    6.4424 H   0  0  0  0  0  0  0  0  0  0  0  0
    7.1184    5.9422    5.2964 C   0  0  0  0  0  0  0  0  0  0  0  0
    6.7874    7.2334    5.6933 C   0  0  0  0  0  0  0  0  0  0  0  0
    5.8111    7.4236    6.1169 H   0  0  0  0  0  0  0  0  0  0  0  0
    7.7005    8.2636    5.5592 C   0  0  0  0  0  0  0  0  0  0  0  0
    7.4349    9.2627    5.8722 H   0  0  0  0  0  0  0  0  0  0  0  0
    8.9566    8.0121    5.0323 C   0  0  0  0  0  0  0  0  0  0  0  0
    9.6717    8.8150    4.9323 H   0  0  0  0  0  0  0  0  0  0  0  0
    9.2938    6.7285    4.6386 C   0  0  0  0  0  0  0  0  0  0  0  0
   10.2732    6.5284    4.2303 H   0  0  0  0  0  0  0  0  0  0  0  0
    8.3766    5.6989    4.7635 C   0  0  0  0  0  0  0  0  0  0  0  0
    8.6392    4.6987    4.4525 H   0  0  0  0  0  0  0  0  0  0  0  0
  1  7  1  0  0  0  0
  1  3  1  0  0  0  0
  2  1  1  0  0  0  0
  4 10  1  0  0  0  0
  4 31  1  0  0  0  0
  6 14  1  0  0  0  0
  6 18  1  0  0  0  0
  7 16  1  0  0  0  0
  8 27  1  0  0  0  0
  9 22  1  0  0  0  0
  9  1  1  0  0  0  0
 10  5  2  0  0  0  0
 11 12  1  6  0  0  0
 11 13  1  0  0  0  0
 11 10  1  0  0  0  0
 13  7  1  1  0  0  0
 13  6  1  0  0  0  0
 14 15  1  0  0  0  0
 16 14  2  0  0  0  0
 17 16  1  0  0  0  0
 18 19  1  0  0  0  0
 18 20  1  0  0  0  0
 21 18  1  0  0  0  0
 22  8  1  1  0  0  0
 22 11  1  0  0  0  0
 23 25  2  0  0  0  0
 23  8  1  0  0  0  0
 24 23  1  0  0  0  0
 25  9  1  0  0  0  0
 26 25  1  0  0  0  0
 27 28  1  0  0  0  0
 27 30  1  0  0  0  0
 29 27  1  0  0  0  0
 31 33  1  0  0  0  0
 32 31  1  0  0  0  0
 34 31  1  0  0  0  0
 34 35  1  0  0  0  0
 35 36  1  0  0  0  0
 37 35  2  0  0  0  0
 37 38  1  0  0  0  0
 39 37  1  0  0  0  0
 40 39  1  0  0  0  0
 41 43  1  0  0  0  0
 41 39  2  0  0  0  0
 42 41  1  0  0  0  0
 43 34  2  0  0  0  0
 44 43  1  0  0  0  0
M  END
$$$$
