CSD_code = VIRFIM | q = 0 | S = 0 | Stoichiometry = C28H30Cl2N2ORu | MND = 5
 OpenBabel04212202113D

 64 68  0  0  1  0  0  0  0  0999 V2000
    1.2195    9.7438    3.1433 Ru  0  0  0  0  0  0  0  0  0  0  0  0
    2.3457   10.7600    1.4114 Cl  0  0  0  0  0  0  0  0  0  0  0  0
   -0.2981    8.4335    4.2902 Cl  0  0  0  0  0  0  0  0  0  0  0  0
    3.3299    9.2878    5.1474 N   0  0  0  0  0  0  0  0  0  0  0  0
    3.5721    8.0503    3.3672 N   0  0  0  0  0  0  0  0  0  0  0  0
   -0.5331   10.8612    2.4003 O   0  0  0  0  0  0  0  0  0  0  0  0
    1.2433   11.1914    4.3695 C   0  0  1  0  0  3  0  0  0  0  0  0
    0.5431   12.3438    3.8558 C   0  0  0  0  0  0  0  0  0  0  0  0
   -0.3972   12.1485    2.8050 C   0  0  0  0  0  0  0  0  0  0  0  0
   -1.0988   13.2247    2.2850 C   0  0  0  0  0  0  0  0  0  0  0  0
   -1.8350   13.0843    1.5090 H   0  0  0  0  0  0  0  0  0  0  0  0
   -0.8385   14.5074    2.7420 C   0  0  0  0  0  0  0  0  0  0  0  0
   -1.3827   15.3386    2.3198 H   0  0  0  0  0  0  0  0  0  0  0  0
    0.1249   14.7251    3.7122 C   0  0  0  0  0  0  0  0  0  0  0  0
    0.3488   15.7300    4.0364 H   0  0  0  0  0  0  0  0  0  0  0  0
    0.8041   13.6573    4.2639 C   0  0  0  0  0  0  0  0  0  0  0  0
    1.5780   13.8306    4.9964 H   0  0  0  0  0  0  0  0  0  0  0  0
    2.8106    8.9780    3.9393 C   0  0  2  0  0  3  0  0  0  0  0  0
    2.8095   10.1962    6.0537 C   0  0  0  0  0  0  0  0  0  0  0  0
    1.7842   11.1159    5.6911 C   0  0  0  0  0  0  0  0  0  0  0  0
    1.2389   11.9162    6.7130 C   0  0  0  0  0  0  0  0  0  0  0  0
    0.3938   12.5432    6.4735 H   0  0  0  0  0  0  0  0  0  0  0  0
    1.7202   11.8928    8.0013 C   0  0  0  0  0  0  0  0  0  0  0  0
    1.2719   12.5176    8.7585 H   0  0  0  0  0  0  0  0  0  0  0  0
    2.7839   11.0610    8.3173 C   0  0  0  0  0  0  0  0  0  0  0  0
    3.1885   11.0469    9.3180 H   0  0  0  0  0  0  0  0  0  0  0  0
    3.3098   10.2203    7.3567 C   0  0  0  0  0  0  0  0  0  0  0  0
    4.1112    9.5583    7.6416 H   0  0  0  0  0  0  0  0  0  0  0  0
    4.4947    8.4596    5.4586 C   0  0  0  0  0  0  0  0  0  0  0  0
    4.2735    7.8005    6.3038 H   0  0  0  0  0  0  0  0  0  0  0  0
    5.3523    9.0894    5.7099 H   0  0  0  0  0  0  0  0  0  0  0  0
    4.7162    7.6597    4.1708 C   0  0  0  0  0  0  0  0  0  0  0  0
    4.7107    6.5788    4.3415 H   0  0  0  0  0  0  0  0  0  0  0  0
    5.6528    7.9229    3.6701 H   0  0  0  0  0  0  0  0  0  0  0  0
    3.3490    7.5897    2.0385 C   0  0  0  0  0  0  0  0  0  0  0  0
    2.3901    6.5959    1.8147 C   0  0  0  0  0  0  0  0  0  0  0  0
    2.1316    6.2111    0.5072 C   0  0  0  0  0  0  0  0  0  0  0  0
    1.3800    5.4568    0.3212 H   0  0  0  0  0  0  0  0  0  0  0  0
    2.8159    6.7692   -0.5634 C   0  0  0  0  0  0  0  0  0  0  0  0
    3.8013    7.7101   -0.3066 C   0  0  0  0  0  0  0  0  0  0  0  0
    4.3533    8.1402   -1.1298 H   0  0  0  0  0  0  0  0  0  0  0  0
    4.0843    8.1353    0.9833 C   0  0  0  0  0  0  0  0  0  0  0  0
    1.6910    5.9293    2.9593 C   0  0  0  0  0  0  0  0  0  0  0  0
    1.0534    6.6350    3.4953 H   0  0  0  0  0  0  0  0  0  0  0  0
    2.4135    5.5310    3.6706 H   0  0  0  0  0  0  0  0  0  0  0  0
    1.0697    5.1127    2.6014 H   0  0  0  0  0  0  0  0  0  0  0  0
    5.1636    9.1479    1.2185 C   0  0  0  0  0  0  0  0  0  0  0  0
    5.2897    9.7677    0.3353 H   0  0  0  0  0  0  0  0  0  0  0  0
    6.1131    8.6493    1.4232 H   0  0  0  0  0  0  0  0  0  0  0  0
    4.9135    9.7980    2.0537 H   0  0  0  0  0  0  0  0  0  0  0  0
    2.5182    6.3313   -1.9653 C   0  0  0  0  0  0  0  0  0  0  0  0
    3.0601    5.4124   -2.1916 H   0  0  0  0  0  0  0  0  0  0  0  0
    2.8232    7.0899   -2.6816 H   0  0  0  0  0  0  0  0  0  0  0  0
    1.4562    6.1326   -2.0906 H   0  0  0  0  0  0  0  0  0  0  0  0
   -1.3613   10.4766    1.3064 C   0  0  0  0  0  0  0  0  0  0  0  0
   -1.3177   11.2498    0.5264 H   0  0  0  0  0  0  0  0  0  0  0  0
   -0.7603    9.1787    0.7690 C   0  0  0  0  0  0  0  0  0  0  0  0
   -0.7324    8.4293    1.5687 H   0  0  0  0  0  0  0  0  0  0  0  0
   -1.3625    8.7884   -0.0474 H   0  0  0  0  0  0  0  0  0  0  0  0
    0.2528    9.3574    0.3977 H   0  0  0  0  0  0  0  0  0  0  0  0
   -2.7925   10.2704    1.7989 C   0  0  0  0  0  0  0  0  0  0  0  0
   -2.7955    9.5153    2.5833 H   0  0  0  0  0  0  0  0  0  0  0  0
   -3.4270    9.9371    0.9824 H   0  0  0  0  0  0  0  0  0  0  0  0
   -3.1996   11.1926    2.2083 H   0  0  0  0  0  0  0  0  0  0  0  0
  1 18  1  0  0  0  0
  1  3  1  0  0  0  0
  1  7  1  0  0  0  0
  2  1  1  0  0  0  0
  4 29  1  0  0  0  0
  4 19  1  0  0  0  0
  5 32  1  0  0  0  0
  6  9  1  0  0  0  0
  7  8  1  1  0  0  0
  7 20  1  0  0  0  0
  8 16  1  0  0  0  0
  9  8  2  0  0  0  0
 10 12  2  0  0  0  0
 10  9  1  0  0  0  0
 11 10  1  0  0  0  0
 12 14  1  0  0  0  0
 13 12  1  0  0  0  0
 14 15  1  0  0  0  0
 14 16  2  0  0  0  0
 16 17  1  0  0  0  0
 18  5  1  6  0  0  0
 18  4  1  0  0  0  0
 19 27  1  0  0  0  0
 20 19  2  0  0  0  0
 20 21  1  0  0  0  0
 21 23  2  0  0  0  0
 22 21  1  0  0  0  0
 23 25  1  0  0  0  0
 23 24  1  0  0  0  0
 25 26  1  0  0  0  0
 27 28  1  0  0  0  0
 27 25  2  0  0  0  0
 29 31  1  0  0  0  0
 29 30  1  0  0  0  0
 32 33  1  0  0  0  0
 32 29  1  0  0  0  0
 34 32  1  0  0  0  0
 35  5  1  0  0  0  0
 36 35  1  0  0  0  0
 36 43  1  0  0  0  0
 37 36  2  0  0  0  0
 38 37  1  0  0  0  0
 39 40  2  0  0  0  0
 39 37  1  0  0  0  0
 40 42  1  0  0  0  0
 41 40  1  0  0  0  0
 42 47  1  0  0  0  0
 42 35  2  0  0  0  0
 43 44  1  0  0  0  0
 43 45  1  0  0  0  0
 46 43  1  0  0  0  0
 47 49  1  0  0  0  0
 47 50  1  0  0  0  0
 48 47  1  0  0  0  0
 51 39  1  0  0  0  0
 52 51  1  0  0  0  0
 53 51  1  0  0  0  0
 54 51  1  0  0  0  0
 55 61  1  0  0  0  0
 55  6  1  0  0  0  0
 56 55  1  0  0  0  0
 57 55  1  0  0  0  0
 57 58  1  0  0  0  0
 59 57  1  0  0  0  0
 60 57  1  0  0  0  0
 61 64  1  0  0  0  0
 61 62  1  0  0  0  0
 63 61  1  0  0  0  0
M  END
$$$$
