CSD_code = VIRKOX | q = 0 | S = 0 | Stoichiometry = C13H20Cl4N4OTi | MND = 6
 OpenBabel04212202113D

 43 45  0  0  1  0  0  0  0  0999 V2000
    2.9583    5.7078    2.4955 Ti  0  0  0  0  0  0  0  0  0  0  0  0
    4.2333    6.4667    4.2698 Cl  0  0  0  0  0  0  0  0  0  0  0  0
    1.3623    7.1491    2.8918 Cl  0  0  0  0  0  0  0  0  0  0  0  0
    4.0727    7.0553    1.0324 Cl  0  0  0  0  0  0  0  0  0  0  0  0
    1.8520    4.2181    3.9922 Cl  0  0  0  0  0  0  0  0  0  0  0  0
    4.1259    4.4297    2.1849 O   0  0  0  0  0  0  0  0  0  0  0  0
    5.7072    2.7719    3.8422 N   0  0  0  0  0  0  0  0  0  0  0  0
    5.8782    3.9972    4.3513 N   0  0  0  0  0  0  0  0  0  0  0  0
    5.1429    4.7619    4.3626 H   0  0  0  0  0  0  0  0  0  0  0  0
    2.2735    3.5220    0.4643 N   0  0  1  0  0  0  0  0  0  0  0  0
    1.9204    4.7721    0.8285 N   0  0  0  0  0  0  0  0  0  0  0  0
    7.0580    0.7445    3.3419 C   0  0  0  0  0  0  0  0  0  0  0  0
    6.4332    0.0571    3.9105 H   0  0  0  0  0  0  0  0  0  0  0  0
    8.0946    0.4417    3.4528 H   0  0  0  0  0  0  0  0  0  0  0  0
    6.7835    0.6675    2.2912 H   0  0  0  0  0  0  0  0  0  0  0  0
    6.8902    2.1342    3.8320 C   0  0  2  0  0  3  0  0  0  0  0  0
    7.8347    3.0016    4.3629 C   0  0  0  0  0  0  0  0  0  0  0  0
    8.8766    2.8012    4.5026 H   0  0  0  0  0  0  0  0  0  0  0  0
    7.1590    4.1818    4.6687 C   0  0  0  0  0  0  0  0  0  0  0  0
    7.6363    5.4554    5.2460 C   0  0  0  0  0  0  0  0  0  0  0  0
    6.8626    6.2117    5.1401 H   0  0  0  0  0  0  0  0  0  0  0  0
    8.5429    5.7828    4.7432 H   0  0  0  0  0  0  0  0  0  0  0  0
    7.8654    5.3296    6.3028 H   0  0  0  0  0  0  0  0  0  0  0  0
    4.4378    2.3553    3.3260 C   0  0  0  0  0  0  0  0  0  0  0  0
    3.6431    2.6740    4.0165 H   0  0  0  0  0  0  0  0  0  0  0  0
    4.4319    1.2740    3.1975 H   0  0  0  0  0  0  0  0  0  0  0  0
    4.1489    3.0862    1.9783 C   0  0  1  0  0  0  0  0  0  0  0  0
    4.9475    2.8421    1.2461 H   0  0  0  0  0  0  0  0  0  0  0  0
    2.7763    2.5898    1.4350 C   0  0  0  0  0  0  0  0  0  0  0  0
    2.8679    1.6055    0.9762 H   0  0  0  0  0  0  0  0  0  0  0  0
    2.0755    2.5628    2.2798 H   0  0  0  0  0  0  0  0  0  0  0  0
    2.3140    2.0248   -1.5359 C   0  0  0  0  0  0  0  0  0  0  0  0
    3.3683    1.7618   -1.4571 H   0  0  0  0  0  0  0  0  0  0  0  0
    2.0603    2.1217   -2.5874 H   0  0  0  0  0  0  0  0  0  0  0  0
    1.7206    1.2153   -1.1113 H   0  0  0  0  0  0  0  0  0  0  0  0
    2.0330    3.3102   -0.8456 C   0  0  1  0  0  3  0  0  0  0  0  0
    1.4943    4.4794   -1.3421 C   0  0  0  0  0  0  0  0  0  0  0  0
    1.1813    4.6701   -2.3479 H   0  0  0  0  0  0  0  0  0  0  0  0
    1.4438    5.3721   -0.2643 C   0  0  0  0  0  0  0  0  0  0  0  0
    0.9449    6.7684   -0.2865 C   0  0  0  0  0  0  0  0  0  0  0  0
    0.2110    6.9246    0.5039 H   0  0  0  0  0  0  0  0  0  0  0  0
    0.4956    6.9861   -1.2519 H   0  0  0  0  0  0  0  0  0  0  0  0
    1.7740    7.4583   -0.1117 H   0  0  0  0  0  0  0  0  0  0  0  0
  1  3  1  0  0  0  0
  1  5  1  0  0  0  0
  1  2  1  0  0  0  0
  4  1  1  0  0  0  0
  6  1  1  0  0  0  0
  7  8  1  0  0  0  0
  8  9  1  0  0  0  0
  8 19  1  0  0  0  0
 10 11  1  1  0  0  0
 10 29  1  0  0  0  0
 11  1  1  0  0  0  0
 12 14  1  0  0  0  0
 12 13  1  0  0  0  0
 15 12  1  0  0  0  0
 16 12  1  1  0  0  0
 16  7  1  0  0  0  0
 16 17  1  0  0  0  0
 17 18  1  0  0  0  0
 17 19  2  0  0  0  0
 19 20  1  0  0  0  0
 20 23  1  0  0  0  0
 21 20  1  0  0  0  0
 22 20  1  0  0  0  0
 24  7  1  0  0  0  0
 24 25  1  0  0  0  0
 26 24  1  0  0  0  0
 27 28  1  6  0  0  0
 27  6  1  0  0  0  0
 27 24  1  0  0  0  0
 29 27  1  0  0  0  0
 29 31  1  0  0  0  0
 30 29  1  0  0  0  0
 32 33  1  0  0  0  0
 32 35  1  0  0  0  0
 34 32  1  0  0  0  0
 36 32  1  1  0  0  0
 36 10  1  0  0  0  0
 37 36  1  0  0  0  0
 37 39  2  0  0  0  0
 38 37  1  0  0  0  0
 39 11  1  0  0  0  0
 40 39  1  0  0  0  0
 40 43  1  0  0  0  0
 40 41  1  0  0  0  0
 42 40  1  0  0  0  0
M  END
$$$$
