CSD_code = VIRNES | q = 0 | S = 0 | Stoichiometry = C21H19I2ReS2 | MND = 9
 OpenBabel04212202113D

 45 44  0  0  0  0  0  0  0  0999 V2000
    6.6740   16.1127    7.3396 Re  0  0  0  0  0  0  0  0  0  0  0  0
    6.1380   14.0077   10.2528 S   0  0  0  0  0  0  0  0  0  0  0  0
    9.4501   13.9138    8.1843 S   0  0  0  0  0  0  0  0  0  0  0  0
    4.1208   16.5393    8.0917 I   0  0  0  0  0 15  0  0  0  0  0  0
    6.0139   14.7246    5.1740 I   0  0  0  0  0 15  0  0  0  0  0  0
    6.8271   14.7312    8.8872 C   0  0  0  0  0  3  0  0  0  0  0  0
    7.9423   14.6928    8.1390 C   0  0  0  0  0  0  0  0  0  0  0  0
    7.4460   12.7507   10.6624 C   0  0  0  0  0  0  0  0  0  0  0  0
    7.5328   12.1046    9.7903 H   0  0  0  0  0  0  0  0  0  0  0  0
    8.3714   13.3038   10.8174 H   0  0  0  0  0  0  0  0  0  0  0  0
    7.0303   11.9965   11.8791 C   0  0  0  0  0  0  0  0  0  0  0  0
    6.2641   10.8428   11.7615 C   0  0  0  0  0  0  0  0  0  0  0  0
    5.9808   10.4879   10.7814 H   0  0  0  0  0  0  0  0  0  0  0  0
    5.8664   10.1510   12.8908 C   0  0  0  0  0  0  0  0  0  0  0  0
    5.2741    9.2541   12.7895 H   0  0  0  0  0  0  0  0  0  0  0  0
    6.2244   10.6085   14.1478 C   0  0  0  0  0  0  0  0  0  0  0  0
    5.9127   10.0685   15.0291 H   0  0  0  0  0  0  0  0  0  0  0  0
    6.9806   11.7618   14.2727 C   0  0  0  0  0  0  0  0  0  0  0  0
    7.2587   12.1237   15.2511 H   0  0  0  0  0  0  0  0  0  0  0  0
    7.3792   12.4546   13.1442 C   0  0  0  0  0  0  0  0  0  0  0  0
    7.9664   13.3562   13.2427 H   0  0  0  0  0  0  0  0  0  0  0  0
   10.1076   14.2164    6.4768 C   0  0  0  0  0  0  0  0  0  0  0  0
    9.3297   14.7600    5.9439 H   0  0  0  0  0  0  0  0  0  0  0  0
   10.9987   14.8314    6.5985 H   0  0  0  0  0  0  0  0  0  0  0  0
   10.4172   12.9104    5.8250 C   0  0  0  0  0  0  0  0  0  0  0  0
    9.4336   12.2325    5.1144 C   0  0  0  0  0  0  0  0  0  0  0  0
    8.4453   12.6578    5.0167 H   0  0  0  0  0  0  0  0  0  0  0  0
    9.7191   11.0160    4.5215 C   0  0  0  0  0  0  0  0  0  0  0  0
    8.9501   10.5014    3.9664 H   0  0  0  0  0  0  0  0  0  0  0  0
   10.9835   10.4638    4.6407 C   0  0  0  0  0  0  0  0  0  0  0  0
   11.2050    9.5138    4.1780 H   0  0  0  0  0  0  0  0  0  0  0  0
   11.9646   11.1314    5.3550 C   0  0  0  0  0  0  0  0  0  0  0  0
   12.9517   10.7043    5.4509 H   0  0  0  0  0  0  0  0  0  0  0  0
   11.6826   12.3483    5.9479 C   0  0  0  0  0  0  0  0  0  0  0  0
   12.4486   12.8683    6.5062 H   0  0  0  0  0  0  0  0  0  0  0  0
    8.4743   17.8636    7.9349 C   0  0  0  0  0  0  0  0  0  0  0  0
    9.1040   17.7806    8.8063 H   0  0  0  0  0  0  0  0  0  0  0  0
    7.1373   18.3373    7.9175 C   0  0  0  0  0  3  0  0  0  0  0  0
    6.6241   18.8058    8.7447 H   0  0  0  0  0  0  0  0  0  0  0  0
    6.7064   18.3670    6.5486 C   0  0  0  0  0  0  0  0  0  0  0  0
    5.8193   18.8684    6.1842 H   0  0  0  0  0  0  0  0  0  0  0  0
    7.7872   17.9263    5.7492 C   0  0  0  0  0  0  0  0  0  0  0  0
    7.7964   17.8733    4.6722 H   0  0  0  0  0  0  0  0  0  0  0  0
    8.8580   17.5940    6.6016 C   0  0  0  0  0  0  0  0  0  0  0  0
    9.8262   17.2442    6.2854 H   0  0  0  0  0  0  0  0  0  0  0  0
  1  7  1  0  0  0  0
  2  8  1  0  0  0  0
  6  2  1  0  0  0  0
  7  3  1  0  0  0  0
  7  6  2  0  0  0  0
  8 10  1  0  0  0  0
  8 11  1  0  0  0  0
  9  8  1  0  0  0  0
 11 20  1  0  0  0  0
 12 11  2  0  0  0  0
 12 14  1  0  0  0  0
 13 12  1  0  0  0  0
 14 16  2  0  0  0  0
 15 14  1  0  0  0  0
 16 18  1  0  0  0  0
 16 17  1  0  0  0  0
 18 19  1  0  0  0  0
 20 21  1  0  0  0  0
 20 18  2  0  0  0  0
 22 24  1  0  0  0  0
 22  3  1  0  0  0  0
 23 22  1  0  0  0  0
 25 34  1  0  0  0  0
 25 22  1  0  0  0  0
 26 25  2  0  0  0  0
 27 26  1  0  0  0  0
 28 30  2  0  0  0  0
 28 26  1  0  0  0  0
 29 28  1  0  0  0  0
 30 32  1  0  0  0  0
 31 30  1  0  0  0  0
 32 33  1  0  0  0  0
 32 34  2  0  0  0  0
 34 35  1  0  0  0  0
 36 37  1  0  0  0  0
 38 36  1  0  0  0  0
 38 39  1  0  0  0  0
 40 38  1  0  0  0  0
 41 40  1  0  0  0  0
 42 40  2  0  0  0  0
 42 44  1  0  0  0  0
 43 42  1  0  0  0  0
 44 36  2  0  0  0  0
 45 44  1  0  0  0  0
M  END
$$$$
