CSD_code = VIRWOJ | q = 0 | S = 0 | Stoichiometry = C10H24Cl2FeN2 | MND = 4
 OpenBabel04212202113D

 39 37  0  0  0  0  0  0  0  0999 V2000
    0.7655   -0.0786    5.2115 Fe  0  0  0  0  0  0  0  0  0  0  0  0
    2.4537    0.9773    4.9199 Cl  0  0  0  0  0  0  0  0  0  0  0  0
   -0.6472   -1.4316    5.6374 Cl  0  0  0  0  0  0  0  0  0  0  0  0
   -0.4125    1.9462    6.2901 N   0  0  0  0  0  0  0  0  0  0  0  0
   -0.4906    2.9059    5.1854 C   0  0  0  0  0  0  0  0  0  0  0  0
    0.5332    3.0970    4.8563 H   0  0  0  0  0  0  0  0  0  0  0  0
   -0.9240    3.8646    5.5101 H   0  0  0  0  0  0  0  0  0  0  0  0
   -1.3001    2.3924    3.9902 C   0  0  0  0  0  0  0  0  0  0  0  0
   -2.3266    2.2090    4.3084 H   0  0  0  0  0  0  0  0  0  0  0  0
   -1.3261    3.1941    3.2372 H   0  0  0  0  0  0  0  0  0  0  0  0
   -0.7532    1.1551    3.4247 N   0  0  0  0  0  0  0  0  0  0  0  0
   -1.7225    1.5877    6.8460 C   0  0  0  0  0  0  0  0  0  0  0  0
   -1.5406    0.9013    7.6726 H   0  0  0  0  0  0  0  0  0  0  0  0
   -2.2616    1.0207    6.0865 H   0  0  0  0  0  0  0  0  0  0  0  0
   -2.6049    2.7395    7.3372 C   0  0  0  0  0  0  0  0  0  0  0  0
   -3.5026    2.3243    7.7880 H   0  0  0  0  0  0  0  0  0  0  0  0
   -2.9078    3.3904    6.5206 H   0  0  0  0  0  0  0  0  0  0  0  0
   -2.0979    3.3388    8.0892 H   0  0  0  0  0  0  0  0  0  0  0  0
    0.5098    2.4326    7.3221 C   0  0  0  0  0  0  0  0  0  0  0  0
    0.0761    3.2643    7.8958 H   0  0  0  0  0  0  0  0  0  0  0  0
    1.3972    2.8087    6.8089 H   0  0  0  0  0  0  0  0  0  0  0  0
    0.9494    1.3201    8.2687 C   0  0  0  0  0  0  0  0  0  0  0  0
    1.8118    1.6484    8.8425 H   0  0  0  0  0  0  0  0  0  0  0  0
    1.2343    0.4372    7.6854 H   0  0  0  0  0  0  0  0  0  0  0  0
    0.1638    1.0385    8.9642 H   0  0  0  0  0  0  0  0  0  0  0  0
    0.2157    1.4555    2.3649 C   0  0  0  0  0  0  0  0  0  0  0  0
    0.9634    2.1222    2.7990 H   0  0  0  0  0  0  0  0  0  0  0  0
   -0.2623    1.9851    1.5261 H   0  0  0  0  0  0  0  0  0  0  0  0
    0.9242    0.2080    1.8501 C   0  0  0  0  0  0  0  0  0  0  0  0
    1.8089    0.4970    1.2895 H   0  0  0  0  0  0  0  0  0  0  0  0
    0.2841   -0.3833    1.2011 H   0  0  0  0  0  0  0  0  0  0  0  0
    1.2385   -0.4132    2.6958 H   0  0  0  0  0  0  0  0  0  0  0  0
   -1.8174    0.2492    2.9777 C   0  0  0  0  0  0  0  0  0  0  0  0
   -2.4525    0.0472    3.8430 H   0  0  0  0  0  0  0  0  0  0  0  0
   -1.3543   -0.6982    2.7002 H   0  0  0  0  0  0  0  0  0  0  0  0
   -2.6868    0.7478    1.8199 C   0  0  0  0  0  0  0  0  0  0  0  0
   -3.4871    0.0335    1.6446 H   0  0  0  0  0  0  0  0  0  0  0  0
   -2.1119    0.8403    0.9022 H   0  0  0  0  0  0  0  0  0  0  0  0
   -3.1344    1.7124    2.0483 H   0  0  0  0  0  0  0  0  0  0  0  0
  1  3  1  0  0  0  0
  2  1  1  0  0  0  0
  4 12  1  0  0  0  0
  4 19  1  0  0  0  0
  5  7  1  0  0  0  0
  5  4  1  0  0  0  0
  6  5  1  0  0  0  0
  8  9  1  0  0  0  0
  8  5  1  0  0  0  0
 10  8  1  0  0  0  0
 11  8  1  0  0  0  0
 12 15  1  0  0  0  0
 12 13  1  0  0  0  0
 14 12  1  0  0  0  0
 15 16  1  0  0  0  0
 15 18  1  0  0  0  0
 17 15  1  0  0  0  0
 19 20  1  0  0  0  0
 19 22  1  0  0  0  0
 21 19  1  0  0  0  0
 22 23  1  0  0  0  0
 22 25  1  0  0  0  0
 24 22  1  0  0  0  0
 26 27  1  0  0  0  0
 26 11  1  0  0  0  0
 28 26  1  0  0  0  0
 29 26  1  0  0  0  0
 29 32  1  0  0  0  0
 30 29  1  0  0  0  0
 31 29  1  0  0  0  0
 33 11  1  0  0  0  0
 33 34  1  0  0  0  0
 35 33  1  0  0  0  0
 36 39  1  0  0  0  0
 36 33  1  0  0  0  0
 37 36  1  0  0  0  0
 38 36  1  0  0  0  0
M  END
$$$$
