CSD_code = VITQUK | q = 0 | S = 0 | Stoichiometry = C31H36Cl2Zr | MND = 12
 OpenBabel04212202113D

 70 75  0  0  1  0  0  0  0  0999 V2000
    3.6190    6.2481   16.3545 Zr  0  0  0  0  0  0  0  0  0  0  0  0
    3.0584    4.6404   14.7730 Cl  0  0  0  0  0  0  0  0  0  0  0  0
    5.6936    6.8010   15.4752 Cl  0  0  0  0  0  0  0  0  0  0  0  0
    1.4049    7.2760   16.1900 C   0  0  0  0  0  0  0  0  0  0  0  0
    0.2863    6.4077   16.1703 C   0  0  0  0  0  0  0  0  0  0  0  0
   -0.2295    6.1267   17.0744 H   0  0  0  0  0  0  0  0  0  0  0  0
   -0.2134    5.9527   14.9726 C   0  0  0  0  0  0  0  0  0  0  0  0
   -1.0694    5.2938   14.9795 H   0  0  0  0  0  0  0  0  0  0  0  0
    0.3419    6.3237   13.7422 C   0  0  0  0  0  0  0  0  0  0  0  0
   -0.0894    5.9465   12.8282 H   0  0  0  0  0  0  0  0  0  0  0  0
    1.4265    7.1669   13.7030 C   0  0  0  0  0  0  0  0  0  0  0  0
    1.8596    7.4716   12.7598 H   0  0  0  0  0  0  0  0  0  0  0  0
    1.9722    7.6320   14.9047 C   0  0  0  0  0  0  0  0  0  0  0  0
    3.0788    8.5109   15.1442 C   0  0  0  0  0  0  0  0  0  0  0  0
    3.9293    9.1603   14.2432 C   0  0  0  0  0  0  0  0  0  0  0  0
    3.7990    9.0168   13.1790 H   0  0  0  0  0  0  0  0  0  0  0  0
    4.9229    9.9760   14.7290 C   0  0  0  0  0  0  0  0  0  0  0  0
    5.5948   10.4804   14.0525 H   0  0  0  0  0  0  0  0  0  0  0  0
    5.0638   10.1615   16.1091 C   0  0  0  0  0  0  0  0  0  0  0  0
    5.8461   10.8133   16.4695 H   0  0  0  0  0  0  0  0  0  0  0  0
    4.2339    9.5514   17.0200 C   0  0  0  0  0  0  0  0  0  0  0  0
    4.3697    9.7854   18.0632 H   0  0  0  0  0  0  0  0  0  0  0  0
    3.1997    8.6931   16.5763 C   0  0  0  0  0  0  0  0  0  0  0  0
    2.1548    7.9408   17.2324 C   0  0  0  0  0  0  0  0  0  0  0  0
    2.1174    7.5551   18.7236 C   0  0  0  0  0  0  0  0  0  0  0  0
    0.6952    7.2584   19.2280 C   0  0  0  0  0  0  0  0  0  0  0  0
    0.0062    8.0191   18.8684 H   0  0  0  0  0  0  0  0  0  0  0  0
    0.6798    7.2706   20.3156 H   0  0  0  0  0  0  0  0  0  0  0  0
    0.3380    6.2828   18.9214 H   0  0  0  0  0  0  0  0  0  0  0  0
    2.6835    8.6386   19.6530 C   0  0  0  0  0  0  0  0  0  0  0  0
    2.2085    9.5946   19.4451 H   0  0  0  0  0  0  0  0  0  0  0  0
    3.7575    8.7461   19.5620 H   0  0  0  0  0  0  0  0  0  0  0  0
    2.4789    8.3710   20.6877 H   0  0  0  0  0  0  0  0  0  0  0  0
    3.0065    6.3133   18.6827 C   0  0  1  0  0  3  0  0  0  0  0  0
    2.5947    5.0390   18.2131 C   0  0  0  0  0  3  0  0  0  0  0  0
    1.5894    4.6369   18.1988 H   0  0  0  0  0  0  0  0  0  0  0  0
    3.7489    4.2748   17.9162 C   0  0  0  0  0  0  0  0  0  0  0  0
    3.7173    3.2361   17.6195 H   0  0  0  0  0  0  0  0  0  0  0  0
    4.8954    5.0670   18.1638 C   0  0  0  0  0  0  0  0  0  0  0  0
    4.4284    6.3403   18.6012 C   0  0  1  0  0  0  0  0  0  0  0  0
    5.0807    7.1410   18.9318 H   0  0  0  0  0  0  0  0  0  0  0  0
    6.3713    4.7230   18.1094 C   0  0  1  0  0  0  0  0  0  0  0  0
    6.8562    5.4939   17.4923 H   0  0  0  0  0  0  0  0  0  0  0  0
    6.9800    4.8222   19.5198 C   0  0  0  0  0  0  0  0  0  0  0  0
    8.0676    4.7553   19.4420 H   0  0  0  0  0  0  0  0  0  0  0  0
    6.7386    5.7902   19.9614 H   0  0  0  0  0  0  0  0  0  0  0  0
    6.4748    3.7011   20.4243 C   0  0  2  0  0  0  0  0  0  0  0  0
    5.3818    3.7588   20.4713 H   0  0  0  0  0  0  0  0  0  0  0  0
    7.0363    3.8463   21.8355 C   0  0  0  0  0  0  0  0  0  0  0  0
    6.7391    4.7980   22.2702 H   0  0  0  0  0  0  0  0  0  0  0  0
    8.1235    3.8017   21.8189 H   0  0  0  0  0  0  0  0  0  0  0  0
    6.6713    3.0474   22.4769 H   0  0  0  0  0  0  0  0  0  0  0  0
    6.8713    2.3620   19.8080 C   0  0  0  0  0  0  0  0  0  0  0  0
    6.5257    1.5430   20.4428 H   0  0  0  0  0  0  0  0  0  0  0  0
    7.9613    2.3026   19.7537 H   0  0  0  0  0  0  0  0  0  0  0  0
    6.2770    2.2052   18.4102 C   0  0  0  0  0  0  0  0  0  0  0  0
    6.6158    1.2568   17.9921 H   0  0  0  0  0  0  0  0  0  0  0  0
    5.1940    2.1636   18.5014 H   0  0  0  0  0  0  0  0  0  0  0  0
    6.7203    3.3526   17.4939 C   0  0  1  0  0  0  0  0  0  0  0  0
    7.8164    3.3025   17.4711 H   0  0  0  0  0  0  0  0  0  0  0  0
    6.2377    3.2727   16.0227 C   0  0  0  0  0  0  0  0  0  0  0  0
    5.3604    3.9272   15.8948 H   0  0  0  0  0  0  0  0  0  0  0  0
    7.3336    3.7987   15.0929 C   0  0  0  0  0  0  0  0  0  0  0  0
    7.6386    4.8016   15.3787 H   0  0  0  0  0  0  0  0  0  0  0  0
    6.9661    3.8411   14.0703 H   0  0  0  0  0  0  0  0  0  0  0  0
    8.2045    3.1455   15.1197 H   0  0  0  0  0  0  0  0  0  0  0  0
    5.8395    1.8693   15.5667 C   0  0  0  0  0  0  0  0  0  0  0  0
    5.0177    1.4714   16.1554 H   0  0  0  0  0  0  0  0  0  0  0  0
    6.6827    1.1845   15.6312 H   0  0  0  0  0  0  0  0  0  0  0  0
    5.5138    1.9112   14.5300 H   0  0  0  0  0  0  0  0  0  0  0  0
  1 24  1  0  0  0  0
  1 40  1  0  0  0  0
  2  1  1  0  0  0  0
  3  1  1  0  0  0  0
  4 24  1  0  0  0  0
  5  4  1  0  0  0  0
  5  6  1  0  0  0  0
  7  8  1  0  0  0  0
  7  5  2  0  0  0  0
  9  7  1  0  0  0  0
 10  9  1  0  0  0  0
 11  9  2  0  0  0  0
 11 13  1  0  0  0  0
 12 11  1  0  0  0  0
 13 14  1  0  0  0  0
 13  4  2  0  0  0  0
 14 23  1  0  0  0  0
 15 17  1  0  0  0  0
 15 14  2  0  0  0  0
 16 15  1  0  0  0  0
 17 19  2  0  0  0  0
 18 17  1  0  0  0  0
 19 20  1  0  0  0  0
 19 21  1  0  0  0  0
 21 22  1  0  0  0  0
 23 21  2  0  0  0  0
 23 24  1  0  0  0  0
 24 25  1  0  0  0  0
 25 26  1  0  0  0  0
 25 30  1  0  0  0  0
 26 28  1  0  0  0  0
 27 26  1  0  0  0  0
 29 26  1  0  0  0  0
 30 33  1  0  0  0  0
 31 30  1  0  0  0  0
 32 30  1  0  0  0  0
 34 35  1  6  0  0  0
 34 25  1  0  0  0  0
 36 35  1  0  0  0  0
 37 39  2  0  0  0  0
 37 35  1  0  0  0  0
 38 37  1  0  0  0  0
 39 40  1  0  0  0  0
 40 34  1  0  0  0  0
 40 41  1  1  0  0  0
 42 43  1  6  0  0  0
 42 39  1  0  0  0  0
 42 44  1  0  0  0  0
 44 46  1  0  0  0  0
 44 47  1  0  0  0  0
 45 44  1  0  0  0  0
 47 48  1  1  0  0  0
 47 49  1  0  0  0  0
 49 50  1  0  0  0  0
 49 52  1  0  0  0  0
 51 49  1  0  0  0  0
 53 47  1  0  0  0  0
 53 54  1  0  0  0  0
 55 53  1  0  0  0  0
 56 58  1  0  0  0  0
 56 53  1  0  0  0  0
 57 56  1  0  0  0  0
 59 60  1  6  0  0  0
 59 42  1  0  0  0  0
 59 56  1  0  0  0  0
 61 59  1  0  0  0  0
 62 61  1  0  0  0  0
 63 66  1  0  0  0  0
 63 64  1  0  0  0  0
 63 61  1  0  0  0  0
 65 63  1  0  0  0  0
 67 69  1  0  0  0  0
 67 61  1  0  0  0  0
 67 68  1  0  0  0  0
 70 67  1  0  0  0  0
M  END
$$$$
