CSD_code = VIVNOF | q = 1 | S = 0 | Stoichiometry = C11H18ClN4OZn(1+) | MND = 5
 OpenBabel04212202113D

 36 40  0  0  1  0  0  0  0  0999 V2000
   -1.4553   26.7208   11.8249 Zn  0  0  0  0  0  0  0  0  0  0  0  0
   -3.5335   27.1131   11.9426 Cl  0  0  0  0  0  0  0  0  0  0  0  0
    0.4243   21.7034   12.3454 O   0  0  0  0  0  0  0  0  0  0  0  0
    0.0079   21.5949   11.4826 H   0  0  0  0  0  0  0  0  0  0  0  0
   -0.4887   25.1742   12.7937 N   0  0  0  0  0  0  0  0  0  0  0  0
   -0.3443   27.7427   13.4392 N   0  0  1  0  0  4  0  0  0  0  0  0
   -0.7789   28.6035   13.7633 H   0  0  0  0  0  0  0  0  0  0  0  0
    0.0002   27.7502   10.6227 N   0  0  1  0  0  4  0  0  0  0  0  0
   -0.4065   28.3020    9.8703 H   0  0  0  0  0  0  0  0  0  0  0  0
   -1.2136   25.1800   10.1998 N   0  0  1  0  0  4  0  0  0  0  0  0
   -2.0985   25.0949    9.7110 H   0  0  0  0  0  0  0  0  0  0  0  0
   -0.3430   24.0005   12.1976 C   0  0  1  0  0  3  0  0  0  0  0  0
    0.2574   22.9271   12.8686 C   0  0  0  0  0  0  0  0  0  0  0  0
    0.7251   23.1512   14.1674 C   0  0  0  0  0  0  0  0  0  0  0  0
    1.1934   22.3328   14.6899 H   0  0  0  0  0  0  0  0  0  0  0  0
    0.5839   24.3963   14.7461 C   0  0  0  0  0  0  0  0  0  0  0  0
    0.9456   24.5825   15.7441 H   0  0  0  0  0  0  0  0  0  0  0  0
   -0.0418   25.4029   14.0215 C   0  0  0  0  0  0  0  0  0  0  0  0
   -0.2640   26.7957   14.5506 C   0  0  0  0  0  0  0  0  0  0  0  0
   -1.2182   26.8103   15.0867 H   0  0  0  0  0  0  0  0  0  0  0  0
    0.5320   27.0575   15.2592 H   0  0  0  0  0  0  0  0  0  0  0  0
    0.9673   28.0537   12.8678 C   0  0  0  0  0  0  0  0  0  0  0  0
    1.5355   27.1233   12.8064 H   0  0  0  0  0  0  0  0  0  0  0  0
    1.5309   28.7571   13.4908 H   0  0  0  0  0  0  0  0  0  0  0  0
    0.7959   28.6447   11.4686 C   0  0  0  0  0  0  0  0  0  0  0  0
    0.2623   29.5939   11.5503 H   0  0  0  0  0  0  0  0  0  0  0  0
    1.7817   28.8360   11.0298 H   0  0  0  0  0  0  0  0  0  0  0  0
    0.7567   26.6571   10.0088 C   0  0  0  0  0  0  0  0  0  0  0  0
    1.2684   26.1016   10.7958 H   0  0  0  0  0  0  0  0  0  0  0  0
    1.5049   27.0315    9.3002 H   0  0  0  0  0  0  0  0  0  0  0  0
   -0.2158   25.7307    9.2787 C   0  0  0  0  0  0  0  0  0  0  0  0
   -0.7381   26.3106    8.5140 H   0  0  0  0  0  0  0  0  0  0  0  0
    0.3494   24.9373    8.7754 H   0  0  0  0  0  0  0  0  0  0  0  0
   -0.8801   23.8815   10.7865 C   0  0  0  0  0  0  0  0  0  0  0  0
   -0.1436   23.3574   10.1594 H   0  0  0  0  0  0  0  0  0  0  0  0
   -1.7889   23.2705   10.8297 H   0  0  0  0  0  0  0  0  0  0  0  0
  1  2  1  0  0  0  0
  1  5  1  0  0  0  0
  1  6  1  0  0  0  0
  3 13  1  0  0  0  0
  4  3  1  0  0  0  0
  5 18  1  0  0  0  0
  6  7  1  1  0  0  0
  6 19  1  0  0  0  0
  8  9  1  6  0  0  0
  8 25  1  0  0  0  0
  8  1  1  0  0  0  0
 10 11  1  6  0  0  0
 10 34  1  0  0  0  0
 10  1  1  0  0  0  0
 12  5  1  0  0  0  0
 12 13  1  1  0  0  0
 13 14  2  0  0  0  0
 14 15  1  0  0  0  0
 14 16  1  0  0  0  0
 16 17  1  0  0  0  0
 18 19  1  0  0  0  0
 18 16  2  0  0  0  0
 19 20  1  0  0  0  0
 19 21  1  0  0  0  0
 22  6  1  0  0  0  0
 22 24  1  0  0  0  0
 23 22  1  0  0  0  0
 25 26  1  0  0  0  0
 25 22  1  0  0  0  0
 27 25  1  0  0  0  0
 28  8  1  0  0  0  0
 28 29  1  0  0  0  0
 30 28  1  0  0  0  0
 31 28  1  0  0  0  0
 31 10  1  0  0  0  0
 32 31  1  0  0  0  0
 33 31  1  0  0  0  0
 34 36  1  0  0  0  0
 34 12  1  0  0  0  0
 35 34  1  0  0  0  0
M  END
$$$$
