CSD_code = VIVXUT | q = 0 | S = 0 | Stoichiometry = C6H12Cl2PdS2 | MND = 4
 OpenBabel04212202113D

 23 24  0  0  0  0  0  0  0  0999 V2000
    0.5736   10.6671    3.5638 Pd  0  0  0  0  0  0  0  0  0  0  0  0
   -0.4057   12.3255    4.6920 Cl  0  0  0  0  0  0  0  0  0  0  0  0
    0.3782   11.8128    1.6586 Cl  0  0  0  0  0  0  0  0  0  0  0  0
    0.9575    9.6367    5.6316 S   0  0  2  0  0  3  0  0  0  0  0  0
    2.7637    9.9835    5.5998 C   0  0  0  0  0  0  0  0  0  0  0  0
    3.6205    9.2237    4.5958 C   0  0  0  0  0  0  0  0  0  0  0  0
    3.4044    9.5660    3.1276 C   0  0  0  0  0  0  0  0  0  0  0  0
    1.8062    9.0850    2.3540 S   0  0  1  0  0  3  0  0  0  0  0  0
    1.4758    7.3976    3.0034 C   0  0  0  0  0  0  0  0  0  0  0  0
    0.3877    7.3729    4.0700 C   0  0  0  0  0  0  0  0  0  0  0  0
   -0.4384    8.0299    3.7455 H   0  0  0  0  0  0  0  0  0  0  0  0
    0.8406    7.8107    5.4576 C   0  0  0  0  0  0  0  0  0  0  0  0
    3.1285    9.7850    6.6092 H   0  0  0  0  0  0  0  0  0  0  0  0
    2.8064   11.0641    5.4131 H   0  0  0  0  0  0  0  0  0  0  0  0
    4.6624    9.4714    4.8240 H   0  0  0  0  0  0  0  0  0  0  0  0
    3.5175    8.1472    4.7510 H   0  0  0  0  0  0  0  0  0  0  0  0
    3.4412   10.6512    2.9686 H   0  0  0  0  0  0  0  0  0  0  0  0
    4.1854    9.0947    2.5283 H   0  0  0  0  0  0  0  0  0  0  0  0
    2.4100    6.9585    3.3480 H   0  0  0  0  0  0  0  0  0  0  0  0
    1.1361    6.8445    2.1274 H   0  0  0  0  0  0  0  0  0  0  0  0
   -0.0068    6.3554    4.1392 H   0  0  0  0  0  0  0  0  0  0  0  0
    0.0845    7.5284    6.1907 H   0  0  0  0  0  0  0  0  0  0  0  0
    1.7886    7.3629    5.7495 H   0  0  0  0  0  0  0  0  0  0  0  0
  1  2  1  0  0  0  0
  1  4  1  0  0  0  0
  3  1  1  0  0  0  0
  4 12  1  6  0  0  0
  5  4  1  0  0  0  0
  5 13  1  0  0  0  0
  6 16  1  0  0  0  0
  6 15  1  0  0  0  0
  6  5  1  0  0  0  0
  7  6  1  0  0  0  0
  8  9  1  1  0  0  0
  8  7  1  0  0  0  0
  8  1  1  0  0  0  0
  9 19  1  0  0  0  0
  9 10  1  0  0  0  0
 10 21  1  0  0  0  0
 10 12  1  0  0  0  0
 11 10  1  0  0  0  0
 12 23  1  0  0  0  0
 12 22  1  0  0  0  0
 14  5  1  0  0  0  0
 17  7  1  0  0  0  0
 18  7  1  0  0  0  0
 20  9  1  0  0  0  0
M  END
$$$$
