CSD_code = VIVXAZ | q = 0 | S = 0 | Stoichiometry = C28H31Cl2O2P2Re | MND = 6
 OpenBabel04212202113D

 66 69  0  0  0  0  0  0  0  0999 V2000
    8.4765   10.0898    2.7264 Re  0  0  0  0  0  0  0  0  0  0  0  0
   10.4876   11.2197    3.3381 Cl  0  0  0  0  0  0  0  0  0  0  0  0
    6.5317    9.0353    1.8152 Cl  0  0  0  0  0  0  0  0  0  0  0  0
    9.8253    8.6032    1.2883 P   0  0  0  0  0  4  0  0  0  0  0  0
    7.2327   11.6591    4.2104 P   0  0  0  0  0  4  0  0  0  0  0  0
    8.6000    8.9900    3.9642 O   0  0  0  0  0  1  0  0  0  0  0  0
    8.3004   11.2444    1.3832 O   0  0  0  0  0  0  0  0  0  0  0  0
    9.0508    7.0004    0.8973 C   0  0  0  0  0  0  0  0  0  0  0  0
   10.2353    9.4049   -0.2771 C   0  0  0  0  0  0  0  0  0  0  0  0
    9.6486    9.0454   -1.4850 C   0  0  0  0  0  0  0  0  0  0  0  0
    9.9460    9.7611   -2.6324 C   0  0  0  0  0  0  0  0  0  0  0  0
   10.8159   10.8376   -2.5781 C   0  0  0  0  0  0  0  0  0  0  0  0
   11.3904   11.2078   -1.3708 C   0  0  0  0  0  0  0  0  0  0  0  0
   11.0993   10.4989   -0.2212 C   0  0  0  0  0  0  0  0  0  0  0  0
   11.4220    8.1184    2.0009 C   0  0  0  0  0  0  0  0  0  0  0  0
   12.5329    7.8785    1.2003 C   0  0  0  0  0  0  0  0  0  0  0  0
   13.7234    7.4817    1.7819 C   0  0  0  0  0  0  0  0  0  0  0  0
   13.8082    7.3233    3.1557 C   0  0  0  0  0  0  0  0  0  0  0  0
   12.6999    7.5585    3.9535 C   0  0  0  0  0  0  0  0  0  0  0  0
   11.5061    7.9549    3.3795 C   0  0  0  0  0  0  0  0  0  0  0  0
    8.0112   13.3072    4.3126 C   0  0  0  0  0  0  0  0  0  0  0  0
    7.2614   11.1199    5.9444 C   0  0  0  0  0  0  0  0  0  0  0  0
    8.4633   10.6205    6.4395 C   0  0  0  0  0  0  0  0  0  0  0  0
    8.5503   10.2195    7.7595 C   0  0  0  0  0  0  0  0  0  0  0  0
    7.4438   10.3147    8.5888 C   0  0  0  0  0  0  0  0  0  0  0  0
    6.2490   10.8137    8.0975 C   0  0  0  0  0  0  0  0  0  0  0  0
    6.1532   11.2170    6.7771 C   0  0  0  0  0  0  0  0  0  0  0  0
    5.4849   11.9195    3.8270 C   0  0  0  0  0  0  0  0  0  0  0  0
    4.6710   10.7868    3.8324 C   0  0  0  0  0  0  0  0  0  0  0  0
    3.3351   10.8925    3.4979 C   0  0  0  0  0  0  0  0  0  0  0  0
    2.8032   12.1251    3.1509 C   0  0  0  0  0  0  0  0  0  0  0  0
    3.6085   13.2517    3.1430 C   0  0  0  0  0  0  0  0  0  0  0  0
    4.9487   13.1536    3.4769 C   0  0  0  0  0  0  0  0  0  0  0  0
    7.7448   11.7578    0.2473 C   0  0  0  0  0  0  0  0  0  0  0  0
    7.1921   13.1699    0.4539 C   0  0  0  0  0  0  0  0  0  0  0  0
    8.0570    7.1694    0.4846 H   0  0  0  0  0  0  0  0  0  0  0  0
    9.6783    6.4331    0.2099 H   0  0  0  0  0  0  0  0  0  0  0  0
    8.9410    6.4601    1.8381 H   0  0  0  0  0  0  0  0  0  0  0  0
    8.9579    8.2165   -1.5284 H   0  0  0  0  0  0  0  0  0  0  0  0
    9.4918    9.4804   -3.5716 H   0  0  0  0  0  0  0  0  0  0  0  0
   11.0411   11.3943   -3.4759 H   0  0  0  0  0  0  0  0  0  0  0  0
   12.0597   12.0544   -1.3264 H   0  0  0  0  0  0  0  0  0  0  0  0
   11.5247   10.7903    0.7308 H   0  0  0  0  0  0  0  0  0  0  0  0
   12.4673    8.0094    0.1286 H   0  0  0  0  0  0  0  0  0  0  0  0
   14.5887    7.2996    1.1612 H   0  0  0  0  0  0  0  0  0  0  0  0
   14.7426    7.0200    3.6046 H   0  0  0  0  0  0  0  0  0  0  0  0
   12.7690    7.4396    5.0243 H   0  0  0  0  0  0  0  0  0  0  0  0
   10.6332    8.1595    3.9881 H   0  0  0  0  0  0  0  0  0  0  0  0
    8.0079   13.7834    3.3336 H   0  0  0  0  0  0  0  0  0  0  0  0
    7.4873   13.9233    5.0432 H   0  0  0  0  0  0  0  0  0  0  0  0
    9.0465   13.1583    4.6209 H   0  0  0  0  0  0  0  0  0  0  0  0
    9.3169   10.5372    5.7796 H   0  0  0  0  0  0  0  0  0  0  0  0
    9.4808    9.8274    8.1420 H   0  0  0  0  0  0  0  0  0  0  0  0
    7.5110    9.9962    9.6188 H   0  0  0  0  0  0  0  0  0  0  0  0
    5.3862   10.8872    8.7434 H   0  0  0  0  0  0  0  0  0  0  0  0
    5.2184   11.6020    6.3944 H   0  0  0  0  0  0  0  0  0  0  0  0
    5.1045    9.8298    4.0884 H   0  0  0  0  0  0  0  0  0  0  0  0
    2.7100   10.0126    3.4979 H   0  0  0  0  0  0  0  0  0  0  0  0
    1.7604   12.2081    2.8825 H   0  0  0  0  0  0  0  0  0  0  0  0
    3.1939   14.2120    2.8718 H   0  0  0  0  0  0  0  0  0  0  0  0
    5.5681   14.0391    3.4693 H   0  0  0  0  0  0  0  0  0  0  0  0
    6.9253   11.0831   -0.0635 H   0  0  0  0  0  0  0  0  0  0  0  0
    8.5026   11.7757   -0.5547 H   0  0  0  0  0  0  0  0  0  0  0  0
    6.7688   13.5354   -0.4776 H   0  0  0  0  0  0  0  0  0  0  0  0
    6.4140   13.1526    1.2153 H   0  0  0  0  0  0  0  0  0  0  0  0
    7.9915   13.8394    0.7675 H   0  0  0  0  0  0  0  0  0  0  0  0
  1  2  1  0  0  0  0
  1  6  1  0  0  0  0
  1  5  1  0  0  0  0
  3  1  1  0  0  0  0
  4 15  1  0  0  0  0
  4  1  1  0  0  0  0
  5 21  1  0  0  0  0
  5 22  1  0  0  0  0
  7  1  1  0  0  0  0
  8  4  1  0  0  0  0
  8 38  1  0  0  0  0
  9 14  1  0  0  0  0
  9  4  1  0  0  0  0
 10  9  2  0  0  0  0
 11 12  2  0  0  0  0
 11 10  1  0  0  0  0
 12 13  1  0  0  0  0
 13 42  1  0  0  0  0
 13 14  2  0  0  0  0
 14 43  1  0  0  0  0
 15 20  1  0  0  0  0
 16 17  1  0  0  0  0
 16 15  2  0  0  0  0
 17 18  2  0  0  0  0
 18 46  1  0  0  0  0
 18 19  1  0  0  0  0
 19 47  1  0  0  0  0
 20 19  2  0  0  0  0
 20 48  1  0  0  0  0
 21 51  1  0  0  0  0
 21 50  1  0  0  0  0
 22 23  2  0  0  0  0
 22 27  1  0  0  0  0
 23 24  1  0  0  0  0
 24 53  1  0  0  0  0
 24 25  2  0  0  0  0
 25 54  1  0  0  0  0
 26 25  1  0  0  0  0
 26 55  1  0  0  0  0
 27 26  2  0  0  0  0
 28 29  1  0  0  0  0
 28  5  1  0  0  0  0
 29 57  1  0  0  0  0
 30 29  2  0  0  0  0
 31 30  1  0  0  0  0
 32 31  2  0  0  0  0
 32 33  1  0  0  0  0
 33 28  2  0  0  0  0
 34 35  1  0  0  0  0
 34  7  1  0  0  0  0
 35 66  1  0  0  0  0
 35 65  1  0  0  0  0
 36  8  1  0  0  0  0
 37  8  1  0  0  0  0
 39 10  1  0  0  0  0
 40 11  1  0  0  0  0
 41 12  1  0  0  0  0
 44 16  1  0  0  0  0
 45 17  1  0  0  0  0
 49 21  1  0  0  0  0
 52 23  1  0  0  0  0
 56 27  1  0  0  0  0
 58 30  1  0  0  0  0
 59 31  1  0  0  0  0
 60 32  1  0  0  0  0
 61 33  1  0  0  0  0
 62 34  1  0  0  0  0
 63 34  1  0  0  0  0
 64 35  1  0  0  0  0
M  END
$$$$
