CSD_code = VIWKOB | q = 1 | S = 0 | Stoichiometry = C6H12AuCl2N2S(1+) | MND = 4
 OpenBabel04212202113D

 24 25  0  0  1  0  0  0  0  0999 V2000
    4.4893    3.7312   11.9382 Au  0  0  0  0  0  0  0  0  0  0  0  0
    5.0778    2.4997   13.7140 Cl  0  0  0  0  0  0  0  0  0  0  0  0
    5.7997    2.5818   10.5298 Cl  0  0  0  0  0  0  0  0  0  0  0  0
    3.7298    4.8126   10.4554 N   0  0  1  0  0  0  0  0  0  0  0  0
    3.1021    4.7347   12.9794 N   0  0  2  0  0  0  0  0  0  0  0  0
    1.6685    3.4757    9.9234 C   0  0  0  0  0  0  0  0  0  0  0  0
    3.0195    4.1308    9.4608 C   0  0  0  0  0  0  0  0  0  0  0  0
    1.7499    2.2900   11.2761 S   0  0  0  0  0  0  0  0  0  0  0  0
    3.3510    6.0878   10.9308 C   0  0  0  0  0  0  0  0  0  0  0  0
    2.1371    3.9432   13.6155 C   0  0  0  0  0  0  0  0  0  0  0  0
    2.7439    5.9756   12.3978 C   0  0  0  0  0  0  0  0  0  0  0  0
    1.1047    3.2266   12.6670 C   0  0  0  0  0  0  0  0  0  0  0  0
    0.9559    4.2563   10.1844 H   0  0  0  0  0  0  0  0  0  0  0  0
    1.3010    2.9139    9.0653 H   0  0  0  0  0  0  0  0  0  0  0  0
    3.6711    3.3400    9.0766 H   0  0  0  0  0  0  0  0  0  0  0  0
    2.7481    4.8137    8.6476 H   0  0  0  0  0  0  0  0  0  0  0  0
    2.6419    6.5809   10.2595 H   0  0  0  0  0  0  0  0  0  0  0  0
    4.2545    6.6961   11.0116 H   0  0  0  0  0  0  0  0  0  0  0  0
    1.5245    4.5517   14.2909 H   0  0  0  0  0  0  0  0  0  0  0  0
    2.6713    3.1772   14.1867 H   0  0  0  0  0  0  0  0  0  0  0  0
    3.2014    6.7945   12.9617 H   0  0  0  0  0  0  0  0  0  0  0  0
    1.6570    6.1189   12.4115 H   0  0  0  0  0  0  0  0  0  0  0  0
    0.5751    2.5030   13.2851 H   0  0  0  0  0  0  0  0  0  0  0  0
    0.4002    3.9622   12.2823 H   0  0  0  0  0  0  0  0  0  0  0  0
  1  5  1  0  0  0  0
  1  2  1  0  0  0  0
  3  1  1  0  0  0  0
  4  7  1  1  0  0  0
  4  9  1  0  0  0  0
  4  1  1  0  0  0  0
  5 11  1  6  0  0  0
  5 10  1  0  0  0  0
  6 13  1  0  0  0  0
  6  8  1  0  0  0  0
  7  6  1  0  0  0  0
  8 12  1  0  0  0  0
  9 18  1  0  0  0  0
  9 11  1  0  0  0  0
 10 20  1  0  0  0  0
 10 19  1  0  0  0  0
 11 22  1  0  0  0  0
 11 21  1  0  0  0  0
 12 23  1  0  0  0  0
 12 10  1  0  0  0  0
 14  6  1  0  0  0  0
 15  7  1  0  0  0  0
 16  7  1  0  0  0  0
 17  9  1  0  0  0  0
 24 12  1  0  0  0  0
M  END
$$$$
