CSD_code = VIWPUP | q = 1 | S = 0 | Stoichiometry = C19H13ClN3PtS(1+) | MND = 4
 OpenBabel04212202113D

 38 43  0  0  0  0  0  0  0  0999 V2000
    3.3315    5.8645    0.3467 Pt  0  0  2  0  0  0  0  0  0  0  0  0
    3.7276    5.6656    2.5239 Cl  0  0  0  0  0  0  0  0  0  0  0  0
    1.6456    5.8602   -8.0582 S   0  0  0  0  0  0  0  0  0  0  0  0
    2.7423    7.7774    0.3419 N   0  0  0  0  0  0  0  0  0  0  0  0
    2.9916    6.0345   -1.5123 N   0  0  0  0  0  0  0  0  0  0  0  0
    3.8223    4.0031   -0.2013 N   0  0  0  0  0  0  0  0  0  0  0  0
    1.9645    7.4978   -7.6422 C   0  0  0  0  0  0  0  0  0  0  0  0
    1.9251    8.2542   -8.4002 H   0  0  0  0  0  0  0  0  0  0  0  0
    2.2447    7.6480   -6.3271 C   0  0  0  0  0  0  0  0  0  0  0  0
    2.4953    8.5948   -5.8857 H   0  0  0  0  0  0  0  0  0  0  0  0
    2.2270    6.4123   -5.6148 C   0  0  0  0  0  0  0  0  0  0  0  0
    1.9212    5.3644   -6.4532 C   0  0  0  0  0  0  0  0  0  0  0  0
    1.7963    4.3308   -6.1978 H   0  0  0  0  0  0  0  0  0  0  0  0
    2.4929    6.2787   -4.1967 C   0  0  0  0  0  0  0  0  0  0  0  0
    2.2955    7.3651   -3.3286 C   0  0  0  0  0  0  0  0  0  0  0  0
    1.9261    8.2985   -3.7171 H   0  0  0  0  0  0  0  0  0  0  0  0
    2.5553    7.2157   -1.9766 C   0  0  0  0  0  0  0  0  0  0  0  0
    2.4145    8.2138   -0.9065 C   0  0  0  0  0  0  0  0  0  0  0  0
    1.9837    9.5193   -1.1102 C   0  0  0  0  0  0  0  0  0  0  0  0
    1.7267    9.8532   -2.1020 H   0  0  0  0  0  0  0  0  0  0  0  0
    1.8867   10.3853   -0.0324 C   0  0  0  0  0  0  0  0  0  0  0  0
    1.5539   11.4008   -0.1783 H   0  0  0  0  0  0  0  0  0  0  0  0
    2.2243    9.9233    1.2306 C   0  0  0  0  0  0  0  0  0  0  0  0
    2.1629   10.5639    2.0948 H   0  0  0  0  0  0  0  0  0  0  0  0
    2.6474    8.6117    1.3730 C   0  0  0  0  0  3  0  0  0  0  0  0
    2.9208    8.2092    2.3406 H   0  0  0  0  0  0  0  0  0  0  0  0
    2.9524    5.0644   -3.6598 C   0  0  0  0  0  0  0  0  0  0  0  0
    3.1273    4.2262   -4.3120 H   0  0  0  0  0  0  0  0  0  0  0  0
    3.1956    4.9669   -2.3001 C   0  0  0  0  0  0  0  0  0  0  0  0
    3.6771    3.8033   -1.5412 C   0  0  0  0  0  0  0  0  0  0  0  0
    3.9744    2.5705   -2.1097 C   0  0  0  0  0  0  0  0  0  0  0  0
    3.8572    2.4250   -3.1710 H   0  0  0  0  0  0  0  0  0  0  0  0
    4.4225    1.5347   -1.3052 C   0  0  0  0  0  0  0  0  0  0  0  0
    4.6569    0.5738   -1.7354 H   0  0  0  0  0  0  0  0  0  0  0  0
    4.5632    1.7564    0.0563 C   0  0  0  0  0  0  0  0  0  0  0  0
    4.9083    0.9780    0.7166 H   0  0  0  0  0  0  0  0  0  0  0  0
    4.2519    3.0063    0.5667 C   0  0  0  0  0  0  0  0  0  0  0  0
    4.3473    3.2235    1.6234 H   0  0  0  0  0  0  0  0  0  0  0  0
  1  2  1  1  0  0  0
  3  7  1  0  0  0  0
  3 12  1  0  0  0  0
  4  1  1  0  0  0  0
  4 25  1  0  0  0  0
  5  1  1  0  0  0  0
  6  1  1  0  0  0  0
  6 37  1  0  0  0  0
  7  9  2  0  0  0  0
  8  7  1  0  0  0  0
  9 10  1  0  0  0  0
  9 11  1  0  0  0  0
 11 14  1  0  0  0  0
 12 13  1  0  0  0  0
 12 11  2  0  0  0  0
 14 27  2  0  0  0  0
 14 15  1  0  0  0  0
 15 17  2  0  0  0  0
 16 15  1  0  0  0  0
 17  5  1  0  0  0  0
 17 18  1  0  0  0  0
 18  4  1  0  0  0  0
 19 18  2  0  0  0  0
 19 21  1  0  0  0  0
 20 19  1  0  0  0  0
 21 23  2  0  0  0  0
 22 21  1  0  0  0  0
 23 25  1  0  0  0  0
 23 24  1  0  0  0  0
 25 26  1  0  0  0  0
 27 29  1  0  0  0  0
 28 27  1  0  0  0  0
 29 30  2  0  0  0  0
 29  5  1  0  0  0  0
 30  6  1  0  0  0  0
 31 30  1  0  0  0  0
 31 33  2  0  0  0  0
 32 31  1  0  0  0  0
 33 35  1  0  0  0  0
 34 33  1  0  0  0  0
 35 37  2  0  0  0  0
 35 36  1  0  0  0  0
 37 38  1  0  0  0  0
M  END
$$$$
