CSD_code = VIXPIE | q = 0 | S = 0 | Stoichiometry = C16H11ClN5O5ReS | MND = 6
 OpenBabel04212202113D

 40 43  0  0  0  0  0  0  0  0999 V2000
   15.7404   13.2691    1.0533 Re  0  0  0  0  0  0  0  0  0  0  0  0
   16.0763   13.1638    3.4167 Cl  0  0  0  0  0  0  0  0  0  0  0  0
   21.3263    5.3748    2.1474 S   0  0  0  0  0  0  0  0  0  0  0  0
   22.6644    5.4885    2.6340 O   0  0  0  0  0  0  0  0  0  0  0  0
   20.3731    4.5484    2.8137 O   0  0  0  0  0  0  0  0  0  0  0  0
   14.0485   10.6928    1.2358 O   0  0  0  0  0  1  0  0  0  0  0  0
   13.3541   15.1279    1.6715 O   0  0  0  0  0  1  0  0  0  0  0  0
   15.6594   13.5518   -2.0242 O   0  0  0  0  0  1  0  0  0  0  0  0
   17.2566   14.8507    1.2960 N   0  0  0  0  0  0  0  0  0  0  0  0
   17.5356   12.2326    1.1345 N   0  0  0  0  0  0  0  0  0  0  0  0
   17.8100   10.9876    1.1434 N   0  0  0  0  0  2  0  0  0  0  0  0
   19.0601   10.8371    1.5761 N   0  0  0  0  0  0  0  0  0  0  0  0
   21.4274    4.8273    0.5807 N   0  0  0  0  0  0  0  0  0  0  0  0
   20.5501    4.6434    0.1275 H   0  0  0  0  0  0  0  0  0  0  0  0
   22.1076    5.2853    0.0009 H   0  0  0  0  0  0  0  0  0  0  0  0
   17.0372   16.1584    1.3529 C   0  0  0  0  0  3  0  0  0  0  0  0
   16.0520   16.4933    1.0565 H   0  0  0  0  0  0  0  0  0  0  0  0
   17.9977   17.0650    1.7684 C   0  0  0  0  0  0  0  0  0  0  0  0
   17.7632   18.1164    1.8061 H   0  0  0  0  0  0  0  0  0  0  0  0
   19.2493   16.5958    2.1398 C   0  0  0  0  0  0  0  0  0  0  0  0
   20.0173   17.2746    2.4773 H   0  0  0  0  0  0  0  0  0  0  0  0
   19.4927   15.2367    2.0725 C   0  0  0  0  0  0  0  0  0  0  0  0
   20.4486   14.8233    2.3526 H   0  0  0  0  0  0  0  0  0  0  0  0
   18.4709   14.3929    1.6497 C   0  0  0  0  0  0  0  0  0  0  0  0
   18.6103   12.9543    1.5637 C   0  0  0  0  0  0  0  0  0  0  0  0
   19.6066   12.0477    1.8501 C   0  0  0  0  0  0  0  0  0  0  0  0
   20.5912   12.1761    2.2440 H   0  0  0  0  0  0  0  0  0  0  0  0
   19.6165    9.5601    1.7129 C   0  0  0  0  0  0  0  0  0  0  0  0
   20.9957    9.3839    1.7886 C   0  0  0  0  0  0  0  0  0  0  0  0
   21.6661   10.2269    1.7327 H   0  0  0  0  0  0  0  0  0  0  0  0
   21.5053    8.1050    1.9264 C   0  0  0  0  0  0  0  0  0  0  0  0
   22.5655    7.9253    2.0060 H   0  0  0  0  0  0  0  0  0  0  0  0
   20.6427    7.0283    1.9840 C   0  0  0  0  0  0  0  0  0  0  0  0
   19.2729    7.1963    1.9079 C   0  0  0  0  0  0  0  0  0  0  0  0
   18.6336    6.3312    1.9811 H   0  0  0  0  0  0  0  0  0  0  0  0
   18.7508    8.4685    1.7699 C   0  0  0  0  0  0  0  0  0  0  0  0
   17.6877    8.6402    1.7114 H   0  0  0  0  0  0  0  0  0  0  0  0
   14.6305   11.6668    1.1085 C   0  0  0  0  0  2  0  0  0  0  0  0
   14.2036   14.4250    1.3696 C   0  0  0  0  0  2  0  0  0  0  0  0
   15.6667   13.4373   -0.8807 C   0  0  0  0  0  2  0  0  0  0  0  0
  1 38  1  0  0  0  0
  1 10  1  0  0  0  0
  1  9  1  0  0  0  0
  1 39  1  0  0  0  0
  1  2  1  0  0  0  0
  3  4  2  0  0  0  0
  3  5  2  0  0  0  0
  8 40  1  0  0  0  0
  9 16  1  0  0  0  0
  9 24  1  0  0  0  0
 10 11  1  0  0  0  0
 10 25  1  0  0  0  0
 11 12  1  0  0  0  0
 12 28  1  0  0  0  0
 12 26  1  0  0  0  0
 13  3  1  0  0  0  0
 14 13  1  0  0  0  0
 15 13  1  0  0  0  0
 16 18  1  0  0  0  0
 17 16  1  0  0  0  0
 18 19  1  0  0  0  0
 18 20  2  0  0  0  0
 20 21  1  0  0  0  0
 22 20  1  0  0  0  0
 22 23  1  0  0  0  0
 24 22  2  0  0  0  0
 25 24  1  0  0  0  0
 25 26  2  0  0  0  0
 26 27  1  0  0  0  0
 28 36  2  0  0  0  0
 28 29  1  0  0  0  0
 29 31  2  0  0  0  0
 30 29  1  0  0  0  0
 31 33  1  0  0  0  0
 31 32  1  0  0  0  0
 33  3  1  0  0  0  0
 34 35  1  0  0  0  0
 34 33  2  0  0  0  0
 36 34  1  0  0  0  0
 37 36  1  0  0  0  0
 38  6  1  0  0  0  0
 39  7  1  0  0  0  0
 40  1  1  0  0  0  0
M  END
$$$$
