CSD_code = VIXSUR | q = 0 | S = 0 | Stoichiometry = C7H9AuClN3 | MND = 2
 OpenBabel04212202113D

 21 21  0  0  1  0  0  0  0  0999 V2000
    2.8369    8.4101    8.4271 Cl  0  0  0  0  0  0  0  0  0  0  0  0
    4.1456    6.6091    8.1504 Au  0  0  0  0  0  0  0  0  0  0  0  0
    5.3126    4.9733    7.9145 C   0  0  1  0  0  3  0  0  0  0  0  0
    6.6106    4.9983    7.7471 N   0  0  0  0  0  0  0  0  0  0  0  0
    7.0954    4.0977    7.6487 H   0  0  0  0  0  0  0  0  0  0  0  0
    7.4080    6.1896    7.6948 C   0  0  0  0  0  0  0  0  0  0  0  0
    6.7637    7.0631    7.7985 H   0  0  0  0  0  0  0  0  0  0  0  0
    7.9383    6.2432    6.7426 H   0  0  0  0  0  0  0  0  0  0  0  0
    8.1418    6.1859    8.5027 H   0  0  0  0  0  0  0  0  0  0  0  0
    4.7313    3.7444    7.9368 N   0  0  0  0  0  0  0  0  0  0  0  0
    3.7296    3.7469    8.0630 H   0  0  0  0  0  0  0  0  0  0  0  0
    5.2879    2.4798    7.8184 C   0  0  0  0  0  0  0  0  0  0  0  0
    4.4419    1.3647    7.8789 C   0  0  0  0  0  0  0  0  0  0  0  0
    3.3793    1.4976    8.0126 H   0  0  0  0  0  0  0  0  0  0  0  0
    4.9971    0.1078    7.7649 C   0  0  0  0  0  0  0  0  0  0  0  0
    4.3701   -0.7700    7.8081 H   0  0  0  0  0  0  0  0  0  0  0  0
    6.3723   -0.0139    7.5944 C   0  0  0  0  0  0  0  0  0  0  0  0
    6.8405   -0.9799    7.5027 H   0  0  0  0  0  0  0  0  0  0  0  0
    7.1236    1.1435    7.5453 C   0  0  0  0  0  0  0  0  0  0  0  0
    8.1968    1.1185    7.4138 H   0  0  0  0  0  0  0  0  0  0  0  0
    6.6028    2.3573    7.6530 N   0  0  0  0  0  0  0  0  0  0  0  0
  2  1  1  0  0  0  0
  3 10  1  0  0  0  0
  3  2  1  1  0  0  0
  4  3  1  0  0  0  0
  5  4  1  0  0  0  0
  6  4  1  0  0  0  0
  6  7  1  0  0  0  0
  6  9  1  0  0  0  0
  8  6  1  0  0  0  0
 10 11  1  0  0  0  0
 12 13  1  0  0  0  0
 12 10  1  0  0  0  0
 13 14  1  0  0  0  0
 15 16  1  0  0  0  0
 15 13  2  0  0  0  0
 17 15  1  0  0  0  0
 18 17  1  0  0  0  0
 19 17  2  0  0  0  0
 19 21  1  0  0  0  0
 20 19  1  0  0  0  0
 21 12  2  0  0  0  0
M  END
$$$$
