CSD_code = VIXTII | q = -1 | S = 0 | Stoichiometry = C15H9Cl3NO3Ru(1-) | MND = 6
 OpenBabel04212202113D

 32 34  0  0  0  0  0  0  0  0999 V2000
    0.0049    3.6037   11.1223 Ru  0  0  0  0  0  0  0  0  0  0  0  0
   -1.0200    4.7526    9.3129 Cl  0  0  0  0  0  0  0  0  0  0  0  0
    1.1476    2.1326    9.6655 Cl  0  0  0  0  0  0  0  0  0  0  0  0
    5.8566    1.5030   13.1000 Cl  0  0  0  0  0  0  0  0  0  0  0  0
    2.3826    5.3649   10.7143 O   0  0  0  0  0  1  0  0  0  0  0  0
   -1.4718    5.3979   13.0039 O   0  0  0  0  0  1  0  0  0  0  0  0
   -1.6028    2.2767   11.0258 O   0  0  0  0  0  0  0  0  0  0  0  0
    0.8429    2.3471   12.5770 N   0  0  0  0  0  0  0  0  0  0  0  0
    1.4652    4.7129   10.9279 C   0  0  0  0  0  2  0  0  0  0  0  0
   -0.9120    4.6952   12.2869 C   0  0  0  0  0  2  0  0  0  0  0  0
   -1.6522    1.0828   11.4296 C   0  0  0  0  0  0  0  0  0  0  0  0
   -2.7718    0.2802   11.0402 C   0  0  0  0  0  0  0  0  0  0  0  0
   -3.5004    0.7534   10.3983 H   0  0  0  0  0  0  0  0  0  0  0  0
   -2.9087   -1.0146   11.4378 C   0  0  0  0  0  0  0  0  0  0  0  0
   -3.7651   -1.5919   11.1144 H   0  0  0  0  0  0  0  0  0  0  0  0
   -1.9463   -1.6172   12.2651 C   0  0  0  0  0  0  0  0  0  0  0  0
   -2.0653   -2.6467   12.5706 H   0  0  0  0  0  0  0  0  0  0  0  0
   -0.8646   -0.8896   12.6699 C   0  0  0  0  0  0  0  0  0  0  0  0
   -0.1152   -1.3449   13.3058 H   0  0  0  0  0  0  0  0  0  0  0  0
   -0.6750    0.4562   12.2842 C   0  0  0  0  0  0  0  0  0  0  0  0
    0.4816    1.1116   12.7583 C   0  0  0  0  0  3  0  0  0  0  0  0
    1.1289    0.5007   13.3973 H   0  0  0  0  0  0  0  0  0  0  0  0
    2.0738    2.7630   13.0768 C   0  0  0  0  0  0  0  0  0  0  0  0
    3.2232    1.9938   12.8795 C   0  0  0  0  0  0  0  0  0  0  0  0
    3.1683    1.0849   12.2999 H   0  0  0  0  0  0  0  0  0  0  0  0
    4.4338    2.4510   13.3640 C   0  0  0  0  0  0  0  0  0  0  0  0
    4.5378    3.6453   14.0562 C   0  0  0  0  0  0  0  0  0  0  0  0
    5.4955    3.9809   14.4214 H   0  0  0  0  0  0  0  0  0  0  0  0
    3.3917    4.3998   14.2542 C   0  0  0  0  0  0  0  0  0  0  0  0
    3.4581    5.3355   14.7888 H   0  0  0  0  0  0  0  0  0  0  0  0
    2.1713    3.9709   13.7739 C   0  0  0  0  0  0  0  0  0  0  0  0
    1.2777    4.5599   13.9275 H   0  0  0  0  0  0  0  0  0  0  0  0
  1 10  1  0  0  0  0
  1  8  1  0  0  0  0
  2  1  1  0  0  0  0
  3  1  1  0  0  0  0
  4 26  1  0  0  0  0
  5  9  1  0  0  0  0
  7  1  1  0  0  0  0
  7 11  1  0  0  0  0
  8 21  1  0  0  0  0
  8 23  1  0  0  0  0
  9  1  1  0  0  0  0
 10  6  1  0  0  0  0
 11 20  1  0  0  0  0
 12 11  2  0  0  0  0
 12 14  1  0  0  0  0
 13 12  1  0  0  0  0
 14 16  2  0  0  0  0
 15 14  1  0  0  0  0
 16 17  1  0  0  0  0
 16 18  1  0  0  0  0
 18 19  1  0  0  0  0
 20 18  2  0  0  0  0
 20 21  1  0  0  0  0
 21 22  1  0  0  0  0
 23 31  1  0  0  0  0
 24 23  2  0  0  0  0
 24 26  1  0  0  0  0
 25 24  1  0  0  0  0
 26 27  2  0  0  0  0
 27 29  1  0  0  0  0
 27 28  1  0  0  0  0
 29 30  1  0  0  0  0
 31 32  1  0  0  0  0
 31 29  2  0  0  0  0
M  END
$$$$
