CSD_code = VIXZOS | q = 0 | S = 0 | Stoichiometry = C31H23Br2NO2PReS | MND = 6
 OpenBabel04212202113D

 62 68  0  0  1  0  0  0  0  0999 V2000
   10.0981    7.9143    9.3748 Re  0  0  0  0  0  0  0  0  0  0  0  0
   11.6325    6.1235    8.5517 Br  0  0  0  0  0  0  0  0  0  0  0  0
   11.9541    9.5309    9.3411 Br  0  0  0  0  0  0  0  0  0  0  0  0
   10.2939    7.5673   10.9803 O   0  0  0  0  0  1  0  0  0  0  0  0
    8.3832    9.6447   10.0276 P   0  0  0  0  0  4  0  0  0  0  0  0
    8.4447   10.1370   11.7748 C   0  0  0  0  0  0  0  0  0  0  0  0
    9.6972   10.3325   12.3505 C   0  0  0  0  0  0  0  0  0  0  0  0
   10.5918   10.1567   11.7700 H   0  0  0  0  0  0  0  0  0  0  0  0
    9.7935   10.7356   13.6699 C   0  0  0  0  0  0  0  0  0  0  0  0
   10.7661   10.8807   14.1140 H   0  0  0  0  0  0  0  0  0  0  0  0
    8.6465   10.9463   14.4176 C   0  0  0  0  0  0  0  0  0  0  0  0
    8.7220   11.2572   15.4489 H   0  0  0  0  0  0  0  0  0  0  0  0
    7.3995   10.7528   13.8455 C   0  0  0  0  0  0  0  0  0  0  0  0
    6.5044   10.9135   14.4285 H   0  0  0  0  0  0  0  0  0  0  0  0
    7.2930   10.3493   12.5272 C   0  0  0  0  0  0  0  0  0  0  0  0
    6.3164   10.1876   12.0912 H   0  0  0  0  0  0  0  0  0  0  0  0
    6.7448    8.9024    9.8109 C   0  0  0  0  0  0  0  0  0  0  0  0
    5.9293    9.2067    8.7262 C   0  0  0  0  0  0  0  0  0  0  0  0
    6.2198    9.9835    8.0315 H   0  0  0  0  0  0  0  0  0  0  0  0
    4.7487    8.5097    8.5357 C   0  0  0  0  0  0  0  0  0  0  0  0
    4.1187    8.7482    7.6918 H   0  0  0  0  0  0  0  0  0  0  0  0
    4.3829    7.5034    9.4142 C   0  0  0  0  0  0  0  0  0  0  0  0
    3.4657    6.9564    9.2561 H   0  0  0  0  0  0  0  0  0  0  0  0
    5.1997    7.1880   10.4906 C   0  0  0  0  0  0  0  0  0  0  0  0
    4.9222    6.3947   11.1693 H   0  0  0  0  0  0  0  0  0  0  0  0
    6.3798    7.8786   10.6859 C   0  0  0  0  0  0  0  0  0  0  0  0
    7.0378    7.6277   11.5085 H   0  0  0  0  0  0  0  0  0  0  0  0
    8.2822   11.2321    9.1443 C   0  0  0  0  0  0  0  0  0  0  0  0
    7.2737   12.1273    9.4962 C   0  0  0  0  0  0  0  0  0  0  0  0
    6.5754   11.8706   10.2805 H   0  0  0  0  0  0  0  0  0  0  0  0
    7.1715   13.3398    8.8434 C   0  0  0  0  0  0  0  0  0  0  0  0
    6.3893   14.0321    9.1180 H   0  0  0  0  0  0  0  0  0  0  0  0
    8.0725   13.6696    7.8417 C   0  0  0  0  0  0  0  0  0  0  0  0
    7.9904   14.6201    7.3364 H   0  0  0  0  0  0  0  0  0  0  0  0
    9.0794   12.7855    7.4967 C   0  0  0  0  0  0  0  0  0  0  0  0
    9.7897   13.0447    6.7265 H   0  0  0  0  0  0  0  0  0  0  0  0
    9.1879   11.5675    8.1462 C   0  0  0  0  0  0  0  0  0  0  0  0
    9.9895   10.8933    7.8859 H   0  0  0  0  0  0  0  0  0  0  0  0
    8.3656    6.3670    8.9983 N   0  0  0  0  0  0  0  0  0  0  0  0
    9.5991    8.3189    7.6561 O   0  0  0  0  0  0  0  0  0  0  0  0
    6.4339    5.0521    7.9182 S   0  0  0  0  0  0  0  0  0  0  0  0
    7.6025    6.3639    7.9421 C   0  0  2  0  0  3  0  0  0  0  0  0
    7.0643    4.4914    9.4344 C   0  0  0  0  0  0  0  0  0  0  0  0
    8.1131    5.3306    9.8542 C   0  0  0  0  0  0  0  0  0  0  0  0
    6.6634    3.3973   10.1819 C   0  0  0  0  0  0  0  0  0  0  0  0
    5.8580    2.7677    9.8384 H   0  0  0  0  0  0  0  0  0  0  0  0
    7.3294    3.1392   11.3630 C   0  0  0  0  0  0  0  0  0  0  0  0
    7.0395    2.2893   11.9613 H   0  0  0  0  0  0  0  0  0  0  0  0
    8.3772    3.9558   11.7858 C   0  0  0  0  0  0  0  0  0  0  0  0
    8.8896    3.7263   12.7069 H   0  0  0  0  0  0  0  0  0  0  0  0
    8.7775    5.0460   11.0454 C   0  0  0  0  0  0  0  0  0  0  0  0
    9.5947    5.6767   11.3671 H   0  0  0  0  0  0  0  0  0  0  0  0
    7.6412    7.2884    6.8402 C   0  0  0  0  0  0  0  0  0  0  0  0
    8.6893    8.2427    6.7322 C   0  0  0  0  0  0  0  0  0  0  0  0
    8.7214    9.0964    5.6195 C   0  0  0  0  0  0  0  0  0  0  0  0
    9.5357    9.8012    5.5415 H   0  0  0  0  0  0  0  0  0  0  0  0
    7.7409    9.0305    4.6571 C   0  0  0  0  0  0  0  0  0  0  0  0
    7.7794    9.6990    3.8104 H   0  0  0  0  0  0  0  0  0  0  0  0
    6.7049    8.1085    4.7683 C   0  0  0  0  0  0  0  0  0  0  0  0
    5.9379    8.0615    4.0114 H   0  0  0  0  0  0  0  0  0  0  0  0
    6.6660    7.2476    5.8413 C   0  0  0  0  0  0  0  0  0  0  0  0
    5.8681    6.5236    5.9278 H   0  0  0  0  0  0  0  0  0  0  0  0
  1  5  1  0  0  0  0
  1  4  1  0  0  0  0
  2  1  1  0  0  0  0
  3  1  1  0  0  0  0
  5  6  1  0  0  0  0
  6  7  2  0  0  0  0
  6 15  1  0  0  0  0
  7  9  1  0  0  0  0
  8  7  1  0  0  0  0
  9 10  1  0  0  0  0
  9 11  2  0  0  0  0
 11 12  1  0  0  0  0
 13 11  1  0  0  0  0
 13 14  1  0  0  0  0
 15 13  2  0  0  0  0
 16 15  1  0  0  0  0
 17  5  1  0  0  0  0
 17 26  1  0  0  0  0
 18 17  2  0  0  0  0
 19 18  1  0  0  0  0
 20 18  1  0  0  0  0
 20 22  2  0  0  0  0
 21 20  1  0  0  0  0
 22 24  1  0  0  0  0
 23 22  1  0  0  0  0
 24 26  2  0  0  0  0
 24 25  1  0  0  0  0
 26 27  1  0  0  0  0
 28 29  1  0  0  0  0
 28  5  1  0  0  0  0
 29 30  1  0  0  0  0
 31 32  1  0  0  0  0
 31 29  2  0  0  0  0
 33 31  1  0  0  0  0
 34 33  1  0  0  0  0
 35 33  2  0  0  0  0
 35 37  1  0  0  0  0
 36 35  1  0  0  0  0
 37 28  2  0  0  0  0
 38 37  1  0  0  0  0
 39  1  1  0  0  0  0
 39 44  1  0  0  0  0
 40  1  1  0  0  0  0
 41 42  1  0  0  0  0
 41 43  1  0  0  0  0
 42 53  1  6  0  0  0
 42 39  1  0  0  0  0
 43 44  2  0  0  0  0
 43 45  1  0  0  0  0
 44 51  1  0  0  0  0
 45 47  2  0  0  0  0
 46 45  1  0  0  0  0
 47 49  1  0  0  0  0
 47 48  1  0  0  0  0
 49 50  1  0  0  0  0
 51 52  1  0  0  0  0
 51 49  2  0  0  0  0
 54 53  1  0  0  0  0
 54 40  1  0  0  0  0
 55 54  2  0  0  0  0
 56 55  1  0  0  0  0
 57 59  2  0  0  0  0
 57 55  1  0  0  0  0
 58 57  1  0  0  0  0
 59 61  1  0  0  0  0
 60 59  1  0  0  0  0
 61 62  1  0  0  0  0
 61 53  2  0  0  0  0
M  END
$$$$
