CSD_code = VIYBOV | q = 0 | S = 0 | Stoichiometry = C31H23Cl2NO2PReS | MND = 6
 OpenBabel04212202113D

 62 68  0  0  1  0  0  0  0  0999 V2000
    5.2627    1.8989    0.3946 Re  0  0  0  0  0  0  0  0  0  0  0  0
    5.4886    0.5105    2.3209 Cl  0  0  0  0  0  0  0  0  0  0  0  0
    5.3171    3.1027   -1.6595 Cl  0  0  0  0  0  0  0  0  0  0  0  0
    4.8142    3.2318    1.2629 O   0  0  0  0  0  1  0  0  0  0  0  0
    2.9748    1.0928    0.2919 P   0  0  0  0  0  4  0  0  0  0  0  0
    2.9430   -0.5660   -0.4345 C   0  0  0  0  0  0  0  0  0  0  0  0
    3.6482   -1.5671    0.2344 C   0  0  0  0  0  0  0  0  0  0  0  0
    4.1670   -1.3287    1.1543 H   0  0  0  0  0  0  0  0  0  0  0  0
    3.6896   -2.8455   -0.2890 C   0  0  0  0  0  0  0  0  0  0  0  0
    4.2394   -3.6187    0.2266 H   0  0  0  0  0  0  0  0  0  0  0  0
    3.0343   -3.1322   -1.4777 C   0  0  0  0  0  0  0  0  0  0  0  0
    3.0730   -4.1303   -1.8886 H   0  0  0  0  0  0  0  0  0  0  0  0
    2.3336   -2.1383   -2.1412 C   0  0  0  0  0  0  0  0  0  0  0  0
    1.8242   -2.3610   -3.0672 H   0  0  0  0  0  0  0  0  0  0  0  0
    2.2855   -0.8539   -1.6250 C   0  0  0  0  0  0  0  0  0  0  0  0
    1.7389   -0.0802   -2.1446 H   0  0  0  0  0  0  0  0  0  0  0  0
    2.2304    0.9182    1.9341 C   0  0  0  0  0  0  0  0  0  0  0  0
    2.5082    1.8834    2.8977 C   0  0  0  0  0  0  0  0  0  0  0  0
    3.1957    2.6852    2.6559 H   0  0  0  0  0  0  0  0  0  0  0  0
    1.9279    1.7926    4.1487 C   0  0  0  0  0  0  0  0  0  0  0  0
    2.1491    2.5354    4.9000 H   0  0  0  0  0  0  0  0  0  0  0  0
    1.0711    0.7425    4.4409 C   0  0  0  0  0  0  0  0  0  0  0  0
    0.6243    0.6678    5.4212 H   0  0  0  0  0  0  0  0  0  0  0  0
    0.7916   -0.2162    3.4811 C   0  0  0  0  0  0  0  0  0  0  0  0
    0.1262   -1.0352    3.7113 H   0  0  0  0  0  0  0  0  0  0  0  0
    1.3670   -0.1324    2.2255 C   0  0  0  0  0  0  0  0  0  0  0  0
    1.1516   -0.8812    1.4759 H   0  0  0  0  0  0  0  0  0  0  0  0
    1.8079    2.1002   -0.6579 C   0  0  0  0  0  0  0  0  0  0  0  0
    0.6144    2.5469   -0.0995 C   0  0  0  0  0  0  0  0  0  0  0  0
    0.3700    2.3010    0.9239 H   0  0  0  0  0  0  0  0  0  0  0  0
   -0.2551    3.3099   -0.8586 C   0  0  0  0  0  0  0  0  0  0  0  0
   -1.1802    3.6579   -0.4232 H   0  0  0  0  0  0  0  0  0  0  0  0
    0.0606    3.6322   -2.1683 C   0  0  0  0  0  0  0  0  0  0  0  0
   -0.6198    4.2322   -2.7542 H   0  0  0  0  0  0  0  0  0  0  0  0
    1.2530    3.1950   -2.7232 C   0  0  0  0  0  0  0  0  0  0  0  0
    1.5073    3.4566   -3.7392 H   0  0  0  0  0  0  0  0  0  0  0  0
    2.1285    2.4318   -1.9735 C   0  0  0  0  0  0  0  0  0  0  0  0
    3.0766    2.1217   -2.3891 H   0  0  0  0  0  0  0  0  0  0  0  0
    7.5413    2.2092    0.3594 N   0  0  0  0  0  0  0  0  0  0  0  0
    8.3446    1.5659   -0.4435 C   0  0  1  0  0  3  0  0  0  0  0  0
   10.0225    2.0691   -0.3084 S   0  0  0  0  0  0  0  0  0  0  0  0
    5.7730    0.4603   -0.5917 O   0  0  0  0  0  0  0  0  0  0  0  0
    9.5653    3.2091    0.9172 C   0  0  0  0  0  0  0  0  0  0  0  0
   10.3697    4.0913    1.6190 C   0  0  0  0  0  0  0  0  0  0  0  0
   11.4307    4.1306    1.4298 H   0  0  0  0  0  0  0  0  0  0  0  0
    9.7722    4.9068    2.5584 C   0  0  0  0  0  0  0  0  0  0  0  0
   10.3773    5.6020    3.1199 H   0  0  0  0  0  0  0  0  0  0  0  0
    8.3990    4.8426    2.7913 C   0  0  0  0  0  0  0  0  0  0  0  0
    7.9575    5.4909    3.5322 H   0  0  0  0  0  0  0  0  0  0  0  0
    7.5956    3.9665    2.0953 C   0  0  0  0  0  0  0  0  0  0  0  0
    6.5296    3.9129    2.2667 H   0  0  0  0  0  0  0  0  0  0  0  0
    8.1778    3.1352    1.1399 C   0  0  0  0  0  0  0  0  0  0  0  0
    6.6805   -0.0199   -1.3852 C   0  0  0  0  0  0  0  0  0  0  0  0
    7.9987    0.5140   -1.3627 C   0  0  0  0  0  0  0  0  0  0  0  0
    8.9533   -0.0168   -2.2345 C   0  0  0  0  0  0  0  0  0  0  0  0
    9.9532    0.3933   -2.2201 H   0  0  0  0  0  0  0  0  0  0  0  0
    8.6389   -1.0356   -3.1044 C   0  0  0  0  0  0  0  0  0  0  0  0
    9.3910   -1.4257   -3.7721 H   0  0  0  0  0  0  0  0  0  0  0  0
    7.3497   -1.5589   -3.1219 C   0  0  0  0  0  0  0  0  0  0  0  0
    7.1016   -2.3571   -3.8053 H   0  0  0  0  0  0  0  0  0  0  0  0
    6.3854   -1.0643   -2.2749 C   0  0  0  0  0  0  0  0  0  0  0  0
    5.3789   -1.4558   -2.2795 H   0  0  0  0  0  0  0  0  0  0  0  0
  1  4  1  0  0  0  0
  1  2  1  0  0  0  0
  3  1  1  0  0  0  0
  5  1  1  0  0  0  0
  5 17  1  0  0  0  0
  6  7  1  0  0  0  0
  6  5  1  0  0  0  0
  7  8  1  0  0  0  0
  9 10  1  0  0  0  0
  9  7  2  0  0  0  0
 11  9  1  0  0  0  0
 12 11  1  0  0  0  0
 13 15  1  0  0  0  0
 13 11  2  0  0  0  0
 14 13  1  0  0  0  0
 15  6  2  0  0  0  0
 16 15  1  0  0  0  0
 17 26  2  0  0  0  0
 17 18  1  0  0  0  0
 18 20  2  0  0  0  0
 19 18  1  0  0  0  0
 20 22  1  0  0  0  0
 20 21  1  0  0  0  0
 22 23  1  0  0  0  0
 24 25  1  0  0  0  0
 24 22  2  0  0  0  0
 26 24  1  0  0  0  0
 27 26  1  0  0  0  0
 28 29  1  0  0  0  0
 28  5  1  0  0  0  0
 29 30  1  0  0  0  0
 31 32  1  0  0  0  0
 31 29  2  0  0  0  0
 33 31  1  0  0  0  0
 34 33  1  0  0  0  0
 35 33  2  0  0  0  0
 35 37  1  0  0  0  0
 36 35  1  0  0  0  0
 37 28  2  0  0  0  0
 38 37  1  0  0  0  0
 39  1  1  0  0  0  0
 39 52  1  0  0  0  0
 40 54  1  1  0  0  0
 40 41  1  0  0  0  0
 40 39  1  0  0  0  0
 41 43  1  0  0  0  0
 42  1  1  0  0  0  0
 43 52  2  0  0  0  0
 43 44  1  0  0  0  0
 44 46  2  0  0  0  0
 45 44  1  0  0  0  0
 46 48  1  0  0  0  0
 46 47  1  0  0  0  0
 48 49  1  0  0  0  0
 50 51  1  0  0  0  0
 50 48  2  0  0  0  0
 52 50  1  0  0  0  0
 53 54  1  0  0  0  0
 53 42  1  0  0  0  0
 55 56  1  0  0  0  0
 55 54  2  0  0  0  0
 57 55  1  0  0  0  0
 58 57  1  0  0  0  0
 59 57  2  0  0  0  0
 59 61  1  0  0  0  0
 60 59  1  0  0  0  0
 61 53  2  0  0  0  0
 62 61  1  0  0  0  0
M  END
$$$$
