CSD_code = VIYDAJ | q = 0 | S = 0 | Stoichiometry = C14H16ClN4O3Re | MND = 6
 OpenBabel04212202113D

 39 41  0  0  1  0  0  0  0  0999 V2000
   -2.2596   -1.1330   -3.2884 Re  0  0  0  0  0  0  0  0  0  0  0  0
   -0.5834   -2.4711   -2.3231 Cl  0  0  0  0  0  0  0  0  0  0  0  0
   -3.7872   -0.1830   -4.0066 C   0  0  0  0  0  2  0  0  0  0  0  0
   -4.7007    0.3817   -4.4345 O   0  0  0  0  0  1  0  0  0  0  0  0
   -1.2559   -0.8808   -4.9308 C   0  0  0  0  0  2  0  0  0  0  0  0
   -0.6161   -0.7166   -5.8674 O   0  0  0  0  0  1  0  0  0  0  0  0
   -1.4642    0.5146   -2.6388 C   0  0  0  0  0  2  0  0  0  0  0  0
   -0.9398    1.4675   -2.2777 O   0  0  0  0  0  1  0  0  0  0  0  0
   -3.1074   -3.1657   -3.8722 N   0  0  0  0  0  0  0  0  0  0  0  0
   -4.2471   -3.6516   -3.3403 N   0  0  1  0  0  0  0  0  0  0  0  0
   -4.4268   -4.9529   -3.6749 C   0  0  2  0  0  3  0  0  0  0  0  0
   -3.3525   -5.3001   -4.4591 C   0  0  0  0  0  0  0  0  0  0  0  0
   -3.1614   -6.2535   -4.9064 H   0  0  0  0  0  0  0  0  0  0  0  0
   -2.5481   -4.1528   -4.5571 C   0  0  0  0  0  0  0  0  0  0  0  0
   -5.5994   -5.7563   -3.2469 C   0  0  0  0  0  0  0  0  0  0  0  0
   -5.5282   -6.7481   -3.6841 H   0  0  0  0  0  0  0  0  0  0  0  0
   -6.5320   -5.3000   -3.5796 H   0  0  0  0  0  0  0  0  0  0  0  0
   -5.6319   -5.8641   -2.1625 H   0  0  0  0  0  0  0  0  0  0  0  0
   -1.2765   -4.0239   -5.3077 C   0  0  0  0  0  0  0  0  0  0  0  0
   -1.4030   -3.3520   -6.1559 H   0  0  0  0  0  0  0  0  0  0  0  0
   -0.9592   -4.9982   -5.6695 H   0  0  0  0  0  0  0  0  0  0  0  0
   -0.5026   -3.6120   -4.6611 H   0  0  0  0  0  0  0  0  0  0  0  0
   -5.0827   -2.8133   -2.5245 C   0  0  0  0  0  0  0  0  0  0  0  0
   -6.0012   -3.3489   -2.2807 H   0  0  0  0  0  0  0  0  0  0  0  0
   -5.3219   -1.8971   -3.0864 H   0  0  0  0  0  0  0  0  0  0  0  0
   -3.3336   -1.6336   -1.3445 N   0  0  0  0  0  0  0  0  0  0  0  0
   -4.4100   -2.4449   -1.3087 N   0  0  1  0  0  0  0  0  0  0  0  0
   -4.7068   -2.8068   -0.0363 C   0  0  1  0  0  3  0  0  0  0  0  0
   -3.7796   -2.1862    0.7664 C   0  0  0  0  0  0  0  0  0  0  0  0
   -3.7080   -2.2436    1.8329 H   0  0  0  0  0  0  0  0  0  0  0  0
   -2.9364   -1.4616   -0.0920 C   0  0  0  0  0  0  0  0  0  0  0  0
   -5.8396   -3.6971    0.3211 C   0  0  0  0  0  0  0  0  0  0  0  0
   -6.7884   -3.2917   -0.0312 H   0  0  0  0  0  0  0  0  0  0  0  0
   -5.8880   -3.7929    1.4020 H   0  0  0  0  0  0  0  0  0  0  0  0
   -5.7068   -4.6929   -0.1027 H   0  0  0  0  0  0  0  0  0  0  0  0
   -1.7851   -0.6153    0.3020 C   0  0  0  0  0  0  0  0  0  0  0  0
   -0.8970   -0.9121   -0.2545 H   0  0  0  0  0  0  0  0  0  0  0  0
   -1.5922   -0.7230    1.3659 H   0  0  0  0  0  0  0  0  0  0  0  0
   -1.9904    0.4313    0.0798 H   0  0  0  0  0  0  0  0  0  0  0  0
  1  7  1  0  0  0  0
  1  2  1  0  0  0  0
  1 26  1  0  0  0  0
  3  1  1  0  0  0  0
  4  3  1  0  0  0  0
  5  1  1  0  0  0  0
  6  5  1  0  0  0  0
  7  8  1  0  0  0  0
  9  1  1  0  0  0  0
 10  9  1  1  0  0  0
 10 23  1  0  0  0  0
 11 10  1  0  0  0  0
 11 15  1  6  0  0  0
 12 11  1  0  0  0  0
 13 12  1  0  0  0  0
 14 12  2  0  0  0  0
 14  9  1  0  0  0  0
 15 18  1  0  0  0  0
 16 15  1  0  0  0  0
 17 15  1  0  0  0  0
 19 22  1  0  0  0  0
 19 14  1  0  0  0  0
 20 19  1  0  0  0  0
 21 19  1  0  0  0  0
 23 24  1  0  0  0  0
 25 23  1  0  0  0  0
 26 27  1  0  0  0  0
 26 31  1  0  0  0  0
 27 23  1  1  0  0  0
 27 28  1  0  0  0  0
 28 32  1  1  0  0  0
 28 29  1  0  0  0  0
 29 30  1  0  0  0  0
 31 36  1  0  0  0  0
 31 29  2  0  0  0  0
 32 34  1  0  0  0  0
 33 32  1  0  0  0  0
 35 32  1  0  0  0  0
 36 38  1  0  0  0  0
 37 36  1  0  0  0  0
 39 36  1  0  0  0  0
M  END
$$$$
