CSD_code = VIYDIS | q = 1 | S = 0 | Stoichiometry = C27H23ClN5O2Ru(1+) | MND = 6
 OpenBabel04212202113D

 59 66  0  0  0  0  0  0  0  0999 V2000
    4.4393    5.5498    3.7282 Ru  0  0  0  0  0  0  0  0  0  0  0  0
    5.4106    7.6823    3.8545 Cl  0  0  0  0  0  0  0  0  0  0  0  0
    4.1153    5.6557    5.7100 N   0  0  0  0  0  0  0  0  0  0  0  0
    1.2320    0.3442    3.1459 O   0  0  0  0  0  0  0  0  0  0  0  0
    6.1230    4.9508    4.3167 N   0  0  0  0  0  0  0  0  0  0  0  0
    5.3188    5.3273    1.9329 N   0  0  0  0  0  0  0  0  0  0  0  0
   -1.0819    7.3721    1.7356 O   0  0  0  0  0  0  0  0  0  0  0  0
    5.5675    5.4665   -0.4358 C   0  0  0  0  0  0  0  0  0  0  0  0
    5.1170    5.6873   -1.3895 H   0  0  0  0  0  0  0  0  0  0  0  0
    3.4334    3.8133    3.5551 N   0  0  0  0  0  0  0  0  0  0  0  0
    6.3825    4.9475    5.6358 C   0  0  0  0  0  0  0  0  0  0  0  0
    2.6408    6.2037    3.0921 N   0  0  0  0  0  0  0  0  0  0  0  0
    2.1544    3.8955    3.1254 C   0  0  0  0  0  0  0  0  0  0  0  0
    1.0869    7.8863    2.4319 C   0  0  0  0  0  0  0  0  0  0  0  0
    0.8619    8.9270    2.2715 H   0  0  0  0  0  0  0  0  0  0  0  0
    5.2211    5.3413    6.4320 C   0  0  0  0  0  0  0  0  0  0  0  0
    3.9327    2.6035    3.8299 C   0  0  0  0  0  0  0  0  0  0  0  0
    4.9601    2.5733    4.1716 H   0  0  0  0  0  0  0  0  0  0  0  0
    1.7024    5.2610    2.8558 C   0  0  0  0  0  0  0  0  0  0  0  0
    4.8224    5.5741    0.7235 C   0  0  0  0  0  3  0  0  0  0  0  0
    3.7834    5.8812    0.6845 H   0  0  0  0  0  0  0  0  0  0  0  0
    1.8822    1.5035    3.2537 C   0  0  0  0  0  0  0  0  0  0  0  0
    5.2250    5.4315    7.8230 C   0  0  0  0  0  0  0  0  0  0  0  0
    6.1150    5.1794    8.3755 H   0  0  0  0  0  0  0  0  0  0  0  0
    0.4272    5.5870    2.3971 C   0  0  0  0  0  0  0  0  0  0  0  0
   -0.2930    4.8079    2.2171 H   0  0  0  0  0  0  0  0  0  0  0  0
    2.9664    6.1840    7.7329 C   0  0  0  0  0  0  0  0  0  0  0  0
    2.0620    6.5311    8.2052 H   0  0  0  0  0  0  0  0  0  0  0  0
    3.2150    1.4427    3.6988 C   0  0  0  0  0  0  0  0  0  0  0  0
    3.6489    0.4847    3.9295 H   0  0  0  0  0  0  0  0  0  0  0  0
    7.6611    4.6491    6.0984 C   0  0  0  0  0  0  0  0  0  0  0  0
    7.8808    4.6455    7.1528 H   0  0  0  0  0  0  0  0  0  0  0  0
    6.6205    4.9568    2.0377 C   0  0  0  0  0  0  0  0  0  0  0  0
    3.0277    6.0660    6.3571 C   0  0  0  0  0  0  0  0  0  0  0  0
    2.1712    6.3197    5.7429 H   0  0  0  0  0  0  0  0  0  0  0  0
    8.6613    4.3811    5.1748 C   0  0  0  0  0  0  0  0  0  0  0  0
    9.6584    4.1491    5.5125 H   0  0  0  0  0  0  0  0  0  0  0  0
    2.3205    7.4854    2.8804 C   0  0  0  0  0  0  0  0  0  0  0  0
    3.1054    8.2040    3.0856 H   0  0  0  0  0  0  0  0  0  0  0  0
    1.3600    2.7629    2.9663 C   0  0  0  0  0  0  0  0  0  0  0  0
    0.3457    2.8680    2.6225 H   0  0  0  0  0  0  0  0  0  0  0  0
    0.0967    6.9226    2.1743 C   0  0  0  0  0  0  0  0  0  0  0  0
   -2.1194    6.4566    1.4490 C   0  0  0  0  0  0  0  0  0  0  0  0
   -2.4143    5.8966    2.3408 H   0  0  0  0  0  0  0  0  0  0  0  0
   -1.8306    5.7644    0.6531 H   0  0  0  0  0  0  0  0  0  0  0  0
   -2.9575    7.0628    1.1118 H   0  0  0  0  0  0  0  0  0  0  0  0
    7.0925    4.7531    3.4065 C   0  0  0  0  0  0  0  0  0  0  0  0
    4.0890    5.8588    8.4835 C   0  0  0  0  0  0  0  0  0  0  0  0
    4.0786    5.9448    9.5584 H   0  0  0  0  0  0  0  0  0  0  0  0
    6.8986    5.0808   -0.3426 C   0  0  0  0  0  0  0  0  0  0  0  0
    7.5107    4.9913   -1.2258 H   0  0  0  0  0  0  0  0  0  0  0  0
    7.4261    4.8224    0.9082 C   0  0  0  0  0  0  0  0  0  0  0  0
    8.4573    4.5291    1.0153 H   0  0  0  0  0  0  0  0  0  0  0  0
   -0.1117    0.3320    2.7051 C   0  0  0  0  0  0  0  0  0  0  0  0
   -0.7583    0.8923    3.3858 H   0  0  0  0  0  0  0  0  0  0  0  0
   -0.4088   -0.7146    2.7063 H   0  0  0  0  0  0  0  0  0  0  0  0
   -0.2009    0.7322    1.6915 H   0  0  0  0  0  0  0  0  0  0  0  0
    8.3880    4.4505    3.8161 C   0  0  0  0  0  0  0  0  0  0  0  0
    9.1731    4.2925    3.0958 H   0  0  0  0  0  0  0  0  0  0  0  0
  1  2  1  0  0  0  0
  1  5  1  0  0  0  0
  1  3  1  0  0  0  0
  3 34  1  0  0  0  0
  3 16  1  0  0  0  0
  4 22  1  0  0  0  0
  5 11  1  0  0  0  0
  6 33  1  0  0  0  0
  6  1  1  0  0  0  0
  7 42  1  0  0  0  0
  8 50  2  0  0  0  0
  8 20  1  0  0  0  0
  9  8  1  0  0  0  0
 10  1  1  0  0  0  0
 10 17  1  0  0  0  0
 11 31  1  0  0  0  0
 11 16  2  0  0  0  0
 12  1  1  0  0  0  0
 13 10  1  0  0  0  0
 14 38  2  0  0  0  0
 15 14  1  0  0  0  0
 16 23  1  0  0  0  0
 17 18  1  0  0  0  0
 19 12  1  0  0  0  0
 19 13  2  0  0  0  0
 20  6  1  0  0  0  0
 21 20  1  0  0  0  0
 22 29  1  0  0  0  0
 23 24  1  0  0  0  0
 23 48  2  0  0  0  0
 25 19  1  0  0  0  0
 26 25  1  0  0  0  0
 27 28  1  0  0  0  0
 27 48  1  0  0  0  0
 29 17  2  0  0  0  0
 29 30  1  0  0  0  0
 31 32  1  0  0  0  0
 33 47  1  0  0  0  0
 34 27  2  0  0  0  0
 35 34  1  0  0  0  0
 36 37  1  0  0  0  0
 36 31  2  0  0  0  0
 38 39  1  0  0  0  0
 38 12  1  0  0  0  0
 40 13  1  0  0  0  0
 40 22  2  0  0  0  0
 41 40  1  0  0  0  0
 42 25  2  0  0  0  0
 42 14  1  0  0  0  0
 43  7  1  0  0  0  0
 43 44  1  0  0  0  0
 45 43  1  0  0  0  0
 46 43  1  0  0  0  0
 47 58  2  0  0  0  0
 47  5  1  0  0  0  0
 48 49  1  0  0  0  0
 50 52  1  0  0  0  0
 51 50  1  0  0  0  0
 52 53  1  0  0  0  0
 52 33  2  0  0  0  0
 54 56  1  0  0  0  0
 54  4  1  0  0  0  0
 54 55  1  0  0  0  0
 57 54  1  0  0  0  0
 58 36  1  0  0  0  0
 59 58  1  0  0  0  0
M  END
$$$$
