CSD_code = VIYVUX | q = 0 | S = 0 | Stoichiometry = C15H16ClIrN2O2 | MND = 4
 OpenBabel04212202113D

 37 38  0  0  0  0  0  0  0  0999 V2000
   10.1679    8.8406    1.9124 N   0  0  0  0  0  0  0  0  0  0  0  0
   10.0894    7.0076    3.0166 N   0  0  0  0  0  0  0  0  0  0  0  0
    4.4580    8.9092    3.4172 O   0  0  0  0  0  1  0  0  0  0  0  0
    8.0387    8.4545    6.2384 O   0  0  0  0  0  1  0  0  0  0  0  0
    5.5892    8.7464    3.4681 C   0  0  0  0  0  2  0  0  0  0  0  0
    7.8101    8.4710    5.1062 C   0  0  0  0  0  2  0  0  0  0  0  0
    9.3981    8.1383    2.7630 C   0  0  0  0  0  0  0  0  0  0  0  0
   11.3168    8.1566    1.6269 C   0  0  0  0  0  0  0  0  0  0  0  0
   12.0619    8.5410    0.9612 H   0  0  0  0  0  0  0  0  0  0  0  0
   11.2708    6.9989    2.3281 C   0  0  0  0  0  0  0  0  0  0  0  0
   11.9621    6.1834    2.3882 H   0  0  0  0  0  0  0  0  0  0  0  0
    9.8307   10.1209    1.3539 C   0  0  0  0  0  0  0  0  0  0  0  0
    9.4679   10.0034    0.3310 H   0  0  0  0  0  0  0  0  0  0  0  0
   10.7055   10.7718    1.3565 H   0  0  0  0  0  0  0  0  0  0  0  0
    9.0346   10.5682    1.9507 H   0  0  0  0  0  0  0  0  0  0  0  0
    9.6744    6.0016    3.9332 C   0  0  0  0  0  0  0  0  0  0  0  0
    8.7681    5.0231    3.5238 C   0  0  0  0  0  0  0  0  0  0  0  0
    8.3788    4.0653    4.4472 C   0  0  0  0  0  0  0  0  0  0  0  0
    7.6730    3.3044    4.1478 H   0  0  0  0  0  0  0  0  0  0  0  0
    8.8691    4.0646    5.7457 C   0  0  0  0  0  0  0  0  0  0  0  0
    9.7773    5.0448    6.1189 C   0  0  0  0  0  0  0  0  0  0  0  0
   10.1650    5.0546    7.1269 H   0  0  0  0  0  0  0  0  0  0  0  0
   10.1925    6.0220    5.2281 C   0  0  0  0  0  0  0  0  0  0  0  0
    8.2326    5.0182    2.1273 C   0  0  0  0  0  0  0  0  0  0  0  0
    7.6183    5.9051    1.9575 H   0  0  0  0  0  0  0  0  0  0  0  0
    7.6199    4.1385    1.9524 H   0  0  0  0  0  0  0  0  0  0  0  0
    9.0422    5.0346    1.3980 H   0  0  0  0  0  0  0  0  0  0  0  0
    8.4384    3.0077    6.7154 C   0  0  0  0  0  0  0  0  0  0  0  0
    7.3802    2.7863    6.5973 H   0  0  0  0  0  0  0  0  0  0  0  0
    8.6218    3.3211    7.7397 H   0  0  0  0  0  0  0  0  0  0  0  0
    8.9951    2.0876    6.5351 H   0  0  0  0  0  0  0  0  0  0  0  0
   11.1665    7.0834    5.6417 C   0  0  0  0  0  0  0  0  0  0  0  0
   12.1058    6.9811    5.0977 H   0  0  0  0  0  0  0  0  0  0  0  0
   11.3751    7.0126    6.7053 H   0  0  0  0  0  0  0  0  0  0  0  0
   10.7629    8.0733    5.4329 H   0  0  0  0  0  0  0  0  0  0  0  0
    6.9965    8.4165    1.0567 Cl  0  0  0  0  0  0  0  0  0  0  0  0
    7.4353    8.4695    3.2948 Ir  0  0  0  0  0  0  0  0  0  0  0  0
  1  7  1  0  0  0  0
  2 16  1  0  0  0  0
  3  5  1  0  0  0  0
  6  4  1  0  0  0  0
  7  2  1  0  0  0  0
  7 37  2  0  0  0  0
  8  1  1  0  0  0  0
  8 10  2  0  0  0  0
  9  8  1  0  0  0  0
 10 11  1  0  0  0  0
 10  2  1  0  0  0  0
 12 14  1  0  0  0  0
 12  1  1  0  0  0  0
 12 15  1  0  0  0  0
 13 12  1  0  0  0  0
 16 23  1  0  0  0  0
 17 16  2  0  0  0  0
 17 18  1  0  0  0  0
 18 20  2  0  0  0  0
 19 18  1  0  0  0  0
 20 21  1  0  0  0  0
 20 28  1  0  0  0  0
 21 22  1  0  0  0  0
 23 32  1  0  0  0  0
 23 21  2  0  0  0  0
 24 17  1  0  0  0  0
 25 24  1  0  0  0  0
 26 24  1  0  0  0  0
 27 24  1  0  0  0  0
 28 30  1  0  0  0  0
 29 28  1  0  0  0  0
 31 28  1  0  0  0  0
 32 34  1  0  0  0  0
 33 32  1  0  0  0  0
 35 32  1  0  0  0  0
 36 37  1  0  0  0  0
 37  5  1  0  0  0  0
 37  6  1  0  0  0  0
M  END
$$$$
