CSD_code = VIZHOB | q = 0 | S = 0 | Stoichiometry = C24H26Cl2O2Ti | MND = 4
 OpenBabel04212202113D

 55 58  0  0  1  0  0  0  0  0999 V2000
    5.6462    1.0842    7.3286 Ti  0  0  0  0  0  0  0  0  0  0  0  0
    5.9288   -1.0571    7.5726 Cl  0  0  0  0  0  0  0  0  0  0  0  0
    4.6498    1.1129    5.3879 Cl  0  0  0  0  0  0  0  0  0  0  0  0
    4.4550    1.5088    8.4240 O   0  0  0  0  0  0  0  0  0  0  0  0
    7.1695    1.7089    7.0318 O   0  0  0  0  0  0  0  0  0  0  0  0
    4.2110    2.3268    9.5078 C   0  0  1  0  0  0  0  0  0  0  0  0
    5.5917    2.6524   10.1836 C   0  0  2  0  0  0  0  0  0  0  0  0
    6.4954    3.5304    9.3311 C   0  0  0  0  0  0  0  0  0  0  0  0
    7.8062    2.8113    9.0497 C   0  0  2  0  0  0  0  0  0  0  0  0
    7.5641    1.4383    9.6553 C   0  0  0  0  0  0  0  0  0  0  0  0
    6.3770    1.3535   10.2647 C   0  0  0  0  0  0  0  0  0  0  0  0
    6.2487    4.7962    9.0259 C   0  0  0  0  0  0  0  0  0  0  0  0
    8.9658    3.5373    9.7408 C   0  0  0  0  0  0  0  0  0  0  0  0
    8.5846    0.3488    9.5534 C   0  0  0  0  0  0  0  0  0  0  0  0
    5.8306    0.1516   10.9693 C   0  0  0  0  0  0  0  0  0  0  0  0
    5.3948    3.2827   11.5667 C   0  0  0  0  0  0  0  0  0  0  0  0
    8.0961    2.6075    7.5191 C   0  0  2  0  0  0  0  0  0  0  0  0
    3.4296    3.5551    9.0934 C   0  0  0  0  0  0  0  0  0  0  0  0
    2.6398    4.2447   10.0064 C   0  0  0  0  0  0  0  0  0  0  0  0
    1.9443    5.3746    9.6127 C   0  0  0  0  0  0  0  0  0  0  0  0
    2.0162    5.8166    8.3022 C   0  0  0  0  0  0  0  0  0  0  0  0
    2.7752    5.1147    7.3806 C   0  0  0  0  0  0  0  0  0  0  0  0
    3.4778    3.9896    7.7735 C   0  0  0  0  0  0  0  0  0  0  0  0
    8.0786    3.8912    6.7170 C   0  0  0  0  0  0  0  0  0  0  0  0
    9.1944    4.7187    6.6628 C   0  0  0  0  0  0  0  0  0  0  0  0
    9.1550    5.8953    5.9350 C   0  0  0  0  0  0  0  0  0  0  0  0
    8.0097    6.2486    5.2413 C   0  0  0  0  0  0  0  0  0  0  0  0
    6.9062    5.4120    5.2652 C   0  0  0  0  0  0  0  0  0  0  0  0
    6.9403    4.2393    5.9984 C   0  0  0  0  0  0  0  0  0  0  0  0
    3.6086    1.7644   10.2459 H   0  0  0  0  0  0  0  0  0  0  0  0
    6.9526    5.4005    8.4807 H   0  0  0  0  0  0  0  0  0  0  0  0
    5.3335    5.2854    9.3102 H   0  0  0  0  0  0  0  0  0  0  0  0
    8.7938    3.5576   10.8146 H   0  0  0  0  0  0  0  0  0  0  0  0
    9.0386    4.5608    9.3849 H   0  0  0  0  0  0  0  0  0  0  0  0
    9.9101    3.0319    9.5525 H   0  0  0  0  0  0  0  0  0  0  0  0
    8.5718   -0.2731   10.4467 H   0  0  0  0  0  0  0  0  0  0  0  0
    9.5851    0.7566    9.4266 H   0  0  0  0  0  0  0  0  0  0  0  0
    8.3575   -0.2939    8.6976 H   0  0  0  0  0  0  0  0  0  0  0  0
    6.6254   -0.3845   11.4849 H   0  0  0  0  0  0  0  0  0  0  0  0
    5.0720    0.4315   11.6964 H   0  0  0  0  0  0  0  0  0  0  0  0
    5.3835   -0.5334   10.2431 H   0  0  0  0  0  0  0  0  0  0  0  0
    4.9380    4.2638   11.4747 H   0  0  0  0  0  0  0  0  0  0  0  0
    6.3598    3.3967   12.0553 H   0  0  0  0  0  0  0  0  0  0  0  0
    4.7627    2.6583   12.1935 H   0  0  0  0  0  0  0  0  0  0  0  0
    9.1032    2.1577    7.4329 H   0  0  0  0  0  0  0  0  0  0  0  0
    2.5590    3.8930   11.0245 H   0  0  0  0  0  0  0  0  0  0  0  0
    1.3367    5.9063   10.3301 H   0  0  0  0  0  0  0  0  0  0  0  0
    1.4701    6.6969    7.9978 H   0  0  0  0  0  0  0  0  0  0  0  0
    2.8178    5.4407    6.3523 H   0  0  0  0  0  0  0  0  0  0  0  0
    4.0573    3.4198    7.0508 H   0  0  0  0  0  0  0  0  0  0  0  0
   10.1000    4.4393    7.1810 H   0  0  0  0  0  0  0  0  0  0  0  0
   10.0256    6.5338    5.9024 H   0  0  0  0  0  0  0  0  0  0  0  0
    7.9835    7.1656    4.6721 H   0  0  0  0  0  0  0  0  0  0  0  0
    6.0179    5.6698    4.7086 H   0  0  0  0  0  0  0  0  0  0  0  0
    6.0866    3.5657    6.0023 H   0  0  0  0  0  0  0  0  0  0  0  0
  1  2  1  0  0  0  0
  1  4  1  0  0  0  0
  3  1  1  0  0  0  0
  4  6  1  0  0  0  0
  5  1  1  0  0  0  0
  5 17  1  0  0  0  0
  6  7  1  0  0  0  0
  6 30  1  1  0  0  0
  7 11  1  0  0  0  0
  7 16  1  1  0  0  0
  8  7  1  0  0  0  0
  9  8  1  0  0  0  0
  9 10  1  0  0  0  0
  9 13  1  1  0  0  0
 10 11  2  0  0  0  0
 11 15  1  0  0  0  0
 12 32  1  0  0  0  0
 12  8  2  0  0  0  0
 13 33  1  0  0  0  0
 14 10  1  0  0  0  0
 14 36  1  0  0  0  0
 15 39  1  0  0  0  0
 15 40  1  0  0  0  0
 16 43  1  0  0  0  0
 16 44  1  0  0  0  0
 17 45  1  6  0  0  0
 17  9  1  0  0  0  0
 18  6  1  0  0  0  0
 18 19  1  0  0  0  0
 19 46  1  0  0  0  0
 20 19  2  0  0  0  0
 20 47  1  0  0  0  0
 21 20  1  0  0  0  0
 22 23  1  0  0  0  0
 22 21  2  0  0  0  0
 23 18  2  0  0  0  0
 24 17  1  0  0  0  0
 25 24  1  0  0  0  0
 25 51  1  0  0  0  0
 26 25  2  0  0  0  0
 27 28  2  0  0  0  0
 27 26  1  0  0  0  0
 28 29  1  0  0  0  0
 29 55  1  0  0  0  0
 29 24  2  0  0  0  0
 31 12  1  0  0  0  0
 34 13  1  0  0  0  0
 35 13  1  0  0  0  0
 37 14  1  0  0  0  0
 38 14  1  0  0  0  0
 41 15  1  0  0  0  0
 42 16  1  0  0  0  0
 48 21  1  0  0  0  0
 49 22  1  0  0  0  0
 50 23  1  0  0  0  0
 52 26  1  0  0  0  0
 53 27  1  0  0  0  0
 54 28  1  0  0  0  0
M  END
$$$$
