CSD_code = VIZNOI | q = 0 | S = 0 | Stoichiometry = C34H26Cl3NOPRe | MND = 6
 OpenBabel04212202113D

 67 73  0  0  1  0  0  0  0  0999 V2000
    1.7119   13.1929    0.8051 Re  0  0  0  0  0  0  0  0  0  0  0  0
   -0.6857   13.7096    0.8848 P   0  0  0  0  0  4  0  0  0  0  0  0
    4.0034   12.8406    0.8206 Cl  0  0  0  0  0  0  0  0  0  0  0  0
    1.7058   13.5070    3.0582 Cl  0  0  0  0  0  0  0  0  0  0  0  0
    2.0350   15.3871    0.2637 Cl  0  0  0  0  0  0  0  0  0  0  0  0
    1.3553   11.2383    0.8859 O   0  0  0  0  0  0  0  0  0  0  0  0
    1.6202   12.5727   -1.1774 N   0  0  0  0  0  0  0  0  0  0  0  0
   -1.4336   13.4254   -0.7510 C   0  0  0  0  0  0  0  0  0  0  0  0
   -1.6372   12.7170    2.0705 C   0  0  0  0  0  0  0  0  0  0  0  0
    1.1830   10.5514   -0.1704 C   0  0  2  0  0  3  0  0  0  0  0  0
    1.1668    9.0889   -0.0529 C   0  0  0  0  0  0  0  0  0  0  0  0
   -1.1629   15.4172    1.2736 C   0  0  0  0  0  0  0  0  0  0  0  0
   -1.6434   11.3296    1.9385 C   0  0  0  0  0  0  0  0  0  0  0  0
   -1.1145   10.8679    1.1169 H   0  0  0  0  0  0  0  0  0  0  0  0
   -2.3283   12.4072   -1.0548 C   0  0  0  0  0  0  0  0  0  0  0  0
   -2.7219   11.7755   -0.2721 H   0  0  0  0  0  0  0  0  0  0  0  0
    1.1632   11.3118   -1.3893 C   0  0  0  0  0  0  0  0  0  0  0  0
   -2.2904   13.3030    3.1497 C   0  0  0  0  0  0  0  0  0  0  0  0
   -2.2741   14.3757    3.2724 H   0  0  0  0  0  0  0  0  0  0  0  0
    0.7098    8.5104    1.1331 C   0  0  0  0  0  0  0  0  0  0  0  0
    0.3365    9.1482    1.9202 H   0  0  0  0  0  0  0  0  0  0  0  0
    0.7455    7.1398    1.3007 C   0  0  0  0  0  0  0  0  0  0  0  0
    0.3821    6.7026    2.2188 H   0  0  0  0  0  0  0  0  0  0  0  0
   -0.9616   14.2536   -1.7709 C   0  0  0  0  0  0  0  0  0  0  0  0
   -0.2667   15.0462   -1.5223 H   0  0  0  0  0  0  0  0  0  0  0  0
    0.5455   11.3817   -5.0610 C   0  0  0  0  0  0  0  0  0  0  0  0
    0.8071   12.0128   -5.8974 H   0  0  0  0  0  0  0  0  0  0  0  0
    0.6826   10.9098   -2.6731 C   0  0  0  0  0  0  0  0  0  0  0  0
    1.9277   13.3356   -2.2439 C   0  0  0  0  0  0  0  0  0  0  0  0
    2.3755   14.2919   -2.0136 H   0  0  0  0  0  0  0  0  0  0  0  0
    1.7032   12.9406   -3.5278 C   0  0  0  0  0  0  0  0  0  0  0  0
    2.0053   13.5681   -4.3505 H   0  0  0  0  0  0  0  0  0  0  0  0
   -2.2622   16.0131    0.6635 C   0  0  0  0  0  0  0  0  0  0  0  0
   -2.8352   15.4685   -0.0739 H   0  0  0  0  0  0  0  0  0  0  0  0
    0.9930   11.7406   -3.7794 C   0  0  2  0  0  3  0  0  0  0  0  0
   -2.7299   12.2096   -2.3656 C   0  0  0  0  0  0  0  0  0  0  0  0
   -3.4196   11.4116   -2.5976 H   0  0  0  0  0  0  0  0  0  0  0  0
   -0.1512    9.7975   -2.8775 C   0  0  0  0  0  0  0  0  0  0  0  0
   -0.4577    9.2007   -2.0334 H   0  0  0  0  0  0  0  0  0  0  0  0
   -2.3127   10.5439    2.8572 C   0  0  0  0  0  0  0  0  0  0  0  0
   -2.3161    9.4690    2.7452 H   0  0  0  0  0  0  0  0  0  0  0  0
    1.7106    8.2679   -1.0431 C   0  0  0  0  0  0  0  0  0  0  0  0
    2.1222    8.7076   -1.9386 H   0  0  0  0  0  0  0  0  0  0  0  0
    1.7487    6.8992   -0.8641 C   0  0  0  0  0  0  0  0  0  0  0  0
    2.1750    6.2729   -1.6334 H   0  0  0  0  0  0  0  0  0  0  0  0
   -0.5981    9.4865   -4.1368 C   0  0  0  0  0  0  0  0  0  0  0  0
   -1.2446    8.6338   -4.2803 H   0  0  0  0  0  0  0  0  0  0  0  0
   -2.6186   17.3061    1.0016 C   0  0  0  0  0  0  0  0  0  0  0  0
   -3.4704   17.7681    0.5243 H   0  0  0  0  0  0  0  0  0  0  0  0
   -1.3770   14.0592   -3.0732 C   0  0  0  0  0  0  0  0  0  0  0  0
   -1.0115   14.7062   -3.8565 H   0  0  0  0  0  0  0  0  0  0  0  0
   -2.9703   11.1338    3.9248 C   0  0  0  0  0  0  0  0  0  0  0  0
   -3.4865   10.5192    4.6471 H   0  0  0  0  0  0  0  0  0  0  0  0
   -2.2527   13.0273   -3.3749 C   0  0  0  0  0  0  0  0  0  0  0  0
   -2.5645   12.8630   -4.3954 H   0  0  0  0  0  0  0  0  0  0  0  0
    1.2561    6.3292    0.2999 C   0  0  0  0  0  0  0  0  0  0  0  0
    1.2859    5.2582    0.4323 H   0  0  0  0  0  0  0  0  0  0  0  0
   -2.9544   12.5107    4.0694 C   0  0  0  0  0  0  0  0  0  0  0  0
   -3.4570   12.9718    4.9065 H   0  0  0  0  0  0  0  0  0  0  0  0
   -1.8872   18.0067    1.9468 C   0  0  0  0  0  0  0  0  0  0  0  0
   -2.1670   19.0178    2.2029 H   0  0  0  0  0  0  0  0  0  0  0  0
   -0.2307   10.2660   -5.2384 C   0  0  0  0  0  0  0  0  0  0  0  0
   -0.5784    9.9948   -6.2239 H   0  0  0  0  0  0  0  0  0  0  0  0
   -0.4346   16.1185    2.2310 C   0  0  0  0  0  0  0  0  0  0  0  0
    0.4112   15.6453    2.7111 H   0  0  0  0  0  0  0  0  0  0  0  0
   -0.7987   17.4106    2.5629 C   0  0  0  0  0  0  0  0  0  0  0  0
   -0.2291   17.9540    3.3014 H   0  0  0  0  0  0  0  0  0  0  0  0
  1  3  1  0  0  0  0
  1  2  1  0  0  0  0
  1  6  1  0  0  0  0
  1  4  1  0  0  0  0
  2 12  1  0  0  0  0
  2  9  1  0  0  0  0
  5  1  1  0  0  0  0
  7  1  1  0  0  0  0
  8  2  1  0  0  0  0
  9 18  1  0  0  0  0
 10 11  1  6  0  0  0
 10  6  1  0  0  0  0
 11 20  1  0  0  0  0
 12 64  1  0  0  0  0
 13  9  2  0  0  0  0
 13 40  1  0  0  0  0
 14 13  1  0  0  0  0
 15  8  1  0  0  0  0
 15 16  1  0  0  0  0
 17  7  1  0  0  0  0
 17 10  1  0  0  0  0
 18 19  1  0  0  0  0
 18 58  2  0  0  0  0
 20 22  2  0  0  0  0
 20 21  1  0  0  0  0
 22 23  1  0  0  0  0
 24 25  1  0  0  0  0
 24  8  2  0  0  0  0
 27 26  1  0  0  0  0
 28 17  2  0  0  0  0
 29 30  1  0  0  0  0
 29  7  1  0  0  0  0
 31 29  2  0  0  0  0
 32 31  1  0  0  0  0
 33 48  1  0  0  0  0
 33 12  2  0  0  0  0
 34 33  1  0  0  0  0
 35 26  1  1  0  0  0
 35 31  1  0  0  0  0
 35 28  1  0  0  0  0
 36 15  2  0  0  0  0
 37 36  1  0  0  0  0
 38 28  1  0  0  0  0
 38 39  1  0  0  0  0
 40 52  2  0  0  0  0
 41 40  1  0  0  0  0
 42 44  1  0  0  0  0
 42 11  2  0  0  0  0
 43 42  1  0  0  0  0
 44 56  2  0  0  0  0
 45 44  1  0  0  0  0
 46 38  2  0  0  0  0
 47 46  1  0  0  0  0
 48 60  2  0  0  0  0
 49 48  1  0  0  0  0
 50 24  1  0  0  0  0
 51 50  1  0  0  0  0
 52 58  1  0  0  0  0
 52 53  1  0  0  0  0
 54 50  2  0  0  0  0
 54 36  1  0  0  0  0
 55 54  1  0  0  0  0
 56 57  1  0  0  0  0
 56 22  1  0  0  0  0
 58 59  1  0  0  0  0
 60 61  1  0  0  0  0
 60 66  1  0  0  0  0
 62 26  2  0  0  0  0
 62 46  1  0  0  0  0
 63 62  1  0  0  0  0
 64 66  2  0  0  0  0
 64 65  1  0  0  0  0
 66 67  1  0  0  0  0
M  END
$$$$
