CSD_code = VIZPIG | q = 0 | S = 0 | Stoichiometry = C34H29Br3OP2Pd | MND = 4
 OpenBabel04212202113D

 70 73  0  0  1  0  0  0  0  0999 V2000
    8.9860   13.2087   11.2481 Pd  0  0  0  0  0  0  0  0  0  0  0  0
   10.8278   13.6334    9.7531 Br  0  0  0  0  0 15  0  0  0  0  0  0
    7.4632   14.0149    9.5137 Br  0  0  0  0  0 15  0  0  0  0  0  0
    8.0998    9.6579    7.3005 Br  0  0  0  0  0  0  0  0  0  0  0  0
   10.5570   13.1518   12.9292 P   0  0  0  0  0  4  0  0  0  0  0  0
    7.2505   12.9650   13.9462 P   0  0  0  0  0  4  0  0  0  0  0  0
    8.7666   11.2922   13.5617 O   0  0  0  0  0  0  0  0  0  0  0  0
    7.3021   12.3947   12.2632 C   0  0  2  0  0  0  0  0  0  0  0  0
    6.4047   12.4189   11.6483 H   0  0  0  0  0  0  0  0  0  0  0  0
    8.2572   11.3464   12.3882 C   0  0  0  0  0  0  0  0  0  0  0  0
    8.6442   10.3651   11.3589 C   0  0  0  0  0  0  0  0  0  0  0  0
    8.2256   10.4708   10.0260 C   0  0  0  0  0  0  0  0  0  0  0  0
    7.5317   11.2390    9.6986 H   0  0  0  0  0  0  0  0  0  0  0  0
    8.6844    9.5434    9.1070 C   0  0  0  0  0  0  0  0  0  0  0  0
    9.5454    8.5192    9.4751 C   0  0  0  0  0  0  0  0  0  0  0  0
    9.8959    7.8183    8.7334 H   0  0  0  0  0  0  0  0  0  0  0  0
    9.9357    8.4078   10.7982 C   0  0  0  0  0  0  0  0  0  0  0  0
   10.5958    7.6078   11.0965 H   0  0  0  0  0  0  0  0  0  0  0  0
    9.4881    9.3177   11.7368 C   0  0  0  0  0  0  0  0  0  0  0  0
    9.7855    9.2474   12.7723 H   0  0  0  0  0  0  0  0  0  0  0  0
    6.6038   11.7419   15.1058 C   0  0  0  0  0  0  0  0  0  0  0  0
    7.1957   11.4643   16.3294 C   0  0  0  0  0  0  0  0  0  0  0  0
    8.0867   11.9913   16.6360 H   0  0  0  0  0  0  0  0  0  0  0  0
    6.6400   10.4999   17.1515 C   0  0  0  0  0  0  0  0  0  0  0  0
    7.0978   10.2800   18.1048 H   0  0  0  0  0  0  0  0  0  0  0  0
    5.5035    9.8139   16.7549 C   0  0  0  0  0  0  0  0  0  0  0  0
    5.0767    9.0607   17.4000 H   0  0  0  0  0  0  0  0  0  0  0  0
    4.9147   10.0902   15.5309 C   0  0  0  0  0  0  0  0  0  0  0  0
    4.0294    9.5552   15.2212 H   0  0  0  0  0  0  0  0  0  0  0  0
    5.4637   11.0530   14.7050 C   0  0  0  0  0  0  0  0  0  0  0  0
    5.0120   11.2839   13.7485 H   0  0  0  0  0  0  0  0  0  0  0  0
    5.9852   14.2748   13.8806 C   0  0  0  0  0  0  0  0  0  0  0  0
    4.9331   14.3726   14.7813 C   0  0  0  0  0  0  0  0  0  0  0  0
    4.8299   13.6394   15.5698 H   0  0  0  0  0  0  0  0  0  0  0  0
    4.0166   15.4029   14.6611 C   0  0  0  0  0  0  0  0  0  0  0  0
    3.1967   15.4738   15.3605 H   0  0  0  0  0  0  0  0  0  0  0  0
    4.1462   16.3364   13.6459 C   0  0  0  0  0  0  0  0  0  0  0  0
    3.4228   17.1322   13.5513 H   0  0  0  0  0  0  0  0  0  0  0  0
    5.2008   16.2501   12.7506 C   0  0  0  0  0  0  0  0  0  0  0  0
    5.3031   16.9722   11.9552 H   0  0  0  0  0  0  0  0  0  0  0  0
    6.1203   15.2267   12.8724 C   0  0  0  0  0  0  0  0  0  0  0  0
    6.9459   15.1549   12.1660 H   0  0  0  0  0  0  0  0  0  0  0  0
    8.6075   13.9683   14.6801 C   0  0  0  0  0  0  0  0  0  0  0  0
    8.6152   14.9049   14.1018 H   0  0  0  0  0  0  0  0  0  0  0  0
    8.2534   14.2095   15.6915 H   0  0  0  0  0  0  0  0  0  0  0  0
    9.9947   13.3518   14.6921 C   0  0  0  0  0  0  0  0  0  0  0  0
    9.9876   12.3796   15.1832 H   0  0  0  0  0  0  0  0  0  0  0  0
   10.6920   14.0269   15.2014 H   0  0  0  0  0  0  0  0  0  0  0  0
   11.4557   14.7382   12.7913 C   0  0  0  0  0  0  0  0  0  0  0  0
   10.7169   15.8266   12.3304 C   0  0  0  0  0  0  0  0  0  0  0  0
    9.6805   15.6823   11.9984 H   0  0  0  0  0  0  0  0  0  0  0  0
   11.2999   17.0750   12.2363 C   0  0  0  0  0  0  0  0  0  0  0  0
   10.7269   17.9128   11.8683 H   0  0  0  0  0  0  0  0  0  0  0  0
   12.6286   17.2412   12.5947 C   0  0  0  0  0  0  0  0  0  0  0  0
   13.0909   18.2131   12.5094 H   0  0  0  0  0  0  0  0  0  0  0  0
   13.3691   16.1603   13.0418 C   0  0  0  0  0  0  0  0  0  0  0  0
   14.4092   16.2884   13.3034 H   0  0  0  0  0  0  0  0  0  0  0  0
   12.7865   14.9088   13.1453 C   0  0  0  0  0  0  0  0  0  0  0  0
   13.3699   14.0617   13.4783 H   0  0  0  0  0  0  0  0  0  0  0  0
   11.8178   11.8566   13.0213 C   0  0  0  0  0  0  0  0  0  0  0  0
   12.5492   11.6267   14.1841 C   0  0  0  0  0  0  0  0  0  0  0  0
   12.3843   12.2316   15.0641 H   0  0  0  0  0  0  0  0  0  0  0  0
   13.4969   10.6204   14.2132 C   0  0  0  0  0  0  0  0  0  0  0  0
   14.0653   10.4473   15.1157 H   0  0  0  0  0  0  0  0  0  0  0  0
   13.7198    9.8362   13.0923 C   0  0  0  0  0  0  0  0  0  0  0  0
   14.4611    9.0515   13.1233 H   0  0  0  0  0  0  0  0  0  0  0  0
   12.9924   10.0600   11.9360 C   0  0  0  0  0  0  0  0  0  0  0  0
   13.1621    9.4532   11.0593 H   0  0  0  0  0  0  0  0  0  0  0  0
   12.0434   11.0655   11.8997 C   0  0  0  0  0  0  0  0  0  0  0  0
   11.4792   11.2384   10.9914 H   0  0  0  0  0  0  0  0  0  0  0  0
  1  8  1  0  0  0  0
  1  5  1  0  0  0  0
  4 14  1  0  0  0  0
  5 60  1  0  0  0  0
  5 46  1  0  0  0  0
  6 43  1  0  0  0  0
  6 21  1  0  0  0  0
  8  9  1  6  0  0  0
  8 10  1  0  0  0  0
  8  6  1  0  0  0  0
 10  7  2  0  0  0  0
 11 19  1  0  0  0  0
 11 10  1  0  0  0  0
 12 11  2  0  0  0  0
 13 12  1  0  0  0  0
 14 15  2  0  0  0  0
 14 12  1  0  0  0  0
 15 17  1  0  0  0  0
 16 15  1  0  0  0  0
 17 18  1  0  0  0  0
 17 19  2  0  0  0  0
 19 20  1  0  0  0  0
 21 22  1  0  0  0  0
 22 23  1  0  0  0  0
 22 24  2  0  0  0  0
 24 25  1  0  0  0  0
 26 24  1  0  0  0  0
 26 27  1  0  0  0  0
 28 26  2  0  0  0  0
 29 28  1  0  0  0  0
 30 21  2  0  0  0  0
 30 28  1  0  0  0  0
 31 30  1  0  0  0  0
 32  6  1  0  0  0  0
 32 33  1  0  0  0  0
 33 34  1  0  0  0  0
 35 33  2  0  0  0  0
 35 36  1  0  0  0  0
 37 35  1  0  0  0  0
 38 37  1  0  0  0  0
 39 41  1  0  0  0  0
 39 37  2  0  0  0  0
 40 39  1  0  0  0  0
 41 32  2  0  0  0  0
 42 41  1  0  0  0  0
 43 46  1  0  0  0  0
 43 45  1  0  0  0  0
 44 43  1  0  0  0  0
 46 47  1  0  0  0  0
 46 48  1  0  0  0  0
 49  5  1  0  0  0  0
 49 58  1  0  0  0  0
 50 49  2  0  0  0  0
 51 50  1  0  0  0  0
 52 50  1  0  0  0  0
 52 54  2  0  0  0  0
 53 52  1  0  0  0  0
 54 56  1  0  0  0  0
 55 54  1  0  0  0  0
 56 58  2  0  0  0  0
 56 57  1  0  0  0  0
 58 59  1  0  0  0  0
 60 61  1  0  0  0  0
 61 63  2  0  0  0  0
 61 62  1  0  0  0  0
 63 64  1  0  0  0  0
 65 66  1  0  0  0  0
 65 63  1  0  0  0  0
 67 65  2  0  0  0  0
 68 67  1  0  0  0  0
 69 67  1  0  0  0  0
 69 60  2  0  0  0  0
 70 69  1  0  0  0  0
M  END
$$$$
