CSD_code = VOBCOF | q = 0 | S = 0 | Stoichiometry = C14H24F4N4Ti | MND = 6
 OpenBabel04212202113D

 47 48  0  0  1  0  0  0  0  0999 V2000
   -1.0681    2.9676    4.7316 C   0  0  1  0  0  3  0  0  0  0  0  0
    0.7540    3.9845    5.5570 C   0  0  0  0  0  0  0  0  0  0  0  0
   -0.1737    4.9477    5.2924 C   0  0  0  0  0  0  0  0  0  0  0  0
    0.8279    1.5093    5.3328 C   0  0  0  0  0  0  0  0  0  0  0  0
    0.1020    0.7303    5.1025 H   0  0  0  0  0  0  0  0  0  0  0  0
    1.2021    1.3770    6.3499 H   0  0  0  0  0  0  0  0  0  0  0  0
    1.6602    1.4350    4.6297 H   0  0  0  0  0  0  0  0  0  0  0  0
    2.1311    4.0762    6.1084 C   0  0  0  0  0  0  0  0  0  0  0  0
    2.4065    5.1159    6.2609 H   0  0  0  0  0  0  0  0  0  0  0  0
    2.8477    3.6230    5.4241 H   0  0  0  0  0  0  0  0  0  0  0  0
    2.2014    3.5567    7.0644 H   0  0  0  0  0  0  0  0  0  0  0  0
   -0.1295    6.4233    5.4645 C   0  0  0  0  0  0  0  0  0  0  0  0
    0.8473    6.7304    5.8272 H   0  0  0  0  0  0  0  0  0  0  0  0
   -0.8827    6.7525    6.1809 H   0  0  0  0  0  0  0  0  0  0  0  0
   -0.3227    6.9249    4.5167 H   0  0  0  0  0  0  0  0  0  0  0  0
   -2.4883    4.9537    4.3841 C   0  0  0  0  0  0  0  0  0  0  0  0
   -3.2318    4.1914    4.1537 H   0  0  0  0  0  0  0  0  0  0  0  0
   -2.3122    5.5560    3.4903 H   0  0  0  0  0  0  0  0  0  0  0  0
   -2.8548    5.5972    5.1863 H   0  0  0  0  0  0  0  0  0  0  0  0
   -2.1898    1.5319    3.4382 Ti  0  0  0  0  0  0  0  0  0  0  0  0
   -0.6329    1.0623    2.7122 F   0  0  0  0  0  0  0  0  0  0  0  0
   -2.0447    0.2349    4.6501 F   0  0  0  0  0  0  0  0  0  0  0  0
    0.1772    2.7844    5.2036 N   0  0  0  0  0  0  0  0  0  0  0  0
   -1.2769    4.2944    4.7885 N   0  0  0  0  0  0  0  0  0  0  0  0
   -3.3111    0.0957    2.1450 C   0  0  2  0  0  3  0  0  0  0  0  0
   -5.1327   -0.9221    1.3198 C   0  0  0  0  0  0  0  0  0  0  0  0
   -4.2046   -1.8849    1.5843 C   0  0  0  0  0  0  0  0  0  0  0  0
   -5.2079    1.5530    1.5440 C   0  0  0  0  0  0  0  0  0  0  0  0
   -4.4823    2.3324    1.7743 H   0  0  0  0  0  0  0  0  0  0  0  0
   -5.5822    1.6851    0.5269 H   0  0  0  0  0  0  0  0  0  0  0  0
   -6.0401    1.6269    2.2471 H   0  0  0  0  0  0  0  0  0  0  0  0
   -6.5099   -1.0146    0.7686 C   0  0  0  0  0  0  0  0  0  0  0  0
   -6.7847   -2.0544    0.6161 H   0  0  0  0  0  0  0  0  0  0  0  0
   -7.2267   -0.5617    1.4529 H   0  0  0  0  0  0  0  0  0  0  0  0
   -6.5805   -0.4952   -0.1875 H   0  0  0  0  0  0  0  0  0  0  0  0
   -4.2480   -3.3605    1.4123 C   0  0  0  0  0  0  0  0  0  0  0  0
   -5.2247   -3.6681    1.0496 H   0  0  0  0  0  0  0  0  0  0  0  0
   -3.4947   -3.6893    0.6958 H   0  0  0  0  0  0  0  0  0  0  0  0
   -4.0545   -3.8620    2.3601 H   0  0  0  0  0  0  0  0  0  0  0  0
   -1.8899   -1.8897    2.4924 C   0  0  0  0  0  0  0  0  0  0  0  0
   -1.1467   -1.1271    2.7227 H   0  0  0  0  0  0  0  0  0  0  0  0
   -2.0656   -2.4920    3.3862 H   0  0  0  0  0  0  0  0  0  0  0  0
   -1.5232   -2.5331    1.6902 H   0  0  0  0  0  0  0  0  0  0  0  0
   -3.7466    2.0017    4.1643 F   0  0  0  0  0  0  0  0  0  0  0  0
   -2.3352    2.8287    2.2263 F   0  0  0  0  0  0  0  0  0  0  0  0
   -4.5566    0.2783    1.6731 N   0  0  0  0  0  0  0  0  0  0  0  0
   -3.1016   -1.2310    2.0881 N   0  0  0  0  0  0  0  0  0  0  0  0
  1 20  1  6  0  0  0
  1 24  1  0  0  0  0
  1 23  1  0  0  0  0
  2  8  1  0  0  0  0
  3 12  1  0  0  0  0
  3  2  2  0  0  0  0
  4  6  1  0  0  0  0
  5  4  1  0  0  0  0
  7  4  1  0  0  0  0
  8  9  1  0  0  0  0
  8 11  1  0  0  0  0
 10  8  1  0  0  0  0
 12 13  1  0  0  0  0
 12 14  1  0  0  0  0
 15 12  1  0  0  0  0
 16 24  1  0  0  0  0
 16 19  1  0  0  0  0
 17 16  1  0  0  0  0
 18 16  1  0  0  0  0
 20 44  1  0  0  0  0
 20 22  1  0  0  0  0
 21 20  1  0  0  0  0
 23  4  1  0  0  0  0
 23  2  1  0  0  0  0
 24  3  1  0  0  0  0
 25 20  1  1  0  0  0
 26 27  2  0  0  0  0
 26 46  1  0  0  0  0
 27 47  1  0  0  0  0
 28 46  1  0  0  0  0
 28 29  1  0  0  0  0
 28 31  1  0  0  0  0
 30 28  1  0  0  0  0
 32 26  1  0  0  0  0
 32 34  1  0  0  0  0
 33 32  1  0  0  0  0
 35 32  1  0  0  0  0
 36 27  1  0  0  0  0
 36 39  1  0  0  0  0
 37 36  1  0  0  0  0
 38 36  1  0  0  0  0
 40 41  1  0  0  0  0
 40 42  1  0  0  0  0
 43 40  1  0  0  0  0
 45 20  1  0  0  0  0
 46 25  1  0  0  0  0
 47 25  1  0  0  0  0
 47 40  1  0  0  0  0
M  END
$$$$
