CSD_code = VOBHUS | q = 0 | S = 0 | Stoichiometry = C16H23ClN2Pd | MND = 4
 OpenBabel04212202113D

 43 47  0  0  1  0  0  0  0  0999 V2000
    1.6951    6.2180    4.7591 Pd  0  0  1  0  0  0  0  0  0  0  0  0
   -0.4128    6.1572    4.6757 N   0  0  2  0  0  4  0  0  0  0  0  0
    1.5876    5.6696    2.6024 N   0  0  0  0  0  4  0  0  0  0  0  0
    3.9116    6.4451    4.7673 Cl  0  0  0  0  0  0  0  0  0  0  0  0
   -0.4748    4.2174    3.0804 C   0  0  1  0  0  0  0  0  0  0  0  0
    0.0442    3.2589    3.1182 H   0  0  0  0  0  0  0  0  0  0  0  0
   -0.7188    4.7350    4.5150 C   0  0  0  0  0  0  0  0  0  0  0  0
   -1.7732    4.5507    4.7816 H   0  0  0  0  0  0  0  0  0  0  0  0
   -0.0975    4.1838    5.2347 H   0  0  0  0  0  0  0  0  0  0  0  0
   -0.9935    6.9681    3.6003 C   0  0  0  0  0  0  0  0  0  0  0  0
   -0.4876    7.9423    3.6257 H   0  0  0  0  0  0  0  0  0  0  0  0
   -2.0625    7.1431    3.8019 H   0  0  0  0  0  0  0  0  0  0  0  0
   -0.8543    6.3395    2.2037 C   0  0  2  0  0  0  0  0  0  0  0  0
   -0.6840    7.1298    1.4709 H   0  0  0  0  0  0  0  0  0  0  0  0
   -2.0944    5.5136    1.8178 C   0  0  0  0  0  0  0  0  0  0  0  0
   -2.2265    5.5208    0.7359 H   0  0  0  0  0  0  0  0  0  0  0  0
   -3.0012    5.9257    2.2585 H   0  0  0  0  0  0  0  0  0  0  0  0
   -1.8027    4.0881    2.3214 C   0  0  0  0  0  0  0  0  0  0  0  0
   -2.5988    3.6983    2.9537 H   0  0  0  0  0  0  0  0  0  0  0  0
   -1.6853    3.4008    1.4831 H   0  0  0  0  0  0  0  0  0  0  0  0
    0.2419    5.2622    2.1994 C   0  0  1  0  0  0  0  0  0  0  0  0
    0.3028    4.8483    1.1741 H   0  0  0  0  0  0  0  0  0  0  0  0
    2.4976    4.5249    2.5029 C   0  0  0  0  0  0  0  0  0  0  0  0
    2.4777    4.0875    1.4935 H   0  0  0  0  0  0  0  0  0  0  0  0
    2.2239    3.7588    3.2341 H   0  0  0  0  0  0  0  0  0  0  0  0
    3.5106    4.8591    2.7330 H   0  0  0  0  0  0  0  0  0  0  0  0
    2.0874    6.7545    1.7602 C   0  0  0  0  0  0  0  0  0  0  0  0
    2.0851    6.4728    0.6967 H   0  0  0  0  0  0  0  0  0  0  0  0
    3.1085    6.9869    2.0678 H   0  0  0  0  0  0  0  0  0  0  0  0
    1.4810    7.6517    1.8929 H   0  0  0  0  0  0  0  0  0  0  0  0
   -0.8795    6.6573    5.9799 C   0  0  0  0  0  0  0  0  0  0  0  0
   -0.9788    7.7476    5.9027 H   0  0  0  0  0  0  0  0  0  0  0  0
   -1.8749    6.2471    6.2160 H   0  0  0  0  0  0  0  0  0  0  0  0
    0.1162    6.3661    7.0766 C   0  0  0  0  0  0  0  0  0  0  0  0
   -0.2851    6.2245    8.3963 C   0  0  0  0  0  0  0  0  0  0  0  0
   -1.3373    6.2656    8.6468 H   0  0  0  0  0  0  0  0  0  0  0  0
    0.6597    6.0349    9.3906 C   0  0  0  0  0  0  0  0  0  0  0  0
    0.3451    5.9249   10.4184 H   0  0  0  0  0  0  0  0  0  0  0  0
    2.0024    5.9887    9.0622 C   0  0  0  0  0  0  0  0  0  0  0  0
    2.7419    5.8450    9.8371 H   0  0  0  0  0  0  0  0  0  0  0  0
    2.4089    6.1193    7.7413 C   0  0  0  0  0  0  0  0  0  0  0  0
    3.4642    6.0796    7.5056 H   0  0  0  0  0  0  0  0  0  0  0  0
    1.4755    6.3191    6.7317 C   0  0  0  0  0  0  0  0  0  0  0  0
  1  4  1  6  0  0  0
  1 43  1  0  0  0  0
  2 10  1  6  0  0  0
  2  1  1  0  0  0  0
  2 31  1  0  0  0  0
  3  1  1  0  0  0  0
  5  6  1  1  0  0  0
  5  7  1  0  0  0  0
  7  2  1  0  0  0  0
  7  8  1  0  0  0  0
  7  9  1  0  0  0  0
 10 11  1  0  0  0  0
 10 12  1  0  0  0  0
 13 14  1  6  0  0  0
 13 10  1  0  0  0  0
 15 13  1  0  0  0  0
 15 17  1  0  0  0  0
 15 18  1  0  0  0  0
 16 15  1  0  0  0  0
 18 19  1  0  0  0  0
 18  5  1  0  0  0  0
 20 18  1  0  0  0  0
 21 22  1  6  0  0  0
 21 13  1  0  0  0  0
 21  3  1  0  0  0  0
 21  5  1  0  0  0  0
 23  3  1  0  0  0  0
 23 26  1  0  0  0  0
 23 25  1  0  0  0  0
 24 23  1  0  0  0  0
 27 30  1  0  0  0  0
 27 29  1  0  0  0  0
 27  3  1  0  0  0  0
 28 27  1  0  0  0  0
 31 33  1  0  0  0  0
 31 34  1  0  0  0  0
 32 31  1  0  0  0  0
 34 35  1  0  0  0  0
 35 36  1  0  0  0  0
 35 37  2  0  0  0  0
 37 38  1  0  0  0  0
 39 37  1  0  0  0  0
 39 40  1  0  0  0  0
 41 39  2  0  0  0  0
 42 41  1  0  0  0  0
 43 34  2  0  0  0  0
 43 41  1  0  0  0  0
M  END
$$$$
