CSD_code = VOBKEF | q = 0 | S = 0 | Stoichiometry = C15H14Br2N3O3Re | MND = 6
 OpenBabel04212202113D

 38 40  0  0  1  0  0  0  0  0999 V2000
    4.6246    7.5148    4.0232 Re  0  0  0  0  0  0  0  0  0  0  0  0
    4.3576    6.0609    1.8928 Br  0  0  0  0  0  0  0  0  0  0  0  0
    5.4480    4.7411    6.5074 Br  0  0  0  0  0  0  0  0  0  0  0  0
    5.0211    8.4084    5.6978 C   0  0  0  0  0  2  0  0  0  0  0  0
    5.2843    8.9196    6.6922 O   0  0  0  0  0  1  0  0  0  0  0  0
    3.2657    6.3012    4.7667 C   0  0  0  0  0  2  0  0  0  0  0  0
    2.4577    5.5466    5.0421 O   0  0  0  0  0  1  0  0  0  0  0  0
    3.1875    8.7441    3.5889 C   0  0  0  0  0  2  0  0  0  0  0  0
    2.3233    9.4487    3.3064 O   0  0  0  0  0  1  0  0  0  0  0  0
    6.3911    9.3948    2.0781 N   0  0  0  0  0  0  0  0  0  0  0  0
    6.2094    8.3544    2.9000 C   0  0  2  0  0  3  0  0  0  0  0  0
    7.3157    7.5617    2.7273 N   0  0  0  0  0  0  0  0  0  0  0  0
    8.1630    8.1247    1.7975 C   0  0  0  0  0  0  0  0  0  0  0  0
    9.0931    7.6890    1.5019 H   0  0  0  0  0  0  0  0  0  0  0  0
    7.5742    9.2693    1.3943 C   0  0  0  0  0  0  0  0  0  0  0  0
    7.9012   10.0002    0.6835 H   0  0  0  0  0  0  0  0  0  0  0  0
    5.4423   10.4557    1.8445 C   0  0  0  0  0  0  0  0  0  0  0  0
    6.0001   11.3684    1.6236 H   0  0  0  0  0  0  0  0  0  0  0  0
    4.8595   10.6004    2.7585 H   0  0  0  0  0  0  0  0  0  0  0  0
    4.5110   10.0916    0.6838 C   0  0  0  0  0  0  0  0  0  0  0  0
    5.0948   10.0026   -0.2359 H   0  0  0  0  0  0  0  0  0  0  0  0
    4.0686    9.1153    0.8939 H   0  0  0  0  0  0  0  0  0  0  0  0
    3.3913   11.1102    0.4880 C   0  0  0  0  0  0  0  0  0  0  0  0
    2.8295   11.2095    1.4179 H   0  0  0  0  0  0  0  0  0  0  0  0
    2.7093   10.7194   -0.2690 H   0  0  0  0  0  0  0  0  0  0  0  0
    3.8944   12.4784    0.0423 C   0  0  0  0  0  0  0  0  0  0  0  0
    4.4860   12.9554    0.8199 H   0  0  0  0  0  0  0  0  0  0  0  0
    3.0535   13.1291   -0.1833 H   0  0  0  0  0  0  0  0  0  0  0  0
    4.5044   12.3889   -0.8546 H   0  0  0  0  0  0  0  0  0  0  0  0
    6.5289    6.1152    4.3400 N   0  0  0  0  0  0  0  0  0  0  0  0
    7.4684    6.3697    3.4140 C   0  0  1  0  0  3  0  0  0  0  0  0
    8.5228    5.4966    3.1602 C   0  0  0  0  0  0  0  0  0  0  0  0
    9.2425    5.7146    2.3902 H   0  0  0  0  0  0  0  0  0  0  0  0
    8.6114    4.3330    3.8998 C   0  0  0  0  0  0  0  0  0  0  0  0
    9.4033    3.6254    3.7125 H   0  0  0  0  0  0  0  0  0  0  0  0
    7.6792    4.0934    4.8962 C   0  0  0  0  0  0  0  0  0  0  0  0
    7.7238    3.2157    5.5187 H   0  0  0  0  0  0  0  0  0  0  0  0
    6.6666    5.0206    5.0788 C   0  0  0  0  0  0  0  0  0  0  0  0
  1 30  1  0  0  0  0
  1  6  1  0  0  0  0
  1  4  1  0  0  0  0
  2  1  1  0  0  0  0
  4  5  1  0  0  0  0
  6  7  1  0  0  0  0
  8  1  1  0  0  0  0
  9  8  1  0  0  0  0
 11 10  1  6  0  0  0
 11  1  1  0  0  0  0
 12 11  1  0  0  0  0
 12 31  1  0  0  0  0
 13 12  1  0  0  0  0
 14 13  1  0  0  0  0
 15 13  2  0  0  0  0
 15 10  1  0  0  0  0
 16 15  1  0  0  0  0
 17 10  1  0  0  0  0
 17 19  1  0  0  0  0
 18 17  1  0  0  0  0
 20 22  1  0  0  0  0
 20 17  1  0  0  0  0
 21 20  1  0  0  0  0
 23 20  1  0  0  0  0
 23 24  1  0  0  0  0
 25 23  1  0  0  0  0
 26 23  1  0  0  0  0
 26 27  1  0  0  0  0
 28 26  1  0  0  0  0
 29 26  1  0  0  0  0
 30 38  1  0  0  0  0
 31 32  1  6  0  0  0
 31 30  1  0  0  0  0
 32 34  2  0  0  0  0
 33 32  1  0  0  0  0
 34 36  1  0  0  0  0
 35 34  1  0  0  0  0
 36 38  2  0  0  0  0
 36 37  1  0  0  0  0
 38  3  1  0  0  0  0
M  END
$$$$
