CSD_code = VOBPUZ | q = 1 | S = 0 | Stoichiometry = C24H28ClN6ORuS(1+) | MND = 6
 OpenBabel04212202113D

 62 68  0  0  1  0  0  0  0  0999 V2000
    3.4807    7.9780   13.3114 Ru  0  0  0  0  0  0  0  0  0  0  0  0
    2.9796    6.1612   12.6230 N   0  0  0  0  0  0  0  0  0  0  0  0
    3.5502    5.1998   11.9852 N   0  0  0  0  0  2  0  0  0  0  0  0
    2.1238    8.7180    9.4489 C   0  0  0  0  0  0  0  0  0  0  0  0
    1.1341    8.8763    9.0501 H   0  0  0  0  0  0  0  0  0  0  0  0
    1.6289    6.0253   12.5546 C   0  0  0  0  0  0  0  0  0  0  0  0
    2.0671   11.6079   14.7137 C   0  0  0  0  0  0  0  0  0  0  0  0
    1.0779   11.9236   15.0057 H   0  0  0  0  0  0  0  0  0  0  0  0
    2.6091    4.4110   11.5054 N   0  0  0  0  0  0  0  0  0  0  0  0
    2.8811    3.7290    9.2043 C   0  0  0  0  0  0  0  0  0  0  0  0
    3.5305    8.4853   11.3640 N   0  0  0  0  0  0  0  0  0  0  0  0
    3.1413   12.4839   14.7806 C   0  0  0  0  0  0  0  0  0  0  0  0
    3.0031   13.4939   15.1313 H   0  0  0  0  0  0  0  0  0  0  0  0
    3.6516    5.1853    7.4558 C   0  0  0  0  0  0  0  0  0  0  0  0
    4.2919    5.9885    7.1257 H   0  0  0  0  0  0  0  0  0  0  0  0
    4.4630    8.3723    9.1738 C   0  0  0  0  0  0  0  0  0  0  0  0
    5.3437    8.2587    8.5634 H   0  0  0  0  0  0  0  0  0  0  0  0
    4.3883   12.0333   14.3761 C   0  0  0  0  0  0  0  0  0  0  0  0
    5.2482   12.6824   14.3940 H   0  0  0  0  0  0  0  0  0  0  0  0
    4.5780    8.3416   10.5521 C   0  0  0  0  0  3  0  0  0  0  0  0
    5.5380    8.2199   11.0381 H   0  0  0  0  0  0  0  0  0  0  0  0
    1.3862    4.8856   11.8241 C   0  0  0  0  0  0  0  0  0  0  0  0
    0.4796    4.4003   11.5315 H   0  0  0  0  0  0  0  0  0  0  0  0
    3.4967    9.8725   13.9171 N   0  0  0  0  0  0  0  0  0  0  0  0
    2.2770   10.3111   14.2756 C   0  0  1  0  0  3  0  0  0  0  0  0
    3.2111    8.5478    8.6047 C   0  0  0  0  0  0  0  0  0  0  0  0
    3.0791    8.5633    7.5349 H   0  0  0  0  0  0  0  0  0  0  0  0
    0.7840    7.0445   13.2472 C   0  0  0  0  0  0  0  0  0  0  0  0
   -0.2428    7.0494   12.8620 H   0  0  0  0  0  0  0  0  0  0  0  0
    0.7671    6.7894   14.3141 H   0  0  0  0  0  0  0  0  0  0  0  0
    2.9338    3.2969   10.6533 C   0  0  0  0  0  0  0  0  0  0  0  0
    2.2313    2.4833   10.8428 H   0  0  0  0  0  0  0  0  0  0  0  0
    3.9447    2.9749   10.9163 H   0  0  0  0  0  0  0  0  0  0  0  0
    1.1902    8.9615   11.7873 C   0  0  0  0  0  0  0  0  0  0  0  0
    0.2377    8.6132   11.3697 H   0  0  0  0  0  0  0  0  0  0  0  0
    1.1214   10.0499   11.9072 H   0  0  0  0  0  0  0  0  0  0  0  0
    2.0292    3.1067    8.3041 C   0  0  0  0  0  0  0  0  0  0  0  0
    1.4006    2.2914    8.6307 H   0  0  0  0  0  0  0  0  0  0  0  0
    3.6897    4.7750    8.7759 C   0  0  0  0  0  0  0  0  0  0  0  0
    4.3521    5.2609    9.4793 H   0  0  0  0  0  0  0  0  0  0  0  0
    2.3190    8.6914   10.8196 C   0  0  0  0  0  0  0  0  0  0  0  0
    1.4462    8.3522   13.1041 N   0  0  2  0  0  4  0  0  0  0  0  0
    1.1656    9.2903   14.2014 C   0  0  0  0  0  0  0  0  0  0  0  0
    1.1878    8.7238   15.1417 H   0  0  0  0  0  0  0  0  0  0  0  0
    0.1848    9.7696   14.0943 H   0  0  0  0  0  0  0  0  0  0  0  0
    1.9957    3.5173    6.9820 C   0  0  0  0  0  0  0  0  0  0  0  0
    1.3378    3.0227    6.2845 H   0  0  0  0  0  0  0  0  0  0  0  0
    2.8056    4.5563    6.5570 C   0  0  0  0  0  0  0  0  0  0  0  0
    2.7816    4.8719    5.5256 H   0  0  0  0  0  0  0  0  0  0  0  0
    4.5212   10.7236   13.9481 C   0  0  0  0  0  0  0  0  0  0  0  0
    5.4741   10.3365   13.6054 H   0  0  0  0  0  0  0  0  0  0  0  0
    3.1740    7.1911   15.5051 Cl  0  0  0  0  0  0  0  0  0  0  0  0
    5.6914    7.5768   13.7156 S   0  0  0  0  0  0  0  0  0  0  0  0
    6.5930    8.2866   12.8129 O   0  0  0  0  0  1  0  0  0  0  0  0
    6.2796    7.9464   15.3944 C   0  0  0  0  0  0  0  0  0  0  0  0
    5.9969    8.9634   15.6484 H   0  0  0  0  0  0  0  0  0  0  0  0
    7.3590    7.8455   15.3891 H   0  0  0  0  0  0  0  0  0  0  0  0
    5.8147    7.2530   16.0847 H   0  0  0  0  0  0  0  0  0  0  0  0
    6.1580    5.8247   13.6768 C   0  0  0  0  0  0  0  0  0  0  0  0
    5.9559    5.4484   12.6797 H   0  0  0  0  0  0  0  0  0  0  0  0
    5.5390    5.3110   14.4039 H   0  0  0  0  0  0  0  0  0  0  0  0
    7.2111    5.7343   13.9163 H   0  0  0  0  0  0  0  0  0  0  0  0
  1 53  1  0  0  0  0
  1 24  1  0  0  0  0
  1 52  1  0  0  0  0
  2  1  1  0  0  0  0
  3  2  1  0  0  0  0
  4 41  2  0  0  0  0
  5  4  1  0  0  0  0
  6  2  1  0  0  0  0
  6 28  1  0  0  0  0
  7 12  2  0  0  0  0
  7  8  1  0  0  0  0
  9 22  1  0  0  0  0
  9  3  1  0  0  0  0
 10 31  1  0  0  0  0
 11  1  1  0  0  0  0
 12 13  1  0  0  0  0
 14 39  2  0  0  0  0
 15 14  1  0  0  0  0
 16 20  1  0  0  0  0
 17 16  1  0  0  0  0
 18 19  1  0  0  0  0
 18 12  1  0  0  0  0
 20 21  1  0  0  0  0
 20 11  1  0  0  0  0
 22  6  2  0  0  0  0
 23 22  1  0  0  0  0
 24 50  1  0  0  0  0
 24 25  1  0  0  0  0
 25  7  1  1  0  0  0
 26 16  2  0  0  0  0
 26  4  1  0  0  0  0
 27 26  1  0  0  0  0
 28 30  1  0  0  0  0
 29 28  1  0  0  0  0
 31 32  1  0  0  0  0
 31 33  1  0  0  0  0
 31  9  1  0  0  0  0
 34 36  1  0  0  0  0
 35 34  1  0  0  0  0
 37 38  1  0  0  0  0
 37 10  2  0  0  0  0
 39 10  1  0  0  0  0
 39 40  1  0  0  0  0
 41 11  1  0  0  0  0
 41 34  1  0  0  0  0
 42 34  1  6  0  0  0
 42 28  1  0  0  0  0
 42  1  1  0  0  0  0
 42 43  1  0  0  0  0
 43 25  1  0  0  0  0
 43 44  1  0  0  0  0
 45 43  1  0  0  0  0
 46 37  1  0  0  0  0
 47 46  1  0  0  0  0
 48 46  2  0  0  0  0
 48 14  1  0  0  0  0
 49 48  1  0  0  0  0
 50 18  2  0  0  0  0
 51 50  1  0  0  0  0
 53 55  1  0  0  0  0
 54 53  1  0  0  0  0
 55 56  1  0  0  0  0
 55 58  1  0  0  0  0
 57 55  1  0  0  0  0
 59 53  1  0  0  0  0
 59 62  1  0  0  0  0
 59 61  1  0  0  0  0
 60 59  1  0  0  0  0
M  END
$$$$
