CSD_code = VOCFUO | q = 0 | S = 0 | Stoichiometry = C22H37ClP3Rh | MND = 4
 OpenBabel04212202113D

 64 68  0  0  1  0  0  0  0  0999 V2000
    4.7196    3.0284    2.9943 Rh  0  0  2  0  0  0  0  0  0  0  0  0
    6.3634    4.5031    2.4641 Cl  0  0  0  0  0  0  0  0  0  0  0  0
    3.9628    2.8144    0.9026 P   0  0  2  0  0  4  0  0  0  0  0  0
    3.0995    1.6591    3.5075 P   0  0  2  0  0  4  0  0  0  0  0  0
    5.5037    2.5168    5.0300 P   0  0  1  0  0  4  0  0  0  0  0  0
    5.1683    2.1305   -0.3414 C   0  0  2  0  0  0  0  0  0  0  0  0
    4.7367    2.7045   -1.6895 C   0  0  0  0  0  0  0  0  0  0  0  0
    4.3667    4.1576   -1.4169 C   0  0  0  0  0  0  0  0  0  0  0  0
    3.3666    4.1490   -0.2588 C   0  0  2  0  0  0  0  0  0  0  0  0
    5.3347    0.6190   -0.3053 C   0  0  0  0  0  0  0  0  0  0  0  0
    3.2672    5.4813    0.4728 C   0  0  0  0  0  0  0  0  0  0  0  0
    2.4891    1.6573    0.8929 C   0  0  0  0  0  0  0  0  0  0  0  0
    2.5569    0.6609    2.0504 C   0  0  0  0  0  0  0  0  0  0  0  0
    1.5539    2.4238    4.0909 C   0  0  0  0  0  0  0  0  0  0  0  0
    0.4106    1.7127    4.4359 C   0  0  0  0  0  0  0  0  0  0  0  0
   -0.7126    2.3904    4.8747 C   0  0  0  0  0  0  0  0  0  0  0  0
   -0.6989    3.7733    4.9716 C   0  0  0  0  0  0  0  0  0  0  0  0
    0.4394    4.4863    4.6300 C   0  0  0  0  0  0  0  0  0  0  0  0
    1.5629    3.8112    4.1907 C   0  0  0  0  0  0  0  0  0  0  0  0
    6.9892    1.3821    4.9878 C   0  0  2  0  0  0  0  0  0  0  0  0
    8.0669    2.0835    5.8188 C   0  0  0  0  0  0  0  0  0  0  0  0
    7.3620    2.7726    6.9817 C   0  0  0  0  0  0  0  0  0  0  0  0
    6.2337    3.5947    6.3598 C   0  0  2  0  0  0  0  0  0  0  0  0
    7.4165    1.1095    3.5505 C   0  0  0  0  0  0  0  0  0  0  0  0
    5.2257    4.1554    7.3517 C   0  0  0  0  0  0  0  0  0  0  0  0
    4.2459    1.4558    5.9184 C   0  0  0  0  0  0  0  0  0  0  0  0
    3.5524    0.5413    4.9078 C   0  0  0  0  0  0  0  0  0  0  0  0
    6.1224    2.5938   -0.0541 H   0  0  0  0  0  0  0  0  0  0  0  0
    5.5368    2.6221   -2.4271 H   0  0  0  0  0  0  0  0  0  0  0  0
    3.8658    2.1630   -2.0697 H   0  0  0  0  0  0  0  0  0  0  0  0
    5.2612    4.7056   -1.1141 H   0  0  0  0  0  0  0  0  0  0  0  0
    3.9444    4.6448   -2.2977 H   0  0  0  0  0  0  0  0  0  0  0  0
    2.3770    3.8565   -0.6343 H   0  0  0  0  0  0  0  0  0  0  0  0
    6.1361    0.3128   -0.9760 H   0  0  0  0  0  0  0  0  0  0  0  0
    5.5927    0.2990    0.7036 H   0  0  0  0  0  0  0  0  0  0  0  0
    4.4228    0.1109   -0.6140 H   0  0  0  0  0  0  0  0  0  0  0  0
    3.0184    6.2881   -0.2152 H   0  0  0  0  0  0  0  0  0  0  0  0
    2.4986    5.4313    1.2441 H   0  0  0  0  0  0  0  0  0  0  0  0
    4.2189    5.7089    0.9522 H   0  0  0  0  0  0  0  0  0  0  0  0
    1.6156    2.3040    1.0381 H   0  0  0  0  0  0  0  0  0  0  0  0
    2.3831    1.1553   -0.0723 H   0  0  0  0  0  0  0  0  0  0  0  0
    3.3230   -0.0982    1.8675 H   0  0  0  0  0  0  0  0  0  0  0  0
    1.5952    0.1651    2.2119 H   0  0  0  0  0  0  0  0  0  0  0  0
    0.4000    0.6331    4.3619 H   0  0  0  0  0  0  0  0  0  0  0  0
   -1.6031    1.8403    5.1432 H   0  0  0  0  0  0  0  0  0  0  0  0
   -1.5798    4.2954    5.3152 H   0  0  0  0  0  0  0  0  0  0  0  0
    0.4471    5.5637    4.7075 H   0  0  0  0  0  0  0  0  0  0  0  0
    2.4761    4.3410    3.9145 H   0  0  0  0  0  0  0  0  0  0  0  0
    6.7087    0.4378    5.4731 H   0  0  0  0  0  0  0  0  0  0  0  0
    8.8223    1.3749    6.1634 H   0  0  0  0  0  0  0  0  0  0  0  0
    8.5588    2.8376    5.2011 H   0  0  0  0  0  0  0  0  0  0  0  0
    6.9486    2.0259    7.6649 H   0  0  0  0  0  0  0  0  0  0  0  0
    8.0463    3.4074    7.5474 H   0  0  0  0  0  0  0  0  0  0  0  0
    6.6779    4.4296    5.7993 H   0  0  0  0  0  0  0  0  0  0  0  0
    8.2961    0.4676    3.5167 H   0  0  0  0  0  0  0  0  0  0  0  0
    6.6039    0.6232    3.0048 H   0  0  0  0  0  0  0  0  0  0  0  0
    7.6465    2.0494    3.0487 H   0  0  0  0  0  0  0  0  0  0  0  0
    5.7000    4.8982    7.9913 H   0  0  0  0  0  0  0  0  0  0  0  0
    4.4035    4.6351    6.8217 H   0  0  0  0  0  0  0  0  0  0  0  0
    4.8213    3.3694    7.9870 H   0  0  0  0  0  0  0  0  0  0  0  0
    4.7063    0.8856    6.7301 H   0  0  0  0  0  0  0  0  0  0  0  0
    3.5017    2.1359    6.3466 H   0  0  0  0  0  0  0  0  0  0  0  0
    2.6868    0.0350    5.3448 H   0  0  0  0  0  0  0  0  0  0  0  0
    4.2504   -0.2092    4.5229 H   0  0  0  0  0  0  0  0  0  0  0  0
  1  2  1  1  0  0  0
  1  4  1  0  0  0  0
  1  5  1  0  0  0  0
  3 12  1  1  0  0  0
  3  1  1  0  0  0  0
  4 14  1  1  0  0  0
  4 27  1  0  0  0  0
  5 26  1  1  0  0  0
  5 23  1  0  0  0  0
  6 10  1  0  0  0  0
  6 28  1  1  0  0  0
  6  3  1  0  0  0  0
  7  8  1  0  0  0  0
  7  6  1  0  0  0  0
  8 31  1  0  0  0  0
  8  9  1  0  0  0  0
  9 33  1  6  0  0  0
  9 11  1  0  0  0  0
  9  3  1  0  0  0  0
 10 35  1  0  0  0  0
 11 39  1  0  0  0  0
 11 38  1  0  0  0  0
 12 40  1  0  0  0  0
 12 13  1  0  0  0  0
 13 43  1  0  0  0  0
 13  4  1  0  0  0  0
 14 19  2  0  0  0  0
 14 15  1  0  0  0  0
 15 16  2  0  0  0  0
 16 17  1  0  0  0  0
 16 45  1  0  0  0  0
 17 46  1  0  0  0  0
 18 47  1  0  0  0  0
 18 17  2  0  0  0  0
 19 18  1  0  0  0  0
 20  5  1  0  0  0  0
 20 49  1  1  0  0  0
 20 21  1  0  0  0  0
 21 50  1  0  0  0  0
 21 22  1  0  0  0  0
 22 53  1  0  0  0  0
 22 52  1  0  0  0  0
 23 54  1  6  0  0  0
 23 22  1  0  0  0  0
 23 25  1  0  0  0  0
 24 20  1  0  0  0  0
 25 60  1  0  0  0  0
 25 58  1  0  0  0  0
 26 62  1  0  0  0  0
 26 61  1  0  0  0  0
 27 63  1  0  0  0  0
 27 26  1  0  0  0  0
 29  7  1  0  0  0  0
 30  7  1  0  0  0  0
 32  8  1  0  0  0  0
 34 10  1  0  0  0  0
 36 10  1  0  0  0  0
 37 11  1  0  0  0  0
 41 12  1  0  0  0  0
 42 13  1  0  0  0  0
 44 15  1  0  0  0  0
 48 19  1  0  0  0  0
 51 21  1  0  0  0  0
 55 24  1  0  0  0  0
 56 24  1  0  0  0  0
 57 24  1  0  0  0  0
 59 25  1  0  0  0  0
 64 27  1  0  0  0  0
M  END
$$$$
