CSD_code = VOCLEF | q = 0 | S = 0 | Stoichiometry = C11H11Cl4N3OPt | MND = 6
 OpenBabel04212202113D

 31 32  0  0  0  0  0  0  0  0999 V2000
    2.0283    2.1163    3.3601 Pt  0  0  0  0  0  0  0  0  0  0  0  0
    1.9192    3.5236    5.1800 Cl  0  0  0  0  0  0  0  0  0  0  0  0
    4.3696    1.9254    3.6816 Cl  0  0  0  0  0  0  0  0  0  0  0  0
   -0.3288    2.2793    3.1135 Cl  0  0  0  0  0  0  0  0  0  0  0  0
    3.4776    3.4881    0.8441 Cl  0  0  0  0  0  0  0  0  0  0  0  0
    1.7793    5.7285    1.2856 O   0  0  0  0  0  0  0  0  0  0  0  0
    1.7336    0.5218    4.6765 N   0  0  0  0  0  0  0  0  0  0  0  0
    2.1309    0.8455    1.6663 N   0  0  0  0  0  0  0  0  0  0  0  0
    2.3007    3.6764    2.0984 N   0  0  0  0  0  0  0  0  0  0  0  0
    2.4084    0.4838    5.8233 C   0  0  0  0  0  3  0  0  0  0  0  0
    2.1511   -0.4678    6.7961 C   0  0  0  0  0  0  0  0  0  0  0  0
    1.1601   -1.4092    6.5730 C   0  0  0  0  0  0  0  0  0  0  0  0
    0.4699   -1.3679    5.3712 C   0  0  0  0  0  0  0  0  0  0  0  0
    0.7859   -0.3863    4.4491 C   0  0  0  0  0  0  0  0  0  0  0  0
    3.0557   -0.1069    1.5863 C   0  0  0  0  0  3  0  0  0  0  0  0
    3.2750   -0.8176    0.4196 C   0  0  0  0  0  0  0  0  0  0  0  0
    2.5107   -0.5252   -0.6995 C   0  0  0  0  0  0  0  0  0  0  0  0
    1.5426    0.4612   -0.6005 C   0  0  0  0  0  0  0  0  0  0  0  0
    1.3838    1.1274    0.6024 C   0  0  0  0  0  0  0  0  0  0  0  0
    1.6419    4.8388    2.0892 C   0  0  0  0  0  0  0  0  0  0  0  0
    3.1748    1.2332    5.9670 H   0  0  0  0  0  0  0  0  0  0  0  0
    2.7176   -0.4572    7.7130 H   0  0  0  0  0  0  0  0  0  0  0  0
    0.9278   -2.1560    7.3169 H   0  0  0  0  0  0  0  0  0  0  0  0
   -0.3106   -2.0777    5.1492 H   0  0  0  0  0  0  0  0  0  0  0  0
    0.2468   -0.3120    3.5138 H   0  0  0  0  0  0  0  0  0  0  0  0
    3.6537   -0.2844    2.4704 H   0  0  0  0  0  0  0  0  0  0  0  0
    4.0400   -1.5766    0.3922 H   0  0  0  0  0  0  0  0  0  0  0  0
    2.6687   -1.0525   -1.6278 H   0  0  0  0  0  0  0  0  0  0  0  0
    0.9224    0.7249   -1.4416 H   0  0  0  0  0  0  0  0  0  0  0  0
    0.6341    1.8987    0.7208 H   0  0  0  0  0  0  0  0  0  0  0  0
    0.9247    4.8889    2.9310 H   0  0  0  0  0  0  0  0  0  0  0  0
  1  3  1  0  0  0  0
  1  7  1  0  0  0  0
  1  2  1  0  0  0  0
  4  1  1  0  0  0  0
  5  9  1  0  0  0  0
  6 20  2  0  0  0  0
  7 10  1  0  0  0  0
  8  1  1  0  0  0  0
  9  1  1  0  0  0  0
 10 21  1  0  0  0  0
 10 11  1  0  0  0  0
 11 22  1  0  0  0  0
 12 11  2  0  0  0  0
 12 23  1  0  0  0  0
 13 12  1  0  0  0  0
 14  7  1  0  0  0  0
 14 13  2  0  0  0  0
 15  8  1  0  0  0  0
 15 26  1  0  0  0  0
 16 15  1  0  0  0  0
 17 18  1  0  0  0  0
 17 16  2  0  0  0  0
 18 19  2  0  0  0  0
 19 30  1  0  0  0  0
 19  8  1  0  0  0  0
 20  9  1  0  0  0  0
 20 31  1  0  0  0  0
 24 13  1  0  0  0  0
 25 14  1  0  0  0  0
 27 16  1  0  0  0  0
 28 17  1  0  0  0  0
 29 18  1  0  0  0  0
M  END
$$$$
