CSD_code = VODXOC | q = 0 | S = 0 | Stoichiometry = C12H22Cl2N2Pd | MND = 4
 OpenBabel04212202113D

 39 42  0  0  1  0  0  0  0  0999 V2000
    2.8253   10.5408    1.0285 Pd  0  0  0  0  0  0  0  0  0  0  0  0
    2.2113    9.8729   -1.0284 Cl  0  0  0  0  0  0  0  0  0  0  0  0
    1.4587    8.9493    1.8012 Cl  0  0  0  0  0  0  0  0  0  0  0  0
    3.9840   12.2510    0.3752 N   0  0  1  0  0  4  0  0  0  0  0  0
    4.0160   10.7194    2.8861 N   0  0  2  0  0  4  0  0  0  0  0  0
    3.4664   12.7494   -0.9078 C   0  0  0  0  0  0  0  0  0  0  0  0
    2.0138   13.1993   -0.7753 C   0  0  0  0  0  0  0  0  0  0  0  0
    1.8782   14.2809    0.2884 C   0  0  0  0  0  0  0  0  0  0  0  0
    2.4911   13.7491    1.5785 C   0  0  0  0  0  0  0  0  0  0  0  0
    3.9555   13.3704    1.3308 C   0  0  1  0  0  0  0  0  0  0  0  0
    4.7140   13.0967    2.6392 C   0  0  1  0  0  0  0  0  0  0  0  0
    4.0896   12.0257    3.5331 C   0  0  0  0  0  0  0  0  0  0  0  0
    5.3335   10.3159    2.3675 C   0  0  0  0  0  0  0  0  0  0  0  0
    6.0292   11.3825    1.5110 C   0  0  1  0  0  0  0  0  0  0  0  0
    5.3266   11.7001    0.1879 C   0  0  0  0  0  0  0  0  0  0  0  0
    6.1435   12.6745    2.3144 C   0  0  0  0  0  0  0  0  0  0  0  0
    3.5819    9.7344    3.8758 C   0  0  0  0  0  0  0  0  0  0  0  0
    3.5204   11.9389   -1.6380 H   0  0  0  0  0  0  0  0  0  0  0  0
    4.0913   13.5888   -1.2538 H   0  0  0  0  0  0  0  0  0  0  0  0
    1.4055   12.3292   -0.4879 H   0  0  0  0  0  0  0  0  0  0  0  0
    1.6624   13.5547   -1.7439 H   0  0  0  0  0  0  0  0  0  0  0  0
    2.3994   15.1901   -0.0239 H   0  0  0  0  0  0  0  0  0  0  0  0
    0.8282   14.5310    0.4423 H   0  0  0  0  0  0  0  0  0  0  0  0
    1.9319   12.8453    1.8812 H   0  0  0  0  0  0  0  0  0  0  0  0
    2.4280   14.4891    2.3782 H   0  0  0  0  0  0  0  0  0  0  0  0
    4.4615   14.2339    0.8606 H   0  0  0  0  0  0  0  0  0  0  0  0
    4.7201   14.0339    3.2070 H   0  0  0  0  0  0  0  0  0  0  0  0
    4.7064   11.9527    4.4461 H   0  0  0  0  0  0  0  0  0  0  0  0
    3.0805   12.3142    3.8380 H   0  0  0  0  0  0  0  0  0  0  0  0
    5.2008    9.3918    1.7818 H   0  0  0  0  0  0  0  0  0  0  0  0
    6.0008   10.0895    3.2168 H   0  0  0  0  0  0  0  0  0  0  0  0
    7.0258   10.9992    1.2663 H   0  0  0  0  0  0  0  0  0  0  0  0
    5.9574   12.4201   -0.3614 H   0  0  0  0  0  0  0  0  0  0  0  0
    5.2328   10.7936   -0.4249 H   0  0  0  0  0  0  0  0  0  0  0  0
    6.7136   12.5134    3.2314 H   0  0  0  0  0  0  0  0  0  0  0  0
    6.6536   13.4441    1.7321 H   0  0  0  0  0  0  0  0  0  0  0  0
    4.2710    9.7145    4.7324 H   0  0  0  0  0  0  0  0  0  0  0  0
    3.5391    8.7452    3.4210 H   0  0  0  0  0  0  0  0  0  0  0  0
    2.5807    9.9840    4.2244 H   0  0  0  0  0  0  0  0  0  0  0  0
  1  3  1  0  0  0  0
  1  5  1  0  0  0  0
  2  1  1  0  0  0  0
  4  6  1  6  0  0  0
  4  1  1  0  0  0  0
  4 10  1  0  0  0  0
  5 12  1  0  0  0  0
  5 17  1  1  0  0  0
  6  7  1  0  0  0  0
  7 20  1  0  0  0  0
  7  8  1  0  0  0  0
  8 23  1  0  0  0  0
  8  9  1  0  0  0  0
  9 24  1  0  0  0  0
  9 25  1  0  0  0  0
 10 26  1  6  0  0  0
 10  9  1  0  0  0  0
 10 11  1  0  0  0  0
 11 27  1  1  0  0  0
 11 12  1  0  0  0  0
 12 29  1  0  0  0  0
 12 28  1  0  0  0  0
 13  5  1  0  0  0  0
 13 31  1  0  0  0  0
 14 32  1  6  0  0  0
 14 16  1  0  0  0  0
 14 13  1  0  0  0  0
 15  4  1  0  0  0  0
 15 14  1  0  0  0  0
 16 11  1  0  0  0  0
 16 35  1  0  0  0  0
 17 39  1  0  0  0  0
 17 37  1  0  0  0  0
 18  6  1  0  0  0  0
 19  6  1  0  0  0  0
 21  7  1  0  0  0  0
 22  8  1  0  0  0  0
 30 13  1  0  0  0  0
 33 15  1  0  0  0  0
 34 15  1  0  0  0  0
 36 16  1  0  0  0  0
 38 17  1  0  0  0  0
M  END
$$$$
