CSD_code = VODYAP | q = 0 | S = 0 | Stoichiometry = C12H22Br2N2Pd | MND = 4
 OpenBabel04212202113D

 39 42  0  0  1  0  0  0  0  0999 V2000
    1.5606   10.4021    4.5261 Pd  0  0  0  0  0  0  0  0  0  0  0  0
   -0.2016    9.0835    5.4127 Br  0  0  0  0  0  0  0  0  0  0  0  0
    1.3183    9.3719    2.3723 Br  0  0  0  0  0  0  0  0  0  0  0  0
    2.8824   10.5136    6.4081 N   0  0  1  0  0  4  0  0  0  0  0  0
    2.8216   12.0710    3.9022 N   0  0  1  0  0  4  0  0  0  0  0  0
    2.4613    9.4860    7.3583 C   0  0  0  0  0  0  0  0  0  0  0  0
    3.1781    9.4016    8.1878 H   0  0  0  0  0  0  0  0  0  0  0  0
    2.3876    8.5205    6.8542 H   0  0  0  0  0  0  0  0  0  0  0  0
    1.4811    9.7357    7.7636 H   0  0  0  0  0  0  0  0  0  0  0  0
    4.1897   10.1305    5.8498 C   0  0  0  0  0  0  0  0  0  0  0  0
    4.0471    9.2297    5.2317 H   0  0  0  0  0  0  0  0  0  0  0  0
    4.8700    9.8679    6.6782 H   0  0  0  0  0  0  0  0  0  0  0  0
    4.8778   11.2231    5.0209 C   0  0  1  0  0  0  0  0  0  0  0  0
    5.8782   10.8538    4.7710 H   0  0  0  0  0  0  0  0  0  0  0  0
    4.1756   11.5576    3.7028 C   0  0  0  0  0  0  0  0  0  0  0  0
    4.7902   12.3056    3.1738 H   0  0  0  0  0  0  0  0  0  0  0  0
    4.1102   10.6661    3.0667 H   0  0  0  0  0  0  0  0  0  0  0  0
    2.2872   12.5915    2.6346 C   0  0  0  0  0  0  0  0  0  0  0  0
    2.3967   11.8252    1.8637 H   0  0  0  0  0  0  0  0  0  0  0  0
    2.8679   13.4755    2.3251 H   0  0  0  0  0  0  0  0  0  0  0  0
    0.8143   12.9702    2.7817 C   0  0  0  0  0  0  0  0  0  0  0  0
    0.4399   13.3287    1.8228 H   0  0  0  0  0  0  0  0  0  0  0  0
    0.2304   12.0742    3.0578 H   0  0  0  0  0  0  0  0  0  0  0  0
    0.6497   14.0288    3.8662 C   0  0  0  0  0  0  0  0  0  0  0  0
    1.1360   14.9587    3.5591 H   0  0  0  0  0  0  0  0  0  0  0  0
   -0.4070   14.2400    4.0336 H   0  0  0  0  0  0  0  0  0  0  0  0
    1.2933   13.5083    5.1477 C   0  0  0  0  0  0  0  0  0  0  0  0
    0.7529   12.5978    5.4651 H   0  0  0  0  0  0  0  0  0  0  0  0
    1.2213   14.2469    5.9479 H   0  0  0  0  0  0  0  0  0  0  0  0
    2.7665   13.1665    4.8883 C   0  0  1  0  0  0  0  0  0  0  0  0
    3.2487   14.0522    4.4340 H   0  0  0  0  0  0  0  0  0  0  0  0
    3.5422   12.8937    6.1904 C   0  0  1  0  0  0  0  0  0  0  0  0
    3.5346   13.8271    6.7643 H   0  0  0  0  0  0  0  0  0  0  0  0
    2.9548   11.8021    7.0861 C   0  0  0  0  0  0  0  0  0  0  0  0
    3.5937   11.7218    7.9833 H   0  0  0  0  0  0  0  0  0  0  0  0
    1.9492   12.0716    7.4215 H   0  0  0  0  0  0  0  0  0  0  0  0
    4.9764   12.5010    5.8481 C   0  0  0  0  0  0  0  0  0  0  0  0
    5.4716   13.2887    5.2772 H   0  0  0  0  0  0  0  0  0  0  0  0
    5.5539   12.3320    6.7590 H   0  0  0  0  0  0  0  0  0  0  0  0
  1  2  1  0  0  0  0
  1  4  1  0  0  0  0
  3  1  1  0  0  0  0
  4 34  1  0  0  0  0
  4  6  1  1  0  0  0
  5 18  1  6  0  0  0
  5  1  1  0  0  0  0
  5 30  1  0  0  0  0
  6  9  1  0  0  0  0
  6  7  1  0  0  0  0
  8  6  1  0  0  0  0
 10  4  1  0  0  0  0
 10 12  1  0  0  0  0
 11 10  1  0  0  0  0
 13 14  1  6  0  0  0
 13 37  1  0  0  0  0
 13 10  1  0  0  0  0
 15  5  1  0  0  0  0
 15 13  1  0  0  0  0
 16 15  1  0  0  0  0
 17 15  1  0  0  0  0
 18 21  1  0  0  0  0
 19 18  1  0  0  0  0
 20 18  1  0  0  0  0
 21 23  1  0  0  0  0
 21 24  1  0  0  0  0
 22 21  1  0  0  0  0
 24 26  1  0  0  0  0
 24 27  1  0  0  0  0
 25 24  1  0  0  0  0
 27 28  1  0  0  0  0
 27 29  1  0  0  0  0
 30 31  1  6  0  0  0
 30 27  1  0  0  0  0
 30 32  1  0  0  0  0
 32 33  1  1  0  0  0
 32 34  1  0  0  0  0
 34 36  1  0  0  0  0
 34 35  1  0  0  0  0
 37 32  1  0  0  0  0
 37 39  1  0  0  0  0
 38 37  1  0  0  0  0
M  END
$$$$
