CSD_code = VOFXEU | q = 0 | S = 0 | Stoichiometry = C19H35IP2PtSi | MND = 6
 OpenBabel04212202113D

 59 60  0  0  0  0  0  0  0  0999 V2000
    2.1885    2.5573    3.8497 Pt  0  0  0  0  0  0  0  0  0  0  0  0
    0.9577    3.8470    1.7627 I   0  0  0  0  0  0  0  0  0  0  0  0
    0.0261    2.0535    4.7797 P   0  0  0  0  0  4  0  0  0  0  0  0
    1.9275    4.6488    5.1287 P   0  0  0  0  0  4  0  0  0  0  0  0
    6.5536    4.5861    2.3928 Si  0  0  0  0  0  0  0  0  0  0  0  0
    3.9616    3.2057    3.2534 C   0  0  0  0  0  0  0  0  0  0  0  0
    4.9864    3.7677    2.9426 C   0  0  0  0  0  0  0  0  0  0  0  0
    7.3430    5.4283    3.9176 C   0  0  0  0  0  0  0  0  0  0  0  0
    7.5485    4.7074    4.7036 H   0  0  0  0  0  0  0  0  0  0  0  0
    6.6883    6.1892    4.3333 H   0  0  0  0  0  0  0  0  0  0  0  0
    8.2819    5.9100    3.6605 H   0  0  0  0  0  0  0  0  0  0  0  0
    6.1476    5.8952    1.0689 C   0  0  0  0  0  0  0  0  0  0  0  0
    5.5070    6.6764    1.4680 H   0  0  0  0  0  0  0  0  0  0  0  0
    5.6245    5.4453    0.2308 H   0  0  0  0  0  0  0  0  0  0  0  0
    7.0464    6.3694    0.6842 H   0  0  0  0  0  0  0  0  0  0  0  0
    7.7397    3.2657    1.6972 C   0  0  0  0  0  0  0  0  0  0  0  0
    7.9884    2.5234    2.4501 H   0  0  0  0  0  0  0  0  0  0  0  0
    8.6693    3.7076    1.3494 H   0  0  0  0  0  0  0  0  0  0  0  0
    7.2873    2.7440    0.8595 H   0  0  0  0  0  0  0  0  0  0  0  0
    3.1528    1.5579    5.4239 C   0  0  0  0  0  0  0  0  0  0  0  0
    3.1662    0.4782    5.2739 H   0  0  0  0  0  0  0  0  0  0  0  0
    2.6184    1.7690    6.3543 H   0  0  0  0  0  0  0  0  0  0  0  0
    4.1816    1.9002    5.5361 H   0  0  0  0  0  0  0  0  0  0  0  0
    2.4366    0.8368    2.7527 C   0  0  0  0  0  0  0  0  0  0  0  0
    3.6797    0.3102    2.4181 C   0  0  0  0  0  0  0  0  0  0  0  0
    4.5902    0.8046    2.7287 H   0  0  0  0  0  0  0  0  0  0  0  0
    3.7754   -0.8519    1.6715 C   0  0  0  0  0  0  0  0  0  0  0  0
    4.7538   -1.2373    1.4199 H   0  0  0  0  0  0  0  0  0  0  0  0
    2.6429   -1.5292    1.2401 C   0  0  0  0  0  0  0  0  0  0  0  0
    1.4048   -1.0053    1.5770 C   0  0  0  0  0  0  0  0  0  0  0  0
    0.5019   -1.5051    1.2527 H   0  0  0  0  0  0  0  0  0  0  0  0
    1.3061    0.1587    2.3210 C   0  0  0  0  0  0  0  0  0  0  0  0
    0.3129    0.5369    2.5424 H   0  0  0  0  0  0  0  0  0  0  0  0
    2.7619   -2.7755    0.4156 C   0  0  0  0  0  0  0  0  0  0  0  0
    1.8289   -3.3343    0.4163 H   0  0  0  0  0  0  0  0  0  0  0  0
    3.5571   -3.4148    0.7945 H   0  0  0  0  0  0  0  0  0  0  0  0
    3.0033   -2.5171   -0.6158 H   0  0  0  0  0  0  0  0  0  0  0  0
   -0.2885    0.4672    5.6367 C   0  0  0  0  0  0  0  0  0  0  0  0
    0.5310    0.2471    6.3191 H   0  0  0  0  0  0  0  0  0  0  0  0
   -0.3414   -0.3294    4.8950 H   0  0  0  0  0  0  0  0  0  0  0  0
   -1.2261    0.5139    6.1913 H   0  0  0  0  0  0  0  0  0  0  0  0
   -1.5544    2.2847    3.8871 C   0  0  0  0  0  0  0  0  0  0  0  0
   -1.6299    3.3085    3.5228 H   0  0  0  0  0  0  0  0  0  0  0  0
   -2.3867    2.0646    4.5569 H   0  0  0  0  0  0  0  0  0  0  0  0
   -1.5978    1.6230    3.0229 H   0  0  0  0  0  0  0  0  0  0  0  0
   -0.2159    3.2524    6.1732 C   0  0  0  0  0  0  0  0  0  0  0  0
   -1.2614    3.2179    6.4992 H   0  0  0  0  0  0  0  0  0  0  0  0
    0.4103    2.9226    7.0100 H   0  0  0  0  0  0  0  0  0  0  0  0
    0.1845    4.6610    5.7461 C   0  0  0  0  0  0  0  0  0  0  0  0
    0.0851    5.3736    6.5717 H   0  0  0  0  0  0  0  0  0  0  0  0
   -0.4500    5.0022    4.9206 H   0  0  0  0  0  0  0  0  0  0  0  0
    2.0924    6.3001    4.3741 C   0  0  0  0  0  0  0  0  0  0  0  0
    1.4497    6.3748    3.4984 H   0  0  0  0  0  0  0  0  0  0  0  0
    3.1278    6.4173    4.0521 H   0  0  0  0  0  0  0  0  0  0  0  0
    1.8348    7.0751    5.0967 H   0  0  0  0  0  0  0  0  0  0  0  0
    2.8951    4.8946    6.6663 C   0  0  0  0  0  0  0  0  0  0  0  0
    3.9473    4.9577    6.3891 H   0  0  0  0  0  0  0  0  0  0  0  0
    2.7671    4.0519    7.3433 H   0  0  0  0  0  0  0  0  0  0  0  0
    2.5906    5.8150    7.1648 H   0  0  0  0  0  0  0  0  0  0  0  0
  1  3  1  0  0  0  0
  1  4  1  0  0  0  0
  1 20  1  0  0  0  0
  2  1  1  0  0  0  0
  3 38  1  0  0  0  0
  3 46  1  0  0  0  0
  4 49  1  0  0  0  0
  4 56  1  0  0  0  0
  5  7  1  0  0  0  0
  5  8  1  0  0  0  0
  6  1  1  0  0  0  0
  7  6  3  0  0  0  0
  8 10  1  0  0  0  0
  8  9  1  0  0  0  0
 11  8  1  0  0  0  0
 12 13  1  0  0  0  0
 12  5  1  0  0  0  0
 14 12  1  0  0  0  0
 15 12  1  0  0  0  0
 16  5  1  0  0  0  0
 16 17  1  0  0  0  0
 18 16  1  0  0  0  0
 19 16  1  0  0  0  0
 20 23  1  0  0  0  0
 20 22  1  0  0  0  0
 21 20  1  0  0  0  0
 24  1  1  0  0  0  0
 25 26  1  0  0  0  0
 25 24  1  0  0  0  0
 27 25  2  0  0  0  0
 28 27  1  0  0  0  0
 29 30  2  0  0  0  0
 29 27  1  0  0  0  0
 30 32  1  0  0  0  0
 31 30  1  0  0  0  0
 32 33  1  0  0  0  0
 32 24  2  0  0  0  0
 34 35  1  0  0  0  0
 34 36  1  0  0  0  0
 34 29  1  0  0  0  0
 37 34  1  0  0  0  0
 38 41  1  0  0  0  0
 38 39  1  0  0  0  0
 40 38  1  0  0  0  0
 42 44  1  0  0  0  0
 42  3  1  0  0  0  0
 43 42  1  0  0  0  0
 45 42  1  0  0  0  0
 46 47  1  0  0  0  0
 46 48  1  0  0  0  0
 49 46  1  0  0  0  0
 49 50  1  0  0  0  0
 51 49  1  0  0  0  0
 52 55  1  0  0  0  0
 52  4  1  0  0  0  0
 53 52  1  0  0  0  0
 54 52  1  0  0  0  0
 56 59  1  0  0  0  0
 56 58  1  0  0  0  0
 57 56  1  0  0  0  0
M  END
$$$$
