CSD_code = VOGBOK | q = 0 | S = 0 | Stoichiometry = C29H25ClN3O6Re | MND = 6
 OpenBabel04212202113D

 65 70  0  0  1  0  0  0  0  0999 V2000
    4.2869    7.8558    4.5288 C   0  0  0  0  0  0  0  0  0  0  0  0
    4.3938    6.8909    4.0253 H   0  0  0  0  0  0  0  0  0  0  0  0
    4.6315    7.7675    5.5620 H   0  0  0  0  0  0  0  0  0  0  0  0
   -0.0567   12.2628    1.5028 C   0  0  0  0  0  0  0  0  0  0  0  0
   -0.6045   13.0635    2.0104 H   0  0  0  0  0  0  0  0  0  0  0  0
   -0.5572   11.9924    0.5724 H   0  0  0  0  0  0  0  0  0  0  0  0
    1.4321   12.6285    1.3301 C   0  0  1  0  0  0  0  0  0  0  0  0
    1.8199   12.3026    0.3540 H   0  0  0  0  0  0  0  0  0  0  0  0
    4.9766    9.0060    3.7629 C   0  0  1  0  0  0  0  0  0  0  0  0
    5.7223    9.5162    4.3812 H   0  0  0  0  0  0  0  0  0  0  0  0
    1.2039   11.0256    2.8527 C   0  0  1  0  0  3  0  0  0  0  0  0
    2.7966    9.4125    3.9356 C   0  0  1  0  0  3  0  0  0  0  0  0
    1.3905    9.9442    3.8828 C   0  0  1  0  0  0  0  0  0  0  0  0
    1.7142   14.0986    1.5024 C   0  0  0  0  0  0  0  0  0  0  0  0
    5.6016    8.5865    2.4534 C   0  0  0  0  0  0  0  0  0  0  0  0
    6.9433    8.8290    2.1973 C   0  0  0  0  0  0  0  0  0  0  0  0
    7.5555    9.3065    2.9469 H   0  0  0  0  0  0  0  0  0  0  0  0
    1.5429   14.7045    2.7423 C   0  0  0  0  0  0  0  0  0  0  0  0
    1.2111   14.1209    3.5868 H   0  0  0  0  0  0  0  0  0  0  0  0
    7.4954    8.4659    0.9816 C   0  0  0  0  0  0  0  0  0  0  0  0
    8.5388    8.6629    0.7885 H   0  0  0  0  0  0  0  0  0  0  0  0
    1.8050   16.0548    2.8903 C   0  0  0  0  0  0  0  0  0  0  0  0
    1.6863   16.5173    3.8585 H   0  0  0  0  0  0  0  0  0  0  0  0
    2.2264   16.8067    1.8073 C   0  0  0  0  0  0  0  0  0  0  0  0
    2.4361   17.8593    1.9275 H   0  0  0  0  0  0  0  0  0  0  0  0
    6.7122    7.8615    0.0140 C   0  0  0  0  0  0  0  0  0  0  0  0
    7.1422    7.5861   -0.9371 H   0  0  0  0  0  0  0  0  0  0  0  0
    2.3838   16.2077    0.5688 C   0  0  0  0  0  0  0  0  0  0  0  0
    2.7135   16.7912   -0.2779 H   0  0  0  0  0  0  0  0  0  0  0  0
    5.3732    7.6159    0.2649 C   0  0  0  0  0  0  0  0  0  0  0  0
    4.7570    7.1489   -0.4890 H   0  0  0  0  0  0  0  0  0  0  0  0
    2.1322   14.8566    0.4161 C   0  0  0  0  0  0  0  0  0  0  0  0
    2.2707   14.3856   -0.5469 H   0  0  0  0  0  0  0  0  0  0  0  0
    4.8201    7.9767    1.4793 C   0  0  0  0  0  0  0  0  0  0  0  0
    3.7703    7.7926    1.6663 H   0  0  0  0  0  0  0  0  0  0  0  0
    1.0867   10.4990    5.3097 C   0  0  0  0  0  0  0  0  0  0  0  0
    1.4511    9.7651    6.0304 H   0  0  0  0  0  0  0  0  0  0  0  0
    1.6576   11.4325    5.4284 H   0  0  0  0  0  0  0  0  0  0  0  0
   -0.3602   10.7517    5.5661 C   0  0  0  0  0  0  0  0  0  0  0  0
   -1.1663    9.8540    6.2399 C   0  0  0  0  0  0  0  0  0  0  0  0
   -0.7324    8.9248    6.5757 H   0  0  0  0  0  0  0  0  0  0  0  0
   -2.4997   10.1320    6.4876 C   0  0  0  0  0  0  0  0  0  0  0  0
   -3.1236    9.4279    7.0125 H   0  0  0  0  0  0  0  0  0  0  0  0
   -3.0036   11.3452    6.0435 C   0  0  0  0  0  0  0  0  0  0  0  0
   -4.0332   11.6176    6.2112 H   0  0  0  0  0  0  0  0  0  0  0  0
   -2.1772   12.2190    5.3813 C   0  0  0  0  0  0  0  0  0  0  0  0
   -2.5059   13.1803    5.0170 H   0  0  0  0  0  0  0  0  0  0  0  0
    0.4547    8.7724    3.5463 C   0  0  0  0  0  0  0  0  0  0  0  0
    0.7177    8.3475    2.5789 H   0  0  0  0  0  0  0  0  0  0  0  0
   -0.5756    9.1140    3.5020 H   0  0  0  0  0  0  0  0  0  0  0  0
    0.5451    7.9981    4.3031 H   0  0  0  0  0  0  0  0  0  0  0  0
    4.5035   13.8502    2.3285 C   0  0  0  0  0  2  0  0  0  0  0  0
    4.6570   11.3569    0.9577 C   0  0  0  0  0  2  0  0  0  0  0  0
    6.1241   11.9605    3.2786 C   0  0  0  0  0  2  0  0  0  0  0  0
    2.0792   11.8009    2.3499 N   0  0  1  0  0  0  0  0  0  0  0  0
    3.8729    9.9288    3.5016 N   0  0  1  0  0  0  0  0  0  0  0  0
   -0.8774   11.9374    5.1396 N   0  3  0  0  0  0  0  0  0  0  0  0
   -0.0386   11.1248    2.3595 O   0  0  0  0  0  0  0  0  0  0  0  0
    2.9091    8.2153    4.5377 O   0  0  0  0  0  0  0  0  0  0  0  0
   -0.1601   12.7678    4.5255 O   0  5  0  0  0  0  0  0  0  0  0  0
    4.7277   14.9645    2.1854 O   0  0  0  0  0  1  0  0  0  0  0  0
    4.8906   10.9800   -0.1058 O   0  0  0  0  0  1  0  0  0  0  0  0
    7.2111   11.9469    3.6517 O   0  0  0  0  0  1  0  0  0  0  0  0
    3.6351   12.5372    4.9558 Cl  0  0  0  0  0  0  0  0  0  0  0  0
    4.2599   11.9659    2.7547 Re  0  0  0  0  0  0  0  0  0  0  0  0
  1 59  1  0  0  0  0
  1  3  1  0  0  0  0
  2  1  1  0  0  0  0
  4  5  1  0  0  0  0
  4 58  1  0  0  0  0
  6  4  1  0  0  0  0
  7  8  1  6  0  0  0
  7 14  1  0  0  0  0
  7  4  1  0  0  0  0
  7 55  1  0  0  0  0
  9 10  1  1  0  0  0
  9  1  1  0  0  0  0
 11 58  1  6  0  0  0
 11 13  1  0  0  0  0
 12 59  1  1  0  0  0
 13 12  1  0  0  0  0
 13 36  1  0  0  0  0
 14 18  1  0  0  0  0
 15  9  1  0  0  0  0
 16 15  1  0  0  0  0
 16 17  1  0  0  0  0
 18 22  2  0  0  0  0
 18 19  1  0  0  0  0
 20 16  2  0  0  0  0
 21 20  1  0  0  0  0
 22 23  1  0  0  0  0
 24 25  1  0  0  0  0
 24 22  1  0  0  0  0
 26 30  2  0  0  0  0
 26 20  1  0  0  0  0
 27 26  1  0  0  0  0
 28 24  2  0  0  0  0
 29 28  1  0  0  0  0
 30 34  1  0  0  0  0
 31 30  1  0  0  0  0
 32 28  1  0  0  0  0
 32 14  2  0  0  0  0
 33 32  1  0  0  0  0
 34 35  1  0  0  0  0
 34 15  2  0  0  0  0
 36 38  1  0  0  0  0
 36 39  1  0  0  0  0
 36 37  1  0  0  0  0
 39 40  1  0  0  0  0
 40 42  2  0  0  0  0
 40 41  1  0  0  0  0
 42 43  1  0  0  0  0
 44 45  1  0  0  0  0
 44 42  1  0  0  0  0
 46 44  2  0  0  0  0
 47 46  1  0  0  0  0
 48 13  1  0  0  0  0
 48 51  1  0  0  0  0
 49 48  1  0  0  0  0
 50 48  1  0  0  0  0
 52 65  1  0  0  0  0
 53 65  1  0  0  0  0
 54 63  1  0  0  0  0
 55 65  1  0  0  0  0
 55 11  1  0  0  0  0
 56  9  1  0  0  0  0
 56 12  1  0  0  0  0
 57 46  1  0  0  0  0
 57 39  2  0  0  0  0
 60 57  1  0  0  0  0
 61 52  1  0  0  0  0
 62 53  1  0  0  0  0
 65 54  1  0  0  0  0
 65 56  1  0  0  0  0
 65 64  1  0  0  0  0
M  CHG  2  57   1  60  -1
M  END
$$$$
