CSD_code = VOGDUT | q = 0 | S = 0 | Stoichiometry = C32H31ClN4Pt | MND = 6
 OpenBabel04212202113D

 69 76  0  0  1  0  0  0  0  0999 V2000
   12.4221    7.8731    9.1150 Pt  0  0  0  0  0  0  0  0  0  0  0  0
   11.5312    5.6124    9.3029 Cl  0  0  0  0  0  0  0  0  0  0  0  0
   12.0413    7.6742    7.1833 N   0  0  0  0  0  0  0  0  0  0  0  0
   13.2499    8.3459   13.2063 N   0  0  0  0  0  0  0  0  0  0  0  0
   13.5727    9.4982   12.6582 N   0  0  0  0  0  2  0  0  0  0  0  0
   13.3153    9.3430   11.3817 N   0  0  0  0  0  0  0  0  0  0  0  0
   10.4726    8.6259    9.0875 C   0  0  0  0  0  0  0  0  0  0  0  0
    9.6583    9.1393   10.0853 C   0  0  0  0  0  0  0  0  0  0  0  0
   10.0297    9.2066   11.1015 H   0  0  0  0  0  0  0  0  0  0  0  0
    8.3608    9.5741    9.8332 C   0  0  0  0  0  0  0  0  0  0  0  0
    7.8671    9.4984    8.5360 C   0  0  0  0  0  0  0  0  0  0  0  0
    6.8617    9.8365    8.3263 H   0  0  0  0  0  0  0  0  0  0  0  0
    8.6474    8.9935    7.5177 C   0  0  0  0  0  0  0  0  0  0  0  0
    8.2436    8.9432    6.5167 H   0  0  0  0  0  0  0  0  0  0  0  0
    9.9451    8.5547    7.7782 C   0  0  0  0  0  0  0  0  0  0  0  0
   10.8122    7.9813    6.7517 C   0  0  2  0  0  3  0  0  0  0  0  0
   10.4698    7.7109    5.4268 C   0  0  0  0  0  0  0  0  0  0  0  0
    9.4860    7.9462    5.0557 H   0  0  0  0  0  0  0  0  0  0  0  0
   11.4078    7.1158    4.6008 C   0  0  0  0  0  0  0  0  0  0  0  0
   11.1568    6.8956    3.5733 H   0  0  0  0  0  0  0  0  0  0  0  0
   12.6595    6.7842    5.0902 C   0  0  0  0  0  0  0  0  0  0  0  0
   13.3824    6.2984    4.4559 H   0  0  0  0  0  0  0  0  0  0  0  0
   12.9619    7.0717    6.4213 C   0  0  0  0  0  0  0  0  0  0  0  0
   14.2046    6.7571    7.1227 C   0  0  0  0  0  0  0  0  0  0  0  0
   14.2507    7.0655    8.5024 C   0  0  0  0  0  0  0  0  0  0  0  0
   15.4096    6.7493    9.1940 C   0  0  0  0  0  0  0  0  0  0  0  0
   15.4849    6.9735   10.2519 H   0  0  0  0  0  0  0  0  0  0  0  0
   16.5006    6.1409    8.5790 C   0  0  0  0  0  0  0  0  0  0  0  0
   16.4310    5.8513    7.2224 C   0  0  0  0  0  0  0  0  0  0  0  0
   17.2706    5.3795    6.7310 H   0  0  0  0  0  0  0  0  0  0  0  0
   15.2964    6.1557    6.4990 C   0  0  0  0  0  0  0  0  0  0  0  0
   15.2622    5.9184    5.4454 H   0  0  0  0  0  0  0  0  0  0  0  0
   17.7319    5.8245    9.3728 C   0  0  0  0  0  0  0  0  0  0  0  0
   18.3626    5.1115    8.8468 H   0  0  0  0  0  0  0  0  0  0  0  0
   17.4669    5.4114   10.3445 H   0  0  0  0  0  0  0  0  0  0  0  0
   18.3108    6.7335    9.5419 H   0  0  0  0  0  0  0  0  0  0  0  0
    7.5004   10.0948   10.9440 C   0  0  0  0  0  0  0  0  0  0  0  0
    6.8127   10.8551   10.5792 H   0  0  0  0  0  0  0  0  0  0  0  0
    8.1073   10.5189   11.7411 H   0  0  0  0  0  0  0  0  0  0  0  0
    6.9090    9.2809   11.3658 H   0  0  0  0  0  0  0  0  0  0  0  0
   12.8202    8.1090   11.0656 C   0  0  0  0  0  0  0  0  0  0  0  0
   12.7818    7.4588   12.2960 C   0  0  0  0  0  0  0  0  0  0  0  0
   13.4044    8.1649   14.6204 C   0  0  0  0  0  0  0  0  0  0  0  0
   13.8471    9.0728   15.0243 H   0  0  0  0  0  0  0  0  0  0  0  0
   14.0555    7.3148   14.8247 H   0  0  0  0  0  0  0  0  0  0  0  0
   12.4346    7.9925   15.0899 H   0  0  0  0  0  0  0  0  0  0  0  0
   12.4111    6.0575   12.6022 C   0  0  0  0  0  0  0  0  0  0  0  0
   11.5772    5.7786   11.9554 H   0  0  0  0  0  0  0  0  0  0  0  0
   12.1131    5.9486   13.6468 H   0  0  0  0  0  0  0  0  0  0  0  0
   13.5856    5.1236   12.2762 C   0  0  0  0  0  0  0  0  0  0  0  0
   13.8274    5.2466   11.2195 H   0  0  0  0  0  0  0  0  0  0  0  0
   14.4641    5.4020   12.8671 H   0  0  0  0  0  0  0  0  0  0  0  0
   13.2301    3.6643   12.5347 C   0  0  0  0  0  0  0  0  0  0  0  0
   12.9661    3.5268   13.5871 H   0  0  0  0  0  0  0  0  0  0  0  0
   12.3589    3.4079   11.9307 H   0  0  0  0  0  0  0  0  0  0  0  0
   14.3863    2.7416   12.1713 C   0  0  0  0  0  0  0  0  0  0  0  0
   14.6383    2.8559   11.1198 H   0  0  0  0  0  0  0  0  0  0  0  0
   14.1186    1.7031   12.3503 H   0  0  0  0  0  0  0  0  0  0  0  0
   15.2689    2.9757   12.7645 H   0  0  0  0  0  0  0  0  0  0  0  0
   13.5028   10.2674   10.3575 C   0  0  0  0  0  0  0  0  0  0  0  0
   13.1459    9.7796    9.0901 C   0  0  0  0  0  0  0  0  0  0  0  0
   13.3066   10.6414    8.0144 C   0  0  0  0  0  0  0  0  0  0  0  0
   13.0474   10.3207    7.0142 H   0  0  0  0  0  0  0  0  0  0  0  0
   13.8006   11.9231    8.2042 C   0  0  0  0  0  0  0  0  0  0  0  0
   13.9180   12.5783    7.3533 H   0  0  0  0  0  0  0  0  0  0  0  0
   14.1453   12.3768    9.4698 C   0  0  0  0  0  0  0  0  0  0  0  0
   14.5278   13.3776    9.5997 H   0  0  0  0  0  0  0  0  0  0  0  0
   13.9985   11.5467   10.5642 C   0  0  0  0  0  0  0  0  0  0  0  0
   14.2567   11.8669   11.5618 H   0  0  0  0  0  0  0  0  0  0  0  0
  1  2  1  0  0  0  0
  1 41  1  0  0  0  0
  3  1  1  0  0  0  0
  4 43  1  0  0  0  0
  5  4  1  0  0  0  0
  6  5  1  0  0  0  0
  7  1  1  0  0  0  0
  7  8  1  0  0  0  0
  8  9  1  0  0  0  0
 10  8  2  0  0  0  0
 10 37  1  0  0  0  0
 11 10  1  0  0  0  0
 12 11  1  0  0  0  0
 13 15  1  0  0  0  0
 13 11  2  0  0  0  0
 14 13  1  0  0  0  0
 15  7  2  0  0  0  0
 16 17  1  1  0  0  0
 16  3  1  0  0  0  0
 16 15  1  0  0  0  0
 18 17  1  0  0  0  0
 19 21  1  0  0  0  0
 19 17  2  0  0  0  0
 20 19  1  0  0  0  0
 21 23  2  0  0  0  0
 22 21  1  0  0  0  0
 23 24  1  0  0  0  0
 23  3  1  0  0  0  0
 24 25  1  0  0  0  0
 25  1  1  0  0  0  0
 25 26  2  0  0  0  0
 26 27  1  0  0  0  0
 28 26  1  0  0  0  0
 28 33  1  0  0  0  0
 29 28  2  0  0  0  0
 30 29  1  0  0  0  0
 31 24  2  0  0  0  0
 31 29  1  0  0  0  0
 32 31  1  0  0  0  0
 33 36  1  0  0  0  0
 33 35  1  0  0  0  0
 34 33  1  0  0  0  0
 37 40  1  0  0  0  0
 37 39  1  0  0  0  0
 38 37  1  0  0  0  0
 41  6  1  0  0  0  0
 41 42  2  0  0  0  0
 42 47  1  0  0  0  0
 42  4  1  0  0  0  0
 43 45  1  0  0  0  0
 43 44  1  0  0  0  0
 43 46  1  0  0  0  0
 47 49  1  0  0  0  0
 48 47  1  0  0  0  0
 50 53  1  0  0  0  0
 50 47  1  0  0  0  0
 50 52  1  0  0  0  0
 51 50  1  0  0  0  0
 53 54  1  0  0  0  0
 55 53  1  0  0  0  0
 56 58  1  0  0  0  0
 56 53  1  0  0  0  0
 56 59  1  0  0  0  0
 57 56  1  0  0  0  0
 60 68  1  0  0  0  0
 60  6  1  0  0  0  0
 61  1  1  0  0  0  0
 61 60  2  0  0  0  0
 62 64  2  0  0  0  0
 62 61  1  0  0  0  0
 63 62  1  0  0  0  0
 64 66  1  0  0  0  0
 65 64  1  0  0  0  0
 66 67  1  0  0  0  0
 66 68  2  0  0  0  0
 68 69  1  0  0  0  0
M  END
$$$$
