CSD_code = VOGFED | q = 0 | S = 0 | Stoichiometry = C27H38IIrP2 | MND = 5
 OpenBabel04212202113D

 69 73  0  0  0  0  0  0  0  0999 V2000
    0.8586    7.3837    3.0902 Ir  0  0  0  0  0  0  0  0  0  0  0  0
   -0.2287    9.1035    4.7888 I   0  0  0  0  0  0  0  0  0  0  0  0
    1.0814    8.9202    1.3843 P   0  0  0  0  0  4  0  0  0  0  0  0
    1.2222    5.7418    4.6664 P   0  0  0  0  0  4  0  0  0  0  0  0
    2.1537    8.0153    0.2298 C   0  0  0  0  0  0  0  0  0  0  0  0
    2.5160    8.4317   -1.0230 C   0  0  0  0  0  0  0  0  0  0  0  0
    2.1139    9.3407   -1.4464 H   0  0  0  0  0  0  0  0  0  0  0  0
    3.4197    7.6697   -1.7873 C   0  0  0  0  0  0  0  0  0  0  0  0
    3.7026    8.0216   -2.7691 H   0  0  0  0  0  0  0  0  0  0  0  0
    3.9338    6.5078   -1.2956 C   0  0  0  0  0  0  0  0  0  0  0  0
    4.6327    5.9259   -1.8799 H   0  0  0  0  0  0  0  0  0  0  0  0
    3.5540    6.0160   -0.0213 C   0  0  0  0  0  0  0  0  0  0  0  0
    4.0133    4.7955    0.4649 C   0  0  0  0  0  0  0  0  0  0  0  0
    4.6907    4.2042   -0.1352 H   0  0  0  0  0  0  0  0  0  0  0  0
    3.5829    4.3081    1.6953 C   0  0  0  0  0  0  0  0  0  0  0  0
    3.9905    3.0428    2.1886 C   0  0  0  0  0  0  0  0  0  0  0  0
    4.6815    2.4616    1.5944 H   0  0  0  0  0  0  0  0  0  0  0  0
    3.5148    2.5567    3.3691 C   0  0  0  0  0  0  0  0  0  0  0  0
    3.8199    1.5822    3.7227 H   0  0  0  0  0  0  0  0  0  0  0  0
    2.6285    3.3208    4.1520 C   0  0  0  0  0  0  0  0  0  0  0  0
    2.2664    2.9076    5.0825 H   0  0  0  0  0  0  0  0  0  0  0  0
    2.2356    4.5616    3.7295 C   0  0  0  0  0  0  0  0  0  0  0  0
    2.6751    5.0857    2.4787 C   0  0  0  0  0  0  0  0  0  0  0  0
    2.1998    6.3258    2.0169 C   0  0  0  0  0  0  0  0  0  0  0  0
    2.6402    6.7862    0.7637 C   0  0  0  0  0  0  0  0  0  0  0  0
   -0.2067    9.7344    0.3137 C   0  0  0  0  0  0  0  0  0  0  0  0
    0.3295   10.3545   -0.4150 H   0  0  0  0  0  0  0  0  0  0  0  0
   -1.1146   10.6158    1.1657 C   0  0  0  0  0  0  0  0  0  0  0  0
   -1.8856   11.0693    0.5446 H   0  0  0  0  0  0  0  0  0  0  0  0
   -0.5593   11.4144    1.6529 H   0  0  0  0  0  0  0  0  0  0  0  0
   -1.6047   10.0231    1.9353 H   0  0  0  0  0  0  0  0  0  0  0  0
   -1.0248    8.6936   -0.4431 C   0  0  0  0  0  0  0  0  0  0  0  0
   -1.6518    8.1315    0.2441 H   0  0  0  0  0  0  0  0  0  0  0  0
   -0.3776    7.9987   -0.9771 H   0  0  0  0  0  0  0  0  0  0  0  0
   -1.6722    9.1857   -1.1678 H   0  0  0  0  0  0  0  0  0  0  0  0
    2.1366   10.3681    1.9223 C   0  0  0  0  0  0  0  0  0  0  0  0
    1.4984   10.9556    2.5956 H   0  0  0  0  0  0  0  0  0  0  0  0
    2.6479   11.2703    0.8061 C   0  0  0  0  0  0  0  0  0  0  0  0
    3.2567   12.0632    1.2395 H   0  0  0  0  0  0  0  0  0  0  0  0
    1.8362   11.7417    0.2573 H   0  0  0  0  0  0  0  0  0  0  0  0
    3.2716   10.7099    0.1121 H   0  0  0  0  0  0  0  0  0  0  0  0
    3.3053    9.8134    2.7322 C   0  0  0  0  0  0  0  0  0  0  0  0
    3.9228    9.1535    2.1220 H   0  0  0  0  0  0  0  0  0  0  0  0
    2.9386    9.2533    3.5937 H   0  0  0  0  0  0  0  0  0  0  0  0
    3.9311   10.6219    3.1075 H   0  0  0  0  0  0  0  0  0  0  0  0
   -0.0009    4.7093    5.6147 C   0  0  0  0  0  0  0  0  0  0  0  0
    0.5829    4.0170    6.2332 H   0  0  0  0  0  0  0  0  0  0  0  0
   -0.8843    3.8966    4.6745 C   0  0  0  0  0  0  0  0  0  0  0  0
   -1.5024    3.2090    5.2503 H   0  0  0  0  0  0  0  0  0  0  0  0
   -0.2840    3.3160    3.9753 H   0  0  0  0  0  0  0  0  0  0  0  0
   -1.5429    4.5521    4.1106 H   0  0  0  0  0  0  0  0  0  0  0  0
   -0.8504    5.6081    6.5080 C   0  0  0  0  0  0  0  0  0  0  0  0
   -1.4451    6.2880    5.9020 H   0  0  0  0  0  0  0  0  0  0  0  0
   -0.2369    6.2058    7.1792 H   0  0  0  0  0  0  0  0  0  0  0  0
   -1.5306    5.0069    7.1095 H   0  0  0  0  0  0  0  0  0  0  0  0
    2.4117    6.3239    5.9921 C   0  0  0  0  0  0  0  0  0  0  0  0
    1.9340    7.2052    6.4409 H   0  0  0  0  0  0  0  0  0  0  0  0
    3.7022    6.7618    5.3012 C   0  0  0  0  0  0  0  0  0  0  0  0
    4.3254    7.3394    5.9823 H   0  0  0  0  0  0  0  0  0  0  0  0
    3.4924    7.3763    4.4252 H   0  0  0  0  0  0  0  0  0  0  0  0
    4.2684    5.8937    4.9658 H   0  0  0  0  0  0  0  0  0  0  0  0
    2.7306    5.3222    7.0958 C   0  0  0  0  0  0  0  0  0  0  0  0
    3.1318    4.4003    6.6789 H   0  0  0  0  0  0  0  0  0  0  0  0
    1.8602    5.0925    7.7051 H   0  0  0  0  0  0  0  0  0  0  0  0
    3.4894    5.7491    7.7510 H   0  0  0  0  0  0  0  0  0  0  0  0
   -0.4640    6.1728    1.9885 C   0  0  0  0  0  0  0  0  0  0  0  0
   -1.4737    6.4685    2.2936 H   0  0  0  0  0  0  0  0  0  0  0  0
   -0.3299    5.1114    2.1896 H   0  0  0  0  0  0  0  0  0  0  0  0
   -0.3651    6.3094    0.9131 H   0  0  0  0  0  0  0  0  0  0  0  0
  1  4  1  0  0  0  0
  1  2  1  0  0  0  0
  3 36  1  0  0  0  0
  3  1  1  0  0  0  0
  4 46  1  0  0  0  0
  4 56  1  0  0  0  0
  5 25  1  0  0  0  0
  5  3  1  0  0  0  0
  6  5  2  0  0  0  0
  7  6  1  0  0  0  0
  8 10  2  0  0  0  0
  8  6  1  0  0  0  0
  9  8  1  0  0  0  0
 10 12  1  0  0  0  0
 11 10  1  0  0  0  0
 12 13  2  0  0  0  0
 12 25  1  0  0  0  0
 13 15  1  0  0  0  0
 14 13  1  0  0  0  0
 15 16  2  0  0  0  0
 15 23  1  0  0  0  0
 16 18  1  0  0  0  0
 17 16  1  0  0  0  0
 18 19  1  0  0  0  0
 18 20  2  0  0  0  0
 20 21  1  0  0  0  0
 22 20  1  0  0  0  0
 22  4  1  0  0  0  0
 23 22  2  0  0  0  0
 24 23  1  0  0  0  0
 24  1  1  0  0  0  0
 25 24  2  0  0  0  0
 26 28  1  0  0  0  0
 26  3  1  0  0  0  0
 27 26  1  0  0  0  0
 28 30  1  0  0  0  0
 28 31  1  0  0  0  0
 29 28  1  0  0  0  0
 32 33  1  0  0  0  0
 32 26  1  0  0  0  0
 34 32  1  0  0  0  0
 35 32  1  0  0  0  0
 36 37  1  0  0  0  0
 36 42  1  0  0  0  0
 38 39  1  0  0  0  0
 38 36  1  0  0  0  0
 40 38  1  0  0  0  0
 41 38  1  0  0  0  0
 42 45  1  0  0  0  0
 42 44  1  0  0  0  0
 43 42  1  0  0  0  0
 46 47  1  0  0  0  0
 46 52  1  0  0  0  0
 48 49  1  0  0  0  0
 48 46  1  0  0  0  0
 50 48  1  0  0  0  0
 51 48  1  0  0  0  0
 52 55  1  0  0  0  0
 52 54  1  0  0  0  0
 53 52  1  0  0  0  0
 56 57  1  0  0  0  0
 56 62  1  0  0  0  0
 58 59  1  0  0  0  0
 58 56  1  0  0  0  0
 60 58  1  0  0  0  0
 61 58  1  0  0  0  0
 62 64  1  0  0  0  0
 62 65  1  0  0  0  0
 63 62  1  0  0  0  0
 66 68  1  0  0  0  0
 66 67  1  0  0  0  0
 66  1  1  0  0  0  0
 69 66  1  0  0  0  0
M  END
$$$$
