CSD_code = VOGHUU | q = 0 | S = 0 | Stoichiometry = C24H22ClOPZr | MND = 12
 OpenBabel04212202113D

 50 52  0  0  1  0  0  0  0  0999 V2000
    0.0486    3.1288    0.8590 Zr  0  0  0  0  0  0  0  0  0  0  0  0
   -0.6534    1.0302    1.6629 Cl  0  0  0  0  0  0  0  0  0  0  0  0
    1.2358    1.6127   -3.1946 P   0  0  0  0  0  0  0  0  0  0  0  0
    0.8604    2.4796   -0.6904 O   0  0  0  0  0  0  0  0  0  0  0  0
    0.9239    4.3194    2.9020 C   0  0  0  0  0  0  0  0  0  0  0  0
    1.6382    4.8272    1.7889 C   0  0  0  0  0  0  0  0  0  0  0  0
    2.4375    3.7812    1.2725 C   0  0  0  0  0  0  0  0  0  0  0  0
    2.1975    2.6246    2.0477 C   0  0  0  0  0  0  0  0  0  0  0  0
    1.2690    2.9631    3.0588 C   0  0  0  0  0  3  0  0  0  0  0  0
   -2.1623    4.0482    1.5216 C   0  0  0  0  0  0  0  0  0  0  0  0
   -1.4031    5.1751    1.1398 C   0  0  0  0  0  0  0  0  0  0  0  0
   -1.1147    5.0654   -0.2388 C   0  0  0  0  0  0  0  0  0  0  0  0
   -1.7294    3.8844   -0.7208 C   0  0  0  0  0  0  0  0  0  0  0  0
   -2.3782    3.2597    0.3666 C   0  0  1  0  0  0  0  0  0  0  0  0
   -0.5336    1.1906   -2.8755 C   0  0  0  0  0  0  0  0  0  0  0  0
   -0.9681    0.5894   -1.6960 C   0  0  0  0  0  0  0  0  0  0  0  0
   -2.3207    0.3791   -1.4870 C   0  0  0  0  0  0  0  0  0  0  0  0
   -3.2473    0.7681   -2.4418 C   0  0  0  0  0  0  0  0  0  0  0  0
   -2.8194    1.3633   -3.6171 C   0  0  0  0  0  0  0  0  0  0  0  0
   -1.4686    1.5741   -3.8324 C   0  0  0  0  0  0  0  0  0  0  0  0
    2.0223    0.2985   -2.1775 C   0  0  0  0  0  0  0  0  0  0  0  0
    2.9965    0.5905   -1.2283 C   0  0  0  0  0  0  0  0  0  0  0  0
    3.5823   -0.4280   -0.4977 C   0  0  0  0  0  0  0  0  0  0  0  0
    3.2193   -1.7455   -0.7206 C   0  0  0  0  0  0  0  0  0  0  0  0
    2.2772   -2.0456   -1.6909 C   0  0  0  0  0  0  0  0  0  0  0  0
    1.6863   -1.0309   -2.4196 C   0  0  0  0  0  0  0  0  0  0  0  0
    1.2393    2.9286   -1.8694 C   0  0  0  0  0  0  0  0  0  0  0  0
    1.5931    4.1913   -2.1313 C   0  0  0  0  0  0  0  0  0  0  0  0
    0.3380    4.9032    3.6024 H   0  0  0  0  0  0  0  0  0  0  0  0
    1.6928    5.8686    1.4915 H   0  0  0  0  0  0  0  0  0  0  0  0
    3.1897    3.8806    0.4984 H   0  0  0  0  0  0  0  0  0  0  0  0
    2.7034    1.6711    1.9457 H   0  0  0  0  0  0  0  0  0  0  0  0
    0.9577    2.3163    3.8707 H   0  0  0  0  0  0  0  0  0  0  0  0
   -2.6219    3.8840    2.4903 H   0  0  0  0  0  0  0  0  0  0  0  0
   -1.1993    6.0422    1.7558 H   0  0  0  0  0  0  0  0  0  0  0  0
   -0.6659    5.8361   -0.8531 H   0  0  0  0  0  0  0  0  0  0  0  0
   -1.7985    3.5846   -1.7600 H   0  0  0  0  0  0  0  0  0  0  0  0
   -3.0174    2.3879    0.3082 H   0  0  0  0  0  0  0  0  0  0  0  0
   -0.2555    0.2562   -0.9509 H   0  0  0  0  0  0  0  0  0  0  0  0
   -2.6434   -0.0994   -0.5731 H   0  0  0  0  0  0  0  0  0  0  0  0
   -4.3015    0.6020   -2.2740 H   0  0  0  0  0  0  0  0  0  0  0  0
   -3.5380    1.6622   -4.3665 H   0  0  0  0  0  0  0  0  0  0  0  0
   -1.1281    2.0381   -4.7483 H   0  0  0  0  0  0  0  0  0  0  0  0
    3.2968    1.6167   -1.0587 H   0  0  0  0  0  0  0  0  0  0  0  0
    4.3288   -0.1927    0.2478 H   0  0  0  0  0  0  0  0  0  0  0  0
    3.6732   -2.5372   -0.1431 H   0  0  0  0  0  0  0  0  0  0  0  0
    1.9999   -3.0731   -1.8765 H   0  0  0  0  0  0  0  0  0  0  0  0
    0.9463   -1.2630   -3.1741 H   0  0  0  0  0  0  0  0  0  0  0  0
    1.9006    4.4776   -3.1204 H   0  0  0  0  0  0  0  0  0  0  0  0
    1.5989    4.9491   -1.3551 H   0  0  0  0  0  0  0  0  0  0  0  0
  1  2  1  0  0  0  0
  3 15  1  0  0  0  0
  3 21  1  0  0  0  0
  3 27  1  0  0  0  0
  4  1  1  0  0  0  0
  5  9  1  0  0  0  0
  5 29  1  0  0  0  0
  6  5  2  0  0  0  0
  7  6  1  0  0  0  0
  7  8  2  0  0  0  0
  8  9  1  0  0  0  0
  9 33  1  0  0  0  0
 10 34  1  0  0  0  0
 11 10  2  0  0  0  0
 11 35  1  0  0  0  0
 12 11  1  0  0  0  0
 13 12  2  0  0  0  0
 13 14  1  0  0  0  0
 14 38  1  6  0  0  0
 14  1  1  0  0  0  0
 14 10  1  0  0  0  0
 15 16  1  0  0  0  0
 16 17  2  0  0  0  0
 16 39  1  0  0  0  0
 17 40  1  0  0  0  0
 18 41  1  0  0  0  0
 18 17  1  0  0  0  0
 19 18  2  0  0  0  0
 20 19  1  0  0  0  0
 20 15  2  0  0  0  0
 21 22  1  0  0  0  0
 22 44  1  0  0  0  0
 22 23  2  0  0  0  0
 23 45  1  0  0  0  0
 24 23  1  0  0  0  0
 24 46  1  0  0  0  0
 25 24  2  0  0  0  0
 26 21  2  0  0  0  0
 26 25  1  0  0  0  0
 27  4  1  0  0  0  0
 28 27  2  0  0  0  0
 28 50  1  0  0  0  0
 30  6  1  0  0  0  0
 31  7  1  0  0  0  0
 32  8  1  0  0  0  0
 36 12  1  0  0  0  0
 37 13  1  0  0  0  0
 42 19  1  0  0  0  0
 43 20  1  0  0  0  0
 47 25  1  0  0  0  0
 48 26  1  0  0  0  0
 49 28  1  0  0  0  0
M  END
$$$$
