CSD_code = VOGLUA | q = 0 | S = 0 | Stoichiometry = C22H23Cl2O3PZn | MND = 4
 OpenBabel04212202113D

 52 53  0  0  1  0  0  0  0  0999 V2000
    5.6107    5.9010    6.4374 Zn  0  0  0  0  0  0  0  0  0  0  0  0
    5.0002    7.3936    7.9379 Cl  0  0  0  0  0  0  0  0  0  0  0  0
    3.9941    5.8721    5.0063 O   0  0  0  0  0  0  0  0  0  0  0  0
    3.1628    6.2514    5.3082 H   0  0  0  0  0  0  0  0  0  0  0  0
    3.8596    4.8931    4.9528 H   0  0  0  0  0  0  0  0  0  0  0  0
    4.6006    3.0684    6.5267 C   0  0  0  0  0  0  0  0  0  0  0  0
    7.4674    5.3736    5.4337 Cl  0  0  0  0  0  0  0  0  0  0  0  0
    5.0504    3.9837    7.3076 O   0  0  0  0  0  0  0  0  0  0  0  0
    4.8796    1.6446    7.0150 C   0  0  1  0  0  0  0  0  0  0  0  0
    3.9096    1.1985    7.2634 H   0  0  0  0  0  0  0  0  0  0  0  0
    3.9834    3.2717    5.4948 O   0  0  0  0  0  0  0  0  0  0  0  0
    5.5235    0.8392    5.8887 C   0  0  0  0  0  0  0  0  0  0  0  0
    4.8698    0.8462    5.0205 H   0  0  0  0  0  0  0  0  0  0  0  0
    5.6912   -0.1898    6.1991 H   0  0  0  0  0  0  0  0  0  0  0  0
    6.4745    1.2830    5.6012 H   0  0  0  0  0  0  0  0  0  0  0  0
    5.7660    1.7267    8.2504 C   0  0  0  0  0  0  0  0  0  0  0  0
    6.8076    1.8762    7.9457 H   0  0  0  0  0  0  0  0  0  0  0  0
    5.7067    0.8198    8.8567 H   0  0  0  0  0  0  0  0  0  0  0  0
    5.3170    3.1647    9.3072 P   0  0  0  0  0  0  0  0  0  0  0  0
    3.5375    3.4806    9.3978 C   0  0  0  0  0  0  0  0  0  0  0  0
    3.0072    4.7580    9.2734 C   0  0  0  0  0  0  0  0  0  0  0  0
    3.6580    5.6065    9.1146 H   0  0  0  0  0  0  0  0  0  0  0  0
    1.6340    4.9265    9.3316 C   0  0  0  0  0  0  0  0  0  0  0  0
    1.2181    5.9180    9.2352 H   0  0  0  0  0  0  0  0  0  0  0  0
    0.7994    3.8343    9.5049 C   0  0  0  0  0  0  0  0  0  0  0  0
   -0.2709    3.9725    9.5415 H   0  0  0  0  0  0  0  0  0  0  0  0
    1.3336    2.5612    9.6314 C   0  0  0  0  0  0  0  0  0  0  0  0
    0.6830    1.7100    9.7675 H   0  0  0  0  0  0  0  0  0  0  0  0
    2.7036    2.3814    9.5836 C   0  0  0  0  0  0  0  0  0  0  0  0
    3.1330    1.3943    9.6996 H   0  0  0  0  0  0  0  0  0  0  0  0
    5.6513    2.4432   10.9744 C   0  0  0  0  0  0  0  0  0  0  0  0
    6.9176    1.8973   11.1711 C   0  0  0  0  0  0  0  0  0  0  0  0
    7.6198    1.8785   10.3473 H   0  0  0  0  0  0  0  0  0  0  0  0
    7.2859    1.3943   12.4037 C   0  0  0  0  0  0  0  0  0  0  0  0
    8.2694    0.9706   12.5427 H   0  0  0  0  0  0  0  0  0  0  0  0
    6.3926    1.4419   13.4626 C   0  0  0  0  0  0  0  0  0  0  0  0
    6.6772    1.0503   14.4275 H   0  0  0  0  0  0  0  0  0  0  0  0
    5.1395    2.0008   13.2826 C   0  0  0  0  0  0  0  0  0  0  0  0
    4.4452    2.0498   14.1084 H   0  0  0  0  0  0  0  0  0  0  0  0
    4.7709    2.5044   12.0462 C   0  0  0  0  0  0  0  0  0  0  0  0
    3.7920    2.9439   11.9173 H   0  0  0  0  0  0  0  0  0  0  0  0
    6.4325    4.5774    9.4737 C   0  0  0  0  0  0  0  0  0  0  0  0
    6.1521    5.4816   10.4924 C   0  0  0  0  0  0  0  0  0  0  0  0
    5.2832    5.3326   11.1195 H   0  0  0  0  0  0  0  0  0  0  0  0
    6.9761    6.5749   10.6778 C   0  0  0  0  0  0  0  0  0  0  0  0
    6.7463    7.2952   11.4480 H   0  0  0  0  0  0  0  0  0  0  0  0
    8.0847    6.7530    9.8652 C   0  0  0  0  0  0  0  0  0  0  0  0
    8.7186    7.6159   10.0030 H   0  0  0  0  0  0  0  0  0  0  0  0
    8.3788    5.8328    8.8727 C   0  0  0  0  0  0  0  0  0  0  0  0
    9.2412    5.9683    8.2380 H   0  0  0  0  0  0  0  0  0  0  0  0
    7.5538    4.7385    8.6717 C   0  0  0  0  0  0  0  0  0  0  0  0
    7.7834    4.0285    7.8909 H   0  0  0  0  0  0  0  0  0  0  0  0
  1  2  1  0  0  0  0
  3  4  1  0  0  0  0
  5  3  1  0  0  0  0
  6  9  1  0  0  0  0
  6  8  1  0  0  0  0
  7  1  1  0  0  0  0
  8 19  1  0  0  0  0
  9 10  1  1  0  0  0
  9 16  1  0  0  0  0
 11  6  2  0  0  0  0
 12 14  1  0  0  0  0
 12  9  1  0  0  0  0
 13 12  1  0  0  0  0
 15 12  1  0  0  0  0
 16 18  1  0  0  0  0
 16 19  1  0  0  0  0
 17 16  1  0  0  0  0
 19 20  1  0  0  0  0
 19 42  1  0  0  0  0
 19 31  1  0  0  0  0
 20 29  1  0  0  0  0
 21 23  1  0  0  0  0
 21 20  2  0  0  0  0
 22 21  1  0  0  0  0
 23 25  2  0  0  0  0
 24 23  1  0  0  0  0
 25 26  1  0  0  0  0
 25 27  1  0  0  0  0
 27 28  1  0  0  0  0
 29 27  2  0  0  0  0
 29 30  1  0  0  0  0
 31 32  2  0  0  0  0
 31 40  1  0  0  0  0
 32 34  1  0  0  0  0
 33 32  1  0  0  0  0
 34 35  1  0  0  0  0
 34 36  2  0  0  0  0
 36 37  1  0  0  0  0
 38 36  1  0  0  0  0
 38 39  1  0  0  0  0
 40 38  2  0  0  0  0
 41 40  1  0  0  0  0
 42 43  1  0  0  0  0
 43 45  2  0  0  0  0
 43 44  1  0  0  0  0
 45 46  1  0  0  0  0
 47 48  1  0  0  0  0
 47 45  1  0  0  0  0
 49 47  2  0  0  0  0
 50 49  1  0  0  0  0
 51 49  1  0  0  0  0
 51 42  2  0  0  0  0
 52 51  1  0  0  0  0
M  END
$$$$
