CSD_code = VOGMEK | q = 0 | S = 0 | Stoichiometry = C6H9Br2N4ORe | MND = 6
 OpenBabel04212202113D

 23 22  0  0  0  0  0  0  0  0999 V2000
    2.9786    6.2822    8.4791 Re  0  0  0  0  0  0  0  0  0  0  0  0
    1.8865    6.6710    6.2279 Br  0  0  0  0  0  0  0  0  0  0  0  0
    3.7689    8.7122    8.5924 Br  0  0  0  0  0  0  0  0  0  0  0  0
    3.6855    5.8726   10.0261 N   0  0  0  0  0  2  0  0  0  0  0  0
    4.1327    5.5323   11.0491 O   0  0  0  0  0  1  0  0  0  0  0  0
    4.6744    5.8881    7.4702 N   0  0  0  0  0  2  0  0  0  0  0  0
    5.5361    6.0136    6.7191 C   0  0  0  0  0  2  0  0  0  0  0  0
    6.6082    6.1799    5.7940 C   0  0  0  0  0  0  0  0  0  0  0  0
    6.2249    6.6844    4.9061 H   0  0  0  0  0  0  0  0  0  0  0  0
    7.0252    5.2131    5.5129 H   0  0  0  0  0  0  0  0  0  0  0  0
    7.3825    6.7982    6.2485 H   0  0  0  0  0  0  0  0  0  0  0  0
    1.2562    6.9138    9.3060 N   0  0  0  0  0  2  0  0  0  0  0  0
    0.3395    7.5762    9.5143 C   0  0  0  0  0  2  0  0  0  0  0  0
   -0.7903    8.4060    9.7746 C   0  0  0  0  0  0  0  0  0  0  0  0
   -1.1715    8.7842    8.8254 H   0  0  0  0  0  0  0  0  0  0  0  0
   -0.4809    9.2474   10.3951 H   0  0  0  0  0  0  0  0  0  0  0  0
   -1.5711    7.8404   10.2825 H   0  0  0  0  0  0  0  0  0  0  0  0
    2.2798    4.3724    8.2427 N   0  0  0  0  0  2  0  0  0  0  0  0
    1.7751    3.4222    7.8396 C   0  0  0  0  0  2  0  0  0  0  0  0
    1.1449    2.2440    7.3365 C   0  0  0  0  0  0  0  0  0  0  0  0
    1.8996    1.5153    7.0408 H   0  0  0  0  0  0  0  0  0  0  0  0
    0.5439    2.5138    6.4674 H   0  0  0  0  0  0  0  0  0  0  0  0
    0.5012    1.8109    8.1019 H   0  0  0  0  0  0  0  0  0  0  0  0
  1  3  1  0  0  0  0
  1 12  1  0  0  0  0
  1  4  1  0  0  0  0
  2  1  1  0  0  0  0
  4  5  1  0  0  0  0
  6  1  1  0  0  0  0
  7  6  1  0  0  0  0
  8 11  1  0  0  0  0
  8  7  1  0  0  0  0
  9  8  1  0  0  0  0
 10  8  1  0  0  0  0
 12 13  1  0  0  0  0
 13 14  1  0  0  0  0
 14 17  1  0  0  0  0
 14 16  1  0  0  0  0
 15 14  1  0  0  0  0
 18  1  1  0  0  0  0
 19 18  1  0  0  0  0
 20 19  1  0  0  0  0
 20 23  1  0  0  0  0
 21 20  1  0  0  0  0
 22 20  1  0  0  0  0
M  END
$$$$
