CSD_code = VOGSEQ | q = 0 | S = 0 | Stoichiometry = C22H12ClF3N3O3Re | MND = 6
 OpenBabel04212202113D

 45 49  0  0  1  0  0  0  0  0999 V2000
   11.7961   -2.4623   -1.4307 C   0  0  0  0  0  3  0  0  0  0  0  0
   11.0939   -3.2689   -1.2637 H   0  0  0  0  0  0  0  0  0  0  0  0
   12.7530   -2.5615   -2.4237 C   0  0  0  0  0  0  0  0  0  0  0  0
   12.8119   -3.4504   -3.0302 H   0  0  0  0  0  0  0  0  0  0  0  0
   13.6249   -1.4990   -2.6137 C   0  0  0  0  0  0  0  0  0  0  0  0
   14.3849   -1.5366   -3.3792 H   0  0  0  0  0  0  0  0  0  0  0  0
   13.5012   -0.3880   -1.8048 C   0  0  0  0  0  0  0  0  0  0  0  0
   14.1542    0.4572   -1.9368 H   0  0  0  0  0  0  0  0  0  0  0  0
   12.5214   -0.3667   -0.8114 C   0  0  0  0  0  0  0  0  0  0  0  0
   12.3144    0.7363    0.1000 C   0  0  0  0  0  0  0  0  0  0  0  0
   11.2577    1.7234    1.7303 C   0  0  2  0  0  3  0  0  0  0  0  0
   12.6696    3.7402    1.9132 C   0  0  0  0  0  0  0  0  0  0  0  0
   12.0354    4.1544    2.6806 H   0  0  0  0  0  0  0  0  0  0  0  0
   13.7733    4.3636    1.4319 C   0  0  0  0  0  0  0  0  0  0  0  0
   14.0636    5.3218    1.8294 H   0  0  0  0  0  0  0  0  0  0  0  0
   14.5446    3.7578    0.4123 C   0  0  0  0  0  0  0  0  0  0  0  0
   15.4307    4.2561    0.0542 H   0  0  0  0  0  0  0  0  0  0  0  0
   14.1635    2.5597   -0.1171 C   0  0  0  0  0  0  0  0  0  0  0  0
   14.7430    2.0957   -0.8965 H   0  0  0  0  0  0  0  0  0  0  0  0
   13.0096    1.9201    0.3693 C   0  0  0  0  0  0  0  0  0  0  0  0
   10.2853    1.9874    2.7854 C   0  0  0  0  0  0  0  0  0  0  0  0
   10.7001    2.3427    4.0678 C   0  0  0  0  0  0  0  0  0  0  0  0
   11.7527    2.4088    4.2995 H   0  0  0  0  0  0  0  0  0  0  0  0
    9.7687    2.5590    5.0648 C   0  0  0  0  0  0  0  0  0  0  0  0
   10.0891    2.8249    6.0602 H   0  0  0  0  0  0  0  0  0  0  0  0
    8.4165    2.4260    4.7809 C   0  0  0  0  0  0  0  0  0  0  0  0
    7.9923    2.0545    3.5109 C   0  0  0  0  0  0  0  0  0  0  0  0
    6.9394    1.9403    3.3058 H   0  0  0  0  0  0  0  0  0  0  0  0
    8.9243    1.8347    2.5167 C   0  0  0  0  0  0  0  0  0  0  0  0
    8.6032    1.5450    1.5278 H   0  0  0  0  0  0  0  0  0  0  0  0
    7.3887    2.6563    5.8539 C   0  0  0  0  0  0  0  0  0  0  0  0
    9.6323   -1.0877    2.9076 C   0  0  0  0  0  2  0  0  0  0  0  0
   10.0805   -3.2253    1.2381 C   0  0  0  0  0  2  0  0  0  0  0  0
    8.8006   -0.9296    0.1496 C   0  0  0  0  0  2  0  0  0  0  0  0
   12.5243   -1.6284    2.2191 Cl  0  0  0  0  0  0  0  0  0  0  0  0
    7.8682    3.3543    6.8949 F   0  0  0  0  0  0  0  0  0  0  0  0
    6.9036    1.5099    6.3566 F   0  0  0  0  0  0  0  0  0  0  0  0
    6.3268    3.3438    5.3967 F   0  0  0  0  0  0  0  0  0  0  0  0
   11.6755   -1.4028   -0.6384 N   0  0  0  0  0  0  0  0  0  0  0  0
   11.2549    0.6570    0.9506 N   0  0  0  0  0  0  0  0  0  0  0  0
   12.3091    2.5269    1.4109 N   0  0  0  0  0  0  0  0  0  0  0  0
    9.2960   -0.9651    3.9954 O   0  0  0  0  0  1  0  0  0  0  0  0
    9.9907   -4.3643    1.2997 O   0  0  0  0  0  1  0  0  0  0  0  0
    7.8507   -0.6722   -0.4487 O   0  0  0  0  0  1  0  0  0  0  0  0
   10.4228   -1.3112    1.1401 Re  0  0  0  0  0  0  0  0  0  0  0  0
  1  2  1  0  0  0  0
  1 39  1  0  0  0  0
  3  1  1  0  0  0  0
  4  3  1  0  0  0  0
  5  3  2  0  0  0  0
  5  7  1  0  0  0  0
  6  5  1  0  0  0  0
  7  9  2  0  0  0  0
  8  7  1  0  0  0  0
  9 39  1  0  0  0  0
  9 10  1  0  0  0  0
 10 20  2  0  0  0  0
 10 40  1  0  0  0  0
 11 21  1  1  0  0  0
 12 13  1  0  0  0  0
 14 15  1  0  0  0  0
 14 12  2  0  0  0  0
 16 14  1  0  0  0  0
 17 16  1  0  0  0  0
 18 20  1  0  0  0  0
 18 16  2  0  0  0  0
 19 18  1  0  0  0  0
 20 41  1  0  0  0  0
 21 22  1  0  0  0  0
 22 23  1  0  0  0  0
 22 24  2  0  0  0  0
 24 25  1  0  0  0  0
 26 24  1  0  0  0  0
 26 31  1  0  0  0  0
 27 26  2  0  0  0  0
 28 27  1  0  0  0  0
 29 21  2  0  0  0  0
 29 27  1  0  0  0  0
 30 29  1  0  0  0  0
 31 37  1  0  0  0  0
 31 36  1  0  0  0  0
 32 42  1  0  0  0  0
 33 43  1  0  0  0  0
 34 45  1  0  0  0  0
 38 31  1  0  0  0  0
 39 45  1  0  0  0  0
 40 45  1  0  0  0  0
 40 11  1  0  0  0  0
 41 11  1  0  0  0  0
 41 12  1  0  0  0  0
 44 34  1  0  0  0  0
 45 33  1  0  0  0  0
 45 35  1  0  0  0  0
 45 32  1  0  0  0  0
M  END
$$$$
