CSD_code = VOHBAW | q = 0 | S = 0 | Stoichiometry = C18H24Cl2N4Pt | MND = 4
 OpenBabel04212202113D

 49 50  0  0  1  0  0  0  0  0999 V2000
   -0.0017    0.0009   -0.0014 Pt  0  0  0  0  0  0  0  0  0  0  0  0
   -1.2309    0.4047   -1.9145 Cl  0  0  0  0  0  0  0  0  0  0  0  0
    1.1000    1.5746   -0.6297 N   0  0  0  0  0  0  0  0  0  0  0  0
    0.7384    1.9046   -1.5251 H   0  0  0  0  0  0  0  0  0  0  0  0
    2.7012    2.0212    0.9460 N   0  0  0  0  0  0  0  0  0  0  0  0
    2.3352    1.2022    1.4536 H   0  0  0  0  0  0  0  0  0  0  0  0
    2.0912    2.2936   -0.2019 C   0  0  2  0  0  3  0  0  0  0  0  0
    3.8057    2.7486    1.5064 C   0  0  0  0  0  0  0  0  0  0  0  0
    4.6841    2.7139    0.8551 H   0  0  0  0  0  0  0  0  0  0  0  0
    4.0645    2.2927    2.4578 H   0  0  0  0  0  0  0  0  0  0  0  0
    3.5498    3.7973    1.6820 H   0  0  0  0  0  0  0  0  0  0  0  0
    2.5948    3.4851   -0.9976 C   0  0  0  0  0  0  0  0  0  0  0  0
    2.4891    4.3743   -0.3697 H   0  0  0  0  0  0  0  0  0  0  0  0
    3.6599    3.3386   -1.1933 H   0  0  0  0  0  0  0  0  0  0  0  0
    1.8523    3.6756   -2.2903 C   0  0  0  0  0  0  0  0  0  0  0  0
    0.6033    4.2883   -2.2964 C   0  0  0  0  0  0  0  0  0  0  0  0
    0.1847    4.6538   -1.3694 H   0  0  0  0  0  0  0  0  0  0  0  0
   -0.1085    4.4195   -3.4749 C   0  0  0  0  0  0  0  0  0  0  0  0
   -1.0804    4.8893   -3.4656 H   0  0  0  0  0  0  0  0  0  0  0  0
    0.4211    3.9417   -4.6617 C   0  0  0  0  0  0  0  0  0  0  0  0
   -0.1361    4.0399   -5.5812 H   0  0  0  0  0  0  0  0  0  0  0  0
    1.6645    3.3337   -4.6652 C   0  0  0  0  0  0  0  0  0  0  0  0
    2.0808    2.9574   -5.5879 H   0  0  0  0  0  0  0  0  0  0  0  0
    2.3748    3.1984   -3.4853 C   0  0  0  0  0  0  0  0  0  0  0  0
    3.3409    2.7139   -3.4908 H   0  0  0  0  0  0  0  0  0  0  0  0
    1.2274   -0.4055    1.9127 Cl  0  0  0  0  0  0  0  0  0  0  0  0
   -1.0997   -1.5745    0.6297 N   0  0  0  0  0  0  0  0  0  0  0  0
   -0.7378   -1.9039    1.5252 H   0  0  0  0  0  0  0  0  0  0  0  0
   -2.7010   -2.0213   -0.9456 N   0  0  0  0  0  0  0  0  0  0  0  0
   -2.3352   -1.2024   -1.4534 H   0  0  0  0  0  0  0  0  0  0  0  0
   -2.0909   -2.2937    0.2023 C   0  0  1  0  0  3  0  0  0  0  0  0
   -3.8055   -2.7489   -1.5061 C   0  0  0  0  0  0  0  0  0  0  0  0
   -4.6839   -2.7143   -0.8549 H   0  0  0  0  0  0  0  0  0  0  0  0
   -4.0644   -2.2931   -2.4575 H   0  0  0  0  0  0  0  0  0  0  0  0
   -3.5496   -3.7976   -1.6817 H   0  0  0  0  0  0  0  0  0  0  0  0
   -2.5946   -3.4851    0.9978 C   0  0  0  0  0  0  0  0  0  0  0  0
   -2.4888   -4.3743    0.3697 H   0  0  0  0  0  0  0  0  0  0  0  0
   -3.6598   -3.3387    1.1934 H   0  0  0  0  0  0  0  0  0  0  0  0
   -1.8522   -3.6758    2.2904 C   0  0  0  0  0  0  0  0  0  0  0  0
   -0.6031   -4.2883    2.2965 C   0  0  0  0  0  0  0  0  0  0  0  0
   -0.1845   -4.6537    1.3694 H   0  0  0  0  0  0  0  0  0  0  0  0
    0.1088   -4.4193    3.4749 C   0  0  0  0  0  0  0  0  0  0  0  0
    1.0808   -4.8889    3.4655 H   0  0  0  0  0  0  0  0  0  0  0  0
   -0.4208   -3.9413    4.6617 C   0  0  0  0  0  0  0  0  0  0  0  0
    0.1365   -4.0394    5.5811 H   0  0  0  0  0  0  0  0  0  0  0  0
   -1.6643   -3.3336    4.6653 C   0  0  0  0  0  0  0  0  0  0  0  0
   -2.0806   -2.9574    5.5879 H   0  0  0  0  0  0  0  0  0  0  0  0
   -2.3747   -3.1986    3.4855 C   0  0  0  0  0  0  0  0  0  0  0  0
   -3.3409   -2.7142    3.4909 H   0  0  0  0  0  0  0  0  0  0  0  0
  1 27  1  0  0  0  0
  1 26  1  0  0  0  0
  2  1  1  0  0  0  0
  3  7  1  0  0  0  0
  3  1  1  0  0  0  0
  4  3  1  0  0  0  0
  5  6  1  0  0  0  0
  5  8  1  0  0  0  0
  7 12  1  1  0  0  0
  7  5  1  0  0  0  0
  8 11  1  0  0  0  0
  8 10  1  0  0  0  0
  9  8  1  0  0  0  0
 12 13  1  0  0  0  0
 14 12  1  0  0  0  0
 15 12  1  0  0  0  0
 16 15  1  0  0  0  0
 16 17  1  0  0  0  0
 18 19  1  0  0  0  0
 18 16  2  0  0  0  0
 20 18  1  0  0  0  0
 21 20  1  0  0  0  0
 22 20  2  0  0  0  0
 22 24  1  0  0  0  0
 23 22  1  0  0  0  0
 24 15  2  0  0  0  0
 25 24  1  0  0  0  0
 27 28  1  0  0  0  0
 30 29  1  0  0  0  0
 31 29  1  6  0  0  0
 31 27  1  0  0  0  0
 31 36  1  0  0  0  0
 32 29  1  0  0  0  0
 32 33  1  0  0  0  0
 34 32  1  0  0  0  0
 35 32  1  0  0  0  0
 36 38  1  0  0  0  0
 36 39  1  0  0  0  0
 37 36  1  0  0  0  0
 39 40  2  0  0  0  0
 39 48  1  0  0  0  0
 40 42  1  0  0  0  0
 41 40  1  0  0  0  0
 42 44  2  0  0  0  0
 43 42  1  0  0  0  0
 44 46  1  0  0  0  0
 44 45  1  0  0  0  0
 46 47  1  0  0  0  0
 48 49  1  0  0  0  0
 48 46  2  0  0  0  0
M  END
$$$$
