CSD_code = VOHLUB | q = 0 | S = 0 | Stoichiometry = C19H19Cl2FeN2PS | MND = 4
 OpenBabel04212202113D

 45 48  0  0  1  0  0  0  0  0999 V2000
    0.2532    0.7238    4.7200 Fe  0  0  0  0  0  0  0  0  0  0  0  0
    1.5542    1.7146    3.5817 Cl  0  0  0  0  0  0  0  0  0  0  0  0
   -1.2116   -0.4495    5.4108 Cl  0  0  0  0  0  0  0  0  0  0  0  0
    1.1327    2.2823    7.6722 P   0  0  0  0  0  4  0  0  0  0  0  0
    1.8555    0.6040    6.9564 S   0  0  0  0  0  0  0  0  0  0  0  0
   -0.7654    2.6811    5.8292 N   0  0  0  0  0  0  0  0  0  0  0  0
   -0.5367    2.3135    8.0654 N   0  0  0  0  0  0  0  0  0  0  0  0
   -1.3898    2.5126    7.0017 C   0  0  1  0  0  3  0  0  0  0  0  0
   -2.7779    2.6092    7.1236 C   0  0  0  0  0  0  0  0  0  0  0  0
   -3.2636    2.4590    8.0731 H   0  0  0  0  0  0  0  0  0  0  0  0
   -3.5172    2.9117    5.9984 C   0  0  0  0  0  0  0  0  0  0  0  0
   -4.5923    2.9848    6.0631 H   0  0  0  0  0  0  0  0  0  0  0  0
   -2.8656    3.1402    4.7918 C   0  0  0  0  0  0  0  0  0  0  0  0
   -3.4148    3.3975    3.9012 H   0  0  0  0  0  0  0  0  0  0  0  0
   -1.4908    3.0228    4.7580 C   0  0  0  0  0  0  0  0  0  0  0  0
   -0.9231    3.2303    3.8583 H   0  0  0  0  0  0  0  0  0  0  0  0
    1.8920    2.6445    9.2932 C   0  0  0  0  0  0  0  0  0  0  0  0
    1.5067    3.7743   10.0082 C   0  0  0  0  0  0  0  0  0  0  0  0
    0.7178    4.4077    9.6296 H   0  0  0  0  0  0  0  0  0  0  0  0
    2.1283    4.0753   11.2051 C   0  0  0  0  0  0  0  0  0  0  0  0
    1.8262    4.9494   11.7628 H   0  0  0  0  0  0  0  0  0  0  0  0
    3.1411    3.2598   11.6870 C   0  0  0  0  0  0  0  0  0  0  0  0
    3.6268    3.5011   12.6208 H   0  0  0  0  0  0  0  0  0  0  0  0
    3.5308    2.1403   10.9716 C   0  0  0  0  0  0  0  0  0  0  0  0
    4.3206    1.5061   11.3448 H   0  0  0  0  0  0  0  0  0  0  0  0
    2.9093    1.8331    9.7736 C   0  0  0  0  0  0  0  0  0  0  0  0
    3.1985    0.9630    9.2018 H   0  0  0  0  0  0  0  0  0  0  0  0
    1.4902    3.8195    6.7594 C   0  0  0  0  0  0  0  0  0  0  0  0
    2.6191    3.8037    5.9528 C   0  0  0  0  0  0  0  0  0  0  0  0
    3.1910    2.8908    5.8582 H   0  0  0  0  0  0  0  0  0  0  0  0
    2.9904    4.9447    5.2641 C   0  0  0  0  0  0  0  0  0  0  0  0
    3.8610    4.9273    4.6266 H   0  0  0  0  0  0  0  0  0  0  0  0
    2.2387    6.1003    5.3882 C   0  0  0  0  0  0  0  0  0  0  0  0
    2.5222    6.9909    4.8473 H   0  0  0  0  0  0  0  0  0  0  0  0
    1.1165    6.1169    6.2026 C   0  0  0  0  0  0  0  0  0  0  0  0
    0.5297    7.0192    6.2959 H   0  0  0  0  0  0  0  0  0  0  0  0
    0.7393    4.9808    6.8927 C   0  0  0  0  0  0  0  0  0  0  0  0
   -0.1484    4.9901    7.5090 H   0  0  0  0  0  0  0  0  0  0  0  0
   -0.9892    1.6016    9.2523 C   0  0  0  0  0  0  0  0  0  0  0  0
   -1.8379    2.1412    9.6854 H   0  0  0  0  0  0  0  0  0  0  0  0
   -0.1702    1.6286    9.9766 H   0  0  0  0  0  0  0  0  0  0  0  0
   -1.3580    0.1534    8.9557 C   0  0  0  0  0  0  0  0  0  0  0  0
   -0.4907   -0.3769    8.5688 H   0  0  0  0  0  0  0  0  0  0  0  0
   -2.1454    0.0960    8.2084 H   0  0  0  0  0  0  0  0  0  0  0  0
   -1.6945   -0.3374    9.8653 H   0  0  0  0  0  0  0  0  0  0  0  0
  1  3  1  0  0  0  0
  1  6  1  0  0  0  0
  1  5  1  0  0  0  0
  2  1  1  0  0  0  0
  4  7  1  0  0  0  0
  4 17  1  0  0  0  0
  5  4  1  0  0  0  0
  6  8  1  0  0  0  0
  7 39  1  0  0  0  0
  8  9  1  1  0  0  0
  8  7  1  0  0  0  0
  9 10  1  0  0  0  0
 11 12  1  0  0  0  0
 11  9  2  0  0  0  0
 13 11  1  0  0  0  0
 14 13  1  0  0  0  0
 15 13  2  0  0  0  0
 15  6  1  0  0  0  0
 16 15  1  0  0  0  0
 17 26  2  0  0  0  0
 17 18  1  0  0  0  0
 18 20  2  0  0  0  0
 19 18  1  0  0  0  0
 20 22  1  0  0  0  0
 20 21  1  0  0  0  0
 22 23  1  0  0  0  0
 24 25  1  0  0  0  0
 24 22  2  0  0  0  0
 26 24  1  0  0  0  0
 27 26  1  0  0  0  0
 28 37  1  0  0  0  0
 28  4  1  0  0  0  0
 29 28  2  0  0  0  0
 30 29  1  0  0  0  0
 31 33  2  0  0  0  0
 31 29  1  0  0  0  0
 32 31  1  0  0  0  0
 33 35  1  0  0  0  0
 34 33  1  0  0  0  0
 35 36  1  0  0  0  0
 35 37  2  0  0  0  0
 37 38  1  0  0  0  0
 39 40  1  0  0  0  0
 39 41  1  0  0  0  0
 42 39  1  0  0  0  0
 42 45  1  0  0  0  0
 43 42  1  0  0  0  0
 44 42  1  0  0  0  0
M  END
$$$$
