CSD_code = VOHLOV | q = 0 | S = 0 | Stoichiometry = C18H17Br2FeN2PS | MND = 4
 OpenBabel04212202113D

 42 45  0  0  1  0  0  0  0  0999 V2000
    3.0779    8.0452    3.5768 Fe  0  0  0  0  0  0  0  0  0  0  0  0
    1.2015    9.1677    4.1845 Br  0  0  0  0  0  0  0  0  0  0  0  0
    5.0065    8.3795    2.5834 Br  0  0  0  0  0  0  0  0  0  0  0  0
    4.0333    7.5168    5.7935 S   0  0  0  0  0  0  0  0  0  0  0  0
    3.0988    5.8086    5.5414 P   0  0  0  0  0  4  0  0  0  0  0  0
    2.2450    6.4369    2.9066 N   0  0  0  0  0  0  0  0  0  0  0  0
    3.5162    4.9288    4.1420 N   0  0  0  0  0  0  0  0  0  0  0  0
    2.8903    5.2492    2.9485 C   0  0  1  0  0  3  0  0  0  0  0  0
    2.9263    4.3882    1.8595 C   0  0  0  0  0  0  0  0  0  0  0  0
    3.4772    3.4650    1.9256 H   0  0  0  0  0  0  0  0  0  0  0  0
    2.2343    4.7219    0.7067 C   0  0  0  0  0  0  0  0  0  0  0  0
    2.2548    4.0664   -0.1489 H   0  0  0  0  0  0  0  0  0  0  0  0
    1.4934    5.8951    0.6937 C   0  0  0  0  0  0  0  0  0  0  0  0
    0.9092    6.1792   -0.1657 H   0  0  0  0  0  0  0  0  0  0  0  0
    1.5099    6.7062    1.8081 C   0  0  0  0  0  0  0  0  0  0  0  0
    0.9070    7.6046    1.8450 H   0  0  0  0  0  0  0  0  0  0  0  0
    3.5464    4.6375    6.8592 C   0  0  0  0  0  0  0  0  0  0  0  0
    4.4005    5.0311    7.8793 C   0  0  0  0  0  0  0  0  0  0  0  0
    4.8173    6.0285    7.8646 H   0  0  0  0  0  0  0  0  0  0  0  0
    4.7105    4.1438    8.8951 C   0  0  0  0  0  0  0  0  0  0  0  0
    5.3771    4.4473    9.6880 H   0  0  0  0  0  0  0  0  0  0  0  0
    4.1648    2.8710    8.8933 C   0  0  0  0  0  0  0  0  0  0  0  0
    4.4071    2.1792    9.6860 H   0  0  0  0  0  0  0  0  0  0  0  0
    3.3030    2.4820    7.8786 C   0  0  0  0  0  0  0  0  0  0  0  0
    2.8743    1.4909    7.8831 H   0  0  0  0  0  0  0  0  0  0  0  0
    2.9875    3.3639    6.8630 C   0  0  0  0  0  0  0  0  0  0  0  0
    2.3100    3.0721    6.0730 H   0  0  0  0  0  0  0  0  0  0  0  0
    1.2781    5.8135    5.5871 C   0  0  0  0  0  0  0  0  0  0  0  0
    0.6928    6.7610    6.4188 C   0  0  0  0  0  0  0  0  0  0  0  0
    1.3202    7.4751    6.9351 H   0  0  0  0  0  0  0  0  0  0  0  0
   -0.6821    6.8028    6.5548 C   0  0  0  0  0  0  0  0  0  0  0  0
   -1.1358    7.5524    7.1836 H   0  0  0  0  0  0  0  0  0  0  0  0
   -1.4699    5.8954    5.8667 C   0  0  0  0  0  0  0  0  0  0  0  0
   -2.5445    5.9343    5.9600 H   0  0  0  0  0  0  0  0  0  0  0  0
   -0.8842    4.9392    5.0520 C   0  0  0  0  0  0  0  0  0  0  0  0
   -1.5004    4.2319    4.5166 H   0  0  0  0  0  0  0  0  0  0  0  0
    0.4903    4.8886    4.9119 C   0  0  0  0  0  0  0  0  0  0  0  0
    0.9407    4.1476    4.2664 H   0  0  0  0  0  0  0  0  0  0  0  0
    4.7516    4.1635    4.1202 C   0  0  0  0  0  0  0  0  0  0  0  0
    4.5535    3.0899    4.0674 H   0  0  0  0  0  0  0  0  0  0  0  0
    5.3057    4.3702    5.0366 H   0  0  0  0  0  0  0  0  0  0  0  0
    5.3667    4.4631    3.2703 H   0  0  0  0  0  0  0  0  0  0  0  0
  1  2  1  0  0  0  0
  1  4  1  0  0  0  0
  3  1  1  0  0  0  0
  5 28  1  0  0  0  0
  5  4  1  0  0  0  0
  5 17  1  0  0  0  0
  6  8  1  0  0  0  0
  6  1  1  0  0  0  0
  7  5  1  0  0  0  0
  8  9  1  1  0  0  0
  8  7  1  0  0  0  0
  9 10  1  0  0  0  0
 11  9  2  0  0  0  0
 12 11  1  0  0  0  0
 13 11  1  0  0  0  0
 13 15  2  0  0  0  0
 14 13  1  0  0  0  0
 15 16  1  0  0  0  0
 15  6  1  0  0  0  0
 17 26  2  0  0  0  0
 17 18  1  0  0  0  0
 18 20  2  0  0  0  0
 19 18  1  0  0  0  0
 20 21  1  0  0  0  0
 22 20  1  0  0  0  0
 22 23  1  0  0  0  0
 24 25  1  0  0  0  0
 24 22  2  0  0  0  0
 26 24  1  0  0  0  0
 27 26  1  0  0  0  0
 28 29  1  0  0  0  0
 29 31  2  0  0  0  0
 29 30  1  0  0  0  0
 31 32  1  0  0  0  0
 33 34  1  0  0  0  0
 33 31  1  0  0  0  0
 35 33  2  0  0  0  0
 36 35  1  0  0  0  0
 37 35  1  0  0  0  0
 37 28  2  0  0  0  0
 38 37  1  0  0  0  0
 39  7  1  0  0  0  0
 39 41  1  0  0  0  0
 40 39  1  0  0  0  0
 42 39  1  0  0  0  0
M  END
$$$$
