CSD_code = VOHMAI | q = 0 | S = 0 | Stoichiometry = C19H19Br2FeN2PS | MND = 4
 OpenBabel04212202113D

 45 48  0  0  1  0  0  0  0  0999 V2000
    0.0985    0.9190    5.3351 Fe  0  0  0  0  0  0  0  0  0  0  0  0
    1.3817    2.0486    3.8394 Br  0  0  0  0  0  0  0  0  0  0  0  0
   -0.8179   -1.0703    5.4426 Br  0  0  0  0  0  0  0  0  0  0  0  0
    0.9539    2.2793    7.8544 P   0  0  0  0  0  4  0  0  0  0  0  0
    1.6908    0.5874    7.1733 S   0  0  0  0  0  0  0  0  0  0  0  0
   -1.0596    2.3551    5.8638 N   0  0  0  0  0  0  0  0  0  0  0  0
   -0.7164    2.2976    8.1763 N   0  0  0  0  0  0  0  0  0  0  0  0
   -1.5803    2.4989    7.1042 C   0  0  1  0  0  3  0  0  0  0  0  0
   -2.9069    2.8568    7.3065 C   0  0  0  0  0  0  0  0  0  0  0  0
   -3.2916    2.9423    8.3091 H   0  0  0  0  0  0  0  0  0  0  0  0
   -3.7204    3.1207    6.2171 C   0  0  0  0  0  0  0  0  0  0  0  0
   -4.7526    3.3952    6.3623 H   0  0  0  0  0  0  0  0  0  0  0  0
   -3.1649    3.0577    4.9466 C   0  0  0  0  0  0  0  0  0  0  0  0
   -3.7448    3.2898    4.0690 H   0  0  0  0  0  0  0  0  0  0  0  0
   -1.8413    2.7002    4.8176 C   0  0  0  0  0  0  0  0  0  0  0  0
   -1.3680    2.6944    3.8435 H   0  0  0  0  0  0  0  0  0  0  0  0
    1.6687    2.6655    9.4821 C   0  0  0  0  0  0  0  0  0  0  0  0
    1.2923    3.8379   10.1296 C   0  0  0  0  0  0  0  0  0  0  0  0
    0.5520    4.4843    9.6794 H   0  0  0  0  0  0  0  0  0  0  0  0
    1.8657    4.1625   11.3439 C   0  0  0  0  0  0  0  0  0  0  0  0
    1.5730    5.0693   11.8518 H   0  0  0  0  0  0  0  0  0  0  0  0
    2.8205    3.3279   11.9060 C   0  0  0  0  0  0  0  0  0  0  0  0
    3.2688    3.5872   12.8533 H   0  0  0  0  0  0  0  0  0  0  0  0
    3.2031    2.1674   11.2542 C   0  0  0  0  0  0  0  0  0  0  0  0
    3.9495    1.5211   11.6905 H   0  0  0  0  0  0  0  0  0  0  0  0
    2.6299    1.8345   10.0392 C   0  0  0  0  0  0  0  0  0  0  0  0
    2.9163    0.9324    9.5169 H   0  0  0  0  0  0  0  0  0  0  0  0
    1.2898    3.8078    6.9228 C   0  0  0  0  0  0  0  0  0  0  0  0
    2.5416    3.8831    6.3230 C   0  0  0  0  0  0  0  0  0  0  0  0
    3.2037    3.0285    6.3674 H   0  0  0  0  0  0  0  0  0  0  0  0
    2.9160    5.0316    5.6516 C   0  0  0  0  0  0  0  0  0  0  0  0
    3.8794    5.0810    5.1693 H   0  0  0  0  0  0  0  0  0  0  0  0
    2.0434    6.1049    5.5852 C   0  0  0  0  0  0  0  0  0  0  0  0
    2.3270    6.9982    5.0497 H   0  0  0  0  0  0  0  0  0  0  0  0
    0.8032    6.0355    6.1994 C   0  0  0  0  0  0  0  0  0  0  0  0
    0.1250    6.8745    6.1475 H   0  0  0  0  0  0  0  0  0  0  0  0
    0.4219    4.8916    6.8767 C   0  0  0  0  0  0  0  0  0  0  0  0
   -0.5486    4.8410    7.3500 H   0  0  0  0  0  0  0  0  0  0  0  0
   -1.1963    1.5706    9.3489 C   0  0  0  0  0  0  0  0  0  0  0  0
   -1.9858    2.1517    9.8357 H   0  0  0  0  0  0  0  0  0  0  0  0
   -0.3556    1.5002   10.0450 H   0  0  0  0  0  0  0  0  0  0  0  0
   -1.6908    0.1735    8.9997 C   0  0  0  0  0  0  0  0  0  0  0  0
   -0.8925   -0.4044    8.5392 H   0  0  0  0  0  0  0  0  0  0  0  0
   -2.5251    0.2180    8.3032 H   0  0  0  0  0  0  0  0  0  0  0  0
   -2.0156   -0.3390    9.9009 H   0  0  0  0  0  0  0  0  0  0  0  0
  1  3  1  0  0  0  0
  1  6  1  0  0  0  0
  1  5  1  0  0  0  0
  2  1  1  0  0  0  0
  4  7  1  0  0  0  0
  4 17  1  0  0  0  0
  5  4  1  0  0  0  0
  6  8  1  0  0  0  0
  7 39  1  0  0  0  0
  8  9  1  6  0  0  0
  8  7  1  0  0  0  0
  9 10  1  0  0  0  0
 11 12  1  0  0  0  0
 11  9  2  0  0  0  0
 13 11  1  0  0  0  0
 14 13  1  0  0  0  0
 15 13  2  0  0  0  0
 15  6  1  0  0  0  0
 16 15  1  0  0  0  0
 17 26  2  0  0  0  0
 17 18  1  0  0  0  0
 18 20  2  0  0  0  0
 19 18  1  0  0  0  0
 20 21  1  0  0  0  0
 20 22  1  0  0  0  0
 22 23  1  0  0  0  0
 24 25  1  0  0  0  0
 24 22  2  0  0  0  0
 26 24  1  0  0  0  0
 27 26  1  0  0  0  0
 28  4  1  0  0  0  0
 29 30  1  0  0  0  0
 29 28  2  0  0  0  0
 31 29  1  0  0  0  0
 32 31  1  0  0  0  0
 33 31  2  0  0  0  0
 33 35  1  0  0  0  0
 34 33  1  0  0  0  0
 35 37  2  0  0  0  0
 36 35  1  0  0  0  0
 37 28  1  0  0  0  0
 37 38  1  0  0  0  0
 39 40  1  0  0  0  0
 39 41  1  0  0  0  0
 42 39  1  0  0  0  0
 42 45  1  0  0  0  0
 43 42  1  0  0  0  0
 44 42  1  0  0  0  0
M  END
$$$$
