CSD_code = VOKHOS | q = 0 | S = 0 | Stoichiometry = C24H26BrCuNPS2 | MND = 3
 OpenBabel04212202113D

 56 59  0  0  1  0  0  0  0  0999 V2000
    2.4492    2.5965   -0.4784 Br  0  0  0  0  0  0  0  0  0  0  0  0
    1.1437    1.9785    1.3314 Cu  0  0  0  0  0  0  0  0  0  0  0  0
    1.6314    1.3457    3.4293 P   0  0  0  0  0  4  0  0  0  0  0  0
   -1.1986    2.4240    0.9490 S   0  0  0  0  0  0  0  0  0  0  0  0
   -1.3960    3.2732   -0.4563 C   0  0  2  0  0  3  0  0  0  0  0  0
   -2.9140    4.0772   -0.8430 S   0  0  0  0  0  0  0  0  0  0  0  0
   -2.3401    4.4549   -2.5398 C   0  0  0  0  0  0  0  0  0  0  0  0
   -0.8197    4.3405   -2.4908 C   0  0  0  0  0  0  0  0  0  0  0  0
   -0.5039    3.4287   -1.4195 N   0  0  0  0  0  0  0  0  0  0  0  0
    0.7488    2.2676    4.7347 C   0  0  0  0  0  0  0  0  0  0  0  0
    0.2239    1.6179    5.8479 C   0  0  0  0  0  0  0  0  0  0  0  0
   -0.4911    2.3206    6.7999 C   0  0  0  0  0  0  0  0  0  0  0  0
   -0.6945    3.6803    6.6426 C   0  0  0  0  0  0  0  0  0  0  0  0
   -0.1802    4.3308    5.5345 C   0  0  0  0  0  0  0  0  0  0  0  0
    0.5406    3.6445    4.5680 C   0  0  0  0  0  0  0  0  0  0  0  0
    1.0750    4.3647    3.3709 C   0  0  0  0  0  0  0  0  0  0  0  0
    1.4934   -0.3824    4.0073 C   0  0  0  0  0  0  0  0  0  0  0  0
    2.5209   -0.9921    4.7202 C   0  0  0  0  0  0  0  0  0  0  0  0
    2.4078   -2.3099    5.1230 C   0  0  0  0  0  0  0  0  0  0  0  0
    1.2682   -3.0303    4.8097 C   0  0  0  0  0  0  0  0  0  0  0  0
    0.2440   -2.4284    4.0991 C   0  0  0  0  0  0  0  0  0  0  0  0
    0.3373   -1.1065    3.6886 C   0  0  0  0  0  0  0  0  0  0  0  0
   -0.7715   -0.4626    2.9202 C   0  0  0  0  0  0  0  0  0  0  0  0
    3.3861    1.7220    3.7710 C   0  0  0  0  0  0  0  0  0  0  0  0
    3.7457    2.5842    4.8056 C   0  0  0  0  0  0  0  0  0  0  0  0
    5.0680    2.9268    5.0115 C   0  0  0  0  0  0  0  0  0  0  0  0
    6.0486    2.4162    4.1772 C   0  0  0  0  0  0  0  0  0  0  0  0
    5.6993    1.5564    3.1531 C   0  0  0  0  0  0  0  0  0  0  0  0
    4.3758    1.1931    2.9328 C   0  0  0  0  0  0  0  0  0  0  0  0
    4.0652    0.2340    1.8275 C   0  0  0  0  0  0  0  0  0  0  0  0
    2.1263    4.1257    3.2012 H   0  0  0  0  0  0  0  0  0  0  0  0
    0.9778    5.4418    3.4864 H   0  0  0  0  0  0  0  0  0  0  0  0
    0.5120    4.0684    2.4816 H   0  0  0  0  0  0  0  0  0  0  0  0
   -0.4484   -0.2480    1.8986 H   0  0  0  0  0  0  0  0  0  0  0  0
   -1.0661    0.4837    3.3776 H   0  0  0  0  0  0  0  0  0  0  0  0
   -1.6438   -1.1097    2.8702 H   0  0  0  0  0  0  0  0  0  0  0  0
    2.9913    0.0655    1.7319 H   0  0  0  0  0  0  0  0  0  0  0  0
    4.5427   -0.7271    2.0176 H   0  0  0  0  0  0  0  0  0  0  0  0
    4.4420    0.6170    0.8797 H   0  0  0  0  0  0  0  0  0  0  0  0
   -2.7874    3.7171   -3.2058 H   0  0  0  0  0  0  0  0  0  0  0  0
   -2.6837    5.4490   -2.8116 H   0  0  0  0  0  0  0  0  0  0  0  0
   -0.3559    5.3153   -2.2917 H   0  0  0  0  0  0  0  0  0  0  0  0
   -0.4159    3.9506   -3.4273 H   0  0  0  0  0  0  0  0  0  0  0  0
    0.4768    3.1321   -1.2870 H   0  0  0  0  0  0  0  0  0  0  0  0
    0.3802    0.5558    5.9728 H   0  0  0  0  0  0  0  0  0  0  0  0
   -0.8885    1.8052    7.6617 H   0  0  0  0  0  0  0  0  0  0  0  0
   -1.2540    4.2350    7.3811 H   0  0  0  0  0  0  0  0  0  0  0  0
   -0.3433    5.3925    5.4140 H   0  0  0  0  0  0  0  0  0  0  0  0
    3.4100   -0.4298    4.9677 H   0  0  0  0  0  0  0  0  0  0  0  0
    3.2086   -2.7716    5.6813 H   0  0  0  0  0  0  0  0  0  0  0  0
    1.1754   -4.0606    5.1197 H   0  0  0  0  0  0  0  0  0  0  0  0
   -0.6449   -2.9940    3.8581 H   0  0  0  0  0  0  0  0  0  0  0  0
    2.9832    2.9849    5.4590 H   0  0  0  0  0  0  0  0  0  0  0  0
    5.3305    3.5936    5.8194 H   0  0  0  0  0  0  0  0  0  0  0  0
    7.0833    2.6865    4.3265 H   0  0  0  0  0  0  0  0  0  0  0  0
    6.4629    1.1545    2.5028 H   0  0  0  0  0  0  0  0  0  0  0  0
  1  2  1  0  0  0  0
  2  3  1  0  0  0  0
  3 24  1  0  0  0  0
  3 17  1  0  0  0  0
  3 10  1  0  0  0  0
  4  2  1  0  0  0  0
  5  4  1  6  0  0  0
  6  5  1  0  0  0  0
  7  8  1  0  0  0  0
  7  6  1  0  0  0  0
  8 42  1  0  0  0  0
  8  9  1  0  0  0  0
  9 44  1  0  0  0  0
  9  5  1  0  0  0  0
 10 11  1  0  0  0  0
 11 45  1  0  0  0  0
 11 12  2  0  0  0  0
 12 46  1  0  0  0  0
 13 12  1  0  0  0  0
 13 47  1  0  0  0  0
 14 13  2  0  0  0  0
 15 10  2  0  0  0  0
 15 14  1  0  0  0  0
 16 32  1  0  0  0  0
 16 15  1  0  0  0  0
 17 18  1  0  0  0  0
 18 49  1  0  0  0  0
 18 19  2  0  0  0  0
 19 50  1  0  0  0  0
 20 51  1  0  0  0  0
 20 19  1  0  0  0  0
 21 20  2  0  0  0  0
 22 17  2  0  0  0  0
 22 21  1  0  0  0  0
 23 35  1  0  0  0  0
 23 22  1  0  0  0  0
 24 25  1  0  0  0  0
 25 26  2  0  0  0  0
 25 53  1  0  0  0  0
 26 54  1  0  0  0  0
 27 55  1  0  0  0  0
 27 26  1  0  0  0  0
 28 27  2  0  0  0  0
 29 28  1  0  0  0  0
 29 24  2  0  0  0  0
 30 38  1  0  0  0  0
 30 29  1  0  0  0  0
 31 16  1  0  0  0  0
 33 16  1  0  0  0  0
 34 23  1  0  0  0  0
 36 23  1  0  0  0  0
 37 30  1  0  0  0  0
 39 30  1  0  0  0  0
 40  7  1  0  0  0  0
 41  7  1  0  0  0  0
 43  8  1  0  0  0  0
 48 14  1  0  0  0  0
 52 21  1  0  0  0  0
 56 28  1  0  0  0  0
M  END
$$$$
