CSD_code = VOKQUI | q = 0 | S = 0 | Stoichiometry = C11H20Cl3N2NbSi | MND = 10
 OpenBabel04212202113D

 38 39  0  0  1  0  0  0  0  0999 V2000
    4.5534   -0.0924    8.4280 Nb  0  0  0  0  0  0  0  0  0  0  0  0
    5.9955    1.2746    8.3413 N   0  0  0  0  0  0  0  0  0  0  0  0
    6.8345   -1.3692    8.3978 N   0  0  0  0  0  0  0  0  0  0  0  0
    5.3247    2.8969    8.3662 Si  0  0  0  0  0  0  0  0  0  0  0  0
    3.7627   -2.2837    8.6095 Cl  0  0  0  0  0  0  0  0  0  0  0  0
    5.0164   -0.2675   10.8077 Cl  0  0  0  0  0  0  0  0  0  0  0  0
    4.9247   -0.5685    6.0606 Cl  0  0  0  0  0  0  0  0  0  0  0  0
    3.5689    2.1781    8.3551 C   0  0  2  0  0  0  0  0  0  0  0  0
    2.9904    1.5662    9.4960 C   0  0  0  0  0  3  0  0  0  0  0  0
    3.1207    1.8993   10.5171 H   0  0  0  0  0  0  0  0  0  0  0  0
    2.0901    0.5607    9.0764 C   0  0  0  0  0  0  0  0  0  0  0  0
    1.4348   -0.0127    9.7189 H   0  0  0  0  0  0  0  0  0  0  0  0
    2.1206    0.5168    7.6721 C   0  0  0  0  0  0  0  0  0  0  0  0
    1.4926   -0.0951    7.0378 H   0  0  0  0  0  0  0  0  0  0  0  0
    3.0388    1.4972    7.2298 C   0  0  0  0  0  3  0  0  0  0  0  0
    3.2063    1.7711    6.1962 H   0  0  0  0  0  0  0  0  0  0  0  0
    7.4081    1.0249    8.4385 C   0  0  0  0  0  0  0  0  0  0  0  0
    7.9883    1.7916    7.9108 H   0  0  0  0  0  0  0  0  0  0  0  0
    7.7033    1.0468    9.5000 H   0  0  0  0  0  0  0  0  0  0  0  0
    7.7151   -0.3439    7.8221 C   0  0  0  0  0  0  0  0  0  0  0  0
    8.7709   -0.6076    7.9721 H   0  0  0  0  0  0  0  0  0  0  0  0
    7.5021   -0.2803    6.7509 H   0  0  0  0  0  0  0  0  0  0  0  0
    7.3339   -1.7893    9.7097 C   0  0  0  0  0  0  0  0  0  0  0  0
    7.4400   -0.9366   10.3757 H   0  0  0  0  0  0  0  0  0  0  0  0
    8.3050   -2.2876    9.6017 H   0  0  0  0  0  0  0  0  0  0  0  0
    6.6230   -2.4828   10.1588 H   0  0  0  0  0  0  0  0  0  0  0  0
    5.7511    3.8016    9.9859 C   0  0  0  0  0  0  0  0  0  0  0  0
    6.7720    4.1679    9.9658 H   0  0  0  0  0  0  0  0  0  0  0  0
    5.6527    3.1337   10.8371 H   0  0  0  0  0  0  0  0  0  0  0  0
    5.0983    4.6527   10.1450 H   0  0  0  0  0  0  0  0  0  0  0  0
    5.7852    3.8616    6.7919 C   0  0  0  0  0  0  0  0  0  0  0  0
    5.6799    3.2417    5.9065 H   0  0  0  0  0  0  0  0  0  0  0  0
    6.8125    4.2068    6.8376 H   0  0  0  0  0  0  0  0  0  0  0  0
    5.1512    4.7329    6.6729 H   0  0  0  0  0  0  0  0  0  0  0  0
    6.8250   -2.5624    7.5457 C   0  0  0  0  0  0  0  0  0  0  0  0
    6.1611   -3.3076    7.9839 H   0  0  0  0  0  0  0  0  0  0  0  0
    7.8350   -2.9801    7.4636 H   0  0  0  0  0  0  0  0  0  0  0  0
    6.4567   -2.3151    6.5514 H   0  0  0  0  0  0  0  0  0  0  0  0
  1  5  1  0  0  0  0
  1  6  1  0  0  0  0
  2  4  1  0  0  0  0
  2  1  1  0  0  0  0
  2 17  1  0  0  0  0
  3 23  1  0  0  0  0
  4 27  1  0  0  0  0
  7  1  1  0  0  0  0
  8 15  1  6  0  0  0
  8  4  1  0  0  0  0
  8  1  1  0  0  0  0
  8  9  1  0  0  0  0
  9 10  1  0  0  0  0
 11  9  1  0  0  0  0
 11 12  1  0  0  0  0
 13 11  2  0  0  0  0
 14 13  1  0  0  0  0
 15 13  1  0  0  0  0
 16 15  1  0  0  0  0
 17 19  1  0  0  0  0
 18 17  1  0  0  0  0
 20 21  1  0  0  0  0
 20  3  1  0  0  0  0
 20 17  1  0  0  0  0
 22 20  1  0  0  0  0
 23 26  1  0  0  0  0
 23 24  1  0  0  0  0
 25 23  1  0  0  0  0
 27 30  1  0  0  0  0
 27 29  1  0  0  0  0
 28 27  1  0  0  0  0
 31 33  1  0  0  0  0
 31  4  1  0  0  0  0
 32 31  1  0  0  0  0
 34 31  1  0  0  0  0
 35 36  1  0  0  0  0
 35  3  1  0  0  0  0
 37 35  1  0  0  0  0
 38 35  1  0  0  0  0
M  END
$$$$
