CSD_code = VOKSOE | q = 0 | S = 0 | Stoichiometry = C21H8ClF2N4O3Re | MND = 6
 OpenBabel04212202113D

 40 45  0  0  0  0  0  0  0  0999 V2000
    1.7592   -1.8460    3.8012 Re  0  0  0  0  0  0  0  0  0  0  0  0
    0.5531   -1.9379    1.7517 Cl  0  0  0  0  0  0  0  0  0  0  0  0
    0.5289   -3.1435    4.5820 C   0  0  0  0  0  2  0  0  0  0  0  0
   -0.2681   -3.8700    4.9611 O   0  0  0  0  0  1  0  0  0  0  0  0
    2.9197   -3.2871    3.1826 C   0  0  0  0  0  2  0  0  0  0  0  0
    3.5716   -4.1008    2.7137 O   0  0  0  0  0  1  0  0  0  0  0  0
    2.7431   -1.5597    5.4523 C   0  0  0  0  0  2  0  0  0  0  0  0
    3.3234   -1.3559    6.4218 O   0  0  0  0  0  1  0  0  0  0  0  0
    0.4618   -0.1574    4.0550 N   0  0  0  0  0  0  0  0  0  0  0  0
   -0.6589   -0.0972    4.7583 C   0  0  0  0  0  0  0  0  0  0  0  0
   -0.8191   -0.8915    5.4759 H   0  0  0  0  0  0  0  0  0  0  0  0
   -1.6023    0.9126    4.6015 C   0  0  0  0  0  0  0  0  0  0  0  0
   -2.5019    0.8972    5.1954 H   0  0  0  0  0  0  0  0  0  0  0  0
   -1.3749    1.9095    3.6758 C   0  0  0  0  0  0  0  0  0  0  0  0
   -2.0770    2.7089    3.5012 H   0  0  0  0  0  0  0  0  0  0  0  0
   -0.1893    1.8770    2.9387 C   0  0  0  0  0  0  0  0  0  0  0  0
    0.7059    0.8182    3.1597 C   0  0  0  0  0  0  0  0  0  0  0  0
    0.1296    2.8817    1.9486 C   0  0  0  0  0  0  0  0  0  0  0  0
   -0.7330    3.8559    1.7318 N   0  0  0  0  0  0  0  0  0  0  0  0
   -0.4274    4.7712    0.8042 C   0  0  0  0  0  0  0  0  0  0  0  0
   -1.3310    5.8215    0.5372 C   0  0  0  0  0  0  0  0  0  0  0  0
   -2.2600    5.8770    1.0807 H   0  0  0  0  0  0  0  0  0  0  0  0
   -1.0119    6.7485   -0.4109 C   0  0  0  0  0  0  0  0  0  0  0  0
   -1.8538    7.7520   -0.6814 F   0  0  0  0  0  0  0  0  0  0  0  0
    0.2082    6.6742   -1.1267 C   0  0  0  0  0  0  0  0  0  0  0  0
    0.4706    7.6104   -2.0453 F   0  0  0  0  0  0  0  0  0  0  0  0
    1.1042    5.6733   -0.8914 C   0  0  0  0  0  0  0  0  0  0  0  0
    2.0318    5.6157   -1.4371 H   0  0  0  0  0  0  0  0  0  0  0  0
    0.8047    4.6963    0.0816 C   0  0  0  0  0  0  0  0  0  0  0  0
    1.6777    3.7097    0.3184 N   0  0  0  0  0  0  0  0  0  0  0  0
    1.3610    2.8072    1.2268 C   0  0  0  0  0  0  0  0  0  0  0  0
    2.2870    1.7274    1.4878 C   0  0  0  0  0  0  0  0  0  0  0  0
    3.5061    1.6148    0.8160 C   0  0  0  0  0  0  0  0  0  0  0  0
    3.7661    2.3560    0.0774 H   0  0  0  0  0  0  0  0  0  0  0  0
    4.3324    0.5544    1.1245 C   0  0  0  0  0  0  0  0  0  0  0  0
    5.2839    0.4273    0.6338 H   0  0  0  0  0  0  0  0  0  0  0  0
    3.9209   -0.3734    2.0754 C   0  0  0  0  0  0  0  0  0  0  0  0
    4.5519   -1.2153    2.3298 H   0  0  0  0  0  0  0  0  0  0  0  0
    2.7604   -0.2959    2.7087 N   0  0  0  0  0  0  0  0  0  0  0  0
    1.9504    0.7431    2.4307 C   0  0  0  0  0  0  0  0  0  0  0  0
  1  9  1  0  0  0  0
  1  3  1  0  0  0  0
  1  7  1  0  0  0  0
  2  1  1  0  0  0  0
  3  4  1  0  0  0  0
  5  1  1  0  0  0  0
  6  5  1  0  0  0  0
  7  8  1  0  0  0  0
  9 10  1  0  0  0  0
 10 11  1  0  0  0  0
 12 10  2  0  0  0  0
 12 13  1  0  0  0  0
 14 12  1  0  0  0  0
 15 14  1  0  0  0  0
 16 17  1  0  0  0  0
 16 14  2  0  0  0  0
 17  9  1  0  0  0  0
 18 16  1  0  0  0  0
 19 18  1  0  0  0  0
 20 19  2  0  0  0  0
 21 20  1  0  0  0  0
 21 22  1  0  0  0  0
 23 21  2  0  0  0  0
 24 23  1  0  0  0  0
 25 27  2  0  0  0  0
 25 23  1  0  0  0  0
 26 25  1  0  0  0  0
 27 29  1  0  0  0  0
 28 27  1  0  0  0  0
 29 30  2  0  0  0  0
 29 20  1  0  0  0  0
 30 31  1  0  0  0  0
 31 32  1  0  0  0  0
 31 18  2  0  0  0  0
 32 40  1  0  0  0  0
 33 35  1  0  0  0  0
 33 32  2  0  0  0  0
 34 33  1  0  0  0  0
 35 37  2  0  0  0  0
 36 35  1  0  0  0  0
 37 38  1  0  0  0  0
 37 39  1  0  0  0  0
 39  1  1  0  0  0  0
 40 39  1  0  0  0  0
 40 17  2  0  0  0  0
M  END
$$$$
