CSD_code = VOKSIX | q = 0 | S = 0 | Stoichiometry = C24H30BCl2N6Nb | MND = 7
 OpenBabel04212202113D

 64 64  0  0  0  0  0  0  0  0999 V2000
    8.6959    4.7352    0.2970 Nb  0  0  0  0  0  0  0  0  0  0  0  0
    9.8298    5.6230    2.1528 Cl  0  0  0  0  0 15  0  0  0  0  0  0
    6.6485    3.8494    1.1506 Cl  0  0  0  0  0 15  0  0  0  0  0  0
    6.6601    7.4102    1.0802 C   0  0  0  0  0  0  0  0  0  0  0  0
    7.5950    6.5903    0.2802 C   0  0  0  0  0  0  0  0  0  0  0  0
    8.2021    6.4949   -0.8603 C   0  0  0  0  0  3  0  0  0  0  0  0
    8.4156    7.2020   -2.1012 C   0  0  0  0  0  0  0  0  0  0  0  0
    8.9360    6.5465   -3.2208 C   0  0  0  0  0  0  0  0  0  0  0  0
    9.1528    7.2335   -4.3990 C   0  0  0  0  0  0  0  0  0  0  0  0
    8.8634    8.5866   -4.4817 C   0  0  0  0  0  0  0  0  0  0  0  0
    8.3551    9.2504   -3.3765 C   0  0  0  0  0  0  0  0  0  0  0  0
    8.1316    8.5688   -2.1962 C   0  0  0  0  0  0  0  0  0  0  0  0
   10.4126    2.4638   -1.4314 B   0  0  0  0  0  0  0  0  0  0  0  0
    9.5428    2.7714    0.9076 N   0  0  0  0  0  0  0  0  0  0  0  0
   10.2225    2.0147    0.0233 N   0  0  0  0  0  0  0  0  0  0  0  0
   10.6489    0.8863    0.6207 C   0  0  0  0  0  0  0  0  0  0  0  0
   10.2258    0.9260    1.9366 C   0  0  0  0  0  0  0  0  0  0  0  0
    9.5319    2.1301    2.0762 C   0  0  0  0  0  0  0  0  0  0  0  0
   11.4311   -0.1774   -0.0616 C   0  0  0  0  0  0  0  0  0  0  0  0
    8.8783    2.6548    3.3013 C   0  0  0  0  0  0  0  0  0  0  0  0
    8.1706    3.5898   -1.5460 N   0  0  0  0  0  0  0  0  0  0  0  0
    9.0226    2.6795   -2.0527 N   0  0  0  0  0  0  0  0  0  0  0  0
    8.4683    2.0753   -3.1182 C   0  0  0  0  0  0  0  0  0  0  0  0
    7.2103    2.6239   -3.2997 C   0  0  0  0  0  0  0  0  0  0  0  0
    7.0620    3.5749   -2.2899 C   0  0  0  0  0  0  0  0  0  0  0  0
    9.1333    1.0153   -3.9195 C   0  0  0  0  0  0  0  0  0  0  0  0
    5.8917    4.4563   -2.0447 C   0  0  0  0  0  0  0  0  0  0  0  0
   10.6733    4.8740   -0.7503 N   0  0  0  0  0  0  0  0  0  0  0  0
   11.1505    3.8132   -1.4277 N   0  0  0  0  0  0  0  0  0  0  0  0
   12.3277    4.1273   -1.9991 C   0  0  0  0  0  0  0  0  0  0  0  0
   12.6154    5.4383   -1.6657 C   0  0  0  0  0  0  0  0  0  0  0  0
   11.5489    5.8710   -0.8757 C   0  0  0  0  0  0  0  0  0  0  0  0
   13.1299    3.1948   -2.8330 C   0  0  0  0  0  0  0  0  0  0  0  0
   11.3973    7.1974   -0.2239 C   0  0  0  0  0  0  0  0  0  0  0  0
    5.8970    6.7672    1.5232 H   0  0  0  0  0  0  0  0  0  0  0  0
    6.1790    8.1812    0.4750 H   0  0  0  0  0  0  0  0  0  0  0  0
    7.2105    7.8827    1.8970 H   0  0  0  0  0  0  0  0  0  0  0  0
    9.1662    5.4910   -3.1553 H   0  0  0  0  0  0  0  0  0  0  0  0
    9.5536    6.7150   -5.2583 H   0  0  0  0  0  0  0  0  0  0  0  0
    9.0361    9.1226   -5.4033 H   0  0  0  0  0  0  0  0  0  0  0  0
    8.1315   10.3059   -3.4375 H   0  0  0  0  0  0  0  0  0  0  0  0
    7.7433    9.0875   -1.3321 H   0  0  0  0  0  0  0  0  0  0  0  0
   11.0191    1.6601   -2.0415 H   0  0  0  0  0  0  0  0  0  0  0  0
   10.3939    0.1869    2.6933 H   0  0  0  0  0  0  0  0  0  0  0  0
   10.8710   -0.5937   -0.8971 H   0  0  0  0  0  0  0  0  0  0  0  0
   11.6496   -0.9729    0.6455 H   0  0  0  0  0  0  0  0  0  0  0  0
   12.3690    0.2194   -0.4461 H   0  0  0  0  0  0  0  0  0  0  0  0
    9.3141    3.6147    3.5825 H   0  0  0  0  0  0  0  0  0  0  0  0
    9.0064    1.9496    4.1188 H   0  0  0  0  0  0  0  0  0  0  0  0
    7.8132    2.8123    3.1264 H   0  0  0  0  0  0  0  0  0  0  0  0
    6.4975    2.3699   -4.0575 H   0  0  0  0  0  0  0  0  0  0  0  0
   10.0594    1.3840   -4.3567 H   0  0  0  0  0  0  0  0  0  0  0  0
    8.4690    0.6972   -4.7182 H   0  0  0  0  0  0  0  0  0  0  0  0
    9.3722    0.1554   -3.2966 H   0  0  0  0  0  0  0  0  0  0  0  0
    5.4939    4.2813   -1.0440 H   0  0  0  0  0  0  0  0  0  0  0  0
    5.1173    4.2497   -2.7790 H   0  0  0  0  0  0  0  0  0  0  0  0
    6.1818    5.5059   -2.1114 H   0  0  0  0  0  0  0  0  0  0  0  0
   13.4778    6.0047   -1.9525 H   0  0  0  0  0  0  0  0  0  0  0  0
   13.4380    2.3261   -2.2540 H   0  0  0  0  0  0  0  0  0  0  0  0
   14.0168    3.7077   -3.1945 H   0  0  0  0  0  0  0  0  0  0  0  0
   12.5521    2.8451   -3.6863 H   0  0  0  0  0  0  0  0  0  0  0  0
   10.3609    7.5333   -0.2554 H   0  0  0  0  0  0  0  0  0  0  0  0
   12.0339    7.9265   -0.7195 H   0  0  0  0  0  0  0  0  0  0  0  0
   11.6920    7.1274    0.8246 H   0  0  0  0  0  0  0  0  0  0  0  0
  4 35  1  0  0  0  0
  4 37  1  0  0  0  0
  5  1  1  0  0  0  0
  5  4  1  0  0  0  0
  6  5  2  0  0  0  0
  7  6  1  0  0  0  0
  8 38  1  0  0  0  0
  8  7  2  0  0  0  0
  9  8  1  0  0  0  0
 10  9  2  0  0  0  0
 10 11  1  0  0  0  0
 11 12  2  0  0  0  0
 12  7  1  0  0  0  0
 12 42  1  0  0  0  0
 13 29  1  0  0  0  0
 13 15  1  0  0  0  0
 14 18  2  0  0  0  0
 15 16  1  0  0  0  0
 15 14  1  0  0  0  0
 16 17  2  0  0  0  0
 17 18  1  0  0  0  0
 17 44  1  0  0  0  0
 18 20  1  0  0  0  0
 19 16  1  0  0  0  0
 19 46  1  0  0  0  0
 20 48  1  0  0  0  0
 20 49  1  0  0  0  0
 22 21  1  0  0  0  0
 22 13  1  0  0  0  0
 23 22  1  0  0  0  0
 24 23  2  0  0  0  0
 24 25  1  0  0  0  0
 25 27  1  0  0  0  0
 25 21  2  0  0  0  0
 26 54  1  0  0  0  0
 26 23  1  0  0  0  0
 27 55  1  0  0  0  0
 29 28  1  0  0  0  0
 30 31  2  0  0  0  0
 30 29  1  0  0  0  0
 31 32  1  0  0  0  0
 32 28  2  0  0  0  0
 32 34  1  0  0  0  0
 33 59  1  0  0  0  0
 33 30  1  0  0  0  0
 34 64  1  0  0  0  0
 36  4  1  0  0  0  0
 39  9  1  0  0  0  0
 40 10  1  0  0  0  0
 41 11  1  0  0  0  0
 43 13  1  0  0  0  0
 45 19  1  0  0  0  0
 47 19  1  0  0  0  0
 50 20  1  0  0  0  0
 51 24  1  0  0  0  0
 52 26  1  0  0  0  0
 53 26  1  0  0  0  0
 56 27  1  0  0  0  0
 57 27  1  0  0  0  0
 58 31  1  0  0  0  0
 60 33  1  0  0  0  0
 61 33  1  0  0  0  0
 62 34  1  0  0  0  0
 63 34  1  0  0  0  0
M  END
$$$$
