CSD_code = VOKZUS | q = 0 | S = 0 | Stoichiometry = C20H16Cl2FeN6 | MND = 6
 OpenBabel04212202113D

 45 50  0  0  1  0  0  0  0  0999 V2000
    2.1553    0.4022    2.5771 C   0  0  0  0  0  0  0  0  0  0  0  0
    1.6315    0.1952    1.6377 H   0  0  0  0  0  0  0  0  0  0  0  0
    1.8698   -0.3783    3.2927 H   0  0  0  0  0  0  0  0  0  0  0  0
    3.6263    0.3415    2.2950 C   0  0  1  0  0  3  0  0  0  0  0  0
    4.3031   -0.8614    2.2052 C   0  0  0  0  0  0  0  0  0  0  0  0
    3.7760   -1.7857    2.3859 H   0  0  0  0  0  0  0  0  0  0  0  0
    5.6490   -0.8687    1.8809 C   0  0  0  0  0  0  0  0  0  0  0  0
    6.2090   -1.7870    1.8077 H   0  0  0  0  0  0  0  0  0  0  0  0
    6.2599    0.3681    1.6432 C   0  0  0  0  0  0  0  0  0  0  0  0
    5.5127    1.5317    1.7629 C   0  0  0  0  0  0  0  0  0  0  0  0
    5.9445    2.5083    1.5962 H   0  0  0  0  0  0  0  0  0  0  0  0
    0.6032    2.2393    2.3351 C   0  0  0  0  0  0  0  0  0  0  0  0
    0.2491    3.1265    2.8721 H   0  0  0  0  0  0  0  0  0  0  0  0
   -0.2065    1.5025    2.2633 H   0  0  0  0  0  0  0  0  0  0  0  0
    1.0615    2.7138    0.9881 C   0  0  1  0  0  3  0  0  0  0  0  0
    0.2462    2.7291   -0.1304 C   0  0  0  0  0  0  0  0  0  0  0  0
   -0.7687    2.3694   -0.0606 H   0  0  0  0  0  0  0  0  0  0  0  0
    0.7402    3.2213   -1.3272 C   0  0  0  0  0  0  0  0  0  0  0  0
    0.1291    3.2567   -2.2155 H   0  0  0  0  0  0  0  0  0  0  0  0
    2.0610    3.6767   -1.3528 C   0  0  0  0  0  0  0  0  0  0  0  0
    2.8187    3.6248   -0.1855 C   0  0  0  0  0  0  0  0  0  0  0  0
    3.8357    3.9888   -0.1501 H   0  0  0  0  0  0  0  0  0  0  0  0
    1.6569    1.7862    4.5116 C   0  0  0  0  0  0  0  0  0  0  0  0
    1.1195    0.9244    4.9274 H   0  0  0  0  0  0  0  0  0  0  0  0
    1.1165    2.7065    4.7574 H   0  0  0  0  0  0  0  0  0  0  0  0
    3.0234    1.9395    5.1141 C   0  0  2  0  0  3  0  0  0  0  0  0
    3.3669    1.4428    6.3590 C   0  0  0  0  0  0  0  0  0  0  0  0
    2.6527    0.8634    6.9238 H   0  0  0  0  0  0  0  0  0  0  0  0
    4.6279    1.7152    6.8698 C   0  0  0  0  0  0  0  0  0  0  0  0
    4.9171    1.3438    7.8406 H   0  0  0  0  0  0  0  0  0  0  0  0
    5.4976    2.4822    6.1104 C   0  0  0  0  0  0  0  0  0  0  0  0
    6.4811    2.7338    6.4718 H   0  0  0  0  0  0  0  0  0  0  0  0
    5.0836    2.9310    4.8696 C   0  0  0  0  0  0  0  0  0  0  0  0
    5.7128    3.5411    4.2377 H   0  0  0  0  0  0  0  0  0  0  0  0
    7.6299    0.4282    1.2940 C   0  0  0  0  0  0  0  0  0  0  0  0
    2.6213    4.1736   -2.5531 C   0  0  0  0  0  0  0  0  0  0  0  0
    1.7715    1.7305    3.0562 N   0  0  1  0  0  4  0  0  0  0  0  0
    4.2208    1.5324    2.0969 N   0  0  0  0  0  0  0  0  0  0  0  0
    2.3316    3.1586    0.9579 N   0  0  0  0  0  0  0  0  0  0  0  0
    3.8790    2.6610    4.3770 N   0  0  0  0  0  0  0  0  0  0  0  0
    8.7415    0.4356    1.0186 N   0  0  0  0  0  0  0  0  0  0  0  0
    3.0488    4.5516   -3.5460 N   0  0  0  0  0  0  0  0  0  0  0  0
    4.7747    4.4442    2.1029 Cl  0  0  0  0  0  0  0  0  0  0  0  0
    2.0127    4.6680    3.4399 Cl  0  0  0  0  0  0  0  0  0  0  0  0
    3.2137    3.0139    2.6239 Fe  0  0  0  0  0  0  0  0  0  0  0  0
  1 37  1  0  0  0  0
  1  3  1  0  0  0  0
  2  1  1  0  0  0  0
  4  5  1  6  0  0  0
  4  1  1  0  0  0  0
  5  6  1  0  0  0  0
  7  5  2  0  0  0  0
  8  7  1  0  0  0  0
  9 10  2  0  0  0  0
  9  7  1  0  0  0  0
 10 38  1  0  0  0  0
 11 10  1  0  0  0  0
 12 13  1  0  0  0  0
 14 12  1  0  0  0  0
 15 16  1  1  0  0  0
 15 12  1  0  0  0  0
 16 17  1  0  0  0  0
 18 16  2  0  0  0  0
 19 18  1  0  0  0  0
 20 18  1  0  0  0  0
 20 21  2  0  0  0  0
 21 22  1  0  0  0  0
 21 39  1  0  0  0  0
 23 25  1  0  0  0  0
 23 24  1  0  0  0  0
 23 26  1  0  0  0  0
 26 27  1  1  0  0  0
 27 29  2  0  0  0  0
 27 28  1  0  0  0  0
 29 30  1  0  0  0  0
 31 32  1  0  0  0  0
 31 29  1  0  0  0  0
 33 31  2  0  0  0  0
 34 33  1  0  0  0  0
 35  9  1  0  0  0  0
 36 20  1  0  0  0  0
 37 12  1  6  0  0  0
 37 23  1  0  0  0  0
 38  4  1  0  0  0  0
 38 45  1  0  0  0  0
 39 15  1  0  0  0  0
 39 45  1  0  0  0  0
 40 33  1  0  0  0  0
 40 26  1  0  0  0  0
 41 35  3  0  0  0  0
 42 36  3  0  0  0  0
 43 45  1  0  0  0  0
 45 37  1  0  0  0  0
 45 44  1  0  0  0  0
 45 40  1  0  0  0  0
M  END
$$$$
