CSD_code = VOLDIL | q = 0 | S = 0 | Stoichiometry = C12H22Cl2O2PdS3 | MND = 4
 OpenBabel04212202113D

 42 43  0  0  0  0  0  0  0  0999 V2000
   13.0936   10.0281   18.0351 Pd  0  0  0  0  0  0  0  0  0  0  0  0
   14.3639   11.3030   16.6916 Cl  0  0  0  0  0  0  0  0  0  0  0  0
   14.9303    8.9003   18.6548 Cl  0  0  0  0  0  0  0  0  0  0  0  0
   11.1395   11.2161   17.4787 S   0  0  2  0  0  3  0  0  0  0  0  0
   11.8135    8.8087   19.5874 S   0  0  1  0  0  3  0  0  0  0  0  0
   12.4196    5.2566   16.9846 S   0  0  0  0  0  0  0  0  0  0  0  0
   10.6288    9.2087   14.7456 O   0  0  0  0  0  0  0  0  0  0  0  0
    9.5018    6.4905   16.0218 O   0  0  0  0  0  0  0  0  0  0  0  0
    9.9584    9.8159   17.6852 C   0  0  0  0  0  0  0  0  0  0  0  0
    8.9540   10.2270   17.5616 H   0  0  0  0  0  0  0  0  0  0  0  0
   10.1497    9.1024   16.8851 H   0  0  0  0  0  0  0  0  0  0  0  0
   10.0896    9.1868   19.0595 C   0  0  0  0  0  0  0  0  0  0  0  0
    9.5204    8.2587   19.1117 H   0  0  0  0  0  0  0  0  0  0  0  0
    9.7248    9.8733   19.8255 H   0  0  0  0  0  0  0  0  0  0  0  0
   12.0566    7.0990   19.0020 C   0  0  0  0  0  0  0  0  0  0  0  0
   12.9878    6.7851   19.4771 H   0  0  0  0  0  0  0  0  0  0  0  0
   11.2279    6.5055   19.3908 H   0  0  0  0  0  0  0  0  0  0  0  0
   12.1820    6.9941   17.4966 C   0  0  0  0  0  0  0  0  0  0  0  0
   13.0825    7.5331   17.1564 H   0  0  0  0  0  0  0  0  0  0  0  0
   11.2846    7.3396   16.9852 H   0  0  0  0  0  0  0  0  0  0  0  0
   10.6933    4.6590   17.0078 C   0  0  0  0  0  0  0  0  0  0  0  0
   10.7734    3.5742   16.9822 H   0  0  0  0  0  0  0  0  0  0  0  0
   10.2255    4.9654   17.9416 H   0  0  0  0  0  0  0  0  0  0  0  0
    9.8777    5.1426   15.8196 C   0  0  0  0  0  0  0  0  0  0  0  0
   10.4663    5.0414   14.8977 H   0  0  0  0  0  0  0  0  0  0  0  0
    8.9717    4.5229   15.7170 H   0  0  0  0  0  0  0  0  0  0  0  0
    8.8327    7.0518   14.9113 C   0  0  0  0  0  0  0  0  0  0  0  0
    8.4705    8.0245   15.2560 H   0  0  0  0  0  0  0  0  0  0  0  0
    7.9743    6.4255   14.6317 H   0  0  0  0  0  0  0  0  0  0  0  0
    9.7321    7.2558   13.7156 C   0  0  0  0  0  0  0  0  0  0  0  0
    9.4623    6.7374   12.5293 C   0  0  0  0  0  0  0  0  0  0  0  0
   10.0982    6.9055   11.6773 H   0  0  0  0  0  0  0  0  0  0  0  0
    8.5918    6.1259   12.3640 H   0  0  0  0  0  0  0  0  0  0  0  0
   10.9687    8.0761   13.9724 C   0  0  0  0  0  0  0  0  0  0  0  0
   11.7146    7.4681   14.5125 H   0  0  0  0  0  0  0  0  0  0  0  0
   11.4198    8.3882   13.0202 H   0  0  0  0  0  0  0  0  0  0  0  0
   11.7174   10.0795   14.9659 C   0  0  0  0  0  0  0  0  0  0  0  0
   12.1690   10.3631   14.0039 H   0  0  0  0  0  0  0  0  0  0  0  0
   12.5092    9.5859   15.5773 H   0  0  0  0  0  0  0  0  0  0  0  0
   11.2206   11.3364   15.6645 C   0  0  0  0  0  0  0  0  0  0  0  0
   10.2277   11.6030   15.3025 H   0  0  0  0  0  0  0  0  0  0  0  0
   11.9234   12.1518   15.4940 H   0  0  0  0  0  0  0  0  0  0  0  0
  1  3  1  0  0  0  0
  1  5  1  0  0  0  0
  2  1  1  0  0  0  0
  4 40  1  6  0  0  0
  4  9  1  0  0  0  0
  4  1  1  0  0  0  0
  5 15  1  6  0  0  0
  6 21  1  0  0  0  0
  6 18  1  0  0  0  0
  7 37  1  0  0  0  0
  9 12  1  0  0  0  0
 10  9  1  0  0  0  0
 11  9  1  0  0  0  0
 12 13  1  0  0  0  0
 12  5  1  0  0  0  0
 12 14  1  0  0  0  0
 15 17  1  0  0  0  0
 15 16  1  0  0  0  0
 18 15  1  0  0  0  0
 19 18  1  0  0  0  0
 20 18  1  0  0  0  0
 21 23  1  0  0  0  0
 22 21  1  0  0  0  0
 24  8  1  0  0  0  0
 24 21  1  0  0  0  0
 25 24  1  0  0  0  0
 26 24  1  0  0  0  0
 27 28  1  0  0  0  0
 27  8  1  0  0  0  0
 29 27  1  0  0  0  0
 30 34  1  0  0  0  0
 30 27  1  0  0  0  0
 31 30  2  0  0  0  0
 32 31  1  0  0  0  0
 33 31  1  0  0  0  0
 34 35  1  0  0  0  0
 34  7  1  0  0  0  0
 36 34  1  0  0  0  0
 37 39  1  0  0  0  0
 37 40  1  0  0  0  0
 38 37  1  0  0  0  0
 41 40  1  0  0  0  0
 42 40  1  0  0  0  0
M  END
$$$$
