CSD_code = VOMGAH | q = 0 | S = 0 | Stoichiometry = C25H37AuF4IP | MND = 4
 OpenBabel04212202113D

 69 72  0  0  0  0  0  0  0  0999 V2000
    3.2831   -0.6591   -0.5793 C   0  0  0  0  0  0  0  0  0  0  0  0
    2.2684   -1.5832   -0.3759 C   0  0  0  0  0  0  0  0  0  0  0  0
    1.2554   -1.2552   -0.1911 H   0  0  0  0  0  0  0  0  0  0  0  0
    2.5370   -2.9420   -0.3786 C   0  0  0  0  0  0  0  0  0  0  0  0
    1.7523   -3.6649   -0.2217 H   0  0  0  0  0  0  0  0  0  0  0  0
    3.8396   -3.3602   -0.5735 C   0  0  0  0  0  0  0  0  0  0  0  0
    4.8751   -2.4609   -0.7445 C   0  0  0  0  0  0  0  0  0  0  0  0
    5.8863   -2.8147   -0.8678 H   0  0  0  0  0  0  0  0  0  0  0  0
    4.5868   -1.1061   -0.7392 C   0  0  0  0  0  0  0  0  0  0  0  0
    5.3981   -0.4018   -0.8487 H   0  0  0  0  0  0  0  0  0  0  0  0
    2.8785   -0.3017   -3.7165 C   0  0  0  0  0  0  0  0  0  0  0  0
    3.5954   -0.8237   -3.0648 H   0  0  0  0  0  0  0  0  0  0  0  0
    1.5394   -1.0314   -3.6029 C   0  0  0  0  0  0  0  0  0  0  0  0
    1.1438   -0.9328   -2.5888 H   0  0  0  0  0  0  0  0  0  0  0  0
    0.8221   -0.5911   -4.2976 H   0  0  0  0  0  0  0  0  0  0  0  0
    1.7139   -2.5052   -3.9556 C   0  0  0  0  0  0  0  0  0  0  0  0
    2.4083   -2.9693   -3.2516 H   0  0  0  0  0  0  0  0  0  0  0  0
    0.7554   -3.0198   -3.8685 H   0  0  0  0  0  0  0  0  0  0  0  0
    2.2538   -2.6387   -5.3757 C   0  0  0  0  0  0  0  0  0  0  0  0
    2.4070   -3.6910   -5.6189 H   0  0  0  0  0  0  0  0  0  0  0  0
    1.5242   -2.2354   -6.0822 H   0  0  0  0  0  0  0  0  0  0  0  0
    3.5693   -1.8804   -5.5149 C   0  0  0  0  0  0  0  0  0  0  0  0
    3.9377   -1.9584   -6.5397 H   0  0  0  0  0  0  0  0  0  0  0  0
    4.3157   -2.3315   -4.8564 H   0  0  0  0  0  0  0  0  0  0  0  0
    3.4047   -0.4039   -5.1493 C   0  0  0  0  0  0  0  0  0  0  0  0
    2.7116    0.0683   -5.8472 H   0  0  0  0  0  0  0  0  0  0  0  0
    4.3768    0.0810   -5.2488 H   0  0  0  0  0  0  0  0  0  0  0  0
    4.2226    2.2864   -3.6346 C   0  0  0  0  0  0  0  0  0  0  0  0
    4.2227    2.0658   -4.7110 H   0  0  0  0  0  0  0  0  0  0  0  0
    5.4852    1.7021   -2.9957 C   0  0  0  0  0  0  0  0  0  0  0  0
    5.4816    1.9369   -1.9253 H   0  0  0  0  0  0  0  0  0  0  0  0
    5.5005    0.6136   -3.1027 H   0  0  0  0  0  0  0  0  0  0  0  0
    6.7355    2.2989   -3.6361 C   0  0  0  0  0  0  0  0  0  0  0  0
    7.6248    1.8886   -3.1539 H   0  0  0  0  0  0  0  0  0  0  0  0
    6.7691    2.0186   -4.6923 H   0  0  0  0  0  0  0  0  0  0  0  0
    6.7249    3.8189   -3.5122 C   0  0  0  0  0  0  0  0  0  0  0  0
    6.7635    4.0981   -2.4574 H   0  0  0  0  0  0  0  0  0  0  0  0
    7.6063    4.2365   -4.0015 H   0  0  0  0  0  0  0  0  0  0  0  0
    5.4581    4.3920   -4.1386 C   0  0  0  0  0  0  0  0  0  0  0  0
    5.4438    4.1649   -5.2080 H   0  0  0  0  0  0  0  0  0  0  0  0
    5.4456    5.4767   -4.0259 H   0  0  0  0  0  0  0  0  0  0  0  0
    4.2157    3.8055   -3.4703 C   0  0  0  0  0  0  0  0  0  0  0  0
    3.3247    4.2440   -3.9217 H   0  0  0  0  0  0  0  0  0  0  0  0
    4.2283    4.0764   -2.4151 H   0  0  0  0  0  0  0  0  0  0  0  0
    1.2844    2.3113   -3.5692 C   0  0  0  0  0  0  0  0  0  0  0  0
    1.4946    3.3353   -3.2271 H   0  0  0  0  0  0  0  0  0  0  0  0
    1.1180    2.3494   -5.0871 C   0  0  0  0  0  0  0  0  0  0  0  0
    2.0551    2.6290   -5.5740 H   0  0  0  0  0  0  0  0  0  0  0  0
    0.8155    1.3693   -5.4613 H   0  0  0  0  0  0  0  0  0  0  0  0
    0.0334    3.3701   -5.4320 C   0  0  0  0  0  0  0  0  0  0  0  0
   -0.1067    3.4030   -6.5143 H   0  0  0  0  0  0  0  0  0  0  0  0
    0.3534    4.3613   -5.1042 H   0  0  0  0  0  0  0  0  0  0  0  0
   -1.2829    3.0127   -4.7467 C   0  0  0  0  0  0  0  0  0  0  0  0
   -2.0352    3.7668   -4.9816 H   0  0  0  0  0  0  0  0  0  0  0  0
   -1.6422    2.0537   -5.1290 H   0  0  0  0  0  0  0  0  0  0  0  0
   -1.1002    2.9189   -3.2343 C   0  0  0  0  0  0  0  0  0  0  0  0
   -2.0415    2.6329   -2.7625 H   0  0  0  0  0  0  0  0  0  0  0  0
   -0.8069    3.8912   -2.8342 H   0  0  0  0  0  0  0  0  0  0  0  0
   -0.0238    1.8900   -2.8969 C   0  0  0  0  0  0  0  0  0  0  0  0
   -0.3473    0.9093   -3.2466 H   0  0  0  0  0  0  0  0  0  0  0  0
    0.1065    1.8328   -1.8126 H   0  0  0  0  0  0  0  0  0  0  0  0
    2.1447    0.1473    1.9916 F   0  0  0  0  0  0  0  0  0  0  0  0
    4.2769    0.4552    1.8096 F   0  0  0  0  0  0  0  0  0  0  0  0
    2.9872    2.0994    2.2614 F   0  0  0  0  0  0  0  0  0  0  0  0
    4.1089   -4.6811   -0.5961 F   0  0  0  0  0  0  0  0  0  0  0  0
    3.0735    1.0011    1.4868 C   0  0  0  0  0  0  0  0  0  0  0  0
    2.7573    1.3871   -2.9362 P   0  0  0  0  0  4  0  0  0  0  0  0
    2.1326    3.8249   -0.3843 I   0  0  0  0  0  0  0  0  0  0  0  0
    2.8460    1.3072   -0.5779 Au  0  0  1  0  0  0  0  0  0  0  0  0
  1 69  1  0  0  0  0
  1  2  1  0  0  0  0
  2  3  1  0  0  0  0
  4  2  2  0  0  0  0
  4  5  1  0  0  0  0
  6  4  1  0  0  0  0
  7  9  1  0  0  0  0
  7  6  2  0  0  0  0
  8  7  1  0  0  0  0
  9  1  2  0  0  0  0
 10  9  1  0  0  0  0
 11 13  1  0  0  0  0
 11 12  1  0  0  0  0
 11 67  1  0  0  0  0
 13 14  1  0  0  0  0
 15 13  1  0  0  0  0
 16 18  1  0  0  0  0
 16 13  1  0  0  0  0
 16 17  1  0  0  0  0
 19 16  1  0  0  0  0
 20 19  1  0  0  0  0
 21 19  1  0  0  0  0
 22 19  1  0  0  0  0
 22 25  1  0  0  0  0
 22 24  1  0  0  0  0
 23 22  1  0  0  0  0
 25 11  1  0  0  0  0
 26 25  1  0  0  0  0
 27 25  1  0  0  0  0
 28 42  1  0  0  0  0
 28 30  1  0  0  0  0
 28 67  1  0  0  0  0
 29 28  1  0  0  0  0
 30 31  1  0  0  0  0
 32 30  1  0  0  0  0
 33 36  1  0  0  0  0
 33 34  1  0  0  0  0
 33 30  1  0  0  0  0
 35 33  1  0  0  0  0
 36 37  1  0  0  0  0
 38 36  1  0  0  0  0
 39 41  1  0  0  0  0
 39 36  1  0  0  0  0
 39 42  1  0  0  0  0
 40 39  1  0  0  0  0
 42 44  1  0  0  0  0
 43 42  1  0  0  0  0
 45 46  1  0  0  0  0
 45 67  1  0  0  0  0
 45 59  1  0  0  0  0
 47 45  1  0  0  0  0
 48 47  1  0  0  0  0
 49 47  1  0  0  0  0
 50 52  1  0  0  0  0
 50 47  1  0  0  0  0
 50 53  1  0  0  0  0
 51 50  1  0  0  0  0
 53 56  1  0  0  0  0
 54 53  1  0  0  0  0
 55 53  1  0  0  0  0
 56 59  1  0  0  0  0
 56 58  1  0  0  0  0
 56 57  1  0  0  0  0
 59 61  1  0  0  0  0
 60 59  1  0  0  0  0
 65  6  1  0  0  0  0
 66 63  1  0  0  0  0
 66 62  1  0  0  0  0
 66 64  1  0  0  0  0
 67 69  1  0  0  0  0
 69 68  1  1  0  0  0
 69 66  1  0  0  0  0
M  END
$$$$
