CSD_code = VOMGIP | q = 0 | S = 0 | Stoichiometry = C24H37AuCl2FP | MND = 4
 OpenBabel04212202113D

 66 69  0  0  0  0  0  0  0  0999 V2000
    0.9196   10.1595   -0.0751 C   0  0  0  0  0  0  0  0  0  0  0  0
   -0.0366    9.3454   -0.6614 C   0  0  0  0  0  0  0  0  0  0  0  0
   -1.0422    9.3139   -0.2693 H   0  0  0  0  0  0  0  0  0  0  0  0
    0.2757    8.5712   -1.7677 C   0  0  0  0  0  0  0  0  0  0  0  0
   -0.4628    7.9360   -2.2311 H   0  0  0  0  0  0  0  0  0  0  0  0
    1.5569    8.6345   -2.2816 C   0  0  0  0  0  0  0  0  0  0  0  0
    2.5200    9.4608   -1.7337 C   0  0  0  0  0  0  0  0  0  0  0  0
    3.5050    9.5071   -2.1703 H   0  0  0  0  0  0  0  0  0  0  0  0
    2.1878   10.2294   -0.6303 C   0  0  0  0  0  0  0  0  0  0  0  0
    2.9274   10.8989   -0.2172 H   0  0  0  0  0  0  0  0  0  0  0  0
   -0.9494    9.1144    3.7990 C   0  0  0  0  0  0  0  0  0  0  0  0
   -0.7965    8.1383    4.2806 H   0  0  0  0  0  0  0  0  0  0  0  0
   -1.5167   10.0773    4.8409 C   0  0  0  0  0  0  0  0  0  0  0  0
   -0.8479   10.1441    5.7007 H   0  0  0  0  0  0  0  0  0  0  0  0
   -1.6132   11.0748    4.4122 H   0  0  0  0  0  0  0  0  0  0  0  0
   -2.8829    9.5824    5.3127 C   0  0  0  0  0  0  0  0  0  0  0  0
   -2.7733    8.6101    5.8018 H   0  0  0  0  0  0  0  0  0  0  0  0
   -3.2821   10.2830    6.0473 H   0  0  0  0  0  0  0  0  0  0  0  0
   -3.8480    9.4522    4.1400 C   0  0  0  0  0  0  0  0  0  0  0  0
   -3.9885   10.4310    3.6780 H   0  0  0  0  0  0  0  0  0  0  0  0
   -4.8200    9.1020    4.4915 H   0  0  0  0  0  0  0  0  0  0  0  0
   -3.2870    8.4811    3.1075 C   0  0  0  0  0  0  0  0  0  0  0  0
   -3.9668    8.4000    2.2573 H   0  0  0  0  0  0  0  0  0  0  0  0
   -3.1896    7.4879    3.5541 H   0  0  0  0  0  0  0  0  0  0  0  0
   -1.9203    8.9581    2.6253 C   0  0  0  0  0  0  0  0  0  0  0  0
   -1.5174    8.2506    1.8942 H   0  0  0  0  0  0  0  0  0  0  0  0
   -2.0299    9.9308    2.1338 H   0  0  0  0  0  0  0  0  0  0  0  0
    1.7186   10.1630    4.5163 C   0  0  0  0  0  0  0  0  0  0  0  0
    1.0616   10.9152    4.9761 H   0  0  0  0  0  0  0  0  0  0  0  0
    2.9846   10.9032    4.0840 C   0  0  0  0  0  0  0  0  0  0  0  0
    3.7068   10.2229    3.6311 H   0  0  0  0  0  0  0  0  0  0  0  0
    2.7251   11.6687    3.3475 H   0  0  0  0  0  0  0  0  0  0  0  0
    3.6137   11.5580    5.3118 C   0  0  0  0  0  0  0  0  0  0  0  0
    2.9182   12.2933    5.7200 H   0  0  0  0  0  0  0  0  0  0  0  0
    4.5250   12.0832    5.0210 H   0  0  0  0  0  0  0  0  0  0  0  0
    3.9341   10.5072    6.3716 C   0  0  0  0  0  0  0  0  0  0  0  0
    4.6782    9.8098    5.9783 H   0  0  0  0  0  0  0  0  0  0  0  0
    4.3628   10.9889    7.2517 H   0  0  0  0  0  0  0  0  0  0  0  0
    2.6773    9.7370    6.7679 C   0  0  0  0  0  0  0  0  0  0  0  0
    1.9601   10.4242    7.2212 H   0  0  0  0  0  0  0  0  0  0  0  0
    2.9254    8.9732    7.5080 H   0  0  0  0  0  0  0  0  0  0  0  0
    2.0424    9.0794    5.5433 C   0  0  0  0  0  0  0  0  0  0  0  0
    1.1374    8.5416    5.8362 H   0  0  0  0  0  0  0  0  0  0  0  0
    2.7476    8.3596    5.1226 H   0  0  0  0  0  0  0  0  0  0  0  0
    1.3387    8.0420    2.3150 C   0  0  0  0  0  0  0  0  0  0  0  0
    0.8093    8.0161    1.3503 H   0  0  0  0  0  0  0  0  0  0  0  0
    2.8304    8.1872    2.0145 C   0  0  0  0  0  0  0  0  0  0  0  0
    3.0206    9.1527    1.5392 H   0  0  0  0  0  0  0  0  0  0  0  0
    3.3992    8.1399    2.9449 H   0  0  0  0  0  0  0  0  0  0  0  0
    3.2906    7.0531    1.1036 C   0  0  0  0  0  0  0  0  0  0  0  0
    2.7499    7.1062    0.1562 H   0  0  0  0  0  0  0  0  0  0  0  0
    4.3548    7.1620    0.8881 H   0  0  0  0  0  0  0  0  0  0  0  0
    3.0273    5.7091    1.7754 C   0  0  0  0  0  0  0  0  0  0  0  0
    3.6239    5.6356    2.6878 H   0  0  0  0  0  0  0  0  0  0  0  0
    3.3288    4.8960    1.1136 H   0  0  0  0  0  0  0  0  0  0  0  0
    1.5489    5.5689    2.1226 C   0  0  0  0  0  0  0  0  0  0  0  0
    1.3740    4.6166    2.6270 H   0  0  0  0  0  0  0  0  0  0  0  0
    0.9618    5.5724    1.2012 H   0  0  0  0  0  0  0  0  0  0  0  0
    1.0753    6.7124    3.0221 C   0  0  0  0  0  0  0  0  0  0  0  0
    1.6073    6.6718    3.9736 H   0  0  0  0  0  0  0  0  0  0  0  0
    0.0108    6.5757    3.2178 H   0  0  0  0  0  0  0  0  0  0  0  0
    1.8748    7.8698   -3.3463 F   0  0  0  0  0  0  0  0  0  0  0  0
    0.6892    9.6053    3.0920 P   0  0  0  0  0  4  0  0  0  0  0  0
    0.2102   12.9176   -0.0726 Cl  0  0  0  0  0  0  0  0  0  0  0  0
   -0.0200   12.6338    3.3276 Cl  0  0  0  0  0  0  0  0  0  0  0  0
    0.4692   11.2852    1.5076 Au  0  0  0  0  0  0  0  0  0  0  0  0
  1 66  1  0  0  0  0
  2  3  1  0  0  0  0
  2  1  2  0  0  0  0
  4  2  1  0  0  0  0
  5  4  1  0  0  0  0
  6  4  2  0  0  0  0
  6  7  1  0  0  0  0
  7  9  2  0  0  0  0
  8  7  1  0  0  0  0
  9 10  1  0  0  0  0
  9  1  1  0  0  0  0
 11 12  1  0  0  0  0
 11 13  1  0  0  0  0
 13 16  1  0  0  0  0
 13 14  1  0  0  0  0
 15 13  1  0  0  0  0
 16 17  1  0  0  0  0
 16 18  1  0  0  0  0
 19 21  1  0  0  0  0
 19 16  1  0  0  0  0
 20 19  1  0  0  0  0
 22 24  1  0  0  0  0
 22 19  1  0  0  0  0
 23 22  1  0  0  0  0
 25 22  1  0  0  0  0
 25 11  1  0  0  0  0
 26 25  1  0  0  0  0
 27 25  1  0  0  0  0
 28 29  1  0  0  0  0
 28 42  1  0  0  0  0
 30 28  1  0  0  0  0
 30 33  1  0  0  0  0
 31 30  1  0  0  0  0
 32 30  1  0  0  0  0
 33 34  1  0  0  0  0
 33 36  1  0  0  0  0
 35 33  1  0  0  0  0
 36 39  1  0  0  0  0
 36 38  1  0  0  0  0
 37 36  1  0  0  0  0
 39 40  1  0  0  0  0
 39 41  1  0  0  0  0
 42 43  1  0  0  0  0
 42 39  1  0  0  0  0
 44 42  1  0  0  0  0
 45 59  1  0  0  0  0
 45 63  1  0  0  0  0
 46 45  1  0  0  0  0
 47 45  1  0  0  0  0
 47 49  1  0  0  0  0
 48 47  1  0  0  0  0
 50 53  1  0  0  0  0
 50 47  1  0  0  0  0
 51 50  1  0  0  0  0
 52 50  1  0  0  0  0
 53 56  1  0  0  0  0
 53 54  1  0  0  0  0
 55 53  1  0  0  0  0
 56 57  1  0  0  0  0
 56 59  1  0  0  0  0
 58 56  1  0  0  0  0
 59 61  1  0  0  0  0
 59 60  1  0  0  0  0
 62  6  1  0  0  0  0
 63 11  1  0  0  0  0
 63 28  1  0  0  0  0
 64 66  1  0  0  0  0
 66 63  1  0  0  0  0
 66 65  1  0  0  0  0
M  END
$$$$
