CSD_code = VOMJEM | q = 0 | S = 0 | Stoichiometry = C9H14Cl3MoN5O4 | MND = 6
 OpenBabel04212202113D

 36 38  0  0  1  0  0  0  0  0999 V2000
    9.2952   10.0776    1.8178 Mo  0  0  0  0  0  0  0  0  0  0  0  0
   10.5851    9.7720    0.0188 Cl  0  0  0  0  0  0  0  0  0  0  0  0
    9.4956    7.6760    2.2050 Cl  0  0  0  0  0  0  0  0  0  0  0  0
    9.8147   12.3660    1.7959 Cl  0  0  0  0  0  0  0  0  0  0  0  0
    7.7724   10.0959    1.2400 O   0  0  0  0  0  1  0  0  0  0  0  0
   11.1720    9.9558    2.8986 O   0  0  0  0  0  0  0  0  0  0  0  0
    7.9003    7.8733    4.8337 O   0  0  0  0  0  0  0  0  0  0  0  0
    4.6791    9.5003    4.5731 O   0  0  0  0  0  0  0  0  0  0  0  0
   10.4985    9.8600    6.8768 N   0  0  0  0  0  0  0  0  0  0  0  0
   12.7159    9.4587    7.2468 N   0  0  0  0  0  0  0  0  0  0  0  0
   11.9878    9.7402    5.0549 N   0  0  0  0  0  0  0  0  0  0  0  0
    8.7390   10.2448    3.6610 N   0  0  0  0  0  0  0  0  0  0  0  0
    8.2492   10.3539    6.4887 N   0  0  0  0  0  0  0  0  0  0  0  0
   11.6942    9.6725    6.3921 C   0  0  2  0  0  3  0  0  0  0  0  0
   10.9809    9.9502    4.1420 C   0  0  0  0  0  0  0  0  0  0  0  0
    7.3884   10.1856    4.1797 C   0  0  2  0  0  0  0  0  0  0  0  0
    7.2802   10.8753    5.5525 C   0  0  0  0  0  0  0  0  0  0  0  0
    9.6901   10.1404    4.6443 C   0  0  0  0  0  0  0  0  0  0  0  0
    9.4783   10.1155    6.0326 C   0  0  0  0  0  0  0  0  0  0  0  0
    6.9574    8.6842    4.1813 C   0  0  2  0  0  0  0  0  0  0  0  0
    5.5872    8.4643    4.8633 C   0  0  2  0  0  0  0  0  0  0  0  0
    5.0394    7.0940    4.4755 C   0  0  0  0  0  0  0  0  0  0  0  0
   12.9279    9.5956    4.7063 H   0  0  0  0  0  0  0  0  0  0  0  0
    6.7357   10.7151    3.4779 H   0  0  0  0  0  0  0  0  0  0  0  0
    8.0621   10.3209    7.4767 H   0  0  0  0  0  0  0  0  0  0  0  0
   13.6023    9.1200    6.9184 H   0  0  0  0  0  0  0  0  0  0  0  0
   12.4704    9.3059    8.2096 H   0  0  0  0  0  0  0  0  0  0  0  0
    6.8798    8.4047    3.1181 H   0  0  0  0  0  0  0  0  0  0  0  0
    5.7413    8.4967    5.9467 H   0  0  0  0  0  0  0  0  0  0  0  0
    6.2723   10.7411    5.9403 H   0  0  0  0  0  0  0  0  0  0  0  0
    7.4598   11.9485    5.3979 H   0  0  0  0  0  0  0  0  0  0  0  0
    8.5165    7.5244    4.1643 H   0  0  0  0  0  0  0  0  0  0  0  0
    4.4283    9.4341    3.6439 H   0  0  0  0  0  0  0  0  0  0  0  0
    5.7614    6.3281    4.7402 H   0  0  0  0  0  0  0  0  0  0  0  0
    4.1058    6.9044    4.9990 H   0  0  0  0  0  0  0  0  0  0  0  0
    4.8584    7.0514    3.4029 H   0  0  0  0  0  0  0  0  0  0  0  0
  1  3  1  0  0  0  0
  1  6  1  0  0  0  0
  1 12  1  0  0  0  0
  2  1  1  0  0  0  0
  4  1  1  0  0  0  0
  5  1  1  0  0  0  0
  6 15  1  0  0  0  0
  8 21  1  0  0  0  0
 10 27  1  0  0  0  0
 11 14  1  0  0  0  0
 12 16  1  0  0  0  0
 12 18  1  0  0  0  0
 13 25  1  0  0  0  0
 14  9  1  0  0  0  0
 14 10  1  1  0  0  0
 15 18  2  0  0  0  0
 15 11  1  0  0  0  0
 16 24  1  6  0  0  0
 16 20  1  0  0  0  0
 16 17  1  0  0  0  0
 17 30  1  0  0  0  0
 17 13  1  0  0  0  0
 18 19  1  0  0  0  0
 19 13  1  0  0  0  0
 19  9  2  0  0  0  0
 20 28  1  6  0  0  0
 20  7  1  0  0  0  0
 20 21  1  0  0  0  0
 21 29  1  1  0  0  0
 22 34  1  0  0  0  0
 22 21  1  0  0  0  0
 22 35  1  0  0  0  0
 23 11  1  0  0  0  0
 26 10  1  0  0  0  0
 31 17  1  0  0  0  0
 32  7  1  0  0  0  0
 33  8  1  0  0  0  0
 36 22  1  0  0  0  0
M  END
$$$$
