CSD_code = VOMTAS | q = 0 | S = 0 | Stoichiometry = C6H21Cl2NO3RuS3 | MND = 6
 OpenBabel04212202113D

 37 36  0  0  0  0  0  0  0  0999 V2000
   -0.0088    2.2319    4.6128 Ru  0  0  0  0  0  0  0  0  0  0  0  0
    2.3175    2.3613    4.4603 Cl  0  0  0  0  0  0  0  0  0  0  0  0
   -0.0954    0.1017    3.6581 Cl  0  0  0  0  0  0  0  0  0  0  0  0
   -2.2779    2.1472    4.8425 S   0  0  0  0  0  0  0  0  0  0  0  0
    0.0324    4.2439    5.6325 S   0  0  0  0  0  0  0  0  0  0  0  0
   -0.1442    3.0339    2.5309 S   0  0  0  0  0  0  0  0  0  0  0  0
   -2.5149    1.9506    6.2824 O   0  0  0  0  0  1  0  0  0  0  0  0
   -0.8297    5.2176    4.9693 O   0  0  0  0  0  1  0  0  0  0  0  0
   -1.5108    3.0230    2.0293 O   0  0  0  0  0  1  0  0  0  0  0  0
    0.2178    1.1144    6.4727 N   0  0  0  0  0  4  0  0  0  0  0  0
   -3.1931    0.8420    3.9800 C   0  0  0  0  0  0  0  0  0  0  0  0
   -3.3384    3.5360    4.3607 C   0  0  0  0  0  0  0  0  0  0  0  0
    1.6138    5.0961    5.9310 C   0  0  0  0  0  0  0  0  0  0  0  0
   -0.5228    4.1917    7.3687 C   0  0  0  0  0  0  0  0  0  0  0  0
    0.5364    4.6874    2.2151 C   0  0  0  0  0  0  0  0  0  0  0  0
    0.8760    2.1267    1.3381 C   0  0  0  0  0  0  0  0  0  0  0  0
    1.0218    1.3384    7.0570 H   0  0  0  0  0  0  0  0  0  0  0  0
   -0.6496    1.1394    7.0138 H   0  0  0  0  0  0  0  0  0  0  0  0
    0.3463    0.1618    6.1106 H   0  0  0  0  0  0  0  0  0  0  0  0
   -2.7214   -0.1066    4.2144 H   0  0  0  0  0  0  0  0  0  0  0  0
   -4.2237    0.8601    4.3137 H   0  0  0  0  0  0  0  0  0  0  0  0
   -3.1018    1.0507    2.9205 H   0  0  0  0  0  0  0  0  0  0  0  0
   -2.8877    4.4485    4.7369 H   0  0  0  0  0  0  0  0  0  0  0  0
   -3.3733    3.5603    3.2791 H   0  0  0  0  0  0  0  0  0  0  0  0
   -4.3141    3.3737    4.8029 H   0  0  0  0  0  0  0  0  0  0  0  0
    2.0466    5.3371    4.9671 H   0  0  0  0  0  0  0  0  0  0  0  0
    1.4158    5.9978    6.4982 H   0  0  0  0  0  0  0  0  0  0  0  0
    2.2698    4.4134    6.4569 H   0  0  0  0  0  0  0  0  0  0  0  0
   -1.4263    3.5881    7.4031 H   0  0  0  0  0  0  0  0  0  0  0  0
    0.2610    3.7476    7.9703 H   0  0  0  0  0  0  0  0  0  0  0  0
   -0.7348    5.2060    7.6860 H   0  0  0  0  0  0  0  0  0  0  0  0
    0.0163    5.3843    2.8648 H   0  0  0  0  0  0  0  0  0  0  0  0
    1.5941    4.6473    2.4511 H   0  0  0  0  0  0  0  0  0  0  0  0
    0.3680    4.9395    1.1748 H   0  0  0  0  0  0  0  0  0  0  0  0
    0.4923    1.1128    1.2841 H   0  0  0  0  0  0  0  0  0  0  0  0
    0.8087    2.6167    0.3741 H   0  0  0  0  0  0  0  0  0  0  0  0
    1.8901    2.1183    1.7247 H   0  0  0  0  0  0  0  0  0  0  0  0
  1  4  1  0  0  0  0
  1  5  1  0  0  0  0
  1 10  1  0  0  0  0
  2  1  1  0  0  0  0
  3  1  1  0  0  0  0
  4  7  1  0  0  0  0
  5 13  1  0  0  0  0
  5 14  1  0  0  0  0
  6  1  1  0  0  0  0
  8  5  1  0  0  0  0
  9  6  1  0  0  0  0
 10 18  1  0  0  0  0
 10 17  1  0  0  0  0
 11 20  1  0  0  0  0
 11 21  1  0  0  0  0
 11  4  1  0  0  0  0
 12 23  1  0  0  0  0
 12 25  1  0  0  0  0
 12  4  1  0  0  0  0
 13 28  1  0  0  0  0
 13 27  1  0  0  0  0
 14 29  1  0  0  0  0
 14 31  1  0  0  0  0
 14 30  1  0  0  0  0
 15 33  1  0  0  0  0
 15  6  1  0  0  0  0
 15 32  1  0  0  0  0
 16 37  1  0  0  0  0
 16  6  1  0  0  0  0
 19 10  1  0  0  0  0
 22 11  1  0  0  0  0
 24 12  1  0  0  0  0
 26 13  1  0  0  0  0
 34 15  1  0  0  0  0
 35 16  1  0  0  0  0
 36 16  1  0  0  0  0
M  END
$$$$
