CSD_code = VONSAV | q = 0 | S = 0 | Stoichiometry = C22H35Cl2N2O2PRuS2 | MND = 6
 OpenBabel04212202113D

 67 69  0  0  1  0  0  0  0  0999 V2000
    6.6314    6.9825    4.0697 Ru  0  0  0  0  0  0  0  0  0  0  0  0
    5.9601    5.1075    5.3403 Cl  0  0  0  0  0  0  0  0  0  0  0  0
    4.6193    6.9587    2.8521 Cl  0  0  0  0  0  0  0  0  0  0  0  0
    7.2184    5.4014    2.5927 S   0  0  0  0  0  0  0  0  0  0  0  0
    7.3065    8.7270    2.7597 S   0  0  0  0  0  0  0  0  0  0  0  0
    8.4032    7.3387    5.5013 P   0  0  0  0  0  4  0  0  0  0  0  0
    7.7134    5.8978    1.3122 O   0  0  0  0  0  1  0  0  0  0  0  0
    7.5000    9.9392    3.5639 O   0  0  0  0  0  1  0  0  0  0  0  0
    7.6733    9.7380    6.9189 N   0  0  0  0  0  0  0  0  0  0  0  0
    6.1719    8.4360    5.5859 N   0  0  0  0  0  0  0  0  0  0  0  0
    7.0640   11.0493    6.8684 C   0  0  0  0  0  0  0  0  0  0  0  0
    6.5181   11.1652    5.9365 H   0  0  0  0  0  0  0  0  0  0  0  0
    7.8562   11.8019    6.8938 H   0  0  0  0  0  0  0  0  0  0  0  0
    6.4005   11.2249    7.7200 H   0  0  0  0  0  0  0  0  0  0  0  0
    8.8142    9.6370    7.7946 C   0  0  0  0  0  0  0  0  0  0  0  0
    9.3005    8.6721    7.6737 H   0  0  0  0  0  0  0  0  0  0  0  0
    8.4870    9.7314    8.8347 H   0  0  0  0  0  0  0  0  0  0  0  0
    9.5385   10.4297    7.5876 H   0  0  0  0  0  0  0  0  0  0  0  0
    7.3198    8.7196    6.1094 C   0  0  2  0  0  3  0  0  0  0  0  0
    4.8966    9.0333    5.9209 C   0  0  0  0  0  0  0  0  0  0  0  0
    5.0051    9.6691    6.8090 H   0  0  0  0  0  0  0  0  0  0  0  0
    3.9323    7.8923    6.2524 C   0  0  0  0  0  0  0  0  0  0  0  0
    2.9326    8.2859    6.4132 H   0  0  0  0  0  0  0  0  0  0  0  0
    4.2533    7.3615    7.1464 H   0  0  0  0  0  0  0  0  0  0  0  0
    3.9044    7.1883    5.4222 H   0  0  0  0  0  0  0  0  0  0  0  0
    4.3603    9.8495    4.7435 C   0  0  0  0  0  0  0  0  0  0  0  0
    3.4862   10.4175    5.0517 H   0  0  0  0  0  0  0  0  0  0  0  0
    4.0751    9.1685    3.9448 H   0  0  0  0  0  0  0  0  0  0  0  0
    5.1191   10.5320    4.3646 H   0  0  0  0  0  0  0  0  0  0  0  0
   10.0161    8.0410    5.0362 C   0  0  0  0  0  0  0  0  0  0  0  0
   10.2297    9.4099    4.8995 C   0  0  0  0  0  0  0  0  0  0  0  0
    9.4258   10.1014    5.0942 H   0  0  0  0  0  0  0  0  0  0  0  0
   11.4532    9.8769    4.4526 C   0  0  0  0  0  0  0  0  0  0  0  0
   11.6137   10.9401    4.3500 H   0  0  0  0  0  0  0  0  0  0  0  0
   12.4661    8.9905    4.1248 C   0  0  0  0  0  0  0  0  0  0  0  0
   13.4195    9.3608    3.7788 H   0  0  0  0  0  0  0  0  0  0  0  0
   12.2457    7.6255    4.2174 C   0  0  0  0  0  0  0  0  0  0  0  0
   13.0229    6.9302    3.9358 H   0  0  0  0  0  0  0  0  0  0  0  0
   11.0240    7.1527    4.6593 C   0  0  0  0  0  0  0  0  0  0  0  0
   10.8385    6.0871    4.7050 H   0  0  0  0  0  0  0  0  0  0  0  0
    8.7034    6.4329    7.0612 C   0  0  0  0  0  0  0  0  0  0  0  0
    9.9578    6.0252    7.5034 C   0  0  0  0  0  0  0  0  0  0  0  0
   10.8469    6.2678    6.9405 H   0  0  0  0  0  0  0  0  0  0  0  0
   10.0763    5.3187    8.6879 C   0  0  0  0  0  0  0  0  0  0  0  0
   11.0538    5.0049    9.0241 H   0  0  0  0  0  0  0  0  0  0  0  0
    8.9526    5.0117    9.4358 C   0  0  0  0  0  0  0  0  0  0  0  0
    9.0520    4.4516   10.3536 H   0  0  0  0  0  0  0  0  0  0  0  0
    7.7028    5.4256    9.0038 C   0  0  0  0  0  0  0  0  0  0  0  0
    6.8231    5.1896    9.5831 H   0  0  0  0  0  0  0  0  0  0  0  0
    7.5754    6.1340    7.8247 C   0  0  0  0  0  0  0  0  0  0  0  0
    6.6007    6.4407    7.4743 H   0  0  0  0  0  0  0  0  0  0  0  0
    8.5175    4.3047    3.2531 C   0  0  0  0  0  0  0  0  0  0  0  0
    8.6846    3.4829    2.5670 H   0  0  0  0  0  0  0  0  0  0  0  0
    8.1742    3.9566    4.2224 H   0  0  0  0  0  0  0  0  0  0  0  0
    9.4187    4.9012    3.3519 H   0  0  0  0  0  0  0  0  0  0  0  0
    6.0051    4.1110    2.2054 C   0  0  0  0  0  0  0  0  0  0  0  0
    6.4644    3.4244    1.5041 H   0  0  0  0  0  0  0  0  0  0  0  0
    5.1430    4.5987    1.7609 H   0  0  0  0  0  0  0  0  0  0  0  0
    5.7254    3.6309    3.1368 H   0  0  0  0  0  0  0  0  0  0  0  0
    8.8420    8.5704    1.7877 C   0  0  0  0  0  0  0  0  0  0  0  0
    9.0179    9.5210    1.2987 H   0  0  0  0  0  0  0  0  0  0  0  0
    8.7047    7.7647    1.0776 H   0  0  0  0  0  0  0  0  0  0  0  0
    9.6579    8.3434    2.4643 H   0  0  0  0  0  0  0  0  0  0  0  0
    6.2500    9.1968    1.3604 C   0  0  0  0  0  0  0  0  0  0  0  0
    6.6610   10.0912    0.9070 H   0  0  0  0  0  0  0  0  0  0  0  0
    5.2483    9.3751    1.7355 H   0  0  0  0  0  0  0  0  0  0  0  0
    6.2433    8.3568    0.6751 H   0  0  0  0  0  0  0  0  0  0  0  0
  1  2  1  0  0  0  0
  1  6  1  0  0  0  0
  1 10  1  0  0  0  0
  3  1  1  0  0  0  0
  4 52  1  0  0  0  0
  4  1  1  0  0  0  0
  5  8  1  0  0  0  0
  5  1  1  0  0  0  0
  6 19  1  0  0  0  0
  6 41  1  0  0  0  0
  7  4  1  0  0  0  0
  9 15  1  0  0  0  0
 10 20  1  0  0  0  0
 10 19  1  0  0  0  0
 11 13  1  0  0  0  0
 11  9  1  0  0  0  0
 11 14  1  0  0  0  0
 12 11  1  0  0  0  0
 15 17  1  0  0  0  0
 16 15  1  0  0  0  0
 18 15  1  0  0  0  0
 19  9  1  1  0  0  0
 20 22  1  0  0  0  0
 20 21  1  0  0  0  0
 22 23  1  0  0  0  0
 22 24  1  0  0  0  0
 25 22  1  0  0  0  0
 26 27  1  0  0  0  0
 26 20  1  0  0  0  0
 28 26  1  0  0  0  0
 29 26  1  0  0  0  0
 30  6  1  0  0  0  0
 31 30  1  0  0  0  0
 31 32  1  0  0  0  0
 33 31  2  0  0  0  0
 34 33  1  0  0  0  0
 35 37  2  0  0  0  0
 35 33  1  0  0  0  0
 36 35  1  0  0  0  0
 37 39  1  0  0  0  0
 38 37  1  0  0  0  0
 39 40  1  0  0  0  0
 39 30  2  0  0  0  0
 41 42  2  0  0  0  0
 41 50  1  0  0  0  0
 42 44  1  0  0  0  0
 43 42  1  0  0  0  0
 44 45  1  0  0  0  0
 44 46  2  0  0  0  0
 46 47  1  0  0  0  0
 48 46  1  0  0  0  0
 48 49  1  0  0  0  0
 50 48  2  0  0  0  0
 51 50  1  0  0  0  0
 52 55  1  0  0  0  0
 52 54  1  0  0  0  0
 53 52  1  0  0  0  0
 56  4  1  0  0  0  0
 56 59  1  0  0  0  0
 57 56  1  0  0  0  0
 58 56  1  0  0  0  0
 60 63  1  0  0  0  0
 60  5  1  0  0  0  0
 61 60  1  0  0  0  0
 62 60  1  0  0  0  0
 64 66  1  0  0  0  0
 64  5  1  0  0  0  0
 65 64  1  0  0  0  0
 67 64  1  0  0  0  0
M  END
$$$$
