CSD_code = VONSUP | q = 0 | S = 0 | Stoichiometry = C20H38Cl2NO2PRuS2 | MND = 6
 OpenBabel04212202113D

 67 68  0  0  1  0  0  0  0  0999 V2000
    2.0540    3.3627    3.7706 Ru  0  0  0  0  0  0  0  0  0  0  0  0
    2.2646    3.0112    6.0875 Cl  0  0  0  0  0  0  0  0  0  0  0  0
    3.0833    5.4834    3.9153 Cl  0  0  0  0  0  0  0  0  0  0  0  0
    1.9503    3.6401    1.5254 S   0  0  0  0  0  0  0  0  0  0  0  0
    0.1362    4.4708    4.1470 S   0  0  0  0  0  0  0  0  0  0  0  0
    1.3663    1.1363    3.6437 P   0  0  0  0  0  4  0  0  0  0  0  0
    2.5853    2.4977    0.8660 O   0  0  0  0  0  1  0  0  0  0  0  0
   -0.9995    3.6945    3.6474 O   0  0  0  0  0  1  0  0  0  0  0  0
    3.6823    2.0904    3.5320 N   0  0  0  0  0  0  0  0  0  0  0  0
    5.1051    2.3410    3.5414 C   0  0  0  0  0  0  0  0  0  0  0  0
    5.6409    1.3942    3.3722 H   0  0  0  0  0  0  0  0  0  0  0  0
    5.4524    3.3334    2.4345 C   0  0  0  0  0  0  0  0  0  0  0  0
    6.5314    3.4422    2.3641 H   0  0  0  0  0  0  0  0  0  0  0  0
    5.0165    4.3009    2.6747 H   0  0  0  0  0  0  0  0  0  0  0  0
    5.0640    2.9810    1.4807 H   0  0  0  0  0  0  0  0  0  0  0  0
    5.4736    2.9065    4.9133 C   0  0  0  0  0  0  0  0  0  0  0  0
    6.5341    3.1405    4.9429 H   0  0  0  0  0  0  0  0  0  0  0  0
    5.2402    2.1906    5.6983 H   0  0  0  0  0  0  0  0  0  0  0  0
    4.9049    3.8163    5.0973 H   0  0  0  0  0  0  0  0  0  0  0  0
    3.1952    0.9116    3.4387 C   0  0  1  0  0  3  0  0  0  0  0  0
    3.9751   -0.3191    3.2314 C   0  0  0  0  0  0  0  0  0  0  0  0
    4.3636   -0.6619    1.9375 C   0  0  0  0  0  0  0  0  0  0  0  0
    4.0923   -0.0097    1.1198 H   0  0  0  0  0  0  0  0  0  0  0  0
    5.0870   -1.8202    1.7191 C   0  0  0  0  0  0  0  0  0  0  0  0
    5.3858   -2.0836    0.7156 H   0  0  0  0  0  0  0  0  0  0  0  0
    5.4305   -2.6379    2.7840 C   0  0  0  0  0  0  0  0  0  0  0  0
    5.9952   -3.5416    2.6103 H   0  0  0  0  0  0  0  0  0  0  0  0
    5.0574   -2.2913    4.0718 C   0  0  0  0  0  0  0  0  0  0  0  0
    5.3347   -2.9208    4.9041 H   0  0  0  0  0  0  0  0  0  0  0  0
    4.3315   -1.1352    4.3002 C   0  0  0  0  0  0  0  0  0  0  0  0
    4.0533   -0.8504    5.3039 H   0  0  0  0  0  0  0  0  0  0  0  0
    0.5655    0.3770    2.1396 C   0  0  0  0  0  0  0  0  0  0  0  0
    0.9676    1.0061    1.3359 H   0  0  0  0  0  0  0  0  0  0  0  0
    0.8939   -1.0728    1.7947 C   0  0  0  0  0  0  0  0  0  0  0  0
    0.5948   -1.2612    0.7642 H   0  0  0  0  0  0  0  0  0  0  0  0
    0.3541   -1.7705    2.4269 H   0  0  0  0  0  0  0  0  0  0  0  0
    1.9580   -1.2754    1.8771 H   0  0  0  0  0  0  0  0  0  0  0  0
   -0.9434    0.5994    2.2444 C   0  0  0  0  0  0  0  0  0  0  0  0
   -1.4065    0.5334    1.2613 H   0  0  0  0  0  0  0  0  0  0  0  0
   -1.1656    1.5775    2.6719 H   0  0  0  0  0  0  0  0  0  0  0  0
   -1.3974   -0.1591    2.8788 H   0  0  0  0  0  0  0  0  0  0  0  0
    0.9779    0.1561    5.1810 C   0  0  0  0  0  0  0  0  0  0  0  0
    1.7829    0.4588    5.8641 H   0  0  0  0  0  0  0  0  0  0  0  0
    0.9622   -1.3615    5.0452 C   0  0  0  0  0  0  0  0  0  0  0  0
    0.9966   -1.8057    6.0392 H   0  0  0  0  0  0  0  0  0  0  0  0
    1.8142   -1.7288    4.4785 H   0  0  0  0  0  0  0  0  0  0  0  0
    0.0454   -1.6974    4.5674 H   0  0  0  0  0  0  0  0  0  0  0  0
   -0.3365    0.6799    5.7554 C   0  0  0  0  0  0  0  0  0  0  0  0
   -0.4776    0.3026    6.7662 H   0  0  0  0  0  0  0  0  0  0  0  0
   -1.1857    0.3751    5.1491 H   0  0  0  0  0  0  0  0  0  0  0  0
   -0.3137    1.7674    5.7934 H   0  0  0  0  0  0  0  0  0  0  0  0
   -0.2382    4.9315    5.8621 C   0  0  0  0  0  0  0  0  0  0  0  0
   -1.2346    5.3563    5.8943 H   0  0  0  0  0  0  0  0  0  0  0  0
    0.5217    5.6412    6.1710 H   0  0  0  0  0  0  0  0  0  0  0  0
   -0.1734    4.0416    6.4795 H   0  0  0  0  0  0  0  0  0  0  0  0
   -0.0698    6.1483    3.4560 C   0  0  0  0  0  0  0  0  0  0  0  0
   -1.0070    6.5557    3.8159 H   0  0  0  0  0  0  0  0  0  0  0  0
   -0.0885    6.0733    2.3747 H   0  0  0  0  0  0  0  0  0  0  0  0
    0.7781    6.7410    3.7823 H   0  0  0  0  0  0  0  0  0  0  0  0
    0.2967    3.7781    0.7362 C   0  0  0  0  0  0  0  0  0  0  0  0
    0.2972    3.1051   -0.1132 H   0  0  0  0  0  0  0  0  0  0  0  0
    0.1250    4.7965    0.4108 H   0  0  0  0  0  0  0  0  0  0  0  0
   -0.4573    3.4827    1.4591 H   0  0  0  0  0  0  0  0  0  0  0  0
    2.6791    5.1152    0.7388 C   0  0  0  0  0  0  0  0  0  0  0  0
    2.5222    5.0343   -0.3307 H   0  0  0  0  0  0  0  0  0  0  0  0
    3.7376    5.1273    0.9692 H   0  0  0  0  0  0  0  0  0  0  0  0
    2.2092    5.9962    1.1592 H   0  0  0  0  0  0  0  0  0  0  0  0
  1  3  1  0  0  0  0
  1  5  1  0  0  0  0
  1  2  1  0  0  0  0
  4  1  1  0  0  0  0
  5 52  1  0  0  0  0
  6  1  1  0  0  0  0
  6 42  1  0  0  0  0
  7  4  1  0  0  0  0
  8  5  1  0  0  0  0
  9 10  1  0  0  0  0
  9  1  1  0  0  0  0
 10 16  1  0  0  0  0
 11 10  1  0  0  0  0
 12 14  1  0  0  0  0
 12 10  1  0  0  0  0
 13 12  1  0  0  0  0
 15 12  1  0  0  0  0
 16 17  1  0  0  0  0
 16 19  1  0  0  0  0
 16 18  1  0  0  0  0
 20 21  1  1  0  0  0
 20  9  1  0  0  0  0
 20  6  1  0  0  0  0
 21 30  1  0  0  0  0
 22 21  2  0  0  0  0
 23 22  1  0  0  0  0
 24 22  1  0  0  0  0
 24 26  2  0  0  0  0
 25 24  1  0  0  0  0
 26 28  1  0  0  0  0
 27 26  1  0  0  0  0
 28 30  2  0  0  0  0
 28 29  1  0  0  0  0
 30 31  1  0  0  0  0
 32 38  1  0  0  0  0
 32  6  1  0  0  0  0
 33 32  1  0  0  0  0
 34 37  1  0  0  0  0
 34 32  1  0  0  0  0
 34 36  1  0  0  0  0
 35 34  1  0  0  0  0
 38 40  1  0  0  0  0
 38 41  1  0  0  0  0
 39 38  1  0  0  0  0
 42 48  1  0  0  0  0
 42 43  1  0  0  0  0
 44 42  1  0  0  0  0
 44 45  1  0  0  0  0
 46 44  1  0  0  0  0
 47 44  1  0  0  0  0
 48 51  1  0  0  0  0
 48 49  1  0  0  0  0
 50 48  1  0  0  0  0
 52 53  1  0  0  0  0
 52 54  1  0  0  0  0
 52 55  1  0  0  0  0
 56 59  1  0  0  0  0
 56 57  1  0  0  0  0
 56  5  1  0  0  0  0
 58 56  1  0  0  0  0
 60 63  1  0  0  0  0
 60  4  1  0  0  0  0
 61 60  1  0  0  0  0
 62 60  1  0  0  0  0
 64 66  1  0  0  0  0
 64 67  1  0  0  0  0
 64  4  1  0  0  0  0
 65 64  1  0  0  0  0
M  END
$$$$
