CSD_code = VONWON | q = 0 | S = 0 | Stoichiometry = C18H14ClN3O2PdS | MND = 4
 OpenBabel04212202113D

 40 44  0  0  1  0  0  0  0  0999 V2000
    3.6055    6.7874    6.6040 Pd  0  0  2  0  0  0  0  0  0  0  0  0
    2.1697    7.8946    5.3560 Cl  0  0  0  0  0  0  0  0  0  0  0  0
    4.5603    5.7993    4.8342 S   0  0  0  0  0  0  0  0  0  0  0  0
    2.3229    7.9917   10.4013 O   0  0  0  0  0  0  0  0  0  0  0  0
    2.7663    7.6148    8.3239 O   0  0  0  0  0  0  0  0  0  0  0  0
    4.9842    5.8638    7.7256 N   0  0  0  0  0  0  0  0  0  0  0  0
    5.8858    5.1044    7.0762 N   0  0  0  0  0  0  0  0  0  0  0  0
    6.6262    4.2277    5.0592 N   0  0  0  0  0  0  0  0  0  0  0  0
    2.5288    7.8939   11.7356 C   0  0  2  0  0  3  0  0  0  0  0  0
    5.2249    6.0468    9.0086 C   0  0  1  0  0  3  0  0  0  0  0  0
    3.6195    7.1591   12.2294 C   0  0  0  0  0  0  0  0  0  0  0  0
    3.1236    7.4196    9.4835 C   0  0  0  0  0  0  0  0  0  0  0  0
    5.7704    4.9862    5.7819 C   0  0  0  0  0  0  0  0  0  0  0  0
    1.6374    8.5269   12.5947 C   0  0  0  0  0  0  0  0  0  0  0  0
    0.8135    9.0827   12.1774 H   0  0  0  0  0  0  0  0  0  0  0  0
    4.4885    6.5543   11.2897 C   0  0  0  0  0  0  0  0  0  0  0  0
    5.3091    5.9766   11.6819 H   0  0  0  0  0  0  0  0  0  0  0  0
    4.2968    6.6678    9.9257 C   0  0  0  0  0  0  0  0  0  0  0  0
    9.6102    2.1289    4.8096 C   0  0  0  0  0  0  0  0  0  0  0  0
   10.2739    1.7712    4.0367 H   0  0  0  0  0  0  0  0  0  0  0  0
    7.6818    3.4165    5.4604 C   0  0  0  0  0  0  0  0  0  0  0  0
    8.5461    2.9418    4.4729 C   0  0  0  0  0  0  0  0  0  0  0  0
    8.3786    3.2171    3.4413 H   0  0  0  0  0  0  0  0  0  0  0  0
    3.7888    7.0692   13.6213 C   0  0  0  0  0  0  0  0  0  0  0  0
    4.6225    6.5040   14.0093 H   0  0  0  0  0  0  0  0  0  0  0  0
    6.5254    5.5404    9.5771 C   0  0  0  0  0  0  0  0  0  0  0  0
    6.3895    4.5715   10.0565 H   0  0  0  0  0  0  0  0  0  0  0  0
    6.9286    6.2440   10.3007 H   0  0  0  0  0  0  0  0  0  0  0  0
    7.2379    5.4194    8.7655 H   0  0  0  0  0  0  0  0  0  0  0  0
    1.8319    8.4249   13.9566 C   0  0  0  0  0  0  0  0  0  0  0  0
    1.1466    8.9127   14.6318 H   0  0  0  0  0  0  0  0  0  0  0  0
    7.8928    3.0455    6.7854 C   0  0  0  0  0  0  0  0  0  0  0  0
    7.2095    3.3920    7.5404 H   0  0  0  0  0  0  0  0  0  0  0  0
    8.9622    2.2319    7.1109 C   0  0  0  0  0  0  0  0  0  0  0  0
    9.1181    1.9494    8.1416 H   0  0  0  0  0  0  0  0  0  0  0  0
    9.8269    1.7737    6.1312 C   0  0  0  0  0  0  0  0  0  0  0  0
   10.6603    1.1402    6.3932 H   0  0  0  0  0  0  0  0  0  0  0  0
    2.9058    7.6951   14.4674 C   0  0  0  0  0  0  0  0  0  0  0  0
    3.0410    7.6243   15.5356 H   0  0  0  0  0  0  0  0  0  0  0  0
    6.4843    4.2969    4.0591 H   0  0  0  0  0  0  0  0  0  0  0  0
  1  2  1  6  0  0  0
  1  6  1  0  0  0  0
  1  5  1  0  0  0  0
  3 13  1  0  0  0  0
  3  1  1  0  0  0  0
  5 12  1  0  0  0  0
  6 10  1  0  0  0  0
  7  6  1  0  0  0  0
  8 21  1  0  0  0  0
  8 13  1  0  0  0  0
  9  4  1  1  0  0  0
  9 11  1  0  0  0  0
  9 14  1  0  0  0  0
 10 26  1  1  0  0  0
 10 18  1  0  0  0  0
 11 24  1  0  0  0  0
 12 18  2  0  0  0  0
 12  4  1  0  0  0  0
 13  7  2  0  0  0  0
 14 30  2  0  0  0  0
 15 14  1  0  0  0  0
 16 17  1  0  0  0  0
 16 11  2  0  0  0  0
 18 16  1  0  0  0  0
 19 36  1  0  0  0  0
 20 19  1  0  0  0  0
 21 32  2  0  0  0  0
 22 19  2  0  0  0  0
 22 21  1  0  0  0  0
 23 22  1  0  0  0  0
 24 25  1  0  0  0  0
 24 38  2  0  0  0  0
 26 27  1  0  0  0  0
 26 28  1  0  0  0  0
 29 26  1  0  0  0  0
 30 38  1  0  0  0  0
 30 31  1  0  0  0  0
 32 34  1  0  0  0  0
 32 33  1  0  0  0  0
 34 35  1  0  0  0  0
 36 37  1  0  0  0  0
 36 34  2  0  0  0  0
 38 39  1  0  0  0  0
 40  8  1  0  0  0  0
M  END
$$$$
