CSD_code = VOPFIP | q = 0 | S = 0 | Stoichiometry = C11H10Cl2N2Pt | MND = 4
 OpenBabel04212202113D

 26 28  0  0  0  0  0  0  0  0999 V2000
    0.9443    0.3836    6.7063 Pt  0  0  0  0  0  0  0  0  0  0  0  0
    1.0118    2.5092    6.0580 Cl  0  0  0  0  0  0  0  0  0  0  0  0
    1.4574   -0.2495    4.5630 Cl  0  0  0  0  0  0  0  0  0  0  0  0
    0.7633   -1.4553    7.4065 N   0  0  0  0  0  0  0  0  0  0  0  0
    0.7137   -0.1830   10.8065 N   0  0  0  0  0  0  0  0  0  0  0  0
    0.6178    0.8239    8.6174 C   0  0  0  0  0  0  0  0  0  0  0  0
    0.4980    2.0712    9.2299 C   0  0  0  0  0  0  0  0  0  0  0  0
    0.5012    2.9586    8.6149 H   0  0  0  0  0  0  0  0  0  0  0  0
    0.3783    2.1632   10.6112 C   0  0  0  0  0  0  0  0  0  0  0  0
    0.2265    3.1110   11.1018 H   0  0  0  0  0  0  0  0  0  0  0  0
    0.5509    1.0291   11.3691 C   0  0  0  0  0  0  0  0  0  0  0  0
    0.6002    1.0679   12.4465 H   0  0  0  0  0  0  0  0  0  0  0  0
    1.1019   -1.2681   11.6848 C   0  0  0  0  0  0  0  0  0  0  0  0
    1.6876   -2.0018   11.1353 H   0  0  0  0  0  0  0  0  0  0  0  0
    0.2273   -1.7511   12.1249 H   0  0  0  0  0  0  0  0  0  0  0  0
    1.7143   -0.8717   12.4949 H   0  0  0  0  0  0  0  0  0  0  0  0
    0.6215   -0.3221    9.4562 C   0  0  0  0  0  0  0  0  0  0  0  0
    0.5320   -1.5830    8.7471 C   0  0  0  0  0  0  0  0  0  0  0  0
    0.1153   -2.8137    9.2683 C   0  0  0  0  0  0  0  0  0  0  0  0
   -0.1835   -2.9048   10.2980 H   0  0  0  0  0  0  0  0  0  0  0  0
    0.0251   -3.9185    8.4469 C   0  0  0  0  0  0  0  0  0  0  0  0
   -0.3026   -4.8664    8.8443 H   0  0  0  0  0  0  0  0  0  0  0  0
    0.3572   -3.7838    7.1016 C   0  0  0  0  0  0  0  0  0  0  0  0
    0.3263   -4.6277    6.4325 H   0  0  0  0  0  0  0  0  0  0  0  0
    0.6948   -2.5356    6.6252 C   0  0  0  0  0  0  0  0  0  0  0  0
    0.9220   -2.3649    5.5791 H   0  0  0  0  0  0  0  0  0  0  0  0
  1  4  1  0  0  0  0
  1  6  1  0  0  0  0
  2  1  1  0  0  0  0
  3  1  1  0  0  0  0
  4 18  1  0  0  0  0
  5 11  1  0  0  0  0
  5 13  1  0  0  0  0
  6  7  2  0  0  0  0
  6 17  1  0  0  0  0
  7  9  1  0  0  0  0
  8  7  1  0  0  0  0
  9 10  1  0  0  0  0
  9 11  2  0  0  0  0
 11 12  1  0  0  0  0
 13 15  1  0  0  0  0
 13 16  1  0  0  0  0
 14 13  1  0  0  0  0
 17  5  1  0  0  0  0
 18 19  1  0  0  0  0
 18 17  2  0  0  0  0
 19 20  1  0  0  0  0
 21 22  1  0  0  0  0
 21 19  2  0  0  0  0
 23 21  1  0  0  0  0
 24 23  1  0  0  0  0
 25 23  2  0  0  0  0
 25  4  1  0  0  0  0
 26 25  1  0  0  0  0
M  END
$$$$
