CSD_code = VOPLAP | q = 0 | S = 0 | Stoichiometry = C22H17ClN4Pt | MND = 4
 OpenBabel04212202113D

 45 50  0  0  0  0  0  0  0  0999 V2000
    6.7902    5.3456   -0.6454 Pt  0  0  2  0  0  0  0  0  0  0  0  0
    7.4408    6.9273   -2.0515 Cl  0  0  0  0  0  0  0  0  0  0  0  0
    7.0619    3.4226   -1.7776 N   0  0  0  0  0  0  0  0  0  0  0  0
    7.5096    3.1889   -3.0118 C   0  0  0  0  0  0  0  0  0  0  0  0
    7.9268    4.3476   -3.8441 C   0  0  0  0  0  0  0  0  0  0  0  0
    7.0924    5.0362   -3.9747 H   0  0  0  0  0  0  0  0  0  0  0  0
    8.2830    4.0225   -4.8175 H   0  0  0  0  0  0  0  0  0  0  0  0
    8.7115    4.9103   -3.3392 H   0  0  0  0  0  0  0  0  0  0  0  0
    7.5906    1.8945   -3.5228 C   0  0  0  0  0  0  0  0  0  0  0  0
    7.9570    1.7399   -4.5251 H   0  0  0  0  0  0  0  0  0  0  0  0
    7.2009    0.8249   -2.7395 C   0  0  0  0  0  0  0  0  0  0  0  0
    7.2554   -0.1854   -3.1162 H   0  0  0  0  0  0  0  0  0  0  0  0
    6.7392    1.0730   -1.4602 C   0  0  0  0  0  0  0  0  0  0  0  0
    6.4302    0.2567   -0.8297 H   0  0  0  0  0  0  0  0  0  0  0  0
    6.6792    2.3863   -1.0004 C   0  0  0  0  0  0  0  0  0  0  0  0
    6.2029    2.7216    0.3445 C   0  0  0  0  0  0  0  0  0  0  0  0
    6.2051    4.0314    0.6350 N   0  0  0  0  0  0  0  0  0  0  0  0
    5.7932    4.4772    1.8381 C   0  0  0  0  0  0  0  0  0  0  0  0
    5.3552    3.5968    2.8170 C   0  0  0  0  0  0  0  0  0  0  0  0
    5.0354    3.9927    3.7661 H   0  0  0  0  0  0  0  0  0  0  0  0
    5.3448    2.2397    2.5355 C   0  0  0  0  0  0  0  0  0  0  0  0
    5.0089    1.5294    3.2754 H   0  0  0  0  0  0  0  0  0  0  0  0
    5.7695    1.7956    1.2932 C   0  0  0  0  0  0  0  0  0  0  0  0
    5.7615    0.7416    1.0711 H   0  0  0  0  0  0  0  0  0  0  0  0
    5.8630    5.9289    1.9642 C   0  0  0  0  0  0  0  0  0  0  0  0
    5.4863    6.5064    3.0974 N   0  0  0  0  0  0  0  0  0  0  0  0
    5.5581    7.8309    3.1770 C   0  0  0  0  0  0  0  0  0  0  0  0
    6.0134    8.6150    2.1120 C   0  0  0  0  0  0  0  0  0  0  0  0
    6.0475    9.6854    2.2370 H   0  0  0  0  0  0  0  0  0  0  0  0
    6.4062    8.0052    0.9334 C   0  0  0  0  0  3  0  0  0  0  0  0
    6.7596    8.6046    0.1066 H   0  0  0  0  0  0  0  0  0  0  0  0
    6.3407    6.6186    0.8252 C   0  0  0  0  0  0  0  0  0  0  0  0
    5.1366    8.4512    4.4393 C   0  0  0  0  0  0  0  0  0  0  0  0
    5.1987    9.7798    4.5084 N   0  0  0  0  0  0  0  0  0  0  0  0
    4.8309   10.3900    5.6213 C   0  0  0  0  0  0  0  0  0  0  0  0
    4.9287   11.8844    5.6344 C   0  0  0  0  0  0  0  0  0  0  0  0
    5.6432   12.2079    6.3906 H   0  0  0  0  0  0  0  0  0  0  0  0
    3.9618   12.3262    5.8716 H   0  0  0  0  0  0  0  0  0  0  0  0
    5.2567   12.2365    4.6606 H   0  0  0  0  0  0  0  0  0  0  0  0
    4.3747    9.6888    6.7374 C   0  0  0  0  0  0  0  0  0  0  0  0
    4.0814   10.2212    7.6298 H   0  0  0  0  0  0  0  0  0  0  0  0
    4.3078    8.3080    6.6733 C   0  0  0  0  0  0  0  0  0  0  0  0
    3.9588    7.7363    7.5222 H   0  0  0  0  0  0  0  0  0  0  0  0
    4.6942    7.6715    5.5074 C   0  0  0  0  0  0  0  0  0  0  0  0
    4.6637    6.6001    5.4004 H   0  0  0  0  0  0  0  0  0  0  0  0
  1  2  1  6  0  0  0
  1 17  1  0  0  0  0
  1 32  2  0  0  0  0
  3 15  1  0  0  0  0
  3  1  1  0  0  0  0
  4  3  1  0  0  0  0
  5  8  1  0  0  0  0
  5  4  1  0  0  0  0
  6  5  1  0  0  0  0
  7  5  1  0  0  0  0
  9  4  2  0  0  0  0
  9 11  1  0  0  0  0
 10  9  1  0  0  0  0
 11 13  2  0  0  0  0
 12 11  1  0  0  0  0
 13 15  1  0  0  0  0
 13 14  1  0  0  0  0
 15 16  2  0  0  0  0
 16 17  1  0  0  0  0
 16 23  1  0  0  0  0
 17 18  1  0  0  0  0
 18 25  1  0  0  0  0
 18 19  2  0  0  0  0
 19 20  1  0  0  0  0
 21 19  1  0  0  0  0
 21 22  1  0  0  0  0
 23 21  2  0  0  0  0
 24 23  1  0  0  0  0
 25 26  2  0  0  0  0
 26 27  1  0  0  0  0
 27 33  1  0  0  0  0
 28 29  1  0  0  0  0
 28 27  2  0  0  0  0
 30 28  1  0  0  0  0
 31 30  1  0  0  0  0
 32 30  1  0  0  0  0
 32 25  1  0  0  0  0
 33 34  2  0  0  0  0
 33 44  1  0  0  0  0
 34 35  1  0  0  0  0
 35 36  1  0  0  0  0
 35 40  2  0  0  0  0
 36 38  1  0  0  0  0
 36 37  1  0  0  0  0
 39 36  1  0  0  0  0
 40 41  1  0  0  0  0
 42 40  1  0  0  0  0
 42 43  1  0  0  0  0
 44 42  2  0  0  0  0
 45 44  1  0  0  0  0
M  END
$$$$
