CSD_code = VOPRIC | q = 0 | S = 0 | Stoichiometry = C11H22Cl2P2Pt | MND = 4
 OpenBabel04212202113D

 38 40  0  0  0  0  0  0  0  0999 V2000
    6.5323    2.7917    0.0140 Pt  0  0  0  0  0  0  0  0  0  0  0  0
    6.8982    4.1500    1.7830 P   0  0  0  0  0  4  0  0  0  0  0  0
    6.9398    4.2483   -1.6654 P   0  0  0  0  0  4  0  0  0  0  0  0
    6.2320    1.3388   -1.7243 Cl  0  0  0  0  0  0  0  0  0  0  0  0
    6.1712    1.2463    1.6581 Cl  0  0  0  0  0  0  0  0  0  0  0  0
    5.7717    4.1731    3.2424 C   0  0  0  0  0  0  0  0  0  0  0  0
    5.4910    5.2078    3.4577 H   0  0  0  0  0  0  0  0  0  0  0  0
    4.8704    3.5963    3.0362 H   0  0  0  0  0  0  0  0  0  0  0  0
    6.5841    3.5637    4.3854 C   0  0  0  0  0  0  0  0  0  0  0  0
    6.1686    3.8384    5.3554 H   0  0  0  0  0  0  0  0  0  0  0  0
    6.5676    2.4774    4.2900 H   0  0  0  0  0  0  0  0  0  0  0  0
    8.0176    4.0570    4.2200 C   0  0  0  0  0  0  0  0  0  0  0  0
    8.6942    3.5630    4.9176 H   0  0  0  0  0  0  0  0  0  0  0  0
    8.0615    5.1331    4.4068 H   0  0  0  0  0  0  0  0  0  0  0  0
    8.3992    3.7515    2.7728 C   0  0  0  0  0  0  0  0  0  0  0  0
    8.5963    2.6840    2.6510 H   0  0  0  0  0  0  0  0  0  0  0  0
    9.2689    4.3114    2.4247 H   0  0  0  0  0  0  0  0  0  0  0  0
    7.1087    5.9467    1.3905 C   0  0  0  0  0  0  0  0  0  0  0  0
    6.1164    6.3899    1.2720 H   0  0  0  0  0  0  0  0  0  0  0  0
    7.5903    6.4235    2.2491 H   0  0  0  0  0  0  0  0  0  0  0  0
    7.9409    6.1799    0.1274 C   0  0  0  0  0  0  0  0  0  0  0  0
    8.7825    5.4783    0.1165 H   0  0  0  0  0  0  0  0  0  0  0  0
    8.3542    7.1918    0.1609 H   0  0  0  0  0  0  0  0  0  0  0  0
    7.1361    6.0196   -1.1644 C   0  0  0  0  0  0  0  0  0  0  0  0
    7.6341    6.5468   -1.9833 H   0  0  0  0  0  0  0  0  0  0  0  0
    6.1402    6.4530   -1.0411 H   0  0  0  0  0  0  0  0  0  0  0  0
    8.4577    3.9141   -2.6531 C   0  0  0  0  0  0  0  0  0  0  0  0
    9.3196    4.4544   -2.2583 H   0  0  0  0  0  0  0  0  0  0  0  0
    8.6567    2.8417   -2.5929 H   0  0  0  0  0  0  0  0  0  0  0  0
    8.0973    4.3054   -4.0851 C   0  0  0  0  0  0  0  0  0  0  0  0
    8.1386    5.3911   -4.2055 H   0  0  0  0  0  0  0  0  0  0  0  0
    8.7872    3.8575   -4.8006 H   0  0  0  0  0  0  0  0  0  0  0  0
    6.6690    3.8173   -4.3029 C   0  0  0  0  0  0  0  0  0  0  0  0
    6.6564    2.7272   -4.2734 H   0  0  0  0  0  0  0  0  0  0  0  0
    6.2675    4.1484   -5.2612 H   0  0  0  0  0  0  0  0  0  0  0  0
    5.8359    4.3536   -3.1384 C   0  0  0  0  0  0  0  0  0  0  0  0
    4.9347    3.7615   -2.9810 H   0  0  0  0  0  0  0  0  0  0  0  0
    5.5528    5.3980   -3.2961 H   0  0  0  0  0  0  0  0  0  0  0  0
  1  5  1  0  0  0  0
  1  2  1  0  0  0  0
  2 15  1  0  0  0  0
  2  6  1  0  0  0  0
  3 24  1  0  0  0  0
  3  1  1  0  0  0  0
  4  1  1  0  0  0  0
  6  7  1  0  0  0  0
  6  9  1  0  0  0  0
  8  6  1  0  0  0  0
  9 10  1  0  0  0  0
 11  9  1  0  0  0  0
 12  9  1  0  0  0  0
 12 14  1  0  0  0  0
 12 13  1  0  0  0  0
 15 12  1  0  0  0  0
 16 15  1  0  0  0  0
 17 15  1  0  0  0  0
 18  2  1  0  0  0  0
 18 20  1  0  0  0  0
 19 18  1  0  0  0  0
 21 23  1  0  0  0  0
 21 18  1  0  0  0  0
 22 21  1  0  0  0  0
 24 26  1  0  0  0  0
 24 21  1  0  0  0  0
 25 24  1  0  0  0  0
 27 29  1  0  0  0  0
 27 28  1  0  0  0  0
 27  3  1  0  0  0  0
 30 27  1  0  0  0  0
 31 30  1  0  0  0  0
 32 30  1  0  0  0  0
 33 34  1  0  0  0  0
 33 30  1  0  0  0  0
 33 36  1  0  0  0  0
 35 33  1  0  0  0  0
 36 37  1  0  0  0  0
 36  3  1  0  0  0  0
 38 36  1  0  0  0  0
M  END
$$$$
