CSD_code = VOPSOJ | q = 0 | S = 0 | Stoichiometry = C19H15Cl2NO4PtS | MND = 4
 OpenBabel04212202113D

 43 47  0  0  0  0  0  0  0  0999 V2000
    0.2394    0.1452    5.0172 Pt  0  0  0  0  0  0  0  0  0  0  0  0
    2.5566    0.1884    4.8599 S   0  0  0  0  0  0  0  0  0  0  0  0
   -2.0027    0.1349    5.3020 Cl  0  0  0  0  0  0  0  0  0  0  0  0
    0.5981    1.1386    7.0042 Cl  0  0  0  0  0  0  0  0  0  0  0  0
    0.0688   -0.8627    3.2985 N   0  0  0  0  0  0  0  0  0  0  0  0
    1.2342   -3.9145   -2.1314 O   0  0  0  0  0  0  0  0  0  0  0  0
    2.2957   -1.8895   -2.2820 O   0  0  0  0  0  0  0  0  0  0  0  0
    1.0729    1.6622    3.0138 O   0  0  0  0  0  0  0  0  0  0  0  0
    3.1203   -0.3878    3.6382 O   0  0  0  0  0  1  0  0  0  0  0  0
   -0.5458   -2.0559    3.3650 C   0  0  0  0  0  3  0  0  0  0  0  0
   -1.0956   -2.2597    4.2751 H   0  0  0  0  0  0  0  0  0  0  0  0
   -0.5105   -2.9574    2.3375 C   0  0  0  0  0  0  0  0  0  0  0  0
   -1.0280   -3.8994    2.4235 H   0  0  0  0  0  0  0  0  0  0  0  0
    0.2115   -2.6640    1.1653 C   0  0  0  0  0  0  0  0  0  0  0  0
    0.2933   -3.5877    0.1007 C   0  0  0  0  0  0  0  0  0  0  0  0
   -0.1933   -4.5460    0.1578 H   0  0  0  0  0  0  0  0  0  0  0  0
    1.0114   -3.2095   -0.9905 C   0  0  0  0  0  0  0  0  0  0  0  0
    2.0343   -3.1019   -2.9550 C   0  0  0  0  0  0  0  0  0  0  0  0
    2.9844   -3.6135   -3.1739 H   0  0  0  0  0  0  0  0  0  0  0  0
    1.5066   -2.8925   -3.8986 H   0  0  0  0  0  0  0  0  0  0  0  0
    1.6632   -1.9567   -1.0775 C   0  0  0  0  0  0  0  0  0  0  0  0
    1.6115   -1.0193   -0.0663 C   0  0  0  0  0  0  0  0  0  0  0  0
    2.2774    0.2693   -0.1043 C   0  0  0  0  0  0  0  0  0  0  0  0
    3.0897    0.6586   -1.1728 C   0  0  0  0  0  0  0  0  0  0  0  0
    3.2390   -0.0135   -2.0004 H   0  0  0  0  0  0  0  0  0  0  0  0
    3.7078    1.8930   -1.1831 C   0  0  0  0  0  0  0  0  0  0  0  0
    4.3340    2.1677   -2.0190 H   0  0  0  0  0  0  0  0  0  0  0  0
    3.5280    2.7816   -0.1310 C   0  0  0  0  0  0  0  0  0  0  0  0
    4.0094    3.7476   -0.1460 H   0  0  0  0  0  0  0  0  0  0  0  0
    2.7297    2.4173    0.9307 C   0  0  0  0  0  0  0  0  0  0  0  0
    2.5637    3.0875    1.7604 H   0  0  0  0  0  0  0  0  0  0  0  0
    2.1060    1.1683    0.9620 C   0  0  0  0  0  0  0  0  0  0  0  0
    1.2882    0.8393    2.1267 C   0  0  0  0  0  0  0  0  0  0  0  0
    0.7175   -0.5175    2.1826 C   0  0  0  0  0  0  0  0  0  0  0  0
    0.8513   -1.3958    1.0845 C   0  0  0  0  0  0  0  0  0  0  0  0
    3.3679   -0.6637    6.2511 C   0  0  0  0  0  0  0  0  0  0  0  0
    3.1215   -1.7178    6.1823 H   0  0  0  0  0  0  0  0  0  0  0  0
    2.9684   -0.2386    7.1647 H   0  0  0  0  0  0  0  0  0  0  0  0
    4.4398   -0.5248    6.1759 H   0  0  0  0  0  0  0  0  0  0  0  0
    3.3064    1.8244    5.0958 C   0  0  0  0  0  0  0  0  0  0  0  0
    4.3791    1.7337    4.9733 H   0  0  0  0  0  0  0  0  0  0  0  0
    3.0306    2.1634    6.0870 H   0  0  0  0  0  0  0  0  0  0  0  0
    2.8852    2.4818    4.3444 H   0  0  0  0  0  0  0  0  0  0  0  0
  1  3  1  0  0  0  0
  1  4  1  0  0  0  0
  2  1  1  0  0  0  0
  2 40  1  0  0  0  0
  2 36  1  0  0  0  0
  5 10  1  0  0  0  0
  5  1  1  0  0  0  0
  6 17  1  0  0  0  0
  7 21  1  0  0  0  0
  9  2  1  0  0  0  0
 10 11  1  0  0  0  0
 12 13  1  0  0  0  0
 12 10  1  0  0  0  0
 14 12  2  0  0  0  0
 15 16  1  0  0  0  0
 15 14  1  0  0  0  0
 17 15  2  0  0  0  0
 18  7  1  0  0  0  0
 18  6  1  0  0  0  0
 19 18  1  0  0  0  0
 20 18  1  0  0  0  0
 21 17  1  0  0  0  0
 21 22  2  0  0  0  0
 22 35  1  0  0  0  0
 23 22  1  0  0  0  0
 23 32  1  0  0  0  0
 24 23  2  0  0  0  0
 25 24  1  0  0  0  0
 26 24  1  0  0  0  0
 26 28  2  0  0  0  0
 27 26  1  0  0  0  0
 28 30  1  0  0  0  0
 29 28  1  0  0  0  0
 30 32  2  0  0  0  0
 30 31  1  0  0  0  0
 32 33  1  0  0  0  0
 33 34  1  0  0  0  0
 33  8  2  0  0  0  0
 34  5  1  0  0  0  0
 35 14  1  0  0  0  0
 35 34  2  0  0  0  0
 36 38  1  0  0  0  0
 37 36  1  0  0  0  0
 39 36  1  0  0  0  0
 40 42  1  0  0  0  0
 41 40  1  0  0  0  0
 43 40  1  0  0  0  0
M  END
$$$$
