CSD_code = VOQFAK | q = 0 | S = 0 | Stoichiometry = C25H23Cl2N4OPRu | MND = 6
 OpenBabel04212202113D

 57 61  0  0  0  0  0  0  0  0999 V2000
    2.5366    6.0119    8.3050 Ru  0  0  0  0  0  0  0  0  0  0  0  0
    1.7252    4.3744    6.7292 Cl  0  0  0  0  0  0  0  0  0  0  0  0
    3.5358    7.6493    9.7588 Cl  0  0  0  0  0  0  0  0  0  0  0  0
    3.4765    4.3449    9.5919 P   0  0  0  0  0  4  0  0  0  0  0  0
   -0.1119    6.0913    9.6755 O   0  0  0  0  0  1  0  0  0  0  0  0
    1.9205    7.5722    7.0703 N   0  0  0  0  0  0  0  0  0  0  0  0
    2.2542    8.8185    7.3937 N   0  0  0  0  0  0  0  0  0  0  0  0
    2.7606    8.9520    8.2812 H   0  0  0  0  0  0  0  0  0  0  0  0
    4.2643    6.1292    7.1157 N   0  0  0  0  0  0  0  0  0  0  0  0
    4.2878    5.4847    5.9523 N   0  0  0  0  0  0  0  0  0  0  0  0
    3.4774    4.8803    5.7435 H   0  0  0  0  0  0  0  0  0  0  0  0
    0.9267    6.0265    9.1917 C   0  0  0  0  0  2  0  0  0  0  0  0
    1.2899    7.6234    5.9078 C   0  0  0  0  0  3  0  0  0  0  0  0
    0.9171    6.7308    5.4411 H   0  0  0  0  0  0  0  0  0  0  0  0
    1.2172    8.9493    5.4737 C   0  0  0  0  0  0  0  0  0  0  0  0
    0.7664    9.3112    4.5735 H   0  0  0  0  0  0  0  0  0  0  0  0
    1.8468    9.6837    6.4562 C   0  0  0  0  0  0  0  0  0  0  0  0
    2.0215   10.7369    6.5396 H   0  0  0  0  0  0  0  0  0  0  0  0
    5.4155    5.7405    5.2793 C   0  0  0  0  0  3  0  0  0  0  0  0
    5.6152    5.3077    4.3202 H   0  0  0  0  0  0  0  0  0  0  0  0
    6.1588    6.6077    6.0511 C   0  0  0  0  0  0  0  0  0  0  0  0
    7.1169    7.0281    5.8274 H   0  0  0  0  0  0  0  0  0  0  0  0
    5.3897    6.8225    7.1960 C   0  0  0  0  0  0  0  0  0  0  0  0
    5.6058    7.4351    8.0508 H   0  0  0  0  0  0  0  0  0  0  0  0
    2.7680    2.6666    9.5259 C   0  0  0  0  0  0  0  0  0  0  0  0
    1.3813    2.5637    9.4871 C   0  0  0  0  0  0  0  0  0  0  0  0
    0.7846    3.4655    9.4347 H   0  0  0  0  0  0  0  0  0  0  0  0
    0.7728    1.3228    9.4972 C   0  0  0  0  0  0  0  0  0  0  0  0
   -0.3037    1.2506    9.4558 H   0  0  0  0  0  0  0  0  0  0  0  0
    1.5458    0.1750    9.5540 C   0  0  0  0  0  0  0  0  0  0  0  0
    1.0729   -0.7959    9.5560 H   0  0  0  0  0  0  0  0  0  0  0  0
    2.9262    0.2725    9.6074 C   0  0  0  0  0  0  0  0  0  0  0  0
    3.5302   -0.6220    9.6553 H   0  0  0  0  0  0  0  0  0  0  0  0
    3.5396    1.5123    9.5978 C   0  0  0  0  0  0  0  0  0  0  0  0
    4.6181    1.5775    9.6345 H   0  0  0  0  0  0  0  0  0  0  0  0
    3.5513    4.5210   11.4038 C   0  0  0  0  0  0  0  0  0  0  0  0
    2.6983    5.4025   12.0557 C   0  0  0  0  0  0  0  0  0  0  0  0
    2.0318    6.0294   11.4781 H   0  0  0  0  0  0  0  0  0  0  0  0
    2.7174    5.4934   13.4367 C   0  0  0  0  0  0  0  0  0  0  0  0
    2.0588    6.1874   13.9372 H   0  0  0  0  0  0  0  0  0  0  0  0
    3.5802    4.6993   14.1721 C   0  0  0  0  0  0  0  0  0  0  0  0
    3.5972    4.7725   15.2496 H   0  0  0  0  0  0  0  0  0  0  0  0
    4.4234    3.8082   13.5262 C   0  0  0  0  0  0  0  0  0  0  0  0
    5.0944    3.1853   14.0998 H   0  0  0  0  0  0  0  0  0  0  0  0
    4.4082    3.7137   12.1481 C   0  0  0  0  0  0  0  0  0  0  0  0
    5.0656    3.0185   11.6445 H   0  0  0  0  0  0  0  0  0  0  0  0
    5.2091    4.1236    9.0968 C   0  0  0  0  0  0  0  0  0  0  0  0
    6.2308    4.8182    9.7358 C   0  0  0  0  0  0  0  0  0  0  0  0
    6.0077    5.4122   10.6116 H   0  0  0  0  0  0  0  0  0  0  0  0
    7.5215    4.7546    9.2416 C   0  0  0  0  0  0  0  0  0  0  0  0
    8.3142    5.2915    9.7415 H   0  0  0  0  0  0  0  0  0  0  0  0
    7.7962    4.0140    8.1037 C   0  0  0  0  0  0  0  0  0  0  0  0
    8.8045    3.9688    7.7193 H   0  0  0  0  0  0  0  0  0  0  0  0
    6.7761    3.3409    7.4494 C   0  0  0  0  0  0  0  0  0  0  0  0
    6.9882    2.7752    6.5537 H   0  0  0  0  0  0  0  0  0  0  0  0
    5.4844    3.4003    7.9372 C   0  0  0  0  0  0  0  0  0  0  0  0
    4.6758    2.8950    7.4231 H   0  0  0  0  0  0  0  0  0  0  0  0
  1 12  1  0  0  0  0
  1  4  1  0  0  0  0
  1  3  1  0  0  0  0
  2  1  1  0  0  0  0
  4 36  1  0  0  0  0
  6  7  1  0  0  0  0
  6  1  1  0  0  0  0
  7  8  1  0  0  0  0
  9 23  1  0  0  0  0
  9  1  1  0  0  0  0
 10  9  1  0  0  0  0
 11 10  1  0  0  0  0
 12  5  1  0  0  0  0
 13  6  1  0  0  0  0
 14 13  1  0  0  0  0
 15 13  1  0  0  0  0
 15 17  2  0  0  0  0
 16 15  1  0  0  0  0
 17 18  1  0  0  0  0
 17  7  1  0  0  0  0
 19 10  1  0  0  0  0
 19 21  1  0  0  0  0
 20 19  1  0  0  0  0
 21 23  2  0  0  0  0
 22 21  1  0  0  0  0
 23 24  1  0  0  0  0
 25  4  1  0  0  0  0
 25 34  1  0  0  0  0
 26 28  1  0  0  0  0
 26 25  2  0  0  0  0
 27 26  1  0  0  0  0
 28 30  2  0  0  0  0
 29 28  1  0  0  0  0
 30 31  1  0  0  0  0
 30 32  1  0  0  0  0
 32 33  1  0  0  0  0
 34 32  2  0  0  0  0
 34 35  1  0  0  0  0
 36 37  2  0  0  0  0
 36 45  1  0  0  0  0
 37 39  1  0  0  0  0
 38 37  1  0  0  0  0
 39 40  1  0  0  0  0
 39 41  2  0  0  0  0
 41 42  1  0  0  0  0
 43 44  1  0  0  0  0
 43 41  1  0  0  0  0
 45 43  2  0  0  0  0
 46 45  1  0  0  0  0
 47  4  1  0  0  0  0
 47 48  1  0  0  0  0
 48 49  1  0  0  0  0
 50 48  2  0  0  0  0
 50 51  1  0  0  0  0
 52 50  1  0  0  0  0
 53 52  1  0  0  0  0
 54 56  1  0  0  0  0
 54 52  2  0  0  0  0
 55 54  1  0  0  0  0
 56 47  2  0  0  0  0
 57 56  1  0  0  0  0
M  END
$$$$
