CSD_code = VOQMEV | q = 0 | S = 0 | Stoichiometry = C28H29Cl2NOP2Pd | MND = 4
 OpenBabel04212202113D

 64 68  0  0  0  0  0  0  0  0999 V2000
    2.7205    2.8186    5.7462 C   0  0  0  0  0  0  0  0  0  0  0  0
    1.6578    2.8189    5.4395 H   0  0  0  0  0  0  0  0  0  0  0  0
    2.9217    1.8822    6.2773 H   0  0  0  0  0  0  0  0  0  0  0  0
    3.6195    2.9494    4.5164 C   0  0  0  0  0  0  0  0  0  0  0  0
    4.0087    1.9683    4.2420 H   0  0  0  0  0  0  0  0  0  0  0  0
    4.4646    3.5835    4.7872 H   0  0  0  0  0  0  0  0  0  0  0  0
    2.8995    3.5155    3.2834 C   0  0  0  0  0  0  0  0  0  0  0  0
    3.6303    3.5748    2.4666 H   0  0  0  0  0  0  0  0  0  0  0  0
    2.1180    2.8121    2.9851 H   0  0  0  0  0  0  0  0  0  0  0  0
    3.2071    5.8598    3.8672 C   0  0  0  0  0  0  0  0  0  0  0  0
    2.7980    6.8371    3.6111 H   0  0  0  0  0  0  0  0  0  0  0  0
    4.1605    5.7389    3.3521 H   0  0  0  0  0  0  0  0  0  0  0  0
    3.3819    5.8295    4.9504 H   0  0  0  0  0  0  0  0  0  0  0  0
    1.1884    3.4150    8.5830 C   0  0  0  0  0  0  0  0  0  0  0  0
    0.1446    2.5783    8.1976 C   0  0  0  0  0  0  0  0  0  0  0  0
   -0.3493    2.7428    7.2322 H   0  0  0  0  0  0  0  0  0  0  0  0
   -0.2952    1.5831    9.0488 C   0  0  0  0  0  0  0  0  0  0  0  0
   -1.1107    0.9386    8.7551 H   0  0  0  0  0  0  0  0  0  0  0  0
    0.3032    1.4254   10.2898 C   0  0  0  0  0  0  0  0  0  0  0  0
   -0.0464    0.6551   10.9613 H   0  0  0  0  0  0  0  0  0  0  0  0
    1.3356    2.2627   10.6772 C   0  0  0  0  0  0  0  0  0  0  0  0
    1.7887    2.1466   11.6510 H   0  0  0  0  0  0  0  0  0  0  0  0
    1.7845    3.2578    9.8249 C   0  0  0  0  0  0  0  0  0  0  0  0
    2.5793    3.9229   10.1305 H   0  0  0  0  0  0  0  0  0  0  0  0
    2.6455    5.9615    8.1646 C   0  0  0  0  0  0  0  0  0  0  0  0
    3.9135    5.7408    8.6925 C   0  0  0  0  0  0  0  0  0  0  0  0
    4.3578    4.7587    8.6255 H   0  0  0  0  0  0  0  0  0  0  0  0
    4.6001    6.7872    9.2814 C   0  0  0  0  0  0  0  0  0  0  0  0
    5.5828    6.6184    9.6976 H   0  0  0  0  0  0  0  0  0  0  0  0
    4.0313    8.0500    9.3386 C   0  0  0  0  0  0  0  0  0  0  0  0
    4.5709    8.8619    9.8039 H   0  0  0  0  0  0  0  0  0  0  0  0
    2.7767    8.2747    8.7948 C   0  0  0  0  0  0  0  0  0  0  0  0
    2.3392    9.2612    8.8324 H   0  0  0  0  0  0  0  0  0  0  0  0
    2.0849    7.2333    8.2033 C   0  0  0  0  0  0  0  0  0  0  0  0
    1.0958    7.3906    7.7823 H   0  0  0  0  0  0  0  0  0  0  0  0
    0.3271    6.6623    3.2976 C   0  0  0  0  0  0  0  0  0  0  0  0
    0.4064    7.7021    4.2262 C   0  0  0  0  0  0  0  0  0  0  0  0
    0.6590    7.4758    5.2721 H   0  0  0  0  0  0  0  0  0  0  0  0
    0.1432    9.0020    3.8420 C   0  0  0  0  0  0  0  0  0  0  0  0
    0.2015    9.8025    4.5648 H   0  0  0  0  0  0  0  0  0  0  0  0
   -0.2135    9.2742    2.5296 C   0  0  0  0  0  0  0  0  0  0  0  0
   -0.4343   10.2881    2.2303 H   0  0  0  0  0  0  0  0  0  0  0  0
   -0.3047    8.2449    1.6096 C   0  0  0  0  0  0  0  0  0  0  0  0
   -0.6008    8.4551    0.5921 H   0  0  0  0  0  0  0  0  0  0  0  0
   -0.0319    6.9400    1.9873 C   0  0  0  0  0  0  0  0  0  0  0  0
   -0.1290    6.1420    1.2681 H   0  0  0  0  0  0  0  0  0  0  0  0
   -0.1530    3.7198    2.9806 C   0  0  0  0  0  0  0  0  0  0  0  0
    0.0606    3.5441    1.6167 C   0  0  0  0  0  0  0  0  0  0  0  0
    0.7678    4.1748    1.0974 H   0  0  0  0  0  0  0  0  0  0  0  0
   -0.6132    2.5438    0.9392 C   0  0  0  0  0  0  0  0  0  0  0  0
   -0.4584    2.4165   -0.1224 H   0  0  0  0  0  0  0  0  0  0  0  0
   -1.4834    1.7054    1.6178 C   0  0  0  0  0  0  0  0  0  0  0  0
   -2.0119    0.9309    1.0821 H   0  0  0  0  0  0  0  0  0  0  0  0
   -1.6692    1.8531    2.9832 C   0  0  0  0  0  0  0  0  0  0  0  0
   -2.3363    1.1900    3.5134 H   0  0  0  0  0  0  0  0  0  0  0  0
   -1.0027    2.8551    3.6638 C   0  0  0  0  0  0  0  0  0  0  0  0
   -1.1542    2.9940    4.7361 H   0  0  0  0  0  0  0  0  0  0  0  0
    2.2922    4.8254    3.4109 N   0  0  0  0  0  0  0  0  0  0  0  0
    2.9748    3.8933    6.6371 O   0  0  0  0  0  0  0  0  0  0  0  0
    1.7112    4.6520    7.3471 P   0  0  0  0  0  4  0  0  0  0  0  0
    0.6815    4.9970    3.9597 P   0  0  0  0  0  4  0  0  0  0  0  0
   -0.8949    5.6444    8.1505 Cl  0  0  0  0  0  0  0  0  0  0  0  0
   -1.9542    5.6223    4.9354 Cl  0  0  0  0  0  0  0  0  0  0  0  0
   -0.0280    5.1608    6.0776 Pd  0  0  0  0  0  0  0  0  0  0  0  0
  1  3  1  0  0  0  0
  1 59  1  0  0  0  0
  2  1  1  0  0  0  0
  4  6  1  0  0  0  0
  4  1  1  0  0  0  0
  5  4  1  0  0  0  0
  7 58  1  0  0  0  0
  7  4  1  0  0  0  0
  8  7  1  0  0  0  0
  9  7  1  0  0  0  0
 10 13  1  0  0  0  0
 11 10  1  0  0  0  0
 12 10  1  0  0  0  0
 14 23  1  0  0  0  0
 15 14  2  0  0  0  0
 15 17  1  0  0  0  0
 16 15  1  0  0  0  0
 17 19  2  0  0  0  0
 18 17  1  0  0  0  0
 19 21  1  0  0  0  0
 19 20  1  0  0  0  0
 21 22  1  0  0  0  0
 23 24  1  0  0  0  0
 23 21  2  0  0  0  0
 25 34  2  0  0  0  0
 25 26  1  0  0  0  0
 26 28  2  0  0  0  0
 27 26  1  0  0  0  0
 28 30  1  0  0  0  0
 28 29  1  0  0  0  0
 30 31  1  0  0  0  0
 32 33  1  0  0  0  0
 32 30  2  0  0  0  0
 34 32  1  0  0  0  0
 35 34  1  0  0  0  0
 36 61  1  0  0  0  0
 36 37  1  0  0  0  0
 37 38  1  0  0  0  0
 39 37  2  0  0  0  0
 39 40  1  0  0  0  0
 41 39  1  0  0  0  0
 42 41  1  0  0  0  0
 43 45  1  0  0  0  0
 43 41  2  0  0  0  0
 44 43  1  0  0  0  0
 45 36  2  0  0  0  0
 46 45  1  0  0  0  0
 47 56  1  0  0  0  0
 47 61  1  0  0  0  0
 48 47  2  0  0  0  0
 49 48  1  0  0  0  0
 50 48  1  0  0  0  0
 50 52  2  0  0  0  0
 51 50  1  0  0  0  0
 52 54  1  0  0  0  0
 53 52  1  0  0  0  0
 54 55  1  0  0  0  0
 54 56  2  0  0  0  0
 56 57  1  0  0  0  0
 58 10  1  0  0  0  0
 58 61  1  0  0  0  0
 59 60  1  0  0  0  0
 60 25  1  0  0  0  0
 60 14  1  0  0  0  0
 61 64  1  0  0  0  0
 63 64  1  0  0  0  0
 64 60  1  0  0  0  0
 64 62  1  0  0  0  0
M  END
$$$$
