CSD_code = VOSVAA | q = 0 | S = 0 | Stoichiometry = C13H26Cl2P2Zr | MND = 10
 OpenBabel04212202113D

 44 43  0  0  1  0  0  0  0  0999 V2000
    8.3416    0.6555   18.9017 Zr  0  0  0  0  0  0  0  0  0  0  0  0
   10.0144   -0.4737   20.2373 Cl  0  0  0  0  0  0  0  0  0  0  0  0
    9.1422    1.1625   16.6795 Cl  0  0  0  0  0  0  0  0  0  0  0  0
    8.4777   -1.6994   17.6674 P   0  0  0  0  0  0  0  0  0  0  0  0
   10.1721    2.5126   19.4452 P   0  0  0  0  0  0  0  0  0  0  0  0
    6.9487    0.8679   20.8964 C   0  0  0  0  0  0  0  0  0  0  0  0
    7.0491    2.1354   20.3704 C   0  0  0  0  0  0  0  0  0  0  0  0
    6.8159    2.3775   18.9532 C   0  0  2  0  0  0  0  0  0  0  0  0
    6.0559    1.3719   18.2518 C   0  0  0  0  0  0  0  0  0  0  0  0
    5.9223    0.1102   18.7769 C   0  0  0  0  0  0  0  0  0  0  0  0
    6.5838   -0.2383   20.0279 C   0  0  1  0  0  0  0  0  0  0  0  0
    7.2623    0.5767   22.3381 C   0  0  0  0  0  0  0  0  0  0  0  0
    7.6529   -2.0380   16.0554 C   0  0  0  0  0  0  0  0  0  0  0  0
   10.2249   -2.0131   17.1913 C   0  0  0  0  0  0  0  0  0  0  0  0
    8.1209   -3.2588   18.5834 C   0  0  0  0  0  0  0  0  0  0  0  0
   10.7352    2.9086   21.1548 C   0  0  0  0  0  0  0  0  0  0  0  0
   10.0315    4.1996   18.7171 C   0  0  0  0  0  0  0  0  0  0  0  0
   11.7727    1.9908   18.7079 C   0  0  0  0  0  0  0  0  0  0  0  0
    7.2836    2.9803   21.0156 H   0  0  0  0  0  0  0  0  0  0  0  0
    6.7784    3.4027   18.5951 H   0  0  0  0  0  0  0  0  0  0  0  0
    5.5724    1.6349   17.3147 H   0  0  0  0  0  0  0  0  0  0  0  0
    5.3076   -0.6360   18.2786 H   0  0  0  0  0  0  0  0  0  0  0  0
    6.3557   -1.1956   20.4909 H   0  0  0  0  0  0  0  0  0  0  0  0
    6.4503    0.0189   22.8054 H   0  0  0  0  0  0  0  0  0  0  0  0
    8.1681   -0.0325   22.3985 H   0  0  0  0  0  0  0  0  0  0  0  0
    7.4233    1.4953   22.9001 H   0  0  0  0  0  0  0  0  0  0  0  0
    6.5722   -2.0574   16.1914 H   0  0  0  0  0  0  0  0  0  0  0  0
    7.9847   -2.9911   15.6440 H   0  0  0  0  0  0  0  0  0  0  0  0
    7.9076   -1.2309   15.3693 H   0  0  0  0  0  0  0  0  0  0  0  0
   10.8426   -1.9928   18.0896 H   0  0  0  0  0  0  0  0  0  0  0  0
   10.3162   -2.9825   16.6991 H   0  0  0  0  0  0  0  0  0  0  0  0
   10.5509   -1.2208   16.5171 H   0  0  0  0  0  0  0  0  0  0  0  0
    7.0531   -3.3274   18.7885 H   0  0  0  0  0  0  0  0  0  0  0  0
    8.6617   -3.2245   19.5294 H   0  0  0  0  0  0  0  0  0  0  0  0
    8.4366   -4.1305   18.0105 H   0  0  0  0  0  0  0  0  0  0  0  0
   10.9771    1.9722   21.6563 H   0  0  0  0  0  0  0  0  0  0  0  0
   11.6135    3.5533   21.1325 H   0  0  0  0  0  0  0  0  0  0  0  0
    9.9343    3.4051   21.7012 H   0  0  0  0  0  0  0  0  0  0  0  0
    9.8203    4.0895   17.6531 H   0  0  0  0  0  0  0  0  0  0  0  0
   10.9542    4.7637   18.8524 H   0  0  0  0  0  0  0  0  0  0  0  0
    9.2072    4.7351   19.1870 H   0  0  0  0  0  0  0  0  0  0  0  0
   12.0771    1.0477   19.1623 H   0  0  0  0  0  0  0  0  0  0  0  0
   12.5364    2.7505   18.8806 H   0  0  0  0  0  0  0  0  0  0  0  0
   11.6320    1.8408   17.6371 H   0  0  0  0  0  0  0  0  0  0  0  0
  1  8  1  0  0  0  0
  1 11  1  0  0  0  0
  1  2  1  0  0  0  0
  3  1  1  0  0  0  0
  4 15  1  0  0  0  0
  5 16  1  0  0  0  0
  6 12  1  0  0  0  0
  7  6  2  0  0  0  0
  7 19  1  0  0  0  0
  8 20  1  6  0  0  0
  8  7  1  0  0  0  0
  9 10  2  0  0  0  0
  9  8  1  0  0  0  0
 10 11  1  0  0  0  0
 11 23  1  1  0  0  0
 11  6  1  0  0  0  0
 12 25  1  0  0  0  0
 12 24  1  0  0  0  0
 12 26  1  0  0  0  0
 13 27  1  0  0  0  0
 13  4  1  0  0  0  0
 14  4  1  0  0  0  0
 14 30  1  0  0  0  0
 15 33  1  0  0  0  0
 15 34  1  0  0  0  0
 16 36  1  0  0  0  0
 16 38  1  0  0  0  0
 17 40  1  0  0  0  0
 17 41  1  0  0  0  0
 17  5  1  0  0  0  0
 18 43  1  0  0  0  0
 18 42  1  0  0  0  0
 18  5  1  0  0  0  0
 21  9  1  0  0  0  0
 22 10  1  0  0  0  0
 28 13  1  0  0  0  0
 29 13  1  0  0  0  0
 31 14  1  0  0  0  0
 32 14  1  0  0  0  0
 35 15  1  0  0  0  0
 37 16  1  0  0  0  0
 39 17  1  0  0  0  0
 44 18  1  0  0  0  0
M  END
$$$$
