CSD_code = VOVCAM | q = 0 | S = 0 | Stoichiometry = C25H22AuClNP | MND = 2
 OpenBabel04212202113D

 51 54  0  0  0  0  0  0  0  0999 V2000
   -0.5353    4.6453    5.4510 C   0  0  0  0  0  0  0  0  0  0  0  0
   -1.4253    5.6496    5.8188 C   0  0  0  0  0  0  0  0  0  0  0  0
   -2.3178    5.8247    5.2347 H   0  0  0  0  0  0  0  0  0  0  0  0
   -1.1656    6.4185    6.9389 C   0  0  0  0  0  0  0  0  0  0  0  0
   -1.8586    7.1953    7.2264 H   0  0  0  0  0  0  0  0  0  0  0  0
   -0.0247    6.1932    7.6926 C   0  0  0  0  0  0  0  0  0  0  0  0
    0.1703    6.7952    8.5674 H   0  0  0  0  0  0  0  0  0  0  0  0
    0.8616    5.1914    7.3305 C   0  0  0  0  0  0  0  0  0  0  0  0
    1.7478    5.0106    7.9200 H   0  0  0  0  0  0  0  0  0  0  0  0
    0.6050    4.4143    6.2164 C   0  0  0  0  0  0  0  0  0  0  0  0
    1.2817    3.6181    5.9304 H   0  0  0  0  0  0  0  0  0  0  0  0
   -2.5946    3.6229    3.7899 C   0  0  0  0  0  0  0  0  0  0  0  0
   -3.3412    2.6111    4.3838 C   0  0  0  0  0  0  0  0  0  0  0  0
   -2.8296    1.8235    4.9228 H   0  0  0  0  0  0  0  0  0  0  0  0
   -4.7199    2.6152    4.2759 C   0  0  0  0  0  0  0  0  0  0  0  0
   -5.2986    1.8295    4.7374 H   0  0  0  0  0  0  0  0  0  0  0  0
   -5.3548    3.6256    3.5716 C   0  0  0  0  0  0  0  0  0  0  0  0
   -6.4309    3.6279    3.4845 H   0  0  0  0  0  0  0  0  0  0  0  0
   -4.6123    4.6320    2.9739 C   0  0  0  0  0  0  0  0  0  0  0  0
   -5.1098    5.4172    2.4235 H   0  0  0  0  0  0  0  0  0  0  0  0
   -3.2334    4.6356    3.0798 C   0  0  0  0  0  0  0  0  0  0  0  0
   -2.6491    5.4174    2.6120 H   0  0  0  0  0  0  0  0  0  0  0  0
   -0.1470    4.5537    2.6220 C   0  0  0  0  0  0  0  0  0  0  0  0
    0.6258    5.6876    2.8616 C   0  0  0  0  0  0  0  0  0  0  0  0
    0.7880    6.0207    3.8772 H   0  0  0  0  0  0  0  0  0  0  0  0
    1.1889    6.3855    1.8099 C   0  0  0  0  0  0  0  0  0  0  0  0
    1.7871    7.2624    2.0062 H   0  0  0  0  0  0  0  0  0  0  0  0
    0.9887    5.9520    0.5105 C   0  0  0  0  0  0  0  0  0  0  0  0
    1.4269    6.4916   -0.3153 H   0  0  0  0  0  0  0  0  0  0  0  0
    0.2312    4.8200    0.2679 C   0  0  0  0  0  0  0  0  0  0  0  0
    0.0908    4.4808   -0.7479 H   0  0  0  0  0  0  0  0  0  0  0  0
   -0.3391    4.1033    1.3098 C   0  0  0  0  0  0  0  0  0  0  0  0
   -1.1461    2.8554    1.0282 C   0  0  0  0  0  0  0  0  0  0  0  0
   -1.0944    2.1957    1.9116 H   0  0  0  0  0  0  0  0  0  0  0  0
   -2.1995    3.1252    0.8932 H   0  0  0  0  0  0  0  0  0  0  0  0
    0.5711    1.6598   -0.2861 C   0  0  0  0  0  0  0  0  0  0  0  0
    1.4691    1.5732    0.7764 C   0  0  0  0  0  0  0  0  0  0  0  0
    1.1832    1.8971    1.7676 H   0  0  0  0  0  0  0  0  0  0  0  0
    2.7348    1.0553    0.5805 C   0  0  0  0  0  0  0  0  0  0  0  0
    3.4094    0.9862    1.4207 H   0  0  0  0  0  0  0  0  0  0  0  0
    3.1371    0.6255   -0.6719 C   0  0  0  0  0  0  0  0  0  0  0  0
    4.1279    0.2240   -0.8190 H   0  0  0  0  0  0  0  0  0  0  0  0
    2.2529    0.7132   -1.7347 C   0  0  0  0  0  0  0  0  0  0  0  0
    2.5526    0.3810   -2.7182 H   0  0  0  0  0  0  0  0  0  0  0  0
    0.9855    1.2255   -1.5470 C   0  0  0  0  0  0  0  0  0  0  0  0
    0.2966    1.2884   -2.3791 H   0  0  0  0  0  0  0  0  0  0  0  0
   -0.7247    2.1185   -0.1288 N   0  0  0  0  0  0  0  0  0  0  0  0
   -1.2102    2.3178   -0.9891 H   0  0  0  0  0  0  0  0  0  0  0  0
   -0.7935    3.5753    4.0058 P   0  0  0  0  0  4  0  0  0  0  0  0
    1.0586   -0.4711    4.7475 Cl  0  0  0  0  0  0  0  0  0  0  0  0
    0.1286    1.5501    4.3259 Au  0  0  0  0  0  0  0  0  0  0  0  0
  1  2  2  0  0  0  0
  1 10  1  0  0  0  0
  2  4  1  0  0  0  0
  3  2  1  0  0  0  0
  4  5  1  0  0  0  0
  4  6  2  0  0  0  0
  6  7  1  0  0  0  0
  8  6  1  0  0  0  0
  8  9  1  0  0  0  0
 10  8  2  0  0  0  0
 11 10  1  0  0  0  0
 12 49  1  0  0  0  0
 12 13  1  0  0  0  0
 13 14  1  0  0  0  0
 15 13  2  0  0  0  0
 15 16  1  0  0  0  0
 17 15  1  0  0  0  0
 18 17  1  0  0  0  0
 19 21  1  0  0  0  0
 19 17  2  0  0  0  0
 20 19  1  0  0  0  0
 21 12  2  0  0  0  0
 22 21  1  0  0  0  0
 23 24  1  0  0  0  0
 23 49  1  0  0  0  0
 24 25  1  0  0  0  0
 26 27  1  0  0  0  0
 26 24  2  0  0  0  0
 28 26  1  0  0  0  0
 29 28  1  0  0  0  0
 30 28  2  0  0  0  0
 30 32  1  0  0  0  0
 31 30  1  0  0  0  0
 32 23  2  0  0  0  0
 33 32  1  0  0  0  0
 33 34  1  0  0  0  0
 35 33  1  0  0  0  0
 36 47  1  0  0  0  0
 36 37  1  0  0  0  0
 37 38  1  0  0  0  0
 39 37  2  0  0  0  0
 39 40  1  0  0  0  0
 41 39  1  0  0  0  0
 42 41  1  0  0  0  0
 43 45  1  0  0  0  0
 43 41  2  0  0  0  0
 44 43  1  0  0  0  0
 45 36  2  0  0  0  0
 46 45  1  0  0  0  0
 47 33  1  0  0  0  0
 48 47  1  0  0  0  0
 49 51  1  0  0  0  0
 49  1  1  0  0  0  0
 51 50  1  0  0  0  0
M  END
$$$$
