CSD_code = VOVSEG | q = 0 | S = 0 | Stoichiometry = C30H28HgI2N4O2S2 | MND = 4
 OpenBabel04212202113D

 69 70  0  0  0  0  0  0  0  0999 V2000
   -1.7395    0.1566    6.5608 C   0  0  0  0  0  0  0  0  0  0  0  0
   -3.5522   -1.5780    7.8925 O   0  0  0  0  0  0  0  0  0  0  0  0
   -1.1875   -0.4765    7.5791 N   0  0  0  0  0  0  0  0  0  0  0  0
   -1.8115   -1.0628    8.1433 H   0  0  0  0  0  0  0  0  0  0  0  0
   -3.0746   -0.0027    6.3176 N   0  0  0  0  0  0  0  0  0  0  0  0
   -3.4474    0.4981    5.5069 H   0  0  0  0  0  0  0  0  0  0  0  0
    0.2072   -0.4145    7.8576 C   0  0  0  0  0  0  0  0  0  0  0  0
   -3.9294   -0.8674    6.9790 C   0  0  0  0  0  0  0  0  0  0  0  0
   -5.3016   -0.8970    6.4348 C   0  0  0  0  0  0  0  0  0  0  0  0
    0.6635    0.4714    8.8208 C   0  0  0  0  0  0  0  0  0  0  0  0
   -0.0451    1.0956    9.3445 H   0  0  0  0  0  0  0  0  0  0  0  0
    1.0873   -1.2362    7.1528 C   0  0  0  0  0  0  0  0  0  0  0  0
   -5.9247    0.2258    5.8925 C   0  0  0  0  0  0  0  0  0  0  0  0
   -5.4423    1.1905    5.9088 H   0  0  0  0  0  0  0  0  0  0  0  0
    2.4417   -1.1297    7.4349 C   0  0  0  0  0  0  0  0  0  0  0  0
    3.1386   -1.7525    6.8936 H   0  0  0  0  0  0  0  0  0  0  0  0
   -7.8612   -1.0981    5.3831 C   0  0  0  0  0  0  0  0  0  0  0  0
   -8.8537   -1.1757    4.9649 H   0  0  0  0  0  0  0  0  0  0  0  0
   -5.9879   -2.1108    6.4813 C   0  0  0  0  0  0  0  0  0  0  0  0
   -5.5016   -2.9665    6.9253 H   0  0  0  0  0  0  0  0  0  0  0  0
   -7.2591   -2.2103    5.9506 C   0  0  0  0  0  0  0  0  0  0  0  0
   -7.7812   -3.1551    5.9807 H   0  0  0  0  0  0  0  0  0  0  0  0
   -7.1989    0.1185    5.3675 C   0  0  0  0  0  0  0  0  0  0  0  0
   -7.6734    0.9901    4.9445 H   0  0  0  0  0  0  0  0  0  0  0  0
    2.9062   -0.2422    8.3895 C   0  0  0  0  0  0  0  0  0  0  0  0
    3.9650   -0.1738    8.5886 H   0  0  0  0  0  0  0  0  0  0  0  0
    0.5764   -2.1917    6.1199 C   0  0  0  0  0  0  0  0  0  0  0  0
   -0.2526   -2.7800    6.5119 H   0  0  0  0  0  0  0  0  0  0  0  0
    1.3653   -2.8643    5.7958 H   0  0  0  0  0  0  0  0  0  0  0  0
    0.2199   -1.6438    5.2473 H   0  0  0  0  0  0  0  0  0  0  0  0
    2.0178    0.5571    9.0878 C   0  0  0  0  0  0  0  0  0  0  0  0
    2.3756    1.2509    9.8328 H   0  0  0  0  0  0  0  0  0  0  0  0
   -2.3988    3.3813    4.4480 Hg  0  0  0  0  0  0  0  0  0  0  0  0
   -0.9753    3.9031    2.2962 I   0  0  0  0  0  0  0  0  0  0  0  0
   -0.8043    1.1064    5.5361 S   0  0  0  0  0  0  0  0  0  0  0  0
   -3.0591    0.1566    2.3344 C   0  0  0  0  0  0  0  0  0  0  0  0
   -1.2475   -1.5801    1.0040 O   0  0  0  0  0  0  0  0  0  0  0  0
   -3.6119   -0.4773    1.3170 N   0  0  0  0  0  0  0  0  0  0  0  0
   -2.9885   -1.0650    0.7536 H   0  0  0  0  0  0  0  0  0  0  0  0
   -1.7240   -0.0026    2.5771 N   0  0  0  0  0  0  0  0  0  0  0  0
   -1.3508    0.4987    3.3873 H   0  0  0  0  0  0  0  0  0  0  0  0
   -5.0068   -0.4148    1.0395 C   0  0  0  0  0  0  0  0  0  0  0  0
   -0.8697   -0.8683    1.9164 C   0  0  0  0  0  0  0  0  0  0  0  0
    0.5027   -0.8973    2.4600 C   0  0  0  0  0  0  0  0  0  0  0  0
   -5.4638    0.4726    0.0780 C   0  0  0  0  0  0  0  0  0  0  0  0
   -4.7557    1.0975   -0.4455 H   0  0  0  0  0  0  0  0  0  0  0  0
   -5.8863   -1.2372    1.7442 C   0  0  0  0  0  0  0  0  0  0  0  0
    1.1260    0.2261    3.0007 C   0  0  0  0  0  0  0  0  0  0  0  0
    0.6436    1.1908    2.9834 H   0  0  0  0  0  0  0  0  0  0  0  0
   -7.2410   -1.1301    1.4636 C   0  0  0  0  0  0  0  0  0  0  0  0
   -7.9374   -1.7534    2.0049 H   0  0  0  0  0  0  0  0  0  0  0  0
    3.0628   -1.0970    3.5110 C   0  0  0  0  0  0  0  0  0  0  0  0
    4.0554   -1.1741    3.9290 H   0  0  0  0  0  0  0  0  0  0  0  0
    1.1891   -2.1112    2.4147 C   0  0  0  0  0  0  0  0  0  0  0  0
    0.7028   -2.9675    1.9718 H   0  0  0  0  0  0  0  0  0  0  0  0
    2.4605   -2.2100    2.9450 C   0  0  0  0  0  0  0  0  0  0  0  0
    2.9827   -3.1547    2.9158 H   0  0  0  0  0  0  0  0  0  0  0  0
    2.4004    0.1196    3.5253 C   0  0  0  0  0  0  0  0  0  0  0  0
    2.8751    0.9917    3.9470 H   0  0  0  0  0  0  0  0  0  0  0  0
   -7.7062   -0.2412    0.5107 C   0  0  0  0  0  0  0  0  0  0  0  0
   -8.7652   -0.1723    0.3128 H   0  0  0  0  0  0  0  0  0  0  0  0
   -5.3743   -2.1939    2.7755 C   0  0  0  0  0  0  0  0  0  0  0  0
   -4.5475   -2.7836    2.3811 H   0  0  0  0  0  0  0  0  0  0  0  0
   -6.1637   -2.8652    3.1014 H   0  0  0  0  0  0  0  0  0  0  0  0
   -5.0145   -1.6469    3.6473 H   0  0  0  0  0  0  0  0  0  0  0  0
   -6.8184    0.5588   -0.1874 C   0  0  0  0  0  0  0  0  0  0  0  0
   -7.1769    1.2538   -0.9310 H   0  0  0  0  0  0  0  0  0  0  0  0
   -3.8217    3.9024    6.6002 I   0  0  0  0  0  0  0  0  0  0  0  0
   -3.9938    1.1076    3.3586 S   0  0  0  0  0  0  0  0  0  0  0  0
  1  3  1  0  0  0  0
  3  7  1  0  0  0  0
  3  4  1  0  0  0  0
  5  1  1  0  0  0  0
  5  8  1  0  0  0  0
  6  5  1  0  0  0  0
  7 10  1  0  0  0  0
  8  2  2  0  0  0  0
  9 19  1  0  0  0  0
  9  8  1  0  0  0  0
 10 31  2  0  0  0  0
 10 11  1  0  0  0  0
 12 15  1  0  0  0  0
 12  7  2  0  0  0  0
 13 14  1  0  0  0  0
 13  9  2  0  0  0  0
 15 25  2  0  0  0  0
 16 15  1  0  0  0  0
 17 21  1  0  0  0  0
 18 17  1  0  0  0  0
 19 20  1  0  0  0  0
 21 22  1  0  0  0  0
 21 19  2  0  0  0  0
 23 17  2  0  0  0  0
 23 13  1  0  0  0  0
 24 23  1  0  0  0  0
 25 26  1  0  0  0  0
 25 31  1  0  0  0  0
 27 28  1  0  0  0  0
 27 12  1  0  0  0  0
 29 27  1  0  0  0  0
 30 27  1  0  0  0  0
 31 32  1  0  0  0  0
 33 68  1  0  0  0  0
 34 33  1  0  0  0  0
 35  1  2  0  0  0  0
 36 40  1  0  0  0  0
 36 69  2  0  0  0  0
 37 43  2  0  0  0  0
 38 36  1  0  0  0  0
 39 38  1  0  0  0  0
 40 41  1  0  0  0  0
 42 38  1  0  0  0  0
 42 47  1  0  0  0  0
 43 44  1  0  0  0  0
 43 40  1  0  0  0  0
 44 48  1  0  0  0  0
 45 42  2  0  0  0  0
 46 45  1  0  0  0  0
 47 62  1  0  0  0  0
 48 58  2  0  0  0  0
 49 48  1  0  0  0  0
 50 47  2  0  0  0  0
 50 51  1  0  0  0  0
 52 58  1  0  0  0  0
 52 53  1  0  0  0  0
 54 44  2  0  0  0  0
 54 56  1  0  0  0  0
 55 54  1  0  0  0  0
 56 52  2  0  0  0  0
 57 56  1  0  0  0  0
 58 59  1  0  0  0  0
 60 50  1  0  0  0  0
 61 60  1  0  0  0  0
 62 64  1  0  0  0  0
 62 65  1  0  0  0  0
 63 62  1  0  0  0  0
 66 45  1  0  0  0  0
 66 60  2  0  0  0  0
 67 66  1  0  0  0  0
M  END
$$$$
