CSD_code = VOWFUI | q = 0 | S = 0 | Stoichiometry = C31H29BrN2O3PRe | MND = 6
 OpenBabel04212202113D

 68 71  0  0  1  0  0  0  0  0999 V2000
   10.7115   20.9534    7.8579 Re  0  0  0  0  0  0  0  0  0  0  0  0
   11.3700   18.4242    7.6313 Br  0  0  0  0  0  0  0  0  0  0  0  0
    8.7484   20.2474    6.5050 P   0  0  0  0  0  4  0  0  0  0  0  0
    8.7105   21.0277   10.4088 N   0  0  0  0  0  0  0  0  0  0  0  0
   10.2512   19.3878   10.4497 N   0  0  0  0  0  0  0  0  0  0  0  0
   13.3023   21.3449    9.5056 O   0  0  0  0  0  1  0  0  0  0  0  0
   10.2262   23.9924    8.0797 O   0  0  0  0  0  1  0  0  0  0  0  0
   12.2771   21.3426    5.2053 O   0  0  0  0  0  1  0  0  0  0  0  0
   12.3386   21.2288    8.8960 C   0  0  0  0  0  2  0  0  0  0  0  0
   10.3353   22.8463    8.0005 C   0  0  0  0  0  2  0  0  0  0  0  0
   11.6818   21.2282    6.1743 C   0  0  0  0  0  2  0  0  0  0  0  0
    9.7200   20.4263    9.7888 C   0  0  2  0  0  3  0  0  0  0  0  0
    7.9250   22.1581    9.9648 C   0  0  0  0  0  0  0  0  0  0  0  0
    8.2531   23.3834   10.8153 C   0  0  0  0  0  0  0  0  0  0  0  0
    6.4430   21.8012   10.0497 C   0  0  0  0  0  0  0  0  0  0  0  0
    9.9155   18.8669   11.7131 C   0  0  0  0  0  0  0  0  0  0  0  0
    9.7029   17.4955   11.8269 C   0  0  0  0  0  0  0  0  0  0  0  0
    9.3980   16.9430   13.0561 C   0  0  0  0  0  0  0  0  0  0  0  0
    9.3066   17.7484   14.1802 C   0  0  0  0  0  0  0  0  0  0  0  0
    9.5416   19.1085   14.0739 C   0  0  0  0  0  0  0  0  0  0  0  0
    9.8494   19.6720   12.8479 C   0  0  0  0  0  0  0  0  0  0  0  0
    9.1643   20.1504    4.7297 C   0  0  0  0  0  0  0  0  0  0  0  0
   10.0658   19.1657    4.3240 C   0  0  0  0  0  0  0  0  0  0  0  0
   10.4772   19.0979    3.0072 C   0  0  0  0  0  0  0  0  0  0  0  0
   10.0000   20.0122    2.0822 C   0  0  0  0  0  0  0  0  0  0  0  0
    9.1052   20.9906    2.4797 C   0  0  0  0  0  0  0  0  0  0  0  0
    8.6885   21.0653    3.7973 C   0  0  0  0  0  0  0  0  0  0  0  0
    7.2662   21.3125    6.4905 C   0  0  0  0  0  0  0  0  0  0  0  0
    5.9723   20.8173    6.5920 C   0  0  0  0  0  0  0  0  0  0  0  0
    4.8967   21.6891    6.5872 C   0  0  0  0  0  0  0  0  0  0  0  0
    5.1021   23.0541    6.4801 C   0  0  0  0  0  0  0  0  0  0  0  0
    6.3908   23.5537    6.3736 C   0  0  0  0  0  0  0  0  0  0  0  0
    7.4667   22.6871    6.3824 C   0  0  0  0  0  0  0  0  0  0  0  0
    8.0150   18.6099    6.8371 C   0  0  0  0  0  0  0  0  0  0  0  0
    7.7805   18.2588    8.1629 C   0  0  0  0  0  0  0  0  0  0  0  0
    7.2239   17.0352    8.4794 C   0  0  0  0  0  0  0  0  0  0  0  0
    6.8912   16.1484    7.4688 C   0  0  0  0  0  0  0  0  0  0  0  0
    7.1063   16.4979    6.1465 C   0  0  0  0  0  0  0  0  0  0  0  0
    7.6635   17.7231    5.8256 C   0  0  0  0  0  0  0  0  0  0  0  0
    8.4243   20.6699   11.3172 H   0  0  0  0  0  0  0  0  0  0  0  0
   10.8615   18.7780    9.9004 H   0  0  0  0  0  0  0  0  0  0  0  0
    8.1865   22.3594    8.9211 H   0  0  0  0  0  0  0  0  0  0  0  0
    7.9948   23.2061   11.8579 H   0  0  0  0  0  0  0  0  0  0  0  0
    7.6925   24.2426   10.4596 H   0  0  0  0  0  0  0  0  0  0  0  0
    9.3139   23.6123   10.7489 H   0  0  0  0  0  0  0  0  0  0  0  0
    5.8427   22.6221    9.6684 H   0  0  0  0  0  0  0  0  0  0  0  0
    6.1529   21.6081   11.0814 H   0  0  0  0  0  0  0  0  0  0  0  0
    6.2278   20.9173    9.4527 H   0  0  0  0  0  0  0  0  0  0  0  0
    9.7847   16.8749   10.9463 H   0  0  0  0  0  0  0  0  0  0  0  0
    9.2344   15.8790   13.1382 H   0  0  0  0  0  0  0  0  0  0  0  0
    9.0679   17.3148   15.1393 H   0  0  0  0  0  0  0  0  0  0  0  0
    9.4965   19.7366   14.9512 H   0  0  0  0  0  0  0  0  0  0  0  0
   10.0803   20.7258   12.7787 H   0  0  0  0  0  0  0  0  0  0  0  0
   10.4455   18.4483    5.0385 H   0  0  0  0  0  0  0  0  0  0  0  0
   11.1771   18.3327    2.7058 H   0  0  0  0  0  0  0  0  0  0  0  0
   10.3269   19.9633    1.0541 H   0  0  0  0  0  0  0  0  0  0  0  0
    8.7303   21.7062    1.7623 H   0  0  0  0  0  0  0  0  0  0  0  0
    7.9917   21.8361    4.0939 H   0  0  0  0  0  0  0  0  0  0  0  0
    5.8019   19.7529    6.6731 H   0  0  0  0  0  0  0  0  0  0  0  0
    3.8929   21.2981    6.6676 H   0  0  0  0  0  0  0  0  0  0  0  0
    4.2591   23.7290    6.4784 H   0  0  0  0  0  0  0  0  0  0  0  0
    6.5572   24.6171    6.2862 H   0  0  0  0  0  0  0  0  0  0  0  0
    8.4776   23.0679    6.3006 H   0  0  0  0  0  0  0  0  0  0  0  0
    8.0424   18.9526    8.9490 H   0  0  0  0  0  0  0  0  0  0  0  0
    7.0552   16.7716    9.5138 H   0  0  0  0  0  0  0  0  0  0  0  0
    6.4659   15.1861    7.7118 H   0  0  0  0  0  0  0  0  0  0  0  0
    6.8427   15.8104    5.3561 H   0  0  0  0  0  0  0  0  0  0  0  0
    7.8256   17.9842    4.7898 H   0  0  0  0  0  0  0  0  0  0  0  0
  1 10  1  0  0  0  0
  1  9  1  0  0  0  0
  1 12  1  0  0  0  0
  2  1  1  0  0  0  0
  3 34  1  0  0  0  0
  3  1  1  0  0  0  0
  4 40  1  0  0  0  0
  5 16  1  0  0  0  0
  8 11  1  0  0  0  0
  9  6  1  0  0  0  0
 10  7  1  0  0  0  0
 11  1  1  0  0  0  0
 12  4  1  1  0  0  0
 12  5  1  0  0  0  0
 13 15  1  0  0  0  0
 13  4  1  0  0  0  0
 13 14  1  0  0  0  0
 14 43  1  0  0  0  0
 15 47  1  0  0  0  0
 16 17  2  0  0  0  0
 16 21  1  0  0  0  0
 17 18  1  0  0  0  0
 18 50  1  0  0  0  0
 18 19  2  0  0  0  0
 19 51  1  0  0  0  0
 20 19  1  0  0  0  0
 20 52  1  0  0  0  0
 21 20  2  0  0  0  0
 22  3  1  0  0  0  0
 23 22  1  0  0  0  0
 23 54  1  0  0  0  0
 24 23  2  0  0  0  0
 25 26  2  0  0  0  0
 25 24  1  0  0  0  0
 26 27  1  0  0  0  0
 27 58  1  0  0  0  0
 27 22  2  0  0  0  0
 28  3  1  0  0  0  0
 28 29  1  0  0  0  0
 29 59  1  0  0  0  0
 30 29  2  0  0  0  0
 30 60  1  0  0  0  0
 31 30  1  0  0  0  0
 32 33  1  0  0  0  0
 32 31  2  0  0  0  0
 33 28  2  0  0  0  0
 34 35  1  0  0  0  0
 35 36  2  0  0  0  0
 35 64  1  0  0  0  0
 36 65  1  0  0  0  0
 37 66  1  0  0  0  0
 37 36  1  0  0  0  0
 38 37  2  0  0  0  0
 39 38  1  0  0  0  0
 39 34  2  0  0  0  0
 41  5  1  0  0  0  0
 42 13  1  0  0  0  0
 44 14  1  0  0  0  0
 45 14  1  0  0  0  0
 46 15  1  0  0  0  0
 48 15  1  0  0  0  0
 49 17  1  0  0  0  0
 53 21  1  0  0  0  0
 55 24  1  0  0  0  0
 56 25  1  0  0  0  0
 57 26  1  0  0  0  0
 61 31  1  0  0  0  0
 62 32  1  0  0  0  0
 63 33  1  0  0  0  0
 67 38  1  0  0  0  0
 68 39  1  0  0  0  0
M  END
$$$$
