CSD_code = VOWMIF | q = -1 | S = 0 | Stoichiometry = C11H6BrNO7Re(1-) | MND = 6
 OpenBabel04212202113D

 27 28  0  0  1  0  0  0  0  0999 V2000
    7.6245    8.3334   16.7223 Re  0  0  0  0  0  0  0  0  0  0  0  0
    6.1716    7.0006   15.7681 N   0  0  0  0  0  0  0  0  0  0  0  0
    5.7281    8.7015   17.8029 O   0  0  0  0  0  0  0  0  0  0  0  0
    7.1907    9.8029   15.5410 C   0  0  0  0  0  2  0  0  0  0  0  0
    4.2516    5.1014   15.0734 C   0  0  0  0  0  0  0  0  0  0  0  0
    3.5226    4.3533   14.8024 H   0  0  0  0  0  0  0  0  0  0  0  0
    4.0070    6.0249   16.0671 C   0  0  0  0  0  0  0  0  0  0  0  0
    3.0819    6.0580   16.6223 H   0  0  0  0  0  0  0  0  0  0  0  0
    4.9851    6.9570   16.3865 C   0  0  1  0  0  3  0  0  0  0  0  0
    6.4055    6.1261   14.7971 C   0  0  0  0  0  0  0  0  0  0  0  0
    7.3670    6.1726   14.2995 H   0  0  0  0  0  0  0  0  0  0  0  0
    5.4810    5.1598   14.4127 C   0  0  0  0  0  0  0  0  0  0  0  0
    6.9485   10.6730   14.8273 O   0  0  0  0  0  1  0  0  0  0  0  0
    9.2895   10.0523   18.6804 O   0  0  0  0  0  1  0  0  0  0  0  0
    8.7011    9.4380   17.9082 C   0  0  0  0  0  2  0  0  0  0  0  0
   10.0892    7.5037   15.0468 O   0  0  0  0  0  1  0  0  0  0  0  0
    9.1800    7.8327   15.6789 C   0  0  0  0  0  2  0  0  0  0  0  0
    3.5998    8.0675   17.9590 O   0  0  0  0  0  0  0  0  0  0  0  0
    4.7322    8.0035   17.4991 C   0  0  0  0  0  0  0  0  0  0  0  0
    6.8229    4.3263   12.6257 O   0  0  0  0  0  0  0  0  0  0  0  0
    4.9267    3.2563   13.1592 O   0  0  0  0  0  0  0  0  0  0  0  0
    5.8396    4.2342   13.3179 C   0  0  0  0  0  0  0  0  0  0  0  0
    7.9670    6.3404   18.2783 Br  0  0  0  0  0  0  0  0  0  0  0  0
    5.2058    2.3209   12.1326 C   0  0  0  0  0  0  0  0  0  0  0  0
    4.3539    1.6463   12.0949 H   0  0  0  0  0  0  0  0  0  0  0  0
    6.1212    1.7697   12.3602 H   0  0  0  0  0  0  0  0  0  0  0  0
    5.3355    2.8330   11.1762 H   0  0  0  0  0  0  0  0  0  0  0  0
  1  3  1  0  0  0  0
  1 15  1  0  0  0  0
  1 23  1  0  0  0  0
  2  9  1  0  0  0  0
  2  1  1  0  0  0  0
  4  1  1  0  0  0  0
  5  7  2  0  0  0  0
  6  5  1  0  0  0  0
  7  8  1  0  0  0  0
  9  7  1  1  0  0  0
  9 19  1  0  0  0  0
 10  2  1  0  0  0  0
 11 10  1  0  0  0  0
 12 10  2  0  0  0  0
 12  5  1  0  0  0  0
 13  4  1  0  0  0  0
 15 14  1  0  0  0  0
 16 17  1  0  0  0  0
 17  1  1  0  0  0  0
 19  3  1  0  0  0  0
 19 18  2  0  0  0  0
 20 22  2  0  0  0  0
 21 22  1  0  0  0  0
 22 12  1  0  0  0  0
 24 26  1  0  0  0  0
 24 21  1  0  0  0  0
 25 24  1  0  0  0  0
 27 24  1  0  0  0  0
M  END
$$$$
