CSD_code = VOWMOL | q = -1 | S = 0 | Stoichiometry = C10H4BrNO7Re(1-) | MND = 6
 OpenBabel04212202113D

 24 25  0  0  0  0  0  0  0  0999 V2000
    6.4575   10.6072    4.0389 Re  0  0  0  0  0  0  0  0  0  0  0  0
    4.8607   11.9042    5.5483 Br  0  0  0  0  0  0  0  0  0  0  0  0
    8.0908   11.8113    4.9210 O   0  0  0  0  0  0  0  0  0  0  0  0
    4.9672    9.7406    3.1518 C   0  0  0  0  0  2  0  0  0  0  0  0
    4.0688    9.2584    2.6091 O   0  0  0  0  0  1  0  0  0  0  0  0
    7.7546    9.7764    2.8680 C   0  0  0  0  0  2  0  0  0  0  0  0
    6.5669    9.1929    5.3708 C   0  0  0  0  0  2  0  0  0  0  0  0
    6.6424    8.4256    6.2224 O   0  0  0  0  0  1  0  0  0  0  0  0
    8.5108    9.2734    2.1608 O   0  0  0  0  0  1  0  0  0  0  0  0
    6.4577   12.4708    2.8906 N   0  0  0  0  0  0  0  0  0  0  0  0
    6.3839   15.0908    1.9352 C   0  0  0  0  0  0  0  0  0  0  0  0
    6.3340   16.1026    1.5632 H   0  0  0  0  0  0  0  0  0  0  0  0
    5.5398   14.1067    1.4138 C   0  0  0  0  0  0  0  0  0  0  0  0
    5.6148   12.8142    1.9247 C   0  0  0  0  0  3  0  0  0  0  0  0
    4.9554   12.0471    1.5364 H   0  0  0  0  0  0  0  0  0  0  0  0
    7.2700   14.7229    2.9245 C   0  0  0  0  0  0  0  0  0  0  0  0
    7.9644   15.4127    3.3795 H   0  0  0  0  0  0  0  0  0  0  0  0
    7.2800   13.4098    3.3758 C   0  0  0  0  0  0  0  0  0  0  0  0
    9.1199   13.7833    4.8252 O   0  0  0  0  0  0  0  0  0  0  0  0
    8.2647   12.9750    4.4886 C   0  0  0  0  0  0  0  0  0  0  0  0
    3.8990   13.5646   -0.2289 O   0  0  0  0  0  0  0  0  0  0  0  0
    4.5706   14.3889    0.3395 C   0  0  0  0  0  0  0  0  0  0  0  0
    4.4992   15.6962    0.0212 O   0  0  0  0  0  0  0  0  0  0  0  0
    3.8404   15.8172   -0.6795 H   0  0  0  0  0  0  0  0  0  0  0  0
  1  3  1  0  0  0  0
  1  7  1  0  0  0  0
  1  2  1  0  0  0  0
  4  1  1  0  0  0  0
  5  4  1  0  0  0  0
  6  1  1  0  0  0  0
  7  8  1  0  0  0  0
  9  6  1  0  0  0  0
 10 18  1  0  0  0  0
 10  1  1  0  0  0  0
 11 16  1  0  0  0  0
 12 11  1  0  0  0  0
 13 14  1  0  0  0  0
 13 11  2  0  0  0  0
 14 10  1  0  0  0  0
 15 14  1  0  0  0  0
 16 18  2  0  0  0  0
 16 17  1  0  0  0  0
 18 20  1  0  0  0  0
 20 19  2  0  0  0  0
 20  3  1  0  0  0  0
 21 22  2  0  0  0  0
 22 13  1  0  0  0  0
 23 22  1  0  0  0  0
 24 23  1  0  0  0  0
M  END
$$$$
