CSD_code = VOWXIQ | q = 0 | S = 0 | Stoichiometry = C18H22FeIN3O3 | MND = 6
 OpenBabel04212202113D

 48 50  0  0  1  0  0  0  0  0999 V2000
    3.5332   -2.4475    1.4194 I   0  0  0  0  0  0  0  0  0  0  0  0
    2.2578   -1.6520    3.5312 Fe  0  0  0  0  0  0  0  0  0  0  0  0
    0.9464   -4.2219    3.6823 O   0  0  0  0  0  1  0  0  0  0  0  0
    3.9137   -3.3130    5.2163 O   0  0  0  0  0  1  0  0  0  0  0  0
    1.1074   -1.9322    6.0654 O   0  0  0  0  0  0  0  0  0  0  0  0
    3.4179    0.1593    3.7274 N   0  0  0  0  0  0  0  0  0  0  0  0
    0.8265   -0.5416    2.4311 N   0  0  0  0  0  0  0  0  0  0  0  0
    1.1552    0.6208    1.8404 N   0  0  1  0  0  0  0  0  0  0  0  0
    1.3870   -3.1742    3.5692 C   0  0  0  0  0  2  0  0  0  0  0  0
    3.3121   -2.6067    4.5488 C   0  0  0  0  0  2  0  0  0  0  0  0
    4.1981    0.3085    4.7992 C   0  0  0  0  0  3  0  0  0  0  0  0
    4.2444   -0.5318    5.4762 H   0  0  0  0  0  0  0  0  0  0  0  0
    4.9213    1.4565    5.0615 C   0  0  0  0  0  0  0  0  0  0  0  0
    5.5383    1.5136    5.9435 H   0  0  0  0  0  0  0  0  0  0  0  0
    4.8305    2.5187    4.1759 C   0  0  0  0  0  0  0  0  0  0  0  0
    5.3728    3.4356    4.3470 H   0  0  0  0  0  0  0  0  0  0  0  0
    4.0256    2.3700    3.0609 C   0  0  0  0  0  0  0  0  0  0  0  0
    3.9334    3.1679    2.3404 H   0  0  0  0  0  0  0  0  0  0  0  0
    3.3392    1.1779    2.8628 C   0  0  0  0  0  0  0  0  0  0  0  0
    2.5280    0.9879    1.6072 C   0  0  0  0  0  0  0  0  0  0  0  0
    2.5424    1.9026    1.0158 H   0  0  0  0  0  0  0  0  0  0  0  0
    3.0031    0.1829    1.0256 H   0  0  0  0  0  0  0  0  0  0  0  0
    0.0958    2.6010    0.7377 C   0  0  0  0  0  0  0  0  0  0  0  0
    0.6126    3.3483    1.3403 H   0  0  0  0  0  0  0  0  0  0  0  0
   -0.9205    2.9426    0.5638 H   0  0  0  0  0  0  0  0  0  0  0  0
    0.5995    2.5219   -0.2258 H   0  0  0  0  0  0  0  0  0  0  0  0
    0.0560    1.2874    1.4284 C   0  0  1  0  0  3  0  0  0  0  0  0
   -1.0265    0.5069    1.7775 C   0  0  0  0  0  0  0  0  0  0  0  0
   -2.0600    0.7235    1.6031 H   0  0  0  0  0  0  0  0  0  0  0  0
   -0.5001   -0.6293    2.4019 C   0  0  0  0  0  0  0  0  0  0  0  0
   -1.2547   -1.7834    2.9489 C   0  0  0  0  0  0  0  0  0  0  0  0
   -1.0848   -2.6674    2.3358 H   0  0  0  0  0  0  0  0  0  0  0  0
   -2.3187   -1.5623    2.9530 H   0  0  0  0  0  0  0  0  0  0  0  0
   -0.9299   -2.0109    3.9626 H   0  0  0  0  0  0  0  0  0  0  0  0
    1.3137   -1.1544    5.1650 C   0  0  0  0  0  0  0  0  0  0  0  0
    0.8171    0.2902    5.3177 C   0  0  0  0  0  0  0  0  0  0  0  0
    1.1577    0.9310    4.5069 H   0  0  0  0  0  0  0  0  0  0  0  0
   -0.2755    0.2506    5.2839 H   0  0  0  0  0  0  0  0  0  0  0  0
    1.2592    0.8642    6.6649 C   0  0  0  0  0  0  0  0  0  0  0  0
    2.3519    0.8832    6.7058 H   0  0  0  0  0  0  0  0  0  0  0  0
    0.9105    0.1935    7.4522 H   0  0  0  0  0  0  0  0  0  0  0  0
    0.7225    2.2723    6.9174 C   0  0  0  0  0  0  0  0  0  0  0  0
   -0.3650    2.2707    6.8171 H   0  0  0  0  0  0  0  0  0  0  0  0
    0.9592    2.5520    7.9462 H   0  0  0  0  0  0  0  0  0  0  0  0
    1.3171    3.3162    5.9776 C   0  0  0  0  0  0  0  0  0  0  0  0
    2.4046    3.2987    6.0273 H   0  0  0  0  0  0  0  0  0  0  0  0
    0.9775    4.3112    6.2559 H   0  0  0  0  0  0  0  0  0  0  0  0
    1.0172    3.1356    4.9476 H   0  0  0  0  0  0  0  0  0  0  0  0
  1  2  1  0  0  0  0
  2  9  1  0  0  0  0
  2  6  1  0  0  0  0
  2 10  1  0  0  0  0
  2 35  1  0  0  0  0
  6 11  1  0  0  0  0
  7  2  1  0  0  0  0
  8 20  1  6  0  0  0
  8  7  1  0  0  0  0
  9  3  1  0  0  0  0
 10  4  1  0  0  0  0
 11 13  1  0  0  0  0
 11 12  1  0  0  0  0
 13 14  1  0  0  0  0
 15 16  1  0  0  0  0
 15 13  2  0  0  0  0
 17 15  1  0  0  0  0
 18 17  1  0  0  0  0
 19 17  2  0  0  0  0
 19  6  1  0  0  0  0
 20 19  1  0  0  0  0
 21 20  1  0  0  0  0
 22 20  1  0  0  0  0
 23 24  1  0  0  0  0
 25 23  1  0  0  0  0
 26 23  1  0  0  0  0
 27 23  1  6  0  0  0
 27 28  1  0  0  0  0
 27  8  1  0  0  0  0
 28 30  2  0  0  0  0
 29 28  1  0  0  0  0
 30  7  1  0  0  0  0
 30 31  1  0  0  0  0
 31 33  1  0  0  0  0
 31 34  1  0  0  0  0
 32 31  1  0  0  0  0
 35 36  1  0  0  0  0
 35  5  2  0  0  0  0
 36 39  1  0  0  0  0
 37 36  1  0  0  0  0
 38 36  1  0  0  0  0
 39 40  1  0  0  0  0
 39 42  1  0  0  0  0
 39 41  1  0  0  0  0
 42 44  1  0  0  0  0
 43 42  1  0  0  0  0
 45 46  1  0  0  0  0
 45 47  1  0  0  0  0
 45 42  1  0  0  0  0
 48 45  1  0  0  0  0
M  END
$$$$
