CSD_code = VOXJUP | q = 0 | S = 0 | Stoichiometry = C6H9Cl2N3Pd | MND = 4
 OpenBabel04212202113D

 21 22  0  0  0  0  0  0  0  0999 V2000
   -1.1181    8.3030    4.9409 Pd  0  0  0  0  0  0  0  0  0  0  0  0
   -3.0720    7.2994    5.1800 Cl  0  0  0  0  0  0  0  0  0  0  0  0
   -2.0527   10.3085    4.8513 Cl  0  0  0  0  0  0  0  0  0  0  0  0
    0.0226    6.6154    4.9766 N   0  0  0  0  0  0  0  0  0  0  0  0
    1.7798    8.1436    4.9370 N   0  0  0  0  0  0  0  0  0  0  0  0
   -0.4406    5.3661    5.0024 C   0  0  0  0  0  3  0  0  0  0  0  0
   -1.5187    5.2781    5.0740 H   0  0  0  0  0  0  0  0  0  0  0  0
    0.3887    4.2646    4.9440 C   0  0  0  0  0  0  0  0  0  0  0  0
   -0.0252    3.2711    4.9706 H   0  0  0  0  0  0  0  0  0  0  0  0
    1.7585    4.4745    4.8432 C   0  0  0  0  0  0  0  0  0  0  0  0
    2.4409    3.6408    4.7818 H   0  0  0  0  0  0  0  0  0  0  0  0
    2.2480    5.7645    4.8134 C   0  0  0  0  0  0  0  0  0  0  0  0
    3.3065    5.9378    4.7253 H   0  0  0  0  0  0  0  0  0  0  0  0
    1.3502    6.8366    4.8929 C   0  0  0  0  0  0  0  0  0  0  0  0
    0.8328    9.1604    4.7160 N   0  0  0  0  0  4  0  0  0  0  0  0
    0.8944    9.5775    3.7780 H   0  0  0  0  0  0  0  0  0  0  0  0
    0.8975    9.9078    5.4154 H   0  0  0  0  0  0  0  0  0  0  0  0
    3.1654    8.5068    4.7381 C   0  0  0  0  0  0  0  0  0  0  0  0
    3.8011    7.9560    5.4298 H   0  0  0  0  0  0  0  0  0  0  0  0
    3.2781    9.5684    4.9568 H   0  0  0  0  0  0  0  0  0  0  0  0
    3.5028    8.3206    3.7122 H   0  0  0  0  0  0  0  0  0  0  0  0
  1  4  1  0  0  0  0
  1  2  1  0  0  0  0
  3  1  1  0  0  0  0
  4  6  1  0  0  0  0
  6  7  1  0  0  0  0
  8  9  1  0  0  0  0
  8  6  1  0  0  0  0
 10  8  2  0  0  0  0
 11 10  1  0  0  0  0
 12 10  1  0  0  0  0
 12 14  2  0  0  0  0
 13 12  1  0  0  0  0
 14  5  1  0  0  0  0
 14  4  1  0  0  0  0
 15  5  1  0  0  0  0
 15  1  1  0  0  0  0
 15 17  1  0  0  0  0
 16 15  1  0  0  0  0
 18  5  1  0  0  0  0
 18 20  1  0  0  0  0
 18 19  1  0  0  0  0
 21 18  1  0  0  0  0
M  END
$$$$
