CSD_code = VUBHEH | q = 0 | S = 0 | Stoichiometry = C6H12Cl2OPtS2 | MND = 4
 OpenBabel04212202113D

 24 25  0  0  0  0  0  0  0  0999 V2000
   -0.1234   11.0223    1.6170 Pt  0  0  0  0  0  0  0  0  0  0  0  0
   -0.0535   12.1508    3.5814 Cl  0  0  0  0  0  0  0  0  0  0  0  0
    2.0753   10.5083    1.7920 Cl  0  0  0  0  0  0  0  0  0  0  0  0
   -2.4463   11.4468    1.4704 S   0  0  2  0  0  3  0  0  0  0  0  0
   -0.2189    9.7905   -0.3663 S   0  0  2  0  0  3  0  0  0  0  0  0
   -1.4332    8.7054    2.2525 O   0  0  0  0  0  0  0  0  0  0  0  0
   -2.6902    8.9524    2.8344 C   0  0  0  0  0  0  0  0  0  0  0  0
   -2.9547   10.4570    2.9270 C   0  0  0  0  0  0  0  0  0  0  0  0
   -3.0158   10.4147    0.0392 C   0  0  0  0  0  0  0  0  0  0  0  0
   -1.9347   10.0750   -0.9780 C   0  0  0  0  0  0  0  0  0  0  0  0
   -0.2171    8.0816    0.2900 C   0  0  0  0  0  0  0  0  0  0  0  0
   -1.3541    7.7330    1.2410 C   0  0  0  0  0  0  0  0  0  0  0  0
   -2.7080    8.5434    3.8537 H   0  0  0  0  0  0  0  0  0  0  0  0
   -3.4858    8.4522    2.2639 H   0  0  0  0  0  0  0  0  0  0  0  0
   -2.3511   10.9011    3.7221 H   0  0  0  0  0  0  0  0  0  0  0  0
   -4.0126   10.6445    3.1095 H   0  0  0  0  0  0  0  0  0  0  0  0
   -3.4804    9.5236    0.4499 H   0  0  0  0  0  0  0  0  0  0  0  0
   -3.7902   11.0070   -0.4506 H   0  0  0  0  0  0  0  0  0  0  0  0
   -1.7951   10.9146   -1.6602 H   0  0  0  0  0  0  0  0  0  0  0  0
   -2.2159    9.1965   -1.5598 H   0  0  0  0  0  0  0  0  0  0  0  0
   -0.2116    7.3994   -0.5595 H   0  0  0  0  0  0  0  0  0  0  0  0
    0.7384    8.0343    0.8150 H   0  0  0  0  0  0  0  0  0  0  0  0
   -2.3023    7.6596    0.6867 H   0  0  0  0  0  0  0  0  0  0  0  0
   -1.1481    6.7441    1.6797 H   0  0  0  0  0  0  0  0  0  0  0  0
  1  3  1  0  0  0  0
  1  2  1  0  0  0  0
  4  9  1  6  0  0  0
  4  1  1  0  0  0  0
  4  8  1  0  0  0  0
  5 10  1  1  0  0  0
  5 11  1  0  0  0  0
  5  1  1  0  0  0  0
  6  7  1  0  0  0  0
  7  8  1  0  0  0  0
  7 13  1  0  0  0  0
  8 16  1  0  0  0  0
  8 15  1  0  0  0  0
  9 17  1  0  0  0  0
 10  9  1  0  0  0  0
 11 22  1  0  0  0  0
 11 12  1  0  0  0  0
 12 24  1  0  0  0  0
 12  6  1  0  0  0  0
 14  7  1  0  0  0  0
 18  9  1  0  0  0  0
 19 10  1  0  0  0  0
 20 10  1  0  0  0  0
 21 11  1  0  0  0  0
 23 12  1  0  0  0  0
M  END
$$$$
