CSD_code = VUBWUM | q = 0 | S = 0 | Stoichiometry = C23H35Cl2N6O2OsP | MND = 6
 OpenBabel04212202113D

 70 77  0  0  1  0  0  0  0  0999 V2000
    6.3536   14.4212    9.2640 C   0  0  0  0  0  0  0  0  0  0  0  0
    6.7312   15.2460    8.6655 H   0  0  0  0  0  0  0  0  0  0  0  0
    7.0485   13.5891    9.1740 H   0  0  0  0  0  0  0  0  0  0  0  0
    6.3318   14.7386   10.3046 H   0  0  0  0  0  0  0  0  0  0  0  0
    3.9924   15.2040    8.8432 C   0  0  0  0  0  0  0  0  0  0  0  0
    3.0312   14.9220    8.4194 H   0  0  0  0  0  0  0  0  0  0  0  0
    4.3858   16.0238    8.2478 H   0  0  0  0  0  0  0  0  0  0  0  0
    3.8415   15.5627    9.8589 H   0  0  0  0  0  0  0  0  0  0  0  0
    4.9618   14.0261    8.7805 C   0  0  0  0  0  0  0  0  0  0  0  0
    5.0180   13.7208    7.7321 H   0  0  0  0  0  0  0  0  0  0  0  0
    4.4483   12.7949    9.5604 C   0  0  1  0  0  0  0  0  0  0  0  0
    5.2085   12.0076    9.5353 H   0  0  0  0  0  0  0  0  0  0  0  0
    4.0036   13.0989   11.0053 C   0  0  0  0  0  0  0  0  0  0  0  0
    4.2891   12.2998   11.6982 H   0  0  0  0  0  0  0  0  0  0  0  0
    4.3680   14.0530   11.3850 H   0  0  0  0  0  0  0  0  0  0  0  0
    2.2428   12.6171    9.7575 C   0  0  0  0  0  0  0  0  0  0  0  0
    0.8938   12.3937    9.3321 C   0  0  0  0  0  0  0  0  0  0  0  0
   -0.2833   12.6900   10.0131 C   0  0  0  0  0  0  0  0  0  0  0  0
   -0.2279   13.1350   10.9928 H   0  0  0  0  0  0  0  0  0  0  0  0
   -1.4966   12.3999    9.4039 C   0  0  0  0  0  0  0  0  0  0  0  0
   -2.4229   12.6255    9.9077 H   0  0  0  0  0  0  0  0  0  0  0  0
   -1.5128   11.8056    8.1489 C   0  0  0  0  0  0  0  0  0  0  0  0
   -2.4330   11.5493    7.6504 H   0  0  0  0  0  0  0  0  0  0  0  0
   -0.3000   11.5231    7.5279 C   0  0  0  0  0  0  0  0  0  0  0  0
   -0.0792   10.8636    6.2752 C   0  0  1  0  0  3  0  0  0  0  0  0
   -0.4209    9.9674    4.2779 C   0  0  0  0  0  0  0  0  0  0  0  0
   -0.5878   10.6576    3.4449 H   0  0  0  0  0  0  0  0  0  0  0  0
   -0.8793    9.0056    4.0442 H   0  0  0  0  0  0  0  0  0  0  0  0
    1.0738    9.8627    4.6540 C   0  0  2  0  0  0  0  0  0  0  0  0
    1.6979   10.3794    3.9162 H   0  0  0  0  0  0  0  0  0  0  0  0
    1.5990    8.4232    4.8333 C   0  0  0  0  0  0  0  0  0  0  0  0
    2.6036    8.5252    5.2608 H   0  0  0  0  0  0  0  0  0  0  0  0
    0.7719    7.6159    5.8296 C   0  0  0  0  0  0  0  0  0  0  0  0
    0.8086    8.0830    6.8110 H   0  0  0  0  0  0  0  0  0  0  0  0
    1.1897    6.6166    5.9225 H   0  0  0  0  0  0  0  0  0  0  0  0
   -0.2659    7.5206    5.5185 H   0  0  0  0  0  0  0  0  0  0  0  0
    1.6988    7.7200    3.4824 C   0  0  0  0  0  0  0  0  0  0  0  0
    0.7144    7.5875    3.0391 H   0  0  0  0  0  0  0  0  0  0  0  0
    2.1485    6.7381    3.6070 H   0  0  0  0  0  0  0  0  0  0  0  0
    2.3105    8.2919    2.7871 H   0  0  0  0  0  0  0  0  0  0  0  0
    4.6711   10.5404    4.3985 C   0  0  0  0  0  0  0  0  0  0  0  0
    3.9060    9.8723    3.9941 H   0  0  0  0  0  0  0  0  0  0  0  0
    4.4990   11.5480    4.0033 H   0  0  0  0  0  0  0  0  0  0  0  0
    5.2401    8.9457    6.6345 C   0  0  0  0  0  0  0  0  0  0  0  0
    5.4429    8.8890    7.7094 H   0  0  0  0  0  0  0  0  0  0  0  0
    4.5024    8.1708    6.4041 H   0  0  0  0  0  0  0  0  0  0  0  0
    6.1252   11.5678    6.4881 C   0  0  0  0  0  0  0  0  0  0  0  0
    5.9792   12.5861    6.1120 H   0  0  0  0  0  0  0  0  0  0  0  0
    6.3669   11.6145    7.5551 H   0  0  0  0  0  0  0  0  0  0  0  0
    6.2447    8.7272    4.4615 C   0  0  0  0  0  0  0  0  0  0  0  0
    7.1551    8.3654    3.9722 H   0  0  0  0  0  0  0  0  0  0  0  0
    5.4138    8.0652    4.2040 H   0  0  0  0  0  0  0  0  0  0  0  0
    7.5106    9.6195    6.2481 C   0  0  0  0  0  0  0  0  0  0  0  0
    7.6375    9.6246    7.3339 H   0  0  0  0  0  0  0  0  0  0  0  0
    8.4409    9.2793    5.7813 H   0  0  0  0  0  0  0  0  0  0  0  0
    7.0348   10.9554    4.3561 C   0  0  0  0  0  0  0  0  0  0  0  0
    7.9602   10.6184    3.8777 H   0  0  0  0  0  0  0  0  0  0  0  0
    6.8022   11.9673    4.0153 H   0  0  0  0  0  0  0  0  0  0  0  0
    3.2193   12.3064    8.9546 N   0  0  0  0  0  0  0  0  0  0  0  0
    0.8867   11.8299    8.1016 N   0  0  0  0  0  0  0  0  0  0  0  0
    1.1390   10.5886    5.9121 N   0  0  1  0  0  0  0  0  0  0  0  0
    5.9638   10.0615    3.9548 N   0  0  2  0  0  0  0  0  0  0  0  0
    6.4585    8.6821    5.8982 N   0  0  1  0  0  0  0  0  0  0  0  0
    7.2484   10.9749    5.7927 N   0  0  1  0  0  0  0  0  0  0  0  0
    2.5787   13.1486   10.9414 O   0  0  0  0  0  0  0  0  0  0  0  0
   -1.0593   10.5015    5.4363 O   0  0  0  0  0  0  0  0  0  0  0  0
    4.5206   10.6260    6.2624 P   0  0  1  0  0  4  0  0  0  0  0  0
    2.8061   13.2140    5.9095 Cl  0  0  0  0  0  0  0  0  0  0  0  0
    2.5169    9.3382    8.5100 Cl  0  0  0  0  0  0  0  0  0  0  0  0
    2.5152   11.3253    7.2741 Os  0  0  0  0  0  0  0  0  0  0  0  0
  1  4  1  0  0  0  0
  2  1  1  0  0  0  0
  3  1  1  0  0  0  0
  5  8  1  0  0  0  0
  6  5  1  0  0  0  0
  7  5  1  0  0  0  0
  9  5  1  0  0  0  0
  9  1  1  0  0  0  0
  9 11  1  0  0  0  0
 10  9  1  0  0  0  0
 11 12  1  6  0  0  0
 11 13  1  0  0  0  0
 13 15  1  0  0  0  0
 13 14  1  0  0  0  0
 16 65  1  0  0  0  0
 17 16  2  0  0  0  0
 17 18  1  0  0  0  0
 18 19  1  0  0  0  0
 20 21  1  0  0  0  0
 20 18  2  0  0  0  0
 22 20  1  0  0  0  0
 23 22  1  0  0  0  0
 24 60  1  0  0  0  0
 24 22  2  0  0  0  0
 25 66  1  1  0  0  0
 25 24  1  0  0  0  0
 26 29  1  0  0  0  0
 26 66  1  0  0  0  0
 27 26  1  0  0  0  0
 28 26  1  0  0  0  0
 29 30  1  6  0  0  0
 29 31  1  0  0  0  0
 29 61  1  0  0  0  0
 31 32  1  0  0  0  0
 31 33  1  0  0  0  0
 33 35  1  0  0  0  0
 33 34  1  0  0  0  0
 36 33  1  0  0  0  0
 37 39  1  0  0  0  0
 37 31  1  0  0  0  0
 38 37  1  0  0  0  0
 40 37  1  0  0  0  0
 41 67  1  0  0  0  0
 42 41  1  0  0  0  0
 43 41  1  0  0  0  0
 44 45  1  0  0  0  0
 46 44  1  0  0  0  0
 47 49  1  0  0  0  0
 48 47  1  0  0  0  0
 50 63  1  0  0  0  0
 51 50  1  0  0  0  0
 52 50  1  0  0  0  0
 53 54  1  0  0  0  0
 55 53  1  0  0  0  0
 56 64  1  0  0  0  0
 57 56  1  0  0  0  0
 58 56  1  0  0  0  0
 59 11  1  0  0  0  0
 59 16  1  0  0  0  0
 60 17  1  0  0  0  0
 61 25  1  0  0  0  0
 61 70  1  0  0  0  0
 62 56  1  0  0  0  0
 62 41  1  0  0  0  0
 62 50  1  0  0  0  0
 63 53  1  0  0  0  0
 63 44  1  0  0  0  0
 64 53  1  0  0  0  0
 64 47  1  0  0  0  0
 65 13  1  0  0  0  0
 67 47  1  0  0  0  0
 67 44  1  0  0  0  0
 67 70  1  0  0  0  0
 68 70  1  0  0  0  0
 70 60  1  0  0  0  0
 70 69  1  0  0  0  0
 70 59  1  0  0  0  0
M  END
$$$$
