CSD_code = VUBYAS | q = 0 | S = 0 | Stoichiometry = C17H28ClN2Rh | MND = 6
 OpenBabel04212202113D

 49 51  0  0  1  0  0  0  0  0999 V2000
   -0.3454    0.0721    3.0474 Rh  0  0  0  0  0  0  0  0  0  0  0  0
    0.4843   -1.8370    2.1455 Cl  0  0  0  0  0 15  0  0  0  0  0  0
   -1.0124    0.4584    1.1209 N   0  0  2  0  0  0  0  0  0  0  0  0
   -2.1224   -0.2642   -0.7962 N   0  0  2  0  0  0  0  0  0  0  0  0
   -1.9452   -0.2232    0.5420 C   0  0  2  0  0  3  0  0  0  0  0  0
   -2.9050   -0.9853    1.4145 C   0  0  0  0  0  0  0  0  0  0  0  0
   -2.8256   -2.5013    1.1956 C   0  0  0  0  0  0  0  0  0  0  0  0
   -3.6372   -3.0059    0.0070 C   0  0  0  0  0  0  0  0  0  0  0  0
   -3.1505   -2.4621   -1.3322 C   0  0  0  0  0  0  0  0  0  0  0  0
   -3.2498   -0.9356   -1.4048 C   0  0  0  0  0  0  0  0  0  0  0  0
   -1.0701    0.1514   -1.7068 C   0  0  0  0  0  0  0  0  0  0  0  0
    0.2409    0.3246   -0.9587 C   0  0  0  0  0  0  0  0  0  0  0  0
   -0.0460    1.1529    0.2878 C   0  0  0  0  0  0  0  0  0  0  0  0
   -1.1376    0.1088    6.0007 C   0  0  0  0  0  0  0  0  0  0  0  0
   -2.1755    0.9691    5.2550 C   0  0  0  0  0  0  0  0  0  0  0  0
   -1.6807    1.4595    3.9120 C   0  0  1  0  0  0  0  0  0  0  0  0
   -0.4528    2.0887    3.7098 C   0  0  0  0  0  3  0  0  0  0  0  0
    0.5114    2.4028    4.8347 C   0  0  0  0  0  0  0  0  0  0  0  0
    1.5463    1.2803    5.0390 C   0  0  0  0  0  0  0  0  0  0  0  0
    1.0241   -0.0840    4.6480 C   0  0  1  0  0  0  0  0  0  0  0  0
   -0.2004   -0.6086    5.0506 C   0  0  0  0  0  3  0  0  0  0  0  0
   -3.9284   -0.6309    1.2674 H   0  0  0  0  0  0  0  0  0  0  0  0
   -2.6082   -0.7780    2.4530 H   0  0  0  0  0  0  0  0  0  0  0  0
   -3.2010   -2.9918    2.0957 H   0  0  0  0  0  0  0  0  0  0  0  0
   -1.7760   -2.7802    1.0890 H   0  0  0  0  0  0  0  0  0  0  0  0
   -4.6877   -2.7315    0.1421 H   0  0  0  0  0  0  0  0  0  0  0  0
   -3.5835   -4.0963   -0.0145 H   0  0  0  0  0  0  0  0  0  0  0  0
   -3.7525   -2.8949   -2.1339 H   0  0  0  0  0  0  0  0  0  0  0  0
   -2.1122   -2.7587   -1.4924 H   0  0  0  0  0  0  0  0  0  0  0  0
   -3.2865   -0.6127   -2.4485 H   0  0  0  0  0  0  0  0  0  0  0  0
   -4.1761   -0.6037   -0.9269 H   0  0  0  0  0  0  0  0  0  0  0  0
   -1.3618    1.0948   -2.1902 H   0  0  0  0  0  0  0  0  0  0  0  0
   -0.9618   -0.6097   -2.4866 H   0  0  0  0  0  0  0  0  0  0  0  0
    0.9824    0.8057   -1.5950 H   0  0  0  0  0  0  0  0  0  0  0  0
    0.6206   -0.6473   -0.6371 H   0  0  0  0  0  0  0  0  0  0  0  0
    0.8693    1.3012    0.8712 H   0  0  0  0  0  0  0  0  0  0  0  0
   -0.4463    2.1375    0.0095 H   0  0  0  0  0  0  0  0  0  0  0  0
   -1.6623   -0.6297    6.6102 H   0  0  0  0  0  0  0  0  0  0  0  0
   -0.5484    0.7264    6.6801 H   0  0  0  0  0  0  0  0  0  0  0  0
   -2.4673    1.8266    5.8722 H   0  0  0  0  0  0  0  0  0  0  0  0
   -3.0768    0.3735    5.0874 H   0  0  0  0  0  0  0  0  0  0  0  0
   -2.4856    1.7038    3.2178 H   0  0  0  0  0  0  0  0  0  0  0  0
   -0.3720    2.7509    2.8483 H   0  0  0  0  0  0  0  0  0  0  0  0
   -0.0540    2.5720    5.7523 H   0  0  0  0  0  0  0  0  0  0  0  0
    1.0384    3.3316    4.6059 H   0  0  0  0  0  0  0  0  0  0  0  0
    1.8782    1.2552    6.0829 H   0  0  0  0  0  0  0  0  0  0  0  0
    2.4260    1.4916    4.4256 H   0  0  0  0  0  0  0  0  0  0  0  0
    1.8104   -0.7882    4.3746 H   0  0  0  0  0  0  0  0  0  0  0  0
   -0.3088   -1.6941    5.0335 H   0  0  0  0  0  0  0  0  0  0  0  0
  1 16  1  0  0  0  0
  1 20  1  0  0  0  0
  3  1  1  1  0  0  0
  4 11  1  6  0  0  0
  4  5  1  0  0  0  0
  5  3  1  0  0  0  0
  5  6  1  1  0  0  0
  6 23  1  0  0  0  0
  7  6  1  0  0  0  0
  7 24  1  0  0  0  0
  8 26  1  0  0  0  0
  8  7  1  0  0  0  0
  9  8  1  0  0  0  0
 10  9  1  0  0  0  0
 10 31  1  0  0  0  0
 10  4  1  0  0  0  0
 11 12  1  0  0  0  0
 12 35  1  0  0  0  0
 12 13  1  0  0  0  0
 13 36  1  0  0  0  0
 13  3  1  0  0  0  0
 14 38  1  0  0  0  0
 14 39  1  0  0  0  0
 15 40  1  0  0  0  0
 15 14  1  0  0  0  0
 16 42  1  6  0  0  0
 16 15  1  0  0  0  0
 17 16  1  0  0  0  0
 17 18  1  0  0  0  0
 18 19  1  0  0  0  0
 18 44  1  0  0  0  0
 19 46  1  0  0  0  0
 20 48  1  6  0  0  0
 20 19  1  0  0  0  0
 20 21  1  0  0  0  0
 21 14  1  0  0  0  0
 22  6  1  0  0  0  0
 25  7  1  0  0  0  0
 27  8  1  0  0  0  0
 28  9  1  0  0  0  0
 29  9  1  0  0  0  0
 30 10  1  0  0  0  0
 32 11  1  0  0  0  0
 33 11  1  0  0  0  0
 34 12  1  0  0  0  0
 37 13  1  0  0  0  0
 41 15  1  0  0  0  0
 43 17  1  0  0  0  0
 45 18  1  0  0  0  0
 47 19  1  0  0  0  0
 49 21  1  0  0  0  0
M  END
$$$$
