CSD_code = VUCBUS | q = 0 | S = 0 | Stoichiometry = C30H24Cl2N4Zn | MND = 4
 OpenBabel04212202113D

 61 66  0  0  0  0  0  0  0  0999 V2000
    7.8427    9.6524    6.0601 Zn  0  0  0  0  0  0  0  0  0  0  0  0
    7.6471    7.6306    5.5891 N   0  0  0  0  0  0  0  0  0  0  0  0
    5.9387   10.4103    6.4029 N   0  0  0  0  0  0  0  0  0  0  0  0
    4.2829   11.0662    7.6818 N   0  0  0  0  0  0  0  0  0  0  0  0
    8.2294    5.7966    4.5360 N   0  0  0  0  0  0  0  0  0  0  0  0
    8.1313    7.1371    4.4735 C   0  0  0  0  0  3  0  0  0  0  0  0
    8.3903    7.7316    3.6201 H   0  0  0  0  0  0  0  0  0  0  0  0
    8.7292    4.9424    3.5364 C   0  0  0  0  0  0  0  0  0  0  0  0
    3.5248   11.3171    8.8398 C   0  0  0  0  0  0  0  0  0  0  0  0
    2.0202   11.7960   11.1407 C   0  0  0  0  0  0  0  0  0  0  0  0
    9.7462    3.2366    1.5777 C   0  0  0  0  0  0  0  0  0  0  0  0
    7.7793    5.4257    5.7756 C   0  0  0  0  0  0  0  0  0  0  0  0
    7.7767    4.4072    6.1033 H   0  0  0  0  0  0  0  0  0  0  0  0
    8.1901    3.6718    3.3697 C   0  0  0  0  0  0  0  0  0  0  0  0
    7.3704    3.3474    3.9927 H   0  0  0  0  0  0  0  0  0  0  0  0
    2.8886   10.7083   11.0709 C   0  0  0  0  0  0  0  0  0  0  0  0
    2.9907   10.0526   11.9221 H   0  0  0  0  0  0  0  0  0  0  0  0
    8.6954    2.8316    2.3979 C   0  0  0  0  0  0  0  0  0  0  0  0
    8.2824    1.8406    2.2845 H   0  0  0  0  0  0  0  0  0  0  0  0
   10.2915    2.3306    0.5567 C   0  0  0  0  0  0  0  0  0  0  0  0
    9.7718    5.3643    2.7187 C   0  0  0  0  0  0  0  0  0  0  0  0
   10.1957    6.3474    2.8523 H   0  0  0  0  0  0  0  0  0  0  0  0
   10.2723    4.5155    1.7518 C   0  0  0  0  0  0  0  0  0  0  0  0
   11.0752    4.8524    1.1142 H   0  0  0  0  0  0  0  0  0  0  0  0
    1.0724   13.3322   12.8530 C   0  0  0  0  0  0  0  0  0  0  0  0
    1.5614   14.1578   12.3569 H   0  0  0  0  0  0  0  0  0  0  0  0
    7.4291    6.5728    6.4176 C   0  0  0  0  0  0  0  0  0  0  0  0
    7.0543    6.7173    7.4100 H   0  0  0  0  0  0  0  0  0  0  0  0
    3.6351   10.4674    9.9355 C   0  0  0  0  0  0  0  0  0  0  0  0
    4.2979    9.6174    9.8923 H   0  0  0  0  0  0  0  0  0  0  0  0
    1.2243   12.0417   12.3517 C   0  0  0  0  0  0  0  0  0  0  0  0
    4.9487   10.8938    5.6045 C   0  0  0  0  0  0  0  0  0  0  0  0
    5.0562   10.9127    4.5392 H   0  0  0  0  0  0  0  0  0  0  0  0
    1.9237   12.6419   10.0378 C   0  0  0  0  0  0  0  0  0  0  0  0
    1.2497   13.4844   10.0698 H   0  0  0  0  0  0  0  0  0  0  0  0
    2.6654   12.4082    8.8966 C   0  0  0  0  0  0  0  0  0  0  0  0
    2.5894   13.0806    8.0557 H   0  0  0  0  0  0  0  0  0  0  0  0
    0.6094   10.9849   13.0193 C   0  0  0  0  0  0  0  0  0  0  0  0
    0.7030    9.9818   12.6292 H   0  0  0  0  0  0  0  0  0  0  0  0
    9.4436    1.5567   -0.2318 C   0  0  0  0  0  0  0  0  0  0  0  0
    8.3741    1.6428   -0.1074 H   0  0  0  0  0  0  0  0  0  0  0  0
    5.5129   10.5237    7.6392 C   0  0  0  0  0  3  0  0  0  0  0  0
    6.0982   10.2521    8.4953 H   0  0  0  0  0  0  0  0  0  0  0  0
    0.3287   13.5581   13.9963 C   0  0  0  0  0  0  0  0  0  0  0  0
    0.2255   14.5626   14.3796 H   0  0  0  0  0  0  0  0  0  0  0  0
   -0.2818   12.5011   14.6504 C   0  0  0  0  0  0  0  0  0  0  0  0
   -0.8647   12.6791   15.5418 H   0  0  0  0  0  0  0  0  0  0  0  0
   11.6671    2.2276    0.3650 C   0  0  0  0  0  0  0  0  0  0  0  0
   12.3358    2.8086    0.9830 H   0  0  0  0  0  0  0  0  0  0  0  0
    3.9143   11.3108    6.3850 C   0  0  0  0  0  0  0  0  0  0  0  0
    2.9623   11.7254    6.1273 H   0  0  0  0  0  0  0  0  0  0  0  0
   -0.1411   11.2147   14.1571 C   0  0  0  0  0  0  0  0  0  0  0  0
   -0.6180   10.3872   14.6615 H   0  0  0  0  0  0  0  0  0  0  0  0
   11.3288    0.6061   -1.3700 C   0  0  0  0  0  0  0  0  0  0  0  0
   11.7307   -0.0635   -2.1156 H   0  0  0  0  0  0  0  0  0  0  0  0
    9.9595    0.7048   -1.1905 C   0  0  0  0  0  0  0  0  0  0  0  0
    9.2910    0.1151   -1.8002 H   0  0  0  0  0  0  0  0  0  0  0  0
   12.1806    1.3684   -0.5884 C   0  0  0  0  0  0  0  0  0  0  0  0
   13.2496    1.2919   -0.7216 H   0  0  0  0  0  0  0  0  0  0  0  0
    8.5996    9.5850    8.1463 Cl  0  0  0  0  0  0  0  0  0  0  0  0
    8.7016   10.4177    4.1828 Cl  0  0  0  0  0  0  0  0  0  0  0  0
  1  3  1  0  0  0  0
  1 60  1  0  0  0  0
  2  1  1  0  0  0  0
  2 27  1  0  0  0  0
  3 42  1  0  0  0  0
  4  9  1  0  0  0  0
  5 12  1  0  0  0  0
  6  5  1  0  0  0  0
  6  2  1  0  0  0  0
  7  6  1  0  0  0  0
  8  5  1  0  0  0  0
  9 36  2  0  0  0  0
  9 29  1  0  0  0  0
 10 31  1  0  0  0  0
 11 23  2  0  0  0  0
 11 18  1  0  0  0  0
 12 13  1  0  0  0  0
 12 27  2  0  0  0  0
 14  8  1  0  0  0  0
 14 15  1  0  0  0  0
 16 10  1  0  0  0  0
 16 17  1  0  0  0  0
 18 14  2  0  0  0  0
 19 18  1  0  0  0  0
 20 11  1  0  0  0  0
 21 22  1  0  0  0  0
 21  8  2  0  0  0  0
 23 21  1  0  0  0  0
 24 23  1  0  0  0  0
 25 44  1  0  0  0  0
 26 25  1  0  0  0  0
 27 28  1  0  0  0  0
 29 16  2  0  0  0  0
 30 29  1  0  0  0  0
 31 25  2  0  0  0  0
 31 38  1  0  0  0  0
 32 50  2  0  0  0  0
 32  3  1  0  0  0  0
 33 32  1  0  0  0  0
 34 35  1  0  0  0  0
 34 10  2  0  0  0  0
 36 34  1  0  0  0  0
 37 36  1  0  0  0  0
 38 52  2  0  0  0  0
 39 38  1  0  0  0  0
 40 41  1  0  0  0  0
 40 20  2  0  0  0  0
 42  4  1  0  0  0  0
 42 43  1  0  0  0  0
 44 45  1  0  0  0  0
 44 46  2  0  0  0  0
 46 47  1  0  0  0  0
 48 20  1  0  0  0  0
 48 49  1  0  0  0  0
 50  4  1  0  0  0  0
 51 50  1  0  0  0  0
 52 46  1  0  0  0  0
 52 53  1  0  0  0  0
 54 56  2  0  0  0  0
 54 58  1  0  0  0  0
 55 54  1  0  0  0  0
 56 40  1  0  0  0  0
 57 56  1  0  0  0  0
 58 48  2  0  0  0  0
 59 58  1  0  0  0  0
 61  1  1  0  0  0  0
M  END
$$$$
