CSD_code = VUCGOQ | q = 0 | S = 0 | Stoichiometry = C15H17Cl2N3O2Ru | MND = 6
 OpenBabel04212202113D

 40 42  0  0  1  0  0  0  0  0999 V2000
    1.3268   -1.2588   11.0918 C   0  0  0  0  0  3  0  0  0  0  0  0
    0.2532   -1.3426   10.9626 H   0  0  0  0  0  0  0  0  0  0  0  0
    1.9828   -2.0115   12.0529 C   0  0  0  0  0  0  0  0  0  0  0  0
    1.4161   -2.6714   12.6892 H   0  0  0  0  0  0  0  0  0  0  0  0
    3.3551   -1.8939   12.1781 C   0  0  0  0  0  0  0  0  0  0  0  0
    3.8996   -2.4581   12.9196 H   0  0  0  0  0  0  0  0  0  0  0  0
    4.0199   -1.0259   11.3252 C   0  0  0  0  0  0  0  0  0  0  0  0
    5.0900   -0.9012   11.3879 H   0  0  0  0  0  0  0  0  0  0  0  0
    3.2940   -0.3138   10.3838 C   0  0  0  0  0  0  0  0  0  0  0  0
    3.9767    0.6509    9.4420 C   0  0  0  0  0  0  0  0  0  0  0  0
    5.0476    0.6941    9.6491 H   0  0  0  0  0  0  0  0  0  0  0  0
    3.8260    0.3076    8.4077 H   0  0  0  0  0  0  0  0  0  0  0  0
    4.1209    3.0957    9.9379 C   0  0  0  0  0  0  0  0  0  0  0  0
    5.1736    3.0849   10.1318 H   0  0  0  0  0  0  0  0  0  0  0  0
    3.2264    4.1099    9.9651 C   0  0  0  0  0  0  0  0  0  0  0  0
    3.3627    5.1484   10.1848 H   0  0  0  0  0  0  0  0  0  0  0  0
    2.1149    2.2672    9.3998 C   0  0  2  0  0  3  0  0  0  0  0  0
    0.8038    4.3820    9.5969 C   0  0  0  0  0  0  0  0  0  0  0  0
    0.0219    3.7898    9.1166 H   0  0  0  0  0  0  0  0  0  0  0  0
    0.9969    5.2754    8.9939 H   0  0  0  0  0  0  0  0  0  0  0  0
    0.3473    4.7739   11.0032 C   0  0  0  0  0  0  0  0  0  0  0  0
    0.1707    3.8587   11.5710 H   0  0  0  0  0  0  0  0  0  0  0  0
    1.1321    5.3477   11.5020 H   0  0  0  0  0  0  0  0  0  0  0  0
   -0.9386    5.5936   10.9550 C   0  0  0  0  0  0  0  0  0  0  0  0
   -0.7750    6.5042   10.3723 H   0  0  0  0  0  0  0  0  0  0  0  0
   -1.7120    5.0093   10.4542 H   0  0  0  0  0  0  0  0  0  0  0  0
   -1.4122    5.9588   12.3557 C   0  0  0  0  0  0  0  0  0  0  0  0
   -1.5961    5.0573   12.9344 H   0  0  0  0  0  0  0  0  0  0  0  0
   -2.3338    6.5334   12.3094 H   0  0  0  0  0  0  0  0  0  0  0  0
   -0.6618    6.5533   12.8731 H   0  0  0  0  0  0  0  0  0  0  0  0
   -0.5983    1.6923    8.1537 C   0  0  0  0  0  2  0  0  0  0  0  0
    1.4589    0.1336    7.4558 C   0  0  0  0  0  2  0  0  0  0  0  0
   -0.2366    1.4110   11.0841 Cl  0  0  0  0  0  0  0  0  0  0  0  0
   -0.7991   -1.0532    8.7844 Cl  0  0  0  0  0  0  0  0  0  0  0  0
    0.7480    0.7719    9.0396 Ru  0  0  0  0  0  0  0  0  0  0  0  0
    1.9668   -0.4274   10.2707 N   0  0  0  0  0  0  0  0  0  0  0  0
    3.4212    1.9740    9.5844 N   0  0  0  0  0  0  0  0  0  0  0  0
    2.0063    3.5858    9.6327 N   0  0  0  0  0  0  0  0  0  0  0  0
   -1.5364    2.1202    7.6682 O   0  0  0  0  0  1  0  0  0  0  0  0
    1.8043   -0.3101    6.4580 O   0  0  0  0  0  1  0  0  0  0  0  0
  1  3  1  0  0  0  0
  2  1  1  0  0  0  0
  3  5  2  0  0  0  0
  3  4  1  0  0  0  0
  5  6  1  0  0  0  0
  7  8  1  0  0  0  0
  7  5  1  0  0  0  0
  9  7  2  0  0  0  0
 10 37  1  0  0  0  0
 10 11  1  0  0  0  0
 10  9  1  0  0  0  0
 12 10  1  0  0  0  0
 13 15  2  0  0  0  0
 13 14  1  0  0  0  0
 15 16  1  0  0  0  0
 17 37  1  1  0  0  0
 17 38  1  0  0  0  0
 18 38  1  0  0  0  0
 18 21  1  0  0  0  0
 19 18  1  0  0  0  0
 20 18  1  0  0  0  0
 21 23  1  0  0  0  0
 21 22  1  0  0  0  0
 24 21  1  0  0  0  0
 24 27  1  0  0  0  0
 25 24  1  0  0  0  0
 26 24  1  0  0  0  0
 27 30  1  0  0  0  0
 27 28  1  0  0  0  0
 29 27  1  0  0  0  0
 31 35  1  0  0  0  0
 32 35  1  0  0  0  0
 34 35  1  0  0  0  0
 35 17  1  0  0  0  0
 35 36  1  0  0  0  0
 35 33  1  0  0  0  0
 36  9  1  0  0  0  0
 36  1  1  0  0  0  0
 37 13  1  0  0  0  0
 38 15  1  0  0  0  0
 39 31  1  0  0  0  0
 40 32  1  0  0  0  0
M  END
$$$$
