CSD_code = VUCSES | q = 0 | S = 0 | Stoichiometry = C10H9AuBrNS | MND = 2
 OpenBabel04212202113D

 23 24  0  0  1  0  0  0  0  0999 V2000
    4.2430   -1.1177    7.0546 Au  0  0  0  0  0  0  0  0  0  0  0  0
    3.0733   -2.4534    5.5237 Br  0  0  0  0  0  0  0  0  0  0  0  0
    5.1103   -0.0878   10.0434 S   0  0  0  0  0  0  0  0  0  0  0  0
    6.1895    0.9670    8.0329 N   0  0  0  0  0  0  0  0  0  0  0  0
    5.2813    0.0431    8.3355 C   0  0  1  0  0  3  0  0  0  0  0  0
    6.8006    1.6047    9.0970 C   0  0  0  0  0  0  0  0  0  0  0  0
    7.7806    2.5913    9.0626 C   0  0  0  0  0  0  0  0  0  0  0  0
    8.1754    2.9478    8.1257 H   0  0  0  0  0  0  0  0  0  0  0  0
    8.2440    3.0935   10.2618 C   0  0  0  0  0  0  0  0  0  0  0  0
    9.0041    3.8592   10.2540 H   0  0  0  0  0  0  0  0  0  0  0  0
    7.7526    2.6316   11.4806 C   0  0  0  0  0  0  0  0  0  0  0  0
    8.1365    3.0444   12.4002 H   0  0  0  0  0  0  0  0  0  0  0  0
    6.7823    1.6502   11.5275 C   0  0  0  0  0  0  0  0  0  0  0  0
    6.3949    1.2822   12.4637 H   0  0  0  0  0  0  0  0  0  0  0  0
    6.3146    1.1444   10.3259 C   0  0  0  0  0  0  0  0  0  0  0  0
    6.5624    1.2697    6.6660 C   0  0  0  0  0  0  0  0  0  0  0  0
    6.5359    2.3526    6.5164 H   0  0  0  0  0  0  0  0  0  0  0  0
    5.8122    0.8048    6.0156 H   0  0  0  0  0  0  0  0  0  0  0  0
    7.9173    0.7131    6.3366 C   0  0  0  0  0  0  0  0  0  0  0  0
    8.0653   -0.3184    6.6265 H   0  0  0  0  0  0  0  0  0  0  0  0
    8.8665    1.3904    5.7207 C   0  0  0  0  0  0  0  0  0  0  0  0
    8.7302    2.4154    5.4151 H   0  0  0  0  0  0  0  0  0  0  0  0
    9.8147    0.9435    5.4796 H   0  0  0  0  0  0  0  0  0  0  0  0
  2  1  1  0  0  0  0
  3 15  1  0  0  0  0
  4  5  1  0  0  0  0
  4  6  1  0  0  0  0
  5  1  1  1  0  0  0
  5  3  1  0  0  0  0
  6 15  1  0  0  0  0
  7  6  2  0  0  0  0
  7  9  1  0  0  0  0
  8  7  1  0  0  0  0
  9 11  2  0  0  0  0
 10  9  1  0  0  0  0
 11 13  1  0  0  0  0
 11 12  1  0  0  0  0
 13 14  1  0  0  0  0
 15 13  2  0  0  0  0
 16  4  1  0  0  0  0
 17 16  1  0  0  0  0
 18 16  1  0  0  0  0
 19 20  1  0  0  0  0
 19 16  1  0  0  0  0
 21 19  2  0  0  0  0
 22 21  1  0  0  0  0
 23 21  1  0  0  0  0
M  END
$$$$
