CSD_code = VUCYUO | q = 0 | S = 0 | Stoichiometry = C24H30Cl2N4Ni | MND = 5
 OpenBabel04212202113D

 61 65  0  0  1  0  0  0  0  0999 V2000
    2.8859    2.0571    3.0342 Ni  0  0  0  0  0  0  0  0  0  0  0  0
    3.1386    3.2518    1.0993 Cl  0  0  0  0  0  0  0  0  0  0  0  0
    0.8882    1.6478    2.8586 Cl  0  0  0  0  0  0  0  0  0  0  0  0
    4.6308    2.3839    3.2726 N   0  0  0  0  0  0  0  0  0  0  0  0
    2.7198    3.3721    4.5407 N   0  0  0  0  0  0  0  0  0  0  0  0
    3.6911    0.3231    2.2226 N   0  0  0  0  0  0  0  0  0  0  0  0
    4.9831    0.6211    1.9076 N   0  0  2  0  0  0  0  0  0  0  0  0
    5.5437    1.6875    2.5906 C   0  0  2  0  0  3  0  0  0  0  0  0
    6.8870    2.0346    2.6391 C   0  0  0  0  0  0  0  0  0  0  0  0
    7.6340    1.4696    2.1129 H   0  0  0  0  0  0  0  0  0  0  0  0
    7.2524    3.1423    3.3970 C   0  0  0  0  0  0  0  0  0  0  0  0
    8.2889    3.4397    3.4341 H   0  0  0  0  0  0  0  0  0  0  0  0
    6.3009    3.8516    4.1049 C   0  0  0  0  0  0  0  0  0  0  0  0
    6.5753    4.7101    4.6950 H   0  0  0  0  0  0  0  0  0  0  0  0
    4.9727    3.4320    4.0397 C   0  0  0  0  0  0  0  0  0  0  0  0
    3.8298    4.0167    4.7147 C   0  0  2  0  0  3  0  0  0  0  0  0
    3.9830    5.2441    5.5541 C   0  0  0  0  0  0  0  0  0  0  0  0
    3.0640    5.4471    6.0989 H   0  0  0  0  0  0  0  0  0  0  0  0
    4.2166    6.1021    4.9248 H   0  0  0  0  0  0  0  0  0  0  0  0
    4.7991    5.1105    6.2631 H   0  0  0  0  0  0  0  0  0  0  0  0
    5.4296   -0.1943    0.9076 C   0  0  1  0  0  3  0  0  0  0  0  0
    4.3895   -1.0359    0.6058 C   0  0  0  0  0  0  0  0  0  0  0  0
    4.3850   -1.8080   -0.1360 H   0  0  0  0  0  0  0  0  0  0  0  0
    3.3178   -0.6803    1.4510 C   0  0  0  0  0  0  0  0  0  0  0  0
    6.7669   -0.1102    0.2712 C   0  0  0  0  0  0  0  0  0  0  0  0
    7.5532   -0.4461    0.9480 H   0  0  0  0  0  0  0  0  0  0  0  0
    6.9786    0.9106   -0.0441 H   0  0  0  0  0  0  0  0  0  0  0  0
    6.7775   -0.7529   -0.6051 H   0  0  0  0  0  0  0  0  0  0  0  0
    1.9779   -1.3038    1.5319 C   0  0  0  0  0  0  0  0  0  0  0  0
    1.9271   -1.9692    2.3936 H   0  0  0  0  0  0  0  0  0  0  0  0
    1.7718   -1.8744    0.6308 H   0  0  0  0  0  0  0  0  0  0  0  0
    1.2232   -0.5299    1.6686 H   0  0  0  0  0  0  0  0  0  0  0  0
    1.5036    3.7794    5.1050 C   0  0  0  0  0  0  0  0  0  0  0  0
    0.9357    2.9295    6.0694 C   0  0  0  0  0  0  0  0  0  0  0  0
   -0.2479    3.3169    6.6737 C   0  0  0  0  0  0  0  0  0  0  0  0
   -0.6911    2.6959    7.4352 H   0  0  0  0  0  0  0  0  0  0  0  0
   -0.8805    4.4896    6.3016 C   0  0  0  0  0  0  0  0  0  0  0  0
   -1.8037    4.7788    6.7818 H   0  0  0  0  0  0  0  0  0  0  0  0
   -0.3540    5.2721    5.2926 C   0  0  0  0  0  0  0  0  0  0  0  0
   -0.8850    6.1562    4.9758 H   0  0  0  0  0  0  0  0  0  0  0  0
    0.8418    4.9381    4.6728 C   0  0  0  0  0  0  0  0  0  0  0  0
    1.6437    1.6447    6.4283 C   0  0  0  0  0  0  0  0  0  0  0  0
    2.6738    1.8981    7.5333 C   0  0  0  0  0  0  0  0  0  0  0  0
    3.4083    2.6387    7.2219 H   0  0  0  0  0  0  0  0  0  0  0  0
    3.1979    0.9769    7.7793 H   0  0  0  0  0  0  0  0  0  0  0  0
    2.1781    2.2635    8.4310 H   0  0  0  0  0  0  0  0  0  0  0  0
    0.6810    0.5319    6.8344 C   0  0  0  0  0  0  0  0  0  0  0  0
    1.2192   -0.4115    6.8991 H   0  0  0  0  0  0  0  0  0  0  0  0
   -0.1033    0.4305    6.0889 H   0  0  0  0  0  0  0  0  0  0  0  0
    0.2302    0.7270    7.8048 H   0  0  0  0  0  0  0  0  0  0  0  0
    1.3268    5.7294    3.4819 C   0  0  0  0  0  0  0  0  0  0  0  0
    1.3938    7.2309    3.7657 C   0  0  0  0  0  0  0  0  0  0  0  0
    1.8672    7.7408    2.9297 H   0  0  0  0  0  0  0  0  0  0  0  0
    1.9683    7.4368    4.6675 H   0  0  0  0  0  0  0  0  0  0  0  0
    0.3985    7.6490    3.8931 H   0  0  0  0  0  0  0  0  0  0  0  0
    0.4006    5.4372    2.2976 C   0  0  0  0  0  0  0  0  0  0  0  0
    0.3921    4.3697    2.0910 H   0  0  0  0  0  0  0  0  0  0  0  0
    0.7592    5.9524    1.4099 H   0  0  0  0  0  0  0  0  0  0  0  0
   -0.6171    5.7572    2.5088 H   0  0  0  0  0  0  0  0  0  0  0  0
    2.1770    1.3009    5.5262 H   0  0  0  0  0  0  0  0  0  0  0  0
    2.3256    5.3891    3.1938 H   0  0  0  0  0  0  0  0  0  0  0  0
  1  4  1  0  0  0  0
  1  5  1  0  0  0  0
  2  1  1  0  0  0  0
  3  1  1  0  0  0  0
  4 15  1  0  0  0  0
  5 16  1  0  0  0  0
  5 33  1  0  0  0  0
  6  1  1  0  0  0  0
  7  6  1  6  0  0  0
  7  8  1  0  0  0  0
  8  9  1  1  0  0  0
  8  4  1  0  0  0  0
  9 11  2  0  0  0  0
 10  9  1  0  0  0  0
 11 12  1  0  0  0  0
 11 13  1  0  0  0  0
 13 14  1  0  0  0  0
 15 13  2  0  0  0  0
 15 16  1  0  0  0  0
 16 17  1  1  0  0  0
 17 18  1  0  0  0  0
 17 20  1  0  0  0  0
 19 17  1  0  0  0  0
 21 25  1  6  0  0  0
 21  7  1  0  0  0  0
 22 21  1  0  0  0  0
 22 24  2  0  0  0  0
 23 22  1  0  0  0  0
 24 29  1  0  0  0  0
 24  6  1  0  0  0  0
 25 26  1  0  0  0  0
 27 25  1  0  0  0  0
 28 25  1  0  0  0  0
 29 32  1  0  0  0  0
 29 30  1  0  0  0  0
 31 29  1  0  0  0  0
 33 34  1  0  0  0  0
 34 42  1  0  0  0  0
 34 35  2  0  0  0  0
 35 36  1  0  0  0  0
 37 35  1  0  0  0  0
 37 38  1  0  0  0  0
 39 37  2  0  0  0  0
 40 39  1  0  0  0  0
 41 33  2  0  0  0  0
 41 39  1  0  0  0  0
 42 47  1  0  0  0  0
 42 43  1  0  0  0  0
 43 45  1  0  0  0  0
 43 46  1  0  0  0  0
 44 43  1  0  0  0  0
 47 48  1  0  0  0  0
 47 50  1  0  0  0  0
 49 47  1  0  0  0  0
 51 52  1  0  0  0  0
 51 41  1  0  0  0  0
 52 55  1  0  0  0  0
 52 54  1  0  0  0  0
 53 52  1  0  0  0  0
 56 59  1  0  0  0  0
 56 51  1  0  0  0  0
 57 56  1  0  0  0  0
 58 56  1  0  0  0  0
 60 42  1  0  0  0  0
 61 51  1  0  0  0  0
M  END
$$$$
