CSD_code = VUDCUU | q = 1 | S = 0 | Stoichiometry = C29H23ClN3Pt(1+) | MND = 4
 OpenBabel04212202113D

 57 64  0  0  1  0  0  0  0  0999 V2000
    6.0108   -2.6376   -0.3458 C   0  0  0  0  0  0  0  0  0  0  0  0
    7.0449   -2.6206   -0.6563 H   0  0  0  0  0  0  0  0  0  0  0  0
    5.1443   -3.5781   -0.8727 C   0  0  0  0  0  0  0  0  0  0  0  0
    5.5055   -4.2947   -1.5945 H   0  0  0  0  0  0  0  0  0  0  0  0
    3.8174   -3.6030   -0.4852 C   0  0  0  0  0  0  0  0  0  0  0  0
    3.1419   -4.3335   -0.9055 H   0  0  0  0  0  0  0  0  0  0  0  0
    3.3332   -2.6837    0.4468 C   0  0  0  0  0  0  0  0  0  0  0  0
    4.2116   -1.7202    0.9997 C   0  0  0  0  0  0  0  0  0  0  0  0
    5.5679   -1.6985    0.5875 C   0  0  0  0  0  0  0  0  0  0  0  0
    6.4396   -0.7138    1.1367 C   0  0  0  0  0  0  0  0  0  0  0  0
    7.4690   -0.7049    0.8109 H   0  0  0  0  0  0  0  0  0  0  0  0
    5.9903    0.1908    2.0363 C   0  0  0  0  0  0  0  0  0  0  0  0
    6.6508    0.9408    2.4456 H   0  0  0  0  0  0  0  0  0  0  0  0
    4.6338    0.1859    2.4718 C   0  0  0  0  0  0  0  0  0  0  0  0
    4.1553    1.1246    3.3863 C   0  0  0  0  0  0  0  0  0  0  0  0
    4.8189    1.8915    3.7561 H   0  0  0  0  0  0  0  0  0  0  0  0
    2.8466    1.0765    3.8154 C   0  0  0  0  0  0  0  0  0  0  0  0
    2.4932    1.8280    4.5094 H   0  0  0  0  0  0  0  0  0  0  0  0
    1.9590    0.1049    3.3583 C   0  0  0  0  0  0  0  0  0  0  0  0
    2.3830   -0.8137    2.3805 C   0  0  0  0  0  0  0  0  0  0  0  0
    3.7391   -0.7833    1.9522 C   0  0  0  0  0  0  0  0  0  0  0  0
    1.5157   -1.7689    1.7637 C   0  0  0  0  0  0  0  0  0  0  0  0
    0.4623   -1.7646    2.0034 H   0  0  0  0  0  0  0  0  0  0  0  0
    1.9683   -2.6563    0.8471 C   0  0  0  0  0  0  0  0  0  0  0  0
    1.2877   -3.3585    0.3869 H   0  0  0  0  0  0  0  0  0  0  0  0
    0.5738    0.0888    3.9551 C   0  0  0  0  0  0  0  0  0  0  0  0
   -0.1662   -0.2616    3.2318 H   0  0  0  0  0  0  0  0  0  0  0  0
    0.3036    1.1111    4.2411 H   0  0  0  0  0  0  0  0  0  0  0  0
    0.5562   -2.1912    4.8751 C   0  0  0  0  0  0  0  0  0  0  0  0
    0.7842   -2.7300    5.8027 H   0  0  0  0  0  0  0  0  0  0  0  0
    1.3618   -2.3968    4.1613 H   0  0  0  0  0  0  0  0  0  0  0  0
   -0.7679   -2.7157    4.3621 C   0  0  1  0  0  3  0  0  0  0  0  0
   -0.8473   -3.7910    3.4927 C   0  0  0  0  0  0  0  0  0  0  0  0
    0.0568   -4.2578    3.1350 H   0  0  0  0  0  0  0  0  0  0  0  0
   -2.0942   -4.2535    3.0955 C   0  0  0  0  0  0  0  0  0  0  0  0
   -2.1752   -5.0910    2.4210 H   0  0  0  0  0  0  0  0  0  0  0  0
   -3.2270   -3.6193    3.5805 C   0  0  0  0  0  0  0  0  0  0  0  0
   -4.2140   -3.9467    3.2989 H   0  0  0  0  0  0  0  0  0  0  0  0
   -3.0774   -2.5471    4.4430 C   0  0  0  0  0  0  0  0  0  0  0  0
   -3.9317   -2.0231    4.8523 H   0  0  0  0  0  0  0  0  0  0  0  0
   -1.2646    1.9721    7.5754 C   0  0  0  0  0  3  0  0  0  0  0  0
   -2.3465    1.9379    7.5886 H   0  0  0  0  0  0  0  0  0  0  0  0
   -0.5626    3.0103    8.1641 C   0  0  0  0  0  0  0  0  0  0  0  0
   -1.0962    3.8116    8.6477 H   0  0  0  0  0  0  0  0  0  0  0  0
    0.8221    2.9961    8.1176 C   0  0  0  0  0  0  0  0  0  0  0  0
    1.3994    3.7907    8.5630 H   0  0  0  0  0  0  0  0  0  0  0  0
    1.4587    1.9372    7.4842 C   0  0  0  0  0  0  0  0  0  0  0  0
    2.5351    1.8917    7.4306 H   0  0  0  0  0  0  0  0  0  0  0  0
    0.6971    0.9268    6.9230 C   0  0  0  0  0  0  0  0  0  0  0  0
    1.3159   -0.2854    6.2627 C   0  0  0  0  0  0  0  0  0  0  0  0
    2.3293   -0.0680    5.9059 H   0  0  0  0  0  0  0  0  0  0  0  0
    1.3871   -1.0733    7.0224 H   0  0  0  0  0  0  0  0  0  0  0  0
   -3.4992   -0.3292    6.8330 Cl  0  0  0  0  0  0  0  0  0  0  0  0
    0.4470   -0.7563    5.1745 N   0  0  1  0  0  4  0  0  0  0  0  0
   -1.8787   -2.1082    4.8272 N   0  0  0  0  0  0  0  0  0  0  0  0
   -0.6507    0.9547    6.9727 N   0  0  0  0  0  0  0  0  0  0  0  0
   -1.4458   -0.5455    5.9575 Pt  0  0  2  0  0  0  0  0  0  0  0  0
  1  9  1  0  0  0  0
  2  1  1  0  0  0  0
  3  5  1  0  0  0  0
  3  1  2  0  0  0  0
  4  3  1  0  0  0  0
  5  7  2  0  0  0  0
  6  5  1  0  0  0  0
  7 24  1  0  0  0  0
  7  8  1  0  0  0  0
  8 21  1  0  0  0  0
  9  8  2  0  0  0  0
  9 10  1  0  0  0  0
 10 12  2  0  0  0  0
 11 10  1  0  0  0  0
 12 13  1  0  0  0  0
 12 14  1  0  0  0  0
 14 15  1  0  0  0  0
 15 16  1  0  0  0  0
 15 17  2  0  0  0  0
 17 18  1  0  0  0  0
 19 17  1  0  0  0  0
 19 26  1  0  0  0  0
 20 19  2  0  0  0  0
 21 20  1  0  0  0  0
 21 14  2  0  0  0  0
 22 23  1  0  0  0  0
 22 20  1  0  0  0  0
 24 22  2  0  0  0  0
 25 24  1  0  0  0  0
 26 28  1  0  0  0  0
 27 26  1  0  0  0  0
 29 54  1  0  0  0  0
 29 30  1  0  0  0  0
 31 29  1  0  0  0  0
 32 33  1  1  0  0  0
 32 55  1  0  0  0  0
 32 29  1  0  0  0  0
 34 33  1  0  0  0  0
 35 33  2  0  0  0  0
 35 37  1  0  0  0  0
 36 35  1  0  0  0  0
 37 39  2  0  0  0  0
 38 37  1  0  0  0  0
 39 55  1  0  0  0  0
 39 40  1  0  0  0  0
 41 42  1  0  0  0  0
 41 43  1  0  0  0  0
 43 44  1  0  0  0  0
 45 43  2  0  0  0  0
 45 46  1  0  0  0  0
 47 45  1  0  0  0  0
 48 47  1  0  0  0  0
 49 56  1  0  0  0  0
 49 47  2  0  0  0  0
 50 49  1  0  0  0  0
 50 52  1  0  0  0  0
 51 50  1  0  0  0  0
 54 26  1  6  0  0  0
 54 57  1  0  0  0  0
 54 50  1  0  0  0  0
 55 57  1  0  0  0  0
 56 41  1  0  0  0  0
 57 53  1  6  0  0  0
 57 56  1  0  0  0  0
M  END
$$$$
