CSD_code = VUDFUW | q = 0 | S = 0 | Stoichiometry = C9H14ClIrN2O2 | MND = 4
 OpenBabel04212202113D

 29 29  0  0  0  0  0  0  0  0999 V2000
    6.6948    0.5649    8.8422 Ir  0  0  0  0  0  0  0  0  0  0  0  0
    8.5236   -0.7777    8.8768 Cl  0  0  0  0  0  0  0  0  0  0  0  0
    6.5855   -0.1428    5.9133 O   0  0  0  0  0  1  0  0  0  0  0  0
    4.3151    2.3872    9.0716 O   0  0  0  0  0  1  0  0  0  0  0  0
    8.0197    1.6311   11.3455 N   0  0  0  0  0  0  0  0  0  0  0  0
    6.7746   -0.0732   11.7995 N   0  0  0  0  0  0  0  0  0  0  0  0
    6.5572    0.1741    7.0125 C   0  0  0  0  0  2  0  0  0  0  0  0
    7.1432    0.7696   10.8411 C   0  0  0  0  0  0  0  0  0  0  0  0
    5.2241    1.6821    8.9546 C   0  0  0  0  0  2  0  0  0  0  0  0
    8.3170    1.3910   12.7505 C   0  0  0  0  0  0  0  0  0  0  0  0
    8.0634    2.2690   13.3525 H   0  0  0  0  0  0  0  0  0  0  0  0
    9.3836    1.1790   12.8777 H   0  0  0  0  0  0  0  0  0  0  0  0
    7.4317    0.1833   13.0733 C   0  0  0  0  0  0  0  0  0  0  0  0
    8.0094   -0.6941   13.3815 H   0  0  0  0  0  0  0  0  0  0  0  0
    6.6922    0.4020   13.8497 H   0  0  0  0  0  0  0  0  0  0  0  0
    8.6599    2.6963   10.6202 C   0  0  0  0  0  0  0  0  0  0  0  0
    8.5977    2.4537    9.5525 H   0  0  0  0  0  0  0  0  0  0  0  0
    9.7151    2.7319   10.9105 H   0  0  0  0  0  0  0  0  0  0  0  0
    7.9939    4.0462   10.8766 C   0  0  0  0  0  0  0  0  0  0  0  0
    8.4777    4.8142   10.2805 H   0  0  0  0  0  0  0  0  0  0  0  0
    8.0683    4.3273   11.9248 H   0  0  0  0  0  0  0  0  0  0  0  0
    6.9440    3.9998   10.5978 H   0  0  0  0  0  0  0  0  0  0  0  0
    5.8411   -1.1577   11.6485 C   0  0  0  0  0  0  0  0  0  0  0  0
    6.2356   -2.0342   12.1729 H   0  0  0  0  0  0  0  0  0  0  0  0
    5.7741   -1.3895   10.5788 H   0  0  0  0  0  0  0  0  0  0  0  0
    4.4556   -0.8003   12.1815 C   0  0  0  0  0  0  0  0  0  0  0  0
    3.7725   -1.6277   12.0141 H   0  0  0  0  0  0  0  0  0  0  0  0
    4.0740    0.0760   11.6632 H   0  0  0  0  0  0  0  0  0  0  0  0
    4.4880   -0.5926   13.2487 H   0  0  0  0  0  0  0  0  0  0  0  0
  1  2  1  0  0  0  0
  1  9  1  0  0  0  0
  1  8  2  0  0  0  0
  3  7  1  0  0  0  0
  5 10  1  0  0  0  0
  6 13  1  0  0  0  0
  7  1  1  0  0  0  0
  8  5  1  0  0  0  0
  8  6  1  0  0  0  0
  9  4  1  0  0  0  0
 10 12  1  0  0  0  0
 10 13  1  0  0  0  0
 10 11  1  0  0  0  0
 13 14  1  0  0  0  0
 13 15  1  0  0  0  0
 16 19  1  0  0  0  0
 16 18  1  0  0  0  0
 16  5  1  0  0  0  0
 17 16  1  0  0  0  0
 19 21  1  0  0  0  0
 20 19  1  0  0  0  0
 22 19  1  0  0  0  0
 23  6  1  0  0  0  0
 23 24  1  0  0  0  0
 23 26  1  0  0  0  0
 25 23  1  0  0  0  0
 26 29  1  0  0  0  0
 27 26  1  0  0  0  0
 28 26  1  0  0  0  0
M  END
$$$$
