CSD_code = VUDHIM | q = 0 | S = 0 | Stoichiometry = C21H23ClN3Rh | MND = 6
 OpenBabel04212202113D

 49 51  0  0  1  0  0  0  0  0999 V2000
   14.8130    3.1597    1.1802 Rh  0  0  0  0  0  0  0  0  0  0  0  0
   15.5535    3.4384   -0.9881 Cl  0  0  0  0  0 15  0  0  0  0  0  0
   13.5667    5.8619    1.1182 N   0  0  0  0  0  0  0  0  0  0  0  0
   12.5244    6.6158    0.7113 N   0  0  0  0  0  0  0  0  0  0  0  0
   12.3283    4.5239    0.0135 N   0  0  0  0  0  0  0  0  0  0  0  0
   13.4877    4.5741    0.7418 C   0  0  1  0  0  3  0  0  0  0  0  0
   11.7670    5.8018    0.0281 C   0  0  0  0  0  0  0  0  0  0  0  0
   10.5476    6.0542   -0.6301 C   0  0  0  0  0  0  0  0  0  0  0  0
   10.1446    7.0515   -0.6003 H   0  0  0  0  0  0  0  0  0  0  0  0
    9.9485    5.0190   -1.2759 C   0  0  0  0  0  0  0  0  0  0  0  0
    9.0133    5.1627   -1.7939 H   0  0  0  0  0  0  0  0  0  0  0  0
   10.5505    3.7398   -1.2915 C   0  0  0  0  0  0  0  0  0  0  0  0
   10.0680    2.9400   -1.8292 H   0  0  0  0  0  0  0  0  0  0  0  0
   11.7362    3.4902   -0.6644 C   0  0  0  0  0  0  0  0  0  0  0  0
   12.4216    2.1754   -0.7282 C   0  0  0  0  0  0  0  0  0  0  0  0
   11.7575    1.4184   -1.1353 H   0  0  0  0  0  0  0  0  0  0  0  0
   12.7798    1.8679    0.2599 H   0  0  0  0  0  0  0  0  0  0  0  0
   13.3019    2.2639   -1.3705 H   0  0  0  0  0  0  0  0  0  0  0  0
   14.5779    6.4664    1.8821 C   0  0  0  0  0  0  0  0  0  0  0  0
   15.8953    6.0251    1.8029 C   0  0  0  0  0  0  0  0  0  0  0  0
   16.1643    5.2347    1.1068 H   0  0  0  0  0  0  0  0  0  0  0  0
   16.8594    6.6305    2.5886 C   0  0  0  0  0  0  0  0  0  0  0  0
   17.8839    6.2950    2.5281 H   0  0  0  0  0  0  0  0  0  0  0  0
   16.5230    7.6745    3.4349 C   0  0  0  0  0  0  0  0  0  0  0  0
   17.2815    8.1421    4.0448 H   0  0  0  0  0  0  0  0  0  0  0  0
   15.2150    8.1285    3.4868 C   0  0  0  0  0  0  0  0  0  0  0  0
   14.9523    8.9507    4.1354 H   0  0  0  0  0  0  0  0  0  0  0  0
   14.2397    7.5299    2.7118 C   0  0  0  0  0  0  0  0  0  0  0  0
   13.2166    7.8711    2.7363 H   0  0  0  0  0  0  0  0  0  0  0  0
   16.6881    2.2489    1.7172 C   0  0  0  0  0  3  0  0  0  0  0  0
   17.4100    2.5480    0.9570 H   0  0  0  0  0  0  0  0  0  0  0  0
   15.8030    1.2399    1.4024 C   0  0  0  0  0  3  0  0  0  0  0  0
   15.8523    0.8158    0.3995 H   0  0  0  0  0  0  0  0  0  0  0  0
   15.1509    0.3571    2.4443 C   0  0  0  0  0  0  0  0  0  0  0  0
   15.8296    0.2554    3.2927 H   0  0  0  0  0  0  0  0  0  0  0  0
   15.0066   -0.6408    2.0254 H   0  0  0  0  0  0  0  0  0  0  0  0
   13.7884    0.9013    2.9147 C   0  0  0  0  0  0  0  0  0  0  0  0
   12.9953    0.4465    2.3153 H   0  0  0  0  0  0  0  0  0  0  0  0
   13.6073    0.6079    3.9552 H   0  0  0  0  0  0  0  0  0  0  0  0
   13.6704    2.4056    2.8006 C   0  0  1  0  0  0  0  0  0  0  0  0
   12.6345    2.7477    2.7568 H   0  0  0  0  0  0  0  0  0  0  0  0
   14.6155    3.3048    3.2993 C   0  0  0  0  0  3  0  0  0  0  0  0
   14.2575    4.2961    3.5739 H   0  0  0  0  0  0  0  0  0  0  0  0
   15.8567    2.8681    4.0484 C   0  0  0  0  0  0  0  0  0  0  0  0
   16.1106    3.6330    4.7851 H   0  0  0  0  0  0  0  0  0  0  0  0
   15.6336    1.9516    4.5980 H   0  0  0  0  0  0  0  0  0  0  0  0
   17.0697    2.6550    3.1216 C   0  0  0  0  0  0  0  0  0  0  0  0
   17.6371    3.5864    3.0648 H   0  0  0  0  0  0  0  0  0  0  0  0
   17.7358    1.8953    3.5458 H   0  0  0  0  0  0  0  0  0  0  0  0
  1 40  1  0  0  0  0
  3 19  1  0  0  0  0
  4  3  1  0  0  0  0
  5  7  1  0  0  0  0
  5  6  1  0  0  0  0
  6  3  1  0  0  0  0
  6  1  1  6  0  0  0
  7  4  2  0  0  0  0
  8  9  1  0  0  0  0
  8  7  1  0  0  0  0
 10  8  2  0  0  0  0
 11 10  1  0  0  0  0
 12 10  1  0  0  0  0
 12 14  2  0  0  0  0
 13 12  1  0  0  0  0
 14  5  1  0  0  0  0
 15 14  1  0  0  0  0
 15 17  1  0  0  0  0
 16 15  1  0  0  0  0
 18 15  1  0  0  0  0
 19 28  1  0  0  0  0
 20 19  2  0  0  0  0
 20 22  1  0  0  0  0
 21 20  1  0  0  0  0
 22 24  2  0  0  0  0
 23 22  1  0  0  0  0
 24 26  1  0  0  0  0
 24 25  1  0  0  0  0
 26 27  1  0  0  0  0
 28 29  1  0  0  0  0
 28 26  2  0  0  0  0
 30 47  1  0  0  0  0
 31 30  1  0  0  0  0
 32 30  1  0  0  0  0
 32 34  1  0  0  0  0
 33 32  1  0  0  0  0
 34 37  1  0  0  0  0
 34 35  1  0  0  0  0
 36 34  1  0  0  0  0
 37 39  1  0  0  0  0
 38 37  1  0  0  0  0
 40 41  1  1  0  0  0
 40 37  1  0  0  0  0
 40 42  1  0  0  0  0
 42 43  1  0  0  0  0
 42 44  1  0  0  0  0
 44 46  1  0  0  0  0
 44 45  1  0  0  0  0
 47 49  1  0  0  0  0
 47 44  1  0  0  0  0
 48 47  1  0  0  0  0
M  END
$$$$
