CSD_code = VUDJIN | q = 0 | S = 0 | Stoichiometry = C13H21BrN4O4PRe | MND = 6
 OpenBabel04212202113D

 45 46  0  0  1  0  0  0  0  0999 V2000
    8.6932   12.1259    0.6409 Re  0  0  0  0  0  0  0  0  0  0  0  0
    7.9289   10.3740   -1.1456 Br  0  0  0  0  0  0  0  0  0  0  0  0
   10.0113   10.1669    1.6320 P   0  0  2  0  0  4  0  0  0  0  0  0
   11.5019    7.8639    2.7330 N   0  0  1  0  0  0  0  0  0  0  0  0
   11.0264   11.6163    3.6859 C   0  0  0  0  0  0  0  0  0  0  0  0
   12.5786   10.0389    2.6136 C   0  0  0  0  0  0  0  0  0  0  0  0
   11.2748   10.6683    2.6220 N   0  0  0  0  0  0  0  0  0  0  0  0
   12.5554    8.6562    3.2958 C   0  0  0  0  0  0  0  0  0  0  0  0
   11.4945    9.8280   -0.6042 C   0  0  0  0  0  0  0  0  0  0  0  0
   10.6727    7.7734    0.4612 C   0  0  0  0  0  0  0  0  0  0  0  0
   10.7263    9.2184    0.4609 N   0  0  0  0  0  0  0  0  0  0  0  0
   11.6977    7.2147    1.4680 C   0  0  0  0  0  0  0  0  0  0  0  0
    7.7931    8.6106    2.0671 C   0  0  0  0  0  0  0  0  0  0  0  0
    9.4774    8.6005    3.8260 C   0  0  0  0  0  0  0  0  0  0  0  0
    9.0266    9.1832    2.5781 N   0  0  0  0  0  0  0  0  0  0  0  0
   10.4379    7.4226    3.5863 C   0  0  0  0  0  0  0  0  0  0  0  0
   10.0593   12.5900   -0.7041 C   0  0  0  0  0  2  0  0  0  0  0  0
   10.7296   12.9133   -1.5674 O   0  0  0  0  0  1  0  0  0  0  0  0
    7.2348   11.6271    1.8661 C   0  0  0  0  0  2  0  0  0  0  0  0
    6.3754   11.3728    2.5697 O   0  0  0  0  0  1  0  0  0  0  0  0
    7.4695   13.3352   -0.3180 C   0  0  0  0  0  2  0  0  0  0  0  0
    6.7353   13.9630   -0.9226 O   0  0  0  0  0  1  0  0  0  0  0  0
    9.3490   13.5154    1.8388 C   0  0  0  0  0  2  0  0  0  0  0  0
    9.7110   14.3905    2.4854 O   0  0  0  0  0  1  0  0  0  0  0  0
   11.6316   12.5190    3.5525 H   0  0  0  0  0  0  0  0  0  0  0  0
   11.2590   11.1939    4.6682 H   0  0  0  0  0  0  0  0  0  0  0  0
   13.2906   10.7013    3.1117 H   0  0  0  0  0  0  0  0  0  0  0  0
   12.9053    9.9052    1.5810 H   0  0  0  0  0  0  0  0  0  0  0  0
    9.9709   11.8947    3.6750 H   0  0  0  0  0  0  0  0  0  0  0  0
   13.5395    8.1812    3.1715 H   0  0  0  0  0  0  0  0  0  0  0  0
   12.3719    8.7774    4.3655 H   0  0  0  0  0  0  0  0  0  0  0  0
   11.7217   10.8613   -0.3404 H   0  0  0  0  0  0  0  0  0  0  0  0
   10.9436    9.8055   -1.5508 H   0  0  0  0  0  0  0  0  0  0  0  0
   10.8686    7.4090   -0.5489 H   0  0  0  0  0  0  0  0  0  0  0  0
    9.6744    7.4424    0.7469 H   0  0  0  0  0  0  0  0  0  0  0  0
   12.4415    9.3009   -0.7436 H   0  0  0  0  0  0  0  0  0  0  0  0
   11.5834    6.1242    1.5430 H   0  0  0  0  0  0  0  0  0  0  0  0
   12.7097    7.4272    1.1169 H   0  0  0  0  0  0  0  0  0  0  0  0
    7.5783    8.9958    1.0727 H   0  0  0  0  0  0  0  0  0  0  0  0
    6.9585    8.8551    2.7313 H   0  0  0  0  0  0  0  0  0  0  0  0
    8.6021    8.2772    4.3953 H   0  0  0  0  0  0  0  0  0  0  0  0
    9.9978    9.3603    4.4097 H   0  0  0  0  0  0  0  0  0  0  0  0
    7.8555    7.5207    1.9969 H   0  0  0  0  0  0  0  0  0  0  0  0
   10.8085    7.0535    4.5543 H   0  0  0  0  0  0  0  0  0  0  0  0
    9.9052    6.6070    3.0941 H   0  0  0  0  0  0  0  0  0  0  0  0
  1 23  1  0  0  0  0
  1 19  1  0  0  0  0
  2  1  1  0  0  0  0
  3  1  1  6  0  0  0
  3 15  1  0  0  0  0
  3  7  1  0  0  0  0
  4 12  1  1  0  0  0
  4  8  1  0  0  0  0
  4 16  1  0  0  0  0
  5 26  1  0  0  0  0
  6  7  1  0  0  0  0
  6 27  1  0  0  0  0
  6  8  1  0  0  0  0
  7  5  1  0  0  0  0
  8 31  1  0  0  0  0
  9 32  1  0  0  0  0
  9 11  1  0  0  0  0
 10 35  1  0  0  0  0
 10 12  1  0  0  0  0
 11 10  1  0  0  0  0
 11  3  1  0  0  0  0
 12 37  1  0  0  0  0
 13 15  1  0  0  0  0
 13 40  1  0  0  0  0
 14 41  1  0  0  0  0
 14 42  1  0  0  0  0
 15 14  1  0  0  0  0
 16 14  1  0  0  0  0
 16 44  1  0  0  0  0
 17  1  1  0  0  0  0
 18 17  1  0  0  0  0
 19 20  1  0  0  0  0
 21  1  1  0  0  0  0
 22 21  1  0  0  0  0
 23 24  1  0  0  0  0
 25  5  1  0  0  0  0
 28  6  1  0  0  0  0
 29  5  1  0  0  0  0
 30  8  1  0  0  0  0
 33  9  1  0  0  0  0
 34 10  1  0  0  0  0
 36  9  1  0  0  0  0
 38 12  1  0  0  0  0
 39 13  1  0  0  0  0
 43 13  1  0  0  0  0
 45 16  1  0  0  0  0
M  END
$$$$
