CSD_code = VUDLEL | q = 0 | S = 0 | Stoichiometry = C24H35Cl2N4O2Rh | MND = 6
 OpenBabel04212202113D

 68 71  0  0  1  0  0  0  0  0999 V2000
    0.5254    2.5351   -4.0888 Rh  0  0  0  0  0  0  0  0  0  0  0  0
    1.9705    1.1888   -2.8659 Cl  0  0  0  0  0  0  0  0  0  0  0  0
   -0.9553    4.0109   -5.1063 Cl  0  0  0  0  0  0  0  0  0  0  0  0
    2.2382    2.0303   -6.3596 O   0  0  0  0  0  0  0  0  0  0  0  0
    0.0772    0.8090   -6.2463 O   0  0  0  0  0  1  0  0  0  0  0  0
    2.0048    2.8716   -5.3396 N   0  0  0  0  0  0  0  0  0  0  0  0
   -0.3318    1.0747   -5.0584 N   0  0  0  0  0  0  0  0  0  0  0  0
    1.5587    4.2932   -3.1455 N   0  0  0  0  0  4  0  0  0  0  0  0
   -1.0686    2.0773   -2.7354 N   0  0  0  0  0  4  0  0  0  0  0  0
    2.8821    3.7768   -5.1242 C   0  0  2  0  0  3  0  0  0  0  0  0
   -1.3722    0.5108   -4.5612 C   0  0  2  0  0  3  0  0  0  0  0  0
    2.6359    4.8029   -4.0373 C   0  0  0  0  0  0  0  0  0  0  0  0
   -1.7516    0.8072   -3.1268 C   0  0  0  0  0  0  0  0  0  0  0  0
    4.0850    3.8517   -6.0069 C   0  0  0  0  0  0  0  0  0  0  0  0
   -2.1404   -0.4819   -5.3778 C   0  0  0  0  0  0  0  0  0  0  0  0
    3.9131    5.0251   -3.2162 C   0  0  0  0  0  0  0  0  0  0  0  0
   -1.2768   -0.3835   -2.2845 C   0  0  0  0  0  0  0  0  0  0  0  0
    2.2275    6.0906   -4.7640 C   0  0  0  0  0  0  0  0  0  0  0  0
   -3.2702    0.9800   -3.0051 C   0  0  0  0  0  0  0  0  0  0  0  0
    0.7181    5.3140   -2.5014 C   0  0  0  0  0  0  0  0  0  0  0  0
   -0.7970    2.2363   -1.2967 C   0  0  0  0  0  0  0  0  0  0  0  0
    1.4138    6.1104   -1.4251 C   0  0  0  0  0  0  0  0  0  0  0  0
   -2.0234    2.5118   -0.4631 C   0  0  0  0  0  0  0  0  0  0  0  0
    1.4523    7.4977   -1.4716 C   0  0  0  0  0  0  0  0  0  0  0  0
   -2.3389    1.7153    0.6296 C   0  0  0  0  0  0  0  0  0  0  0  0
    2.0883    8.2188   -0.4756 C   0  0  0  0  0  0  0  0  0  0  0  0
   -3.4609    1.9830    1.3953 C   0  0  0  0  0  0  0  0  0  0  0  0
    2.6910    7.5600    0.5817 C   0  0  0  0  0  0  0  0  0  0  0  0
   -4.2789    3.0532    1.0776 C   0  0  0  0  0  0  0  0  0  0  0  0
    2.6424    6.1773    0.6471 C   0  0  0  0  0  0  0  0  0  0  0  0
   -3.9637    3.8631   -0.0010 C   0  0  0  0  0  0  0  0  0  0  0  0
    2.0037    5.4584   -0.3463 C   0  0  0  0  0  0  0  0  0  0  0  0
   -2.8406    3.5977   -0.7626 C   0  0  0  0  0  0  0  0  0  0  0  0
    1.3663    1.4330   -6.4456 H   0  0  0  0  0  0  0  0  0  0  0  0
    2.0320    3.7606   -2.4096 H   0  0  0  0  0  0  0  0  0  0  0  0
   -1.7063    2.8311   -3.0172 H   0  0  0  0  0  0  0  0  0  0  0  0
    3.7686    3.7512   -7.0450 H   0  0  0  0  0  0  0  0  0  0  0  0
    4.7347    3.0030   -5.7926 H   0  0  0  0  0  0  0  0  0  0  0  0
    4.6420    4.7723   -5.8784 H   0  0  0  0  0  0  0  0  0  0  0  0
   -2.5803   -1.2609   -4.7622 H   0  0  0  0  0  0  0  0  0  0  0  0
   -2.9346    0.0246   -5.9267 H   0  0  0  0  0  0  0  0  0  0  0  0
   -1.4653   -0.9271   -6.1068 H   0  0  0  0  0  0  0  0  0  0  0  0
    3.7193    5.7231   -2.4056 H   0  0  0  0  0  0  0  0  0  0  0  0
    4.7095    5.4371   -3.8280 H   0  0  0  0  0  0  0  0  0  0  0  0
    4.2567    4.0812   -2.7963 H   0  0  0  0  0  0  0  0  0  0  0  0
   -1.6729   -0.3368   -1.2740 H   0  0  0  0  0  0  0  0  0  0  0  0
   -1.6279   -1.3064   -2.7375 H   0  0  0  0  0  0  0  0  0  0  0  0
   -0.1896   -0.4148   -2.2625 H   0  0  0  0  0  0  0  0  0  0  0  0
    2.1948    6.9324   -4.0788 H   0  0  0  0  0  0  0  0  0  0  0  0
    2.9559    6.3160   -5.5381 H   0  0  0  0  0  0  0  0  0  0  0  0
    1.2598    5.9567   -5.2422 H   0  0  0  0  0  0  0  0  0  0  0  0
   -3.5478    1.2087   -1.9793 H   0  0  0  0  0  0  0  0  0  0  0  0
   -3.7828    0.0690   -3.2983 H   0  0  0  0  0  0  0  0  0  0  0  0
   -3.6105    1.7868   -3.6520 H   0  0  0  0  0  0  0  0  0  0  0  0
   -0.1334    4.8036   -2.0421 H   0  0  0  0  0  0  0  0  0  0  0  0
    0.3035    5.9684   -3.2660 H   0  0  0  0  0  0  0  0  0  0  0  0
   -0.1139    3.0821   -1.1765 H   0  0  0  0  0  0  0  0  0  0  0  0
   -0.2655    1.3583   -0.9337 H   0  0  0  0  0  0  0  0  0  0  0  0
    0.9741    8.0193   -2.2886 H   0  0  0  0  0  0  0  0  0  0  0  0
   -1.7000    0.8825    0.8874 H   0  0  0  0  0  0  0  0  0  0  0  0
    2.1134    9.2972   -0.5268 H   0  0  0  0  0  0  0  0  0  0  0  0
   -3.6963    1.3531    2.2401 H   0  0  0  0  0  0  0  0  0  0  0  0
    3.1915    8.1216    1.3559 H   0  0  0  0  0  0  0  0  0  0  0  0
   -5.1567    3.2592    1.6711 H   0  0  0  0  0  0  0  0  0  0  0  0
    3.1005    5.6580    1.4755 H   0  0  0  0  0  0  0  0  0  0  0  0
   -4.5923    4.7055   -0.2478 H   0  0  0  0  0  0  0  0  0  0  0  0
    1.9671    4.3791   -0.2786 H   0  0  0  0  0  0  0  0  0  0  0  0
   -2.6026    4.2429   -1.5979 H   0  0  0  0  0  0  0  0  0  0  0  0
  1  8  1  0  0  0  0
  1  2  1  0  0  0  0
  1  9  1  0  0  0  0
  3  1  1  0  0  0  0
  4  6  1  0  0  0  0
  5  7  1  0  0  0  0
  6 10  1  0  0  0  0
  6  1  1  0  0  0  0
  7 11  1  0  0  0  0
  7  1  1  0  0  0  0
  8 20  1  0  0  0  0
  8 35  1  0  0  0  0
  9 21  1  0  0  0  0
 10 14  1  6  0  0  0
 10 12  1  0  0  0  0
 11 15  1  1  0  0  0
 11 13  1  0  0  0  0
 12 16  1  0  0  0  0
 12  8  1  0  0  0  0
 13 19  1  0  0  0  0
 13  9  1  0  0  0  0
 13 17  1  0  0  0  0
 14 39  1  0  0  0  0
 14 38  1  0  0  0  0
 15 40  1  0  0  0  0
 16 45  1  0  0  0  0
 16 43  1  0  0  0  0
 17 48  1  0  0  0  0
 17 46  1  0  0  0  0
 18 49  1  0  0  0  0
 18 12  1  0  0  0  0
 19 52  1  0  0  0  0
 20 55  1  0  0  0  0
 20 22  1  0  0  0  0
 21 57  1  0  0  0  0
 21 58  1  0  0  0  0
 21 23  1  0  0  0  0
 22 32  1  0  0  0  0
 23 25  1  0  0  0  0
 24 22  2  0  0  0  0
 24 26  1  0  0  0  0
 25 60  1  0  0  0  0
 25 27  2  0  0  0  0
 26 28  2  0  0  0  0
 27 62  1  0  0  0  0
 28 30  1  0  0  0  0
 28 63  1  0  0  0  0
 29 27  1  0  0  0  0
 29 64  1  0  0  0  0
 30 65  1  0  0  0  0
 31 29  2  0  0  0  0
 32 67  1  0  0  0  0
 32 30  2  0  0  0  0
 33 23  2  0  0  0  0
 33 31  1  0  0  0  0
 34  4  1  0  0  0  0
 36  9  1  0  0  0  0
 37 14  1  0  0  0  0
 41 15  1  0  0  0  0
 42 15  1  0  0  0  0
 44 16  1  0  0  0  0
 47 17  1  0  0  0  0
 50 18  1  0  0  0  0
 51 18  1  0  0  0  0
 53 19  1  0  0  0  0
 54 19  1  0  0  0  0
 56 20  1  0  0  0  0
 59 24  1  0  0  0  0
 61 26  1  0  0  0  0
 66 31  1  0  0  0  0
 68 33  1  0  0  0  0
M  END
$$$$
