CSD_code = VUFVEZ | q = 0 | S = 0 | Stoichiometry = C18H32BrFeNO3P2 | MND = 6
 OpenBabel04212202113D

 58 60  0  0  1  0  0  0  0  0999 V2000
    2.4146    5.5481    4.1261 Br  0  0  0  0  0  0  0  0  0  0  0  0
    3.0025    4.2519    5.9557 Fe  0  0  0  0  0  0  0  0  0  0  0  0
    3.3481    3.4284    7.0776 H   0  0  0  0  0  0  0  0  0  0  0  0
    1.2676    4.9089    7.0553 P   0  0  0  0  0  4  0  0  0  0  0  0
    4.4550    3.1589    4.7953 P   0  0  0  0  0  4  0  0  0  0  0  0
    0.1084    3.8242    6.5473 O   0  0  0  0  0  0  0  0  0  0  0  0
    3.5252    1.9377    4.1452 O   0  0  0  0  0  0  0  0  0  0  0  0
    4.8395    6.1923    7.0508 O   0  0  0  0  0  1  0  0  0  0  0  0
    1.8039    2.8455    5.3558 N   0  0  0  0  0  0  0  0  0  0  0  0
    0.5226    2.8320    5.7428 C   0  0  2  0  0  3  0  0  0  0  0  0
   -0.3660    1.8497    5.3340 C   0  0  0  0  0  0  0  0  0  0  0  0
   -1.3870    1.8901    5.6727 H   0  0  0  0  0  0  0  0  0  0  0  0
    0.0954    0.8534    4.4898 C   0  0  0  0  0  0  0  0  0  0  0  0
   -0.5712    0.0771    4.1510 H   0  0  0  0  0  0  0  0  0  0  0  0
    1.4185    0.8641    4.0805 C   0  0  0  0  0  0  0  0  0  0  0  0
    1.8224    0.1176    3.4184 H   0  0  0  0  0  0  0  0  0  0  0  0
    2.2414    1.8830    4.5348 C   0  0  0  0  0  0  0  0  0  0  0  0
    1.1764    4.6189    8.8919 C   0  0  0  0  0  0  0  0  0  0  0  0
    0.2506    5.0560    9.2800 H   0  0  0  0  0  0  0  0  0  0  0  0
    2.3874    5.2888    9.5290 C   0  0  0  0  0  0  0  0  0  0  0  0
    2.3786    5.1526   10.6091 H   0  0  0  0  0  0  0  0  0  0  0  0
    2.4113    6.3552    9.3150 H   0  0  0  0  0  0  0  0  0  0  0  0
    3.2961    4.8432    9.1280 H   0  0  0  0  0  0  0  0  0  0  0  0
    1.1869    3.1200    9.1700 C   0  0  0  0  0  0  0  0  0  0  0  0
    2.0300    2.6585    8.6554 H   0  0  0  0  0  0  0  0  0  0  0  0
    0.2678    2.6471    8.8283 H   0  0  0  0  0  0  0  0  0  0  0  0
    1.2940    2.9348   10.2372 H   0  0  0  0  0  0  0  0  0  0  0  0
    0.2911    6.4571    6.7205 C   0  0  0  0  0  0  0  0  0  0  0  0
    0.0841    6.3927    5.6432 H   0  0  0  0  0  0  0  0  0  0  0  0
    1.1480    7.6923    6.9670 C   0  0  0  0  0  0  0  0  0  0  0  0
    0.6413    8.5777    6.5884 H   0  0  0  0  0  0  0  0  0  0  0  0
    2.1022    7.6035    6.4500 H   0  0  0  0  0  0  0  0  0  0  0  0
    1.3369    7.8363    8.0294 H   0  0  0  0  0  0  0  0  0  0  0  0
   -1.0351    6.5121    7.4701 C   0  0  0  0  0  0  0  0  0  0  0  0
   -0.8881    6.7801    8.5146 H   0  0  0  0  0  0  0  0  0  0  0  0
   -1.5502    5.5546    7.4170 H   0  0  0  0  0  0  0  0  0  0  0  0
   -1.6739    7.2695    7.0194 H   0  0  0  0  0  0  0  0  0  0  0  0
    5.2257    3.7294    3.2002 C   0  0  0  0  0  0  0  0  0  0  0  0
    4.3571    4.0257    2.5958 H   0  0  0  0  0  0  0  0  0  0  0  0
    5.9802    2.6282    2.4640 C   0  0  0  0  0  0  0  0  0  0  0  0
    6.1424    2.9294    1.4306 H   0  0  0  0  0  0  0  0  0  0  0  0
    5.4101    1.7008    2.4643 H   0  0  0  0  0  0  0  0  0  0  0  0
    6.9543    2.4471    2.9141 H   0  0  0  0  0  0  0  0  0  0  0  0
    6.0856    4.9649    3.4344 C   0  0  0  0  0  0  0  0  0  0  0  0
    6.9949    4.7152    3.9784 H   0  0  0  0  0  0  0  0  0  0  0  0
    5.5321    5.7128    3.9999 H   0  0  0  0  0  0  0  0  0  0  0  0
    6.3698    5.4060    2.4811 H   0  0  0  0  0  0  0  0  0  0  0  0
    5.7469    2.1365    5.6616 C   0  0  0  0  0  0  0  0  0  0  0  0
    6.4212    1.7020    4.9165 H   0  0  0  0  0  0  0  0  0  0  0  0
    5.0690    1.0202    6.4478 C   0  0  0  0  0  0  0  0  0  0  0  0
    5.7929    0.5118    7.0820 H   0  0  0  0  0  0  0  0  0  0  0  0
    4.6164    0.2862    5.7834 H   0  0  0  0  0  0  0  0  0  0  0  0
    4.2913    1.4421    7.0847 H   0  0  0  0  0  0  0  0  0  0  0  0
    6.5165    3.0583    6.5994 C   0  0  0  0  0  0  0  0  0  0  0  0
    5.8300    3.4783    7.3325 H   0  0  0  0  0  0  0  0  0  0  0  0
    6.9781    3.8818    6.0587 H   0  0  0  0  0  0  0  0  0  0  0  0
    7.2958    2.5091    7.1251 H   0  0  0  0  0  0  0  0  0  0  0  0
    4.1012    5.4471    6.5818 C   0  0  0  0  0  2  0  0  0  0  0  0
  1  2  1  0  0  0  0
  2 58  1  0  0  0  0
  2  4  1  0  0  0  0
  2  3  1  0  0  0  0
  4 18  1  0  0  0  0
  5 48  1  0  0  0  0
  5  2  1  0  0  0  0
  6  4  1  0  0  0  0
  7 17  1  0  0  0  0
  7  5  1  0  0  0  0
  9 10  1  0  0  0  0
  9  2  1  0  0  0  0
 10 11  1  6  0  0  0
 10  6  1  0  0  0  0
 11 12  1  0  0  0  0
 13 11  2  0  0  0  0
 14 13  1  0  0  0  0
 15 13  1  0  0  0  0
 15 17  2  0  0  0  0
 16 15  1  0  0  0  0
 17  9  1  0  0  0  0
 18 24  1  0  0  0  0
 18 19  1  0  0  0  0
 18 20  1  0  0  0  0
 20 21  1  0  0  0  0
 22 20  1  0  0  0  0
 23 20  1  0  0  0  0
 24 27  1  0  0  0  0
 25 24  1  0  0  0  0
 26 24  1  0  0  0  0
 28 30  1  0  0  0  0
 28  4  1  0  0  0  0
 28 34  1  0  0  0  0
 29 28  1  0  0  0  0
 30 33  1  0  0  0  0
 31 30  1  0  0  0  0
 32 30  1  0  0  0  0
 34 35  1  0  0  0  0
 36 34  1  0  0  0  0
 37 34  1  0  0  0  0
 38 44  1  0  0  0  0
 38  5  1  0  0  0  0
 39 38  1  0  0  0  0
 40 42  1  0  0  0  0
 40 43  1  0  0  0  0
 40 38  1  0  0  0  0
 41 40  1  0  0  0  0
 44 45  1  0  0  0  0
 44 46  1  0  0  0  0
 47 44  1  0  0  0  0
 48 50  1  0  0  0  0
 48 54  1  0  0  0  0
 49 48  1  0  0  0  0
 50 51  1  0  0  0  0
 50 53  1  0  0  0  0
 52 50  1  0  0  0  0
 54 57  1  0  0  0  0
 54 55  1  0  0  0  0
 56 54  1  0  0  0  0
 58  8  1  0  0  0  0
M  END
$$$$
