CSD_code = VUFXAV | q = 0 | S = 0 | Stoichiometry = C12H25Cl2N2O4Rh | MND = 6
 OpenBabel04212202113D

 46 45  0  0  1  0  0  0  0  0999 V2000
    2.4732    0.9597    2.3389 Rh  0  0  0  0  0  0  0  0  0  0  0  0
    2.3859    0.9250    4.6468 Cl  0  0  0  0  0  0  0  0  0  0  0  0
    4.4850    2.8806    2.3389 O   0  0  0  0  0  1  0  0  0  0  0  0
    5.2744    0.5344    2.3388 O   0  0  0  0  0  0  0  0  0  0  0  0
    0.6858    2.2071    2.3393 O   0  0  0  0  0  0  0  0  0  0  0  0
    1.7378   -1.1696    2.3390 O   0  0  0  0  0  0  0  0  0  0  0  0
    3.2097    2.7407    2.3388 N   0  0  0  0  0  0  0  0  0  0  0  0
    4.0933   -0.0905    2.3388 N   0  0  0  0  0  0  0  0  0  0  0  0
    2.4389    3.7689    2.3389 C   0  0  2  0  0  3  0  0  0  0  0  0
    4.0906   -1.3721    2.3388 C   0  0  1  0  0  3  0  0  0  0  0  0
    0.9345    3.6197    2.3389 C   0  0  0  0  0  0  0  0  0  0  0  0
    2.7830   -2.1455    2.3388 C   0  0  0  0  0  0  0  0  0  0  0  0
    3.0830    5.1205    2.3388 C   0  0  0  0  0  0  0  0  0  0  0  0
    5.3792   -2.1340    2.3388 C   0  0  0  0  0  0  0  0  0  0  0  0
    0.3683    4.2513    3.6188 C   0  0  0  0  0  0  0  0  0  0  0  0
    2.7069   -2.9978    3.6150 C   0  0  0  0  0  0  0  0  0  0  0  0
   -0.6586    1.7632    2.3387 C   0  0  0  0  0  0  0  0  0  0  0  0
    0.3941   -1.6165    2.3388 C   0  0  0  0  0  0  0  0  0  0  0  0
    5.0773    1.5885    2.3385 H   0  0  0  0  0  0  0  0  0  0  0  0
    2.3572    5.9255    2.3388 H   0  0  0  0  0  0  0  0  0  0  0  0
    3.7280    5.2052    3.2137 H   0  0  0  0  0  0  0  0  0  0  0  0
    6.2084   -1.4324    2.3388 H   0  0  0  0  0  0  0  0  0  0  0  0
    5.4529   -2.7639    1.4553 H   0  0  0  0  0  0  0  0  0  0  0  0
   -0.7188    4.2371    3.6213 H   0  0  0  0  0  0  0  0  0  0  0  0
    0.6947    5.2819    3.7104 H   0  0  0  0  0  0  0  0  0  0  0  0
    0.7318    3.6902    4.4775 H   0  0  0  0  0  0  0  0  0  0  0  0
    3.5133   -3.7229    3.6402 H   0  0  0  0  0  0  0  0  0  0  0  0
    2.7786   -2.3460    4.4835 H   0  0  0  0  0  0  0  0  0  0  0  0
    1.7665   -3.5400    3.6637 H   0  0  0  0  0  0  0  0  0  0  0  0
   -1.3579    2.5972    2.3390 H   0  0  0  0  0  0  0  0  0  0  0  0
   -0.8338    1.1585    3.2332 H   0  0  0  0  0  0  0  0  0  0  0  0
    0.3210   -2.7027    2.3388 H   0  0  0  0  0  0  0  0  0  0  0  0
   -0.1051   -1.2329    1.4444 H   0  0  0  0  0  0  0  0  0  0  0  0
    2.3853    0.9251    0.0310 Cl  0  0  0  0  0  0  0  0  0  0  0  0
    0.3684    4.2508    1.0587 C   0  0  0  0  0  0  0  0  0  0  0  0
    2.7068   -2.9975    1.0624 C   0  0  0  0  0  0  0  0  0  0  0  0
    3.7280    5.2051    1.4639 H   0  0  0  0  0  0  0  0  0  0  0  0
    5.4529   -2.7639    3.2222 H   0  0  0  0  0  0  0  0  0  0  0  0
   -0.8334    1.1593    1.4436 H   0  0  0  0  0  0  0  0  0  0  0  0
   -0.1054   -1.2328    3.2330 H   0  0  0  0  0  0  0  0  0  0  0  0
   -0.7186    4.2367    1.0561 H   0  0  0  0  0  0  0  0  0  0  0  0
    0.6949    5.2814    0.9668 H   0  0  0  0  0  0  0  0  0  0  0  0
    0.7319    3.6894    0.2002 H   0  0  0  0  0  0  0  0  0  0  0  0
    3.5132   -3.7226    1.0371 H   0  0  0  0  0  0  0  0  0  0  0  0
    2.7783   -2.3456    0.1941 H   0  0  0  0  0  0  0  0  0  0  0  0
    1.7664   -3.5398    1.0137 H   0  0  0  0  0  0  0  0  0  0  0  0
  1  2  1  0  0  0  0
  7  1  1  0  0  0  0
  7  3  1  0  0  0  0
  8  4  1  0  0  0  0
  8  1  1  0  0  0  0
  9  7  1  6  0  0  0
  9 11  1  0  0  0  0
 10  8  1  6  0  0  0
 10 12  1  0  0  0  0
 11  5  1  0  0  0  0
 11 15  1  0  0  0  0
 12  6  1  0  0  0  0
 12 16  1  0  0  0  0
 13  9  1  0  0  0  0
 13 21  1  0  0  0  0
 14 22  1  0  0  0  0
 14 10  1  0  0  0  0
 14 38  1  0  0  0  0
 15 24  1  0  0  0  0
 15 25  1  0  0  0  0
 15 26  1  0  0  0  0
 16 27  1  0  0  0  0
 16 29  1  0  0  0  0
 16 28  1  0  0  0  0
 17 30  1  0  0  0  0
 17  5  1  0  0  0  0
 17 31  1  0  0  0  0
 18 32  1  0  0  0  0
 18  6  1  0  0  0  0
 18 40  1  0  0  0  0
 19  4  1  0  0  0  0
 20 13  1  0  0  0  0
 23 14  1  0  0  0  0
 33 18  1  0  0  0  0
 34  1  1  0  0  0  0
 35 11  1  0  0  0  0
 36 12  1  0  0  0  0
 37 13  1  0  0  0  0
 39 17  1  0  0  0  0
 41 35  1  0  0  0  0
 42 35  1  0  0  0  0
 43 35  1  0  0  0  0
 44 36  1  0  0  0  0
 45 36  1  0  0  0  0
 46 36  1  0  0  0  0
M  END
$$$$
