CSD_code = VUFXIE | q = 0 | S = 0 | Stoichiometry = C20H24AuCl3N2 | MND = 5
 OpenBabel04212202113D

 50 53  0  0  0  0  0  0  0  0999 V2000
    5.7821   -1.9140   11.1175 Au  0  0  0  0  0  0  0  0  0  0  0  0
   10.9740   -4.5126   12.9250 C   0  0  0  0  0  0  0  0  0  0  0  0
   11.9207   -4.0117   12.7283 H   0  0  0  0  0  0  0  0  0  0  0  0
   11.1647   -5.5794   13.0124 H   0  0  0  0  0  0  0  0  0  0  0  0
   10.5867   -4.1637   13.8788 H   0  0  0  0  0  0  0  0  0  0  0  0
    9.9816   -4.2493   11.7989 C   0  0  0  0  0  0  0  0  0  0  0  0
   10.3478   -4.7200   10.8839 H   0  0  0  0  0  0  0  0  0  0  0  0
    9.0186   -4.7010   12.0411 H   0  0  0  0  0  0  0  0  0  0  0  0
    9.7721   -2.7646   11.5117 C   0  0  0  0  0  0  0  0  0  0  0  0
    9.1215   -2.6662   10.6408 H   0  0  0  0  0  0  0  0  0  0  0  0
   10.7289   -2.2910   11.2744 H   0  0  0  0  0  0  0  0  0  0  0  0
    9.1166   -2.0274   12.6929 C   0  0  0  0  0  0  0  0  0  0  0  0
    8.2047   -2.5578   12.9666 H   0  0  0  0  0  0  0  0  0  0  0  0
    9.7966   -2.0100   13.5446 H   0  0  0  0  0  0  0  0  0  0  0  0
    8.7838   -0.6368   12.2815 C   0  0  0  0  0  0  0  0  0  0  0  0
    9.6968    0.4179   12.4873 C   0  0  0  0  0  0  0  0  0  0  0  0
   10.6297    0.2171   12.9909 H   0  0  0  0  0  0  0  0  0  0  0  0
    9.3852    1.6758   12.0499 C   0  0  0  0  0  0  0  0  0  0  0  0
   10.0636    2.5041   12.1972 H   0  0  0  0  0  0  0  0  0  0  0  0
    8.1596    1.8998   11.3934 C   0  0  0  0  0  0  0  0  0  0  0  0
    7.7730    3.1777   10.9095 C   0  0  0  0  0  0  0  0  0  0  0  0
    8.4483    4.0075   11.0568 H   0  0  0  0  0  0  0  0  0  0  0  0
    6.5867    3.3459   10.2783 C   0  0  0  0  0  0  0  0  0  0  0  0
    6.2848    4.3132    9.9060 H   0  0  0  0  0  0  0  0  0  0  0  0
    5.7014    2.2505   10.0848 C   0  0  0  0  0  0  0  0  0  0  0  0
    4.4671    2.3911    9.4305 C   0  0  0  0  0  0  0  0  0  0  0  0
    4.1722    3.3620    9.0601 H   0  0  0  0  0  0  0  0  0  0  0  0
    3.6530    1.3024    9.2683 C   0  0  0  0  0  0  0  0  0  0  0  0
    2.7048    1.3978    8.7677 H   0  0  0  0  0  0  0  0  0  0  0  0
    4.0510    0.0488    9.7575 C   0  0  0  0  0  0  0  0  0  0  0  0
    3.2060   -1.1731    9.6129 C   0  0  0  0  0  0  0  0  0  0  0  0
    3.8036   -1.9308    9.0937 H   0  0  0  0  0  0  0  0  0  0  0  0
    3.0086   -1.5599   10.6192 H   0  0  0  0  0  0  0  0  0  0  0  0
    1.8789   -1.0010    8.8788 C   0  0  0  0  0  0  0  0  0  0  0  0
    2.0591   -0.6356    7.8652 H   0  0  0  0  0  0  0  0  0  0  0  0
    1.2530   -0.2770    9.4054 H   0  0  0  0  0  0  0  0  0  0  0  0
    1.1328   -2.3324    8.7985 C   0  0  0  0  0  0  0  0  0  0  0  0
    1.7547   -3.0634    8.2779 H   0  0  0  0  0  0  0  0  0  0  0  0
    0.9548   -2.7075    9.8083 H   0  0  0  0  0  0  0  0  0  0  0  0
   -0.1970   -2.1866    8.0695 C   0  0  0  0  0  0  0  0  0  0  0  0
   -0.8409   -1.4774    8.5852 H   0  0  0  0  0  0  0  0  0  0  0  0
   -0.7109   -3.1431    8.0218 H   0  0  0  0  0  0  0  0  0  0  0  0
   -0.0398   -1.8315    7.0532 H   0  0  0  0  0  0  0  0  0  0  0  0
    6.0480    0.9641   10.5554 C   0  0  0  0  0  0  0  0  0  0  0  0
    7.3054    0.7876   11.2250 C   0  0  0  0  0  0  0  0  0  0  0  0
    6.6561   -2.3944    9.0530 Cl  0  0  0  0  0  0  0  0  0  0  0  0
    4.6158   -1.3889   13.0187 Cl  0  0  0  0  0  0  0  0  0  0  0  0
    6.2209   -3.9665   11.8665 Cl  0  0  0  0  0  0  0  0  0  0  0  0
    7.6364   -0.4309   11.6708 N   0  0  0  0  0  0  0  0  0  0  0  0
    5.2166   -0.0796   10.3761 N   0  0  0  0  0  0  0  0  0  0  0  0
  1 49  1  0  0  0  0
  1 48  1  0  0  0  0
  1 47  1  0  0  0  0
  2  4  1  0  0  0  0
  2  5  1  0  0  0  0
  3  2  1  0  0  0  0
  6  8  1  0  0  0  0
  6  2  1  0  0  0  0
  7  6  1  0  0  0  0
  9  6  1  0  0  0  0
  9 12  1  0  0  0  0
 10  9  1  0  0  0  0
 11  9  1  0  0  0  0
 12 13  1  0  0  0  0
 12 14  1  0  0  0  0
 15 16  2  0  0  0  0
 15 12  1  0  0  0  0
 16 17  1  0  0  0  0
 18 19  1  0  0  0  0
 18 16  1  0  0  0  0
 20 18  2  0  0  0  0
 21 22  1  0  0  0  0
 21 20  1  0  0  0  0
 23 21  2  0  0  0  0
 24 23  1  0  0  0  0
 25 23  1  0  0  0  0
 25 44  1  0  0  0  0
 26 25  2  0  0  0  0
 27 26  1  0  0  0  0
 28 26  1  0  0  0  0
 28 30  2  0  0  0  0
 29 28  1  0  0  0  0
 30 50  1  0  0  0  0
 31 30  1  0  0  0  0
 31 33  1  0  0  0  0
 32 31  1  0  0  0  0
 34 36  1  0  0  0  0
 34 31  1  0  0  0  0
 35 34  1  0  0  0  0
 37 34  1  0  0  0  0
 37 39  1  0  0  0  0
 38 37  1  0  0  0  0
 40 41  1  0  0  0  0
 40 37  1  0  0  0  0
 42 40  1  0  0  0  0
 43 40  1  0  0  0  0
 44 45  2  0  0  0  0
 45 20  1  0  0  0  0
 45 49  1  0  0  0  0
 46  1  1  0  0  0  0
 49 15  1  0  0  0  0
 50 44  1  0  0  0  0
 50  1  1  0  0  0  0
M  END
$$$$
