CSD_code = VUFYIG | q = 0 | S = 0 | Stoichiometry = C22H35Br5P2Pt | MND = 6
 OpenBabel04212202113D

 65 66  0  0  0  0  0  0  0  0999 V2000
    2.0668    9.9075    2.3222 Pt  0  0  0  0  0  0  0  0  0  0  0  0
   -0.2436   10.9058    1.6351 Br  0  0  0  0  0  0  0  0  0  0  0  0
    2.8340   12.2033    3.1041 Br  0  0  0  0  0  0  0  0  0  0  0  0
    1.2099    7.5946    1.7433 Br  0  0  0  0  0  0  0  0  0  0  0  0
    7.5564    6.7517    4.8719 Br  0  0  0  0  0  0  0  0  0  0  0  0
    6.9771   12.5112    0.4479 Br  0  0  0  0  0  0  0  0  0  0  0  0
    2.6170   10.1433   -0.0271 P   0  0  0  0  0  4  0  0  0  0  0  0
    1.1575    9.8930    4.5464 P   0  0  0  0  0  4  0  0  0  0  0  0
    3.8714    9.0283    2.9821 C   0  0  0  0  0  0  0  0  0  0  0  0
    3.7300    7.9339    3.7973 C   0  0  0  0  0  0  0  0  0  0  0  0
    2.7569    7.5348    4.0424 H   0  0  0  0  0  0  0  0  0  0  0  0
    4.8286    7.2627    4.3501 C   0  0  0  0  0  0  0  0  0  0  0  0
    4.6612    6.4037    4.9811 H   0  0  0  0  0  0  0  0  0  0  0  0
    6.0939    7.6985    4.0854 C   0  0  0  0  0  0  0  0  0  0  0  0
    7.6159    9.2921    2.9664 C   0  0  0  0  0  0  0  0  0  0  0  0
    8.4636    8.7798    3.3952 H   0  0  0  0  0  0  0  0  0  0  0  0
    7.8254   10.3716    2.1574 C   0  0  0  0  0  0  0  0  0  0  0  0
    8.8223   10.7192    1.9378 H   0  0  0  0  0  0  0  0  0  0  0  0
    6.7138   11.0244    1.6155 C   0  0  0  0  0  0  0  0  0  0  0  0
    5.4412   10.6060    1.8812 C   0  0  0  0  0  0  0  0  0  0  0  0
    4.6120   11.1525    1.4668 H   0  0  0  0  0  0  0  0  0  0  0  0
    6.3209    8.8190    3.2587 C   0  0  0  0  0  0  0  0  0  0  0  0
    5.1852    9.4910    2.7035 C   0  0  0  0  0  0  0  0  0  0  0  0
    1.2558    9.5545   -1.1273 C   0  0  0  0  0  0  0  0  0  0  0  0
    1.0410    8.5173   -0.8580 H   0  0  0  0  0  0  0  0  0  0  0  0
    0.3672   10.1400   -0.8799 H   0  0  0  0  0  0  0  0  0  0  0  0
    1.5188    9.6462   -2.6253 C   0  0  0  0  0  0  0  0  0  0  0  0
    1.7564   10.6607   -2.9359 H   0  0  0  0  0  0  0  0  0  0  0  0
    0.6150    9.3429   -3.1504 H   0  0  0  0  0  0  0  0  0  0  0  0
    2.3197    8.9818   -2.9408 H   0  0  0  0  0  0  0  0  0  0  0  0
    2.9751   11.8483   -0.6389 C   0  0  0  0  0  0  0  0  0  0  0  0
    3.8278   12.2526   -0.0877 H   0  0  0  0  0  0  0  0  0  0  0  0
    3.2904   11.7302   -1.6808 H   0  0  0  0  0  0  0  0  0  0  0  0
    1.8099   12.8240   -0.5396 C   0  0  0  0  0  0  0  0  0  0  0  0
    0.9265   12.4512   -1.0525 H   0  0  0  0  0  0  0  0  0  0  0  0
    2.0946   13.7726   -0.9899 H   0  0  0  0  0  0  0  0  0  0  0  0
    1.5486   13.0164    0.4976 H   0  0  0  0  0  0  0  0  0  0  0  0
    4.0848    9.2325   -0.6847 C   0  0  0  0  0  0  0  0  0  0  0  0
    4.0898    9.3984   -1.7653 H   0  0  0  0  0  0  0  0  0  0  0  0
    4.9899    9.6883   -0.2799 H   0  0  0  0  0  0  0  0  0  0  0  0
    4.0763    7.7414   -0.3783 C   0  0  0  0  0  0  0  0  0  0  0  0
    4.1186    7.5652    0.6951 H   0  0  0  0  0  0  0  0  0  0  0  0
    4.9433    7.2648   -0.8316 H   0  0  0  0  0  0  0  0  0  0  0  0
    3.1810    7.2611   -0.7667 H   0  0  0  0  0  0  0  0  0  0  0  0
    0.1663    8.4048    5.0044 C   0  0  0  0  0  0  0  0  0  0  0  0
    0.7276    7.5101    4.7246 H   0  0  0  0  0  0  0  0  0  0  0  0
    0.0550    8.4063    6.0911 H   0  0  0  0  0  0  0  0  0  0  0  0
   -1.2014    8.3688    4.3304 C   0  0  0  0  0  0  0  0  0  0  0  0
   -1.8486    9.1637    4.6917 H   0  0  0  0  0  0  0  0  0  0  0  0
   -1.6820    7.4157    4.5401 H   0  0  0  0  0  0  0  0  0  0  0  0
   -1.1144    8.4628    3.2510 H   0  0  0  0  0  0  0  0  0  0  0  0
    0.0184   11.2797    4.9644 C   0  0  0  0  0  0  0  0  0  0  0  0
    0.5423   12.2142    4.7454 H   0  0  0  0  0  0  0  0  0  0  0  0
   -0.8415   11.2233    4.2940 H   0  0  0  0  0  0  0  0  0  0  0  0
   -0.4541   11.2824    6.4134 C   0  0  0  0  0  0  0  0  0  0  0  0
   -1.0335   10.3937    6.6520 H   0  0  0  0  0  0  0  0  0  0  0  0
   -1.0957   12.1479    6.5671 H   0  0  0  0  0  0  0  0  0  0  0  0
    0.3758   11.3579    7.1123 H   0  0  0  0  0  0  0  0  0  0  0  0
    2.4942   10.0800    5.8238 C   0  0  0  0  0  0  0  0  0  0  0  0
    3.4576    9.9749    5.3188 H   0  0  0  0  0  0  0  0  0  0  0  0
    2.4331   11.1155    6.1714 H   0  0  0  0  0  0  0  0  0  0  0  0
    2.4521    9.1210    7.0059 C   0  0  0  0  0  0  0  0  0  0  0  0
    1.5486    9.2450    7.5982 H   0  0  0  0  0  0  0  0  0  0  0  0
    3.3045    9.3202    7.6530 H   0  0  0  0  0  0  0  0  0  0  0  0
    2.5170    8.0865    6.6768 H   0  0  0  0  0  0  0  0  0  0  0  0
  1  9  1  0  0  0  0
  1  3  1  0  0  0  0
  1  8  1  0  0  0  0
  2  1  1  0  0  0  0
  4  1  1  0  0  0  0
  6 19  1  0  0  0  0
  7  1  1  0  0  0  0
  8 52  1  0  0  0  0
  8 45  1  0  0  0  0
  8 59  1  0  0  0  0
  9 10  1  0  0  0  0
 10 11  1  0  0  0  0
 10 12  2  0  0  0  0
 12 13  1  0  0  0  0
 14 12  1  0  0  0  0
 14  5  1  0  0  0  0
 15 22  1  0  0  0  0
 15 16  1  0  0  0  0
 17 15  2  0  0  0  0
 18 17  1  0  0  0  0
 19 20  2  0  0  0  0
 19 17  1  0  0  0  0
 20 23  1  0  0  0  0
 21 20  1  0  0  0  0
 22 14  2  0  0  0  0
 23  9  2  0  0  0  0
 23 22  1  0  0  0  0
 24 26  1  0  0  0  0
 24 25  1  0  0  0  0
 24  7  1  0  0  0  0
 27 24  1  0  0  0  0
 28 27  1  0  0  0  0
 29 27  1  0  0  0  0
 30 27  1  0  0  0  0
 31 34  1  0  0  0  0
 31 32  1  0  0  0  0
 31  7  1  0  0  0  0
 33 31  1  0  0  0  0
 34 37  1  0  0  0  0
 35 34  1  0  0  0  0
 36 34  1  0  0  0  0
 38 41  1  0  0  0  0
 38 40  1  0  0  0  0
 38  7  1  0  0  0  0
 39 38  1  0  0  0  0
 41 42  1  0  0  0  0
 43 41  1  0  0  0  0
 44 41  1  0  0  0  0
 45 47  1  0  0  0  0
 46 45  1  0  0  0  0
 48 50  1  0  0  0  0
 48 49  1  0  0  0  0
 48 45  1  0  0  0  0
 51 48  1  0  0  0  0
 52 55  1  0  0  0  0
 53 52  1  0  0  0  0
 54 52  1  0  0  0  0
 55 57  1  0  0  0  0
 55 56  1  0  0  0  0
 55 58  1  0  0  0  0
 59 61  1  0  0  0  0
 59 62  1  0  0  0  0
 60 59  1  0  0  0  0
 62 63  1  0  0  0  0
 62 64  1  0  0  0  0
 65 62  1  0  0  0  0
M  END
$$$$
