CSD_code = VUGDEI | q = 0 | S = 0 | Stoichiometry = C18H31INPPd | MND = 4
 OpenBabel04212202113D

 53 55  0  0  0  0  0  0  0  0999 V2000
    2.8351    9.4406    2.5825 Pd  0  0  1  0  0  0  0  0  0  0  0  0
    3.6556   11.4703    4.0257 I   0  0  0  0  0  0  0  0  0  0  0  0
    1.9202    8.0600    4.0642 P   0  0  0  0  0  4  0  0  0  0  0  0
    3.4736   10.3592    0.6727 N   0  0  0  0  0  4  0  0  0  0  0  0
    0.8555    6.9137    3.0757 C   0  0  0  0  0  0  0  0  0  0  0  0
    0.8477    5.8996    3.4862 H   0  0  0  0  0  0  0  0  0  0  0  0
   -0.1732    7.2884    3.0948 H   0  0  0  0  0  0  0  0  0  0  0  0
   -0.2484    7.7140    5.9050 C   0  0  0  0  0  0  0  0  0  0  0  0
   -0.8563    7.2579    5.1279 H   0  0  0  0  0  0  0  0  0  0  0  0
   -0.9234    8.2084    6.6029 H   0  0  0  0  0  0  0  0  0  0  0  0
    0.2711    6.9272    6.4446 H   0  0  0  0  0  0  0  0  0  0  0  0
    1.3611    6.9716    1.6621 C   0  0  0  0  0  0  0  0  0  0  0  0
    2.8165    5.9875    5.8348 C   0  0  0  0  0  0  0  0  0  0  0  0
    2.5252    6.5110    6.7420 H   0  0  0  0  0  0  0  0  0  0  0  0
    3.6322    5.3110    6.0882 H   0  0  0  0  0  0  0  0  0  0  0  0
    1.9779    5.3851    5.4891 H   0  0  0  0  0  0  0  0  0  0  0  0
    2.2132    8.0201    1.3255 C   0  0  0  0  0  0  0  0  0  0  0  0
    0.9780    6.0490    0.6980 C   0  0  0  0  0  0  0  0  0  0  0  0
    0.3209    5.2324    0.9658 H   0  0  0  0  0  0  0  0  0  0  0  0
    4.6328   11.2418    0.5776 C   0  0  0  0  0  0  0  0  0  0  0  0
    4.5007   12.1106    1.2208 H   0  0  0  0  0  0  0  0  0  0  0  0
    4.7751   11.5915   -0.4542 H   0  0  0  0  0  0  0  0  0  0  0  0
    5.5310   10.7113    0.8998 H   0  0  0  0  0  0  0  0  0  0  0  0
    2.2685    7.2210   -0.9499 C   0  0  0  0  0  0  0  0  0  0  0  0
    2.6223    7.3217   -1.9669 H   0  0  0  0  0  0  0  0  0  0  0  0
    2.6640    8.1403    0.0120 C   0  0  0  0  0  0  0  0  0  0  0  0
    3.6188    9.2630   -0.2989 C   0  0  0  0  0  0  0  0  0  0  0  0
    4.6459    8.8787   -0.2275 H   0  0  0  0  0  0  0  0  0  0  0  0
    3.4759    9.6405   -1.3256 H   0  0  0  0  0  0  0  0  0  0  0  0
    1.4315    6.1748   -0.6039 C   0  0  0  0  0  0  0  0  0  0  0  0
    1.1296    5.4565   -1.3517 H   0  0  0  0  0  0  0  0  0  0  0  0
    0.7261    8.7522    5.3487 C   0  0  0  0  0  0  0  0  0  0  0  0
    3.2819    6.9623    4.7588 C   0  0  0  0  0  0  0  0  0  0  0  0
   -0.0353    9.8210    4.5529 C   0  0  0  0  0  0  0  0  0  0  0  0
    0.6668   10.5072    4.0639 H   0  0  0  0  0  0  0  0  0  0  0  0
   -0.6740   10.4058    5.2123 H   0  0  0  0  0  0  0  0  0  0  0  0
   -0.6640    9.3718    3.7831 H   0  0  0  0  0  0  0  0  0  0  0  0
    3.8603    6.1999    3.5623 C   0  0  0  0  0  0  0  0  0  0  0  0
    3.1582    5.4764    3.1536 H   0  0  0  0  0  0  0  0  0  0  0  0
    4.7594    5.6656    3.8671 H   0  0  0  0  0  0  0  0  0  0  0  0
    4.1361    6.9054    2.7679 H   0  0  0  0  0  0  0  0  0  0  0  0
    2.2576   11.1271    0.3834 C   0  0  0  0  0  0  0  0  0  0  0  0
    1.3827   10.4650    0.3802 H   0  0  0  0  0  0  0  0  0  0  0  0
    2.3275   11.6170   -0.5991 H   0  0  0  0  0  0  0  0  0  0  0  0
    2.1188   11.9012    1.1459 H   0  0  0  0  0  0  0  0  0  0  0  0
    1.4703    9.4145    6.5060 C   0  0  0  0  0  0  0  0  0  0  0  0
    1.9560    8.6756    7.1395 H   0  0  0  0  0  0  0  0  0  0  0  0
    0.7647    9.9698    7.1227 H   0  0  0  0  0  0  0  0  0  0  0  0
    2.2158   10.1164    6.1421 H   0  0  0  0  0  0  0  0  0  0  0  0
    4.3784    7.8907    5.2838 C   0  0  0  0  0  0  0  0  0  0  0  0
    4.7096    8.5541    4.4750 H   0  0  0  0  0  0  0  0  0  0  0  0
    5.2366    7.3095    5.6192 H   0  0  0  0  0  0  0  0  0  0  0  0
    4.0350    8.5029    6.1136 H   0  0  0  0  0  0  0  0  0  0  0  0
  1  2  1  1  0  0  0
  1  3  1  0  0  0  0
  3 33  1  0  0  0  0
  3 32  1  0  0  0  0
  4  1  1  0  0  0  0
  5  7  1  0  0  0  0
  5  6  1  0  0  0  0
  5  3  1  0  0  0  0
  8 11  1  0  0  0  0
  8 10  1  0  0  0  0
  9  8  1  0  0  0  0
 12  5  1  0  0  0  0
 13 15  1  0  0  0  0
 13 14  1  0  0  0  0
 16 13  1  0  0  0  0
 17 12  1  0  0  0  0
 17  1  1  0  0  0  0
 18 19  1  0  0  0  0
 18 12  2  0  0  0  0
 20  4  1  0  0  0  0
 20 23  1  0  0  0  0
 20 21  1  0  0  0  0
 22 20  1  0  0  0  0
 24 30  2  0  0  0  0
 24 26  1  0  0  0  0
 25 24  1  0  0  0  0
 26 17  2  0  0  0  0
 27 28  1  0  0  0  0
 27 26  1  0  0  0  0
 27  4  1  0  0  0  0
 29 27  1  0  0  0  0
 30 18  1  0  0  0  0
 31 30  1  0  0  0  0
 32  8  1  0  0  0  0
 32 46  1  0  0  0  0
 33 50  1  0  0  0  0
 33 13  1  0  0  0  0
 34 36  1  0  0  0  0
 34 32  1  0  0  0  0
 35 34  1  0  0  0  0
 37 34  1  0  0  0  0
 38 40  1  0  0  0  0
 38 33  1  0  0  0  0
 39 38  1  0  0  0  0
 41 38  1  0  0  0  0
 42  4  1  0  0  0  0
 42 45  1  0  0  0  0
 43 42  1  0  0  0  0
 44 42  1  0  0  0  0
 46 48  1  0  0  0  0
 46 47  1  0  0  0  0
 49 46  1  0  0  0  0
 50 52  1  0  0  0  0
 50 53  1  0  0  0  0
 51 50  1  0  0  0  0
M  END
$$$$
