CSD_code = VUGYAY | q = 0 | S = 0 | Stoichiometry = C17H15ClO2Zr | MND = 13
 OpenBabel04212202113D

 36 39  0  0  1  0  0  0  0  0999 V2000
    2.8199    2.6895    7.6060 Zr  0  0  0  0  0  0  0  0  0  0  0  0
    4.0366    2.6920    9.6772 Cl  0  0  0  0  0  0  0  0  0  0  0  0
    4.7618    2.6900    6.9019 O   0  0  0  0  0  0  0  0  0  0  0  0
    3.2067    2.6889    5.4038 O   0  0  0  0  0  0  0  0  0  0  0  0
    4.4368    2.6893    5.6727 C   0  0  1  0  0  3  0  0  0  0  0  0
    5.4708    2.6904    4.6212 C   0  0  0  0  0  0  0  0  0  0  0  0
    5.0990    2.6889    3.2785 C   0  0  0  0  0  0  0  0  0  0  0  0
    6.0736    2.6888    2.2990 C   0  0  0  0  0  0  0  0  0  0  0  0
    7.4142    2.6902    2.6542 C   0  0  0  0  0  0  0  0  0  0  0  0
    7.7857    2.6918    3.9904 C   0  0  0  0  0  0  0  0  0  0  0  0
    6.8182    2.6921    4.9769 C   0  0  0  0  0  0  0  0  0  0  0  0
    2.9167    0.2454    8.0809 C   0  0  2  0  0  0  0  0  0  0  0  0
    2.5708    0.3346    6.7152 C   0  0  0  0  0  0  0  0  0  0  0  0
    1.2853    0.9139    6.6250 C   0  0  0  0  0  0  0  0  0  0  0  0
    0.8289    1.1700    7.9371 C   0  0  0  0  0  0  0  0  0  0  0  0
    1.8347    0.7557    8.8379 C   0  0  0  0  0  0  0  0  0  0  0  0
    4.0484    2.6878    3.0294 H   0  0  0  0  0  0  0  0  0  0  0  0
    5.7915    2.6876    1.2569 H   0  0  0  0  0  0  0  0  0  0  0  0
    8.1732    2.6902    1.8859 H   0  0  0  0  0  0  0  0  0  0  0  0
    8.8309    2.6928    4.2604 H   0  0  0  0  0  0  0  0  0  0  0  0
    7.0797    2.6929    6.0247 H   0  0  0  0  0  0  0  0  0  0  0  0
    3.8078   -0.2216    8.4871 H   0  0  0  0  0  0  0  0  0  0  0  0
    3.1430   -0.0679    5.8862 H   0  0  0  0  0  0  0  0  0  0  0  0
    0.7100    1.0321    5.7154 H   0  0  0  0  0  0  0  0  0  0  0  0
   -0.1808    1.4516    8.2094 H   0  0  0  0  0  0  0  0  0  0  0  0
    1.7572    0.7335    9.9185 H   0  0  0  0  0  0  0  0  0  0  0  0
    2.9234    5.1349    8.0758 C   0  0  1  0  0  0  0  0  0  0  0  0
    2.5632    5.0428    6.7139 C   0  0  0  0  0  0  0  0  0  0  0  0
    1.2773    4.4623    6.6381 C   0  0  0  0  0  0  0  0  0  0  0  0
    0.8340    4.2106    7.9557 C   0  0  0  0  0  0  0  0  0  0  0  0
    1.8485    4.6279    8.8450 C   0  0  0  0  0  0  0  0  0  0  0  0
    3.8185    5.6031    8.4717 H   0  0  0  0  0  0  0  0  0  0  0  0
    3.1270    5.4429    5.8781 H   0  0  0  0  0  0  0  0  0  0  0  0
    0.6930    4.3415    5.7346 H   0  0  0  0  0  0  0  0  0  0  0  0
   -0.1729    3.9299    8.2395 H   0  0  0  0  0  0  0  0  0  0  0  0
    1.7814    4.6537    9.9262 H   0  0  0  0  0  0  0  0  0  0  0  0
  1 27  1  0  0  0  0
  1 12  1  0  0  0  0
  1  2  1  0  0  0  0
  3  1  1  0  0  0  0
  4  5  1  0  0  0  0
  4  1  1  0  0  0  0
  5  6  1  6  0  0  0
  5  3  1  0  0  0  0
  6 11  1  0  0  0  0
  7  6  2  0  0  0  0
  8  9  2  0  0  0  0
  8  7  1  0  0  0  0
  9 10  1  0  0  0  0
 10 20  1  0  0  0  0
 10 11  2  0  0  0  0
 11 21  1  0  0  0  0
 12 22  1  1  0  0  0
 12 16  1  0  0  0  0
 13 12  1  0  0  0  0
 14 13  2  0  0  0  0
 14 15  1  0  0  0  0
 15 25  1  0  0  0  0
 15 16  2  0  0  0  0
 16 26  1  0  0  0  0
 17  7  1  0  0  0  0
 18  8  1  0  0  0  0
 19  9  1  0  0  0  0
 23 13  1  0  0  0  0
 24 14  1  0  0  0  0
 27 32  1  1  0  0  0
 27 31  1  0  0  0  0
 28 27  1  0  0  0  0
 29 28  2  0  0  0  0
 29 30  1  0  0  0  0
 30 35  1  0  0  0  0
 30 31  2  0  0  0  0
 31 36  1  0  0  0  0
 33 28  1  0  0  0  0
 34 29  1  0  0  0  0
M  END
$$$$
