CSD_code = VUHBOQ | q = 0 | S = 0 | Stoichiometry = C26H33Cl2N3Pd | MND = 4
 OpenBabel04212202113D

 65 68  0  0  1  0  0  0  0  0999 V2000
    5.1670    0.4849   11.1700 Pd  0  0  0  0  0  0  0  0  0  0  0  0
    5.0980    0.8393   13.3757 Cl  0  0  0  0  0  0  0  0  0  0  0  0
    5.6755    2.6629   10.8272 Cl  0  0  0  0  0  0  0  0  0  0  0  0
    5.2591    0.0824    9.2121 N   0  0  0  0  0  0  0  0  0  0  0  0
    5.6905   -2.2938   10.7363 N   0  0  0  0  0  0  0  0  0  0  0  0
    4.0873   -2.2720   12.1665 N   0  0  0  0  0  0  0  0  0  0  0  0
    4.8902   -1.4753   11.4482 C   0  0  0  0  0  0  0  0  0  0  0  0
    5.8972   -0.9387    8.7586 C   0  0  1  0  0  3  0  0  0  0  0  0
    6.6472   -1.7752    9.7846 C   0  0  0  0  0  0  0  0  0  0  0  0
    7.1714   -2.6107    9.3197 H   0  0  0  0  0  0  0  0  0  0  0  0
    7.3662   -1.1287   10.3229 H   0  0  0  0  0  0  0  0  0  0  0  0
    5.3905   -3.6020   11.0030 C   0  0  0  0  0  0  0  0  0  0  0  0
    5.9065   -4.4211   10.5457 H   0  0  0  0  0  0  0  0  0  0  0  0
    4.3865   -3.5848   11.9124 C   0  0  0  0  0  0  0  0  0  0  0  0
    3.8771   -4.3986   12.3840 H   0  0  0  0  0  0  0  0  0  0  0  0
    3.0609   -1.8003   13.0795 C   0  0  0  0  0  0  0  0  0  0  0  0
    3.0318   -0.7099   12.9527 H   0  0  0  0  0  0  0  0  0  0  0  0
    1.7098   -2.4085   12.7144 C   0  0  0  0  0  0  0  0  0  0  0  0
    1.4956   -2.2581   11.6583 H   0  0  0  0  0  0  0  0  0  0  0  0
    0.9284   -1.9297   13.2970 H   0  0  0  0  0  0  0  0  0  0  0  0
    1.6864   -3.4752   12.9267 H   0  0  0  0  0  0  0  0  0  0  0  0
    3.4677   -2.1054   14.5169 C   0  0  0  0  0  0  0  0  0  0  0  0
    3.6154   -3.1729   14.6679 H   0  0  0  0  0  0  0  0  0  0  0  0
    2.6955   -1.7586   15.1965 H   0  0  0  0  0  0  0  0  0  0  0  0
    4.3877   -1.5739   14.7457 H   0  0  0  0  0  0  0  0  0  0  0  0
    5.8769   -1.4074    7.3684 C   0  0  0  0  0  0  0  0  0  0  0  0
    7.0296   -1.9334    6.7800 C   0  0  0  0  0  0  0  0  0  0  0  0
    7.9562   -1.9591    7.3343 H   0  0  0  0  0  0  0  0  0  0  0  0
    7.0105   -2.3747    5.4712 C   0  0  0  0  0  0  0  0  0  0  0  0
    7.9130   -2.7653    5.0256 H   0  0  0  0  0  0  0  0  0  0  0  0
    5.8417   -2.3114    4.7299 C   0  0  0  0  0  0  0  0  0  0  0  0
    5.8293   -2.6564    3.7073 H   0  0  0  0  0  0  0  0  0  0  0  0
    4.6908   -1.7988    5.3062 C   0  0  0  0  0  0  0  0  0  0  0  0
    3.7760   -1.7479    4.7352 H   0  0  0  0  0  0  0  0  0  0  0  0
    4.7055   -1.3464    6.6113 C   0  0  0  0  0  0  0  0  0  0  0  0
    3.8023   -0.9573    7.0540 H   0  0  0  0  0  0  0  0  0  0  0  0
    4.6101    1.0274    8.3979 C   0  0  0  0  0  0  0  0  0  0  0  0
    3.2251    1.2182    8.5425 C   0  0  0  0  0  0  0  0  0  0  0  0
    2.3971    0.3645    9.4839 C   0  0  0  0  0  0  0  0  0  0  0  0
    2.9935   -0.5047    9.8043 H   0  0  0  0  0  0  0  0  0  0  0  0
    1.1335   -0.1772    8.8093 C   0  0  0  0  0  0  0  0  0  0  0  0
    0.4313    0.6208    8.5865 H   0  0  0  0  0  0  0  0  0  0  0  0
    0.6353   -0.8843    9.4696 H   0  0  0  0  0  0  0  0  0  0  0  0
    1.3761   -0.6890    7.8797 H   0  0  0  0  0  0  0  0  0  0  0  0
    2.0332    1.1893   10.7277 C   0  0  0  0  0  0  0  0  0  0  0  0
    2.9467    1.5172   11.2550 H   0  0  0  0  0  0  0  0  0  0  0  0
    1.4210    0.5998   11.4083 H   0  0  0  0  0  0  0  0  0  0  0  0
    1.4755    2.0769   10.4385 H   0  0  0  0  0  0  0  0  0  0  0  0
    2.6084    2.2200    7.8104 C   0  0  0  0  0  0  0  0  0  0  0  0
    1.5485    2.3861    7.9211 H   0  0  0  0  0  0  0  0  0  0  0  0
    3.3327    3.0179    6.9459 C   0  0  0  0  0  0  0  0  0  0  0  0
    2.8387    3.7980    6.3866 H   0  0  0  0  0  0  0  0  0  0  0  0
    4.6911    2.8213    6.8112 C   0  0  0  0  0  0  0  0  0  0  0  0
    5.2529    3.4574    6.1456 H   0  0  0  0  0  0  0  0  0  0  0  0
    5.3577    1.8328    7.5219 C   0  0  0  0  0  0  0  0  0  0  0  0
    6.8572    1.7208    7.3709 C   0  0  0  0  0  0  0  0  0  0  0  0
    7.2282    0.8895    7.9785 H   0  0  0  0  0  0  0  0  0  0  0  0
    7.5344    2.9942    7.8843 C   0  0  0  0  0  0  0  0  0  0  0  0
    7.2513    3.8560    7.2859 H   0  0  0  0  0  0  0  0  0  0  0  0
    8.6160    2.8837    7.8425 H   0  0  0  0  0  0  0  0  0  0  0  0
    7.2355    3.1777    8.9135 H   0  0  0  0  0  0  0  0  0  0  0  0
    7.2435    1.4513    5.9135 C   0  0  0  0  0  0  0  0  0  0  0  0
    7.0280    2.3159    5.2914 H   0  0  0  0  0  0  0  0  0  0  0  0
    6.6977    0.5990    5.5143 H   0  0  0  0  0  0  0  0  0  0  0  0
    8.3090    1.2430    5.8448 H   0  0  0  0  0  0  0  0  0  0  0  0
  1  7  2  0  0  0  0
  1  2  1  0  0  0  0
  3  1  1  0  0  0  0
  4  1  1  0  0  0  0
  5 12  1  0  0  0  0
  5  7  1  0  0  0  0
  6 16  1  0  0  0  0
  7  6  1  0  0  0  0
  8 26  1  1  0  0  0
  8  4  1  0  0  0  0
  8  9  1  0  0  0  0
  9 11  1  0  0  0  0
  9  5  1  0  0  0  0
 10  9  1  0  0  0  0
 12 14  2  0  0  0  0
 13 12  1  0  0  0  0
 14  6  1  0  0  0  0
 14 15  1  0  0  0  0
 16 22  1  0  0  0  0
 17 16  1  0  0  0  0
 18 21  1  0  0  0  0
 18 16  1  0  0  0  0
 18 20  1  0  0  0  0
 19 18  1  0  0  0  0
 22 23  1  0  0  0  0
 22 25  1  0  0  0  0
 22 24  1  0  0  0  0
 27 28  1  0  0  0  0
 27 26  1  0  0  0  0
 29 27  2  0  0  0  0
 30 29  1  0  0  0  0
 31 33  2  0  0  0  0
 31 29  1  0  0  0  0
 32 31  1  0  0  0  0
 33 35  1  0  0  0  0
 34 33  1  0  0  0  0
 35 36  1  0  0  0  0
 35 26  2  0  0  0  0
 37 38  1  0  0  0  0
 37  4  1  0  0  0  0
 38 39  1  0  0  0  0
 39 40  1  0  0  0  0
 39 45  1  0  0  0  0
 41 43  1  0  0  0  0
 41 39  1  0  0  0  0
 42 41  1  0  0  0  0
 44 41  1  0  0  0  0
 45 46  1  0  0  0  0
 45 47  1  0  0  0  0
 48 45  1  0  0  0  0
 49 50  1  0  0  0  0
 49 38  2  0  0  0  0
 51 49  1  0  0  0  0
 52 51  1  0  0  0  0
 53 51  2  0  0  0  0
 53 55  1  0  0  0  0
 54 53  1  0  0  0  0
 55 37  2  0  0  0  0
 56 55  1  0  0  0  0
 56 58  1  0  0  0  0
 56 57  1  0  0  0  0
 58 61  1  0  0  0  0
 59 58  1  0  0  0  0
 60 58  1  0  0  0  0
 62 56  1  0  0  0  0
 63 62  1  0  0  0  0
 64 62  1  0  0  0  0
 65 62  1  0  0  0  0
M  END
$$$$
