CSD_code = VUHCEH | q = 0 | S = 0 | Stoichiometry = C25H34Cl2N4OPd | MND = 4
 OpenBabel04212202113D

 67 69  0  0  0  0  0  0  0  0999 V2000
    4.0828    4.1569    9.2202 Pd  0  0  0  0  0  0  0  0  0  0  0  0
    3.0414    2.4726   10.3479 Cl  0  0  0  0  0  0  0  0  0  0  0  0
    5.1923    5.8011    8.0628 Cl  0  0  0  0  0  0  0  0  0  0  0  0
    2.4772    8.7376   11.5688 O   0  0  0  0  0  0  0  0  0  0  0  0
    3.8721    5.7438   11.7085 N   0  0  0  0  0  0  0  0  0  0  0  0
    5.7003    4.6101   11.6561 N   0  0  0  0  0  0  0  0  0  0  0  0
    3.6937    7.9591    9.8165 N   0  0  0  0  0  0  0  0  0  0  0  0
    3.5008    3.3270    7.5014 N   0  0  0  0  0  0  0  0  0  0  0  0
    4.6008    4.9094   10.9525 C   0  0  0  0  0  0  0  0  0  0  0  0
    4.5192    5.9812   12.8916 C   0  0  0  0  0  0  0  0  0  0  0  0
    4.1197    6.6319   13.6417 H   0  0  0  0  0  0  0  0  0  0  0  0
    5.6681    5.2635   12.8599 C   0  0  0  0  0  0  0  0  0  0  0  0
    6.4419    5.1725   13.5932 H   0  0  0  0  0  0  0  0  0  0  0  0
    6.7156    3.6873   11.1781 C   0  0  0  0  0  0  0  0  0  0  0  0
    6.4031    3.4119   10.1462 H   0  0  0  0  0  0  0  0  0  0  0  0
    6.7195    2.4318   12.0455 C   0  0  0  0  0  0  0  0  0  0  0  0
    6.9951    2.6703   13.0704 H   0  0  0  0  0  0  0  0  0  0  0  0
    7.4310    1.7107   11.6535 H   0  0  0  0  0  0  0  0  0  0  0  0
    5.7284    1.9825   12.0406 H   0  0  0  0  0  0  0  0  0  0  0  0
    8.0742    4.3782   11.1236 C   0  0  0  0  0  0  0  0  0  0  0  0
    8.0130    5.2681   10.5010 H   0  0  0  0  0  0  0  0  0  0  0  0
    8.8127    3.7068   10.6950 H   0  0  0  0  0  0  0  0  0  0  0  0
    8.4053    4.6637   12.1196 H   0  0  0  0  0  0  0  0  0  0  0  0
    2.6422    6.3518   11.2694 C   0  0  0  0  0  0  0  0  0  0  0  0
    1.8998    6.3247   12.0705 H   0  0  0  0  0  0  0  0  0  0  0  0
    2.2747    5.7840   10.3930 H   0  0  0  0  0  0  0  0  0  0  0  0
    2.9147    7.8287   10.8954 C   0  0  0  0  0  0  0  0  0  0  0  0
    4.2200    9.2173    9.3988 C   0  0  0  0  0  0  0  0  0  0  0  0
    5.5176    9.5590    9.7875 C   0  0  0  0  0  0  0  0  0  0  0  0
    6.3187    8.6262   10.6673 C   0  0  0  0  0  0  0  0  0  0  0  0
    5.9209    7.6132   10.5490 H   0  0  0  0  0  0  0  0  0  0  0  0
    6.1409    9.0535   12.1275 C   0  0  0  0  0  0  0  0  0  0  0  0
    6.5654   10.0431   12.2818 H   0  0  0  0  0  0  0  0  0  0  0  0
    6.6381    8.3528   12.7958 H   0  0  0  0  0  0  0  0  0  0  0  0
    5.0850    9.0957   12.3845 H   0  0  0  0  0  0  0  0  0  0  0  0
    7.7983    8.5750   10.2905 C   0  0  0  0  0  0  0  0  0  0  0  0
    7.9078    8.3255    9.2379 H   0  0  0  0  0  0  0  0  0  0  0  0
    8.3020    7.8130   10.8827 H   0  0  0  0  0  0  0  0  0  0  0  0
    8.2934    9.5235   10.4799 H   0  0  0  0  0  0  0  0  0  0  0  0
    6.0149   10.7942    9.3996 C   0  0  0  0  0  0  0  0  0  0  0  0
    7.0075   11.0936    9.6971 H   0  0  0  0  0  0  0  0  0  0  0  0
    5.2466   11.6584    8.6419 C   0  0  0  0  0  0  0  0  0  0  0  0
    5.6452   12.6205    8.3546 H   0  0  0  0  0  0  0  0  0  0  0  0
    3.9714   11.2980    8.2545 C   0  0  0  0  0  0  0  0  0  0  0  0
    3.3822   11.9840    7.6658 H   0  0  0  0  0  0  0  0  0  0  0  0
    3.4387   10.0683    8.6194 C   0  0  0  0  0  0  0  0  0  0  0  0
    2.0395    9.6779    8.2084 C   0  0  0  0  0  0  0  0  0  0  0  0
    1.9012    8.6138    8.4252 H   0  0  0  0  0  0  0  0  0  0  0  0
    1.8105    9.8816    6.7103 C   0  0  0  0  0  0  0  0  0  0  0  0
    1.8272   10.9358    6.4471 H   0  0  0  0  0  0  0  0  0  0  0  0
    0.8403    9.4792    6.4257 H   0  0  0  0  0  0  0  0  0  0  0  0
    2.5807    9.3698    6.1371 H   0  0  0  0  0  0  0  0  0  0  0  0
    1.0241   10.4677    9.0376 C   0  0  0  0  0  0  0  0  0  0  0  0
    1.1880   10.2818   10.0963 H   0  0  0  0  0  0  0  0  0  0  0  0
    0.0100   10.1678    8.7814 H   0  0  0  0  0  0  0  0  0  0  0  0
    1.1280   11.5345    8.8533 H   0  0  0  0  0  0  0  0  0  0  0  0
    2.4644    3.8231    6.8306 C   0  0  0  0  0  3  0  0  0  0  0  0
    2.0295    4.7426    7.2212 H   0  0  0  0  0  0  0  0  0  0  0  0
    1.9640    3.2159    5.6919 C   0  0  0  0  0  0  0  0  0  0  0  0
    1.1196    3.6454    5.1767 H   0  0  0  0  0  0  0  0  0  0  0  0
    2.5655    2.0528    5.2356 C   0  0  0  0  0  0  0  0  0  0  0  0
    2.2001    1.5540    4.3508 H   0  0  0  0  0  0  0  0  0  0  0  0
    3.6458    1.5424    5.9390 C   0  0  0  0  0  0  0  0  0  0  0  0
    4.1406    0.6381    5.6215 H   0  0  0  0  0  0  0  0  0  0  0  0
    4.0811    2.2100    7.0708 C   0  0  0  0  0  0  0  0  0  0  0  0
    4.9175    1.8407    7.6631 H   0  0  0  0  0  0  0  0  0  0  0  0
    4.0510    7.1431    9.3062 H   0  0  0  0  0  0  0  0  0  0  0  0
  1  2  1  0  0  0  0
  1  9  2  0  0  0  0
  3  1  1  0  0  0  0
  5 10  1  0  0  0  0
  6 12  1  0  0  0  0
  7 27  1  0  0  0  0
  8  1  1  0  0  0  0
  9  6  1  0  0  0  0
  9  5  1  0  0  0  0
 10 11  1  0  0  0  0
 12 10  2  0  0  0  0
 12 13  1  0  0  0  0
 14  6  1  0  0  0  0
 14 16  1  0  0  0  0
 15 14  1  0  0  0  0
 16 17  1  0  0  0  0
 18 16  1  0  0  0  0
 19 16  1  0  0  0  0
 20 14  1  0  0  0  0
 20 23  1  0  0  0  0
 21 20  1  0  0  0  0
 22 20  1  0  0  0  0
 24  5  1  0  0  0  0
 24 25  1  0  0  0  0
 26 24  1  0  0  0  0
 27 24  1  0  0  0  0
 27  4  2  0  0  0  0
 28 29  1  0  0  0  0
 28  7  1  0  0  0  0
 29 30  1  0  0  0  0
 30 32  1  0  0  0  0
 31 30  1  0  0  0  0
 32 33  1  0  0  0  0
 32 35  1  0  0  0  0
 32 34  1  0  0  0  0
 36 39  1  0  0  0  0
 36 30  1  0  0  0  0
 36 38  1  0  0  0  0
 37 36  1  0  0  0  0
 40 41  1  0  0  0  0
 40 29  2  0  0  0  0
 42 40  1  0  0  0  0
 43 42  1  0  0  0  0
 44 46  1  0  0  0  0
 44 42  2  0  0  0  0
 45 44  1  0  0  0  0
 46 28  2  0  0  0  0
 47 48  1  0  0  0  0
 47 46  1  0  0  0  0
 47 53  1  0  0  0  0
 49 47  1  0  0  0  0
 50 49  1  0  0  0  0
 51 49  1  0  0  0  0
 52 49  1  0  0  0  0
 53 54  1  0  0  0  0
 55 53  1  0  0  0  0
 56 53  1  0  0  0  0
 57 58  1  0  0  0  0
 57  8  1  0  0  0  0
 59 57  1  0  0  0  0
 60 59  1  0  0  0  0
 61 59  2  0  0  0  0
 61 63  1  0  0  0  0
 62 61  1  0  0  0  0
 63 65  2  0  0  0  0
 64 63  1  0  0  0  0
 65  8  1  0  0  0  0
 65 66  1  0  0  0  0
 67  7  1  0  0  0  0
M  END
$$$$
