CSD_code = VUJJIV | q = 0 | S = 0 | Stoichiometry = C36H24Cl2N2O2Zn | MND = 4
 OpenBabel04212202113D

 67 74  0  0  0  0  0  0  0  0999 V2000
    6.1465    2.3192    8.5709 C   0  0  0  0  0  0  0  0  0  0  0  0
    5.1976    1.4164    9.2202 C   0  0  0  0  0  0  0  0  0  0  0  0
    4.0214    0.8051    8.8502 C   0  0  0  0  0  0  0  0  0  0  0  0
    3.5548    0.9971    7.8967 H   0  0  0  0  0  0  0  0  0  0  0  0
    3.4240   -0.1064    9.7383 C   0  0  0  0  0  0  0  0  0  0  0  0
    2.4964   -0.5722    9.4401 H   0  0  0  0  0  0  0  0  0  0  0  0
    3.9755   -0.4282   10.9543 C   0  0  0  0  0  0  0  0  0  0  0  0
    3.4849   -1.1353   11.6067 H   0  0  0  0  0  0  0  0  0  0  0  0
    5.2033    0.1459   11.3509 C   0  0  0  0  0  0  0  0  0  0  0  0
    5.7747    1.0658   10.4643 C   0  0  0  0  0  0  0  0  0  0  0  0
    5.9369   -0.1332   12.5248 C   0  0  0  0  0  0  0  0  0  0  0  0
    5.5357   -0.8269   13.2489 H   0  0  0  0  0  0  0  0  0  0  0  0
    7.1612    0.4543   12.7301 C   0  0  0  0  0  0  0  0  0  0  0  0
    7.7200    0.2113   13.6219 H   0  0  0  0  0  0  0  0  0  0  0  0
    7.7309    1.3603   11.8188 C   0  0  0  0  0  0  0  0  0  0  0  0
    8.7087    1.7694   12.0196 H   0  0  0  0  0  0  0  0  0  0  0  0
    7.0261    1.6895   10.6837 C   0  0  0  0  0  0  0  0  0  0  0  0
    7.2964    2.4910    9.4916 C   0  0  0  0  0  0  0  0  0  0  0  0
    5.1611    2.9578    6.5029 C   0  0  0  0  0  0  0  0  0  0  0  0
    5.4707    2.8655    5.1427 C   0  0  0  0  0  0  0  0  0  0  0  0
    6.4941    2.6734    4.8509 H   0  0  0  0  0  0  0  0  0  0  0  0
    4.4883    2.9881    4.1870 C   0  0  0  0  0  0  0  0  0  0  0  0
    4.7414    2.9104    3.1405 H   0  0  0  0  0  0  0  0  0  0  0  0
    3.1709    3.2496    4.5679 C   0  0  0  0  0  0  0  0  0  0  0  0
    2.8696    3.4164    5.9216 C   0  0  0  0  0  0  0  0  0  0  0  0
    1.8594    3.6746    6.1985 H   0  0  0  0  0  0  0  0  0  0  0  0
    3.8462    3.2610    6.8783 C   0  0  0  0  0  0  0  0  0  0  0  0
    3.6147    3.4274    7.9200 H   0  0  0  0  0  0  0  0  0  0  0  0
    2.1943    2.8944    2.4285 C   0  0  0  0  0  0  0  0  0  0  0  0
    1.6747    3.6547    1.3873 C   0  0  0  0  0  0  0  0  0  0  0  0
    1.3189    4.6514    1.5959 H   0  0  0  0  0  0  0  0  0  0  0  0
    1.6223    3.1258    0.1111 C   0  0  0  0  0  0  0  0  0  0  0  0
    1.2225    3.7205   -0.6962 H   0  0  0  0  0  0  0  0  0  0  0  0
    2.0853    1.8436   -0.1332 C   0  0  0  0  0  0  0  0  0  0  0  0
    2.0488    1.4350   -1.1315 H   0  0  0  0  0  0  0  0  0  0  0  0
    2.5906    1.0844    0.9086 C   0  0  0  0  0  0  0  0  0  0  0  0
    2.9422    0.0799    0.7271 H   0  0  0  0  0  0  0  0  0  0  0  0
    2.6442    1.6006    2.1905 C   0  0  0  0  0  0  0  0  0  0  0  0
    3.0237    1.0028    3.0067 H   0  0  0  0  0  0  0  0  0  0  0  0
    9.3704    3.5838    9.8810 C   0  0  0  0  0  0  0  0  0  0  0  0
   10.6415    3.6195    9.2970 C   0  0  0  0  0  0  0  0  0  0  0  0
   10.7605    3.2702    8.2809 H   0  0  0  0  0  0  0  0  0  0  0  0
   11.7277    4.0542   10.0182 C   0  0  0  0  0  0  0  0  0  0  0  0
   12.7137    4.0679    9.5822 H   0  0  0  0  0  0  0  0  0  0  0  0
   11.5693    4.5065   11.3309 C   0  0  0  0  0  0  0  0  0  0  0  0
   10.2938    4.5379   11.8952 C   0  0  0  0  0  0  0  0  0  0  0  0
   10.1532    4.9484   12.8845 H   0  0  0  0  0  0  0  0  0  0  0  0
    9.2106    4.0706   11.1835 C   0  0  0  0  0  0  0  0  0  0  0  0
    8.2191    4.1386   11.6069 H   0  0  0  0  0  0  0  0  0  0  0  0
   12.7713    4.9899   13.3253 C   0  0  0  0  0  0  0  0  0  0  0  0
   13.4485    6.0556   13.9083 C   0  0  0  0  0  0  0  0  0  0  0  0
   13.8171    6.8467   13.2746 H   0  0  0  0  0  0  0  0  0  0  0  0
   13.6407    6.0818   15.2766 C   0  0  0  0  0  0  0  0  0  0  0  0
   14.1655    6.9115   15.7254 H   0  0  0  0  0  0  0  0  0  0  0  0
   13.1611    5.0522   16.0695 C   0  0  0  0  0  0  0  0  0  0  0  0
   13.3106    5.0760   17.1381 H   0  0  0  0  0  0  0  0  0  0  0  0
   12.4968    3.9872   15.4855 C   0  0  0  0  0  0  0  0  0  0  0  0
   12.1331    3.1747   16.0969 H   0  0  0  0  0  0  0  0  0  0  0  0
   12.3011    3.9476   14.1169 C   0  0  0  0  0  0  0  0  0  0  0  0
   11.8021    3.1063   13.6579 H   0  0  0  0  0  0  0  0  0  0  0  0
    9.0561    1.4559    6.2959 Cl  0  0  0  0  0  0  0  0  0  0  0  0
    8.4924    5.4448    6.2359 Cl  0  0  0  0  0  0  0  0  0  0  0  0
    6.1883    2.8735    7.4143 N   0  0  0  0  0  0  0  0  0  0  0  0
    8.3025    3.1895    9.1090 N   0  0  0  0  0  0  0  0  0  0  0  0
    2.1529    3.4426    3.6909 O   0  0  0  0  0  0  0  0  0  0  0  0
   12.6786    4.9806   11.9545 O   0  0  0  0  0  0  0  0  0  0  0  0
    8.2197    3.4079    6.9748 Zn  0  0  0  0  0  0  0  0  0  0  0  0
  1  2  1  0  0  0  0
  1 18  2  0  0  0  0
  2 10  2  0  0  0  0
  3  2  1  0  0  0  0
  3  5  2  0  0  0  0
  4  3  1  0  0  0  0
  5  7  1  0  0  0  0
  6  5  1  0  0  0  0
  7  9  2  0  0  0  0
  7  8  1  0  0  0  0
  9 11  1  0  0  0  0
 10 17  1  0  0  0  0
 10  9  1  0  0  0  0
 11 13  2  0  0  0  0
 11 12  1  0  0  0  0
 13 14  1  0  0  0  0
 15 16  1  0  0  0  0
 15 13  1  0  0  0  0
 17 15  2  0  0  0  0
 18 17  1  0  0  0  0
 19 27  1  0  0  0  0
 19 63  1  0  0  0  0
 20 19  2  0  0  0  0
 21 20  1  0  0  0  0
 22 24  2  0  0  0  0
 22 20  1  0  0  0  0
 23 22  1  0  0  0  0
 24 25  1  0  0  0  0
 25 26  1  0  0  0  0
 25 27  2  0  0  0  0
 27 28  1  0  0  0  0
 29 65  1  0  0  0  0
 30 31  1  0  0  0  0
 30 29  2  0  0  0  0
 32 30  1  0  0  0  0
 33 32  1  0  0  0  0
 34 32  2  0  0  0  0
 34 36  1  0  0  0  0
 35 34  1  0  0  0  0
 36 38  2  0  0  0  0
 37 36  1  0  0  0  0
 38 29  1  0  0  0  0
 38 39  1  0  0  0  0
 40 48  1  0  0  0  0
 41 40  2  0  0  0  0
 41 43  1  0  0  0  0
 42 41  1  0  0  0  0
 43 45  2  0  0  0  0
 44 43  1  0  0  0  0
 45 46  1  0  0  0  0
 45 66  1  0  0  0  0
 46 47  1  0  0  0  0
 48 49  1  0  0  0  0
 48 46  2  0  0  0  0
 50 51  2  0  0  0  0
 50 59  1  0  0  0  0
 51 53  1  0  0  0  0
 52 51  1  0  0  0  0
 53 54  1  0  0  0  0
 53 55  2  0  0  0  0
 55 56  1  0  0  0  0
 57 55  1  0  0  0  0
 57 58  1  0  0  0  0
 59 57  2  0  0  0  0
 60 59  1  0  0  0  0
 61 67  1  0  0  0  0
 62 67  1  0  0  0  0
 63  1  1  0  0  0  0
 64 18  1  0  0  0  0
 64 40  1  0  0  0  0
 65 24  1  0  0  0  0
 66 50  1  0  0  0  0
 67 63  1  0  0  0  0
 67 64  1  0  0  0  0
M  END
$$$$
