CSD_code = VUJKES | q = 0 | S = 0 | Stoichiometry = C24H14Br2Cl2N2Zn | MND = 4
 OpenBabel04212202113D

 45 50  0  0  0  0  0  0  0  0999 V2000
    3.9251    2.6412    8.8537 C   0  0  0  0  0  0  0  0  0  0  0  0
    3.3082    1.6734    9.7571 C   0  0  0  0  0  0  0  0  0  0  0  0
    3.5789    1.2130   11.0254 C   0  0  0  0  0  0  0  0  0  0  0  0
    4.3896    1.6114   11.6154 H   0  0  0  0  0  0  0  0  0  0  0  0
    2.7774    0.1869   11.5557 C   0  0  0  0  0  0  0  0  0  0  0  0
    2.9937   -0.1616   12.5545 H   0  0  0  0  0  0  0  0  0  0  0  0
    1.7445   -0.3860   10.8538 C   0  0  0  0  0  0  0  0  0  0  0  0
    1.1544   -1.1736   11.2980 H   0  0  0  0  0  0  0  0  0  0  0  0
    1.4566    0.0382    9.5376 C   0  0  0  0  0  0  0  0  0  0  0  0
    2.2531    1.0712    9.0305 C   0  0  0  0  0  0  0  0  0  0  0  0
    0.4740   -0.4805    8.6655 C   0  0  0  0  0  0  0  0  0  0  0  0
   -0.1746   -1.2726    9.0087 H   0  0  0  0  0  0  0  0  0  0  0  0
    0.3567    0.0069    7.3863 C   0  0  0  0  0  0  0  0  0  0  0  0
   -0.3887   -0.4135    6.7278 H   0  0  0  0  0  0  0  0  0  0  0  0
    1.1753    1.0351    6.8872 C   0  0  0  0  0  0  0  0  0  0  0  0
    1.0509    1.3639    5.8672 H   0  0  0  0  0  0  0  0  0  0  0  0
    2.1233    1.5868    7.7185 C   0  0  0  0  0  0  0  0  0  0  0  0
    3.1753    2.5888    7.5679 C   0  0  0  0  0  0  0  0  0  0  0  0
    5.6604    3.6760   10.1009 C   0  0  0  0  0  0  0  0  0  0  0  0
    7.0563    3.6853   10.0331 C   0  0  0  0  0  0  0  0  0  0  0  0
    7.5413    3.4081    9.1088 H   0  0  0  0  0  0  0  0  0  0  0  0
    7.8029    4.0184   11.1434 C   0  0  0  0  0  0  0  0  0  0  0  0
    8.8808    4.0091   11.0983 H   0  0  0  0  0  0  0  0  0  0  0  0
    7.1558    4.3823   12.3157 C   0  0  0  0  0  0  0  0  0  0  0  0
    5.7714    4.4195   12.3882 C   0  0  0  0  0  0  0  0  0  0  0  0
    5.2837    4.7330   13.2985 H   0  0  0  0  0  0  0  0  0  0  0  0
    5.0243    4.0560   11.2867 C   0  0  0  0  0  0  0  0  0  0  0  0
    3.9464    4.1139   11.3191 H   0  0  0  0  0  0  0  0  0  0  0  0
    2.9068    3.4937    5.3887 C   0  0  0  0  0  0  0  0  0  0  0  0
    3.6571    3.4814    4.2095 C   0  0  0  0  0  0  0  0  0  0  0  0
    4.7128    3.2589    4.2584 H   0  0  0  0  0  0  0  0  0  0  0  0
    3.0481    3.7236    2.9965 C   0  0  0  0  0  0  0  0  0  0  0  0
    3.6224    3.6976    2.0835 H   0  0  0  0  0  0  0  0  0  0  0  0
    1.6925    4.0178    2.9611 C   0  0  0  0  0  0  0  0  0  0  0  0
    0.9414    4.0764    4.1254 C   0  0  0  0  0  0  0  0  0  0  0  0
   -0.1054    4.3356    4.0837 H   0  0  0  0  0  0  0  0  0  0  0  0
    1.5443    3.8043    5.3362 C   0  0  0  0  0  0  0  0  0  0  0  0
    0.9789    3.8815    6.2530 H   0  0  0  0  0  0  0  0  0  0  0  0
    8.1792    4.8506   13.8446 Br  0  0  0  0  0  0  0  0  0  0  0  0
    0.8508    4.3596    1.2942 Br  0  0  0  0  0  0  0  0  0  0  0  0
    4.9480    6.4514    7.2534 Cl  0  0  0  0  0  0  0  0  0  0  0  0
    7.0214    3.0946    6.1638 Cl  0  0  0  0  0  0  0  0  0  0  0  0
    4.9457    3.4048    8.9514 N   0  0  0  0  0  0  0  0  0  0  0  0
    3.5636    3.3144    6.5893 N   0  0  0  0  0  0  0  0  0  0  0  0
    5.4177    4.3293    7.0539 Zn  0  0  0  0  0  0  0  0  0  0  0  0
  1 43  1  0  0  0  0
  1  2  1  0  0  0  0
  2  3  1  0  0  0  0
  3  5  2  0  0  0  0
  3  4  1  0  0  0  0
  5  6  1  0  0  0  0
  7  8  1  0  0  0  0
  7  5  1  0  0  0  0
  9  7  2  0  0  0  0
 10  9  1  0  0  0  0
 10  2  2  0  0  0  0
 11 12  1  0  0  0  0
 11  9  1  0  0  0  0
 13 11  2  0  0  0  0
 14 13  1  0  0  0  0
 15 13  1  0  0  0  0
 15 17  2  0  0  0  0
 16 15  1  0  0  0  0
 17 10  1  0  0  0  0
 18 17  1  0  0  0  0
 18  1  2  0  0  0  0
 19 27  1  0  0  0  0
 20 19  2  0  0  0  0
 20 22  1  0  0  0  0
 21 20  1  0  0  0  0
 22 24  2  0  0  0  0
 23 22  1  0  0  0  0
 24 25  1  0  0  0  0
 24 39  1  0  0  0  0
 25 26  1  0  0  0  0
 27 28  1  0  0  0  0
 27 25  2  0  0  0  0
 29 44  1  0  0  0  0
 30 31  1  0  0  0  0
 30 29  2  0  0  0  0
 32 30  1  0  0  0  0
 33 32  1  0  0  0  0
 34 32  2  0  0  0  0
 34 35  1  0  0  0  0
 35 37  2  0  0  0  0
 36 35  1  0  0  0  0
 37 29  1  0  0  0  0
 37 38  1  0  0  0  0
 40 34  1  0  0  0  0
 42 45  1  0  0  0  0
 43 19  1  0  0  0  0
 44 45  1  0  0  0  0
 44 18  1  0  0  0  0
 45 41  1  0  0  0  0
 45 43  1  0  0  0  0
M  END
$$$$
