CSD_code = VUJMOE | q = 0 | S = 0 | Stoichiometry = C28H26BrN4O3Re | MND = 6
 OpenBabel04212202113D

 63 68  0  0  1  0  0  0  0  0999 V2000
    6.4489    8.1370    1.8017 Re  0  0  0  0  0  0  0  0  0  0  0  0
    5.6786    9.3352    3.8971 Br  0  0  0  0  0  0  0  0  0  0  0  0
    3.9432    6.3317    1.8202 O   0  0  0  0  0  1  0  0  0  0  0  0
    4.9422   10.0374   -0.1235 O   0  0  0  0  0  1  0  0  0  0  0  0
    8.4858    9.1824    2.1766 N   0  0  0  0  0  0  0  0  0  0  0  0
    7.8160    6.6516   -0.5319 O   0  0  0  0  0  1  0  0  0  0  0  0
    4.8651    7.0109    1.7674 C   0  0  0  0  0  2  0  0  0  0  0  0
    7.5965    6.8409    3.2878 N   0  0  2  0  0  4  0  0  0  0  0  0
    7.8255   11.3729    1.4436 C   0  0  0  0  0  0  0  0  0  0  0  0
    6.7920   11.0616    1.4624 H   0  0  0  0  0  0  0  0  0  0  0  0
    7.2947    7.2064    0.3286 C   0  0  0  0  0  2  0  0  0  0  0  0
    5.5249    9.3497    0.5886 C   0  0  0  0  0  2  0  0  0  0  0  0
    9.7894    6.6102    4.2935 N   0  0  0  0  0  0  0  0  0  0  0  0
    9.5314    5.2109    4.5951 C   0  0  0  0  0  0  0  0  0  0  0  0
   10.0163    4.9719    5.5417 H   0  0  0  0  0  0  0  0  0  0  0  0
   10.0271    4.6329    3.8060 H   0  0  0  0  0  0  0  0  0  0  0  0
   10.4087    6.4336    7.4347 N   0  0  0  0  0  0  0  0  0  0  0  0
    9.0504    6.9980    3.1139 C   0  0  2  0  0  0  0  0  0  0  0  0
    9.3528    6.3018    2.3102 H   0  0  0  0  0  0  0  0  0  0  0  0
   10.4778   12.2189    1.4739 C   0  0  0  0  0  3  0  0  0  0  0  0
   11.5107   12.5347    1.4972 H   0  0  0  0  0  0  0  0  0  0  0  0
    7.2907    5.4153    3.4629 C   0  0  0  0  0  0  0  0  0  0  0  0
    7.5594    4.9000    2.5339 H   0  0  0  0  0  0  0  0  0  0  0  0
    6.2126    5.3016    3.6106 H   0  0  0  0  0  0  0  0  0  0  0  0
    8.8217   10.4546    1.8247 C   0  0  0  0  0  0  0  0  0  0  0  0
    8.1512   12.6530    1.0889 C   0  0  0  0  0  0  0  0  0  0  0  0
    7.3720   13.3450    0.8090 H   0  0  0  0  0  0  0  0  0  0  0  0
    9.4230    8.3874    2.6485 C   0  0  0  0  0  0  0  0  0  0  0  0
    8.0433    4.7866    4.6534 C   0  0  0  0  0  0  0  0  0  0  0  0
    7.9827    3.2620    4.5257 C   0  0  0  0  0  0  0  0  0  0  0  0
    6.9488    2.9247    4.5005 H   0  0  0  0  0  0  0  0  0  0  0  0
    8.4771    2.7972    5.3753 H   0  0  0  0  0  0  0  0  0  0  0  0
    8.4726    2.9227    3.6151 H   0  0  0  0  0  0  0  0  0  0  0  0
    9.6714    7.5207    5.4333 C   0  0  0  0  0  0  0  0  0  0  0  0
    8.7058    7.4591    5.9487 H   0  0  0  0  0  0  0  0  0  0  0  0
    9.8074    8.5424    5.0684 H   0  0  0  0  0  0  0  0  0  0  0  0
   10.1726   10.8993    1.8602 C   0  0  0  0  0  0  0  0  0  0  0  0
   10.7829    8.7454    2.6979 C   0  0  0  0  0  0  0  0  0  0  0  0
   11.4869    8.0116    3.0561 H   0  0  0  0  0  0  0  0  0  0  0  0
   10.7486    7.2049    6.4357 C   0  0  0  0  0  0  0  0  0  0  0  0
   11.1611    9.9896    2.2853 C   0  0  0  0  0  0  0  0  0  0  0  0
   12.1980   10.2928    2.2896 H   0  0  0  0  0  0  0  0  0  0  0  0
   11.3330    6.0992    8.3566 C   0  0  0  0  0  0  0  0  0  0  0  0
    7.3701    5.1888    5.9723 C   0  0  0  0  0  0  0  0  0  0  0  0
    6.5091    4.5486    6.1558 H   0  0  0  0  0  0  0  0  0  0  0  0
    7.0050    6.2140    5.9628 H   0  0  0  0  0  0  0  0  0  0  0  0
    8.0619    5.0856    6.8048 H   0  0  0  0  0  0  0  0  0  0  0  0
    9.4870   13.0790    1.0908 C   0  0  0  0  0  0  0  0  0  0  0  0
    9.7250   14.0907    0.7993 H   0  0  0  0  0  0  0  0  0  0  0  0
   10.9500    5.2721    9.4322 C   0  0  0  0  0  0  0  0  0  0  0  0
    9.9249    4.9391    9.4788 H   0  0  0  0  0  0  0  0  0  0  0  0
   12.6772    6.5545    8.2748 C   0  0  0  0  0  0  0  0  0  0  0  0
   12.0561    7.7064    6.2651 C   0  0  0  0  0  0  0  0  0  0  0  0
   12.2780    8.3426    5.4221 H   0  0  0  0  0  0  0  0  0  0  0  0
   13.0152    7.3806    7.1826 C   0  0  0  0  0  0  0  0  0  0  0  0
   14.0286    7.7466    7.0888 H   0  0  0  0  0  0  0  0  0  0  0  0
   13.5933    6.1690    9.2724 C   0  0  0  0  0  0  0  0  0  0  0  0
   14.6137    6.5195    9.2059 H   0  0  0  0  0  0  0  0  0  0  0  0
   11.8645    4.9171   10.3841 C   0  0  0  0  0  0  0  0  0  0  0  0
   11.5712    4.2857   11.2097 H   0  0  0  0  0  0  0  0  0  0  0  0
   13.1926    5.3670   10.3047 C   0  0  0  0  0  0  0  0  0  0  0  0
   13.8961    5.0735   11.0696 H   0  0  0  0  0  0  0  0  0  0  0  0
    7.3569    7.3095    4.1721 H   0  0  0  0  0  0  0  0  0  0  0  0
  1  5  1  0  0  0  0
  1  8  1  0  0  0  0
  1  2  1  0  0  0  0
  4 12  1  0  0  0  0
  5 28  1  0  0  0  0
  6 11  1  0  0  0  0
  7  1  1  0  0  0  0
  7  3  1  0  0  0  0
  8 22  1  0  0  0  0
  8 63  1  1  0  0  0
  9 10  1  0  0  0  0
  9 25  2  0  0  0  0
 11  1  1  0  0  0  0
 12  1  1  0  0  0  0
 13 14  1  0  0  0  0
 13 34  1  0  0  0  0
 14 29  1  0  0  0  0
 14 15  1  0  0  0  0
 16 14  1  0  0  0  0
 17 43  1  0  0  0  0
 18 19  1  6  0  0  0
 18  8  1  0  0  0  0
 18 13  1  0  0  0  0
 20 21  1  0  0  0  0
 20 37  1  0  0  0  0
 22 24  1  0  0  0  0
 22 29  1  0  0  0  0
 23 22  1  0  0  0  0
 25 37  1  0  0  0  0
 25  5  1  0  0  0  0
 26 48  2  0  0  0  0
 26  9  1  0  0  0  0
 27 26  1  0  0  0  0
 28 38  2  0  0  0  0
 28 18  1  0  0  0  0
 29 44  1  0  0  0  0
 30 29  1  0  0  0  0
 30 32  1  0  0  0  0
 31 30  1  0  0  0  0
 33 30  1  0  0  0  0
 34 35  1  0  0  0  0
 34 40  1  0  0  0  0
 36 34  1  0  0  0  0
 37 41  2  0  0  0  0
 38 39  1  0  0  0  0
 40 17  2  0  0  0  0
 41 42  1  0  0  0  0
 41 38  1  0  0  0  0
 43 50  1  0  0  0  0
 44 45  1  0  0  0  0
 44 47  1  0  0  0  0
 46 44  1  0  0  0  0
 48 20  1  0  0  0  0
 49 48  1  0  0  0  0
 50 51  1  0  0  0  0
 50 59  2  0  0  0  0
 52 43  2  0  0  0  0
 52 57  1  0  0  0  0
 53 40  1  0  0  0  0
 53 55  2  0  0  0  0
 54 53  1  0  0  0  0
 55 52  1  0  0  0  0
 56 55  1  0  0  0  0
 57 61  2  0  0  0  0
 58 57  1  0  0  0  0
 59 60  1  0  0  0  0
 61 59  1  0  0  0  0
 61 62  1  0  0  0  0
M  END
$$$$
