CSD_code = VUJNAR | q = 0 | S = 0 | Stoichiometry = C21H25ClCuN5S | MND = 4
 OpenBabel04212202113D

 54 58  0  0  1  0  0  0  0  0999 V2000
    9.0586    3.3672    3.4146 Cu  0  0  0  0  0  0  0  0  0  0  0  0
    8.8521    5.0721    2.0427 Cl  0  0  0  0  0  0  0  0  0  0  0  0
    7.4726    3.3201    4.7983 N   0  0  0  0  0  0  0  0  0  0  0  0
    7.3810    4.5141    5.3233 C   0  0  2  0  0  3  0  0  0  0  0  0
    6.1099    4.8224    5.7119 N   0  0  0  0  0  0  0  0  0  0  0  0
    3.9807    3.4568    5.5581 C   0  0  0  0  0  0  0  0  0  0  0  0
    3.2992    4.1709    5.9961 H   0  0  0  0  0  0  0  0  0  0  0  0
    3.5343    2.2248    5.1228 C   0  0  0  0  0  0  0  0  0  0  0  0
    2.4884    1.9776    5.2265 H   0  0  0  0  0  0  0  0  0  0  0  0
    4.3984    1.2912    4.5476 C   0  0  0  0  0  0  0  0  0  0  0  0
    3.9981    0.3438    4.2194 H   0  0  0  0  0  0  0  0  0  0  0  0
    5.7427    1.5542    4.3871 C   0  0  0  0  0  0  0  0  0  0  0  0
    6.4179    0.8443    3.9373 H   0  0  0  0  0  0  0  0  0  0  0  0
    6.2091    2.7885    4.8199 C   0  0  0  0  0  0  0  0  0  0  0  0
    5.3305    3.7301    5.4009 C   0  0  0  0  0  0  0  0  0  0  0  0
    5.6635    6.0770    6.2474 C   0  0  0  0  0  0  0  0  0  0  0  0
    5.9141    6.8925    5.5658 H   0  0  0  0  0  0  0  0  0  0  0  0
    6.1268    6.2727    7.2181 H   0  0  0  0  0  0  0  0  0  0  0  0
    4.5839    6.0437    6.3750 H   0  0  0  0  0  0  0  0  0  0  0  0
   10.2485    2.1996    4.4589 N   0  0  0  0  0  0  0  0  0  0  0  0
   10.6473    2.6215    5.6344 C   0  0  2  0  0  3  0  0  0  0  0  0
   11.5019    1.7468    6.2305 N   0  0  0  0  0  0  0  0  0  0  0  0
   12.4633   -0.4408    5.3873 C   0  0  0  0  0  0  0  0  0  0  0  0
   13.0905   -0.6789    6.2331 H   0  0  0  0  0  0  0  0  0  0  0  0
   12.4045   -1.2773    4.2906 C   0  0  0  0  0  0  0  0  0  0  0  0
   12.9934   -2.1823    4.2868 H   0  0  0  0  0  0  0  0  0  0  0  0
   11.6081   -0.9828    3.1819 C   0  0  0  0  0  0  0  0  0  0  0  0
   11.6011   -1.6685    2.3482 H   0  0  0  0  0  0  0  0  0  0  0  0
   10.8390    0.1606    3.1299 C   0  0  0  0  0  0  0  0  0  0  0  0
   10.2243    0.4048    2.2783 H   0  0  0  0  0  0  0  0  0  0  0  0
   10.8852    1.0116    4.2264 C   0  0  0  0  0  0  0  0  0  0  0  0
   11.6931    0.7115    5.3442 C   0  0  0  0  0  0  0  0  0  0  0  0
   12.1871    1.9322    7.4777 C   0  0  0  0  0  0  0  0  0  0  0  0
   11.4849    2.2191    8.2619 H   0  0  0  0  0  0  0  0  0  0  0  0
   12.9566    2.7026    7.3787 H   0  0  0  0  0  0  0  0  0  0  0  0
   12.6647    0.9968    7.7606 H   0  0  0  0  0  0  0  0  0  0  0  0
    8.5078    5.4809    5.4222 C   0  0  0  0  0  0  0  0  0  0  0  0
    8.3891    6.1819    4.5855 H   0  0  0  0  0  0  0  0  0  0  0  0
    8.4343    6.0547    6.3676 H   0  0  0  0  0  0  0  0  0  0  0  0
   10.1743    3.8955    6.2714 C   0  0  0  0  0  0  0  0  0  0  0  0
    9.2886    3.6566    6.8729 H   0  0  0  0  0  0  0  0  0  0  0  0
   10.9466    4.2760    6.9530 H   0  0  0  0  0  0  0  0  0  0  0  0
    9.8046    4.8613    5.2573 N   0  0  0  0  0  0  0  0  0  0  0  0
   10.7823    5.8766    4.8730 C   0  0  0  0  0  0  0  0  0  0  0  0
   10.6058    6.8052    5.4483 H   0  0  0  0  0  0  0  0  0  0  0  0
   10.5855    6.0942    3.8169 H   0  0  0  0  0  0  0  0  0  0  0  0
   12.2619    5.5720    5.0607 C   0  0  0  0  0  0  0  0  0  0  0  0
   12.5363    5.5123    6.1145 H   0  0  0  0  0  0  0  0  0  0  0  0
   12.8227    6.3962    4.6152 H   0  0  0  0  0  0  0  0  0  0  0  0
   12.9170    4.0323    4.3374 S   0  0  0  0  0  0  0  0  0  0  0  0
   12.3727    4.1890    2.6233 C   0  0  0  0  0  0  0  0  0  0  0  0
   12.7388    5.1266    2.2148 H   0  0  0  0  0  0  0  0  0  0  0  0
   11.2842    4.1369    2.5809 H   0  0  0  0  0  0  0  0  0  0  0  0
   12.8054    3.3500    2.0876 H   0  0  0  0  0  0  0  0  0  0  0  0
  1 20  1  0  0  0  0
  1  3  1  0  0  0  0
  2  1  1  0  0  0  0
  3 14  1  0  0  0  0
  4  3  1  6  0  0  0
  4 37  1  0  0  0  0
  4  5  1  0  0  0  0
  5 16  1  0  0  0  0
  6  7  1  0  0  0  0
  8  9  1  0  0  0  0
  8  6  2  0  0  0  0
 10  8  1  0  0  0  0
 11 10  1  0  0  0  0
 12 10  2  0  0  0  0
 12 14  1  0  0  0  0
 13 12  1  0  0  0  0
 14 15  2  0  0  0  0
 15  6  1  0  0  0  0
 15  5  1  0  0  0  0
 16 19  1  0  0  0  0
 16 18  1  0  0  0  0
 17 16  1  0  0  0  0
 21 20  1  1  0  0  0
 21 22  1  0  0  0  0
 21 40  1  0  0  0  0
 22 33  1  0  0  0  0
 23 24  1  0  0  0  0
 25 23  2  0  0  0  0
 26 25  1  0  0  0  0
 27 25  1  0  0  0  0
 28 27  1  0  0  0  0
 29 27  2  0  0  0  0
 29 31  1  0  0  0  0
 30 29  1  0  0  0  0
 31 20  1  0  0  0  0
 31 32  2  0  0  0  0
 32 23  1  0  0  0  0
 32 22  1  0  0  0  0
 33 36  1  0  0  0  0
 33 34  1  0  0  0  0
 35 33  1  0  0  0  0
 37 39  1  0  0  0  0
 38 37  1  0  0  0  0
 40 41  1  0  0  0  0
 40 42  1  0  0  0  0
 43 37  1  0  0  0  0
 43 40  1  0  0  0  0
 44 47  1  0  0  0  0
 44 43  1  0  0  0  0
 44 45  1  0  0  0  0
 46 44  1  0  0  0  0
 47 48  1  0  0  0  0
 49 47  1  0  0  0  0
 50 47  1  0  0  0  0
 51 50  1  0  0  0  0
 52 51  1  0  0  0  0
 53 51  1  0  0  0  0
 54 51  1  0  0  0  0
M  END
$$$$
