CSD_code = VUJRIB | q = 1 | S = 0 | Stoichiometry = C12H32IMoOP4(1+) | MND = 6
 OpenBabel04212202113D

 51 52  0  0  0  0  0  0  0  0999 V2000
    8.4653    4.2971    3.2749 I   0  0  0  0  0  0  0  0  0  0  0  0
    9.1641    1.9749    4.5716 Mo  0  0  0  0  0  0  0  0  0  0  0  0
    9.4531    1.0710    2.3518 P   0  0  0  0  0  4  0  0  0  0  0  0
   11.3133    3.0437    4.7889 P   0  0  0  0  0  4  0  0  0  0  0  0
    6.9046    1.1944    4.2094 P   0  0  0  0  0  4  0  0  0  0  0  0
    8.7859    3.1600    6.6467 P   0  0  0  0  0  4  0  0  0  0  0  0
    9.5595    0.5922    5.3365 O   0  0  0  0  0  1  0  0  0  0  0  0
   10.2093    1.8686    0.9009 C   0  0  0  0  0  0  0  0  0  0  0  0
   10.3399   -0.5143    2.4353 C   0  0  0  0  0  0  0  0  0  0  0  0
    7.8056    0.5912    1.6729 C   0  0  0  0  0  0  0  0  0  0  0  0
    6.9496    0.0123    2.7914 C   0  0  0  0  0  0  0  0  0  0  0  0
    5.4765    2.2447    3.7934 C   0  0  0  0  0  0  0  0  0  0  0  0
    6.2449    0.1363    5.5328 C   0  0  0  0  0  0  0  0  0  0  0  0
   12.2939    3.8565    3.4882 C   0  0  0  0  0  0  0  0  0  0  0  0
   12.5141    1.8894    5.5187 C   0  0  0  0  0  0  0  0  0  0  0  0
   11.2052    4.3841    6.0515 C   0  0  0  0  0  0  0  0  0  0  0  0
   10.3806    3.8940    7.2347 C   0  0  0  0  0  0  0  0  0  0  0  0
    7.6145    4.5381    6.8652 C   0  0  0  0  0  0  0  0  0  0  0  0
    8.3701    2.0693    8.0405 C   0  0  0  0  0  0  0  0  0  0  0  0
   11.2713    2.0326    1.0846 H   0  0  0  0  0  0  0  0  0  0  0  0
   10.0909    1.2164    0.0344 H   0  0  0  0  0  0  0  0  0  0  0  0
    9.7289    2.8272    0.7027 H   0  0  0  0  0  0  0  0  0  0  0  0
    9.9539   -1.1015    3.2705 H   0  0  0  0  0  0  0  0  0  0  0  0
   10.2356   -1.0667    1.4997 H   0  0  0  0  0  0  0  0  0  0  0  0
   11.3955   -0.3088    2.6206 H   0  0  0  0  0  0  0  0  0  0  0  0
    7.3423    1.4989    1.2636 H   0  0  0  0  0  0  0  0  0  0  0  0
    7.9390   -0.1242    0.8540 H   0  0  0  0  0  0  0  0  0  0  0  0
    7.3965   -0.9175    3.1659 H   0  0  0  0  0  0  0  0  0  0  0  0
    5.9308   -0.2012    2.4507 H   0  0  0  0  0  0  0  0  0  0  0  0
    5.3385    2.9989    4.5692 H   0  0  0  0  0  0  0  0  0  0  0  0
    5.6422    2.7571    2.8454 H   0  0  0  0  0  0  0  0  0  0  0  0
    4.5826    1.6238    3.7260 H   0  0  0  0  0  0  0  0  0  0  0  0
    5.8685    0.7618    6.3427 H   0  0  0  0  0  0  0  0  0  0  0  0
    5.4318   -0.4823    5.1485 H   0  0  0  0  0  0  0  0  0  0  0  0
    7.0502   -0.4959    5.9104 H   0  0  0  0  0  0  0  0  0  0  0  0
   13.1625    4.3374    3.9406 H   0  0  0  0  0  0  0  0  0  0  0  0
   12.6328    3.1088    2.7701 H   0  0  0  0  0  0  0  0  0  0  0  0
   11.6921    4.6059    2.9726 H   0  0  0  0  0  0  0  0  0  0  0  0
   12.0409    1.3388    6.3337 H   0  0  0  0  0  0  0  0  0  0  0  0
   12.8109    1.1724    4.7515 H   0  0  0  0  0  0  0  0  0  0  0  0
   13.3956    2.4230    5.8788 H   0  0  0  0  0  0  0  0  0  0  0  0
   12.2145    4.6779    6.3603 H   0  0  0  0  0  0  0  0  0  0  0  0
   10.7269    5.2505    5.5761 H   0  0  0  0  0  0  0  0  0  0  0  0
   10.1764    4.7031    7.9436 H   0  0  0  0  0  0  0  0  0  0  0  0
   10.9219    3.0985    7.7615 H   0  0  0  0  0  0  0  0  0  0  0  0
    7.6020    4.8368    7.9140 H   0  0  0  0  0  0  0  0  0  0  0  0
    7.9037    5.3865    6.2444 H   0  0  0  0  0  0  0  0  0  0  0  0
    6.6156    4.2147    6.5680 H   0  0  0  0  0  0  0  0  0  0  0  0
    7.3143    1.8035    7.9920 H   0  0  0  0  0  0  0  0  0  0  0  0
    8.9691    1.1601    7.9657 H   0  0  0  0  0  0  0  0  0  0  0  0
    8.5723    2.5760    8.9860 H   0  0  0  0  0  0  0  0  0  0  0  0
  1  2  1  0  0  0  0
  2  4  1  0  0  0  0
  2  7  1  0  0  0  0
  2  6  1  0  0  0  0
  3  9  1  0  0  0  0
  3  2  1  0  0  0  0
  4 15  1  0  0  0  0
  4 16  1  0  0  0  0
  5  2  1  0  0  0  0
  5 13  1  0  0  0  0
  6 18  1  0  0  0  0
  6 17  1  0  0  0  0
  6 19  1  0  0  0  0
  8 20  1  0  0  0  0
  8  3  1  0  0  0  0
  9 25  1  0  0  0  0
  9 23  1  0  0  0  0
 10  3  1  0  0  0  0
 10 11  1  0  0  0  0
 11 28  1  0  0  0  0
 11  5  1  0  0  0  0
 12  5  1  0  0  0  0
 12 30  1  0  0  0  0
 13 35  1  0  0  0  0
 13 33  1  0  0  0  0
 14 36  1  0  0  0  0
 14  4  1  0  0  0  0
 15 41  1  0  0  0  0
 15 39  1  0  0  0  0
 16 42  1  0  0  0  0
 16 17  1  0  0  0  0
 17 45  1  0  0  0  0
 17 44  1  0  0  0  0
 18 46  1  0  0  0  0
 19 51  1  0  0  0  0
 21  8  1  0  0  0  0
 22  8  1  0  0  0  0
 24  9  1  0  0  0  0
 26 10  1  0  0  0  0
 27 10  1  0  0  0  0
 29 11  1  0  0  0  0
 31 12  1  0  0  0  0
 32 12  1  0  0  0  0
 34 13  1  0  0  0  0
 37 14  1  0  0  0  0
 38 14  1  0  0  0  0
 40 15  1  0  0  0  0
 43 16  1  0  0  0  0
 47 18  1  0  0  0  0
 48 18  1  0  0  0  0
 49 19  1  0  0  0  0
 50 19  1  0  0  0  0
M  END
$$$$
