CSD_code = VUJWUU | q = 0 | S = 0 | Stoichiometry = C26H35ClN3Ta | MND = 5
 OpenBabel04212202113D

 66 68  0  0  0  0  0  0  0  0999 V2000
    8.6337    6.8637   13.2351 Ta  0  0  0  0  0  0  0  0  0  0  0  0
    9.8487    5.2193   12.1652 Cl  0  0  0  0  0  0  0  0  0  0  0  0
    7.3558    7.0924   11.6895 N   0  0  0  0  0  0  0  0  0  0  0  0
   10.2381    8.0660   13.2496 N   0  0  0  0  0  0  0  0  0  0  0  0
    7.6529    8.1389   14.3997 N   0  0  0  0  0  0  0  0  0  0  0  0
    7.8654    5.2315   14.6516 C   0  0  0  0  0  0  0  0  0  0  0  0
    6.6778    4.5239   14.4238 C   0  0  0  0  0  0  0  0  0  0  0  0
    6.1431    3.6768   15.3943 C   0  0  0  0  0  0  0  0  0  0  0  0
    5.2254    3.1469   15.1802 H   0  0  0  0  0  0  0  0  0  0  0  0
    6.7781    3.5046   16.6085 C   0  0  0  0  0  0  0  0  0  0  0  0
    6.3563    2.8514   17.3584 H   0  0  0  0  0  0  0  0  0  0  0  0
    7.9658    4.1682   16.8464 C   0  0  0  0  0  0  0  0  0  0  0  0
    8.4925    4.0303   17.7804 H   0  0  0  0  0  0  0  0  0  0  0  0
    8.5041    5.0131   15.8780 C   0  0  0  0  0  0  0  0  0  0  0  0
    5.9327    4.6147   13.1495 C   0  0  0  0  0  0  0  0  0  0  0  0
    4.6015    5.0218   13.1397 C   0  0  0  0  0  0  0  0  0  0  0  0
    4.1379    5.3455   14.0613 H   0  0  0  0  0  0  0  0  0  0  0  0
    3.8736    5.0208   11.9656 C   0  0  0  0  0  0  0  0  0  0  0  0
    2.8424    5.3469   11.9717 H   0  0  0  0  0  0  0  0  0  0  0  0
    4.4474    4.5973   10.7719 C   0  0  0  0  0  0  0  0  0  0  0  0
    5.7711    4.1787   10.7870 C   0  0  0  0  0  0  0  0  0  0  0  0
    6.2305    3.8301    9.8724 H   0  0  0  0  0  0  0  0  0  0  0  0
    6.5096    4.1908   11.9568 C   0  0  0  0  0  0  0  0  0  0  0  0
    7.5307    3.8384   11.9546 H   0  0  0  0  0  0  0  0  0  0  0  0
    3.6435    4.5970    9.5055 C   0  0  0  0  0  0  0  0  0  0  0  0
    4.2220    4.1957    8.6769 H   0  0  0  0  0  0  0  0  0  0  0  0
    3.3311    5.6101    9.2515 H   0  0  0  0  0  0  0  0  0  0  0  0
    2.7439    3.9945    9.6250 H   0  0  0  0  0  0  0  0  0  0  0  0
    9.8003    5.6523   16.1953 C   0  0  0  0  0  0  0  0  0  0  0  0
   10.9403    5.3387   15.4574 C   0  0  0  0  0  0  0  0  0  0  0  0
   10.8623    4.6623   14.6179 H   0  0  0  0  0  0  0  0  0  0  0  0
   12.1763    5.8310   15.8369 C   0  0  0  0  0  0  0  0  0  0  0  0
   13.0551    5.5581   15.2690 H   0  0  0  0  0  0  0  0  0  0  0  0
   12.3089    6.6583   16.9454 C   0  0  0  0  0  0  0  0  0  0  0  0
   11.1685    6.9780   17.6726 C   0  0  0  0  0  0  0  0  0  0  0  0
   11.2540    7.6178   18.5401 H   0  0  0  0  0  0  0  0  0  0  0  0
    9.9330    6.4737   17.3118 C   0  0  0  0  0  0  0  0  0  0  0  0
    9.0581    6.7120   17.9006 H   0  0  0  0  0  0  0  0  0  0  0  0
   13.6462    7.2106   17.3371 C   0  0  0  0  0  0  0  0  0  0  0  0
   13.8050    8.1779   16.8578 H   0  0  0  0  0  0  0  0  0  0  0  0
   14.4478    6.5448   17.0256 H   0  0  0  0  0  0  0  0  0  0  0  0
   13.7066    7.3565   18.4134 H   0  0  0  0  0  0  0  0  0  0  0  0
    6.1054    7.8103   11.7664 C   0  0  0  0  0  0  0  0  0  0  0  0
    6.2168    8.8398   11.3923 H   0  0  0  0  0  0  0  0  0  0  0  0
    5.7651    7.8388   12.7980 H   0  0  0  0  0  0  0  0  0  0  0  0
    5.3345    7.3154   11.1655 H   0  0  0  0  0  0  0  0  0  0  0  0
    7.7460    6.9418   10.3070 C   0  0  0  0  0  0  0  0  0  0  0  0
    6.9298    6.5047    9.7199 H   0  0  0  0  0  0  0  0  0  0  0  0
    8.6078    6.2806   10.2290 H   0  0  0  0  0  0  0  0  0  0  0  0
    7.9984    7.9139    9.8527 H   0  0  0  0  0  0  0  0  0  0  0  0
   10.9791    8.5763   14.3717 C   0  0  0  0  0  0  0  0  0  0  0  0
   11.9649    8.0981   14.4529 H   0  0  0  0  0  0  0  0  0  0  0  0
   10.4252    8.3846   15.2900 H   0  0  0  0  0  0  0  0  0  0  0  0
   11.1429    9.6598   14.2772 H   0  0  0  0  0  0  0  0  0  0  0  0
   10.9136    8.3585   12.0122 C   0  0  0  0  0  0  0  0  0  0  0  0
   11.1672    9.4251   11.9358 H   0  0  0  0  0  0  0  0  0  0  0  0
   10.2818    8.0939   11.1632 H   0  0  0  0  0  0  0  0  0  0  0  0
   11.8510    7.7853   11.9343 H   0  0  0  0  0  0  0  0  0  0  0  0
    7.8243    9.5664   14.2395 C   0  0  0  0  0  0  0  0  0  0  0  0
    6.8651   10.0468   14.0071 H   0  0  0  0  0  0  0  0  0  0  0  0
    8.5163    9.7692   13.4277 H   0  0  0  0  0  0  0  0  0  0  0  0
    8.2084   10.0238   15.1608 H   0  0  0  0  0  0  0  0  0  0  0  0
    6.7156    7.9327   15.4805 C   0  0  0  0  0  0  0  0  0  0  0  0
    7.1200    8.3182   16.4267 H   0  0  0  0  0  0  0  0  0  0  0  0
    6.5035    6.8738   15.5979 H   0  0  0  0  0  0  0  0  0  0  0  0
    5.7705    8.4591   15.2904 H   0  0  0  0  0  0  0  0  0  0  0  0
  1  4  1  0  0  0  0
  1  5  1  0  0  0  0
  1  6  1  0  0  0  0
  2  1  1  0  0  0  0
  3 43  1  0  0  0  0
  3  1  1  0  0  0  0
  4 51  1  0  0  0  0
  5 63  1  0  0  0  0
  6 14  1  0  0  0  0
  7  6  2  0  0  0  0
  7  8  1  0  0  0  0
  8 10  2  0  0  0  0
  9  8  1  0  0  0  0
 10 12  1  0  0  0  0
 10 11  1  0  0  0  0
 12 13  1  0  0  0  0
 14 29  1  0  0  0  0
 14 12  2  0  0  0  0
 15  7  1  0  0  0  0
 16 15  1  0  0  0  0
 16 17  1  0  0  0  0
 18 19  1  0  0  0  0
 18 16  2  0  0  0  0
 20 21  2  0  0  0  0
 20 18  1  0  0  0  0
 21 23  1  0  0  0  0
 22 21  1  0  0  0  0
 23 15  2  0  0  0  0
 24 23  1  0  0  0  0
 25 28  1  0  0  0  0
 25 20  1  0  0  0  0
 26 25  1  0  0  0  0
 27 25  1  0  0  0  0
 29 37  1  0  0  0  0
 30 32  1  0  0  0  0
 30 29  2  0  0  0  0
 31 30  1  0  0  0  0
 32 34  2  0  0  0  0
 33 32  1  0  0  0  0
 34 39  1  0  0  0  0
 34 35  1  0  0  0  0
 35 36  1  0  0  0  0
 37 35  2  0  0  0  0
 37 38  1  0  0  0  0
 39 42  1  0  0  0  0
 40 39  1  0  0  0  0
 41 39  1  0  0  0  0
 43 45  1  0  0  0  0
 44 43  1  0  0  0  0
 46 43  1  0  0  0  0
 47  3  1  0  0  0  0
 48 47  1  0  0  0  0
 49 47  1  0  0  0  0
 50 47  1  0  0  0  0
 51 52  1  0  0  0  0
 51 53  1  0  0  0  0
 54 51  1  0  0  0  0
 55  4  1  0  0  0  0
 56 55  1  0  0  0  0
 57 55  1  0  0  0  0
 58 55  1  0  0  0  0
 59  5  1  0  0  0  0
 59 62  1  0  0  0  0
 60 59  1  0  0  0  0
 61 59  1  0  0  0  0
 63 65  1  0  0  0  0
 63 64  1  0  0  0  0
 66 63  1  0  0  0  0
M  END
$$$$
