CSD_code = VUKKAN | q = 1 | S = 0 | Stoichiometry = C22H40Cl2NP4W(1+) | MND = 6
 OpenBabel04212202113D

 70 71  0  0  0  0  0  0  0  0999 V2000
    3.0442    0.9927   10.4377 W   0  0  0  0  0  0  0  0  0  0  0  0
    1.4595    0.8190    8.6216 Cl  0  0  0  0  0  0  0  0  0  0  0  0
    4.6980    0.8434    8.9188 Cl  0  0  0  0  0  0  0  0  0  0  0  0
    4.7000    1.1603   12.2293 P   0  0  0  0  0  4  0  0  0  0  0  0
    3.1091   -1.4774   10.3466 P   0  0  0  0  0  4  0  0  0  0  0  0
    3.1226    3.3985    9.8783 P   0  0  0  0  0  4  0  0  0  0  0  0
    0.4392    1.2177   12.6335 P   0  0  0  0  0  4  0  0  0  0  0  0
    1.7642    1.1287   11.7704 N   0  0  0  0  0  2  0  0  0  0  0  0
    6.4572    1.1149   11.7384 C   0  0  0  0  0  0  0  0  0  0  0  0
    4.6564    2.6541   13.3007 C   0  0  0  0  0  0  0  0  0  0  0  0
    4.6581   -0.1119   13.5567 C   0  0  0  0  0  0  0  0  0  0  0  0
    4.7710   -2.2456   10.2213 C   0  0  0  0  0  0  0  0  0  0  0  0
    2.3492   -2.4658   11.6887 C   0  0  0  0  0  0  0  0  0  0  0  0
    2.3204   -2.2277    8.8779 C   0  0  0  0  0  0  0  0  0  0  0  0
    2.3529    3.8562    8.2846 C   0  0  0  0  0  0  0  0  0  0  0  0
    4.7884    4.1270    9.6289 C   0  0  0  0  0  0  0  0  0  0  0  0
    2.3502    4.6224   11.0009 C   0  0  0  0  0  0  0  0  0  0  0  0
   -0.5869   -0.2656   12.4035 C   0  0  0  0  0  0  0  0  0  0  0  0
   -1.3032   -0.8813   13.4215 C   0  0  0  0  0  0  0  0  0  0  0  0
   -2.0888   -1.9837   13.1306 C   0  0  0  0  0  0  0  0  0  0  0  0
   -2.1684   -2.4632   11.8332 C   0  0  0  0  0  0  0  0  0  0  0  0
   -1.4555   -1.8455   10.8169 C   0  0  0  0  0  0  0  0  0  0  0  0
   -0.6627   -0.7479   11.0994 C   0  0  0  0  0  0  0  0  0  0  0  0
   -0.6060    2.6035   12.0915 C   0  0  0  0  0  0  0  0  0  0  0  0
   -1.3669    3.3816   12.9544 C   0  0  0  0  0  0  0  0  0  0  0  0
   -2.1671    4.3867   12.4385 C   0  0  0  0  0  0  0  0  0  0  0  0
   -2.2178    4.6085   11.0716 C   0  0  0  0  0  0  0  0  0  0  0  0
   -1.4616    3.8278   10.2108 C   0  0  0  0  0  0  0  0  0  0  0  0
   -0.6541    2.8259   10.7179 C   0  0  0  0  0  0  0  0  0  0  0  0
    0.7558    1.4190   14.4283 C   0  0  0  0  0  0  0  0  0  0  0  0
    7.0953    1.1915   12.6183 H   0  0  0  0  0  0  0  0  0  0  0  0
    6.6635    0.1834   11.2135 H   0  0  0  0  0  0  0  0  0  0  0  0
    6.6660    1.9397   11.0588 H   0  0  0  0  0  0  0  0  0  0  0  0
    5.3694    2.5618   14.1196 H   0  0  0  0  0  0  0  0  0  0  0  0
    4.8947    3.5411   12.7172 H   0  0  0  0  0  0  0  0  0  0  0  0
    3.6493    2.7568   13.7032 H   0  0  0  0  0  0  0  0  0  0  0  0
    5.3601    0.1374   14.3520 H   0  0  0  0  0  0  0  0  0  0  0  0
    3.6471   -0.1519   13.9609 H   0  0  0  0  0  0  0  0  0  0  0  0
    4.9129   -1.0876   13.1480 H   0  0  0  0  0  0  0  0  0  0  0  0
    4.6672   -3.3264   10.1301 H   0  0  0  0  0  0  0  0  0  0  0  0
    5.2790   -1.8599    9.3375 H   0  0  0  0  0  0  0  0  0  0  0  0
    5.3722   -2.0160   11.0993 H   0  0  0  0  0  0  0  0  0  0  0  0
    2.4590   -3.5271   11.4681 H   0  0  0  0  0  0  0  0  0  0  0  0
    2.8249   -2.2417   12.6402 H   0  0  0  0  0  0  0  0  0  0  0  0
    1.2915   -2.2196   11.7594 H   0  0  0  0  0  0  0  0  0  0  0  0
    2.4670   -3.3080    8.8843 H   0  0  0  0  0  0  0  0  0  0  0  0
    1.2562   -1.9977    8.8733 H   0  0  0  0  0  0  0  0  0  0  0  0
    2.7654   -1.8025    7.9768 H   0  0  0  0  0  0  0  0  0  0  0  0
    2.5014    4.9181    8.0875 H   0  0  0  0  0  0  0  0  0  0  0  0
    2.8082    3.2677    7.4864 H   0  0  0  0  0  0  0  0  0  0  0  0
    1.2884    3.6290    8.3107 H   0  0  0  0  0  0  0  0  0  0  0  0
    4.6891    5.1684    9.3242 H   0  0  0  0  0  0  0  0  0  0  0  0
    5.3758    4.0759   10.5439 H   0  0  0  0  0  0  0  0  0  0  0  0
    5.3082    3.5742    8.8465 H   0  0  0  0  0  0  0  0  0  0  0  0
    2.4821    5.6252   10.5957 H   0  0  0  0  0  0  0  0  0  0  0  0
    1.2872    4.4057   11.0889 H   0  0  0  0  0  0  0  0  0  0  0  0
    2.8011    4.5672   11.9888 H   0  0  0  0  0  0  0  0  0  0  0  0
   -1.2532   -0.5119   14.4345 H   0  0  0  0  0  0  0  0  0  0  0  0
   -2.6448   -2.4665   13.9198 H   0  0  0  0  0  0  0  0  0  0  0  0
   -2.7888   -3.3186   11.6141 H   0  0  0  0  0  0  0  0  0  0  0  0
   -1.5223   -2.2165    9.8054 H   0  0  0  0  0  0  0  0  0  0  0  0
   -0.0896   -0.2568   10.3216 H   0  0  0  0  0  0  0  0  0  0  0  0
   -1.3405    3.2125   14.0201 H   0  0  0  0  0  0  0  0  0  0  0  0
   -2.7574    4.9954   13.1064 H   0  0  0  0  0  0  0  0  0  0  0  0
   -2.8496    5.3895   10.6774 H   0  0  0  0  0  0  0  0  0  0  0  0
   -1.5063    3.9967    9.1456 H   0  0  0  0  0  0  0  0  0  0  0  0
   -0.0489    2.2102   10.0629 H   0  0  0  0  0  0  0  0  0  0  0  0
    1.3145    2.3426   14.5769 H   0  0  0  0  0  0  0  0  0  0  0  0
   -0.1689    1.4616   14.9964 H   0  0  0  0  0  0  0  0  0  0  0  0
    1.3531    0.5744   14.7700 H   0  0  0  0  0  0  0  0  0  0  0  0
  1  8  1  0  0  0  0
  1  4  1  0  0  0  0
  2  1  1  0  0  0  0
  3  1  1  0  0  0  0
  4 10  1  0  0  0  0
  4 11  1  0  0  0  0
  5  1  1  0  0  0  0
  5 13  1  0  0  0  0
  6  1  1  0  0  0  0
  6 17  1  0  0  0  0
  7 30  1  0  0  0  0
  8  7  1  0  0  0  0
  9  4  1  0  0  0  0
  9 31  1  0  0  0  0
 10 36  1  0  0  0  0
 10 34  1  0  0  0  0
 11 38  1  0  0  0  0
 11 37  1  0  0  0  0
 12  5  1  0  0  0  0
 12 42  1  0  0  0  0
 13 45  1  0  0  0  0
 13 44  1  0  0  0  0
 14 46  1  0  0  0  0
 14  5  1  0  0  0  0
 15 51  1  0  0  0  0
 15  6  1  0  0  0  0
 16  6  1  0  0  0  0
 16 53  1  0  0  0  0
 17 56  1  0  0  0  0
 17 57  1  0  0  0  0
 18  7  1  0  0  0  0
 18 19  1  0  0  0  0
 19 58  1  0  0  0  0
 20 19  2  0  0  0  0
 20 59  1  0  0  0  0
 21 20  1  0  0  0  0
 22 23  1  0  0  0  0
 22 21  2  0  0  0  0
 23 18  2  0  0  0  0
 24  7  1  0  0  0  0
 24 25  1  0  0  0  0
 25 63  1  0  0  0  0
 26 25  2  0  0  0  0
 26 64  1  0  0  0  0
 27 26  1  0  0  0  0
 28 29  1  0  0  0  0
 28 27  2  0  0  0  0
 29 24  2  0  0  0  0
 30 68  1  0  0  0  0
 30 70  1  0  0  0  0
 30 69  1  0  0  0  0
 32  9  1  0  0  0  0
 33  9  1  0  0  0  0
 35 10  1  0  0  0  0
 39 11  1  0  0  0  0
 40 12  1  0  0  0  0
 41 12  1  0  0  0  0
 43 13  1  0  0  0  0
 47 14  1  0  0  0  0
 48 14  1  0  0  0  0
 49 15  1  0  0  0  0
 50 15  1  0  0  0  0
 52 16  1  0  0  0  0
 54 16  1  0  0  0  0
 55 17  1  0  0  0  0
 60 21  1  0  0  0  0
 61 22  1  0  0  0  0
 62 23  1  0  0  0  0
 65 27  1  0  0  0  0
 66 28  1  0  0  0  0
 67 29  1  0  0  0  0
M  END
$$$$
