CSD_code = VULNAT | q = 0 | S = 0 | Stoichiometry = C11H22Cl2N2O2Zn | MND = 4
 OpenBabel04212202113D

 40 42  0  0  0  0  0  0  0  0999 V2000
    1.9654    4.9206    2.9810 Zn  0  0  0  0  0  0  0  0  0  0  0  0
    2.9599    4.4740    4.9161 Cl  0  0  0  0  0  0  0  0  0  0  0  0
    1.2319    3.4999    1.4380 Cl  0  0  0  0  0  0  0  0  0  0  0  0
   -0.0237    6.0102    4.9561 C   0  0  0  0  0  0  0  0  0  0  0  0
   -0.8039    4.6990    4.9708 C   0  0  0  0  0  0  0  0  0  0  0  0
   -1.9809    4.8069    4.2109 O   0  0  0  0  0  0  0  0  0  0  0  0
   -1.6680    5.1365    2.8795 C   0  0  0  0  0  0  0  0  0  0  0  0
   -0.8813    6.4466    2.7953 C   0  0  0  0  0  0  0  0  0  0  0  0
    0.3594    6.3525    3.5764 N   0  0  0  0  0  4  0  0  0  0  0  0
    1.0735    7.6342    3.6057 C   0  0  0  0  0  0  0  0  0  0  0  0
    1.4779    8.2052    2.2437 C   0  0  0  0  0  0  0  0  0  0  0  0
    2.1177    7.2506    1.2317 C   0  0  0  0  0  0  0  0  0  0  0  0
    3.1583    6.3616    1.7614 N   0  0  0  0  0  4  0  0  0  0  0  0
    3.7239    5.5961    0.6381 C   0  0  0  0  0  0  0  0  0  0  0  0
    4.8333    4.6770    1.1410 C   0  0  0  0  0  0  0  0  0  0  0  0
    5.8743    5.4192    1.7241 O   0  0  0  0  0  0  0  0  0  0  0  0
    5.3831    6.1765    2.8031 C   0  0  0  0  0  0  0  0  0  0  0  0
    4.2631    7.1216    2.3614 C   0  0  0  0  0  0  0  0  0  0  0  0
   -0.6565    6.8071    5.3726 H   0  0  0  0  0  0  0  0  0  0  0  0
    0.8748    5.9065    5.5648 H   0  0  0  0  0  0  0  0  0  0  0  0
   -0.1661    3.8901    4.5776 H   0  0  0  0  0  0  0  0  0  0  0  0
   -1.1089    4.4513    5.9885 H   0  0  0  0  0  0  0  0  0  0  0  0
   -2.6193    5.2377    2.3545 H   0  0  0  0  0  0  0  0  0  0  0  0
   -1.0823    4.3312    2.4158 H   0  0  0  0  0  0  0  0  0  0  0  0
   -0.6497    6.6438    1.7495 H   0  0  0  0  0  0  0  0  0  0  0  0
   -1.4995    7.2665    3.1904 H   0  0  0  0  0  0  0  0  0  0  0  0
    1.9608    7.4781    4.2238 H   0  0  0  0  0  0  0  0  0  0  0  0
    0.4494    8.3925    4.1050 H   0  0  0  0  0  0  0  0  0  0  0  0
    2.1614    9.0329    2.4451 H   0  0  0  0  0  0  0  0  0  0  0  0
    0.6008    8.6343    1.7544 H   0  0  0  0  0  0  0  0  0  0  0  0
    1.3539    6.6037    0.7936 H   0  0  0  0  0  0  0  0  0  0  0  0
    2.5369    7.8673    0.4208 H   0  0  0  0  0  0  0  0  0  0  0  0
    4.1429    6.2878   -0.1068 H   0  0  0  0  0  0  0  0  0  0  0  0
    2.9374    4.9998    0.1753 H   0  0  0  0  0  0  0  0  0  0  0  0
    4.4143    3.9646    1.8709 H   0  0  0  0  0  0  0  0  0  0  0  0
    5.2712    4.1219    0.3103 H   0  0  0  0  0  0  0  0  0  0  0  0
    6.2276    6.7513    3.1869 H   0  0  0  0  0  0  0  0  0  0  0  0
    5.0070    5.5130    3.5937 H   0  0  0  0  0  0  0  0  0  0  0  0
    3.9100    7.6703    3.2332 H   0  0  0  0  0  0  0  0  0  0  0  0
    4.6598    7.8335    1.6223 H   0  0  0  0  0  0  0  0  0  0  0  0
  1  9  1  0  0  0  0
  1  2  1  0  0  0  0
  3  1  1  0  0  0  0
  4  5  1  0  0  0  0
  4 19  1  0  0  0  0
  4 20  1  0  0  0  0
  5 22  1  0  0  0  0
  6  5  1  0  0  0  0
  7  6  1  0  0  0  0
  8  7  1  0  0  0  0
  8 26  1  0  0  0  0
  8  9  1  0  0  0  0
  9 10  1  0  0  0  0
  9  4  1  0  0  0  0
 10 28  1  0  0  0  0
 10 27  1  0  0  0  0
 11 29  1  0  0  0  0
 11 10  1  0  0  0  0
 12 13  1  0  0  0  0
 12 11  1  0  0  0  0
 13 18  1  0  0  0  0
 13  1  1  0  0  0  0
 14 15  1  0  0  0  0
 14 13  1  0  0  0  0
 15 16  1  0  0  0  0
 15 35  1  0  0  0  0
 16 17  1  0  0  0  0
 17 37  1  0  0  0  0
 17 38  1  0  0  0  0
 18 17  1  0  0  0  0
 18 39  1  0  0  0  0
 21  5  1  0  0  0  0
 23  7  1  0  0  0  0
 24  7  1  0  0  0  0
 25  8  1  0  0  0  0
 30 11  1  0  0  0  0
 31 12  1  0  0  0  0
 32 12  1  0  0  0  0
 33 14  1  0  0  0  0
 34 14  1  0  0  0  0
 36 15  1  0  0  0  0
 40 18  1  0  0  0  0
M  END
$$$$
