CSD_code = VUMCOV | q = 0 | S = 0 | Stoichiometry = C16H22Cl2N2Ni | MND = 4
 OpenBabel04212202113D

 43 44  0  0  1  0  0  0  0  0999 V2000
    7.1273    0.0000    7.9491 Ni  0  0  0  0  0  0  0  0  0  0  0  0
    6.2039   -0.4652    6.0920 Cl  0  0  0  0  0  0  0  0  0  0  0  0
    6.0242    1.5657    8.1124 N   0  0  0  0  0  0  0  0  0  0  0  0
    6.4409    2.7367    7.6200 C   0  0  1  0  0  3  0  0  0  0  0  0
    5.6711    3.8835    7.7294 C   0  0  0  0  0  0  0  0  0  0  0  0
    4.4358    3.8407    8.3612 C   0  0  0  0  0  0  0  0  0  0  0  0
    4.0288    2.6135    8.8638 C   0  0  0  0  0  0  0  0  0  0  0  0
    4.8394    1.4973    8.7265 C   0  0  0  0  0  0  0  0  0  0  0  0
    7.7729    2.7617    6.9500 C   0  0  0  0  0  0  0  0  0  0  0  0
    3.5771    5.0577    8.4711 C   0  0  0  0  0  0  0  0  0  0  0  0
    4.4226    0.1706    9.2646 C   0  0  0  0  0  0  0  0  0  0  0  0
    6.0415    4.8104    7.3195 H   0  0  0  0  0  0  0  0  0  0  0  0
    3.0787    2.5176    9.3663 H   0  0  0  0  0  0  0  0  0  0  0  0
    7.9783    3.7323    6.5075 H   0  0  0  0  0  0  0  0  0  0  0  0
    7.7923    1.9975    6.1698 H   0  0  0  0  0  0  0  0  0  0  0  0
    3.0155    5.1924    7.5464 H   0  0  0  0  0  0  0  0  0  0  0  0
    4.1851    5.9460    8.6258 H   0  0  0  0  0  0  0  0  0  0  0  0
    2.8676    4.9612    9.2889 H   0  0  0  0  0  0  0  0  0  0  0  0
    4.4779   -0.5706    8.4643 H   0  0  0  0  0  0  0  0  0  0  0  0
    5.1073   -0.1198   10.0638 H   0  0  0  0  0  0  0  0  0  0  0  0
    3.4104    0.2004    9.6578 H   0  0  0  0  0  0  0  0  0  0  0  0
    8.5455    2.5349    7.6874 H   0  0  0  0  0  0  0  0  0  0  0  0
    8.0506    0.4652    9.8063 Cl  0  0  0  0  0  0  0  0  0  0  0  0
    8.2303   -1.5657    7.7859 N   0  0  0  0  0  0  0  0  0  0  0  0
    7.8136   -2.7367    8.2783 C   0  0  2  0  0  3  0  0  0  0  0  0
    9.4151   -1.4973    7.1718 C   0  0  0  0  0  0  0  0  0  0  0  0
    8.5835   -3.8835    8.1689 C   0  0  0  0  0  0  0  0  0  0  0  0
    6.4817   -2.7617    8.9483 C   0  0  0  0  0  0  0  0  0  0  0  0
   10.2258   -2.6135    7.0346 C   0  0  0  0  0  0  0  0  0  0  0  0
    9.8320   -0.1706    6.6338 C   0  0  0  0  0  0  0  0  0  0  0  0
    9.8188   -3.8407    7.5371 C   0  0  0  0  0  0  0  0  0  0  0  0
    8.2131   -4.8104    8.5788 H   0  0  0  0  0  0  0  0  0  0  0  0
    6.2762   -3.7323    9.3908 H   0  0  0  0  0  0  0  0  0  0  0  0
    6.4622   -1.9975    9.7285 H   0  0  0  0  0  0  0  0  0  0  0  0
    5.7090   -2.5349    8.2109 H   0  0  0  0  0  0  0  0  0  0  0  0
   11.1758   -2.5176    6.5321 H   0  0  0  0  0  0  0  0  0  0  0  0
    9.7766    0.5706    7.4340 H   0  0  0  0  0  0  0  0  0  0  0  0
    9.1472    0.1198    5.8345 H   0  0  0  0  0  0  0  0  0  0  0  0
   10.8442   -0.2004    6.2406 H   0  0  0  0  0  0  0  0  0  0  0  0
   10.6774   -5.0577    7.4273 C   0  0  0  0  0  0  0  0  0  0  0  0
   11.2391   -5.1924    8.3519 H   0  0  0  0  0  0  0  0  0  0  0  0
   10.0694   -5.9460    7.2725 H   0  0  0  0  0  0  0  0  0  0  0  0
   11.3869   -4.9612    6.6094 H   0  0  0  0  0  0  0  0  0  0  0  0
  1  3  1  0  0  0  0
  1 23  1  0  0  0  0
  2  1  1  0  0  0  0
  3  8  1  0  0  0  0
  4  9  1  1  0  0  0
  4  5  1  0  0  0  0
  4  3  1  0  0  0  0
  5  6  2  0  0  0  0
  6 10  1  0  0  0  0
  6  7  1  0  0  0  0
  7 13  1  0  0  0  0
  8  7  2  0  0  0  0
  8 11  1  0  0  0  0
  9 22  1  0  0  0  0
 10 17  1  0  0  0  0
 10 18  1  0  0  0  0
 11 21  1  0  0  0  0
 11 20  1  0  0  0  0
 12  5  1  0  0  0  0
 14  9  1  0  0  0  0
 15  9  1  0  0  0  0
 16 10  1  0  0  0  0
 19 11  1  0  0  0  0
 24  1  1  0  0  0  0
 24 25  1  0  0  0  0
 25 28  1  6  0  0  0
 26 24  1  0  0  0  0
 27 25  1  0  0  0  0
 27 32  1  0  0  0  0
 28 33  1  0  0  0  0
 28 34  1  0  0  0  0
 29 26  2  0  0  0  0
 29 31  1  0  0  0  0
 30 26  1  0  0  0  0
 30 37  1  0  0  0  0
 31 27  2  0  0  0  0
 35 28  1  0  0  0  0
 36 29  1  0  0  0  0
 38 30  1  0  0  0  0
 39 30  1  0  0  0  0
 40 31  1  0  0  0  0
 40 41  1  0  0  0  0
 42 40  1  0  0  0  0
 43 40  1  0  0  0  0
M  END
$$$$
