CSD_code = VUMWUX | q = 0 | S = 0 | Stoichiometry = C15H21IN2O2Pt | MND = 6
 OpenBabel04212202113D

 42 44  0  0  1  0  0  0  0  0999 V2000
   -0.2019    4.2892    3.8299 Pt  0  0  0  0  0  0  0  0  0  0  0  0
   -1.1799    3.3750    1.4383 I   0  0  0  0  0  0  0  0  0  0  0  0
    1.6985    4.6209    2.7002 N   0  0  0  0  0  0  0  0  0  0  0  0
   -0.3830    6.3474    2.9921 N   0  0  0  0  0  0  0  0  0  0  0  0
    1.5425    5.5803    1.7807 C   0  0  2  0  0  3  0  0  0  0  0  0
    0.5626    6.6379    2.0869 C   0  0  2  0  0  3  0  0  0  0  0  0
   -2.0688    4.1273    4.6794 C   0  0  0  0  0  0  0  0  0  0  0  0
   -1.2830    7.2676    3.2929 C   0  0  0  0  0  0  0  0  0  0  0  0
    0.2433    2.4254    4.5851 C   0  0  0  0  0  0  0  0  0  0  0  0
    3.3562    3.5972    1.3316 C   0  0  0  0  0  0  0  0  0  0  0  0
    2.5983    3.6701    2.4778 C   0  0  0  0  0  0  0  0  0  0  0  0
    3.8815    4.4175   -0.7931 O   0  0  0  0  0  0  0  0  0  0  0  0
    0.6232    7.8844    1.4840 C   0  0  0  0  0  0  0  0  0  0  0  0
    2.2473    5.5774    0.5818 C   0  0  0  0  0  0  0  0  0  0  0  0
   -0.3344    8.8545    1.7891 C   0  0  0  0  0  0  0  0  0  0  0  0
   -1.3180    8.5255    2.7216 C   0  0  0  0  0  0  0  0  0  0  0  0
    3.1610    4.5563    0.3307 C   0  0  0  0  0  0  0  0  0  0  0  0
   -0.2142   10.0345    1.1557 O   0  0  0  0  0  0  0  0  0  0  0  0
    3.6495    5.3011   -1.8689 C   0  0  0  0  0  0  0  0  0  0  0  0
   -1.1711   11.0414    1.4069 C   0  0  0  0  0  0  0  0  0  0  0  0
    0.5401    5.0995    5.5776 C   0  0  0  0  0  0  0  0  0  0  0  0
    2.7083    2.9252    3.2541 H   0  0  0  0  0  0  0  0  0  0  0  0
    4.0656    2.8023    1.1759 H   0  0  0  0  0  0  0  0  0  0  0  0
    2.0433    6.3334   -0.1566 H   0  0  0  0  0  0  0  0  0  0  0  0
   -2.0251    6.9898    4.0297 H   0  0  0  0  0  0  0  0  0  0  0  0
   -2.0918    9.2174    3.0088 H   0  0  0  0  0  0  0  0  0  0  0  0
    1.4020    8.1416    0.7862 H   0  0  0  0  0  0  0  0  0  0  0  0
   -0.8831   11.8822    0.7789 H   0  0  0  0  0  0  0  0  0  0  0  0
   -2.1770   10.7112    1.1327 H   0  0  0  0  0  0  0  0  0  0  0  0
   -1.1584   11.3508    2.4560 H   0  0  0  0  0  0  0  0  0  0  0  0
    2.6068    5.2619   -2.1961 H   0  0  0  0  0  0  0  0  0  0  0  0
    3.9173    6.3293   -1.6066 H   0  0  0  0  0  0  0  0  0  0  0  0
    4.2944    4.9561   -2.6748 H   0  0  0  0  0  0  0  0  0  0  0  0
   -2.0987    4.3934    5.7371 H   0  0  0  0  0  0  0  0  0  0  0  0
   -2.7208    4.8057    4.1192 H   0  0  0  0  0  0  0  0  0  0  0  0
   -2.4663    3.1173    4.5638 H   0  0  0  0  0  0  0  0  0  0  0  0
    0.2083    1.7007    3.7678 H   0  0  0  0  0  0  0  0  0  0  0  0
    1.2552    2.4386    5.0011 H   0  0  0  0  0  0  0  0  0  0  0  0
   -0.4326    2.0846    5.3702 H   0  0  0  0  0  0  0  0  0  0  0  0
    0.4079    4.4732    6.4579 H   0  0  0  0  0  0  0  0  0  0  0  0
    1.6090    5.2787    5.4438 H   0  0  0  0  0  0  0  0  0  0  0  0
    0.0549    6.0593    5.7692 H   0  0  0  0  0  0  0  0  0  0  0  0
  1  9  1  0  0  0  0
  1  7  1  0  0  0  0
  1 21  1  0  0  0  0
  2  1  1  0  0  0  0
  3  1  1  0  0  0  0
  4  8  1  0  0  0  0
  4  1  1  0  0  0  0
  5 14  1  6  0  0  0
  5  6  1  0  0  0  0
  5  3  1  0  0  0  0
  6 13  1  1  0  0  0
  6  4  1  0  0  0  0
  7 34  1  0  0  0  0
  8 25  1  0  0  0  0
  9 38  1  0  0  0  0
  9 39  1  0  0  0  0
 10 11  2  0  0  0  0
 11  3  1  0  0  0  0
 11 22  1  0  0  0  0
 12 17  1  0  0  0  0
 13 15  2  0  0  0  0
 15 16  1  0  0  0  0
 16 26  1  0  0  0  0
 16  8  2  0  0  0  0
 17 14  2  0  0  0  0
 17 10  1  0  0  0  0
 18 20  1  0  0  0  0
 18 15  1  0  0  0  0
 19 32  1  0  0  0  0
 19 12  1  0  0  0  0
 20 30  1  0  0  0  0
 21 42  1  0  0  0  0
 21 40  1  0  0  0  0
 23 10  1  0  0  0  0
 24 14  1  0  0  0  0
 27 13  1  0  0  0  0
 28 20  1  0  0  0  0
 29 20  1  0  0  0  0
 31 19  1  0  0  0  0
 33 19  1  0  0  0  0
 35  7  1  0  0  0  0
 36  7  1  0  0  0  0
 37  9  1  0  0  0  0
 41 21  1  0  0  0  0
M  END
$$$$
