CSD_code = VUNSAA | q = 0 | S = 0 | Stoichiometry = C22H30Cl2O4P2Ru | MND = 6
 OpenBabel04212202113D

 61 62  0  0  0  0  0  0  0  0999 V2000
    6.4022    1.5343   12.1947 C   0  0  0  0  0  0  0  0  0  0  0  0
    5.7215    2.6849   12.5779 C   0  0  0  0  0  0  0  0  0  0  0  0
    6.2759    3.5726   12.8480 H   0  0  0  0  0  0  0  0  0  0  0  0
    4.3401    2.6882   12.6250 C   0  0  0  0  0  0  0  0  0  0  0  0
    3.8149    3.5830   12.9256 H   0  0  0  0  0  0  0  0  0  0  0  0
    3.6322    1.5428   12.2972 C   0  0  0  0  0  0  0  0  0  0  0  0
    2.5531    1.5455   12.3408 H   0  0  0  0  0  0  0  0  0  0  0  0
    4.3086    0.3933   11.9246 C   0  0  0  0  0  0  0  0  0  0  0  0
    3.7578   -0.5024   11.6780 H   0  0  0  0  0  0  0  0  0  0  0  0
    5.6909    0.3853   11.8726 C   0  0  0  0  0  0  0  0  0  0  0  0
    6.2237   -0.5113   11.5939 H   0  0  0  0  0  0  0  0  0  0  0  0
    8.6113    2.4722   10.5538 C   0  0  0  0  0  0  0  0  0  0  0  0
   10.0796    2.1798   10.2522 C   0  0  0  0  0  0  0  0  0  0  0  0
   10.2139    1.1337    9.9831 H   0  0  0  0  0  0  0  0  0  0  0  0
   10.7053    2.3906   11.1215 H   0  0  0  0  0  0  0  0  0  0  0  0
   10.4282    2.7939    9.4238 H   0  0  0  0  0  0  0  0  0  0  0  0
    8.3906    3.9638   10.7682 C   0  0  0  0  0  0  0  0  0  0  0  0
    8.7795    4.5260    9.9209 H   0  0  0  0  0  0  0  0  0  0  0  0
    8.9029    4.3032   11.6710 H   0  0  0  0  0  0  0  0  0  0  0  0
    7.3304    4.1877   10.8649 H   0  0  0  0  0  0  0  0  0  0  0  0
    7.7242    1.9406    9.4327 C   0  0  0  0  0  0  0  0  0  0  0  0
    6.6823    2.2102    9.5972 H   0  0  0  0  0  0  0  0  0  0  0  0
    7.7945    0.8554    9.3763 H   0  0  0  0  0  0  0  0  0  0  0  0
    8.0410    2.3556    8.4772 H   0  0  0  0  0  0  0  0  0  0  0  0
   12.3317    1.5796   16.0755 C   0  0  0  0  0  0  0  0  0  0  0  0
   13.0100    0.4281   16.4548 C   0  0  0  0  0  0  0  0  0  0  0  0
   12.4520   -0.4375   16.7784 H   0  0  0  0  0  0  0  0  0  0  0  0
   14.3919    0.3934   16.4016 C   0  0  0  0  0  0  0  0  0  0  0  0
   14.9170   -0.5046   16.6921 H   0  0  0  0  0  0  0  0  0  0  0  0
   15.1005    1.5028   15.9718 C   0  0  0  0  0  0  0  0  0  0  0  0
   16.1792    1.4721   15.9278 H   0  0  0  0  0  0  0  0  0  0  0  0
   14.4254    2.6503   15.5870 C   0  0  0  0  0  0  0  0  0  0  0  0
   14.9757    3.5134   15.2419 H   0  0  0  0  0  0  0  0  0  0  0  0
   13.0445    2.6892   15.6340 C   0  0  0  0  0  0  0  0  0  0  0  0
   12.5154    3.5776   15.3189 H   0  0  0  0  0  0  0  0  0  0  0  0
   10.1482    2.6832   17.6485 C   0  0  0  0  0  0  0  0  0  0  0  0
   10.4176    4.1510   17.3435 C   0  0  0  0  0  0  0  0  0  0  0  0
   10.0284    4.7778   18.1441 H   0  0  0  0  0  0  0  0  0  0  0  0
    9.9339    4.4457   16.4098 H   0  0  0  0  0  0  0  0  0  0  0  0
   11.4857    4.3382   17.2566 H   0  0  0  0  0  0  0  0  0  0  0  0
   11.0128    2.1943   18.8060 C   0  0  0  0  0  0  0  0  0  0  0  0
   12.0641    2.4153   18.6293 H   0  0  0  0  0  0  0  0  0  0  0  0
   10.9036    1.1183   18.9324 H   0  0  0  0  0  0  0  0  0  0  0  0
   10.7088    2.6816   19.7310 H   0  0  0  0  0  0  0  0  0  0  0  0
    8.6699    2.4578   17.9590 C   0  0  0  0  0  0  0  0  0  0  0  0
    8.4992    1.4333   18.2848 H   0  0  0  0  0  0  0  0  0  0  0  0
    8.0543    2.6415   17.0766 H   0  0  0  0  0  0  0  0  0  0  0  0
    8.3402    3.1281   18.7508 H   0  0  0  0  0  0  0  0  0  0  0  0
   10.5775    3.3378   13.4864 C   0  0  0  0  0  2  0  0  0  0  0  0
    8.2253    3.4231   14.6562 C   0  0  0  0  0  2  0  0  0  0  0  0
    8.5394    0.0453   11.7236 O   0  0  0  0  0  0  0  0  0  0  0  0
    9.3570   -0.2488   12.1916 H   0  0  0  0  0  0  0  0  0  0  0  0
   10.1531    0.1849   16.6386 O   0  0  0  0  0  0  0  0  0  0  0  0
    9.3273   -0.1154   16.1893 H   0  0  0  0  0  0  0  0  0  0  0  0
   11.3058    4.1449   13.1261 O   0  0  0  0  0  1  0  0  0  0  0  0
    7.5338    4.2843   14.9595 O   0  0  0  0  0  1  0  0  0  0  0  0
    8.2149    1.5328   12.1289 P   0  0  2  0  0  4  0  0  0  0  0  0
   10.5198    1.6331   16.1384 P   0  0  2  0  0  4  0  0  0  0  0  0
   10.8952    0.3269   13.4932 Cl  0  0  0  0  0  0  0  0  0  0  0  0
    7.8034    0.4240   14.8558 Cl  0  0  0  0  0  0  0  0  0  0  0  0
    9.3765    2.0833   14.1158 Ru  0  0  0  0  0  0  0  0  0  0  0  0
  1  2  1  0  0  0  0
  2  4  2  0  0  0  0
  2  3  1  0  0  0  0
  4  5  1  0  0  0  0
  6  7  1  0  0  0  0
  6  4  1  0  0  0  0
  8  6  2  0  0  0  0
  9  8  1  0  0  0  0
 10  8  1  0  0  0  0
 10  1  2  0  0  0  0
 11 10  1  0  0  0  0
 12 17  1  0  0  0  0
 12 57  1  0  0  0  0
 13 12  1  0  0  0  0
 13 15  1  0  0  0  0
 14 13  1  0  0  0  0
 16 13  1  0  0  0  0
 17 20  1  0  0  0  0
 17 19  1  0  0  0  0
 18 17  1  0  0  0  0
 21 22  1  0  0  0  0
 21 12  1  0  0  0  0
 23 21  1  0  0  0  0
 24 21  1  0  0  0  0
 25 58  1  0  0  0  0
 25 26  1  0  0  0  0
 26 27  1  0  0  0  0
 28 26  2  0  0  0  0
 28 29  1  0  0  0  0
 30 28  1  0  0  0  0
 31 30  1  0  0  0  0
 32 34  1  0  0  0  0
 32 30  2  0  0  0  0
 33 32  1  0  0  0  0
 34 25  2  0  0  0  0
 35 34  1  0  0  0  0
 36 45  1  0  0  0  0
 36 41  1  0  0  0  0
 37 36  1  0  0  0  0
 37 38  1  0  0  0  0
 39 37  1  0  0  0  0
 40 37  1  0  0  0  0
 41 43  1  0  0  0  0
 41 44  1  0  0  0  0
 42 41  1  0  0  0  0
 45 46  1  0  0  0  0
 45 48  1  0  0  0  0
 47 45  1  0  0  0  0
 49 61  1  0  0  0  0
 50 56  1  0  0  0  0
 51 52  1  0  0  0  0
 54 53  1  0  0  0  0
 55 49  1  0  0  0  0
 57 51  1  6  0  0  0
 57  1  1  0  0  0  0
 57 61  1  0  0  0  0
 58 53  1  1  0  0  0
 58 36  1  0  0  0  0
 59 61  1  0  0  0  0
 61 50  1  0  0  0  0
 61 60  1  0  0  0  0
 61 58  1  0  0  0  0
M  END
$$$$
