CSD_code = VUNVOQ | q = 0 | S = 0 | Stoichiometry = C24H19AuClP | MND = 2
 OpenBabel04212202113D

 46 49  0  0  0  0  0  0  0  0999 V2000
   -0.5546    3.2020    6.3070 Au  0  0  0  0  0  0  0  0  0  0  0  0
   -0.6152    3.0007    4.0544 Cl  0  0  0  0  0  0  0  0  0  0  0  0
   -0.4620    3.3258    8.5452 P   0  0  0  0  0  4  0  0  0  0  0  0
   -1.2334    1.9650    9.4696 C   0  0  0  0  0  0  0  0  0  0  0  0
   -1.9588    2.2101   10.6342 C   0  0  0  0  0  0  0  0  0  0  0  0
   -2.0099    3.2142   11.0333 H   0  0  0  0  0  0  0  0  0  0  0  0
   -2.6217    1.1805   11.2744 C   0  0  0  0  0  0  0  0  0  0  0  0
   -3.1744    1.3793   12.1806 H   0  0  0  0  0  0  0  0  0  0  0  0
   -2.5886   -0.0995   10.7435 C   0  0  0  0  0  0  0  0  0  0  0  0
   -3.1200   -0.9016   11.2335 H   0  0  0  0  0  0  0  0  0  0  0  0
   -1.8754   -0.3504    9.5863 C   0  0  0  0  0  0  0  0  0  0  0  0
   -1.8402   -1.3478    9.1725 H   0  0  0  0  0  0  0  0  0  0  0  0
   -1.1775    0.6671    8.9441 C   0  0  0  0  0  0  0  0  0  0  0  0
   -0.3939    0.3787    7.7329 C   0  0  0  0  0  0  0  0  0  0  0  0
   -1.0040   -0.1632    6.6047 C   0  0  0  0  0  0  0  0  0  0  0  0
   -2.0637   -0.3744    6.6249 H   0  0  0  0  0  0  0  0  0  0  0  0
   -0.2677   -0.3908    5.4570 C   0  0  0  0  0  0  0  0  0  0  0  0
   -0.7535   -0.7831    4.5770 H   0  0  0  0  0  0  0  0  0  0  0  0
    1.0860   -0.0993    5.4289 C   0  0  0  0  0  0  0  0  0  0  0  0
    1.6543   -0.2652    4.5269 H   0  0  0  0  0  0  0  0  0  0  0  0
    1.7063    0.4107    6.5564 C   0  0  0  0  0  0  0  0  0  0  0  0
    2.7642    0.6293    6.5440 H   0  0  0  0  0  0  0  0  0  0  0  0
    0.9715    0.6521    7.7036 C   0  0  0  0  0  0  0  0  0  0  0  0
    1.4599    1.0222    8.5958 H   0  0  0  0  0  0  0  0  0  0  0  0
   -1.3657    4.7757    9.1566 C   0  0  0  0  0  0  0  0  0  0  0  0
   -2.7106    4.8533    8.7959 C   0  0  0  0  0  0  0  0  0  0  0  0
   -3.1495    4.0441    8.2246 H   0  0  0  0  0  0  0  0  0  0  0  0
   -3.4655    5.9477    9.1664 C   0  0  0  0  0  0  0  0  0  0  0  0
   -4.5082    6.0028    8.8912 H   0  0  0  0  0  0  0  0  0  0  0  0
   -2.8787    6.9802    9.8836 C   0  0  0  0  0  0  0  0  0  0  0  0
   -3.4669    7.8393   10.1693 H   0  0  0  0  0  0  0  0  0  0  0  0
   -1.5387    6.9155   10.2251 C   0  0  0  0  0  0  0  0  0  0  0  0
   -1.0811    7.7244   10.7754 H   0  0  0  0  0  0  0  0  0  0  0  0
   -0.7765    5.8178    9.8618 C   0  0  0  0  0  0  0  0  0  0  0  0
    0.2709    5.7714   10.1261 H   0  0  0  0  0  0  0  0  0  0  0  0
    1.1882    3.5287    9.2707 C   0  0  0  0  0  0  0  0  0  0  0  0
    1.4438    3.2467   10.6095 C   0  0  0  0  0  0  0  0  0  0  0  0
    0.6482    2.8825   11.2454 H   0  0  0  0  0  0  0  0  0  0  0  0
    2.7185    3.4274   11.1143 C   0  0  0  0  0  0  0  0  0  0  0  0
    2.9203    3.2078   12.1525 H   0  0  0  0  0  0  0  0  0  0  0  0
    3.7358    3.8860   10.2915 C   0  0  0  0  0  0  0  0  0  0  0  0
    4.7297    4.0220   10.6909 H   0  0  0  0  0  0  0  0  0  0  0  0
    3.4823    4.1643    8.9578 C   0  0  0  0  0  0  0  0  0  0  0  0
    4.2763    4.5168    8.3168 H   0  0  0  0  0  0  0  0  0  0  0  0
    2.2106    3.9840    8.4450 C   0  0  0  0  0  0  0  0  0  0  0  0
    1.9969    4.1829    7.4022 H   0  0  0  0  0  0  0  0  0  0  0  0
  1  3  1  0  0  0  0
  2  1  1  0  0  0  0
  3 25  1  0  0  0  0
  3 36  1  0  0  0  0
  3  4  1  0  0  0  0
  4  5  1  0  0  0  0
  5  6  1  0  0  0  0
  5  7  2  0  0  0  0
  7  8  1  0  0  0  0
  9 10  1  0  0  0  0
  9  7  1  0  0  0  0
 11  9  2  0  0  0  0
 12 11  1  0  0  0  0
 13  4  2  0  0  0  0
 13 11  1  0  0  0  0
 14 13  1  0  0  0  0
 15 16  1  0  0  0  0
 15 14  2  0  0  0  0
 17 15  1  0  0  0  0
 18 17  1  0  0  0  0
 19 17  2  0  0  0  0
 19 21  1  0  0  0  0
 20 19  1  0  0  0  0
 21 23  2  0  0  0  0
 22 21  1  0  0  0  0
 23 14  1  0  0  0  0
 23 24  1  0  0  0  0
 25 34  1  0  0  0  0
 26 25  2  0  0  0  0
 26 28  1  0  0  0  0
 27 26  1  0  0  0  0
 28 30  2  0  0  0  0
 29 28  1  0  0  0  0
 30 31  1  0  0  0  0
 30 32  1  0  0  0  0
 32 33  1  0  0  0  0
 34 35  1  0  0  0  0
 34 32  2  0  0  0  0
 36 37  1  0  0  0  0
 37 39  2  0  0  0  0
 37 38  1  0  0  0  0
 39 40  1  0  0  0  0
 41 42  1  0  0  0  0
 41 39  1  0  0  0  0
 43 41  2  0  0  0  0
 44 43  1  0  0  0  0
 45 43  1  0  0  0  0
 45 36  2  0  0  0  0
 46 45  1  0  0  0  0
M  END
$$$$
