CSD_code = VUNWAD | q = 0 | S = 0 | Stoichiometry = C24H19AuIP | MND = 2
 OpenBabel04212202113D

 46 49  0  0  0  0  0  0  0  0999 V2000
    4.2161    7.5594    3.9029 C   0  0  0  0  0  0  0  0  0  0  0  0
    4.1098    7.0590    5.2074 C   0  0  0  0  0  0  0  0  0  0  0  0
    4.2399    5.6202    5.4838 C   0  0  0  0  0  0  0  0  0  0  0  0
    5.3748    4.9254    5.0700 C   0  0  0  0  0  0  0  0  0  0  0  0
    6.1816    5.4624    4.5868 H   0  0  0  0  0  0  0  0  0  0  0  0
    5.4928    3.5687    5.3166 C   0  0  0  0  0  0  0  0  0  0  0  0
    6.3766    3.0407    4.9891 H   0  0  0  0  0  0  0  0  0  0  0  0
    4.4771    2.8908    5.9691 C   0  0  0  0  0  0  0  0  0  0  0  0
    4.5562    1.8281    6.1380 H   0  0  0  0  0  0  0  0  0  0  0  0
    3.3511    3.5770    6.3942 C   0  0  0  0  0  0  0  0  0  0  0  0
    2.5545    3.0473    6.8936 H   0  0  0  0  0  0  0  0  0  0  0  0
    3.2352    4.9352    6.1627 C   0  0  0  0  0  0  0  0  0  0  0  0
    2.3502    5.4688    6.4799 H   0  0  0  0  0  0  0  0  0  0  0  0
    3.8778    7.9482    6.2524 C   0  0  0  0  0  0  0  0  0  0  0  0
    3.7900    7.5606    7.2571 H   0  0  0  0  0  0  0  0  0  0  0  0
    3.7799    9.3068    6.0189 C   0  0  0  0  0  0  0  0  0  0  0  0
    3.6071    9.9837    6.8421 H   0  0  0  0  0  0  0  0  0  0  0  0
    3.9033    9.8001    4.7291 C   0  0  0  0  0  0  0  0  0  0  0  0
    3.8295   10.8613    4.5428 H   0  0  0  0  0  0  0  0  0  0  0  0
    4.1083    8.9305    3.6757 C   0  0  0  0  0  0  0  0  0  0  0  0
    4.1786    9.3135    2.6662 H   0  0  0  0  0  0  0  0  0  0  0  0
    6.1466    6.3335    2.1461 C   0  0  0  0  0  0  0  0  0  0  0  0
    7.0144    7.3731    2.4654 C   0  0  0  0  0  0  0  0  0  0  0  0
    6.6390    8.2583    2.9608 H   0  0  0  0  0  0  0  0  0  0  0  0
    8.3570    7.2623    2.1531 C   0  0  0  0  0  0  0  0  0  0  0  0
    9.0326    8.0676    2.4016 H   0  0  0  0  0  0  0  0  0  0  0  0
    8.8365    6.1227    1.5261 C   0  0  0  0  0  0  0  0  0  0  0  0
    9.8863    6.0418    1.2871 H   0  0  0  0  0  0  0  0  0  0  0  0
    7.9739    5.0849    1.2111 C   0  0  0  0  0  0  0  0  0  0  0  0
    8.3481    4.1949    0.7277 H   0  0  0  0  0  0  0  0  0  0  0  0
    6.6310    5.1874    1.5239 C   0  0  0  0  0  0  0  0  0  0  0  0
    5.9471    4.3792    1.2944 H   0  0  0  0  0  0  0  0  0  0  0  0
    3.7066    7.3653    1.1277 C   0  0  0  0  0  0  0  0  0  0  0  0
    2.3459    7.6654    1.1859 C   0  0  0  0  0  0  0  0  0  0  0  0
    1.7761    7.3688    2.0590 H   0  0  0  0  0  0  0  0  0  0  0  0
    1.7382    8.3366    0.1444 C   0  0  0  0  0  0  0  0  0  0  0  0
    0.6860    8.5734    0.1954 H   0  0  0  0  0  0  0  0  0  0  0  0
    2.4808    8.6962   -0.9709 C   0  0  0  0  0  0  0  0  0  0  0  0
    2.0055    9.2165   -1.7888 H   0  0  0  0  0  0  0  0  0  0  0  0
    3.8271    8.3814   -1.0409 C   0  0  0  0  0  0  0  0  0  0  0  0
    4.4019    8.6544   -1.9136 H   0  0  0  0  0  0  0  0  0  0  0  0
    4.4445    7.7134    0.0030 C   0  0  0  0  0  0  0  0  0  0  0  0
    5.4956    7.4659   -0.0557 H   0  0  0  0  0  0  0  0  0  0  0  0
    3.2917    4.4223    2.6863 Au  0  0  0  0  0  0  0  0  0  0  0  0
    2.0875    2.1862    2.9296 I   0  0  0  0  0  0  0  0  0  0  0  0
    4.3696    6.3984    2.5136 P   0  0  0  0  0  4  0  0  0  0  0  0
  1  2  1  0  0  0  0
  2  3  1  0  0  0  0
  2 14  2  0  0  0  0
  3 12  1  0  0  0  0
  4  6  1  0  0  0  0
  4  3  2  0  0  0  0
  5  4  1  0  0  0  0
  6  8  2  0  0  0  0
  7  6  1  0  0  0  0
  8  9  1  0  0  0  0
  8 10  1  0  0  0  0
 10 11  1  0  0  0  0
 12 10  2  0  0  0  0
 12 13  1  0  0  0  0
 14 15  1  0  0  0  0
 16 14  1  0  0  0  0
 16 17  1  0  0  0  0
 18 16  2  0  0  0  0
 19 18  1  0  0  0  0
 20  1  2  0  0  0  0
 20 18  1  0  0  0  0
 21 20  1  0  0  0  0
 22 23  1  0  0  0  0
 22 46  1  0  0  0  0
 23 24  1  0  0  0  0
 25 26  1  0  0  0  0
 25 23  2  0  0  0  0
 27 25  1  0  0  0  0
 28 27  1  0  0  0  0
 29 31  1  0  0  0  0
 29 27  2  0  0  0  0
 30 29  1  0  0  0  0
 31 22  2  0  0  0  0
 32 31  1  0  0  0  0
 33 34  1  0  0  0  0
 33 46  1  0  0  0  0
 34 35  1  0  0  0  0
 36 37  1  0  0  0  0
 36 34  2  0  0  0  0
 38 36  1  0  0  0  0
 39 38  1  0  0  0  0
 40 38  2  0  0  0  0
 40 42  1  0  0  0  0
 41 40  1  0  0  0  0
 42 33  2  0  0  0  0
 43 42  1  0  0  0  0
 44 45  1  0  0  0  0
 46 44  1  0  0  0  0
 46  1  1  0  0  0  0
M  END
$$$$
