CSD_code = VUPMUQ | q = 0 | S = 0 | Stoichiometry = C5H10Br2N4OPt | MND = 4
 OpenBabel04212202113D

 23 23  0  0  0  0  0  0  0  0999 V2000
    3.1020    3.7119    6.0269 Pt  0  0  0  0  0  0  0  0  0  0  0  0
    2.3879    5.7088    4.8005 Br  0  0  0  0  0  0  0  0  0  0  0  0
    3.4695    1.7731    7.4787 Br  0  0  0  0  0  0  0  0  0  0  0  0
    4.0863    4.9198    7.4058 N   0  0  0  0  0  4  0  0  0  0  0  0
    3.7246    5.8764    7.4044 H   0  0  0  0  0  0  0  0  0  0  0  0
    5.0681    4.9473    7.1176 H   0  0  0  0  0  0  0  0  0  0  0  0
    4.0430    4.5335    8.3517 H   0  0  0  0  0  0  0  0  0  0  0  0
    2.8289    1.3256    2.7005 N   0  0  0  0  0  0  0  0  0  0  0  0
    3.8157    0.8986    1.7342 C   0  0  0  0  0  0  0  0  0  0  0  0
    3.5014    1.1709    0.7268 H   0  0  0  0  0  0  0  0  0  0  0  0
    3.9624   -0.1803    1.7927 H   0  0  0  0  0  0  0  0  0  0  0  0
    4.7500    1.4035    1.9751 H   0  0  0  0  0  0  0  0  0  0  0  0
    3.2421    2.1640    3.7379 C   0  0  0  0  0  0  0  0  0  0  0  0
    4.3904    2.5415    3.8360 O   0  0  0  0  0  0  0  0  0  0  0  0
    2.2915    2.5426    4.6383 N   0  0  0  0  0  0  0  0  0  0  0  0
    1.0239    2.1596    4.5680 C   0  0  0  0  0  0  0  0  0  0  0  0
    0.1904    2.6001    5.5127 N   0  0  0  0  0  0  0  0  0  0  0  0
    0.5731    3.2108    6.2289 H   0  0  0  0  0  0  0  0  0  0  0  0
   -0.7827    2.3569    5.5198 H   0  0  0  0  0  0  0  0  0  0  0  0
    0.6082    1.3072    3.5085 C   0  0  0  0  0  0  0  0  0  0  0  0
   -0.4147    0.9859    3.4341 H   0  0  0  0  0  0  0  0  0  0  0  0
    1.5471    0.9209    2.6081 C   0  0  0  0  0  3  0  0  0  0  0  0
    1.3108    0.2732    1.7767 H   0  0  0  0  0  0  0  0  0  0  0  0
  1  4  1  0  0  0  0
  1  3  1  0  0  0  0
  2  1  1  0  0  0  0
  4  7  1  0  0  0  0
  5  4  1  0  0  0  0
  6  4  1  0  0  0  0
  8 13  1  0  0  0  0
  9 11  1  0  0  0  0
  9 12  1  0  0  0  0
  9  8  1  0  0  0  0
 10  9  1  0  0  0  0
 13 14  2  0  0  0  0
 13 15  1  0  0  0  0
 15  1  1  0  0  0  0
 16 15  1  0  0  0  0
 16 17  1  0  0  0  0
 17 19  1  0  0  0  0
 17 18  1  0  0  0  0
 20 16  2  0  0  0  0
 21 20  1  0  0  0  0
 22  8  1  0  0  0  0
 22 20  1  0  0  0  0
 23 22  1  0  0  0  0
M  END
$$$$
