CSD_code = VUPQAA | q = 0 | S = 0 | Stoichiometry = C10H11Cl2N5OSZn | MND = 4
 OpenBabel04212202113D

 31 33  0  0  1  0  0  0  0  0999 V2000
    0.0071    2.5367    6.9100 Zn  0  0  0  0  0  0  0  0  0  0  0  0
    0.1395    4.2362    8.3018 Cl  0  0  0  0  0  0  0  0  0  0  0  0
   -0.9029    0.5255    7.2104 Cl  0  0  0  0  0  0  0  0  0  0  0  0
    2.4351    1.3251    8.3021 S   0  0  0  0  0  0  0  0  0  0  0  0
   -0.3959    3.8036    5.1414 N   0  0  0  0  0  0  0  0  0  0  0  0
    2.1410    0.7843    5.6483 N   0  0  0  0  0  2  0  0  0  0  0  0
    3.1644   -2.4434    8.7076 O   0  0  0  0  0  0  0  0  0  0  0  0
    2.7413   -0.9313    7.0603 N   0  0  0  0  0  0  0  0  0  0  0  0
    1.5254    1.9924    5.5405 N   0  0  0  0  0  0  0  0  0  0  0  0
    2.6040   -0.1731    9.3057 C   0  0  0  0  0  0  0  0  0  0  0  0
    3.4054   -0.0494   10.0327 H   0  0  0  0  0  0  0  0  0  0  0  0
    1.6672   -0.3540    9.8376 H   0  0  0  0  0  0  0  0  0  0  0  0
    2.1669    2.0849    3.3069 N   0  0  0  0  0  0  0  0  0  0  0  0
    2.5926    1.1796    3.4458 H   0  0  0  0  0  0  0  0  0  0  0  0
    1.8762    2.3221    2.3743 H   0  0  0  0  0  0  0  0  0  0  0  0
    1.4522    2.5320    4.3687 C   0  0  2  0  0  3  0  0  0  0  0  0
    0.5897    3.7129    4.2452 C   0  0  2  0  0  3  0  0  0  0  0  0
    2.3963    0.3663    6.8275 C   0  0  1  0  0  3  0  0  0  0  0  0
    2.8788   -1.3256    8.3674 C   0  0  0  0  0  0  0  0  0  0  0  0
   -1.0964    5.8514    4.1625 C   0  0  0  0  0  0  0  0  0  0  0  0
   -1.7823    6.6826    4.1696 H   0  0  0  0  0  0  0  0  0  0  0  0
   -1.2105    4.8425    5.1082 C   0  0  0  0  0  0  0  0  0  0  0  0
   -1.9754    4.8679    5.8707 H   0  0  0  0  0  0  0  0  0  0  0  0
    0.7796    4.6815    3.2626 C   0  0  0  0  0  0  0  0  0  0  0  0
    1.6009    4.6023    2.5677 H   0  0  0  0  0  0  0  0  0  0  0  0
   -0.0785    5.7681    3.2258 C   0  0  0  0  0  0  0  0  0  0  0  0
    0.0520    6.5401    2.4825 H   0  0  0  0  0  0  0  0  0  0  0  0
    2.7949   -1.8854    5.9778 C   0  0  0  0  0  0  0  0  0  0  0  0
    2.9782   -2.8647    6.4170 H   0  0  0  0  0  0  0  0  0  0  0  0
    3.5998   -1.6254    5.2907 H   0  0  0  0  0  0  0  0  0  0  0  0
    1.8458   -1.8819    5.4427 H   0  0  0  0  0  0  0  0  0  0  0  0
  1  3  1  0  0  0  0
  1  2  1  0  0  0  0
  4 10  1  0  0  0  0
  5  1  1  0  0  0  0
  8 19  1  0  0  0  0
  9  6  1  0  0  0  0
  9  1  1  0  0  0  0
 10 12  1  0  0  0  0
 10 11  1  0  0  0  0
 13 14  1  0  0  0  0
 15 13  1  0  0  0  0
 16 13  1  1  0  0  0
 16  9  1  0  0  0  0
 17 24  1  1  0  0  0
 17 16  1  0  0  0  0
 17  5  1  0  0  0  0
 18  6  1  6  0  0  0
 18  8  1  0  0  0  0
 18  4  1  0  0  0  0
 19  7  2  0  0  0  0
 19 10  1  0  0  0  0
 20 21  1  0  0  0  0
 20 22  2  0  0  0  0
 22  5  1  0  0  0  0
 22 23  1  0  0  0  0
 25 24  1  0  0  0  0
 26 24  2  0  0  0  0
 26 20  1  0  0  0  0
 27 26  1  0  0  0  0
 28 29  1  0  0  0  0
 28  8  1  0  0  0  0
 30 28  1  0  0  0  0
 31 28  1  0  0  0  0
M  END
$$$$
