CSD_code = VUPQEE | q = 0 | S = 0 | Stoichiometry = C11H13Cl2N5OSZn | MND = 4
 OpenBabel04212202113D

 34 36  0  0  1  0  0  0  0  0999 V2000
    6.6420   -1.2683    2.9053 Zn  0  0  0  0  0  0  0  0  0  0  0  0
    3.9868    0.1812    2.6328 S   0  0  0  0  0  0  0  0  0  0  0  0
    6.9006   -0.0646    4.7594 Cl  0  0  0  0  0  0  0  0  0  0  0  0
    5.5634   -3.1595    2.5783 Cl  0  0  0  0  0  0  0  0  0  0  0  0
    8.3553   -1.8257    1.6271 N   0  0  0  0  0  0  0  0  0  0  0  0
    2.9558    3.5177    4.2737 O   0  0  0  0  0  0  0  0  0  0  0  0
    6.1910    1.5162    1.7511 N   0  0  0  0  0  2  0  0  0  0  0  0
    3.4770    2.5848    3.7215 C   0  0  0  0  0  0  0  0  0  0  0  0
    5.0873    1.5330    2.3937 C   0  0  1  0  0  3  0  0  0  0  0  0
    6.7378    0.2988    1.4850 N   0  0  0  0  0  0  0  0  0  0  0  0
    8.1183    1.3220   -0.0820 N   0  0  0  0  0  0  0  0  0  0  0  0
    7.6925    2.1958    0.1937 H   0  0  0  0  0  0  0  0  0  0  0  0
    9.0507    1.3628   -0.4557 H   0  0  0  0  0  0  0  0  0  0  0  0
    4.6039    2.6814    2.9461 N   0  0  0  0  0  0  0  0  0  0  0  0
    5.3161    3.9372    2.8014 C   0  0  0  0  0  0  0  0  0  0  0  0
    6.3778    3.7384    2.9627 H   0  0  0  0  0  0  0  0  0  0  0  0
    4.9377    4.5995    3.5831 H   0  0  0  0  0  0  0  0  0  0  0  0
    8.4539   -1.0189    0.5680 C   0  0  1  0  0  3  0  0  0  0  0  0
    3.0059    1.1506    3.8064 C   0  0  0  0  0  0  0  0  0  0  0  0
    1.9460    1.0636    3.5716 H   0  0  0  0  0  0  0  0  0  0  0  0
    3.1780    0.7704    4.8158 H   0  0  0  0  0  0  0  0  0  0  0  0
    9.1827   -1.3785   -0.5633 C   0  0  0  0  0  0  0  0  0  0  0  0
    9.2233   -0.7233   -1.4192 H   0  0  0  0  0  0  0  0  0  0  0  0
    9.7032   -3.4396    0.5224 C   0  0  0  0  0  0  0  0  0  0  0  0
   10.1769   -4.4074    0.5449 H   0  0  0  0  0  0  0  0  0  0  0  0
    7.7463    0.2618    0.6776 C   0  0  2  0  0  3  0  0  0  0  0  0
    5.0807    4.5458    1.4253 C   0  0  0  0  0  0  0  0  0  0  0  0
    5.6459    5.4685    1.3308 H   0  0  0  0  0  0  0  0  0  0  0  0
    4.0257    4.7688    1.2874 H   0  0  0  0  0  0  0  0  0  0  0  0
    5.3978    3.8546    0.6483 H   0  0  0  0  0  0  0  0  0  0  0  0
    9.8145   -2.6109   -0.5827 C   0  0  0  0  0  0  0  0  0  0  0  0
   10.3775   -2.9206   -1.4505 H   0  0  0  0  0  0  0  0  0  0  0  0
    8.9536   -3.0027    1.6052 C   0  0  0  0  0  0  0  0  0  0  0  0
    8.8208   -3.6165    2.4845 H   0  0  0  0  0  0  0  0  0  0  0  0
  1  3  1  0  0  0  0
  2 19  1  0  0  0  0
  4  1  1  0  0  0  0
  5  1  1  0  0  0  0
  8 19  1  0  0  0  0
  8  6  2  0  0  0  0
  9  7  1  6  0  0  0
  9  2  1  0  0  0  0
  9 14  1  0  0  0  0
 10  7  1  0  0  0  0
 10  1  1  0  0  0  0
 11 12  1  0  0  0  0
 13 11  1  0  0  0  0
 14  8  1  0  0  0  0
 15 14  1  0  0  0  0
 15 16  1  0  0  0  0
 15 17  1  0  0  0  0
 18 22  1  6  0  0  0
 18 26  1  0  0  0  0
 18  5  1  0  0  0  0
 19 21  1  0  0  0  0
 20 19  1  0  0  0  0
 23 22  1  0  0  0  0
 24 25  1  0  0  0  0
 24 33  2  0  0  0  0
 26 11  1  6  0  0  0
 26 10  1  0  0  0  0
 27 15  1  0  0  0  0
 28 27  1  0  0  0  0
 29 27  1  0  0  0  0
 30 27  1  0  0  0  0
 31 22  2  0  0  0  0
 31 24  1  0  0  0  0
 32 31  1  0  0  0  0
 33  5  1  0  0  0  0
 33 34  1  0  0  0  0
M  END
$$$$
