CSD_code = VUPXIO | q = 0 | S = 0 | Stoichiometry = C10H12Cl2N2PtS4 | MND = 4
 OpenBabel04212202113D

 31 32  0  0  0  0  0  0  0  0999 V2000
   -1.3663    5.7359    7.3167 C   0  0  0  0  0  0  0  0  0  0  0  0
   -0.0671    5.5228    7.7040 C   0  0  0  0  0  0  0  0  0  0  0  0
    2.3951    4.4084    6.9560 C   0  0  0  0  0  0  0  0  0  0  0  0
    3.0564    4.3835    6.0879 H   0  0  0  0  0  0  0  0  0  0  0  0
    2.9394    4.7561    7.8351 H   0  0  0  0  0  0  0  0  0  0  0  0
    1.8227    3.0334    7.2379 C   0  0  0  0  0  0  0  0  0  0  0  0
    1.1997    3.0372    8.1311 H   0  0  0  0  0  0  0  0  0  0  0  0
    2.6518    2.3409    7.3922 H   0  0  0  0  0  0  0  0  0  0  0  0
   -0.7378    1.9562    6.8216 C   0  0  0  0  0  0  0  0  0  0  0  0
   -0.5285    1.1527    7.5304 H   0  0  0  0  0  0  0  0  0  0  0  0
   -1.0145    2.8560    7.3742 H   0  0  0  0  0  0  0  0  0  0  0  0
   -1.8275    1.5349    5.8588 C   0  0  0  0  0  0  0  0  0  0  0  0
   -2.7431    1.2712    6.3885 H   0  0  0  0  0  0  0  0  0  0  0  0
   -1.4999    0.6804    5.2648 H   0  0  0  0  0  0  0  0  0  0  0  0
   -3.3348    3.8874    5.6856 C   0  0  0  0  0  0  0  0  0  0  0  0
   -4.3476    3.5163    5.5193 H   0  0  0  0  0  0  0  0  0  0  0  0
   -3.0671    3.7235    6.7286 H   0  0  0  0  0  0  0  0  0  0  0  0
   -3.2847    5.3596    5.3331 C   0  0  0  0  0  0  0  0  0  0  0  0
   -4.0414    5.9004    5.9029 H   0  0  0  0  0  0  0  0  0  0  0  0
   -3.4429    5.5119    4.2647 H   0  0  0  0  0  0  0  0  0  0  0  0
   -2.4444    5.6251    8.2005 C   0  0  0  0  0  0  0  0  0  0  0  0
    0.2854    5.1800    9.0131 C   0  0  0  0  0  0  0  0  0  0  0  0
   -0.9800    5.0142    2.5764 Cl  0  0  0  0  0  0  0  0  0  0  0  0
    1.9924    4.4416    3.6054 Cl  0  0  0  0  0  0  0  0  0  0  0  0
   -3.3577    5.4812    8.8835 N   0  0  0  0  0  0  0  0  0  0  0  0
    0.6069    4.8435   10.0641 N   0  0  0  0  0  0  0  0  0  0  0  0
   -0.0811    3.7806    4.2549 Pt  0  0  0  0  0  0  0  0  0  0  0  0
   -1.6591    6.1404    5.6285 S   0  0  0  0  0  0  0  0  0  0  0  0
    1.1786    5.6821    6.4725 S   0  0  0  0  0  0  0  0  0  0  0  0
    0.8221    2.2786    5.8896 S   0  0  1  0  0  3  0  0  0  0  0  0
   -2.2495    2.8328    4.6339 S   0  0  1  0  0  3  0  0  0  0  0  0
  1  2  2  0  0  0  0
  1 21  1  0  0  0  0
  2 22  1  0  0  0  0
  3  6  1  0  0  0  0
  3  5  1  0  0  0  0
  4  3  1  0  0  0  0
  6  8  1  0  0  0  0
  6  7  1  0  0  0  0
  9 11  1  0  0  0  0
  9 10  1  0  0  0  0
 12 13  1  0  0  0  0
 12  9  1  0  0  0  0
 14 12  1  0  0  0  0
 15 17  1  0  0  0  0
 16 15  1  0  0  0  0
 18 28  1  0  0  0  0
 18 15  1  0  0  0  0
 18 19  1  0  0  0  0
 20 18  1  0  0  0  0
 21 25  3  0  0  0  0
 22 26  3  0  0  0  0
 23 27  1  0  0  0  0
 24 27  1  0  0  0  0
 27 31  1  0  0  0  0
 27 30  1  0  0  0  0
 28  1  1  0  0  0  0
 29  3  1  0  0  0  0
 29  2  1  0  0  0  0
 30  9  1  1  0  0  0
 30  6  1  0  0  0  0
 31 15  1  1  0  0  0
 31 12  1  0  0  0  0
M  END
$$$$
