CSD_code = VUQYIR | q = 0 | S = 0 | Stoichiometry = C27H35Cl2N3O2Zn | MND = 4
 OpenBabel04212202113D

 70 74  0  0  1  0  0  0  0  0999 V2000
    0.8106   -0.0331    3.0123 Zn  0  0  0  0  0  0  0  0  0  0  0  0
    0.4083   -2.1732    2.6448 Cl  0  0  0  0  0  0  0  0  0  0  0  0
   -0.5306    1.7310    2.9977 Cl  0  0  0  0  0  0  0  0  0  0  0  0
    2.3067    0.4010    1.6529 N   0  0  2  0  0  0  0  0  0  0  0  0
    2.4271   -0.2898    0.3802 C   0  0  1  0  0  0  0  0  0  0  0  0
    2.1114   -1.3286    0.5193 H   0  0  0  0  0  0  0  0  0  0  0  0
    1.4890    0.3480   -0.6707 C   0  0  0  0  0  0  0  0  0  0  0  0
    1.8927    0.1021   -1.6579 H   0  0  0  0  0  0  0  0  0  0  0  0
    0.0944   -0.2640   -0.5639 C   0  0  0  0  0  0  0  0  0  0  0  0
    0.1263   -1.3404   -0.7150 H   0  0  0  0  0  0  0  0  0  0  0  0
   -0.5639    0.1739   -1.3105 H   0  0  0  0  0  0  0  0  0  0  0  0
   -0.3302   -0.0695    0.4200 H   0  0  0  0  0  0  0  0  0  0  0  0
    1.3881    1.8671   -0.5264 C   0  0  0  0  0  0  0  0  0  0  0  0
    0.8940    2.2873   -1.3993 H   0  0  0  0  0  0  0  0  0  0  0  0
    2.3645    2.3369   -0.4246 H   0  0  0  0  0  0  0  0  0  0  0  0
    0.7964    2.1165    0.3509 H   0  0  0  0  0  0  0  0  0  0  0  0
    3.9611   -0.2464    0.0990 C   0  0  0  0  0  0  0  0  0  0  0  0
    4.5707   -1.6347    0.2846 C   0  0  0  0  0  0  0  0  0  0  0  0
    5.6562   -1.5712    0.2925 H   0  0  0  0  0  0  0  0  0  0  0  0
    4.2578   -2.2783   -0.5330 H   0  0  0  0  0  0  0  0  0  0  0  0
    4.2386   -2.0731    1.2219 H   0  0  0  0  0  0  0  0  0  0  0  0
    4.4172    0.3406   -1.2327 C   0  0  0  0  0  0  0  0  0  0  0  0
    4.0257    1.3414   -1.3838 H   0  0  0  0  0  0  0  0  0  0  0  0
    4.1009   -0.2973   -2.0524 H   0  0  0  0  0  0  0  0  0  0  0  0
    5.5035    0.3943   -1.2327 H   0  0  0  0  0  0  0  0  0  0  0  0
    4.4563    0.6233    1.1484 O   0  0  0  0  0  0  0  0  0  0  0  0
    3.4385    0.9100    1.9553 C   0  0  1  0  0  3  0  0  0  0  0  0
    3.6674    1.9058    3.0037 C   0  0  0  0  0  0  0  0  0  0  0  0
    2.7807    2.9770    3.0893 C   0  0  0  0  0  0  0  0  0  0  0  0
    1.8786    2.9622    2.4992 H   0  0  0  0  0  0  0  0  0  0  0  0
    3.0630    4.0571    3.9043 C   0  0  0  0  0  0  0  0  0  0  0  0
    2.3662    4.8779    3.9643 H   0  0  0  0  0  0  0  0  0  0  0  0
    4.2531    4.0911    4.6165 C   0  0  0  0  0  0  0  0  0  0  0  0
    4.4966    4.9499    5.2244 H   0  0  0  0  0  0  0  0  0  0  0  0
    5.1216    3.0177    4.5735 C   0  0  0  0  0  0  0  0  0  0  0  0
    6.0310    3.0263    5.1565 H   0  0  0  0  0  0  0  0  0  0  0  0
    4.8240    1.8953    3.8022 C   0  0  0  0  0  0  0  0  0  0  0  0
    5.6529    0.7875    3.8385 N   0  0  0  0  0  0  0  0  0  0  0  0
    6.6336    0.9518    4.0070 H   0  0  0  0  0  0  0  0  0  0  0  0
    5.2357   -0.5287    3.8205 C   0  0  0  0  0  0  0  0  0  0  0  0
    6.1208   -1.5190    3.3927 C   0  0  0  0  0  0  0  0  0  0  0  0
    7.1268   -1.2359    3.1188 H   0  0  0  0  0  0  0  0  0  0  0  0
    5.7203   -2.8373    3.3104 C   0  0  0  0  0  0  0  0  0  0  0  0
    6.4219   -3.5885    2.9800 H   0  0  0  0  0  0  0  0  0  0  0  0
    4.4159   -3.1940    3.6234 C   0  0  0  0  0  0  0  0  0  0  0  0
    4.0890   -4.2164    3.5234 H   0  0  0  0  0  0  0  0  0  0  0  0
    3.5383   -2.2353    4.0920 C   0  0  0  0  0  0  0  0  0  0  0  0
    2.5346   -2.5083    4.3743 H   0  0  0  0  0  0  0  0  0  0  0  0
    3.9448   -0.9096    4.2317 C   0  0  0  0  0  0  0  0  0  0  0  0
    3.0750    0.0010    4.9732 C   0  0  1  0  0  3  0  0  0  0  0  0
    1.8124    0.1283    4.8345 N   0  0  1  0  0  0  0  0  0  0  0  0
    3.6350    0.6852    5.9775 O   0  0  0  0  0  0  0  0  0  0  0  0
    2.6010    1.4467    6.5970 C   0  0  0  0  0  0  0  0  0  0  0  0
    2.8064    2.5076    6.4279 H   0  0  0  0  0  0  0  0  0  0  0  0
    2.6281    1.2396    7.6672 H   0  0  0  0  0  0  0  0  0  0  0  0
    1.3040    0.9768    5.9020 C   0  0  2  0  0  0  0  0  0  0  0  0
    0.7677    1.8150    5.4476 H   0  0  0  0  0  0  0  0  0  0  0  0
    0.3115    0.2107    6.8151 C   0  0  0  0  0  0  0  0  0  0  0  0
   -0.9152   -0.1930    5.9951 C   0  0  0  0  0  0  0  0  0  0  0  0
   -1.6452   -0.6843    6.6344 H   0  0  0  0  0  0  0  0  0  0  0  0
   -0.6434   -0.8859    5.2007 H   0  0  0  0  0  0  0  0  0  0  0  0
   -1.3821    0.6799    5.5460 H   0  0  0  0  0  0  0  0  0  0  0  0
   -0.1441    1.1457    7.9393 C   0  0  0  0  0  0  0  0  0  0  0  0
   -0.5748    2.0535    7.5238 H   0  0  0  0  0  0  0  0  0  0  0  0
    0.6756    1.4237    8.5976 H   0  0  0  0  0  0  0  0  0  0  0  0
   -0.9037    0.6511    8.5395 H   0  0  0  0  0  0  0  0  0  0  0  0
    0.9604   -1.0475    7.3962 C   0  0  0  0  0  0  0  0  0  0  0  0
    0.2556   -1.5530    8.0519 H   0  0  0  0  0  0  0  0  0  0  0  0
    1.8530   -0.8173    7.9744 H   0  0  0  0  0  0  0  0  0  0  0  0
    1.2334   -1.7339    6.5978 H   0  0  0  0  0  0  0  0  0  0  0  0
  2  1  1  0  0  0  0
  3  1  1  0  0  0  0
  4 27  1  0  0  0  0
  4  1  1  1  0  0  0
  5  6  1  1  0  0  0
  5  4  1  0  0  0  0
  7  9  1  0  0  0  0
  7 13  1  0  0  0  0
  7  5  1  0  0  0  0
  8  7  1  0  0  0  0
  9 12  1  0  0  0  0
 10  9  1  0  0  0  0
 11  9  1  0  0  0  0
 13 15  1  0  0  0  0
 13 16  1  0  0  0  0
 14 13  1  0  0  0  0
 17 18  1  0  0  0  0
 17  5  1  0  0  0  0
 17 26  1  0  0  0  0
 18 19  1  0  0  0  0
 18 21  1  0  0  0  0
 20 18  1  0  0  0  0
 22 17  1  0  0  0  0
 23 22  1  0  0  0  0
 24 22  1  0  0  0  0
 25 22  1  0  0  0  0
 27 26  1  6  0  0  0
 27 28  1  0  0  0  0
 28 29  2  0  0  0  0
 28 37  1  0  0  0  0
 29 31  1  0  0  0  0
 30 29  1  0  0  0  0
 31 32  1  0  0  0  0
 31 33  2  0  0  0  0
 33 34  1  0  0  0  0
 35 33  1  0  0  0  0
 35 36  1  0  0  0  0
 37 38  1  0  0  0  0
 37 35  2  0  0  0  0
 38 39  1  0  0  0  0
 40 38  1  0  0  0  0
 40 49  1  0  0  0  0
 41 40  2  0  0  0  0
 42 41  1  0  0  0  0
 43 41  1  0  0  0  0
 43 45  2  0  0  0  0
 44 43  1  0  0  0  0
 45 47  1  0  0  0  0
 46 45  1  0  0  0  0
 47 49  2  0  0  0  0
 47 48  1  0  0  0  0
 50 49  1  1  0  0  0
 50 52  1  0  0  0  0
 51  1  1  6  0  0  0
 51 50  1  0  0  0  0
 51 56  1  0  0  0  0
 52 53  1  0  0  0  0
 53 55  1  0  0  0  0
 54 53  1  0  0  0  0
 56 57  1  6  0  0  0
 56 53  1  0  0  0  0
 56 58  1  0  0  0  0
 58 67  1  0  0  0  0
 58 63  1  0  0  0  0
 59 60  1  0  0  0  0
 59 58  1  0  0  0  0
 61 59  1  0  0  0  0
 62 59  1  0  0  0  0
 63 66  1  0  0  0  0
 63 65  1  0  0  0  0
 64 63  1  0  0  0  0
 67 69  1  0  0  0  0
 67 68  1  0  0  0  0
 70 67  1  0  0  0  0
M  END
$$$$
