CSD_code = VURDUH | q = 0 | S = 0 | Stoichiometry = C9H15Cl2NTi | MND = 8
 OpenBabel04212202113D

 28 28  0  0  1  0  0  0  0  0999 V2000
    5.0909    2.7220    0.9311 Ti  0  0  0  0  0  0  0  0  0  0  0  0
    3.7889    1.0718    1.4877 Cl  0  0  0  0  0  0  0  0  0  0  0  0
    6.3753    2.7220    2.2049 N   0  0  0  0  0  0  0  0  0  0  0  0
    6.6448    3.4304   -0.6584 C   0  0  0  0  0  0  0  0  0  0  0  0
    5.3703    3.8631   -1.0844 C   0  0  0  0  0  0  0  0  0  0  0  0
    4.5818    2.7220   -1.3370 C   0  0  1  0  0  0  0  0  0  0  0  0
    6.3621    2.7220    3.6580 C   0  0  0  0  0  0  0  0  0  0  0  0
    4.9292    2.7220    4.2025 C   0  0  0  0  0  0  0  0  0  0  0  0
    7.0904    3.9862    4.1486 C   0  0  0  0  0  0  0  0  0  0  0  0
    7.5075    4.0681   -0.5021 H   0  0  0  0  0  0  0  0  0  0  0  0
    5.0840    4.8894   -1.2786 H   0  0  0  0  0  0  0  0  0  0  0  0
    3.5782    2.7220   -1.7452 H   0  0  0  0  0  0  0  0  0  0  0  0
    4.3938    3.6106    3.8679 H   0  0  0  0  0  0  0  0  0  0  0  0
    4.9550    2.7220    5.2903 H   0  0  0  0  0  0  0  0  0  0  0  0
    6.6025    4.8654    3.7279 H   0  0  0  0  0  0  0  0  0  0  0  0
    7.0606    4.0488    5.2331 H   0  0  0  0  0  0  0  0  0  0  0  0
    8.1324    3.9779    3.8314 H   0  0  0  0  0  0  0  0  0  0  0  0
    7.3576    2.7220    1.9167 H   0  0  0  0  0  0  0  0  0  0  0  0
    3.7888    4.3720    1.4876 Cl  0  0  0  0  0  0  0  0  0  0  0  0
    6.6448    2.0136   -0.6584 C   0  0  0  0  0  0  0  0  0  0  0  0
    5.3703    1.5809   -1.0844 C   0  0  0  0  0  0  0  0  0  0  0  0
    7.0903    1.4578    4.1486 C   0  0  0  0  0  0  0  0  0  0  0  0
    4.3937    1.8335    3.8679 H   0  0  0  0  0  0  0  0  0  0  0  0
    7.5075    1.3760   -0.5022 H   0  0  0  0  0  0  0  0  0  0  0  0
    5.0841    0.5546   -1.2787 H   0  0  0  0  0  0  0  0  0  0  0  0
    6.6024    0.5786    3.7279 H   0  0  0  0  0  0  0  0  0  0  0  0
    7.0605    1.3952    5.2331 H   0  0  0  0  0  0  0  0  0  0  0  0
    8.1324    1.4660    3.8314 H   0  0  0  0  0  0  0  0  0  0  0  0
  1 19  1  0  0  0  0
  1  2  1  0  0  0  0
  1  3  1  0  0  0  0
  3  7  1  0  0  0  0
  4 10  1  0  0  0  0
  5  4  2  0  0  0  0
  6 12  1  6  0  0  0
  6 21  1  0  0  0  0
  6  5  1  0  0  0  0
  6  1  1  0  0  0  0
  7 22  1  0  0  0  0
  7  9  1  0  0  0  0
  7  8  1  0  0  0  0
  8 14  1  0  0  0  0
  9 16  1  0  0  0  0
 11  5  1  0  0  0  0
 13  8  1  0  0  0  0
 15  9  1  0  0  0  0
 17  9  1  0  0  0  0
 18  3  1  0  0  0  0
 20  4  1  0  0  0  0
 20 24  1  0  0  0  0
 21 20  2  0  0  0  0
 22 27  1  0  0  0  0
 23  8  1  0  0  0  0
 25 21  1  0  0  0  0
 26 22  1  0  0  0  0
 28 22  1  0  0  0  0
M  END
$$$$
