CSD_code = VURGEW | q = 0 | S = 0 | Stoichiometry = C23H26ClCuN2 | MND = 2
 OpenBabel04212202113D

 53 57  0  0  1  0  0  0  0  0999 V2000
    3.4321    3.1373    2.4330 Cu  0  0  0  0  0  0  0  0  0  0  0  0
    3.4206    1.9759    0.7040 Cl  0  0  0  0  0  0  0  0  0  0  0  0
    2.4993    5.0847    4.3518 N   0  0  0  0  0  0  0  0  0  0  0  0
    4.4047    4.2323    4.9543 N   0  0  0  0  0  0  0  0  0  0  0  0
    2.7484    5.7356    5.6292 C   0  0  2  0  0  0  0  0  0  0  0  0
    4.1229    5.1699    6.0293 C   0  0  1  0  0  0  0  0  0  0  0  0
    1.7086    5.3945    6.7342 C   0  0  1  0  0  0  0  0  0  0  0  0
    4.0361    4.4910    7.4226 C   0  0  2  0  0  0  0  0  0  0  0  0
    2.9857    3.4227    7.3233 C   0  0  0  0  0  0  0  0  0  0  0  0
    3.1712    2.0780    7.5766 C   0  0  0  0  0  0  0  0  0  0  0  0
    2.0976    1.2107    7.4449 C   0  0  0  0  0  0  0  0  0  0  0  0
    0.8533    1.6907    7.0749 C   0  0  0  0  0  0  0  0  0  0  0  0
    0.6637    3.0422    6.8307 C   0  0  0  0  0  0  0  0  0  0  0  0
    1.7346    3.9069    6.9477 C   0  0  0  0  0  0  0  0  0  0  0  0
    3.5030    5.5394    8.3588 C   0  0  0  0  0  0  0  0  0  0  0  0
    4.1340    6.0221    9.4879 C   0  0  0  0  0  0  0  0  0  0  0  0
    3.5029    6.9922   10.2527 C   0  0  0  0  0  0  0  0  0  0  0  0
    2.2578    7.4733    9.8866 C   0  0  0  0  0  0  0  0  0  0  0  0
    1.6239    6.9916    8.7506 C   0  0  0  0  0  0  0  0  0  0  0  0
    2.2482    6.0225    7.9907 C   0  0  0  0  0  0  0  0  0  0  0  0
    3.4597    4.2201    4.0142 C   0  0  1  0  0  3  0  0  0  0  0  0
    1.3950    5.4153    3.4663 C   0  0  0  0  0  0  0  0  0  0  0  0
    0.1206    4.6419    3.8063 C   0  0  0  0  0  0  0  0  0  0  0  0
    1.1385    6.9188    3.4200 C   0  0  0  0  0  0  0  0  0  0  0  0
    5.6795    3.5384    4.8849 C   0  0  0  0  0  0  0  0  0  0  0  0
    5.4878    2.0306    4.7426 C   0  0  0  0  0  0  0  0  0  0  0  0
    6.5276    4.0967    3.7416 C   0  0  0  0  0  0  0  0  0  0  0  0
    2.7741    6.8224    5.5025 H   0  0  0  0  0  0  0  0  0  0  0  0
    4.9008    5.9433    6.0629 H   0  0  0  0  0  0  0  0  0  0  0  0
    0.7183    5.7707    6.4800 H   0  0  0  0  0  0  0  0  0  0  0  0
    5.0046    4.1019    7.7390 H   0  0  0  0  0  0  0  0  0  0  0  0
    4.1388    1.7097    7.8867 H   0  0  0  0  0  0  0  0  0  0  0  0
    2.2330    0.1574    7.6388 H   0  0  0  0  0  0  0  0  0  0  0  0
    0.0210    1.0095    6.9818 H   0  0  0  0  0  0  0  0  0  0  0  0
   -0.3144    3.4120    6.5617 H   0  0  0  0  0  0  0  0  0  0  0  0
    5.1055    5.6455    9.7735 H   0  0  0  0  0  0  0  0  0  0  0  0
    3.9871    7.3723   11.1396 H   0  0  0  0  0  0  0  0  0  0  0  0
    1.7747    8.2279   10.4888 H   0  0  0  0  0  0  0  0  0  0  0  0
    0.6515    7.3673    8.4666 H   0  0  0  0  0  0  0  0  0  0  0  0
    1.7243    5.0845    2.4722 H   0  0  0  0  0  0  0  0  0  0  0  0
   -0.5813    4.7241    2.9808 H   0  0  0  0  0  0  0  0  0  0  0  0
    0.3557    3.5912    3.9561 H   0  0  0  0  0  0  0  0  0  0  0  0
   -0.3584    5.0317    4.6998 H   0  0  0  0  0  0  0  0  0  0  0  0
    0.4099    7.1300    2.6422 H   0  0  0  0  0  0  0  0  0  0  0  0
    0.7412    7.2843    4.3645 H   0  0  0  0  0  0  0  0  0  0  0  0
    2.0530    7.4588    3.1852 H   0  0  0  0  0  0  0  0  0  0  0  0
    6.1899    3.7418    5.8327 H   0  0  0  0  0  0  0  0  0  0  0  0
    6.4478    1.5275    4.8225 H   0  0  0  0  0  0  0  0  0  0  0  0
    4.8221    1.6554    5.5157 H   0  0  0  0  0  0  0  0  0  0  0  0
    5.0524    1.7990    3.7721 H   0  0  0  0  0  0  0  0  0  0  0  0
    7.5028    3.6189    3.7331 H   0  0  0  0  0  0  0  0  0  0  0  0
    6.0352    3.9058    2.7907 H   0  0  0  0  0  0  0  0  0  0  0  0
    6.6656    5.1701    3.8535 H   0  0  0  0  0  0  0  0  0  0  0  0
  2  1  1  0  0  0  0
  3  5  1  0  0  0  0
  4  6  1  0  0  0  0
  5 28  1  6  0  0  0
  5  6  1  0  0  0  0
  5  7  1  0  0  0  0
  6 29  1  1  0  0  0
  6  8  1  0  0  0  0
  7 30  1  6  0  0  0
  7 14  1  0  0  0  0
  7 20  1  0  0  0  0
  8 31  1  1  0  0  0
  8 15  1  0  0  0  0
  9  8  1  0  0  0  0
  9 10  1  0  0  0  0
 10 32  1  0  0  0  0
 11 10  2  0  0  0  0
 11 33  1  0  0  0  0
 12 11  1  0  0  0  0
 13 14  1  0  0  0  0
 13 12  2  0  0  0  0
 14  9  2  0  0  0  0
 15 16  1  0  0  0  0
 16 36  1  0  0  0  0
 16 17  2  0  0  0  0
 17 37  1  0  0  0  0
 18 17  1  0  0  0  0
 18 38  1  0  0  0  0
 19 18  2  0  0  0  0
 20 15  2  0  0  0  0
 20 19  1  0  0  0  0
 21  1  1  1  0  0  0
 21  3  1  0  0  0  0
 21  4  1  0  0  0  0
 22 23  1  0  0  0  0
 22  3  1  0  0  0  0
 23 42  1  0  0  0  0
 23 43  1  0  0  0  0
 24 22  1  0  0  0  0
 24 45  1  0  0  0  0
 25  4  1  0  0  0  0
 25 47  1  0  0  0  0
 26 48  1  0  0  0  0
 26 25  1  0  0  0  0
 26 49  1  0  0  0  0
 27 53  1  0  0  0  0
 27 25  1  0  0  0  0
 34 12  1  0  0  0  0
 35 13  1  0  0  0  0
 39 19  1  0  0  0  0
 40 22  1  0  0  0  0
 41 23  1  0  0  0  0
 44 24  1  0  0  0  0
 46 24  1  0  0  0  0
 50 26  1  0  0  0  0
 51 27  1  0  0  0  0
 52 27  1  0  0  0  0
M  END
$$$$
