CSD_code = VURKAV | q = 0 | S = 0 | Stoichiometry = C26H32Cl2N3V | MND = 5
 OpenBabel04212202113D

 64 67  0  0  1  0  0  0  0  0999 V2000
    2.6890    3.4958   10.1811 V   0  0  0  0  0  0  0  0  0  0  0  0
    1.4267    1.9029    9.6071 Cl  0  0  0  0  0  0  0  0  0  0  0  0
    4.5481    3.0581   11.1676 Cl  0  0  0  0  0  0  0  0  0  0  0  0
    2.5364    4.8419    9.0507 N   0  0  0  0  0  0  0  0  0  0  0  0
    3.8708    2.7065    8.3879 N   0  0  0  0  0  0  0  0  0  0  0  0
    1.9497    4.1501   11.4510 N   0  0  0  0  0  2  0  0  0  0  0  0
    2.5943    4.5674    7.6362 C   0  0  0  0  0  0  0  0  0  0  0  0
    3.5149    3.4213    7.3335 C   0  0  2  0  0  3  0  0  0  0  0  0
    3.9492    3.1135    6.0478 C   0  0  0  0  0  0  0  0  0  0  0  0
    4.7758    2.0172    5.8785 C   0  0  0  0  0  0  0  0  0  0  0  0
    5.1382    1.2697    6.9904 C   0  0  0  0  0  0  0  0  0  0  0  0
    4.6592    1.6563    8.2305 C   0  0  0  0  0  0  0  0  0  0  0  0
    2.4062    6.2073    9.3601 C   0  0  0  0  0  0  0  0  0  0  0  0
    3.5598    7.0106    9.3766 C   0  0  0  0  0  0  0  0  0  0  0  0
    3.4300    8.3614    9.6698 C   0  0  0  0  0  0  0  0  0  0  0  0
    2.1928    8.9133    9.9424 C   0  0  0  0  0  0  0  0  0  0  0  0
    1.0613    8.1195    9.9144 C   0  0  0  0  0  0  0  0  0  0  0  0
    1.1444    6.7654    9.6217 C   0  0  0  0  0  0  0  0  0  0  0  0
    4.9223    6.4337    9.0537 C   0  0  0  0  0  0  0  0  0  0  0  0
    5.9251    6.6636   10.1861 C   0  0  0  0  0  0  0  0  0  0  0  0
    5.4548    7.0345    7.7482 C   0  0  0  0  0  0  0  0  0  0  0  0
   -0.1060    5.9214    9.5205 C   0  0  0  0  0  0  0  0  0  0  0  0
   -1.0842    6.1890   10.6655 C   0  0  0  0  0  0  0  0  0  0  0  0
   -0.7937    6.1868    8.1759 C   0  0  0  0  0  0  0  0  0  0  0  0
    1.3792    4.5948   12.5661 C   0  0  0  0  0  0  0  0  0  0  0  0
    1.9076    5.7080   13.2664 C   0  0  0  0  0  0  0  0  0  0  0  0
    1.2739    6.1509   14.4142 C   0  0  0  0  0  0  0  0  0  0  0  0
    0.1418    5.5186   14.8989 C   0  0  0  0  0  0  0  0  0  0  0  0
   -0.3642    4.4116   14.2358 C   0  0  0  0  0  0  0  0  0  0  0  0
    0.2303    3.9360   13.0828 C   0  0  0  0  0  0  0  0  0  0  0  0
    3.1396    6.3904   12.7639 C   0  0  0  0  0  0  0  0  0  0  0  0
   -0.3030    2.7354   12.3714 C   0  0  0  0  0  0  0  0  0  0  0  0
    2.8990    5.4594    7.0688 H   0  0  0  0  0  0  0  0  0  0  0  0
    1.5849    4.2839    7.2815 H   0  0  0  0  0  0  0  0  0  0  0  0
    3.6424    3.7195    5.2087 H   0  0  0  0  0  0  0  0  0  0  0  0
    5.1334    1.7486    4.8953 H   0  0  0  0  0  0  0  0  0  0  0  0
    5.7792    0.4075    6.8969 H   0  0  0  0  0  0  0  0  0  0  0  0
    4.9170    1.1156    9.1333 H   0  0  0  0  0  0  0  0  0  0  0  0
    4.3057    8.9926    9.6819 H   0  0  0  0  0  0  0  0  0  0  0  0
    2.1089    9.9663   10.1681 H   0  0  0  0  0  0  0  0  0  0  0  0
    0.0994    8.5655   10.1129 H   0  0  0  0  0  0  0  0  0  0  0  0
    4.8264    5.3482    8.9287 H   0  0  0  0  0  0  0  0  0  0  0  0
    6.0210    7.7193   10.4260 H   0  0  0  0  0  0  0  0  0  0  0  0
    6.9029    6.2882    9.8912 H   0  0  0  0  0  0  0  0  0  0  0  0
    5.6125    6.1292   11.0791 H   0  0  0  0  0  0  0  0  0  0  0  0
    6.3879    6.5518    7.4653 H   0  0  0  0  0  0  0  0  0  0  0  0
    4.7415    6.9049    6.9359 H   0  0  0  0  0  0  0  0  0  0  0  0
    5.6418    8.0994    7.8653 H   0  0  0  0  0  0  0  0  0  0  0  0
    0.1942    4.8655    9.5660 H   0  0  0  0  0  0  0  0  0  0  0  0
   -1.5523    7.1652   10.5639 H   0  0  0  0  0  0  0  0  0  0  0  0
   -1.8717    5.4389   10.6597 H   0  0  0  0  0  0  0  0  0  0  0  0
   -0.5720    6.1441   11.6227 H   0  0  0  0  0  0  0  0  0  0  0  0
   -0.1156    5.9995    7.3458 H   0  0  0  0  0  0  0  0  0  0  0  0
   -1.6634    5.5429    8.0650 H   0  0  0  0  0  0  0  0  0  0  0  0
   -1.1208    7.2232    8.1175 H   0  0  0  0  0  0  0  0  0  0  0  0
    1.6814    7.0028   14.9395 H   0  0  0  0  0  0  0  0  0  0  0  0
   -0.3393    5.8791   15.7957 H   0  0  0  0  0  0  0  0  0  0  0  0
   -1.2384    3.9081   14.6233 H   0  0  0  0  0  0  0  0  0  0  0  0
    3.6647    5.7328   12.0720 H   0  0  0  0  0  0  0  0  0  0  0  0
    2.8756    7.3067   12.2359 H   0  0  0  0  0  0  0  0  0  0  0  0
    3.7950    6.6506   13.5927 H   0  0  0  0  0  0  0  0  0  0  0  0
    0.4688    1.9636   12.3164 H   0  0  0  0  0  0  0  0  0  0  0  0
   -1.1724    2.3334   12.8861 H   0  0  0  0  0  0  0  0  0  0  0  0
   -0.5772    2.9920   11.3471 H   0  0  0  0  0  0  0  0  0  0  0  0
  1  3  1  0  0  0  0
  1  6  1  0  0  0  0
  2  1  1  0  0  0  0
  4 13  1  0  0  0  0
  4  1  1  0  0  0  0
  5  1  1  0  0  0  0
  6 25  1  0  0  0  0
  7  4  1  0  0  0  0
  8  9  1  6  0  0  0
  8  7  1  0  0  0  0
  8  5  1  0  0  0  0
 10  9  2  0  0  0  0
 10 11  1  0  0  0  0
 11 12  2  0  0  0  0
 12  5  1  0  0  0  0
 12 38  1  0  0  0  0
 13 14  2  0  0  0  0
 13 18  1  0  0  0  0
 14 15  1  0  0  0  0
 15 39  1  0  0  0  0
 15 16  2  0  0  0  0
 16 40  1  0  0  0  0
 17 16  1  0  0  0  0
 17 41  1  0  0  0  0
 18 17  2  0  0  0  0
 19 14  1  0  0  0  0
 19 20  1  0  0  0  0
 20 43  1  0  0  0  0
 20 45  1  0  0  0  0
 21 48  1  0  0  0  0
 21 19  1  0  0  0  0
 22 49  1  0  0  0  0
 22 18  1  0  0  0  0
 22 23  1  0  0  0  0
 23 52  1  0  0  0  0
 24 22  1  0  0  0  0
 25 30  2  0  0  0  0
 25 26  1  0  0  0  0
 26 27  2  0  0  0  0
 27 28  1  0  0  0  0
 27 56  1  0  0  0  0
 28 57  1  0  0  0  0
 29 58  1  0  0  0  0
 29 28  2  0  0  0  0
 30 29  1  0  0  0  0
 31 26  1  0  0  0  0
 31 61  1  0  0  0  0
 32 63  1  0  0  0  0
 32 30  1  0  0  0  0
 33  7  1  0  0  0  0
 34  7  1  0  0  0  0
 35  9  1  0  0  0  0
 36 10  1  0  0  0  0
 37 11  1  0  0  0  0
 42 19  1  0  0  0  0
 44 20  1  0  0  0  0
 46 21  1  0  0  0  0
 47 21  1  0  0  0  0
 50 23  1  0  0  0  0
 51 23  1  0  0  0  0
 53 24  1  0  0  0  0
 54 24  1  0  0  0  0
 55 24  1  0  0  0  0
 59 31  1  0  0  0  0
 60 31  1  0  0  0  0
 62 32  1  0  0  0  0
 64 32  1  0  0  0  0
M  END
$$$$
