CSD_code = VUSYEP | q = 0 | S = 0 | Stoichiometry = C26H29Cl2NOPd | MND = 4
 OpenBabel04212202113D

 60 62  0  0  1  0  0  0  0  0999 V2000
    3.6408   17.1562    7.9031 Pd  0  0  0  0  0  0  0  0  0  0  0  0
    3.0298   18.7192    9.3777 Cl  0  0  0  0  0  0  0  0  0  0  0  0
    5.6883   18.0037    7.6407 Cl  0  0  0  0  0  0  0  0  0  0  0  0
    1.5563   16.3809    7.8021 O   0  0  0  0  0  0  0  0  0  0  0  0
    3.8476   15.7428    6.5236 N   0  0  0  0  0  0  0  0  0  0  0  0
    2.7366   15.3491    6.0256 C   0  0  2  0  0  3  0  0  0  0  0  0
    7.0474   13.9223    6.7868 C   0  0  0  0  0  0  0  0  0  0  0  0
    7.6427   13.4141    7.5298 H   0  0  0  0  0  0  0  0  0  0  0  0
    1.4819   16.1474    6.3903 C   0  0  0  0  0  0  0  0  0  0  0  0
    6.4369   13.8932    9.5532 C   0  0  0  0  0  0  0  0  0  0  0  0
    5.0865   15.1673    6.1945 C   0  0  0  0  0  0  0  0  0  0  0  0
    5.5018   14.6573    8.6400 C   0  0  0  0  0  0  0  0  0  0  0  0
    5.6473   15.7333    8.8662 H   0  0  0  0  0  0  0  0  0  0  0  0
    5.8655   14.5321    7.1750 C   0  0  0  0  0  0  0  0  0  0  0  0
    6.2551   12.5440    9.8296 C   0  0  0  0  0  0  0  0  0  0  0  0
    5.4227   12.0112    9.3944 H   0  0  0  0  0  0  0  0  0  0  0  0
    5.5823   15.3181    4.8916 C   0  0  0  0  0  0  0  0  0  0  0  0
    7.5100   14.5602   10.1330 C   0  0  0  0  0  0  0  0  0  0  0  0
    7.6589   15.6097    9.9229 H   0  0  0  0  0  0  0  0  0  0  0  0
    4.0640   14.3214    8.9606 C   0  0  0  0  0  0  0  0  0  0  0  0
    7.5053   13.9734    5.4776 C   0  0  0  0  0  0  0  0  0  0  0  0
    6.7817   14.7120    4.5546 C   0  0  0  0  0  0  0  0  0  0  0  0
    7.1620   14.8318    3.5504 H   0  0  0  0  0  0  0  0  0  0  0  0
    8.7717   13.2757    5.0887 C   0  0  0  0  0  0  0  0  0  0  0  0
    8.5623   12.2355    4.8361 H   0  0  0  0  0  0  0  0  0  0  0  0
    9.4825   13.2837    5.9115 H   0  0  0  0  0  0  0  0  0  0  0  0
    9.2265   13.7495    4.2225 H   0  0  0  0  0  0  0  0  0  0  0  0
    7.1318   11.8749   10.6658 C   0  0  0  0  0  0  0  0  0  0  0  0
    6.9781   10.8257   10.8739 H   0  0  0  0  0  0  0  0  0  0  0  0
    3.3911   15.0755    9.9265 C   0  0  0  0  0  0  0  0  0  0  0  0
    3.9104   15.8803   10.4482 H   0  0  0  0  0  0  0  0  0  0  0  0
    8.2012   12.5450   11.2351 C   0  0  0  0  0  0  0  0  0  0  0  0
    8.8844   12.0211   11.8873 H   0  0  0  0  0  0  0  0  0  0  0  0
    2.5917   14.1540    5.1394 C   0  0  0  0  0  0  0  0  0  0  0  0
    2.1444   14.4283    4.1851 H   0  0  0  0  0  0  0  0  0  0  0  0
    1.9383   13.4257    5.6163 H   0  0  0  0  0  0  0  0  0  0  0  0
    3.5598   13.6933    4.9608 H   0  0  0  0  0  0  0  0  0  0  0  0
    2.0869   14.7568   10.2733 C   0  0  0  0  0  0  0  0  0  0  0  0
    1.5749   15.3413   11.0229 H   0  0  0  0  0  0  0  0  0  0  0  0
    0.1729   15.4070    6.1053 C   0  0  0  0  0  0  0  0  0  0  0  0
   -0.6635   16.0281    6.4204 H   0  0  0  0  0  0  0  0  0  0  0  0
    0.1384   14.4822    6.6754 H   0  0  0  0  0  0  0  0  0  0  0  0
    0.0575   15.1894    5.0485 H   0  0  0  0  0  0  0  0  0  0  0  0
    3.4088   13.2544    8.3569 C   0  0  0  0  0  0  0  0  0  0  0  0
    3.9217   12.6710    7.6036 H   0  0  0  0  0  0  0  0  0  0  0  0
    1.4411   13.6962    9.6585 C   0  0  0  0  0  0  0  0  0  0  0  0
    0.4232   13.4527    9.9260 H   0  0  0  0  0  0  0  0  0  0  0  0
    8.3881   13.8906   10.9662 C   0  0  0  0  0  0  0  0  0  0  0  0
    9.2188   14.4207   11.4086 H   0  0  0  0  0  0  0  0  0  0  0  0
    4.8842   16.2059    3.9028 C   0  0  0  0  0  0  0  0  0  0  0  0
    4.5179   17.1013    4.4062 H   0  0  0  0  0  0  0  0  0  0  0  0
    4.0429   15.7075    3.4220 H   0  0  0  0  0  0  0  0  0  0  0  0
    5.5821   16.5097    3.1270 H   0  0  0  0  0  0  0  0  0  0  0  0
    1.5176   17.4856    5.6268 C   0  0  0  0  0  0  0  0  0  0  0  0
    0.6144   18.0581    5.8362 H   0  0  0  0  0  0  0  0  0  0  0  0
    1.5775   17.3124    4.5544 H   0  0  0  0  0  0  0  0  0  0  0  0
    2.3934   18.0833    5.9435 H   0  0  0  0  0  0  0  0  0  0  0  0
    2.1035   12.9470    8.7017 C   0  0  0  0  0  0  0  0  0  0  0  0
    1.6042   12.1143    8.2247 H   0  0  0  0  0  0  0  0  0  0  0  0
    0.9931   17.1330    8.0505 H   0  0  0  0  0  0  0  0  0  0  0  0
  1  2  1  0  0  0  0
  3  1  1  0  0  0  0
  4 60  1  0  0  0  0
  5  1  1  0  0  0  0
  6 34  1  1  0  0  0
  6  9  1  0  0  0  0
  6  5  1  0  0  0  0
  7 14  1  0  0  0  0
  7  8  1  0  0  0  0
  9  4  1  0  0  0  0
 10 15  2  0  0  0  0
 10 18  1  0  0  0  0
 11  5  1  0  0  0  0
 11 14  2  0  0  0  0
 12 13  1  0  0  0  0
 12 20  1  0  0  0  0
 12 10  1  0  0  0  0
 14 12  1  0  0  0  0
 15 28  1  0  0  0  0
 16 15  1  0  0  0  0
 17 11  1  0  0  0  0
 18 48  2  0  0  0  0
 19 18  1  0  0  0  0
 20 30  1  0  0  0  0
 21  7  2  0  0  0  0
 22 17  2  0  0  0  0
 22 21  1  0  0  0  0
 23 22  1  0  0  0  0
 24 21  1  0  0  0  0
 24 26  1  0  0  0  0
 25 24  1  0  0  0  0
 27 24  1  0  0  0  0
 28 29  1  0  0  0  0
 28 32  2  0  0  0  0
 30 38  2  0  0  0  0
 30 31  1  0  0  0  0
 32 33  1  0  0  0  0
 34 36  1  0  0  0  0
 35 34  1  0  0  0  0
 37 34  1  0  0  0  0
 38 39  1  0  0  0  0
 40  9  1  0  0  0  0
 40 41  1  0  0  0  0
 40 42  1  0  0  0  0
 43 40  1  0  0  0  0
 44 58  1  0  0  0  0
 44 20  2  0  0  0  0
 45 44  1  0  0  0  0
 46 47  1  0  0  0  0
 46 38  1  0  0  0  0
 48 32  1  0  0  0  0
 48 49  1  0  0  0  0
 50 51  1  0  0  0  0
 50 17  1  0  0  0  0
 52 50  1  0  0  0  0
 53 50  1  0  0  0  0
 54 55  1  0  0  0  0
 54 57  1  0  0  0  0
 54  9  1  0  0  0  0
 56 54  1  0  0  0  0
 58 46  2  0  0  0  0
 59 58  1  0  0  0  0
M  END
$$$$
