CSD_code = VUSZUF | q = 0 | S = 0 | Stoichiometry = C20H28CdI2N4O4 | MND = 6
 OpenBabel04212202113D

 59 58  0  0  0  0  0  0  0  0999 V2000
    7.8822    4.3253    6.7097 Cd  0  0  0  0  0  0  0  0  0  0  0  0
    5.9886    3.1985    5.1155 I   0  0  0  0  0  0  0  0  0  0  0  0
    8.2146    6.1262    5.0066 N   0  0  0  0  0  0  0  0  0  0  0  0
    6.2576    9.8267   -1.1752 N   0  0  0  0  0  0  0  0  0  0  0  0
   10.0282    3.0413    5.7411 O   0  0  0  0  0  0  0  0  0  0  0  0
    8.4622   10.3045    2.2825 O   0  0  0  0  0  0  0  0  0  0  0  0
    8.1215    7.4046    5.3558 C   0  0  0  0  0  3  0  0  0  0  0  0
    8.1277    7.6131    6.4190 H   0  0  0  0  0  0  0  0  0  0  0  0
    8.0279    8.4313    4.4340 C   0  0  0  0  0  0  0  0  0  0  0  0
    7.9591    9.4610    4.7483 H   0  0  0  0  0  0  0  0  0  0  0  0
    8.2412    5.8325    3.7118 C   0  0  0  0  0  0  0  0  0  0  0  0
    8.3336    4.7825    3.4608 H   0  0  0  0  0  0  0  0  0  0  0  0
    8.1476    6.7864    2.7148 C   0  0  0  0  0  0  0  0  0  0  0  0
    8.1890    6.4892    1.6785 H   0  0  0  0  0  0  0  0  0  0  0  0
    8.0196    8.1242    3.0765 C   0  0  0  0  0  0  0  0  0  0  0  0
    7.9086    9.2324    2.0727 C   0  0  0  0  0  0  0  0  0  0  0  0
    7.1114    8.9407    0.9094 C   0  0  0  0  0  0  0  0  0  0  0  0
    6.6205    7.9845    0.8507 H   0  0  0  0  0  0  0  0  0  0  0  0
    6.9836    9.8892   -0.0544 C   0  0  0  0  0  0  0  0  0  0  0  0
    7.5253   10.8138    0.1046 H   0  0  0  0  0  0  0  0  0  0  0  0
    6.3353   10.8529   -2.1812 C   0  0  0  0  0  0  0  0  0  0  0  0
    6.9237   11.6906   -1.8144 H   0  0  0  0  0  0  0  0  0  0  0  0
    5.3342   11.2118   -2.4338 H   0  0  0  0  0  0  0  0  0  0  0  0
    6.8043   10.4685   -3.0925 H   0  0  0  0  0  0  0  0  0  0  0  0
    5.5005    8.6455   -1.5106 C   0  0  0  0  0  0  0  0  0  0  0  0
    6.1537    7.8349   -1.8482 H   0  0  0  0  0  0  0  0  0  0  0  0
    4.7977    8.8822   -2.3068 H   0  0  0  0  0  0  0  0  0  0  0  0
    4.9399    8.3010   -0.6417 H   0  0  0  0  0  0  0  0  0  0  0  0
   10.4244    2.4957    5.0567 H   0  0  0  0  0  0  0  0  0  0  0  0
   10.7472    3.4503    6.2397 H   0  0  0  0  0  0  0  0  0  0  0  0
    9.7765    5.4528    8.3033 I   0  0  0  0  0  0  0  0  0  0  0  0
    7.5558    2.5213    8.4101 N   0  0  0  0  0  0  0  0  0  0  0  0
    9.5109   -1.1910   14.5853 N   0  0  0  0  0  0  0  0  0  0  0  0
    5.7384    5.6067    7.6826 O   0  0  0  0  0  0  0  0  0  0  0  0
    7.3061   -1.6620   11.1263 O   0  0  0  0  0  0  0  0  0  0  0  0
    7.6483    1.2436    8.0584 C   0  0  0  0  0  3  0  0  0  0  0  0
    7.6410    1.0372    6.9948 H   0  0  0  0  0  0  0  0  0  0  0  0
    7.7417    0.2150    8.9781 C   0  0  0  0  0  0  0  0  0  0  0  0
    7.8096   -0.8141    8.6616 H   0  0  0  0  0  0  0  0  0  0  0  0
    7.5300    2.8125    9.7055 C   0  0  0  0  0  0  0  0  0  0  0  0
    7.4385    3.8620    9.9587 H   0  0  0  0  0  0  0  0  0  0  0  0
    7.6235    1.8565   10.7006 C   0  0  0  0  0  0  0  0  0  0  0  0
    7.5830    2.1517   11.7375 H   0  0  0  0  0  0  0  0  0  0  0  0
    7.7505    0.5194   10.3363 C   0  0  0  0  0  0  0  0  0  0  0  0
    7.8606   -0.5908   11.3380 C   0  0  0  0  0  0  0  0  0  0  0  0
    8.6582   -0.3019   12.5017 C   0  0  0  0  0  0  0  0  0  0  0  0
    9.1502    0.6538   12.5618 H   0  0  0  0  0  0  0  0  0  0  0  0
    8.7848   -1.2517   13.4643 C   0  0  0  0  0  0  0  0  0  0  0  0
    8.2421   -2.1755   13.3045 H   0  0  0  0  0  0  0  0  0  0  0  0
    9.4320   -2.2179   15.5905 C   0  0  0  0  0  0  0  0  0  0  0  0
    8.8427   -3.0547   15.2230 H   0  0  0  0  0  0  0  0  0  0  0  0
   10.4327   -2.5781   15.8427 H   0  0  0  0  0  0  0  0  0  0  0  0
    8.9634   -1.8338   16.5020 H   0  0  0  0  0  0  0  0  0  0  0  0
   10.2693   -0.0110   14.9218 C   0  0  0  0  0  0  0  0  0  0  0  0
    9.6172    0.7999   15.2605 H   0  0  0  0  0  0  0  0  0  0  0  0
   10.9722   -0.2493   15.7174 H   0  0  0  0  0  0  0  0  0  0  0  0
   10.8300    0.3339   14.0531 H   0  0  0  0  0  0  0  0  0  0  0  0
    5.3464    6.1554    8.3669 H   0  0  0  0  0  0  0  0  0  0  0  0
    5.0166    5.1992    7.1871 H   0  0  0  0  0  0  0  0  0  0  0  0
  1 31  1  0  0  0  0
  1 32  1  0  0  0  0
  2  1  1  0  0  0  0
  3  7  1  0  0  0  0
  3  1  1  0  0  0  0
  4 19  1  0  0  0  0
  5 30  1  0  0  0  0
  7  8  1  0  0  0  0
  9 10  1  0  0  0  0
  9  7  1  0  0  0  0
 11  3  1  0  0  0  0
 12 11  1  0  0  0  0
 13 15  1  0  0  0  0
 13 11  2  0  0  0  0
 14 13  1  0  0  0  0
 15  9  2  0  0  0  0
 16  6  2  0  0  0  0
 16 15  1  0  0  0  0
 17 16  1  0  0  0  0
 18 17  1  0  0  0  0
 19 20  1  0  0  0  0
 19 17  2  0  0  0  0
 21 22  1  0  0  0  0
 21  4  1  0  0  0  0
 23 21  1  0  0  0  0
 24 21  1  0  0  0  0
 25  4  1  0  0  0  0
 25 28  1  0  0  0  0
 26 25  1  0  0  0  0
 27 25  1  0  0  0  0
 29  5  1  0  0  0  0
 32 40  1  0  0  0  0
 33 54  1  0  0  0  0
 33 50  1  0  0  0  0
 34 58  1  0  0  0  0
 35 45  2  0  0  0  0
 36 32  1  0  0  0  0
 36 38  1  0  0  0  0
 37 36  1  0  0  0  0
 38 44  2  0  0  0  0
 39 38  1  0  0  0  0
 40 41  1  0  0  0  0
 40 42  2  0  0  0  0
 42 43  1  0  0  0  0
 44 42  1  0  0  0  0
 44 45  1  0  0  0  0
 45 46  1  0  0  0  0
 46 47  1  0  0  0  0
 46 48  2  0  0  0  0
 48 33  1  0  0  0  0
 49 48  1  0  0  0  0
 50 52  1  0  0  0  0
 50 53  1  0  0  0  0
 51 50  1  0  0  0  0
 54 55  1  0  0  0  0
 54 56  1  0  0  0  0
 57 54  1  0  0  0  0
 59 34  1  0  0  0  0
M  END
$$$$
