CSD_code = VUTKIG | q = 0 | S = 0 | Stoichiometry = C16H19Cl2OPPtS | MND = 4
 OpenBabel04212202113D

 41 44  0  0  1  0  0  0  0  0999 V2000
    5.7733    2.0296   10.0722 Pt  0  0  0  0  0  0  0  0  0  0  0  0
    6.6527    3.0223    5.7725 C   0  0  0  0  0  0  0  0  0  0  0  0
    7.6109    2.5359    5.6803 H   0  0  0  0  0  0  0  0  0  0  0  0
    6.1089    3.2323    4.8670 H   0  0  0  0  0  0  0  0  0  0  0  0
    6.1995    3.3215    6.9710 C   0  0  0  0  0  0  0  0  0  0  0  0
    5.2405    3.7621    7.1880 H   0  0  0  0  0  0  0  0  0  0  0  0
    7.6125    4.5512    9.0564 C   0  0  2  0  0  0  0  0  0  0  0  0
    8.0390    5.1013    8.2185 H   0  0  0  0  0  0  0  0  0  0  0  0
    8.5972    4.3044   10.2068 C   0  0  0  0  0  0  0  0  0  0  0  0
    9.5049    4.8999   10.0983 H   0  0  0  0  0  0  0  0  0  0  0  0
    8.8916    3.2506   10.2230 H   0  0  0  0  0  0  0  0  0  0  0  0
    7.8462    4.6948   11.4998 C   0  0  1  0  0  0  0  0  0  0  0  0
    8.3409    4.3432   12.4034 H   0  0  0  0  0  0  0  0  0  0  0  0
    7.6115    6.1858   11.4245 C   0  0  0  0  0  0  0  0  0  0  0  0
    8.3380    7.1123   12.3365 C   0  0  0  0  0  0  0  0  0  0  0  0
    9.3855    7.1847   12.0412 H   0  0  0  0  0  0  0  0  0  0  0  0
    8.3095    6.7429   13.3597 H   0  0  0  0  0  0  0  0  0  0  0  0
    7.9051    8.1080   12.3134 H   0  0  0  0  0  0  0  0  0  0  0  0
    6.8090    6.4728   10.3955 C   0  0  0  0  0  0  0  0  0  0  0  0
    6.3599    7.7957    9.8821 C   0  0  0  0  0  0  0  0  0  0  0  0
    6.7354    8.6070   10.4980 H   0  0  0  0  0  0  0  0  0  0  0  0
    5.2709    7.8404    9.8694 H   0  0  0  0  0  0  0  0  0  0  0  0
    6.7124    7.9436    8.8611 H   0  0  0  0  0  0  0  0  0  0  0  0
    6.3803    5.2094    9.6849 C   0  0  2  0  0  0  0  0  0  0  0  0
    5.5506    5.3476    8.9914 H   0  0  0  0  0  0  0  0  0  0  0  0
    4.9429    4.7633   12.2076 C   0  0  0  0  0  0  0  0  0  0  0  0
    5.2540    5.3385   13.4331 C   0  0  0  0  0  0  0  0  0  0  0  0
    6.2777    5.3669   13.7737 H   0  0  0  0  0  0  0  0  0  0  0  0
    4.2409    5.8609   14.2175 C   0  0  0  0  0  0  0  0  0  0  0  0
    4.4774    6.3092   15.1710 H   0  0  0  0  0  0  0  0  0  0  0  0
    2.9253    5.8012   13.7883 C   0  0  0  0  0  0  0  0  0  0  0  0
    2.1393    6.2064   14.4077 H   0  0  0  0  0  0  0  0  0  0  0  0
    2.6117    5.2077   12.5749 C   0  0  0  0  0  0  0  0  0  0  0  0
    1.5835    5.1456   12.2523 H   0  0  0  0  0  0  0  0  0  0  0  0
    3.6169    4.6817   11.7875 C   0  0  0  0  0  0  0  0  0  0  0  0
    3.3904    4.1820   10.8535 H   0  0  0  0  0  0  0  0  0  0  0  0
    5.3303    0.2603    8.7388 Cl  0  0  0  0  0  0  0  0  0  0  0  0
    4.3859    1.2694   11.6712 Cl  0  0  0  0  0  0  0  0  0  0  0  0
    8.3571    2.2247    7.9843 O   0  0  0  0  0  1  0  0  0  0  0  0
    6.1554    4.0155   11.1063 P   0  0  1  0  0  4  0  0  0  0  0  0
    7.1361    2.8581    8.4280 S   0  0  1  0  0  0  0  0  0  0  0  0
  1 40  1  0  0  0  0
  1 38  1  0  0  0  0
  2  5  2  0  0  0  0
  3  2  1  0  0  0  0
  4  2  1  0  0  0  0
  5  6  1  0  0  0  0
  5 41  1  0  0  0  0
  7  8  1  6  0  0  0
  7 24  1  0  0  0  0
  7  9  1  0  0  0  0
  9 11  1  0  0  0  0
  9 12  1  0  0  0  0
 10  9  1  0  0  0  0
 12 13  1  1  0  0  0
 14 12  1  0  0  0  0
 14 15  1  0  0  0  0
 15 17  1  0  0  0  0
 16 15  1  0  0  0  0
 18 15  1  0  0  0  0
 19 14  2  0  0  0  0
 20 19  1  0  0  0  0
 20 21  1  0  0  0  0
 22 20  1  0  0  0  0
 23 20  1  0  0  0  0
 24 25  1  6  0  0  0
 24 19  1  0  0  0  0
 24 40  1  0  0  0  0
 26 27  1  0  0  0  0
 27 28  1  0  0  0  0
 27 29  2  0  0  0  0
 29 30  1  0  0  0  0
 31 29  1  0  0  0  0
 31 32  1  0  0  0  0
 33 31  2  0  0  0  0
 34 33  1  0  0  0  0
 35 26  2  0  0  0  0
 35 33  1  0  0  0  0
 36 35  1  0  0  0  0
 37  1  1  0  0  0  0
 40 12  1  0  0  0  0
 40 26  1  1  0  0  0
 41 39  1  6  0  0  0
 41  7  1  0  0  0  0
 41  1  1  0  0  0  0
M  END
$$$$
