CSD_code = VUTKUS | q = 0 | S = 0 | Stoichiometry = C20H21Cl2OPPtS | MND = 4
 OpenBabel04212202113D

 47 51  0  0  1  0  0  0  0  0999 V2000
    7.2726    1.5789    8.1314 Pt  0  0  0  0  0  0  0  0  0  0  0  0
    8.9479   -0.1594    5.8256 C   0  0  0  0  0  0  0  0  0  0  0  0
    9.8899    0.7613    6.2509 C   0  0  0  0  0  0  0  0  0  0  0  0
    9.6084    1.5178    6.9825 H   0  0  0  0  0  0  0  0  0  0  0  0
   11.1841    0.6774    5.7682 C   0  0  0  0  0  0  0  0  0  0  0  0
   11.9298    1.3853    6.0961 H   0  0  0  0  0  0  0  0  0  0  0  0
   11.5214   -0.3291    4.8755 C   0  0  0  0  0  0  0  0  0  0  0  0
   12.5329   -0.3989    4.5045 H   0  0  0  0  0  0  0  0  0  0  0  0
   10.5747   -1.2574    4.4709 C   0  0  0  0  0  0  0  0  0  0  0  0
   10.8479   -2.0484    3.7889 H   0  0  0  0  0  0  0  0  0  0  0  0
    9.2775   -1.1759    4.9486 C   0  0  0  0  0  0  0  0  0  0  0  0
    8.5232   -1.8962    4.6707 H   0  0  0  0  0  0  0  0  0  0  0  0
    6.5027    0.8804    5.0213 C   0  0  2  0  0  0  0  0  0  0  0  0
    6.6599    0.2601    4.1395 H   0  0  0  0  0  0  0  0  0  0  0  0
    7.1107    2.2823    4.9182 C   0  0  1  0  0  0  0  0  0  0  0  0
    8.1899    2.2780    4.7609 H   0  0  0  0  0  0  0  0  0  0  0  0
    6.3339    3.0787    3.8950 C   0  0  0  0  0  0  0  0  0  0  0  0
    6.9983    3.4909    2.6286 C   0  0  0  0  0  0  0  0  0  0  0  0
    6.3178    4.0373    1.9829 H   0  0  0  0  0  0  0  0  0  0  0  0
    7.3615    2.6148    2.0911 H   0  0  0  0  0  0  0  0  0  0  0  0
    7.8563    4.1259    2.8491 H   0  0  0  0  0  0  0  0  0  0  0  0
    5.0768    3.2726    4.3036 C   0  0  0  0  0  0  0  0  0  0  0  0
    3.9413    3.9231    3.5940 C   0  0  0  0  0  0  0  0  0  0  0  0
    4.2699    4.4035    2.6775 H   0  0  0  0  0  0  0  0  0  0  0  0
    3.4740    4.6726    4.2309 H   0  0  0  0  0  0  0  0  0  0  0  0
    3.1818    3.1812    3.3451 H   0  0  0  0  0  0  0  0  0  0  0  0
    4.8526    2.5937    5.6355 C   0  0  1  0  0  0  0  0  0  0  0  0
    3.9172    2.8400    6.1348 H   0  0  0  0  0  0  0  0  0  0  0  0
    5.0270    1.0778    5.3903 C   0  0  0  0  0  0  0  0  0  0  0  0
    4.7888    0.5031    6.2913 H   0  0  0  0  0  0  0  0  0  0  0  0
    4.3602    0.7394    4.5957 H   0  0  0  0  0  0  0  0  0  0  0  0
    6.7298    4.7326    6.4987 C   0  0  0  0  0  0  0  0  0  0  0  0
    8.0498    5.1533    6.6407 C   0  0  0  0  0  0  0  0  0  0  0  0
    8.8309    4.4125    6.7541 H   0  0  0  0  0  0  0  0  0  0  0  0
    8.3443    6.5025    6.6571 C   0  0  0  0  0  0  0  0  0  0  0  0
    9.3668    6.8318    6.7659 H   0  0  0  0  0  0  0  0  0  0  0  0
    7.3227    7.4335    6.5473 C   0  0  0  0  0  0  0  0  0  0  0  0
    7.5522    8.4884    6.5660 H   0  0  0  0  0  0  0  0  0  0  0  0
    6.0070    7.0161    6.4315 C   0  0  0  0  0  0  0  0  0  0  0  0
    5.2134    7.7456    6.3644 H   0  0  0  0  0  0  0  0  0  0  0  0
    5.7046    5.6662    6.4129 C   0  0  0  0  0  0  0  0  0  0  0  0
    4.6787    5.3368    6.3441 H   0  0  0  0  0  0  0  0  0  0  0  0
    8.2510    0.0984    9.5399 Cl  0  0  0  0  0  0  0  0  0  0  0  0
    7.3775    3.2345    9.6670 Cl  0  0  0  0  0  0  0  0  0  0  0  0
    6.6740   -1.3279    6.4830 O   0  0  0  0  0  1  0  0  0  0  0  0
    6.4459    2.9543    6.5289 P   0  0  1  0  0  4  0  0  0  0  0  0
    7.2746   -0.0125    6.4647 S   0  0  2  0  0  0  0  0  0  0  0  0
  1 43  1  0  0  0  0
  1 44  1  0  0  0  0
  2  3  1  0  0  0  0
  2 47  1  0  0  0  0
  3  4  1  0  0  0  0
  5  6  1  0  0  0  0
  5  3  2  0  0  0  0
  7  5  1  0  0  0  0
  8  7  1  0  0  0  0
  9  7  2  0  0  0  0
  9 11  1  0  0  0  0
 10  9  1  0  0  0  0
 11  2  2  0  0  0  0
 12 11  1  0  0  0  0
 13 14  1  6  0  0  0
 13 29  1  0  0  0  0
 13 47  1  0  0  0  0
 15 16  1  6  0  0  0
 15 13  1  0  0  0  0
 15 46  1  0  0  0  0
 17 22  2  0  0  0  0
 17 15  1  0  0  0  0
 18 21  1  0  0  0  0
 18 17  1  0  0  0  0
 19 18  1  0  0  0  0
 20 18  1  0  0  0  0
 22 27  1  0  0  0  0
 23 25  1  0  0  0  0
 23 22  1  0  0  0  0
 24 23  1  0  0  0  0
 26 23  1  0  0  0  0
 27 28  1  1  0  0  0
 27 46  1  0  0  0  0
 29 27  1  0  0  0  0
 29 30  1  0  0  0  0
 31 29  1  0  0  0  0
 32 33  1  0  0  0  0
 33 35  2  0  0  0  0
 33 34  1  0  0  0  0
 35 36  1  0  0  0  0
 37 38  1  0  0  0  0
 37 35  1  0  0  0  0
 39 37  2  0  0  0  0
 40 39  1  0  0  0  0
 41 39  1  0  0  0  0
 41 32  2  0  0  0  0
 42 41  1  0  0  0  0
 46 32  1  1  0  0  0
 46  1  1  0  0  0  0
 47 45  1  1  0  0  0
 47  1  1  0  0  0  0
M  END
$$$$
