CSD_code = VUTRIL | q = 0 | S = 0 | Stoichiometry = C8H12Cl2N2O2Pt | MND = 4
 OpenBabel04212202113D

 27 28  0  0  1  0  0  0  0  0999 V2000
    1.6747    2.6033    1.2150 Pt  0  0  0  0  0  0  0  0  0  0  0  0
    1.4688    3.7524    3.1065 Cl  0  0  0  0  0  0  0  0  0  0  0  0
    2.1749    0.6965    2.2540 Cl  0  0  0  0  0  0  0  0  0  0  0  0
    1.3062    4.3359    0.0980 O   0  0  0  0  0  0  0  0  0  0  0  0
    0.9126    3.1857   -5.8545 O   0  0  0  0  0  0  0  0  0  0  0  0
    1.6591    5.9671   -2.9864 N   0  0  0  0  0  0  0  0  0  0  0  0
    1.8350    1.5501   -0.6448 N   0  0  0  0  0  4  0  0  0  0  0  0
    1.5920    5.7666   -1.6764 C   0  0  1  0  0  3  0  0  0  0  0  0
    1.3441    4.4527   -1.1550 C   0  0  0  0  0  0  0  0  0  0  0  0
    1.1485    3.4020   -2.1242 C   0  0  0  0  0  0  0  0  0  0  0  0
    1.2082    3.6995   -3.4812 C   0  0  0  0  0  0  0  0  0  0  0  0
    1.4796    4.9935   -3.8983 C   0  0  0  0  0  0  0  0  0  0  0  0
    1.7937    6.8878   -0.7275 C   0  0  0  0  0  0  0  0  0  0  0  0
    0.8444    2.0111   -1.6227 C   0  0  0  0  0  0  0  0  0  0  0  0
    0.9956    2.6520   -4.5595 C   0  0  0  0  0  0  0  0  0  0  0  0
    0.0674    3.6359   -5.9609 H   0  0  0  0  0  0  0  0  0  0  0  0
    1.8607    6.9073   -3.3147 H   0  0  0  0  0  0  0  0  0  0  0  0
    1.6442    0.5943   -0.3375 H   0  0  0  0  0  0  0  0  0  0  0  0
    2.7761    1.5708   -1.0346 H   0  0  0  0  0  0  0  0  0  0  0  0
    1.5751    5.2495   -4.9387 H   0  0  0  0  0  0  0  0  0  0  0  0
    0.9612    6.9218   -0.0259 H   0  0  0  0  0  0  0  0  0  0  0  0
    1.8945    7.8426   -1.2367 H   0  0  0  0  0  0  0  0  0  0  0  0
    2.6791    6.6966   -0.1211 H   0  0  0  0  0  0  0  0  0  0  0  0
    0.7812    1.3123   -2.4638 H   0  0  0  0  0  0  0  0  0  0  0  0
   -0.1291    2.0285   -1.1140 H   0  0  0  0  0  0  0  0  0  0  0  0
    0.0978    2.0617   -4.3341 H   0  0  0  0  0  0  0  0  0  0  0  0
    1.8574    1.9764   -4.5807 H   0  0  0  0  0  0  0  0  0  0  0  0
  1  3  1  0  0  0  0
  1  2  1  0  0  0  0
  4  1  1  0  0  0  0
  5 15  1  0  0  0  0
  6  8  1  0  0  0  0
  7 18  1  0  0  0  0
  7  1  1  0  0  0  0
  8  9  1  0  0  0  0
  8 13  1  1  0  0  0
  9  4  1  0  0  0  0
 10 14  1  0  0  0  0
 10  9  2  0  0  0  0
 11 10  1  0  0  0  0
 12 11  2  0  0  0  0
 12  6  1  0  0  0  0
 13 23  1  0  0  0  0
 13 21  1  0  0  0  0
 14 25  1  0  0  0  0
 14  7  1  0  0  0  0
 15 26  1  0  0  0  0
 15 11  1  0  0  0  0
 16  5  1  0  0  0  0
 17  6  1  0  0  0  0
 19  7  1  0  0  0  0
 20 12  1  0  0  0  0
 22 13  1  0  0  0  0
 24 14  1  0  0  0  0
 27 15  1  0  0  0  0
M  END
$$$$
