CSD_code = VUVDAS | q = 0 | S = 0 | Stoichiometry = C25H32Cl2SiTi | MND = 12
 OpenBabel04212202113D

 61 64  0  0  1  0  0  0  0  0999 V2000
    5.4098    0.5472    4.1622 Ti  0  0  0  0  0  0  0  0  0  0  0  0
    4.2983   -1.3350    4.6092 Cl  0  0  0  0  0  0  0  0  0  0  0  0
    7.3701   -0.4215    4.6439 Cl  0  0  0  0  0  0  0  0  0  0  0  0
    5.1099    1.9248    2.3297 C   0  0  1  0  0  0  0  0  0  0  0  0
    6.4167    1.3555    2.2298 C   0  0  0  0  0  0  0  0  0  0  0  0
    6.2852   -0.0294    1.9430 C   0  0  0  0  0  0  0  0  0  0  0  0
    4.9100   -0.3431    1.9225 C   0  0  0  0  0  0  0  0  0  0  0  0
    4.1816    0.8415    2.2049 C   0  0  0  0  0  0  0  0  0  0  0  0
    7.7283    2.0757    2.1423 C   0  0  0  0  0  0  0  0  0  0  0  0
    8.1513    1.9405    1.1445 H   0  0  0  0  0  0  0  0  0  0  0  0
    8.4415    1.6705    2.8620 H   0  0  0  0  0  0  0  0  0  0  0  0
    7.6097    3.1393    2.3161 H   0  0  0  0  0  0  0  0  0  0  0  0
    7.3904   -0.9662    1.5681 C   0  0  0  0  0  0  0  0  0  0  0  0
    7.2294   -1.9502    2.0089 H   0  0  0  0  0  0  0  0  0  0  0  0
    8.3531   -0.5930    1.9091 H   0  0  0  0  0  0  0  0  0  0  0  0
    7.4232   -1.0809    0.4817 H   0  0  0  0  0  0  0  0  0  0  0  0
    4.3231   -1.6544    1.5050 C   0  0  0  0  0  0  0  0  0  0  0  0
    4.2103   -1.6754    0.4179 H   0  0  0  0  0  0  0  0  0  0  0  0
    3.3453   -1.8093    1.9564 H   0  0  0  0  0  0  0  0  0  0  0  0
    4.9709   -2.4797    1.7969 H   0  0  0  0  0  0  0  0  0  0  0  0
    2.6916    0.9108    2.0541 C   0  0  0  0  0  0  0  0  0  0  0  0
    2.4225    0.6696    1.0230 H   0  0  0  0  0  0  0  0  0  0  0  0
    2.3051    1.8994    2.2796 H   0  0  0  0  0  0  0  0  0  0  0  0
    2.2038    0.1786    2.6991 H   0  0  0  0  0  0  0  0  0  0  0  0
    4.8585    2.6783    4.8709 C   0  0  1  0  0  0  0  0  0  0  0  0
    3.8680    1.7832    5.3900 C   0  0  1  0  0  3  0  0  0  0  0  0
    4.4712    0.9804    6.3929 C   0  0  0  0  0  0  0  0  0  0  0  0
    5.8415    1.3098    6.4548 C   0  0  0  0  0  0  0  0  0  0  0  0
    6.0941    2.3265    5.4960 C   0  0  2  0  0  3  0  0  0  0  0  0
    2.3814    1.8398    5.2042 C   0  0  0  0  0  0  0  0  0  0  0  0
    1.9820    0.8486    4.9848 H   0  0  0  0  0  0  0  0  0  0  0  0
    2.0966    2.5231    4.4107 H   0  0  0  0  0  0  0  0  0  0  0  0
    1.9149    2.1841    6.1303 H   0  0  0  0  0  0  0  0  0  0  0  0
    3.7580    0.0677    7.3398 C   0  0  0  0  0  0  0  0  0  0  0  0
    4.3836   -0.7846    7.6020 H   0  0  0  0  0  0  0  0  0  0  0  0
    2.8337   -0.3064    6.9052 H   0  0  0  0  0  0  0  0  0  0  0  0
    3.5166    0.6092    8.2580 H   0  0  0  0  0  0  0  0  0  0  0  0
    6.8090    0.7856    7.4689 C   0  0  0  0  0  0  0  0  0  0  0  0
    6.6411    1.2814    8.4283 H   0  0  0  0  0  0  0  0  0  0  0  0
    7.8362    0.9627    7.1594 H   0  0  0  0  0  0  0  0  0  0  0  0
    6.6745   -0.2865    7.6130 H   0  0  0  0  0  0  0  0  0  0  0  0
    7.4034    3.0519    5.4169 C   0  0  0  0  0  0  0  0  0  0  0  0
    7.6318    3.4959    6.3882 H   0  0  0  0  0  0  0  0  0  0  0  0
    7.3725    3.8483    4.6819 H   0  0  0  0  0  0  0  0  0  0  0  0
    8.2132    2.3638    5.1689 H   0  0  0  0  0  0  0  0  0  0  0  0
    4.7142    3.5619    3.1999 Si  0  0  1  0  0  0  0  0  0  0  0  0
    5.8083    5.0953    2.8525 C   0  0  0  0  0  0  0  0  0  0  0  0
    6.8743    4.9683    2.9948 H   0  0  0  0  0  0  0  0  0  0  0  0
    5.4863    5.9092    3.4949 H   0  0  0  0  0  0  0  0  0  0  0  0
    5.6502    5.4139    1.8266 H   0  0  0  0  0  0  0  0  0  0  0  0
    3.0111    4.3092    2.8084 C   0  0  0  0  0  0  0  0  0  0  0  0
    2.5201    4.3153    1.5065 C   0  0  0  0  0  0  0  0  0  0  0  0
    3.0771    3.8106    0.7300 H   0  0  0  0  0  0  0  0  0  0  0  0
    1.3314    4.9502    1.1944 C   0  0  0  0  0  0  0  0  0  0  0  0
    0.9639    4.9388    0.1784 H   0  0  0  0  0  0  0  0  0  0  0  0
    0.6138    5.6015    2.1835 C   0  0  0  0  0  0  0  0  0  0  0  0
   -0.3156    6.0965    1.9430 H   0  0  0  0  0  0  0  0  0  0  0  0
    1.0962    5.6197    3.4813 C   0  0  0  0  0  0  0  0  0  0  0  0
    0.5445    6.1326    4.2559 H   0  0  0  0  0  0  0  0  0  0  0  0
    2.2858    4.9829    3.7862 C   0  0  0  0  0  0  0  0  0  0  0  0
    2.6588    5.0027    4.8003 H   0  0  0  0  0  0  0  0  0  0  0  0
  1  2  1  0  0  0  0
  1  3  1  0  0  0  0
  4  8  1  6  0  0  0
  4 46  1  0  0  0  0
  4  1  1  0  0  0  0
  5  4  1  0  0  0  0
  6  5  2  0  0  0  0
  7  6  1  0  0  0  0
  7  8  2  0  0  0  0
  9  5  1  0  0  0  0
  9 12  1  0  0  0  0
  9 11  1  0  0  0  0
 10  9  1  0  0  0  0
 13 15  1  0  0  0  0
 13  6  1  0  0  0  0
 13 14  1  0  0  0  0
 16 13  1  0  0  0  0
 17 20  1  0  0  0  0
 17  7  1  0  0  0  0
 17 19  1  0  0  0  0
 18 17  1  0  0  0  0
 21  8  1  0  0  0  0
 21 23  1  0  0  0  0
 21 24  1  0  0  0  0
 22 21  1  0  0  0  0
 25  1  1  6  0  0  0
 25 26  1  0  0  0  0
 25 29  1  0  0  0  0
 26 30  1  1  0  0  0
 26 27  1  0  0  0  0
 27 28  2  0  0  0  0
 27 34  1  0  0  0  0
 28 38  1  0  0  0  0
 29 42  1  1  0  0  0
 29 28  1  0  0  0  0
 30 33  1  0  0  0  0
 31 30  1  0  0  0  0
 32 30  1  0  0  0  0
 34 35  1  0  0  0  0
 34 37  1  0  0  0  0
 36 34  1  0  0  0  0
 38 41  1  0  0  0  0
 38 39  1  0  0  0  0
 40 38  1  0  0  0  0
 42 43  1  0  0  0  0
 44 42  1  0  0  0  0
 45 42  1  0  0  0  0
 46 47  1  6  0  0  0
 46 25  1  0  0  0  0
 47 48  1  0  0  0  0
 47 49  1  0  0  0  0
 50 47  1  0  0  0  0
 51 46  1  0  0  0  0
 51 60  1  0  0  0  0
 52 51  2  0  0  0  0
 53 52  1  0  0  0  0
 54 52  1  0  0  0  0
 54 56  2  0  0  0  0
 55 54  1  0  0  0  0
 56 58  1  0  0  0  0
 57 56  1  0  0  0  0
 58 60  2  0  0  0  0
 58 59  1  0  0  0  0
 60 61  1  0  0  0  0
M  END
$$$$
