CSD_code = VUVKIH | q = 1 | S = 0 | Stoichiometry = C17H28ClOsSe2(1+) | MND = 9
 OpenBabel04212202113D

 49 50  0  0  1  0  0  0  0  0999 V2000
    4.4514    0.6156    4.6065 Os  0  0  0  0  0  0  0  0  0  0  0  0
    6.6182   -0.3433    5.0371 Se  0  0  0  0  0  0  0  0  0  0  0  0
    3.8524    0.8942    6.9240 Se  0  0  0  0  0  0  0  0  0  0  0  0
    5.4691    2.7035    4.7135 Cl  0  0  0  0  0  0  0  0  0  0  0  0
    6.5843    0.4885    7.8217 C   0  0  0  0  0  0  0  0  0  0  0  0
    6.3487   -0.8904    8.3863 C   0  0  0  0  0  0  0  0  0  0  0  0
    6.7901   -1.7284    7.8659 H   0  0  0  0  0  0  0  0  0  0  0  0
    5.3806   -1.0976    8.8198 H   0  0  0  0  0  0  0  0  0  0  0  0
    7.2584    0.0572    9.0997 C   0  0  0  0  0  0  0  0  0  0  0  0
    8.3197   -0.1335    9.0762 H   0  0  0  0  0  0  0  0  0  0  0  0
    6.9207    0.4952   10.0256 H   0  0  0  0  0  0  0  0  0  0  0  0
    7.4279    0.6003    6.5787 C   0  0  0  0  0  0  0  0  0  0  0  0
    8.4060    0.1373    6.7258 H   0  0  0  0  0  0  0  0  0  0  0  0
    7.5505    1.6387    6.2647 H   0  0  0  0  0  0  0  0  0  0  0  0
    7.8075    0.4089    3.6941 C   0  0  0  0  0  0  0  0  0  0  0  0
    7.6566    1.4855    3.6643 H   0  0  0  0  0  0  0  0  0  0  0  0
    7.5720   -0.0379    2.7309 H   0  0  0  0  0  0  0  0  0  0  0  0
    8.8340    0.1702    3.9656 H   0  0  0  0  0  0  0  0  0  0  0  0
    5.4589    1.4854    7.9173 C   0  0  0  0  0  0  0  0  0  0  0  0
    5.7374    2.4518    7.4929 H   0  0  0  0  0  0  0  0  0  0  0  0
    5.1349    1.6122    8.9524 H   0  0  0  0  0  0  0  0  0  0  0  0
    2.9173    2.5985    7.0179 C   0  0  0  0  0  0  0  0  0  0  0  0
    2.8258    2.8875    8.0632 H   0  0  0  0  0  0  0  0  0  0  0  0
    1.9265    2.4771    6.5859 H   0  0  0  0  0  0  0  0  0  0  0  0
    3.4903    3.3375    6.4626 H   0  0  0  0  0  0  0  0  0  0  0  0
    3.1768    1.3145    2.5185 C   0  0  0  0  0  0  0  0  0  0  0  0
    2.2792    1.0001    3.5496 C   0  0  0  0  0  0  0  0  0  0  0  0
    1.4844    1.6940    3.7944 H   0  0  0  0  0  0  0  0  0  0  0  0
    2.3331   -0.2525    4.2026 C   0  0  1  0  0  0  0  0  0  0  0  0
    1.5673   -0.4891    4.9335 H   0  0  0  0  0  0  0  0  0  0  0  0
    3.2493   -1.2478    3.8128 C   0  0  2  0  0  3  0  0  0  0  0  0
    4.1961   -0.8926    2.8289 C   0  0  1  0  0  0  0  0  0  0  0  0
    4.9007   -1.6429    2.4819 H   0  0  0  0  0  0  0  0  0  0  0  0
    4.1720    0.3658    2.2001 C   0  0  0  0  0  3  0  0  0  0  0  0
    4.8603    0.5757    1.3908 H   0  0  0  0  0  0  0  0  0  0  0  0
    3.0836    2.5967    1.7608 C   0  0  0  0  0  0  0  0  0  0  0  0
    2.7867    2.3932    0.7316 H   0  0  0  0  0  0  0  0  0  0  0  0
    4.0496    3.0999    1.7308 H   0  0  0  0  0  0  0  0  0  0  0  0
    2.3540    3.2682    2.2064 H   0  0  0  0  0  0  0  0  0  0  0  0
    3.2086   -2.6407    4.3924 C   0  0  0  0  0  0  0  0  0  0  0  0
    4.0087   -3.2255    3.9253 H   0  0  0  0  0  0  0  0  0  0  0  0
    3.4557   -2.6206    5.9032 C   0  0  0  0  0  0  0  0  0  0  0  0
    4.4210   -2.1610    6.1289 H   0  0  0  0  0  0  0  0  0  0  0  0
    3.4620   -3.6363    6.2879 H   0  0  0  0  0  0  0  0  0  0  0  0
    2.6768   -2.0655    6.4231 H   0  0  0  0  0  0  0  0  0  0  0  0
    1.8706   -3.3112    4.0680 C   0  0  0  0  0  0  0  0  0  0  0  0
    1.0465   -2.8033    4.5628 H   0  0  0  0  0  0  0  0  0  0  0  0
    1.8857   -4.3431    4.4072 H   0  0  0  0  0  0  0  0  0  0  0  0
    1.6870   -3.3065    2.9959 H   0  0  0  0  0  0  0  0  0  0  0  0
  1  4  1  0  0  0  0
  2 12  1  0  0  0  0
  3 22  1  0  0  0  0
  3 19  1  0  0  0  0
  5 19  1  0  0  0  0
  5  6  1  0  0  0  0
  5  9  1  0  0  0  0
  6  8  1  0  0  0  0
  6  9  1  0  0  0  0
  7  6  1  0  0  0  0
  9 11  1  0  0  0  0
 10  9  1  0  0  0  0
 12 13  1  0  0  0  0
 12  5  1  0  0  0  0
 14 12  1  0  0  0  0
 15 18  1  0  0  0  0
 15  2  1  0  0  0  0
 16 15  1  0  0  0  0
 17 15  1  0  0  0  0
 19 21  1  0  0  0  0
 20 19  1  0  0  0  0
 22 23  1  0  0  0  0
 24 22  1  0  0  0  0
 25 22  1  0  0  0  0
 26 27  2  0  0  0  0
 27 28  1  0  0  0  0
 27 29  1  0  0  0  0
 29  1  1  0  0  0  0
 29 30  1  1  0  0  0
 31 29  1  0  0  0  0
 31 40  1  6  0  0  0
 32 33  1  6  0  0  0
 32 31  1  0  0  0  0
 32  1  1  0  0  0  0
 34 26  1  0  0  0  0
 34 32  1  0  0  0  0
 35 34  1  0  0  0  0
 36 39  1  0  0  0  0
 36 26  1  0  0  0  0
 37 36  1  0  0  0  0
 38 36  1  0  0  0  0
 40 42  1  0  0  0  0
 41 40  1  0  0  0  0
 42 43  1  0  0  0  0
 42 44  1  0  0  0  0
 42 45  1  0  0  0  0
 46 40  1  0  0  0  0
 46 48  1  0  0  0  0
 46 47  1  0  0  0  0
 49 46  1  0  0  0  0
M  END
$$$$
