CSD_code = VUVZUJ | q = 0 | S = 0 | Stoichiometry = C25H33ClCuN3 | MND = 2
 OpenBabel04212202113D

 63 65  0  0  0  0  0  0  0  0999 V2000
    0.4813   20.7637    7.6935 Cu  0  0  0  0  0  0  0  0  0  0  0  0
   -1.1811   20.7910    6.4578 Cl  0  0  0  0  0  0  0  0  0  0  0  0
    2.5395   19.4817    9.2347 N   0  0  0  0  0  0  0  0  0  0  0  0
    3.5994   19.6179    9.9972 N   0  0  0  0  0  2  0  0  0  0  0  0
    3.7998   20.9074   10.0830 N   0  0  0  0  0  0  0  0  0  0  0  0
    2.0059   20.6552    8.8066 C   0  0  0  0  0  0  0  0  0  0  0  0
    2.8675   21.6012    9.3821 C   0  0  0  0  0  0  0  0  0  0  0  0
    2.8021   23.0498    9.2876 C   0  0  0  0  0  0  0  0  0  0  0  0
    3.9350   23.8434    9.1368 C   0  0  0  0  0  0  0  0  0  0  0  0
    3.8244   25.2184    9.0321 C   0  0  0  0  0  0  0  0  0  0  0  0
    2.5883   25.8518    9.0747 C   0  0  0  0  0  0  0  0  0  0  0  0
    1.4585   25.0458    9.2137 C   0  0  0  0  0  0  0  0  0  0  0  0
    1.5554   23.6752    9.3133 C   0  0  0  0  0  0  0  0  0  0  0  0
    2.4249   27.3581    8.9677 C   0  0  0  0  0  0  0  0  0  0  0  0
    3.7607   28.0878    8.8009 C   0  0  0  0  0  0  0  0  0  0  0  0
    1.7507   27.8765   10.2461 C   0  0  0  0  0  0  0  0  0  0  0  0
    1.5479   27.6789    7.7493 C   0  0  0  0  0  0  0  0  0  0  0  0
    2.0196   18.1924    8.9438 C   0  0  0  0  0  0  0  0  0  0  0  0
    2.3739   17.5711    7.7472 C   0  0  0  0  0  0  0  0  0  0  0  0
    1.8436   16.3132    7.4916 C   0  0  0  0  0  0  0  0  0  0  0  0
    1.0015   15.7022    8.3993 C   0  0  0  0  0  0  0  0  0  0  0  0
    0.6594   16.3404    9.5771 C   0  0  0  0  0  0  0  0  0  0  0  0
    1.1535   17.6032    9.8679 C   0  0  0  0  0  0  0  0  0  0  0  0
    0.8016   18.3211   11.1496 C   0  0  0  0  0  0  0  0  0  0  0  0
    1.7945   17.9108   12.2426 C   0  0  0  0  0  0  0  0  0  0  0  0
   -0.6361   18.0628   11.5970 C   0  0  0  0  0  0  0  0  0  0  0  0
    3.2792   18.2395    6.7414 C   0  0  0  0  0  0  0  0  0  0  0  0
    4.5032   17.3716    6.4407 C   0  0  0  0  0  0  0  0  0  0  0  0
    2.4935   18.5526    5.4660 C   0  0  0  0  0  0  0  0  0  0  0  0
    4.8683   21.3945   10.9063 C   0  0  0  0  0  0  0  0  0  0  0  0
    4.9129   23.3916    9.0583 H   0  0  0  0  0  0  0  0  0  0  0  0
    4.7299   25.7894    8.9080 H   0  0  0  0  0  0  0  0  0  0  0  0
    0.4764   25.4912    9.2407 H   0  0  0  0  0  0  0  0  0  0  0  0
    0.6660   23.0706    9.4095 H   0  0  0  0  0  0  0  0  0  0  0  0
    4.2689   27.7715    7.8929 H   0  0  0  0  0  0  0  0  0  0  0  0
    4.4124   27.9165    9.6549 H   0  0  0  0  0  0  0  0  0  0  0  0
    3.5803   29.1581    8.7274 H   0  0  0  0  0  0  0  0  0  0  0  0
    2.3593   27.6398   11.1168 H   0  0  0  0  0  0  0  0  0  0  0  0
    0.7692   27.4322   10.3849 H   0  0  0  0  0  0  0  0  0  0  0  0
    1.6311   28.9563   10.1928 H   0  0  0  0  0  0  0  0  0  0  0  0
    0.5580   27.2427    7.8451 H   0  0  0  0  0  0  0  0  0  0  0  0
    2.0052   27.2879    6.8429 H   0  0  0  0  0  0  0  0  0  0  0  0
    1.4364   28.7558    7.6432 H   0  0  0  0  0  0  0  0  0  0  0  0
    2.0897   15.8081    6.5710 H   0  0  0  0  0  0  0  0  0  0  0  0
    0.6010   14.7226    8.1851 H   0  0  0  0  0  0  0  0  0  0  0  0
   -0.0054   15.8514   10.2703 H   0  0  0  0  0  0  0  0  0  0  0  0
    0.8966   19.3993   10.9782 H   0  0  0  0  0  0  0  0  0  0  0  0
    2.8137   18.1357   11.9348 H   0  0  0  0  0  0  0  0  0  0  0  0
    1.7213   16.8423   12.4321 H   0  0  0  0  0  0  0  0  0  0  0  0
    1.5792   18.4427   13.1667 H   0  0  0  0  0  0  0  0  0  0  0  0
   -0.8921   18.7368   12.4115 H   0  0  0  0  0  0  0  0  0  0  0  0
   -0.7653   17.0442   11.9532 H   0  0  0  0  0  0  0  0  0  0  0  0
   -1.3251   18.2393   10.7748 H   0  0  0  0  0  0  0  0  0  0  0  0
    3.6365   19.1889    7.1528 H   0  0  0  0  0  0  0  0  0  0  0  0
    4.2143   16.4405    5.9612 H   0  0  0  0  0  0  0  0  0  0  0  0
    5.0365   17.1351    7.3594 H   0  0  0  0  0  0  0  0  0  0  0  0
    5.1787   17.9023    5.7736 H   0  0  0  0  0  0  0  0  0  0  0  0
    1.6330   19.1787    5.6996 H   0  0  0  0  0  0  0  0  0  0  0  0
    2.1362   17.6404    4.9961 H   0  0  0  0  0  0  0  0  0  0  0  0
    3.1248   19.0839    4.7575 H   0  0  0  0  0  0  0  0  0  0  0  0
    5.7863   21.4999   10.3255 H   0  0  0  0  0  0  0  0  0  0  0  0
    5.0418   20.6705   11.7012 H   0  0  0  0  0  0  0  0  0  0  0  0
    4.5932   22.3599   11.3283 H   0  0  0  0  0  0  0  0  0  0  0  0
  1  6  1  0  0  0  0
  2  1  1  0  0  0  0
  3  4  1  0  0  0  0
  4  5  1  0  0  0  0
  5 30  1  0  0  0  0
  6  3  1  0  0  0  0
  6  7  2  0  0  0  0
  7  5  1  0  0  0  0
  8 13  1  0  0  0  0
  8  7  1  0  0  0  0
  9  8  2  0  0  0  0
 10 11  2  0  0  0  0
 10  9  1  0  0  0  0
 11 12  1  0  0  0  0
 12 33  1  0  0  0  0
 12 13  2  0  0  0  0
 13 34  1  0  0  0  0
 14 11  1  0  0  0  0
 14 16  1  0  0  0  0
 15 14  1  0  0  0  0
 15 36  1  0  0  0  0
 16 39  1  0  0  0  0
 16 38  1  0  0  0  0
 17 41  1  0  0  0  0
 17 14  1  0  0  0  0
 18  3  1  0  0  0  0
 18 23  1  0  0  0  0
 19 18  2  0  0  0  0
 20 19  1  0  0  0  0
 20 21  2  0  0  0  0
 21 22  1  0  0  0  0
 22 23  2  0  0  0  0
 22 46  1  0  0  0  0
 23 24  1  0  0  0  0
 24 26  1  0  0  0  0
 24 25  1  0  0  0  0
 25 49  1  0  0  0  0
 25 50  1  0  0  0  0
 26 52  1  0  0  0  0
 26 51  1  0  0  0  0
 27 54  1  0  0  0  0
 27 19  1  0  0  0  0
 28 27  1  0  0  0  0
 28 56  1  0  0  0  0
 29 58  1  0  0  0  0
 29 27  1  0  0  0  0
 30 63  1  0  0  0  0
 30 62  1  0  0  0  0
 31  9  1  0  0  0  0
 32 10  1  0  0  0  0
 35 15  1  0  0  0  0
 37 15  1  0  0  0  0
 40 16  1  0  0  0  0
 42 17  1  0  0  0  0
 43 17  1  0  0  0  0
 44 20  1  0  0  0  0
 45 21  1  0  0  0  0
 47 24  1  0  0  0  0
 48 25  1  0  0  0  0
 53 26  1  0  0  0  0
 55 28  1  0  0  0  0
 57 28  1  0  0  0  0
 59 29  1  0  0  0  0
 60 29  1  0  0  0  0
 61 30  1  0  0  0  0
M  END
$$$$
