CSD_code = VUWJEE | q = 0 | S = 0 | Stoichiometry = C27H31BrN2O2SiW | MND = 6
 OpenBabel04212202113D

 65 65  0  0  0  0  0  0  0  0999 V2000
    6.7397    6.2578   15.0206 Br  0  0  0  0  0 15  0  0  0  0  0  0
    8.9919    8.2012   13.2110 N   0  0  0  0  0  0  0  0  0  0  0  0
    7.3260   10.0598   14.8262 N   0  0  0  0  0  0  0  0  0  0  0  0
    3.6347    8.7216   13.6369 O   0  0  0  0  0  1  0  0  0  0  0  0
    6.5962    7.6444   10.4934 O   0  0  0  0  0  0  0  0  0  0  0  0
    5.9706   11.1945   10.9772 Si  0  0  0  0  0  0  0  0  0  0  0  0
    6.7160    8.2773   13.5004 W   0  0  0  0  0  0  0  0  0  0  0  0
    6.3131    9.6480   11.9540 C   0  0  0  0  0  0  0  0  0  0  0  0
    4.7651    8.4930   13.6653 C   0  0  0  0  0  2  0  0  0  0  0  0
    6.4635    8.4457   11.3782 C   0  0  0  0  0  0  0  0  0  0  0  0
    9.5169    8.9547   14.3597 C   0  0  0  0  0  0  0  0  0  0  0  0
    8.7606   10.2712   14.5730 C   0  0  0  0  0  0  0  0  0  0  0  0
    9.4209    8.8345   11.9599 C   0  0  0  0  0  0  0  0  0  0  0  0
    9.5445    6.8436   13.2122 C   0  0  0  0  0  0  0  0  0  0  0  0
    6.6124   11.3223   14.6577 C   0  0  0  0  0  0  0  0  0  0  0  0
    7.1140    9.6181   16.2095 C   0  0  0  0  0  0  0  0  0  0  0  0
    7.7348   11.8248   10.6199 C   0  0  0  0  0  0  0  0  0  0  0  0
    8.4446   11.2972    9.5445 C   0  0  0  0  0  0  0  0  0  0  0  0
    9.7542   11.6675    9.2979 C   0  0  0  0  0  0  0  0  0  0  0  0
   10.3874   12.5738   10.1326 C   0  0  0  0  0  0  0  0  0  0  0  0
    9.6991   13.1080   11.2087 C   0  0  0  0  0  0  0  0  0  0  0  0
    8.3877   12.7339   11.4469 C   0  0  0  0  0  0  0  0  0  0  0  0
    5.0814   10.8161    9.3494 C   0  0  0  0  0  0  0  0  0  0  0  0
    4.2031    9.7400    9.2731 C   0  0  0  0  0  0  0  0  0  0  0  0
    3.5420    9.4431    8.0956 C   0  0  0  0  0  0  0  0  0  0  0  0
    3.7464   10.2242    6.9707 C   0  0  0  0  0  0  0  0  0  0  0  0
    4.6117   11.3036    7.0315 C   0  0  0  0  0  0  0  0  0  0  0  0
    5.2711   11.5953    8.2115 C   0  0  0  0  0  0  0  0  0  0  0  0
    4.9554   12.5140   11.8844 C   0  0  0  0  0  0  0  0  0  0  0  0
    5.1634   13.8686   11.6466 C   0  0  0  0  0  0  0  0  0  0  0  0
    4.3831   14.8307   12.2624 C   0  0  0  0  0  0  0  0  0  0  0  0
    3.3687   14.4517   13.1250 C   0  0  0  0  0  0  0  0  0  0  0  0
    3.1366   13.1068   13.3601 C   0  0  0  0  0  0  0  0  0  0  0  0
    3.9222   12.1510   12.7429 C   0  0  0  0  0  0  0  0  0  0  0  0
   10.5862    9.1817   14.2179 H   0  0  0  0  0  0  0  0  0  0  0  0
    9.4282    8.3246   15.2526 H   0  0  0  0  0  0  0  0  0  0  0  0
    9.2187   10.8097   15.4158 H   0  0  0  0  0  0  0  0  0  0  0  0
    8.8576   10.8967   13.6805 H   0  0  0  0  0  0  0  0  0  0  0  0
    9.0691    8.2478   11.1116 H   0  0  0  0  0  0  0  0  0  0  0  0
   10.5171    8.8899   11.9085 H   0  0  0  0  0  0  0  0  0  0  0  0
    9.0122    9.8393   11.8595 H   0  0  0  0  0  0  0  0  0  0  0  0
    9.0768    6.2651   12.4134 H   0  0  0  0  0  0  0  0  0  0  0  0
   10.6296    6.8574   13.0454 H   0  0  0  0  0  0  0  0  0  0  0  0
    9.3496    6.3426   14.1602 H   0  0  0  0  0  0  0  0  0  0  0  0
    5.5511   11.1624   14.8330 H   0  0  0  0  0  0  0  0  0  0  0  0
    6.9806   12.0771   15.3622 H   0  0  0  0  0  0  0  0  0  0  0  0
    6.7331   11.6889   13.6432 H   0  0  0  0  0  0  0  0  0  0  0  0
    6.0522    9.4253   16.3644 H   0  0  0  0  0  0  0  0  0  0  0  0
    7.4389   10.3923   16.9158 H   0  0  0  0  0  0  0  0  0  0  0  0
    7.6591    8.6999   16.4265 H   0  0  0  0  0  0  0  0  0  0  0  0
    7.9578   10.5850    8.8946 H   0  0  0  0  0  0  0  0  0  0  0  0
   10.2837   11.2494    8.4540 H   0  0  0  0  0  0  0  0  0  0  0  0
   11.4103   12.8653    9.9435 H   0  0  0  0  0  0  0  0  0  0  0  0
   10.1844   13.8200   11.8618 H   0  0  0  0  0  0  0  0  0  0  0  0
    7.8573   13.1691   12.2832 H   0  0  0  0  0  0  0  0  0  0  0  0
    4.0432    9.1245   10.1468 H   0  0  0  0  0  0  0  0  0  0  0  0
    2.8684    8.5994    8.0533 H   0  0  0  0  0  0  0  0  0  0  0  0
    3.2334    9.9923    6.0483 H   0  0  0  0  0  0  0  0  0  0  0  0
    4.7739   11.9171    6.1563 H   0  0  0  0  0  0  0  0  0  0  0  0
    5.9485   12.4376    8.2513 H   0  0  0  0  0  0  0  0  0  0  0  0
    5.9457   14.1738   10.9661 H   0  0  0  0  0  0  0  0  0  0  0  0
    4.5623   15.8783   12.0657 H   0  0  0  0  0  0  0  0  0  0  0  0
    2.7570   15.2014   13.6058 H   0  0  0  0  0  0  0  0  0  0  0  0
    2.3383   12.8035   14.0221 H   0  0  0  0  0  0  0  0  0  0  0  0
    3.7326   11.1039   12.9224 H   0  0  0  0  0  0  0  0  0  0  0  0
  2 14  1  0  0  0  0
  2 11  1  0  0  0  0
  3 16  1  0  0  0  0
  4  9  1  0  0  0  0
  5 10  2  0  0  0  0
  6 29  1  0  0  0  0
  6  8  1  0  0  0  0
  7  9  1  0  0  0  0
  8  7  1  0  0  0  0
 10  8  2  0  0  0  0
 11 12  1  0  0  0  0
 11 36  1  0  0  0  0
 12  3  1  0  0  0  0
 12 37  1  0  0  0  0
 13  2  1  0  0  0  0
 14 44  1  0  0  0  0
 15  3  1  0  0  0  0
 15 45  1  0  0  0  0
 15 46  1  0  0  0  0
 16 48  1  0  0  0  0
 16 50  1  0  0  0  0
 16 49  1  0  0  0  0
 17  6  1  0  0  0  0
 17 22  1  0  0  0  0
 18 17  2  0  0  0  0
 19 18  1  0  0  0  0
 19 20  2  0  0  0  0
 20 21  1  0  0  0  0
 21 22  2  0  0  0  0
 21 54  1  0  0  0  0
 22 55  1  0  0  0  0
 23  6  1  0  0  0  0
 24 23  1  0  0  0  0
 24 56  1  0  0  0  0
 25 24  2  0  0  0  0
 26 27  2  0  0  0  0
 26 25  1  0  0  0  0
 27 28  1  0  0  0  0
 28 60  1  0  0  0  0
 28 23  2  0  0  0  0
 29 34  1  0  0  0  0
 30 29  2  0  0  0  0
 30 31  1  0  0  0  0
 31 32  2  0  0  0  0
 32 33  1  0  0  0  0
 32 63  1  0  0  0  0
 33 64  1  0  0  0  0
 34 65  1  0  0  0  0
 34 33  2  0  0  0  0
 35 11  1  0  0  0  0
 38 12  1  0  0  0  0
 39 13  1  0  0  0  0
 40 13  1  0  0  0  0
 41 13  1  0  0  0  0
 42 14  1  0  0  0  0
 43 14  1  0  0  0  0
 47 15  1  0  0  0  0
 51 18  1  0  0  0  0
 52 19  1  0  0  0  0
 53 20  1  0  0  0  0
 57 25  1  0  0  0  0
 58 26  1  0  0  0  0
 59 27  1  0  0  0  0
 61 30  1  0  0  0  0
 62 31  1  0  0  0  0
M  END
$$$$
