CSD_code = VUXDOH | q = 0 | S = 0 | Stoichiometry = C24H24Cl2N2O8Pd | MND = 4
 OpenBabel04212202113D

 61 63  0  0  0  0  0  0  0  0999 V2000
   -1.2134    1.3500    3.5903 Pd  0  0  0  0  0  0  0  0  0  0  0  0
   -1.3486   -0.6651    2.6210 Cl  0  0  0  0  0  0  0  0  0  0  0  0
    0.5922    0.7063    4.7483 Cl  0  0  0  0  0  0  0  0  0  0  0  0
    0.4604    2.2618   -1.0602 O   0  0  0  0  0  0  0  0  0  0  0  0
    1.9403    3.6490   -0.1026 O   0  0  0  0  0  0  0  0  0  0  0  0
   -2.1911    2.6073    1.6046 O   0  0  0  0  0  0  0  0  0  0  0  0
   -1.4579    4.3447    0.4024 O   0  0  0  0  0  0  0  0  0  0  0  0
   -3.7991    0.8358    3.6172 O   0  0  0  0  0  0  0  0  0  0  0  0
   -4.6724   -1.1073    2.9361 O   0  0  0  0  0  0  0  0  0  0  0  0
   -5.0547   -3.2128    5.2534 O   0  0  0  0  0  0  0  0  0  0  0  0
   -2.9299   -2.7656    4.6871 O   0  0  0  0  0  0  0  0  0  0  0  0
   -0.9644    3.3252    4.1277 N   0  0  0  0  0  0  0  0  0  0  0  0
   -2.5335    1.8330    5.7557 N   0  0  0  0  0  2  0  0  0  0  0  0
   -0.1481    4.0461    3.3661 C   0  0  0  0  0  0  0  0  0  0  0  0
   -0.1619    5.4475    3.4004 C   0  0  0  0  0  0  0  0  0  0  0  0
   -1.0152    6.1062    4.2508 C   0  0  0  0  0  0  0  0  0  0  0  0
   -1.8522    5.3570    5.0935 C   0  0  0  0  0  0  0  0  0  0  0  0
   -1.7856    3.9495    4.9952 C   0  0  0  0  0  0  0  0  0  0  0  0
   -2.6270    3.1608    5.8505 C   0  0  0  0  0  0  0  0  0  0  0  0
   -3.5250    3.7888    6.7421 C   0  0  0  0  0  0  0  0  0  0  0  0
   -4.3496    2.9475    7.5110 C   0  0  0  0  0  0  0  0  0  0  0  0
   -4.2657    1.5853    7.3578 C   0  0  0  0  0  0  0  0  0  0  0  0
   -3.3249    1.0570    6.4566 C   0  0  0  0  0  0  0  0  0  0  0  0
   -2.7535    5.9579    6.0186 C   0  0  0  0  0  0  0  0  0  0  0  0
   -3.5612    5.2088    6.8081 C   0  0  0  0  0  0  0  0  0  0  0  0
   -3.1719   -0.4100    6.1896 C   0  0  0  0  0  0  0  0  0  0  0  0
   -4.2677   -0.9248    5.2388 C   0  0  0  0  0  0  0  0  0  0  0  0
    0.8174    3.3300    2.4598 C   0  0  0  0  0  0  0  0  0  0  0  0
    0.1368    2.7022    1.2153 C   0  0  0  0  0  0  0  0  0  0  0  0
    0.9714    2.9454   -0.0421 C   0  0  0  0  0  0  0  0  0  0  0  0
   -1.2358    3.3276    1.0008 C   0  0  0  0  0  0  0  0  0  0  0  0
    1.1160    2.4079   -2.3150 C   0  0  0  0  0  0  0  0  0  0  0  0
   -3.5184    3.1167    1.5042 C   0  0  0  0  0  0  0  0  0  0  0  0
   -4.1841   -0.2885    3.8509 C   0  0  0  0  0  0  0  0  0  0  0  0
   -4.1520   -2.4416    5.0668 C   0  0  0  0  0  0  0  0  0  0  0  0
   -2.6638   -4.1319    4.4069 C   0  0  0  0  0  0  0  0  0  0  0  0
   -4.5948   -0.6831    1.5780 C   0  0  0  0  0  0  0  0  0  0  0  0
    0.5009    5.9935    2.7482 H   0  0  0  0  0  0  0  0  0  0  0  0
   -1.0445    7.1849    4.2863 H   0  0  0  0  0  0  0  0  0  0  0  0
   -5.0492    3.3858    8.2087 H   0  0  0  0  0  0  0  0  0  0  0  0
   -4.9021    0.9230    7.9246 H   0  0  0  0  0  0  0  0  0  0  0  0
   -2.7785    7.0367    6.0672 H   0  0  0  0  0  0  0  0  0  0  0  0
   -4.2495    5.6753    7.4978 H   0  0  0  0  0  0  0  0  0  0  0  0
   -5.2639   -0.7076    5.6412 H   0  0  0  0  0  0  0  0  0  0  0  0
   -0.0017    1.6110    1.3418 H   0  0  0  0  0  0  0  0  0  0  0  0
   -3.2198   -0.9799    7.1191 H   0  0  0  0  0  0  0  0  0  0  0  0
   -2.1965   -0.5640    5.7098 H   0  0  0  0  0  0  0  0  0  0  0  0
    1.3132    2.5358    3.0335 H   0  0  0  0  0  0  0  0  0  0  0  0
    1.5707    4.0362    2.1023 H   0  0  0  0  0  0  0  0  0  0  0  0
    0.9315    3.4051   -2.7188 H   0  0  0  0  0  0  0  0  0  0  0  0
    0.6955    1.6479   -2.9681 H   0  0  0  0  0  0  0  0  0  0  0  0
    2.1915    2.2648   -2.1967 H   0  0  0  0  0  0  0  0  0  0  0  0
   -3.8917    2.9690    0.4888 H   0  0  0  0  0  0  0  0  0  0  0  0
   -3.5290    4.1842    1.7371 H   0  0  0  0  0  0  0  0  0  0  0  0
   -4.1074    2.5541    2.2237 H   0  0  0  0  0  0  0  0  0  0  0  0
   -2.4834   -4.6758    5.3366 H   0  0  0  0  0  0  0  0  0  0  0  0
   -1.7735   -4.1402    3.7830 H   0  0  0  0  0  0  0  0  0  0  0  0
   -3.5101   -4.5825    3.8856 H   0  0  0  0  0  0  0  0  0  0  0  0
   -5.2217    0.1968    1.4185 H   0  0  0  0  0  0  0  0  0  0  0  0
   -4.9521   -1.5191    0.9833 H   0  0  0  0  0  0  0  0  0  0  0  0
   -3.5539   -0.4519    1.3356 H   0  0  0  0  0  0  0  0  0  0  0  0
  1 12  1  0  0  0  0
  1  3  1  0  0  0  0
  2  1  1  0  0  0  0
  4 30  1  0  0  0  0
  5 30  2  0  0  0  0
  7 31  2  0  0  0  0
  8 34  2  0  0  0  0
  9 34  1  0  0  0  0
 11 35  1  0  0  0  0
 12 18  1  0  0  0  0
 13 19  1  0  0  0  0
 13 23  1  0  0  0  0
 14 15  2  0  0  0  0
 14 12  1  0  0  0  0
 15 16  1  0  0  0  0
 16 39  1  0  0  0  0
 16 17  2  0  0  0  0
 17 24  1  0  0  0  0
 18 17  1  0  0  0  0
 18 19  2  0  0  0  0
 19 20  1  0  0  0  0
 20 25  1  0  0  0  0
 20 21  2  0  0  0  0
 21 40  1  0  0  0  0
 22 21  1  0  0  0  0
 22 41  1  0  0  0  0
 23 22  2  0  0  0  0
 24 42  1  0  0  0  0
 24 25  2  0  0  0  0
 25 43  1  0  0  0  0
 26 23  1  0  0  0  0
 26 46  1  0  0  0  0
 27 44  1  0  0  0  0
 27 26  1  0  0  0  0
 28 48  1  0  0  0  0
 28 14  1  0  0  0  0
 29 45  1  0  0  0  0
 29 28  1  0  0  0  0
 30 29  1  0  0  0  0
 31 29  1  0  0  0  0
 31  6  1  0  0  0  0
 32 52  1  0  0  0  0
 32  4  1  0  0  0  0
 33  6  1  0  0  0  0
 33 54  1  0  0  0  0
 33 55  1  0  0  0  0
 34 27  1  0  0  0  0
 35 27  1  0  0  0  0
 35 10  2  0  0  0  0
 36 11  1  0  0  0  0
 36 56  1  0  0  0  0
 37  9  1  0  0  0  0
 38 15  1  0  0  0  0
 47 26  1  0  0  0  0
 49 28  1  0  0  0  0
 50 32  1  0  0  0  0
 51 32  1  0  0  0  0
 53 33  1  0  0  0  0
 57 36  1  0  0  0  0
 58 36  1  0  0  0  0
 59 37  1  0  0  0  0
 60 37  1  0  0  0  0
 61 37  1  0  0  0  0
M  END
$$$$
