CSD_code = VUXTOZ | q = 0 | S = 0 | Stoichiometry = C22H18Cl2N6Zn | MND = 4
 OpenBabel04212202113D

 49 54  0  0  0  0  0  0  0  0999 V2000
   13.7960    2.7067   12.0983 Zn  0  0  0  0  0  0  0  0  0  0  0  0
   13.7893    1.6775   10.0884 Cl  0  0  0  0  0  0  0  0  0  0  0  0
   11.6097    3.1957   11.9961 N   0  0  0  0  0  0  0  0  0  0  0  0
   12.8987    4.6483   13.0995 N   0  0  0  0  0  0  0  0  0  0  0  0
   13.1577    5.8241   13.4751 N   0  0  0  0  0  2  0  0  0  0  0  0
   10.4679    2.7366   11.5323 C   0  0  0  0  0  3  0  0  0  0  0  0
   10.5221    1.8084   10.9811 H   0  0  0  0  0  0  0  0  0  0  0  0
    9.2665    3.4063   11.7340 C   0  0  0  0  0  0  0  0  0  0  0  0
    8.3459    2.9996   11.3471 H   0  0  0  0  0  0  0  0  0  0  0  0
    9.2770    4.5974   12.4471 C   0  0  0  0  0  0  0  0  0  0  0  0
    8.3594    5.1391   12.6228 H   0  0  0  0  0  0  0  0  0  0  0  0
   10.4763    5.0838   12.9317 C   0  0  0  0  0  0  0  0  0  0  0  0
   10.5478    5.9996   13.4964 H   0  0  0  0  0  0  0  0  0  0  0  0
   11.6314    4.3426   12.6724 C   0  0  0  0  0  0  0  0  0  0  0  0
   14.4312    6.0504   13.9406 C   0  0  0  0  0  0  0  0  0  0  0  0
   14.9346    7.3498   13.8036 C   0  0  0  0  0  0  0  0  0  0  0  0
   14.3130    8.1022   13.3443 H   0  0  0  0  0  0  0  0  0  0  0  0
   16.2211    7.6305   14.2115 C   0  0  0  0  0  0  0  0  0  0  0  0
   16.6208    8.6258   14.0867 H   0  0  0  0  0  0  0  0  0  0  0  0
   17.0010    6.6377   14.7902 C   0  0  0  0  0  0  0  0  0  0  0  0
   18.0047    6.8663   15.1167 H   0  0  0  0  0  0  0  0  0  0  0  0
   16.4895    5.3597   14.9675 C   0  0  0  0  0  0  0  0  0  0  0  0
   17.0910    4.5973   15.4394 H   0  0  0  0  0  0  0  0  0  0  0  0
   15.2136    5.0536   14.5423 C   0  0  0  0  0  0  0  0  0  0  0  0
   14.7923    4.0695   14.6916 H   0  0  0  0  0  0  0  0  0  0  0  0
   13.8023    1.6774   14.1081 Cl  0  0  0  0  0  0  0  0  0  0  0  0
   15.9823    3.1957   12.2004 N   0  0  0  0  0  0  0  0  0  0  0  0
   14.6935    4.6481   11.0965 N   0  0  0  0  0  0  0  0  0  0  0  0
   14.4342    5.8241   10.7216 N   0  0  0  0  0  2  0  0  0  0  0  0
   17.1241    2.7364   12.6639 C   0  0  0  0  0  3  0  0  0  0  0  0
   17.0699    1.8083   13.2152 H   0  0  0  0  0  0  0  0  0  0  0  0
   18.3257    3.4051   12.4607 C   0  0  0  0  0  0  0  0  0  0  0  0
   19.2464    2.9982   12.8471 H   0  0  0  0  0  0  0  0  0  0  0  0
   18.3154    4.5959   11.7472 C   0  0  0  0  0  0  0  0  0  0  0  0
   19.2331    5.1370   11.5703 H   0  0  0  0  0  0  0  0  0  0  0  0
   17.1160    5.0828   11.2631 C   0  0  0  0  0  0  0  0  0  0  0  0
   17.0446    5.9983   10.6980 H   0  0  0  0  0  0  0  0  0  0  0  0
   15.9607    4.3422   11.5235 C   0  0  0  0  0  0  0  0  0  0  0  0
   13.1606    6.0500   10.2559 C   0  0  0  0  0  0  0  0  0  0  0  0
   12.6566    7.3491   10.3934 C   0  0  0  0  0  0  0  0  0  0  0  0
   13.2777    8.1016   10.8532 H   0  0  0  0  0  0  0  0  0  0  0  0
   11.3700    7.6294    9.9852 C   0  0  0  0  0  0  0  0  0  0  0  0
   10.9698    8.6245   10.1103 H   0  0  0  0  0  0  0  0  0  0  0  0
   10.5909    6.6366    9.4057 C   0  0  0  0  0  0  0  0  0  0  0  0
    9.5871    6.8648    9.0790 H   0  0  0  0  0  0  0  0  0  0  0  0
   11.1030    5.3589    9.2279 C   0  0  0  0  0  0  0  0  0  0  0  0
   10.5020    4.5964    8.7555 H   0  0  0  0  0  0  0  0  0  0  0  0
   12.3789    5.0531    9.6535 C   0  0  0  0  0  0  0  0  0  0  0  0
   12.8006    4.0693    9.5039 H   0  0  0  0  0  0  0  0  0  0  0  0
  1 27  1  0  0  0  0
  1  4  1  0  0  0  0
  1 26  1  0  0  0  0
  2  1  1  0  0  0  0
  3  1  1  0  0  0  0
  3 14  1  0  0  0  0
  4  5  1  0  0  0  0
  5 15  1  0  0  0  0
  6  8  1  0  0  0  0
  6  3  1  0  0  0  0
  7  6  1  0  0  0  0
  8 10  2  0  0  0  0
  9  8  1  0  0  0  0
 10 11  1  0  0  0  0
 10 12  1  0  0  0  0
 12 13  1  0  0  0  0
 14 12  2  0  0  0  0
 14  4  1  0  0  0  0
 15 24  1  0  0  0  0
 16 15  2  0  0  0  0
 16 18  1  0  0  0  0
 17 16  1  0  0  0  0
 18 20  2  0  0  0  0
 19 18  1  0  0  0  0
 20 22  1  0  0  0  0
 20 21  1  0  0  0  0
 22 23  1  0  0  0  0
 24 25  1  0  0  0  0
 24 22  2  0  0  0  0
 27 30  1  0  0  0  0
 28 38  1  0  0  0  0
 28  1  1  0  0  0  0
 29 28  1  0  0  0  0
 30 31  1  0  0  0  0
 32 30  1  0  0  0  0
 32 33  1  0  0  0  0
 34 32  2  0  0  0  0
 35 34  1  0  0  0  0
 36 38  2  0  0  0  0
 36 34  1  0  0  0  0
 37 36  1  0  0  0  0
 38 27  1  0  0  0  0
 39 40  1  0  0  0  0
 39 29  1  0  0  0  0
 40 41  1  0  0  0  0
 42 43  1  0  0  0  0
 42 40  2  0  0  0  0
 44 42  1  0  0  0  0
 45 44  1  0  0  0  0
 46 44  2  0  0  0  0
 46 48  1  0  0  0  0
 47 46  1  0  0  0  0
 48 39  2  0  0  0  0
 49 48  1  0  0  0  0
M  END
$$$$
