CSD_code = VUYFIF | q = 0 | S = 0 | Stoichiometry = C21H20Cl2N2Pd | MND = 4
 OpenBabel04212202113D

 46 49  0  0  0  0  0  0  0  0999 V2000
    2.0318    9.1640    8.3190 Pd  0  0  0  0  0  0  0  0  0  0  0  0
    3.4132   10.0141    9.8301 Cl  0  0  0  0  0  0  0  0  0  0  0  0
    1.5443    7.5257    9.7430 Cl  0  0  0  0  0  0  0  0  0  0  0  0
    2.2829   10.6646    6.9995 N   0  0  0  0  0  0  0  0  0  0  0  0
    0.8254    8.5504    6.9098 N   0  0  0  0  0  0  0  0  0  0  0  0
    3.1210   11.6948    7.0849 C   0  0  0  0  0  0  0  0  0  0  0  0
    3.7488   11.7172    7.9689 H   0  0  0  0  0  0  0  0  0  0  0  0
    3.1878   12.6760    6.1131 C   0  0  0  0  0  0  0  0  0  0  0  0
    3.8780   13.4962    6.2231 H   0  0  0  0  0  0  0  0  0  0  0  0
    2.3633   12.5772    4.9963 C   0  0  0  0  0  0  0  0  0  0  0  0
    2.4056   13.3188    4.2134 H   0  0  0  0  0  0  0  0  0  0  0  0
    1.4913   11.5116    4.9027 C   0  0  0  0  0  0  0  0  0  0  0  0
    0.8472   11.3923    4.0460 H   0  0  0  0  0  0  0  0  0  0  0  0
    1.4541   10.5667    5.9322 C   0  0  0  0  0  0  0  0  0  0  0  0
    0.6167    9.3820    5.9320 C   0  0  0  0  0  0  0  0  0  0  0  0
   -0.3895    9.1561    4.8773 C   0  0  0  0  0  0  0  0  0  0  0  0
   -1.3453   10.1393    4.6205 C   0  0  0  0  0  0  0  0  0  0  0  0
   -1.3334   11.0578    5.1904 H   0  0  0  0  0  0  0  0  0  0  0  0
   -2.3233    9.9300    3.6661 C   0  0  0  0  0  0  0  0  0  0  0  0
   -3.0623   10.6951    3.4806 H   0  0  0  0  0  0  0  0  0  0  0  0
   -2.3577    8.7421    2.9545 C   0  0  0  0  0  0  0  0  0  0  0  0
   -3.1222    8.5803    2.2099 H   0  0  0  0  0  0  0  0  0  0  0  0
   -1.4109    7.7627    3.2033 C   0  0  0  0  0  0  0  0  0  0  0  0
   -1.4334    6.8353    2.6515 H   0  0  0  0  0  0  0  0  0  0  0  0
   -0.4337    7.9634    4.1606 C   0  0  0  0  0  0  0  0  0  0  0  0
    0.3037    7.1978    4.3425 H   0  0  0  0  0  0  0  0  0  0  0  0
    0.1591    7.3212    7.0205 C   0  0  0  0  0  0  0  0  0  0  0  0
   -1.1661    7.2644    7.4561 C   0  0  0  0  0  0  0  0  0  0  0  0
   -1.7694    6.0224    7.5692 C   0  0  0  0  0  0  0  0  0  0  0  0
   -2.7928    5.9689    7.9115 H   0  0  0  0  0  0  0  0  0  0  0  0
   -1.0845    4.8526    7.2769 C   0  0  0  0  0  0  0  0  0  0  0  0
    0.2515    4.9345    6.9028 C   0  0  0  0  0  0  0  0  0  0  0  0
    0.8067    4.0263    6.7177 H   0  0  0  0  0  0  0  0  0  0  0  0
    0.8949    6.1525    6.7852 C   0  0  0  0  0  0  0  0  0  0  0  0
   -1.8628    8.5239    7.8731 C   0  0  0  0  0  0  0  0  0  0  0  0
   -2.7483    8.2914    8.4579 H   0  0  0  0  0  0  0  0  0  0  0  0
   -2.1654    9.1163    7.0086 H   0  0  0  0  0  0  0  0  0  0  0  0
   -1.1851    9.1287    8.4879 H   0  0  0  0  0  0  0  0  0  0  0  0
   -1.7466    3.5163    7.4171 C   0  0  0  0  0  0  0  0  0  0  0  0
   -2.8285    3.6164    7.4325 H   0  0  0  0  0  0  0  0  0  0  0  0
   -1.4343    3.0462    8.3489 H   0  0  0  0  0  0  0  0  0  0  0  0
   -1.4634    2.8570    6.5996 H   0  0  0  0  0  0  0  0  0  0  0  0
    2.3508    6.2555    6.4392 C   0  0  0  0  0  0  0  0  0  0  0  0
    2.8675    6.8730    7.1973 H   0  0  0  0  0  0  0  0  0  0  0  0
    2.4991    6.7265    5.4650 H   0  0  0  0  0  0  0  0  0  0  0  0
    2.8105    5.2713    6.4234 H   0  0  0  0  0  0  0  0  0  0  0  0
  1  3  1  0  0  0  0
  1  2  1  0  0  0  0
  4  6  1  0  0  0  0
  4  1  1  0  0  0  0
  5 27  1  0  0  0  0
  5  1  1  0  0  0  0
  6  7  1  0  0  0  0
  8  9  1  0  0  0  0
  8  6  2  0  0  0  0
 10  8  1  0  0  0  0
 11 10  1  0  0  0  0
 12 10  2  0  0  0  0
 12 14  1  0  0  0  0
 13 12  1  0  0  0  0
 14  4  1  0  0  0  0
 15 14  2  0  0  0  0
 15  5  1  0  0  0  0
 16 15  1  0  0  0  0
 17 16  1  0  0  0  0
 17 18  1  0  0  0  0
 19 17  2  0  0  0  0
 20 19  1  0  0  0  0
 21 23  2  0  0  0  0
 21 19  1  0  0  0  0
 22 21  1  0  0  0  0
 23 25  1  0  0  0  0
 24 23  1  0  0  0  0
 25 26  1  0  0  0  0
 25 16  2  0  0  0  0
 27 28  1  0  0  0  0
 28 29  2  0  0  0  0
 28 35  1  0  0  0  0
 29 30  1  0  0  0  0
 31 39  1  0  0  0  0
 31 29  1  0  0  0  0
 32 31  2  0  0  0  0
 33 32  1  0  0  0  0
 34 32  1  0  0  0  0
 34 27  2  0  0  0  0
 35 36  1  0  0  0  0
 35 38  1  0  0  0  0
 37 35  1  0  0  0  0
 39 40  1  0  0  0  0
 39 41  1  0  0  0  0
 42 39  1  0  0  0  0
 43 34  1  0  0  0  0
 43 44  1  0  0  0  0
 45 43  1  0  0  0  0
 46 43  1  0  0  0  0
M  END
$$$$
