CSD_code = VUYGEC | q = 1 | S = 0 | Stoichiometry = C6H16Cl2N3Pd(1+) | MND = 4
 OpenBabel04212202113D

 28 29  0  0  1  0  0  0  0  0999 V2000
    4.5812    7.6166    2.4216 Pd  0  0  0  0  0  0  0  0  0  0  0  0
    3.7676    8.3267    0.4792 Cl  0  0  0  0  0  0  0  0  0  0  0  0
    6.6711    8.1335    1.8717 Cl  0  0  0  0  0  0  0  0  0  0  0  0
    5.1873    6.7570    4.3029 N   0  0  2  0  0  4  0  0  0  0  0  0
    2.6540    6.7714    3.0809 N   0  0  1  0  0  4  0  0  0  0  0  0
    4.3272    4.2398    2.3728 N   0  0  0  0  0  4  0  0  0  0  0  0
    5.6562    4.8050    2.8033 C   0  0  0  0  0  0  0  0  0  0  0  0
    5.9648    5.6095    2.1081 H   0  0  0  0  0  0  0  0  0  0  0  0
    6.3886    3.9988    2.7501 H   0  0  0  0  0  0  0  0  0  0  0  0
    3.4347    5.0366    1.4561 C   0  0  0  0  0  0  0  0  0  0  0  0
    3.0340    4.3613    0.6992 H   0  0  0  0  0  0  0  0  0  0  0  0
    4.0266    5.8255    0.9515 H   0  0  0  0  0  0  0  0  0  0  0  0
    5.6740    5.3781    4.2306 C   0  0  0  0  0  0  0  0  0  0  0  0
    5.0989    4.7369    4.9091 H   0  0  0  0  0  0  0  0  0  0  0  0
    6.7169    5.3406    4.5571 H   0  0  0  0  0  0  0  0  0  0  0  0
    2.2483    5.7150    2.1566 C   0  0  0  0  0  0  0  0  0  0  0  0
    1.6657    6.1674    1.3499 H   0  0  0  0  0  0  0  0  0  0  0  0
    1.6165    4.9684    2.6564 H   0  0  0  0  0  0  0  0  0  0  0  0
    2.7479    6.3963    4.4989 C   0  0  0  0  0  0  0  0  0  0  0  0
    2.7699    5.3049    4.5852 H   0  0  0  0  0  0  0  0  0  0  0  0
    1.8754    6.7406    5.0645 H   0  0  0  0  0  0  0  0  0  0  0  0
    4.0109    6.9923    5.1435 C   0  0  0  0  0  0  0  0  0  0  0  0
    3.8839    8.0768    5.2333 H   0  0  0  0  0  0  0  0  0  0  0  0
    4.1346    6.5761    6.1532 H   0  0  0  0  0  0  0  0  0  0  0  0
    5.9445    7.3841    4.5719 H   0  0  0  0  0  0  0  0  0  0  0  0
    2.0561    7.5879    2.9661 H   0  0  0  0  0  0  0  0  0  0  0  0
    3.7881    4.0038    3.2177 H   0  0  0  0  0  0  0  0  0  0  0  0
    4.5271    3.3587    1.8918 H   0  0  0  0  0  0  0  0  0  0  0  0
  1  5  1  0  0  0  0
  1  4  1  0  0  0  0
  2  1  1  0  0  0  0
  3  1  1  0  0  0  0
  4 25  1  1  0  0  0
  4 22  1  0  0  0  0
  5 26  1  6  0  0  0
  5 19  1  0  0  0  0
  6  7  1  0  0  0  0
  6 27  1  0  0  0  0
  7 13  1  0  0  0  0
  8  7  1  0  0  0  0
  9  7  1  0  0  0  0
 10 16  1  0  0  0  0
 10  6  1  0  0  0  0
 11 10  1  0  0  0  0
 12 10  1  0  0  0  0
 13  4  1  0  0  0  0
 13 15  1  0  0  0  0
 13 14  1  0  0  0  0
 16 18  1  0  0  0  0
 16  5  1  0  0  0  0
 17 16  1  0  0  0  0
 19 20  1  0  0  0  0
 19 21  1  0  0  0  0
 19 22  1  0  0  0  0
 22 23  1  0  0  0  0
 22 24  1  0  0  0  0
 28  6  1  0  0  0  0
M  END
$$$$
