CSD_code = VUYJOQ | q = 0 | S = 0 | Stoichiometry = C28H25ClOZr | MND = 12
 OpenBabel04212202113D

 56 61  0  0  1  0  0  0  0  0999 V2000
    5.5297    5.1643   23.5370 Zr  0  0  1  0  0  0  0  0  0  0  0  0
    7.3574    6.0966   24.6754 Cl  0  0  0  0  0  0  0  0  0  0  0  0
    4.4240    6.6533   23.4148 O   0  0  0  0  0  0  0  0  0  0  0  0
    5.9163    3.6291   21.6055 C   0  0  0  0  0  0  0  0  0  0  0  0
    5.0554    4.6394   21.1103 C   0  0  0  0  0  0  0  0  0  0  0  0
    4.0802    4.4538   20.6727 H   0  0  0  0  0  0  0  0  0  0  0  0
    5.7368    5.8749   21.0764 C   0  0  0  0  0  0  0  0  0  0  0  0
    5.3677    6.7977   20.6475 H   0  0  0  0  0  0  0  0  0  0  0  0
    8.1809    6.4938   21.6760 C   0  0  0  0  0  0  0  0  0  0  0  0
    8.1080    7.5370   21.3961 H   0  0  0  0  0  0  0  0  0  0  0  0
    9.3610    5.9646   22.1288 C   0  0  0  0  0  0  0  0  0  0  0  0
   10.2336    6.5938   22.2176 H   0  0  0  0  0  0  0  0  0  0  0  0
    9.4664    4.6083   22.4916 C   0  0  0  0  0  0  0  0  0  0  0  0
   10.4164    4.2399   22.8494 H   0  0  0  0  0  0  0  0  0  0  0  0
    8.3980    3.7543   22.3952 C   0  0  0  0  0  0  0  0  0  0  0  0
    8.5091    2.7053   22.6427 H   0  0  0  0  0  0  0  0  0  0  0  0
    7.1659    4.2486   21.9119 C   0  0  2  0  0  0  0  0  0  0  0  0
    7.0533    5.6550   21.5628 C   0  0  0  0  0  0  0  0  0  0  0  0
    5.1400    2.7625   24.0880 C   0  0  2  0  0  3  0  0  0  0  0  0
    5.9006    3.3040   25.1446 C   0  0  2  0  0  0  0  0  0  0  0  0
    6.8857    2.9616   25.4472 H   0  0  0  0  0  0  0  0  0  0  0  0
    5.1346    4.2657   25.8448 C   0  0  0  0  0  3  0  0  0  0  0  0
    5.4245    4.7358   26.7767 H   0  0  0  0  0  0  0  0  0  0  0  0
    2.6566    4.9929   25.5769 C   0  0  0  0  0  0  0  0  0  0  0  0
    2.6300    5.6543   26.4327 H   0  0  0  0  0  0  0  0  0  0  0  0
    1.5246    4.7577   24.8403 C   0  0  0  0  0  0  0  0  0  0  0  0
    0.6031    5.2551   25.1011 H   0  0  0  0  0  0  0  0  0  0  0  0
    1.5315    3.8687   23.7498 C   0  0  0  0  0  0  0  0  0  0  0  0
    0.6126    3.7067   23.2059 H   0  0  0  0  0  0  0  0  0  0  0  0
    2.6686    3.1940   23.3813 C   0  0  0  0  0  0  0  0  0  0  0  0
    2.6416    2.4787   22.5690 H   0  0  0  0  0  0  0  0  0  0  0  0
    3.8565    3.3947   24.1161 C   0  0  0  0  0  0  0  0  0  0  0  0
    3.8498    4.3232   25.2352 C   0  0  0  0  0  0  0  0  0  0  0  0
    5.5914    2.1626   21.6875 C   0  0  0  0  0  0  0  0  0  0  0  0
    6.3202    1.5805   21.1147 H   0  0  0  0  0  0  0  0  0  0  0  0
    4.6105    1.9963   21.2344 H   0  0  0  0  0  0  0  0  0  0  0  0
    5.5812    1.6691   23.1543 C   0  0  0  0  0  0  0  0  0  0  0  0
    4.9181    0.8023   23.2423 H   0  0  0  0  0  0  0  0  0  0  0  0
    6.5844    1.3460   23.4446 H   0  0  0  0  0  0  0  0  0  0  0  0
    3.4143    7.3819   23.8996 C   0  0  0  0  0  0  0  0  0  0  0  0
    2.1999    7.4442   23.1951 C   0  0  0  0  0  0  0  0  0  0  0  0
    1.1604    8.2015   23.7073 C   0  0  0  0  0  0  0  0  0  0  0  0
    0.2243    8.2442   23.1690 H   0  0  0  0  0  0  0  0  0  0  0  0
    1.3082    8.9021   24.8918 C   0  0  0  0  0  0  0  0  0  0  0  0
    0.4888    9.4881   25.2799 H   0  0  0  0  0  0  0  0  0  0  0  0
    2.5133    8.8585   25.5713 C   0  0  0  0  0  0  0  0  0  0  0  0
    2.6349    9.4173   26.4883 H   0  0  0  0  0  0  0  0  0  0  0  0
    3.5747    8.1093   25.0911 C   0  0  0  0  0  0  0  0  0  0  0  0
    2.0780    6.6894   21.9048 C   0  0  0  0  0  0  0  0  0  0  0  0
    1.0435    6.6554   21.5729 H   0  0  0  0  0  0  0  0  0  0  0  0
    2.4499    5.6701   22.0384 H   0  0  0  0  0  0  0  0  0  0  0  0
    2.6776    7.1711   21.1307 H   0  0  0  0  0  0  0  0  0  0  0  0
    4.9002    8.0552   25.7885 C   0  0  0  0  0  0  0  0  0  0  0  0
    4.9123    8.7200   26.6489 H   0  0  0  0  0  0  0  0  0  0  0  0
    5.6969    8.3505   25.1000 H   0  0  0  0  0  0  0  0  0  0  0  0
    5.1186    7.0355   26.1227 H   0  0  0  0  0  0  0  0  0  0  0  0
  1  2  1  1  0  0  0
  1 20  1  0  0  0  0
  3  1  1  0  0  0  0
  3 40  1  0  0  0  0
  4 34  1  0  0  0  0
  4 17  1  0  0  0  0
  5  4  2  0  0  0  0
  6  5  1  0  0  0  0
  7  5  1  0  0  0  0
  7 18  2  0  0  0  0
  8  7  1  0  0  0  0
  9 11  2  0  0  0  0
 10  9  1  0  0  0  0
 11 12  1  0  0  0  0
 11 13  1  0  0  0  0
 13 14  1  0  0  0  0
 15 13  2  0  0  0  0
 15 16  1  0  0  0  0
 17 18  1  6  0  0  0
 17 15  1  0  0  0  0
 17  1  1  0  0  0  0
 18  9  1  0  0  0  0
 19 32  1  1  0  0  0
 19 20  1  0  0  0  0
 20 21  1  1  0  0  0
 20 22  1  0  0  0  0
 22 23  1  0  0  0  0
 24 25  1  0  0  0  0
 26 27  1  0  0  0  0
 26 24  2  0  0  0  0
 28 26  1  0  0  0  0
 29 28  1  0  0  0  0
 30 28  2  0  0  0  0
 30 32  1  0  0  0  0
 31 30  1  0  0  0  0
 32 33  2  0  0  0  0
 33 24  1  0  0  0  0
 33 22  1  0  0  0  0
 34 37  1  0  0  0  0
 35 34  1  0  0  0  0
 36 34  1  0  0  0  0
 37 38  1  0  0  0  0
 37 39  1  0  0  0  0
 37 19  1  0  0  0  0
 40 48  1  0  0  0  0
 41 42  1  0  0  0  0
 41 40  2  0  0  0  0
 42 44  2  0  0  0  0
 43 42  1  0  0  0  0
 44 45  1  0  0  0  0
 44 46  1  0  0  0  0
 46 47  1  0  0  0  0
 48 46  2  0  0  0  0
 48 53  1  0  0  0  0
 49 51  1  0  0  0  0
 49 41  1  0  0  0  0
 50 49  1  0  0  0  0
 52 49  1  0  0  0  0
 53 56  1  0  0  0  0
 53 54  1  0  0  0  0
 55 53  1  0  0  0  0
M  END
$$$$
