CSD_code = VUZDOK | q = 0 | S = 0 | Stoichiometry = C22H18Cl2N2Pt | MND = 4
 OpenBabel04212202113D

 45 48  0  0  0  0  0  0  0  0999 V2000
    4.6244    2.5275   10.1739 Pt  0  0  0  0  0  0  0  0  0  0  0  0
    3.6219    2.8369   12.1824 Cl  0  0  0  0  0  0  0  0  0  0  0  0
    5.6192    0.6172   10.8769 Cl  0  0  0  0  0  0  0  0  0  0  0  0
    3.7639    4.2835    9.5897 N   0  0  0  0  0  0  0  0  0  0  0  0
    4.0164    5.3844   10.2965 C   0  0  0  0  0  3  0  0  0  0  0  0
    4.5609    5.2452   11.2206 H   0  0  0  0  0  0  0  0  0  0  0  0
    3.6059    6.6389    9.8896 C   0  0  0  0  0  0  0  0  0  0  0  0
    3.8353    7.5014   10.4936 H   0  0  0  0  0  0  0  0  0  0  0  0
    2.9030    6.7616    8.7000 C   0  0  0  0  0  0  0  0  0  0  0  0
    2.5768    7.7273    8.3452 H   0  0  0  0  0  0  0  0  0  0  0  0
    2.6068    5.6131    7.9878 C   0  0  0  0  0  0  0  0  0  0  0  0
    2.0244    5.6536    7.0805 H   0  0  0  0  0  0  0  0  0  0  0  0
    3.0377    4.3805    8.4670 C   0  0  0  0  0  0  0  0  0  0  0  0
    2.6797    3.1283    7.7821 C   0  0  0  0  0  0  0  0  0  0  0  0
    2.8269    2.9944    6.4049 C   0  0  0  0  0  0  0  0  0  0  0  0
    3.2234    3.8169    5.8264 H   0  0  0  0  0  0  0  0  0  0  0  0
    2.4992    1.8027    5.7838 C   0  0  0  0  0  0  0  0  0  0  0  0
    2.6272    1.7019    4.7161 H   0  0  0  0  0  0  0  0  0  0  0  0
    2.0091    0.7427    6.5287 C   0  0  0  0  0  0  0  0  0  0  0  0
    1.7521   -0.1851    6.0400 H   0  0  0  0  0  0  0  0  0  0  0  0
    1.8373    0.8768    7.8973 C   0  0  0  0  0  0  0  0  0  0  0  0
    1.4391    0.0579    8.4760 H   0  0  0  0  0  0  0  0  0  0  0  0
    2.1742    2.0610    8.5297 C   0  0  0  0  0  0  0  0  0  0  0  0
    1.9905    2.1812    9.5906 H   0  0  0  0  0  0  0  0  0  0  0  0
    5.4945    2.1959    8.3575 N   0  0  0  0  0  0  0  0  0  0  0  0
    5.2423    1.0476    7.7308 C   0  0  0  0  0  3  0  0  0  0  0  0
    4.6912    0.3065    8.2937 H   0  0  0  0  0  0  0  0  0  0  0  0
    5.6616    0.7986    6.4386 C   0  0  0  0  0  0  0  0  0  0  0  0
    5.4323   -0.1451    5.9716 H   0  0  0  0  0  0  0  0  0  0  0  0
    6.3732    1.7796    5.7637 C   0  0  0  0  0  0  0  0  0  0  0  0
    6.7057    1.6248    4.7489 H   0  0  0  0  0  0  0  0  0  0  0  0
    6.6686    2.9557    6.4298 C   0  0  0  0  0  0  0  0  0  0  0  0
    7.2568    3.7295    5.9617 H   0  0  0  0  0  0  0  0  0  0  0  0
    6.2291    3.1306    7.7377 C   0  0  0  0  0  0  0  0  0  0  0  0
    6.5867    4.3316    8.5088 C   0  0  0  0  0  0  0  0  0  0  0  0
    6.4497    5.6044    7.9633 C   0  0  0  0  0  0  0  0  0  0  0  0
    6.0610    5.7182    6.9612 H   0  0  0  0  0  0  0  0  0  0  0  0
    6.7785    6.7200    8.7119 C   0  0  0  0  0  0  0  0  0  0  0  0
    6.6587    7.7051    8.2858 H   0  0  0  0  0  0  0  0  0  0  0  0
    7.2593    6.5743   10.0028 C   0  0  0  0  0  0  0  0  0  0  0  0
    7.5173    7.4476   10.5828 H   0  0  0  0  0  0  0  0  0  0  0  0
    7.4208    5.3089   10.5441 C   0  0  0  0  0  0  0  0  0  0  0  0
    7.8118    5.1934   11.5432 H   0  0  0  0  0  0  0  0  0  0  0  0
    7.0827    4.1870    9.8075 C   0  0  0  0  0  0  0  0  0  0  0  0
    7.2596    3.1983   10.2131 H   0  0  0  0  0  0  0  0  0  0  0  0
  1  3  1  0  0  0  0
  1  2  1  0  0  0  0
  4  1  1  0  0  0  0
  4  5  1  0  0  0  0
  5  6  1  0  0  0  0
  7  5  1  0  0  0  0
  7  8  1  0  0  0  0
  9  7  2  0  0  0  0
 10  9  1  0  0  0  0
 11 13  2  0  0  0  0
 11  9  1  0  0  0  0
 12 11  1  0  0  0  0
 13  4  1  0  0  0  0
 14 13  1  0  0  0  0
 14 23  1  0  0  0  0
 15 14  2  0  0  0  0
 16 15  1  0  0  0  0
 17 15  1  0  0  0  0
 17 19  2  0  0  0  0
 18 17  1  0  0  0  0
 19 21  1  0  0  0  0
 20 19  1  0  0  0  0
 21 22  1  0  0  0  0
 21 23  2  0  0  0  0
 23 24  1  0  0  0  0
 25  1  1  0  0  0  0
 26 27  1  0  0  0  0
 26 25  1  0  0  0  0
 28 26  1  0  0  0  0
 29 28  1  0  0  0  0
 30 32  1  0  0  0  0
 30 28  2  0  0  0  0
 31 30  1  0  0  0  0
 32 34  2  0  0  0  0
 33 32  1  0  0  0  0
 34 25  1  0  0  0  0
 34 35  1  0  0  0  0
 35 44  1  0  0  0  0
 36 35  2  0  0  0  0
 36 38  1  0  0  0  0
 37 36  1  0  0  0  0
 38 40  2  0  0  0  0
 39 38  1  0  0  0  0
 40 42  1  0  0  0  0
 40 41  1  0  0  0  0
 42 43  1  0  0  0  0
 44 45  1  0  0  0  0
 44 42  2  0  0  0  0
M  END
$$$$
