CSD_code = WABPUM | q = 0 | S = 0 | Stoichiometry = C15H9BrClN2O3Re | MND = 6
 OpenBabel04212202113D

 32 34  0  0  0  0  0  0  0  0999 V2000
    8.4217    9.9304    7.8894 Re  0  0  0  0  0  0  0  0  0  0  0  0
    8.9786    9.2731   10.3186 Br  0  0  0  0  0  0  0  0  0  0  0  0
   13.1716    4.7574    5.9776 Cl  0  0  0  0  0  0  0  0  0  0  0  0
    7.6344   10.6072    4.9818 O   0  0  0  0  0  1  0  0  0  0  0  0
    8.1423   12.8302    8.9352 O   0  0  0  0  0  1  0  0  0  0  0  0
   11.4757   10.1791    7.4541 O   0  0  0  0  0  1  0  0  0  0  0  0
    6.4213    9.3357    8.4314 N   0  0  0  0  0  0  0  0  0  0  0  0
    8.4011    7.8206    7.5752 N   0  0  0  0  0  0  0  0  0  0  0  0
    7.9311   10.3693    6.0638 C   0  0  0  0  0  2  0  0  0  0  0  0
    8.2649   11.7851    8.4882 C   0  0  0  0  0  2  0  0  0  0  0  0
   10.3393   10.1406    7.5660 C   0  0  0  0  0  2  0  0  0  0  0  0
    5.4402   10.1157    8.8741 C   0  0  0  0  0  3  0  0  0  0  0  0
    5.6176   11.1828    8.8356 H   0  0  0  0  0  0  0  0  0  0  0  0
    4.2482    9.6196    9.3699 C   0  0  0  0  0  0  0  0  0  0  0  0
    3.4914   10.3005    9.7236 H   0  0  0  0  0  0  0  0  0  0  0  0
    4.0512    8.2439    9.4095 C   0  0  0  0  0  0  0  0  0  0  0  0
    3.1341    7.8283    9.7967 H   0  0  0  0  0  0  0  0  0  0  0  0
    5.0579    7.4225    8.9469 C   0  0  0  0  0  0  0  0  0  0  0  0
    4.9603    6.3482    8.9597 H   0  0  0  0  0  0  0  0  0  0  0  0
    6.2363    7.9972    8.4659 C   0  0  0  0  0  0  0  0  0  0  0  0
    7.3449    7.2100    7.9960 C   0  0  0  0  0  3  0  0  0  0  0  0
    7.2699    6.1261    8.0066 H   0  0  0  0  0  0  0  0  0  0  0  0
    9.5189    7.0701    7.1950 C   0  0  0  0  0  0  0  0  0  0  0  0
   10.2215    7.4228    6.0413 C   0  0  0  0  0  0  0  0  0  0  0  0
    9.8748    8.2532    5.4418 H   0  0  0  0  0  0  0  0  0  0  0  0
   11.3358    6.7053    5.6611 C   0  0  0  0  0  0  0  0  0  0  0  0
   11.8736    6.9701    4.7649 H   0  0  0  0  0  0  0  0  0  0  0  0
   11.7703    5.6444    6.4455 C   0  0  0  0  0  0  0  0  0  0  0  0
   11.0949    5.2989    7.6067 C   0  0  0  0  0  0  0  0  0  0  0  0
   11.4540    4.4889    8.2213 H   0  0  0  0  0  0  0  0  0  0  0  0
    9.9658    6.0031    7.9746 C   0  0  0  0  0  0  0  0  0  0  0  0
    9.4625    5.7653    8.9005 H   0  0  0  0  0  0  0  0  0  0  0  0
  1  7  1  0  0  0  0
  1 10  1  0  0  0  0
  1  2  1  0  0  0  0
  3 28  1  0  0  0  0
  4  9  1  0  0  0  0
  6 11  1  0  0  0  0
  7 20  1  0  0  0  0
  7 12  1  0  0  0  0
  8  1  1  0  0  0  0
  8 21  1  0  0  0  0
  9  1  1  0  0  0  0
 10  5  1  0  0  0  0
 11  1  1  0  0  0  0
 12 14  1  0  0  0  0
 13 12  1  0  0  0  0
 14 16  2  0  0  0  0
 14 15  1  0  0  0  0
 16 17  1  0  0  0  0
 18 19  1  0  0  0  0
 18 16  1  0  0  0  0
 20 18  2  0  0  0  0
 21 22  1  0  0  0  0
 21 20  1  0  0  0  0
 23  8  1  0  0  0  0
 23 31  1  0  0  0  0
 24 23  2  0  0  0  0
 25 24  1  0  0  0  0
 26 24  1  0  0  0  0
 26 28  2  0  0  0  0
 27 26  1  0  0  0  0
 28 29  1  0  0  0  0
 29 31  2  0  0  0  0
 29 30  1  0  0  0  0
 31 32  1  0  0  0  0
M  END
$$$$
