CSD_code = WABPIA | q = 0 | S = 0 | Stoichiometry = C13H18ClN3Pd | MND = 4
 OpenBabel04212202113D

 36 38  0  0  0  0  0  0  0  0999 V2000
   16.4459    9.2800    4.4060 Pd  0  0  2  0  0  0  0  0  0  0  0  0
   17.2506    7.0791    4.1230 Cl  0  0  0  0  0  0  0  0  0  0  0  0
   16.6473   12.0889    3.9136 C   0  0  0  0  0  0  0  0  0  0  0  0
   15.9521   11.1956    4.7425 C   0  0  0  0  0  0  0  0  0  0  0  0
   15.1677   11.7409    5.7552 C   0  0  0  0  0  0  0  0  0  0  0  0
   14.6179   11.0936    6.4295 H   0  0  0  0  0  0  0  0  0  0  0  0
   15.0621   13.1147    5.9229 C   0  0  0  0  0  0  0  0  0  0  0  0
   14.4390   13.5130    6.7121 H   0  0  0  0  0  0  0  0  0  0  0  0
   15.7513   13.9765    5.0893 C   0  0  0  0  0  0  0  0  0  0  0  0
   15.6716   15.0456    5.2235 H   0  0  0  0  0  0  0  0  0  0  0  0
   16.5498   13.4609    4.0824 C   0  0  0  0  0  0  0  0  0  0  0  0
   17.0961   14.1269    3.4275 H   0  0  0  0  0  0  0  0  0  0  0  0
   17.4674   11.4748    2.8078 C   0  0  0  0  0  0  0  0  0  0  0  0
   18.3504   12.0834    2.5590 H   0  0  0  0  0  0  0  0  0  0  0  0
   16.8428   11.4052    1.9082 H   0  0  0  0  0  0  0  0  0  0  0  0
   18.2023    9.3275    2.0000 C   0  0  0  0  0  0  0  0  0  0  0  0
   19.0030    9.8094    1.4230 H   0  0  0  0  0  0  0  0  0  0  0  0
   17.3138    9.2290    1.3713 H   0  0  0  0  0  0  0  0  0  0  0  0
   18.5232    8.3282    2.2984 H   0  0  0  0  0  0  0  0  0  0  0  0
   19.0450   10.1641    4.0754 C   0  0  0  0  0  0  0  0  0  0  0  0
   19.9192   10.5650    3.5430 H   0  0  0  0  0  0  0  0  0  0  0  0
   19.2755    9.1529    4.4279 H   0  0  0  0  0  0  0  0  0  0  0  0
   18.8275   10.8070    4.9349 H   0  0  0  0  0  0  0  0  0  0  0  0
   13.6925    8.5818    5.4061 C   0  0  0  0  0  0  0  0  0  0  0  0
   13.2460    9.2913    4.7328 H   0  0  0  0  0  0  0  0  0  0  0  0
   13.0991    7.6548    6.2133 C   0  0  0  0  0  0  0  0  0  0  0  0
   12.0689    7.4052    6.3623 H   0  0  0  0  0  0  0  0  0  0  0  0
   15.2621    7.5510    6.4513 C   0  0  0  0  0  3  0  0  0  0  0  0
   16.2324    7.2286    6.7837 H   0  0  0  0  0  0  0  0  0  0  0  0
   13.9497    5.9511    7.8280 C   0  0  0  0  0  0  0  0  0  0  0  0
   14.9128    5.4727    7.9951 H   0  0  0  0  0  0  0  0  0  0  0  0
   13.2442    5.2081    7.4554 H   0  0  0  0  0  0  0  0  0  0  0  0
   13.5772    6.3444    8.7768 H   0  0  0  0  0  0  0  0  0  0  0  0
   15.0407    8.5027    5.5716 N   0  0  0  0  0  0  0  0  0  0  0  0
   17.8768   10.1107    3.1913 N   0  0  0  0  0  4  0  0  0  0  0  0
   14.1044    7.0068    6.8684 N   0  0  0  0  0  0  0  0  0  0  0  0
  1  2  1  1  0  0  0
  1  4  1  0  0  0  0
  1 34  1  0  0  0  0
  3 11  2  0  0  0  0
  3  4  1  0  0  0  0
  4  5  2  0  0  0  0
  5  7  1  0  0  0  0
  5  6  1  0  0  0  0
  7  8  1  0  0  0  0
  9 10  1  0  0  0  0
  9  7  2  0  0  0  0
 11  9  1  0  0  0  0
 12 11  1  0  0  0  0
 13 35  1  0  0  0  0
 13  3  1  0  0  0  0
 14 13  1  0  0  0  0
 15 13  1  0  0  0  0
 16 19  1  0  0  0  0
 16 35  1  0  0  0  0
 17 16  1  0  0  0  0
 18 16  1  0  0  0  0
 20 22  1  0  0  0  0
 20 23  1  0  0  0  0
 21 20  1  0  0  0  0
 24 34  1  0  0  0  0
 24 26  2  0  0  0  0
 25 24  1  0  0  0  0
 26 27  1  0  0  0  0
 26 36  1  0  0  0  0
 28 29  1  0  0  0  0
 28 36  1  0  0  0  0
 30 31  1  0  0  0  0
 30 33  1  0  0  0  0
 32 30  1  0  0  0  0
 34 28  1  0  0  0  0
 35 20  1  0  0  0  0
 35  1  1  0  0  0  0
 36 30  1  0  0  0  0
M  END
$$$$
