CSD_code = WABWAZ | q = 0 | S = 0 | Stoichiometry = C20H16CdCl2N4 | MND = 6
 OpenBabel04212202113D

 43 48  0  0  1  0  0  0  0  0999 V2000
    5.5462   10.5385    8.4119 Cd  0  0  0  0  0  0  0  0  0  0  0  0
    3.9943   10.2345    6.6185 Cl  0  0  0  0  0  0  0  0  0  0  0  0
    5.0156   12.3009    9.9371 Cl  0  0  0  0  0  0  0  0  0  0  0  0
    7.8058   10.7667    9.3808 N   0  0  0  0  0  0  0  0  0  0  0  0
    6.9416   11.9472    7.1363 N   0  0  0  0  0  0  0  0  0  0  0  0
    6.2430    8.2480    7.8239 N   0  0  0  0  0  0  0  0  0  0  0  0
    4.4670    8.9018    9.7214 N   0  0  0  0  0  0  0  0  0  0  0  0
    7.9838   10.2209   10.5707 C   0  0  0  0  0  3  0  0  0  0  0  0
    7.7148    9.1744   10.6489 H   0  0  0  0  0  0  0  0  0  0  0  0
    8.4793   10.9209   11.6601 C   0  0  0  0  0  0  0  0  0  0  0  0
    8.5954   10.4378   12.6175 H   0  0  0  0  0  0  0  0  0  0  0  0
    8.7961   12.2587   11.4894 C   0  0  0  0  0  0  0  0  0  0  0  0
    9.1616   12.8489   12.3167 H   0  0  0  0  0  0  0  0  0  0  0  0
    8.6218   12.8350   10.2438 C   0  0  0  0  0  0  0  0  0  0  0  0
    8.8300   13.8822   10.0955 H   0  0  0  0  0  0  0  0  0  0  0  0
    8.1169   12.0532    9.2063 C   0  0  0  0  0  0  0  0  0  0  0  0
    7.8483   12.6031    7.8641 C   0  0  2  0  0  3  0  0  0  0  0  0
    8.4881   13.7398    7.3708 C   0  0  0  0  0  0  0  0  0  0  0  0
    9.2431   14.2439    7.9530 H   0  0  0  0  0  0  0  0  0  0  0  0
    8.1491   14.2072    6.1125 C   0  0  0  0  0  0  0  0  0  0  0  0
    8.6265   15.0901    5.7130 H   0  0  0  0  0  0  0  0  0  0  0  0
    7.1891   13.5290    5.3788 C   0  0  0  0  0  0  0  0  0  0  0  0
    6.8900   13.8690    4.4002 H   0  0  0  0  0  0  0  0  0  0  0  0
    6.6148   12.3951    5.9361 C   0  0  0  0  0  0  0  0  0  0  0  0
    5.8573   11.8232    5.4125 H   0  0  0  0  0  0  0  0  0  0  0  0
    7.0192    8.1303    6.7613 C   0  0  0  0  0  3  0  0  0  0  0  0
    7.9138    8.7414    6.7670 H   0  0  0  0  0  0  0  0  0  0  0  0
    6.7286    7.2879    5.6991 C   0  0  0  0  0  0  0  0  0  0  0  0
    7.3859    7.2322    4.8458 H   0  0  0  0  0  0  0  0  0  0  0  0
    5.5626    6.5418    5.7555 C   0  0  0  0  0  0  0  0  0  0  0  0
    5.2839    5.8913    4.9397 H   0  0  0  0  0  0  0  0  0  0  0  0
    4.7488    6.6533    6.8688 C   0  0  0  0  0  0  0  0  0  0  0  0
    3.8200    6.1086    6.9197 H   0  0  0  0  0  0  0  0  0  0  0  0
    5.1225    7.5251    7.8900 C   0  0  0  0  0  0  0  0  0  0  0  0
    4.2864    7.7419    9.0858 C   0  0  2  0  0  3  0  0  0  0  0  0
    3.3554    6.8065    9.5364 C   0  0  0  0  0  0  0  0  0  0  0  0
    3.2406    5.8578    9.0365 H   0  0  0  0  0  0  0  0  0  0  0  0
    2.5858    7.1078   10.6471 C   0  0  0  0  0  0  0  0  0  0  0  0
    1.8536    6.4011   11.0098 H   0  0  0  0  0  0  0  0  0  0  0  0
    2.7673    8.3265   11.2808 C   0  0  0  0  0  0  0  0  0  0  0  0
    2.1786    8.6022   12.1412 H   0  0  0  0  0  0  0  0  0  0  0  0
    3.7298    9.1918   10.7798 C   0  0  0  0  0  0  0  0  0  0  0  0
    3.9178   10.1592   11.2313 H   0  0  0  0  0  0  0  0  0  0  0  0
  1  4  1  0  0  0  0
  1  7  1  0  0  0  0
  1  3  1  0  0  0  0
  2  1  1  0  0  0  0
  4  8  1  0  0  0  0
  5 17  1  0  0  0  0
  5  1  1  0  0  0  0
  6 34  1  0  0  0  0
  6  1  1  0  0  0  0
  7 42  1  0  0  0  0
  8  9  1  0  0  0  0
  8 10  1  0  0  0  0
 10 11  1  0  0  0  0
 12 10  2  0  0  0  0
 12 13  1  0  0  0  0
 14 12  1  0  0  0  0
 15 14  1  0  0  0  0
 16  4  1  0  0  0  0
 16 14  2  0  0  0  0
 17 18  1  1  0  0  0
 17 16  1  0  0  0  0
 18 19  1  0  0  0  0
 20 18  2  0  0  0  0
 21 20  1  0  0  0  0
 22 24  2  0  0  0  0
 22 20  1  0  0  0  0
 23 22  1  0  0  0  0
 24  5  1  0  0  0  0
 25 24  1  0  0  0  0
 26 27  1  0  0  0  0
 26  6  1  0  0  0  0
 28 30  2  0  0  0  0
 28 26  1  0  0  0  0
 29 28  1  0  0  0  0
 30 32  1  0  0  0  0
 31 30  1  0  0  0  0
 32 33  1  0  0  0  0
 32 34  2  0  0  0  0
 35 34  1  6  0  0  0
 35 36  1  0  0  0  0
 35  7  1  0  0  0  0
 36 38  2  0  0  0  0
 37 36  1  0  0  0  0
 38 39  1  0  0  0  0
 38 40  1  0  0  0  0
 40 41  1  0  0  0  0
 42 43  1  0  0  0  0
 42 40  2  0  0  0  0
M  END
$$$$
