CSD_code = WACDIN | q = 0 | S = 0 | Stoichiometry = C6H8Cl2N4S2Zn | MND = 4
 OpenBabel04212202113D

 23 24  0  0  1  0  0  0  0  0999 V2000
    0.0197    1.8262    4.9329 Zn  0  0  0  0  0  0  0  0  0  0  0  0
    0.4210    2.7424    2.8529 Cl  0  0  0  0  0  0  0  0  0  0  0  0
    0.5469   -0.1301    5.6844 Cl  0  0  0  0  0  0  0  0  0  0  0  0
   -4.4722    2.8539    5.0366 S   0  0  0  0  0  0  0  0  0  0  0  0
    1.7025    5.3811    7.3383 S   0  0  0  0  0  0  0  0  0  0  0  0
   -2.4063    3.7278    3.5293 N   0  0  0  0  0  0  0  0  0  0  0  0
    0.9315    5.0880    4.7648 N   0  0  0  0  0  0  0  0  0  0  0  0
   -2.0213    2.1072    5.1743 N   0  0  0  0  0  0  0  0  0  0  0  0
    0.7784    3.2629    6.2231 N   0  0  0  0  0  0  0  0  0  0  0  0
   -2.8098    2.9065    4.4977 C   0  0  1  0  0  3  0  0  0  0  0  0
    1.0954    4.5056    5.9518 C   0  0  2  0  0  3  0  0  0  0  0  0
   -2.6978    1.4170    6.1437 C   0  0  0  0  0  0  0  0  0  0  0  0
    1.0048    2.9496    7.5364 C   0  0  0  0  0  0  0  0  0  0  0  0
   -4.0142    1.6787    6.2284 C   0  0  0  0  0  0  0  0  0  0  0  0
    1.4957    3.9471    8.2931 C   0  0  0  0  0  0  0  0  0  0  0  0
   -1.4718    3.5708    3.1359 H   0  0  0  0  0  0  0  0  0  0  0  0
    0.7558    4.4771    3.9593 H   0  0  0  0  0  0  0  0  0  0  0  0
   -3.0963    4.1919    2.9649 H   0  0  0  0  0  0  0  0  0  0  0  0
    1.3395    5.9924    4.6047 H   0  0  0  0  0  0  0  0  0  0  0  0
   -2.1509    0.7181    6.7501 H   0  0  0  0  0  0  0  0  0  0  0  0
    0.7947    1.9488    7.8670 H   0  0  0  0  0  0  0  0  0  0  0  0
   -4.7454    1.2710    6.8939 H   0  0  0  0  0  0  0  0  0  0  0  0
    1.7524    3.9470    9.3313 H   0  0  0  0  0  0  0  0  0  0  0  0
  1  8  1  0  0  0  0
  1  3  1  0  0  0  0
  1  9  1  0  0  0  0
  2  1  1  0  0  0  0
  4 14  1  0  0  0  0
  5 15  1  0  0  0  0
  8 12  1  0  0  0  0
  9 13  1  0  0  0  0
 10  6  1  1  0  0  0
 10  4  1  0  0  0  0
 10  8  1  0  0  0  0
 11  7  1  1  0  0  0
 11  9  1  0  0  0  0
 11  5  1  0  0  0  0
 12 14  2  0  0  0  0
 12 20  1  0  0  0  0
 13 21  1  0  0  0  0
 13 15  2  0  0  0  0
 14 22  1  0  0  0  0
 15 23  1  0  0  0  0
 16  6  1  0  0  0  0
 17  7  1  0  0  0  0
 18  6  1  0  0  0  0
 19  7  1  0  0  0  0
M  END
$$$$
