CSD_code = WACDAF | q = 0 | S = 0 | Stoichiometry = C26H20ClMnN2O2 | MND = 5
 OpenBabel04212202113D

 52 57  0  0  0  0  0  0  0  0999 V2000
    5.0944    8.1156    2.4092 Mn  0  0  0  0  0  0  0  0  0  0  0  0
    3.6436    8.3645    3.8613 Cl  0  0  0  0  0  0  0  0  0  0  0  0
    6.8083    8.2473    2.9769 O   0  0  0  0  0  0  0  0  0  0  0  0
    4.4956    7.7928    0.7327 O   0  0  0  0  0  0  0  0  0  0  0  0
    5.1559    6.1700    2.6312 N   0  0  0  0  0  0  0  0  0  0  0  0
    5.2062   10.0317    2.0143 N   0  0  0  0  0  0  0  0  0  0  0  0
    7.6289    7.3970    3.5379 C   0  0  0  0  0  0  0  0  0  0  0  0
    7.3470    6.0075    3.6399 C   0  0  0  0  0  0  0  0  0  0  0  0
    8.2876    5.1619    4.2447 C   0  0  0  0  0  0  0  0  0  0  0  0
    9.4674    5.6568    4.7479 C   0  0  0  0  0  0  0  0  0  0  0  0
    9.7443    7.0194    4.6512 C   0  0  0  0  0  0  0  0  0  0  0  0
    8.8480    7.8738    4.0528 C   0  0  0  0  0  0  0  0  0  0  0  0
    6.1419    5.4697    3.0924 C   0  0  0  0  0  3  0  0  0  0  0  0
    4.1206    5.4430    2.0051 C   0  0  0  0  0  0  0  0  0  0  0  0
    4.4329    4.6186    0.9242 C   0  0  0  0  0  0  0  0  0  0  0  0
    3.4348    3.9297    0.2614 C   0  0  0  0  0  0  0  0  0  0  0  0
    2.1189    4.0382    0.6784 C   0  0  0  0  0  0  0  0  0  0  0  0
    1.8080    4.8423    1.7624 C   0  0  0  0  0  0  0  0  0  0  0  0
    2.7972    5.5452    2.4255 C   0  0  0  0  0  0  0  0  0  0  0  0
    4.0835    8.5728   -0.2332 C   0  0  0  0  0  0  0  0  0  0  0  0
    4.2321    9.9860   -0.1977 C   0  0  0  0  0  0  0  0  0  0  0  0
    3.7797   10.7482   -1.2839 C   0  0  0  0  0  0  0  0  0  0  0  0
    3.1849   10.1523   -2.3708 C   0  0  0  0  0  0  0  0  0  0  0  0
    3.0332    8.7672   -2.4047 C   0  0  0  0  0  0  0  0  0  0  0  0
    3.4788    7.9897   -1.3613 C   0  0  0  0  0  0  0  0  0  0  0  0
    4.8729   10.6202    0.9107 C   0  0  0  0  0  3  0  0  0  0  0  0
    5.9501   10.8084    2.9288 C   0  0  0  0  0  0  0  0  0  0  0  0
    5.5107   11.0228    4.2324 C   0  0  0  0  0  0  0  0  0  0  0  0
    6.2859   11.7619    5.1071 C   0  0  0  0  0  0  0  0  0  0  0  0
    7.5002   12.2901    4.7011 C   0  0  0  0  0  0  0  0  0  0  0  0
    7.9365   12.0847    3.4030 C   0  0  0  0  0  0  0  0  0  0  0  0
    7.1643   11.3575    2.5171 C   0  0  0  0  0  0  0  0  0  0  0  0
    8.0654    4.1065    4.3154 H   0  0  0  0  0  0  0  0  0  0  0  0
   10.1791    4.9941    5.2160 H   0  0  0  0  0  0  0  0  0  0  0  0
   10.6709    7.4077    5.0474 H   0  0  0  0  0  0  0  0  0  0  0  0
    9.0450    8.9327    3.9715 H   0  0  0  0  0  0  0  0  0  0  0  0
    6.0701    4.3803    3.0696 H   0  0  0  0  0  0  0  0  0  0  0  0
    5.4587    4.5535    0.5890 H   0  0  0  0  0  0  0  0  0  0  0  0
    3.6875    3.3065   -0.5843 H   0  0  0  0  0  0  0  0  0  0  0  0
    1.3398    3.4999    0.1593 H   0  0  0  0  0  0  0  0  0  0  0  0
    0.7848    4.9265    2.0966 H   0  0  0  0  0  0  0  0  0  0  0  0
    2.5499    6.1688    3.2709 H   0  0  0  0  0  0  0  0  0  0  0  0
    3.9005   11.8218   -1.2496 H   0  0  0  0  0  0  0  0  0  0  0  0
    2.8360   10.7531   -3.1967 H   0  0  0  0  0  0  0  0  0  0  0  0
    2.5638    8.2999   -3.2576 H   0  0  0  0  0  0  0  0  0  0  0  0
    3.3678    6.9153   -1.3698 H   0  0  0  0  0  0  0  0  0  0  0  0
    5.0885   11.6845    0.7955 H   0  0  0  0  0  0  0  0  0  0  0  0
    4.5645   10.6147    4.5532 H   0  0  0  0  0  0  0  0  0  0  0  0
    5.9365   11.9238    6.1159 H   0  0  0  0  0  0  0  0  0  0  0  0
    8.1046   12.8579    5.3927 H   0  0  0  0  0  0  0  0  0  0  0  0
    8.8829   12.4915    3.0770 H   0  0  0  0  0  0  0  0  0  0  0  0
    7.5103   11.1771    1.5088 H   0  0  0  0  0  0  0  0  0  0  0  0
  1  5  1  0  0  0  0
  1  3  1  0  0  0  0
  1  2  1  0  0  0  0
  3  7  1  0  0  0  0
  4  1  1  0  0  0  0
  5 13  1  0  0  0  0
  6  1  1  0  0  0  0
  6 27  1  0  0  0  0
  7  8  2  0  0  0  0
  7 12  1  0  0  0  0
  8  9  1  0  0  0  0
  9 33  1  0  0  0  0
  9 10  2  0  0  0  0
 10 34  1  0  0  0  0
 11 10  1  0  0  0  0
 11 35  1  0  0  0  0
 12 11  2  0  0  0  0
 13  8  1  0  0  0  0
 14 19  1  0  0  0  0
 14  5  1  0  0  0  0
 15 14  2  0  0  0  0
 16 17  2  0  0  0  0
 16 15  1  0  0  0  0
 17 18  1  0  0  0  0
 18 41  1  0  0  0  0
 18 19  2  0  0  0  0
 19 42  1  0  0  0  0
 20 21  1  0  0  0  0
 20  4  1  0  0  0  0
 21 26  1  0  0  0  0
 22 43  1  0  0  0  0
 22 21  2  0  0  0  0
 23 22  1  0  0  0  0
 24 23  2  0  0  0  0
 24 25  1  0  0  0  0
 25 20  2  0  0  0  0
 26  6  1  0  0  0  0
 27 28  1  0  0  0  0
 28 48  1  0  0  0  0
 28 29  2  0  0  0  0
 29 49  1  0  0  0  0
 30 29  1  0  0  0  0
 30 50  1  0  0  0  0
 31 30  2  0  0  0  0
 32 27  2  0  0  0  0
 32 31  1  0  0  0  0
 36 12  1  0  0  0  0
 37 13  1  0  0  0  0
 38 15  1  0  0  0  0
 39 16  1  0  0  0  0
 40 17  1  0  0  0  0
 44 23  1  0  0  0  0
 45 24  1  0  0  0  0
 46 25  1  0  0  0  0
 47 26  1  0  0  0  0
 51 31  1  0  0  0  0
 52 32  1  0  0  0  0
M  END
$$$$
