CSD_code = WACGIQ | q = 0 | S = 0 | Stoichiometry = C14H15Cl3MoN4O3 | MND = 6
 OpenBabel04212202113D

 40 43  0  0  1  0  0  0  0  0999 V2000
    2.3661    4.9415    6.8120 Mo  0  0  0  0  0  0  0  0  0  0  0  0
    2.0257    7.1461    7.5365 Cl  0  0  0  0  0  0  0  0  0  0  0  0
    4.4532    5.4088    6.1428 Cl  0  0  0  0  0  0  0  0  0  0  0  0
    2.4136    3.0182    5.3416 Cl  0  0  0  0  0  0  0  0  0  0  0  0
    1.8599    5.8261    4.9123 O   0  0  0  0  0  0  0  0  0  0  0  0
   -1.2713    5.3011    1.6318 O   0  0  0  0  0  0  0  0  0  0  0  0
    2.6287    4.2381    8.2552 O   0  0  0  0  0  1  0  0  0  0  0  0
    0.3086    5.6019    3.2277 N   0  0  0  0  0  0  0  0  0  0  0  0
   -1.7452    4.5467    3.7225 N   0  0  0  0  0  0  0  0  0  0  0  0
   -2.1769    3.7663    5.9187 N   0  0  0  0  0  0  0  0  0  0  0  0
   -3.0838    3.4021    5.6723 H   0  0  0  0  0  0  0  0  0  0  0  0
    0.4120    4.6511    6.7022 N   0  0  0  0  0  0  0  0  0  0  0  0
    0.7394    5.4334    4.5149 C   0  0  2  0  0  3  0  0  0  0  0  0
   -0.9160    5.1588    2.7762 C   0  0  0  0  0  0  0  0  0  0  0  0
   -1.3712    4.3649    5.0206 C   0  0  0  0  0  0  0  0  0  0  0  0
   -1.7757    3.7140    7.2659 C   0  0  0  0  0  0  0  0  0  0  0  0
   -2.6486    3.2185    8.2176 C   0  0  0  0  0  0  0  0  0  0  0  0
   -3.6192    2.8617    7.9023 H   0  0  0  0  0  0  0  0  0  0  0  0
   -2.3035    3.1708    9.5620 C   0  0  0  0  0  0  0  0  0  0  0  0
   -1.0495    3.6542    9.9532 C   0  0  0  0  0  0  0  0  0  0  0  0
   -0.1787    4.1529    8.9954 C   0  0  0  0  0  0  0  0  0  0  0  0
    0.7912    4.5297    9.2918 H   0  0  0  0  0  0  0  0  0  0  0  0
   -0.5005    4.1761    7.6428 C   0  0  0  0  0  0  0  0  0  0  0  0
   -0.1289    4.8076    5.4310 C   0  0  0  0  0  0  0  0  0  0  0  0
    1.1986    6.2148    2.2556 C   0  0  0  0  0  0  0  0  0  0  0  0
    0.6257    6.8941    1.6272 H   0  0  0  0  0  0  0  0  0  0  0  0
    1.6512    5.4452    1.6298 H   0  0  0  0  0  0  0  0  0  0  0  0
    1.9742    6.7474    2.8014 H   0  0  0  0  0  0  0  0  0  0  0  0
   -3.0350    4.0687    3.2598 C   0  0  0  0  0  0  0  0  0  0  0  0
   -3.8431    4.5637    3.8001 H   0  0  0  0  0  0  0  0  0  0  0  0
   -3.1072    2.9864    3.3738 H   0  0  0  0  0  0  0  0  0  0  0  0
   -3.1081    4.3195    2.2022 H   0  0  0  0  0  0  0  0  0  0  0  0
   -3.2633    2.6211   10.5684 C   0  0  0  0  0  0  0  0  0  0  0  0
   -3.4959    3.3709   11.3230 H   0  0  0  0  0  0  0  0  0  0  0  0
   -2.8267    1.7650   11.0805 H   0  0  0  0  0  0  0  0  0  0  0  0
   -4.1885    2.3064   10.0937 H   0  0  0  0  0  0  0  0  0  0  0  0
   -0.6420    3.6402   11.3914 C   0  0  0  0  0  0  0  0  0  0  0  0
   -0.6660    2.6250   11.7845 H   0  0  0  0  0  0  0  0  0  0  0  0
   -1.3245    4.2429   11.9893 H   0  0  0  0  0  0  0  0  0  0  0  0
    0.3632    4.0335   11.5041 H   0  0  0  0  0  0  0  0  0  0  0  0
  1  2  1  0  0  0  0
  1  7  1  0  0  0  0
  3  1  1  0  0  0  0
  4  1  1  0  0  0  0
  5  1  1  0  0  0  0
  6 14  2  0  0  0  0
  8 13  1  0  0  0  0
  9 15  1  0  0  0  0
 10 16  1  0  0  0  0
 11 10  1  0  0  0  0
 12  1  1  0  0  0  0
 12 23  1  0  0  0  0
 13  5  1  1  0  0  0
 13 24  1  0  0  0  0
 14  8  1  0  0  0  0
 14  9  1  0  0  0  0
 15 24  2  0  0  0  0
 15 10  1  0  0  0  0
 16 23  2  0  0  0  0
 16 17  1  0  0  0  0
 17 19  2  0  0  0  0
 18 17  1  0  0  0  0
 19 20  1  0  0  0  0
 19 33  1  0  0  0  0
 20 37  1  0  0  0  0
 21 22  1  0  0  0  0
 21 20  2  0  0  0  0
 23 21  1  0  0  0  0
 24 12  1  0  0  0  0
 25 28  1  0  0  0  0
 25  8  1  0  0  0  0
 26 25  1  0  0  0  0
 27 25  1  0  0  0  0
 29 31  1  0  0  0  0
 29  9  1  0  0  0  0
 29 30  1  0  0  0  0
 32 29  1  0  0  0  0
 33 35  1  0  0  0  0
 33 34  1  0  0  0  0
 36 33  1  0  0  0  0
 37 40  1  0  0  0  0
 37 38  1  0  0  0  0
 37 39  1  0  0  0  0
M  END
$$$$
