CSD_code = WACHEQ | q = -1 | S = 0 | Stoichiometry = C2H6Br3OPdS(1-) | MND = 4
 OpenBabel04212202113D

 14 13  0  0  0  0  0  0  0  0999 V2000
   -0.3200    8.3497   -3.3273 Pd  0  0  0  0  0  0  0  0  0  0  0  0
    1.8053    9.2739   -3.7635 Br  0  0  0  0  0  0  0  0  0  0  0  0
    0.0133    8.4622   -0.9239 Br  0  0  0  0  0  0  0  0  0  0  0  0
   -2.1538    7.1763   -2.9567 S   0  0  0  0  0  0  0  0  0  0  0  0
   -0.9556    8.4614   -5.6686 Br  0  0  0  0  0  0  0  0  0  0  0  0
   -3.6546    7.3384   -3.9991 C   0  0  0  0  0  0  0  0  0  0  0  0
   -3.3683    7.2223   -5.0389 H   0  0  0  0  0  0  0  0  0  0  0  0
   -4.0755    8.3251   -3.8356 H   0  0  0  0  0  0  0  0  0  0  0  0
   -4.3474    6.5567   -3.7104 H   0  0  0  0  0  0  0  0  0  0  0  0
   -1.7138    5.7947   -3.0949 O   0  0  0  0  0  1  0  0  0  0  0  0
   -3.0695    7.2566   -1.3688 C   0  0  0  0  0  0  0  0  0  0  0  0
   -2.3833    7.0139   -0.5646 H   0  0  0  0  0  0  0  0  0  0  0  0
   -3.8747    6.5325   -1.4080 H   0  0  0  0  0  0  0  0  0  0  0  0
   -3.4467    8.2663   -1.2430 H   0  0  0  0  0  0  0  0  0  0  0  0
  1  4  1  0  0  0  0
  1  3  1  0  0  0  0
  2  1  1  0  0  0  0
  4 11  1  0  0  0  0
  5  1  1  0  0  0  0
  6  8  1  0  0  0  0
  6  9  1  0  0  0  0
  6  4  1  0  0  0  0
  7  6  1  0  0  0  0
 10  4  1  0  0  0  0
 11 14  1  0  0  0  0
 11 12  1  0  0  0  0
 13 11  1  0  0  0  0
M  END
$$$$
