CSD_code = WACMIW | q = 1 | S = 0 | Stoichiometry = C17H23CuIN4(1+) | MND = 5
 OpenBabel04212202113D

 46 50  0  0  1  0  0  0  0  0999 V2000
   -3.3168    4.8078   -1.0323 I   0  0  0  0  0  0  0  0  0  0  0  0
   -3.1793    3.6112    1.2191 Cu  0  0  0  0  0  0  0  0  0  0  0  0
   -4.7475    2.2114    1.8251 N   0  0  0  0  0  0  0  0  0  0  0  0
   -2.3997    1.9628    0.5850 N   0  0  1  0  0  0  0  0  0  0  0  0
   -1.2361    4.1468    2.1989 N   0  0  1  0  0  4  0  0  0  0  0  0
   -4.1668    5.0185    2.2368 N   0  0  0  0  0  4  0  0  0  0  0  0
   -5.9038    2.3916    2.3949 C   0  0  0  0  0  0  0  0  0  0  0  0
   -6.8712    1.3789    2.5756 C   0  0  0  0  0  0  0  0  0  0  0  0
   -6.5132    0.0675    2.1112 C   0  0  2  0  0  3  0  0  0  0  0  0
   -5.2806   -0.0416    1.4899 C   0  0  0  0  0  3  0  0  0  0  0  0
   -4.4020    0.9796    1.3368 C   0  0  0  0  0  0  0  0  0  0  0  0
   -3.1260    0.9245    0.6729 C   0  0  0  0  0  3  0  0  0  0  0  0
   -1.1339    1.9368   -0.0777 C   0  0  0  0  0  0  0  0  0  0  0  0
   -0.0109    2.3415    0.8775 C   0  0  0  0  0  0  0  0  0  0  0  0
   -0.1023    3.7949    1.3240 C   0  0  0  0  0  0  0  0  0  0  0  0
   -1.1162    5.5944    2.4475 C   0  0  0  0  0  0  0  0  0  0  0  0
   -2.2668    6.2600    3.1948 C   0  0  0  0  0  0  0  0  0  0  0  0
   -3.5460    6.3379    2.3752 C   0  0  0  0  0  0  0  0  0  0  0  0
   -1.1678    3.4017    3.4554 C   0  0  0  0  0  0  0  0  0  0  0  0
   -8.1238    1.5822    3.1773 C   0  0  0  0  0  0  0  0  0  0  0  0
   -8.9904    0.5310    3.3283 C   0  0  0  0  0  0  0  0  0  0  0  0
   -8.6390   -0.7552    2.8877 C   0  0  0  0  0  0  0  0  0  0  0  0
   -7.4290   -0.9881    2.2902 C   0  0  0  0  0  0  0  0  0  0  0  0
   -6.1390    3.3836    2.7586 H   0  0  0  0  0  0  0  0  0  0  0  0
   -2.8177   -0.0265    0.2464 H   0  0  0  0  0  0  0  0  0  0  0  0
   -1.1703    2.6472   -0.9088 H   0  0  0  0  0  0  0  0  0  0  0  0
   -0.9316    0.9379   -0.4826 H   0  0  0  0  0  0  0  0  0  0  0  0
    0.9326    2.2279    0.3421 H   0  0  0  0  0  0  0  0  0  0  0  0
    0.0129    1.6602    1.7288 H   0  0  0  0  0  0  0  0  0  0  0  0
    0.8344    4.0508    1.8401 H   0  0  0  0  0  0  0  0  0  0  0  0
   -0.1735    4.4191    0.4296 H   0  0  0  0  0  0  0  0  0  0  0  0
   -1.0240    6.0877    1.4770 H   0  0  0  0  0  0  0  0  0  0  0  0
   -0.1891    5.7810    3.0078 H   0  0  0  0  0  0  0  0  0  0  0  0
   -1.9488    7.2788    3.4194 H   0  0  0  0  0  0  0  0  0  0  0  0
   -2.4641    5.7685    4.1489 H   0  0  0  0  0  0  0  0  0  0  0  0
   -4.2424    7.0327    2.8598 H   0  0  0  0  0  0  0  0  0  0  0  0
   -3.3309    6.7212    1.3756 H   0  0  0  0  0  0  0  0  0  0  0  0
   -0.2038    3.5529    3.9548 H   0  0  0  0  0  0  0  0  0  0  0  0
   -1.9581    3.7249    4.1284 H   0  0  0  0  0  0  0  0  0  0  0  0
   -1.3051    2.3387    3.2704 H   0  0  0  0  0  0  0  0  0  0  0  0
   -8.3937    2.5721    3.5144 H   0  0  0  0  0  0  0  0  0  0  0  0
   -9.9532    0.6871    3.7893 H   0  0  0  0  0  0  0  0  0  0  0  0
   -9.3386   -1.5657    3.0211 H   0  0  0  0  0  0  0  0  0  0  0  0
   -7.1548   -1.9726    1.9456 H   0  0  0  0  0  0  0  0  0  0  0  0
   -4.3901    4.6516    3.1592 H   0  0  0  0  0  0  0  0  0  0  0  0
   -5.0253    5.1142    1.6980 H   0  0  0  0  0  0  0  0  0  0  0  0
  1  2  1  0  0  0  0
  2  3  1  0  0  0  0
  2  5  1  0  0  0  0
  2  6  1  0  0  0  0
  3  7  1  0  0  0  0
  4 12  1  6  0  0  0
  4  2  1  0  0  0  0
  5 16  1  0  0  0  0
  5 19  1  1  0  0  0
  6 18  1  0  0  0  0
  6 45  1  0  0  0  0
  7  8  2  0  0  0  0
  7 24  1  0  0  0  0
  8 20  1  0  0  0  0
  9 10  1  6  0  0  0
  9 23  1  0  0  0  0
  9  8  1  0  0  0  0
 11 10  2  0  0  0  0
 11  3  1  0  0  0  0
 12 11  1  0  0  0  0
 13  4  1  0  0  0  0
 13 14  1  0  0  0  0
 14 15  1  0  0  0  0
 14 29  1  0  0  0  0
 15 30  1  0  0  0  0
 15  5  1  0  0  0  0
 16 33  1  0  0  0  0
 16 17  1  0  0  0  0
 17 34  1  0  0  0  0
 17 35  1  0  0  0  0
 18 36  1  0  0  0  0
 18 17  1  0  0  0  0
 19 38  1  0  0  0  0
 19 39  1  0  0  0  0
 20 21  2  0  0  0  0
 20 41  1  0  0  0  0
 21 42  1  0  0  0  0
 22 43  1  0  0  0  0
 22 21  1  0  0  0  0
 23 22  2  0  0  0  0
 25 12  1  0  0  0  0
 26 13  1  0  0  0  0
 27 13  1  0  0  0  0
 28 14  1  0  0  0  0
 31 15  1  0  0  0  0
 32 16  1  0  0  0  0
 37 18  1  0  0  0  0
 40 19  1  0  0  0  0
 44 23  1  0  0  0  0
 46  6  1  0  0  0  0
M  END
$$$$
