CSD_code = WACPOF | q = 0 | S = 0 | Stoichiometry = C16H37ClNOP4Ta | MND = 7
 OpenBabel04212202113D

 61 57  0  0  0  0  0  0  0  0999 V2000
   -1.0392    3.9378    0.4328 Ta  0  0  0  0  0  0  0  0  0  0  0  0
   -2.6495    5.2176   -0.7228 Cl  0  0  0  0  0 15  0  0  0  0  0  0
   -3.1658    2.9656    1.2969 P   0  0  0  0  0  0  0  0  0  0  0  0
   -1.5373    2.1355   -1.2156 P   0  0  0  0  0  0  0  0  0  0  0  0
   -0.7467    5.8395    2.0132 P   0  0  0  0  0  0  0  0  0  0  0  0
    0.8637    5.2004   -0.4718 P   0  0  0  0  0  0  0  0  0  0  0  0
    1.5941    2.1310    0.3843 O   0  0  0  0  0  0  0  0  0  0  0  0
    0.3052    2.5112    3.0275 N   0  0  0  0  0  0  0  0  0  0  0  0
    0.6265    2.7860    0.6702 C   0  0  0  0  0  3  0  0  0  0  0  0
   -0.0693    2.9892    1.9373 C   0  0  0  0  0  0  0  0  0  0  0  0
    1.4086    1.6820    3.3861 C   0  0  0  0  0  0  0  0  0  0  0  0
    2.3486    2.4119    4.3451 C   0  0  0  0  0  0  0  0  0  0  0  0
   -4.0516    2.1191   -0.0829 C   0  0  0  0  0  0  0  0  0  0  0  0
   -4.4871    4.0543    1.9309 C   0  0  0  0  0  0  0  0  0  0  0  0
   -3.0818    1.6676    2.5807 C   0  0  0  0  0  0  0  0  0  0  0  0
   -3.0849    1.1970   -0.8104 C   0  0  0  0  0  0  0  0  0  0  0  0
   -1.8899    2.7716   -2.8910 C   0  0  0  0  0  0  0  0  0  0  0  0
   -0.3939    0.7593   -1.5873 C   0  0  0  0  0  0  0  0  0  0  0  0
    0.8974    6.6933    1.8340 C   0  0  0  0  0  0  0  0  0  0  0  0
   -1.9023    7.2577    1.9366 C   0  0  0  0  0  0  0  0  0  0  0  0
   -0.7955    5.4693    3.8029 C   0  0  0  0  0  0  0  0  0  0  0  0
    1.8200    5.8580    0.9568 C   0  0  0  0  0  0  0  0  0  0  0  0
    0.4916    6.7214   -1.4296 C   0  0  0  0  0  0  0  0  0  0  0  0
    2.1900    4.4924   -1.5159 C   0  0  0  0  0  0  0  0  0  0  0  0
    1.0194    0.7787    3.8743 H   0  0  0  0  0  0  0  0  0  0  0  0
    1.9628    1.3776    2.4824 H   0  0  0  0  0  0  0  0  0  0  0  0
    3.1745    1.7627    4.6267 H   0  0  0  0  0  0  0  0  0  0  0  0
    2.7515    3.3043    3.8695 H   0  0  0  0  0  0  0  0  0  0  0  0
    1.8124    2.7100    5.2438 H   0  0  0  0  0  0  0  0  0  0  0  0
   -4.9248    1.5796    0.3011 H   0  0  0  0  0  0  0  0  0  0  0  0
   -4.3885    2.9179   -0.7505 H   0  0  0  0  0  0  0  0  0  0  0  0
   -4.1641    4.4822    2.8792 H   0  0  0  0  0  0  0  0  0  0  0  0
   -4.6277    4.8523    1.2037 H   0  0  0  0  0  0  0  0  0  0  0  0
   -5.4154    3.4989    2.0690 H   0  0  0  0  0  0  0  0  0  0  0  0
   -4.0660    1.2461    2.7862 H   0  0  0  0  0  0  0  0  0  0  0  0
   -2.3959    0.8904    2.2493 H   0  0  0  0  0  0  0  0  0  0  0  0
   -2.6653    2.1190    3.4796 H   0  0  0  0  0  0  0  0  0  0  0  0
   -3.5231    0.7882   -1.7273 H   0  0  0  0  0  0  0  0  0  0  0  0
   -2.7941    0.3657   -0.1595 H   0  0  0  0  0  0  0  0  0  0  0  0
   -2.6493    3.5472   -2.8038 H   0  0  0  0  0  0  0  0  0  0  0  0
   -0.9762    3.2259   -3.2752 H   0  0  0  0  0  0  0  0  0  0  0  0
   -2.2236    1.9753   -3.5570 H   0  0  0  0  0  0  0  0  0  0  0  0
   -0.1580    0.2342   -0.6635 H   0  0  0  0  0  0  0  0  0  0  0  0
   -0.8445    0.0738   -2.3059 H   0  0  0  0  0  0  0  0  0  0  0  0
    0.5291    1.1736   -1.9901 H   0  0  0  0  0  0  0  0  0  0  0  0
    0.7140    7.6621    1.3604 H   0  0  0  0  0  0  0  0  0  0  0  0
    1.3311    6.8624    2.8242 H   0  0  0  0  0  0  0  0  0  0  0  0
   -1.5621    8.0795    2.5674 H   0  0  0  0  0  0  0  0  0  0  0  0
   -1.9927    7.5812    0.9014 H   0  0  0  0  0  0  0  0  0  0  0  0
   -2.8791    6.9076    2.2677 H   0  0  0  0  0  0  0  0  0  0  0  0
   -1.7761    5.0564    4.0355 H   0  0  0  0  0  0  0  0  0  0  0  0
   -0.0463    4.7093    4.0130 H   0  0  0  0  0  0  0  0  0  0  0  0
   -0.6157    6.3682    4.3930 H   0  0  0  0  0  0  0  0  0  0  0  0
    2.1803    4.9815    1.5043 H   0  0  0  0  0  0  0  0  0  0  0  0
    2.6828    6.4342    0.6032 H   0  0  0  0  0  0  0  0  0  0  0  0
    1.3711    7.3562   -1.5432 H   0  0  0  0  0  0  0  0  0  0  0  0
    0.1243    6.4127   -2.4082 H   0  0  0  0  0  0  0  0  0  0  0  0
   -0.3093    7.2606   -0.9272 H   0  0  0  0  0  0  0  0  0  0  0  0
    2.6194    3.6283   -1.0138 H   0  0  0  0  0  0  0  0  0  0  0  0
    1.7510    4.1706   -2.4610 H   0  0  0  0  0  0  0  0  0  0  0  0
    2.9622    5.2392   -1.7050 H   0  0  0  0  0  0  0  0  0  0  0  0
  1 10  1  0  0  0  0
  3 14  1  0  0  0  0
  3 15  1  0  0  0  0
  4 16  1  0  0  0  0
  5 21  1  0  0  0  0
  6 22  1  0  0  0  0
  7  9  2  0  0  0  0
  8 11  1  0  0  0  0
  9 10  1  0  0  0  0
 10  8  2  0  0  0  0
 11 25  1  0  0  0  0
 11 12  1  0  0  0  0
 12 27  1  0  0  0  0
 12 29  1  0  0  0  0
 13 30  1  0  0  0  0
 13  3  1  0  0  0  0
 14 34  1  0  0  0  0
 14 32  1  0  0  0  0
 15 35  1  0  0  0  0
 15 37  1  0  0  0  0
 16 39  1  0  0  0  0
 16 13  1  0  0  0  0
 17 40  1  0  0  0  0
 17  4  1  0  0  0  0
 18  4  1  0  0  0  0
 18 43  1  0  0  0  0
 19  5  1  0  0  0  0
 19 47  1  0  0  0  0
 20  5  1  0  0  0  0
 20 50  1  0  0  0  0
 20 48  1  0  0  0  0
 21 52  1  0  0  0  0
 21 51  1  0  0  0  0
 21 53  1  0  0  0  0
 22 54  1  0  0  0  0
 22 19  1  0  0  0  0
 23 58  1  0  0  0  0
 23  6  1  0  0  0  0
 24 59  1  0  0  0  0
 24  6  1  0  0  0  0
 26 11  1  0  0  0  0
 28 12  1  0  0  0  0
 31 13  1  0  0  0  0
 33 14  1  0  0  0  0
 36 15  1  0  0  0  0
 38 16  1  0  0  0  0
 41 17  1  0  0  0  0
 42 17  1  0  0  0  0
 44 18  1  0  0  0  0
 45 18  1  0  0  0  0
 46 19  1  0  0  0  0
 49 20  1  0  0  0  0
 55 22  1  0  0  0  0
 56 23  1  0  0  0  0
 57 23  1  0  0  0  0
 60 24  1  0  0  0  0
 61 24  1  0  0  0  0
M  END
$$$$
