CSD_code = WADGUE | q = 1 | S = 0 | Stoichiometry = C20H24ClN4ORuS(1+) | MND = 6
 OpenBabel04212202113D

 52 57  0  0  1  0  0  0  0  0999 V2000
    8.2207    2.2451    2.5262 Ru  0  0  0  0  0  0  0  0  0  0  0  0
    8.1589    4.5436    2.0380 Cl  0  0  0  0  0  0  0  0  0  0  0  0
    9.1054    2.1577    0.4201 S   0  0  0  0  0  0  0  0  0  0  0  0
   10.0483    2.2433    3.3499 N   0  0  0  0  0  0  0  0  0  0  0  0
    7.3486    2.3712    4.3311 N   0  0  0  0  0  0  0  0  0  0  0  0
    6.3869    1.8199    1.8311 N   0  0  0  0  0  0  0  0  0  0  0  0
    8.2834    0.2384    2.9842 N   0  0  1  0  0  4  0  0  0  0  0  0
    9.4191    0.7976   -0.0318 O   0  0  0  0  0  1  0  0  0  0  0  0
   10.7442    3.2666    3.8397 C   0  0  0  0  0  3  0  0  0  0  0  0
   10.2910    4.2434    3.7179 H   0  0  0  0  0  0  0  0  0  0  0  0
   11.9767    3.1023    4.4485 C   0  0  0  0  0  0  0  0  0  0  0  0
   12.5107    3.9596    4.8234 H   0  0  0  0  0  0  0  0  0  0  0  0
   12.5014    1.8244    4.5597 C   0  0  0  0  0  0  0  0  0  0  0  0
   13.4592    1.6570    5.0258 H   0  0  0  0  0  0  0  0  0  0  0  0
   11.7678    0.7563    4.0604 C   0  0  0  0  0  0  0  0  0  0  0  0
   12.1444   -0.2520    4.1308 H   0  0  0  0  0  0  0  0  0  0  0  0
   10.5441    0.9970    3.4585 C   0  0  0  0  0  0  0  0  0  0  0  0
    9.7045   -0.1025    2.8491 C   0  0  0  0  0  0  0  0  0  0  0  0
    9.9445   -0.1513    1.7787 H   0  0  0  0  0  0  0  0  0  0  0  0
    9.9425   -1.0751    3.2970 H   0  0  0  0  0  0  0  0  0  0  0  0
    6.8317    3.4888    4.8456 C   0  0  0  0  0  3  0  0  0  0  0  0
    7.0402    4.4002    4.2970 H   0  0  0  0  0  0  0  0  0  0  0  0
    6.0773    3.4897    6.0041 C   0  0  0  0  0  0  0  0  0  0  0  0
    5.6812    4.4158    6.3863 H   0  0  0  0  0  0  0  0  0  0  0  0
    5.8407    2.2863    6.6526 C   0  0  0  0  0  0  0  0  0  0  0  0
    5.2502    2.2482    7.5539 H   0  0  0  0  0  0  0  0  0  0  0  0
    6.3827    1.1275    6.1186 C   0  0  0  0  0  0  0  0  0  0  0  0
    6.2278    0.1723    6.5952 H   0  0  0  0  0  0  0  0  0  0  0  0
    7.1356    1.2060    4.9569 C   0  0  0  0  0  0  0  0  0  0  0  0
    7.8027   -0.0078    4.3568 C   0  0  0  0  0  0  0  0  0  0  0  0
    7.1112   -0.8586    4.3787 H   0  0  0  0  0  0  0  0  0  0  0  0
    8.6543   -0.2645    4.9985 H   0  0  0  0  0  0  0  0  0  0  0  0
    5.3683    2.6474    1.6091 C   0  0  0  0  0  3  0  0  0  0  0  0
    5.5997    3.7041    1.6754 H   0  0  0  0  0  0  0  0  0  0  0  0
    4.0986    2.1934    1.2972 C   0  0  0  0  0  0  0  0  0  0  0  0
    3.3040    2.8979    1.1156 H   0  0  0  0  0  0  0  0  0  0  0  0
    3.8776    0.8268    1.2249 C   0  0  0  0  0  0  0  0  0  0  0  0
    2.9015    0.4356    0.9868 H   0  0  0  0  0  0  0  0  0  0  0  0
    4.9391   -0.0347    1.4659 C   0  0  0  0  0  0  0  0  0  0  0  0
    4.8034   -1.1036    1.4166 H   0  0  0  0  0  0  0  0  0  0  0  0
    6.1850    0.4921    1.7640 C   0  0  0  0  0  0  0  0  0  0  0  0
    7.4066   -0.3702    1.9782 C   0  0  0  0  0  0  0  0  0  0  0  0
    7.1201   -1.3955    2.2432 H   0  0  0  0  0  0  0  0  0  0  0  0
    7.9551   -0.4020    1.0273 H   0  0  0  0  0  0  0  0  0  0  0  0
   10.5977    3.1550    0.1637 C   0  0  0  0  0  0  0  0  0  0  0  0
   11.3859    2.7591    0.7972 H   0  0  0  0  0  0  0  0  0  0  0  0
   10.3583    4.1752    0.4444 H   0  0  0  0  0  0  0  0  0  0  0  0
   10.8883    3.0847   -0.8780 H   0  0  0  0  0  0  0  0  0  0  0  0
    8.0760    2.9080   -0.8690 C   0  0  0  0  0  0  0  0  0  0  0  0
    8.6082    2.8526   -1.8115 H   0  0  0  0  0  0  0  0  0  0  0  0
    7.8819    3.9346   -0.5774 H   0  0  0  0  0  0  0  0  0  0  0  0
    7.1485    2.3465   -0.9322 H   0  0  0  0  0  0  0  0  0  0  0  0
  1  7  1  0  0  0  0
  1  4  1  0  0  0  0
  1  5  1  0  0  0  0
  2  1  1  0  0  0  0
  3  1  1  0  0  0  0
  4 17  1  0  0  0  0
  4  9  1  0  0  0  0
  5 21  1  0  0  0  0
  5 29  1  0  0  0  0
  6  1  1  0  0  0  0
  7 42  1  6  0  0  0
  7 30  1  0  0  0  0
  8  3  1  0  0  0  0
  9 11  1  0  0  0  0
 10  9  1  0  0  0  0
 11 13  2  0  0  0  0
 11 12  1  0  0  0  0
 13 14  1  0  0  0  0
 15 16  1  0  0  0  0
 15 13  1  0  0  0  0
 17 15  2  0  0  0  0
 18  7  1  0  0  0  0
 18 20  1  0  0  0  0
 18 17  1  0  0  0  0
 19 18  1  0  0  0  0
 21 23  1  0  0  0  0
 22 21  1  0  0  0  0
 23 24  1  0  0  0  0
 23 25  2  0  0  0  0
 25 26  1  0  0  0  0
 27 28  1  0  0  0  0
 27 25  1  0  0  0  0
 29 27  2  0  0  0  0
 30 31  1  0  0  0  0
 30 29  1  0  0  0  0
 30 32  1  0  0  0  0
 33 34  1  0  0  0  0
 33  6  1  0  0  0  0
 35 33  1  0  0  0  0
 36 35  1  0  0  0  0
 37 35  2  0  0  0  0
 37 39  1  0  0  0  0
 38 37  1  0  0  0  0
 39 41  2  0  0  0  0
 40 39  1  0  0  0  0
 41  6  1  0  0  0  0
 41 42  1  0  0  0  0
 42 43  1  0  0  0  0
 44 42  1  0  0  0  0
 45  3  1  0  0  0  0
 45 47  1  0  0  0  0
 45 46  1  0  0  0  0
 48 45  1  0  0  0  0
 49 51  1  0  0  0  0
 49  3  1  0  0  0  0
 50 49  1  0  0  0  0
 52 49  1  0  0  0  0
M  END
$$$$
