CSD_code = WADRUO | q = 0 | S = 0 | Stoichiometry = C33H30INO3PRh | MND = 6
 OpenBabel04212202113D

 70 75  0  0  1  0  0  0  0  0999 V2000
    9.9593    4.9351   11.2002 Rh  0  0  0  0  0  0  0  0  0  0  0  0
   11.4087    2.7623   10.7076 I   0  0  0  0  0  0  0  0  0  0  0  0
    8.7145    6.7844   11.8139 P   0  0  0  0  0  4  0  0  0  0  0  0
   10.6617    5.7766    8.4388 O   0  0  0  0  0  1  0  0  0  0  0  0
    9.3774    4.2529   13.0282 O   0  0  0  0  0  0  0  0  0  0  0  0
    9.7332    4.2249   15.2146 O   0  0  0  0  0  0  0  0  0  0  0  0
   11.6840    5.5557   12.6020 N   0  0  0  0  0  0  0  0  0  0  0  0
   10.4132    5.4949    9.5202 C   0  0  0  0  0  2  0  0  0  0  0  0
    8.2828    4.0226   10.3181 C   0  0  0  0  0  0  0  0  0  0  0  0
   10.0706    4.4742   14.0715 C   0  0  0  0  0  0  0  0  0  0  0  0
   11.4285    5.1286   13.8207 C   0  0  0  0  0  0  0  0  0  0  0  0
   12.3317    5.2499   14.8889 C   0  0  0  0  0  0  0  0  0  0  0  0
   13.5468    5.8270   14.6638 C   0  0  0  0  0  0  0  0  0  0  0  0
   13.8577    6.2893   13.3679 C   0  0  0  0  0  0  0  0  0  0  0  0
   15.0900    6.8955   13.0532 C   0  0  0  0  0  0  0  0  0  0  0  0
   15.3509    7.3306   11.7840 C   0  0  0  0  0  0  0  0  0  0  0  0
   14.3872    7.1802   10.7755 C   0  0  0  0  0  0  0  0  0  0  0  0
   13.1810    6.5985   11.0498 C   0  0  0  0  0  0  0  0  0  0  0  0
   12.8831    6.1337   12.3445 C   0  0  2  0  0  3  0  0  0  0  0  0
    6.9890    6.5767   12.3614 C   0  0  0  0  0  0  0  0  0  0  0  0
    6.5699    5.3924   12.9644 C   0  0  0  0  0  0  0  0  0  0  0  0
    5.2710    5.2668   13.4149 C   0  0  0  0  0  0  0  0  0  0  0  0
    4.3590    6.3087   13.2775 C   0  0  0  0  0  0  0  0  0  0  0  0
    4.7856    7.4862   12.6759 C   0  0  0  0  0  0  0  0  0  0  0  0
    6.0834    7.6249   12.2210 C   0  0  0  0  0  0  0  0  0  0  0  0
    9.5196    7.5733   13.2365 C   0  0  0  0  0  0  0  0  0  0  0  0
   10.7127    8.2694   13.0335 C   0  0  0  0  0  0  0  0  0  0  0  0
   11.4454    8.7186   14.1110 C   0  0  0  0  0  0  0  0  0  0  0  0
   11.0210    8.4696   15.4148 C   0  0  0  0  0  0  0  0  0  0  0  0
    9.8294    7.7842   15.6084 C   0  0  0  0  0  0  0  0  0  0  0  0
    9.0827    7.3347   14.5338 C   0  0  0  0  0  0  0  0  0  0  0  0
    8.5561    8.1121   10.5764 C   0  0  0  0  0  0  0  0  0  0  0  0
    8.6956    9.4619   10.8872 C   0  0  0  0  0  0  0  0  0  0  0  0
    8.5126   10.4207    9.9098 C   0  0  0  0  0  0  0  0  0  0  0  0
    8.1776   10.0656    8.6067 C   0  0  0  0  0  0  0  0  0  0  0  0
    8.0192    8.7179    8.3080 C   0  0  0  0  0  0  0  0  0  0  0  0
    8.2037    7.7528    9.2793 C   0  0  0  0  0  0  0  0  0  0  0  0
    2.9547    6.1509   13.7692 C   0  0  0  0  0  0  0  0  0  0  0  0
   11.8495    8.9323   16.5719 C   0  0  0  0  0  0  0  0  0  0  0  0
    7.9931   11.1208    7.5620 C   0  0  0  0  0  0  0  0  0  0  0  0
    7.4198    4.6874   10.2452 H   0  0  0  0  0  0  0  0  0  0  0  0
    8.0349    3.1957   10.9874 H   0  0  0  0  0  0  0  0  0  0  0  0
    8.5012    3.6148    9.3297 H   0  0  0  0  0  0  0  0  0  0  0  0
   12.0197    4.8713   15.8494 H   0  0  0  0  0  0  0  0  0  0  0  0
   14.2771    5.9324   15.4534 H   0  0  0  0  0  0  0  0  0  0  0  0
   15.8249    7.0033   13.8377 H   0  0  0  0  0  0  0  0  0  0  0  0
   16.2991    7.7895   11.5481 H   0  0  0  0  0  0  0  0  0  0  0  0
   14.6054    7.5250    9.7761 H   0  0  0  0  0  0  0  0  0  0  0  0
   12.4355    6.4777   10.2761 H   0  0  0  0  0  0  0  0  0  0  0  0
    7.2647    4.5753   13.0893 H   0  0  0  0  0  0  0  0  0  0  0  0
    4.9583    4.3450   13.8833 H   0  0  0  0  0  0  0  0  0  0  0  0
    4.0941    8.3087   12.5600 H   0  0  0  0  0  0  0  0  0  0  0  0
    6.3880    8.5509   11.7546 H   0  0  0  0  0  0  0  0  0  0  0  0
   11.0676    8.4418   12.0243 H   0  0  0  0  0  0  0  0  0  0  0  0
   12.3714    9.2514   13.9442 H   0  0  0  0  0  0  0  0  0  0  0  0
    9.4868    7.5768   16.6111 H   0  0  0  0  0  0  0  0  0  0  0  0
    8.1685    6.7845   14.7054 H   0  0  0  0  0  0  0  0  0  0  0  0
    8.9394    9.7644   11.8959 H   0  0  0  0  0  0  0  0  0  0  0  0
    8.6262   11.4655   10.1620 H   0  0  0  0  0  0  0  0  0  0  0  0
    7.7485    8.4200    7.3056 H   0  0  0  0  0  0  0  0  0  0  0  0
    8.0664    6.7082    9.0335 H   0  0  0  0  0  0  0  0  0  0  0  0
    2.9513    5.9207   14.8337 H   0  0  0  0  0  0  0  0  0  0  0  0
    2.4651    5.3266   13.2521 H   0  0  0  0  0  0  0  0  0  0  0  0
    2.3772    7.0571   13.6057 H   0  0  0  0  0  0  0  0  0  0  0  0
   11.9155   10.0201   16.5792 H   0  0  0  0  0  0  0  0  0  0  0  0
   12.8623    8.5396   16.4913 H   0  0  0  0  0  0  0  0  0  0  0  0
   11.4203    8.6033   17.5143 H   0  0  0  0  0  0  0  0  0  0  0  0
    8.9347   11.6378    7.3798 H   0  0  0  0  0  0  0  0  0  0  0  0
    7.2678   11.8621    7.8939 H   0  0  0  0  0  0  0  0  0  0  0  0
    7.6494   10.6882    6.6264 H   0  0  0  0  0  0  0  0  0  0  0  0
  1  3  1  0  0  0  0
  1  7  1  0  0  0  0
  1  5  1  0  0  0  0
  2  1  1  0  0  0  0
  3 20  1  0  0  0  0
  3 26  1  0  0  0  0
  4  8  1  0  0  0  0
  5 10  1  0  0  0  0
  7 11  1  0  0  0  0
  8  1  1  0  0  0  0
  9 42  1  0  0  0  0
  9  1  1  0  0  0  0
 10  6  2  0  0  0  0
 11 10  1  0  0  0  0
 11 12  2  0  0  0  0
 12 44  1  0  0  0  0
 13 12  1  0  0  0  0
 13 45  1  0  0  0  0
 14 13  2  0  0  0  0
 15 14  1  0  0  0  0
 15 46  1  0  0  0  0
 16 15  2  0  0  0  0
 17 18  2  0  0  0  0
 17 16  1  0  0  0  0
 19 18  1  1  0  0  0
 19  7  1  0  0  0  0
 19 14  1  0  0  0  0
 20 21  1  0  0  0  0
 21 50  1  0  0  0  0
 21 22  2  0  0  0  0
 22 51  1  0  0  0  0
 23 22  1  0  0  0  0
 23 38  1  0  0  0  0
 24 23  2  0  0  0  0
 25 20  2  0  0  0  0
 25 24  1  0  0  0  0
 26 31  1  0  0  0  0
 27 26  2  0  0  0  0
 27 28  1  0  0  0  0
 28 29  2  0  0  0  0
 29 30  1  0  0  0  0
 29 39  1  0  0  0  0
 30 56  1  0  0  0  0
 31 57  1  0  0  0  0
 31 30  2  0  0  0  0
 32 33  1  0  0  0  0
 32  3  1  0  0  0  0
 33 58  1  0  0  0  0
 34 59  1  0  0  0  0
 34 33  2  0  0  0  0
 35 34  1  0  0  0  0
 36 35  2  0  0  0  0
 36 37  1  0  0  0  0
 37 32  2  0  0  0  0
 38 62  1  0  0  0  0
 39 65  1  0  0  0  0
 39 67  1  0  0  0  0
 40 69  1  0  0  0  0
 40 35  1  0  0  0  0
 41  9  1  0  0  0  0
 43  9  1  0  0  0  0
 47 16  1  0  0  0  0
 48 17  1  0  0  0  0
 49 18  1  0  0  0  0
 52 24  1  0  0  0  0
 53 25  1  0  0  0  0
 54 27  1  0  0  0  0
 55 28  1  0  0  0  0
 60 36  1  0  0  0  0
 61 37  1  0  0  0  0
 63 38  1  0  0  0  0
 64 38  1  0  0  0  0
 66 39  1  0  0  0  0
 68 40  1  0  0  0  0
 70 40  1  0  0  0  0
M  END
$$$$
