CSD_code = WAFDEP | q = -1 | S = 0 | Stoichiometry = C9H8Cl3NO2ReS(1-) | MND = 6
 OpenBabel04212202113D

 25 27  0  0  1  0  0  0  0  0999 V2000
    2.6745   -2.7842   12.5264 Re  0  0  0  0  0  0  0  0  0  0  0  0
    3.4468   -0.5918   13.0857 Cl  0  0  0  0  0  0  0  0  0  0  0  0
    4.6238   -3.7674   13.2443 Cl  0  0  0  0  0  0  0  0  0  0  0  0
    1.8732   -4.8283   11.6100 Cl  0  0  0  0  0  0  0  0  0  0  0  0
   -0.6161   -0.5535    9.9243 S   0  0  0  0  0  0  0  0  0  0  0  0
    1.8627   -2.9636   13.9544 O   0  0  0  0  0  1  0  0  0  0  0  0
    3.4298   -2.4519   10.8645 O   0  0  0  0  0  0  0  0  0  0  0  0
    0.9643   -1.8096   11.5320 N   0  0  1  0  0  0  0  0  0  0  0  0
    3.2994   -1.7501    9.7903 C   0  0  0  0  0  0  0  0  0  0  0  0
    2.0758   -1.0773    9.5017 C   0  0  0  0  0  0  0  0  0  0  0  0
    1.9696   -0.3240    8.3316 C   0  0  0  0  0  0  0  0  0  0  0  0
    1.0352    0.1821    8.1297 H   0  0  0  0  0  0  0  0  0  0  0  0
    3.0237   -0.2193    7.4526 C   0  0  0  0  0  0  0  0  0  0  0  0
    2.9239    0.3722    6.5547 H   0  0  0  0  0  0  0  0  0  0  0  0
    4.2184   -0.8791    7.7278 C   0  0  0  0  0  0  0  0  0  0  0  0
    5.0473   -0.7975    7.0387 H   0  0  0  0  0  0  0  0  0  0  0  0
    4.3558   -1.6333    8.8685 C   0  0  0  0  0  0  0  0  0  0  0  0
    5.2774   -2.1474    9.0975 H   0  0  0  0  0  0  0  0  0  0  0  0
    0.9615   -1.2136   10.4007 C   0  0  1  0  0  3  0  0  0  0  0  0
   -1.3194   -0.9862   11.5461 C   0  0  0  0  0  0  0  0  0  0  0  0
   -1.4412   -0.0612   12.1107 H   0  0  0  0  0  0  0  0  0  0  0  0
   -2.2907   -1.4519   11.3944 H   0  0  0  0  0  0  0  0  0  0  0  0
   -0.3033   -1.9305   12.1961 C   0  0  0  0  0  0  0  0  0  0  0  0
   -0.1604   -1.7046   13.2565 H   0  0  0  0  0  0  0  0  0  0  0  0
   -0.6095   -2.9810   12.1146 H   0  0  0  0  0  0  0  0  0  0  0  0
  1  2  1  0  0  0  0
  1  3  1  0  0  0  0
  1  6  1  0  0  0  0
  4  1  1  0  0  0  0
  5 19  1  0  0  0  0
  5 20  1  0  0  0  0
  7  1  1  0  0  0  0
  8 23  1  6  0  0  0
  8  1  1  0  0  0  0
  9  7  1  0  0  0  0
 10  9  1  0  0  0  0
 11 10  2  0  0  0  0
 12 11  1  0  0  0  0
 13 15  2  0  0  0  0
 13 11  1  0  0  0  0
 14 13  1  0  0  0  0
 15 17  1  0  0  0  0
 16 15  1  0  0  0  0
 17 18  1  0  0  0  0
 17  9  2  0  0  0  0
 19 10  1  6  0  0  0
 19  8  1  0  0  0  0
 20 21  1  0  0  0  0
 20 23  1  0  0  0  0
 22 20  1  0  0  0  0
 23 24  1  0  0  0  0
 25 23  1  0  0  0  0
M  END
$$$$
