CSD_code = WAFDUF | q = 0 | S = 0 | Stoichiometry = C18H16ClN2O5Re | MND = 6
 OpenBabel04212202113D

 43 48  0  0  1  0  0  0  0  0999 V2000
    0.6154    4.8705    8.8932 Re  0  0  0  0  0  0  0  0  0  0  0  0
    2.8569    4.1753    8.9281 Cl  0  0  0  0  0  0  0  0  0  0  0  0
    0.0308    3.3266    8.9915 O   0  0  0  0  0  1  0  0  0  0  0  0
    1.2596    6.5909    8.6865 O   0  0  0  0  0  0  0  0  0  0  0  0
   -1.3064    5.8097    8.7194 O   0  0  0  0  0  0  0  0  0  0  0  0
    1.2089    5.5323    4.6907 O   0  0  0  0  0  0  0  0  0  0  0  0
   -0.2151    5.9203   12.8899 O   0  0  0  0  0  0  0  0  0  0  0  0
    0.7786    4.8677    6.7655 N   0  0  2  0  0  0  0  0  0  0  0  0
    0.5240    5.2176   10.9211 N   0  0  2  0  0  0  0  0  0  0  0  0
    1.7597    7.4099    7.8128 C   0  0  0  0  0  0  0  0  0  0  0  0
    1.7850    7.0661    6.4339 C   0  0  0  0  0  0  0  0  0  0  0  0
    2.3248    7.9592    5.5055 C   0  0  0  0  0  0  0  0  0  0  0  0
    2.3342    7.6739    4.4649 H   0  0  0  0  0  0  0  0  0  0  0  0
    2.8370    9.1713    5.9115 C   0  0  0  0  0  0  0  0  0  0  0  0
    3.2561    9.8523    5.1875 H   0  0  0  0  0  0  0  0  0  0  0  0
    2.8142    9.5146    7.2600 C   0  0  0  0  0  0  0  0  0  0  0  0
    3.2175   10.4646    7.5783 H   0  0  0  0  0  0  0  0  0  0  0  0
    2.2841    8.6557    8.1955 C   0  0  0  0  0  0  0  0  0  0  0  0
    2.2655    8.9156    9.2435 H   0  0  0  0  0  0  0  0  0  0  0  0
    1.2461    5.7975    6.0041 C   0  0  2  0  0  3  0  0  0  0  0  0
    0.6502    4.2301    4.5175 C   0  0  0  0  0  0  0  0  0  0  0  0
    1.3919    3.6036    4.0155 H   0  0  0  0  0  0  0  0  0  0  0  0
   -0.2368    4.3199    3.8852 H   0  0  0  0  0  0  0  0  0  0  0  0
    0.3303    3.7569    5.9468 C   0  0  0  0  0  0  0  0  0  0  0  0
   -0.7346    3.5908    6.1251 H   0  0  0  0  0  0  0  0  0  0  0  0
    0.8755    2.8566    6.2410 H   0  0  0  0  0  0  0  0  0  0  0  0
   -2.0298    6.2559    9.6802 C   0  0  0  0  0  0  0  0  0  0  0  0
   -1.6853    6.2869   11.0661 C   0  0  0  0  0  0  0  0  0  0  0  0
   -2.5960    6.8283   11.9977 C   0  0  0  0  0  0  0  0  0  0  0  0
   -2.3083    6.8344   13.0376 H   0  0  0  0  0  0  0  0  0  0  0  0
   -3.8100    7.3277   11.6133 C   0  0  0  0  0  0  0  0  0  0  0  0
   -4.4926    7.7328   12.3437 H   0  0  0  0  0  0  0  0  0  0  0  0
   -4.1588    7.3058   10.2591 C   0  0  0  0  0  0  0  0  0  0  0  0
   -5.1160    7.6973    9.9461 H   0  0  0  0  0  0  0  0  0  0  0  0
   -3.2989    6.7925    9.3294 C   0  0  0  0  0  0  0  0  0  0  0  0
   -3.5585    6.7690    8.2819 H   0  0  0  0  0  0  0  0  0  0  0  0
   -0.4429    5.7925   11.5769 C   0  0  1  0  0  3  0  0  0  0  0  0
    1.0579    5.3538   13.1957 C   0  0  0  0  0  0  0  0  0  0  0  0
    0.9086    4.5478   13.9185 H   0  0  0  0  0  0  0  0  0  0  0  0
    1.6787    6.1324   13.6472 H   0  0  0  0  0  0  0  0  0  0  0  0
    1.5907    4.8602   11.8437 C   0  0  0  0  0  0  0  0  0  0  0  0
    2.5194    5.3472   11.5360 H   0  0  0  0  0  0  0  0  0  0  0  0
    1.7455    3.7790   11.8045 H   0  0  0  0  0  0  0  0  0  0  0  0
  1  2  1  0  0  0  0
  1  3  1  0  0  0  0
  1  9  1  0  0  0  0
  4  1  1  0  0  0  0
  5  1  1  0  0  0  0
  5 27  1  0  0  0  0
  7 38  1  0  0  0  0
  8 24  1  6  0  0  0
  8  1  1  0  0  0  0
  9 37  1  0  0  0  0
  9 41  1  6  0  0  0
 10 18  1  0  0  0  0
 10  4  1  0  0  0  0
 11 10  2  0  0  0  0
 12 14  2  0  0  0  0
 12 11  1  0  0  0  0
 13 12  1  0  0  0  0
 14 16  1  0  0  0  0
 15 14  1  0  0  0  0
 16 17  1  0  0  0  0
 16 18  2  0  0  0  0
 18 19  1  0  0  0  0
 20  6  1  6  0  0  0
 20 11  1  0  0  0  0
 20  8  1  0  0  0  0
 21  6  1  0  0  0  0
 21 24  1  0  0  0  0
 22 21  1  0  0  0  0
 23 21  1  0  0  0  0
 24 25  1  0  0  0  0
 24 26  1  0  0  0  0
 27 28  1  0  0  0  0
 28 29  2  0  0  0  0
 29 30  1  0  0  0  0
 31 29  1  0  0  0  0
 31 32  1  0  0  0  0
 33 31  2  0  0  0  0
 34 33  1  0  0  0  0
 35 27  2  0  0  0  0
 35 33  1  0  0  0  0
 36 35  1  0  0  0  0
 37 28  1  1  0  0  0
 37  7  1  0  0  0  0
 38 40  1  0  0  0  0
 38 39  1  0  0  0  0
 41 38  1  0  0  0  0
 42 41  1  0  0  0  0
 43 41  1  0  0  0  0
M  END
$$$$
