CSD_code = WAFYUX | q = 0 | S = 0 | Stoichiometry = C12H27ClMnN3 | MND = 4
 OpenBabel04212202113D

 44 43  0  0  0  0  0  0  0  0999 V2000
    2.2011    2.1551    1.7653 Mn  0  0  0  0  0  0  0  0  0  0  0  0
    1.0149    0.5394    1.8370 Cl  0  0  0  0  0  0  0  0  0  0  0  0
    1.8438    3.1412    2.9692 N   0  0  0  0  0  2  0  0  0  0  0  0
    3.7302    1.7118    1.8983 N   0  0  0  0  0  2  0  0  0  0  0  0
    1.9903    2.9206    0.3784 N   0  0  0  0  0  2  0  0  0  0  0  0
    1.7106    4.1316    3.9713 C   0  0  0  0  0  0  0  0  0  0  0  0
    5.1275    1.5590    2.0618 C   0  0  0  0  0  0  0  0  0  0  0  0
    1.9195    3.7393   -0.7735 C   0  0  0  0  0  0  0  0  0  0  0  0
    2.8648    5.1381    3.8027 C   0  0  0  0  0  0  0  0  0  0  0  0
    1.7950    3.4701    5.3588 C   0  0  0  0  0  0  0  0  0  0  0  0
    0.3621    4.8569    3.8148 C   0  0  0  0  0  0  0  0  0  0  0  0
    5.8261    2.7629    1.4007 C   0  0  0  0  0  0  0  0  0  0  0  0
    5.5769    0.2548    1.3800 C   0  0  0  0  0  0  0  0  0  0  0  0
    5.4751    1.5131    3.5615 C   0  0  0  0  0  0  0  0  0  0  0  0
    3.1741    3.5363   -1.6423 C   0  0  0  0  0  0  0  0  0  0  0  0
    0.6622    3.3466   -1.5703 C   0  0  0  0  0  0  0  0  0  0  0  0
    1.8227    5.2134   -0.3387 C   0  0  0  0  0  0  0  0  0  0  0  0
    2.7866    5.9265    4.5468 H   0  0  0  0  0  0  0  0  0  0  0  0
    2.8245    5.5719    2.8057 H   0  0  0  0  0  0  0  0  0  0  0  0
    3.8174    4.6255    3.9167 H   0  0  0  0  0  0  0  0  0  0  0  0
    1.7284    4.2236    6.1397 H   0  0  0  0  0  0  0  0  0  0  0  0
    2.7370    2.9350    5.4555 H   0  0  0  0  0  0  0  0  0  0  0  0
    0.9807    2.7598    5.4817 H   0  0  0  0  0  0  0  0  0  0  0  0
    0.2572    5.6270    4.5750 H   0  0  0  0  0  0  0  0  0  0  0  0
   -0.4554    4.1468    3.9148 H   0  0  0  0  0  0  0  0  0  0  0  0
    0.3044    5.3155    2.8304 H   0  0  0  0  0  0  0  0  0  0  0  0
    6.8884    2.7540    1.6302 H   0  0  0  0  0  0  0  0  0  0  0  0
    5.3769    3.6842    1.7707 H   0  0  0  0  0  0  0  0  0  0  0  0
    5.6916    2.7206    0.3231 H   0  0  0  0  0  0  0  0  0  0  0  0
    6.6559    0.1460    1.4564 H   0  0  0  0  0  0  0  0  0  0  0  0
    5.2921    0.2695    0.3304 H   0  0  0  0  0  0  0  0  0  0  0  0
    5.0994   -0.5983    1.8564 H   0  0  0  0  0  0  0  0  0  0  0  0
    6.5447    1.3756    3.6993 H   0  0  0  0  0  0  0  0  0  0  0  0
    4.9471    0.6911    4.0394 H   0  0  0  0  0  0  0  0  0  0  0  0
    5.1691    2.4429    4.0358 H   0  0  0  0  0  0  0  0  0  0  0  0
    3.1068    4.1322   -2.5490 H   0  0  0  0  0  0  0  0  0  0  0  0
    3.2725    2.4874   -1.9118 H   0  0  0  0  0  0  0  0  0  0  0  0
    4.0554    3.8359   -1.0799 H   0  0  0  0  0  0  0  0  0  0  0  0
    0.5670    3.9776   -2.4505 H   0  0  0  0  0  0  0  0  0  0  0  0
   -0.2229    3.4641   -0.9491 H   0  0  0  0  0  0  0  0  0  0  0  0
    0.7298    2.3071   -1.8834 H   0  0  0  0  0  0  0  0  0  0  0  0
    1.7866    5.8623   -1.2100 H   0  0  0  0  0  0  0  0  0  0  0  0
    2.6918    5.4661    0.2663 H   0  0  0  0  0  0  0  0  0  0  0  0
    0.9263    5.3645    0.2580 H   0  0  0  0  0  0  0  0  0  0  0  0
  1  2  1  0  0  0  0
  1  4  1  0  0  0  0
  1  3  1  0  0  0  0
  3  6  1  0  0  0  0
  4  7  1  0  0  0  0
  5  1  1  0  0  0  0
  6 10  1  0  0  0  0
  7 14  1  0  0  0  0
  8 17  1  0  0  0  0
  8  5  1  0  0  0  0
  9 20  1  0  0  0  0
  9  6  1  0  0  0  0
  9 18  1  0  0  0  0
 10 22  1  0  0  0  0
 10 23  1  0  0  0  0
 10 21  1  0  0  0  0
 11 25  1  0  0  0  0
 11  6  1  0  0  0  0
 11 24  1  0  0  0  0
 12 27  1  0  0  0  0
 12 28  1  0  0  0  0
 12  7  1  0  0  0  0
 13 30  1  0  0  0  0
 13 32  1  0  0  0  0
 13  7  1  0  0  0  0
 14 33  1  0  0  0  0
 14 35  1  0  0  0  0
 14 34  1  0  0  0  0
 15 38  1  0  0  0  0
 15  8  1  0  0  0  0
 16 40  1  0  0  0  0
 16  8  1  0  0  0  0
 17 44  1  0  0  0  0
 17 43  1  0  0  0  0
 19  9  1  0  0  0  0
 26 11  1  0  0  0  0
 29 12  1  0  0  0  0
 31 13  1  0  0  0  0
 36 15  1  0  0  0  0
 37 15  1  0  0  0  0
 39 16  1  0  0  0  0
 41 16  1  0  0  0  0
 42 17  1  0  0  0  0
M  END
$$$$
