CSD_code = WAGHUI | q = 0 | S = 0 | Stoichiometry = C27H25ClN2Pd | MND = 4
 OpenBabel04212202113D

 56 59  0  0  0  0  0  0  0  0999 V2000
   -0.0445    5.4615    7.5867 Pd  0  0  0  0  0  0  0  0  0  0  0  0
    0.0062    7.8064    7.1928 Cl  0  0  0  0  0  0  0  0  0  0  0  0
    1.4957    5.3540    6.4018 N   0  0  0  0  0  0  0  0  0  0  0  0
   -1.7452    5.6041    8.5029 N   0  0  0  0  0  0  0  0  0  0  0  0
   -0.1657    3.4133    7.8167 C   0  0  0  0  0  0  0  0  0  0  0  0
    2.7119    4.9481    6.4683 C   0  0  0  0  0  3  0  0  0  0  0  0
    3.1792    4.2550    7.6755 C   0  0  0  0  0  0  0  0  0  0  0  0
    2.6965    4.6366    8.9283 C   0  0  0  0  0  0  0  0  0  0  0  0
    3.0917    3.9499   10.0616 C   0  0  0  0  0  0  0  0  0  0  0  0
    3.9677    2.8813    9.9593 C   0  0  0  0  0  0  0  0  0  0  0  0
    4.4585    2.5042    8.7190 C   0  0  0  0  0  0  0  0  0  0  0  0
    4.0717    3.1868    7.5818 C   0  0  0  0  0  0  0  0  0  0  0  0
    3.6577    5.1415    5.3571 C   0  0  0  0  0  0  0  0  0  0  0  0
    4.9993    5.4249    5.6133 C   0  0  0  0  0  0  0  0  0  0  0  0
    5.8800    5.6333    4.5691 C   0  0  0  0  0  0  0  0  0  0  0  0
    5.4400    5.5501    3.2578 C   0  0  0  0  0  0  0  0  0  0  0  0
    4.1107    5.2636    2.9932 C   0  0  0  0  0  0  0  0  0  0  0  0
    3.2227    5.0672    4.0335 C   0  0  0  0  0  0  0  0  0  0  0  0
   -2.0786    5.6485    9.7411 C   0  0  0  0  0  3  0  0  0  0  0  0
   -1.0256    5.6253   10.7683 C   0  0  0  0  0  0  0  0  0  0  0  0
    0.1259    6.3961   10.5951 C   0  0  0  0  0  0  0  0  0  0  0  0
    1.1036    6.4019   11.5758 C   0  0  0  0  0  0  0  0  0  0  0  0
    0.9561    5.6276   12.7156 C   0  0  0  0  0  0  0  0  0  0  0  0
   -0.1803    4.8523   12.8842 C   0  0  0  0  0  0  0  0  0  0  0  0
   -1.1730    4.8578   11.9227 C   0  0  0  0  0  0  0  0  0  0  0  0
   -3.4791    5.7321   10.1790 C   0  0  0  0  0  0  0  0  0  0  0  0
   -3.8191    6.4417   11.3316 C   0  0  0  0  0  0  0  0  0  0  0  0
   -5.1386    6.5356   11.7297 C   0  0  0  0  0  0  0  0  0  0  0  0
   -6.1361    5.9155   10.9944 C   0  0  0  0  0  0  0  0  0  0  0  0
   -5.8082    5.2018    9.8532 C   0  0  0  0  0  0  0  0  0  0  0  0
   -4.4918    5.1140    9.4435 C   0  0  0  0  0  0  0  0  0  0  0  0
   -1.0912    3.0298    7.3730 H   0  0  0  0  0  0  0  0  0  0  0  0
    0.6695    2.8833    7.3533 H   0  0  0  0  0  0  0  0  0  0  0  0
   -0.1726    3.1618    8.8822 H   0  0  0  0  0  0  0  0  0  0  0  0
    2.0377    5.5037    9.0047 H   0  0  0  0  0  0  0  0  0  0  0  0
    2.7126    4.2493   11.0271 H   0  0  0  0  0  0  0  0  0  0  0  0
    4.2710    2.3431   10.8450 H   0  0  0  0  0  0  0  0  0  0  0  0
    5.1414    1.6714    8.6379 H   0  0  0  0  0  0  0  0  0  0  0  0
    4.4394    2.8791    6.6134 H   0  0  0  0  0  0  0  0  0  0  0  0
    5.3398    5.5001    6.6355 H   0  0  0  0  0  0  0  0  0  0  0  0
    6.9146    5.8614    4.7782 H   0  0  0  0  0  0  0  0  0  0  0  0
    6.1314    5.7077    2.4436 H   0  0  0  0  0  0  0  0  0  0  0  0
    3.7650    5.1932    1.9726 H   0  0  0  0  0  0  0  0  0  0  0  0
    2.1912    4.8243    3.8188 H   0  0  0  0  0  0  0  0  0  0  0  0
    0.2139    7.0474    9.7271 H   0  0  0  0  0  0  0  0  0  0  0  0
    1.9823    7.0179   11.4521 H   0  0  0  0  0  0  0  0  0  0  0  0
    1.7227    5.6327   13.4769 H   0  0  0  0  0  0  0  0  0  0  0  0
   -0.2959    4.2479   13.7717 H   0  0  0  0  0  0  0  0  0  0  0  0
   -2.0611    4.2567   12.0546 H   0  0  0  0  0  0  0  0  0  0  0  0
   -3.0437    6.9344   11.8990 H   0  0  0  0  0  0  0  0  0  0  0  0
   -5.3913    7.0941   12.6187 H   0  0  0  0  0  0  0  0  0  0  0  0
   -7.1660    5.9863   11.3102 H   0  0  0  0  0  0  0  0  0  0  0  0
   -6.5817    4.7111    9.2813 H   0  0  0  0  0  0  0  0  0  0  0  0
   -4.2431    4.5355    8.5646 H   0  0  0  0  0  0  0  0  0  0  0  0
    1.2646    5.8602    5.5384 H   0  0  0  0  0  0  0  0  0  0  0  0
   -2.5296    5.6896    7.8458 H   0  0  0  0  0  0  0  0  0  0  0  0
  1  5  1  0  0  0  0
  1  4  1  0  0  0  0
  2  1  1  0  0  0  0
  3  6  1  0  0  0  0
  3  1  1  0  0  0  0
  4 19  1  0  0  0  0
  5 34  1  0  0  0  0
  6  7  1  0  0  0  0
  7  8  1  0  0  0  0
  8 35  1  0  0  0  0
  8  9  2  0  0  0  0
  9 36  1  0  0  0  0
 10  9  1  0  0  0  0
 10 37  1  0  0  0  0
 11 10  2  0  0  0  0
 12  7  2  0  0  0  0
 12 11  1  0  0  0  0
 13 14  1  0  0  0  0
 13  6  1  0  0  0  0
 14 40  1  0  0  0  0
 15 41  1  0  0  0  0
 15 14  2  0  0  0  0
 16 15  1  0  0  0  0
 17 16  2  0  0  0  0
 17 18  1  0  0  0  0
 18 13  2  0  0  0  0
 19 26  1  0  0  0  0
 19 20  1  0  0  0  0
 20 25  1  0  0  0  0
 21 20  2  0  0  0  0
 21 22  1  0  0  0  0
 22 23  2  0  0  0  0
 23 24  1  0  0  0  0
 23 47  1  0  0  0  0
 24 48  1  0  0  0  0
 25 49  1  0  0  0  0
 25 24  2  0  0  0  0
 26 27  1  0  0  0  0
 27 28  2  0  0  0  0
 27 50  1  0  0  0  0
 28 51  1  0  0  0  0
 29 52  1  0  0  0  0
 29 28  1  0  0  0  0
 30 29  2  0  0  0  0
 31 30  1  0  0  0  0
 31 26  2  0  0  0  0
 32  5  1  0  0  0  0
 33  5  1  0  0  0  0
 38 11  1  0  0  0  0
 39 12  1  0  0  0  0
 42 16  1  0  0  0  0
 43 17  1  0  0  0  0
 44 18  1  0  0  0  0
 45 21  1  0  0  0  0
 46 22  1  0  0  0  0
 53 30  1  0  0  0  0
 54 31  1  0  0  0  0
 55  3  1  0  0  0  0
 56  4  1  0  0  0  0
M  END
$$$$
