CSD_code = WAHFAM | q = -1 | S = 0 | Stoichiometry = C18H15F5NNbP(1-) | MND = 6
 OpenBabel04212202113D

 41 43  0  0  0  0  0  0  0  0999 V2000
    2.0255    4.6436    2.5553 Nb  0  0  0  0  0  0  0  0  0  0  0  0
    4.1629    7.1305    3.5044 P   0  0  0  0  0  4  0  0  0  0  0  0
    0.5716    3.5945    1.7601 F   0  0  0  0  0  0  0  0  0  0  0  0
    0.9883    4.7685    4.1312 F   0  0  0  0  0  0  0  0  0  0  0  0
    2.9416    4.4649    0.9115 F   0  0  0  0  0  0  0  0  0  0  0  0
    1.0966    6.1524    1.8544 F   0  0  0  0  0  0  0  0  0  0  0  0
    2.8695    3.1071    3.2134 F   0  0  0  0  0  0  0  0  0  0  0  0
    3.4172    5.7980    3.2942 N   0  0  0  0  0  2  0  0  0  0  0  0
    4.8162    7.9020    1.9700 C   0  0  0  0  0  0  0  0  0  0  0  0
    4.1079    7.6208    0.8075 C   0  0  0  0  0  0  0  0  0  0  0  0
    4.5212    8.1607   -0.3978 C   0  0  0  0  0  0  0  0  0  0  0  0
    5.6394    8.9785   -0.4446 C   0  0  0  0  0  0  0  0  0  0  0  0
    6.3471    9.2567    0.7139 C   0  0  0  0  0  0  0  0  0  0  0  0
    5.9376    8.7209    1.9221 C   0  0  0  0  0  0  0  0  0  0  0  0
    5.6257    6.9682    4.5914 C   0  0  0  0  0  0  0  0  0  0  0  0
    5.6051    7.3235    5.9329 C   0  0  0  0  0  0  0  0  0  0  0  0
    6.6965    7.0457    6.7379 C   0  0  0  0  0  0  0  0  0  0  0  0
    7.8040    6.4025    6.2105 C   0  0  0  0  0  0  0  0  0  0  0  0
    7.8167    6.0224    4.8770 C   0  0  0  0  0  0  0  0  0  0  0  0
    6.7272    6.2966    4.0723 C   0  0  0  0  0  0  0  0  0  0  0  0
    3.1507    8.4740    4.2395 C   0  0  0  0  0  0  0  0  0  0  0  0
    3.6594    9.7330    4.5357 C   0  0  0  0  0  0  0  0  0  0  0  0
    2.8280   10.7012    5.0684 C   0  0  0  0  0  0  0  0  0  0  0  0
    1.4905   10.4168    5.2982 C   0  0  0  0  0  0  0  0  0  0  0  0
    0.9819    9.1641    4.9949 C   0  0  0  0  0  0  0  0  0  0  0  0
    1.8102    8.1895    4.4644 C   0  0  0  0  0  0  0  0  0  0  0  0
    3.9739    7.9404   -1.3027 H   0  0  0  0  0  0  0  0  0  0  0  0
    5.9660    9.3975   -1.3867 H   0  0  0  0  0  0  0  0  0  0  0  0
    7.2232    9.8904    0.6738 H   0  0  0  0  0  0  0  0  0  0  0  0
    6.4945    8.9285    2.8265 H   0  0  0  0  0  0  0  0  0  0  0  0
    6.6823    7.3266    7.7822 H   0  0  0  0  0  0  0  0  0  0  0  0
    8.6549    6.1872    6.8420 H   0  0  0  0  0  0  0  0  0  0  0  0
    8.6758    5.5067    4.4710 H   0  0  0  0  0  0  0  0  0  0  0  0
    6.7082    5.9945    3.0332 H   0  0  0  0  0  0  0  0  0  0  0  0
    3.2206   11.6814    5.3041 H   0  0  0  0  0  0  0  0  0  0  0  0
    0.8442   11.1784    5.7133 H   0  0  0  0  0  0  0  0  0  0  0  0
   -0.0617    8.9468    5.1703 H   0  0  0  0  0  0  0  0  0  0  0  0
    1.4380    7.2014    4.2134 H   0  0  0  0  0  0  0  0  0  0  0  0
    3.2439    6.9670    0.8672 H   0  0  0  0  0  0  0  0  0  0  0  0
    4.7341    7.8196    6.3392 H   0  0  0  0  0  0  0  0  0  0  0  0
    4.7030    9.9483    4.3510 H   0  0  0  0  0  0  0  0  0  0  0  0
  1  7  1  0  0  0  0
  1  8  1  0  0  0  0
  1  4  1  0  0  0  0
  2 21  1  0  0  0  0
  2 15  1  0  0  0  0
  3  1  1  0  0  0  0
  5  1  1  0  0  0  0
  6  1  1  0  0  0  0
  8  2  1  0  0  0  0
  9  2  1  0  0  0  0
 10 39  1  0  0  0  0
 10  9  2  0  0  0  0
 11 10  1  0  0  0  0
 12 11  2  0  0  0  0
 12 13  1  0  0  0  0
 13 14  2  0  0  0  0
 14  9  1  0  0  0  0
 14 30  1  0  0  0  0
 15 16  1  0  0  0  0
 16 40  1  0  0  0  0
 16 17  2  0  0  0  0
 17 31  1  0  0  0  0
 18 17  1  0  0  0  0
 18 32  1  0  0  0  0
 19 18  2  0  0  0  0
 20 15  2  0  0  0  0
 20 19  1  0  0  0  0
 21 26  2  0  0  0  0
 21 22  1  0  0  0  0
 22 23  2  0  0  0  0
 23 24  1  0  0  0  0
 23 35  1  0  0  0  0
 24 36  1  0  0  0  0
 25 37  1  0  0  0  0
 25 24  2  0  0  0  0
 26 25  1  0  0  0  0
 27 11  1  0  0  0  0
 28 12  1  0  0  0  0
 29 13  1  0  0  0  0
 33 19  1  0  0  0  0
 34 20  1  0  0  0  0
 38 26  1  0  0  0  0
 41 22  1  0  0  0  0
M  END
$$$$
