CSD_code = WAHHUJ | q = 0 | S = 0 | Stoichiometry = C26H25I2NO2PRe | MND = 6
 OpenBabel04212202113D

 58 62  0  0  0  0  0  0  0  0999 V2000
    9.0182    5.0148    2.3280 Re  0  0  0  0  0  0  0  0  0  0  0  0
    7.9441    6.4102    4.4165 I   0  0  0  0  0  0  0  0  0  0  0  0
   10.2622    3.8199    0.1781 I   0  0  0  0  0  0  0  0  0  0  0  0
   10.0189    3.3811    3.7840 P   0  0  0  0  0  4  0  0  0  0  0  0
    7.6625    4.0813    2.1403 O   0  0  0  0  0  1  0  0  0  0  0  0
   10.3572    6.1432    2.3493 O   0  0  0  0  0  0  0  0  0  0  0  0
    8.0999    6.6942    0.6572 N   0  0  0  0  0  4  0  0  0  0  0  0
    8.6433    6.4900   -0.1804 H   0  0  0  0  0  0  0  0  0  0  0  0
    7.1281    6.4252    0.5114 H   0  0  0  0  0  0  0  0  0  0  0  0
    8.2116    8.0418    1.0852 C   0  0  0  0  0  0  0  0  0  0  0  0
    9.4572    8.6754    1.1716 C   0  0  0  0  0  0  0  0  0  0  0  0
    9.5036    9.9762    1.6541 C   0  0  0  0  0  0  0  0  0  0  0  0
   10.4628   10.4698    1.7250 H   0  0  0  0  0  0  0  0  0  0  0  0
    8.3590   10.6429    2.0519 C   0  0  0  0  0  0  0  0  0  0  0  0
    8.4266   11.6516    2.4288 H   0  0  0  0  0  0  0  0  0  0  0  0
    7.1343   10.0043    1.9777 C   0  0  0  0  0  0  0  0  0  0  0  0
    6.2348   10.5048    2.3000 H   0  0  0  0  0  0  0  0  0  0  0  0
    7.0639    8.7134    1.4920 C   0  0  0  0  0  0  0  0  0  0  0  0
    6.1117    8.2041    1.4448 H   0  0  0  0  0  0  0  0  0  0  0  0
   10.7479    7.9690    0.8453 C   0  0  0  0  0  0  0  0  0  0  0  0
   10.6432    7.2962   -0.0109 H   0  0  0  0  0  0  0  0  0  0  0  0
   11.5234    8.6992    0.6091 H   0  0  0  0  0  0  0  0  0  0  0  0
   11.2305    7.1445    2.0603 C   0  0  0  0  0  0  0  0  0  0  0  0
   12.2231    6.7115    1.8412 H   0  0  0  0  0  0  0  0  0  0  0  0
   11.3303    7.8079    2.9372 H   0  0  0  0  0  0  0  0  0  0  0  0
   11.6772    4.0095    4.1044 C   0  0  0  0  0  0  0  0  0  0  0  0
   12.7404    3.6559    3.2767 C   0  0  0  0  0  0  0  0  0  0  0  0
   12.6030    2.9099    2.5056 H   0  0  0  0  0  0  0  0  0  0  0  0
   13.9654    4.2788    3.4364 C   0  0  0  0  0  0  0  0  0  0  0  0
   14.7905    4.0056    2.7955 H   0  0  0  0  0  0  0  0  0  0  0  0
   14.1272    5.2612    4.4007 C   0  0  0  0  0  0  0  0  0  0  0  0
   15.0833    5.7503    4.5152 H   0  0  0  0  0  0  0  0  0  0  0  0
   13.0613    5.6319    5.2069 C   0  0  0  0  0  0  0  0  0  0  0  0
   13.1833    6.4117    5.9441 H   0  0  0  0  0  0  0  0  0  0  0  0
   11.8328    5.0160    5.0574 C   0  0  0  0  0  0  0  0  0  0  0  0
   10.9890    5.3189    5.6645 H   0  0  0  0  0  0  0  0  0  0  0  0
    9.1819    3.0748    5.3596 C   0  0  0  0  0  0  0  0  0  0  0  0
    9.8797    2.8422    6.5386 C   0  0  0  0  0  0  0  0  0  0  0  0
   10.9590    2.9079    6.5579 H   0  0  0  0  0  0  0  0  0  0  0  0
    9.1782    2.5346    7.6909 C   0  0  0  0  0  0  0  0  0  0  0  0
    9.7146    2.3650    8.6127 H   0  0  0  0  0  0  0  0  0  0  0  0
    7.7961    2.4485    7.6648 C   0  0  0  0  0  0  0  0  0  0  0  0
    7.2562    2.2175    8.5708 H   0  0  0  0  0  0  0  0  0  0  0  0
    7.1037    2.6592    6.4823 C   0  0  0  0  0  0  0  0  0  0  0  0
    6.0269    2.5923    6.4644 H   0  0  0  0  0  0  0  0  0  0  0  0
    7.7941    2.9669    5.3264 C   0  0  0  0  0  0  0  0  0  0  0  0
    7.2710    3.1511    4.3951 H   0  0  0  0  0  0  0  0  0  0  0  0
   10.1222    1.6861    3.1549 C   0  0  0  0  0  0  0  0  0  0  0  0
   11.1258    0.8315    3.5998 C   0  0  0  0  0  0  0  0  0  0  0  0
   11.8926    1.1950    4.2706 H   0  0  0  0  0  0  0  0  0  0  0  0
   11.1374   -0.4834    3.1718 C   0  0  0  0  0  0  0  0  0  0  0  0
   11.9224   -1.1466    3.5039 H   0  0  0  0  0  0  0  0  0  0  0  0
   10.1482   -0.9479    2.3199 C   0  0  0  0  0  0  0  0  0  0  0  0
   10.1683   -1.9735    1.9834 H   0  0  0  0  0  0  0  0  0  0  0  0
    9.1334   -0.1024    1.9009 C   0  0  0  0  0  0  0  0  0  0  0  0
    8.3611   -0.4668    1.2411 H   0  0  0  0  0  0  0  0  0  0  0  0
    9.1137    1.2141    2.3214 C   0  0  0  0  0  0  0  0  0  0  0  0
    8.3317    1.8898    1.9955 H   0  0  0  0  0  0  0  0  0  0  0  0
  1  6  1  0  0  0  0
  1  4  1  0  0  0  0
  1  2  1  0  0  0  0
  3  1  1  0  0  0  0
  4 26  1  0  0  0  0
  4 37  1  0  0  0  0
  5  1  1  0  0  0  0
  7 10  1  0  0  0  0
  7  1  1  0  0  0  0
  8  7  1  0  0  0  0
  9  7  1  0  0  0  0
 10 11  2  0  0  0  0
 10 18  1  0  0  0  0
 11 12  1  0  0  0  0
 12 13  1  0  0  0  0
 12 14  2  0  0  0  0
 14 15  1  0  0  0  0
 16 14  1  0  0  0  0
 16 17  1  0  0  0  0
 18 16  2  0  0  0  0
 19 18  1  0  0  0  0
 20 11  1  0  0  0  0
 20 23  1  0  0  0  0
 21 20  1  0  0  0  0
 22 20  1  0  0  0  0
 23  6  1  0  0  0  0
 23 25  1  0  0  0  0
 24 23  1  0  0  0  0
 26 35  1  0  0  0  0
 27 29  1  0  0  0  0
 27 26  2  0  0  0  0
 28 27  1  0  0  0  0
 29 31  2  0  0  0  0
 30 29  1  0  0  0  0
 31 32  1  0  0  0  0
 31 33  1  0  0  0  0
 33 34  1  0  0  0  0
 35 33  2  0  0  0  0
 35 36  1  0  0  0  0
 37 38  1  0  0  0  0
 38 39  1  0  0  0  0
 38 40  2  0  0  0  0
 40 41  1  0  0  0  0
 42 40  1  0  0  0  0
 42 43  1  0  0  0  0
 44 42  2  0  0  0  0
 45 44  1  0  0  0  0
 46 37  2  0  0  0  0
 46 44  1  0  0  0  0
 47 46  1  0  0  0  0
 48 49  1  0  0  0  0
 48  4  1  0  0  0  0
 49 50  1  0  0  0  0
 51 52  1  0  0  0  0
 51 49  2  0  0  0  0
 53 51  1  0  0  0  0
 54 53  1  0  0  0  0
 55 53  2  0  0  0  0
 55 57  1  0  0  0  0
 56 55  1  0  0  0  0
 57 48  2  0  0  0  0
 58 57  1  0  0  0  0
M  END
$$$$
