CSD_code = WAHHOD | q = 0 | S = 0 | Stoichiometry = C12H14Cl2N3O2Re | MND = 6
 OpenBabel04212202113D

 34 36  0  0  1  0  0  0  0  0999 V2000
   13.9222    8.2526    9.8215 Re  0  0  0  0  0  0  0  0  0  0  0  0
   15.1768    9.6065   11.2190 Cl  0  0  0  0  0  0  0  0  0  0  0  0
   12.4097    9.9749    9.5029 Cl  0  0  0  0  0  0  0  0  0  0  0  0
   13.0589    7.5258   11.0303 O   0  0  0  0  0  1  0  0  0  0  0  0
   14.8753    8.7378    8.4308 O   0  0  0  0  0  0  0  0  0  0  0  0
   15.4031    6.4632   10.0042 N   0  0  0  0  0  0  0  0  0  0  0  0
   13.8465    4.8504    9.1928 N   0  0  0  0  0  0  0  0  0  0  0  0
   13.6835    3.8517    9.2309 H   0  0  0  0  0  0  0  0  0  0  0  0
   12.8034    6.8254    8.3607 N   0  0  0  0  0  0  0  0  0  0  0  0
   16.5705    6.7147   10.5924 C   0  0  0  0  0  3  0  0  0  0  0  0
   16.8120    7.7625   10.7145 H   0  0  0  0  0  0  0  0  0  0  0  0
   17.4130    5.7250   11.0528 C   0  0  0  0  0  0  0  0  0  0  0  0
   18.3474    5.9809   11.5225 H   0  0  0  0  0  0  0  0  0  0  0  0
   17.0094    4.4019   10.9128 C   0  0  0  0  0  0  0  0  0  0  0  0
   17.6247    3.5931   11.2765 H   0  0  0  0  0  0  0  0  0  0  0  0
   15.8058    4.1378   10.3003 C   0  0  0  0  0  0  0  0  0  0  0  0
   15.4644    3.1213   10.1737 H   0  0  0  0  0  0  0  0  0  0  0  0
   15.0120    5.2028    9.8377 C   0  0  0  0  0  0  0  0  0  0  0  0
   12.8642    5.5020    8.4799 C   0  0  1  0  0  3  0  0  0  0  0  0
   11.9176    4.6799    7.8420 C   0  0  0  0  0  0  0  0  0  0  0  0
   11.9701    3.6084    7.9649 H   0  0  0  0  0  0  0  0  0  0  0  0
   10.9315    5.2495    7.0696 C   0  0  0  0  0  0  0  0  0  0  0  0
   10.1966    4.6290    6.5797 H   0  0  0  0  0  0  0  0  0  0  0  0
   10.9022    6.6329    6.9348 C   0  0  0  0  0  0  0  0  0  0  0  0
   10.1517    7.1237    6.3388 H   0  0  0  0  0  0  0  0  0  0  0  0
   11.8517    7.3725    7.6074 C   0  0  0  0  0  0  0  0  0  0  0  0
   11.8492    8.4544    7.5776 H   0  0  0  0  0  0  0  0  0  0  0  0
   15.5964    9.3340    7.4364 C   0  0  0  0  0  0  0  0  0  0  0  0
   15.6749    8.6453    6.5755 H   0  0  0  0  0  0  0  0  0  0  0  0
   16.6164    9.5292    7.8100 H   0  0  0  0  0  0  0  0  0  0  0  0
   14.9503   10.6520    7.0025 C   0  0  0  0  0  0  0  0  0  0  0  0
   15.5678   11.1403    6.2538 H   0  0  0  0  0  0  0  0  0  0  0  0
   14.8437   11.3018    7.8681 H   0  0  0  0  0  0  0  0  0  0  0  0
   13.9598   10.4670    6.5930 H   0  0  0  0  0  0  0  0  0  0  0  0
  1  6  1  0  0  0  0
  1  4  1  0  0  0  0
  1  2  1  0  0  0  0
  3  1  1  0  0  0  0
  5  1  1  0  0  0  0
  6 10  1  0  0  0  0
  7  8  1  0  0  0  0
  7 18  1  0  0  0  0
  9 19  1  0  0  0  0
  9  1  1  0  0  0  0
 10 11  1  0  0  0  0
 10 12  1  0  0  0  0
 12 13  1  0  0  0  0
 14 12  2  0  0  0  0
 14 15  1  0  0  0  0
 16 14  1  0  0  0  0
 17 16  1  0  0  0  0
 18  6  1  0  0  0  0
 18 16  2  0  0  0  0
 19 20  1  6  0  0  0
 19  7  1  0  0  0  0
 20 21  1  0  0  0  0
 22 20  2  0  0  0  0
 23 22  1  0  0  0  0
 24 22  1  0  0  0  0
 24 26  2  0  0  0  0
 25 24  1  0  0  0  0
 26  9  1  0  0  0  0
 27 26  1  0  0  0  0
 28 30  1  0  0  0  0
 28  5  1  0  0  0  0
 29 28  1  0  0  0  0
 31 28  1  0  0  0  0
 31 33  1  0  0  0  0
 32 31  1  0  0  0  0
 34 31  1  0  0  0  0
M  END
$$$$
