CSD_code = WAHJIB | q = 0 | S = 0 | Stoichiometry = C22H23HgI2N5O4 | MND = 5
 OpenBabel04212202113D

 57 57  0  0  0  0  0  0  0  0999 V2000
    1.7192    2.6751    7.1766 Hg  0  0  0  0  0  0  0  0  0  0  0  0
    4.2641    3.3838    7.1787 I   0  0  0  0  0  0  0  0  0  0  0  0
    0.1579    0.5799    7.1708 I   0  0  0  0  0  0  0  0  0  0  0  0
    4.8353    0.3628   -0.8382 O   0  0  0  0  0  0  0  0  0  0  0  0
    3.2350    1.2220    0.3067 O   0  0  0  0  0  0  0  0  0  0  0  0
    4.3438    0.7350    0.2059 N   0  0  0  0  0  0  0  0  0  0  0  0
    5.1284    0.5804    1.4011 C   0  0  0  0  0  0  0  0  0  0  0  0
    6.1844   -0.3232    1.3662 C   0  0  0  0  0  0  0  0  0  0  0  0
    6.3868   -0.8449    0.4429 H   0  0  0  0  0  0  0  0  0  0  0  0
    6.9359   -0.5492    2.5018 C   0  0  0  0  0  0  0  0  0  0  0  0
    7.7508   -1.2553    2.4778 H   0  0  0  0  0  0  0  0  0  0  0  0
    6.6308    0.1340    3.6711 C   0  0  0  0  0  0  0  0  0  0  0  0
    7.2128   -0.0368    4.5636 H   0  0  0  0  0  0  0  0  0  0  0  0
    5.5877    1.0398    3.7038 C   0  0  0  0  0  0  0  0  0  0  0  0
    5.3849    1.5932    4.6074 H   0  0  0  0  0  0  0  0  0  0  0  0
    4.8088    1.2860    2.5713 C   0  0  0  0  0  0  0  0  0  0  0  0
    3.7430    2.2750    2.6243 C   0  0  0  0  0  0  0  0  0  0  0  0
    3.6344    2.9377    1.7756 H   0  0  0  0  0  0  0  0  0  0  0  0
    2.9108    2.3994    3.6676 C   0  0  0  0  0  0  0  0  0  0  0  0
    2.9703    1.7142    4.5056 H   0  0  0  0  0  0  0  0  0  0  0  0
    1.8856    3.4016    3.7219 C   0  0  0  0  0  0  0  0  0  0  0  0
    1.7287    3.9943    2.8136 H   0  0  0  0  0  0  0  0  0  0  0  0
    1.1800    3.5949    4.7617 N   0  0  0  0  0  0  0  0  0  0  0  0
    0.1407    4.5863    4.7311 C   0  0  0  0  0  0  0  0  0  0  0  0
   -0.8181    4.0535    4.7528 H   0  0  0  0  0  0  0  0  0  0  0  0
    0.1813    5.1957    3.8168 H   0  0  0  0  0  0  0  0  0  0  0  0
    0.2295    5.4934    5.9597 C   0  0  0  0  0  0  0  0  0  0  0  0
    1.2106    5.9785    5.9808 H   0  0  0  0  0  0  0  0  0  0  0  0
   -0.5401    6.2772    5.8856 H   0  0  0  0  0  0  0  0  0  0  0  0
    0.0872    4.7050    7.1764 N   0  0  0  0  0  0  0  0  0  0  0  0
   -0.8426    4.2822    7.1759 H   0  0  0  0  0  0  0  0  0  0  0  0
    0.2296    5.4906    8.3949 C   0  0  0  0  0  0  0  0  0  0  0  0
   -0.5386    6.2757    8.4697 H   0  0  0  0  0  0  0  0  0  0  0  0
    1.2117    5.9738    8.3759 H   0  0  0  0  0  0  0  0  0  0  0  0
    0.1375    4.5811    9.6214 C   0  0  0  0  0  0  0  0  0  0  0  0
    0.1764    5.1886   10.5370 H   0  0  0  0  0  0  0  0  0  0  0  0
   -0.8215    4.0488    9.5964 H   0  0  0  0  0  0  0  0  0  0  0  0
    1.1765    3.5893    9.5912 N   0  0  0  0  0  0  0  0  0  0  0  0
    1.8814    3.3956   10.6314 C   0  0  0  0  0  0  0  0  0  0  0  0
    1.7240    3.9882   11.5396 H   0  0  0  0  0  0  0  0  0  0  0  0
    2.9071    2.3939   10.6858 C   0  0  0  0  0  0  0  0  0  0  0  0
    2.9668    1.7084    9.8481 H   0  0  0  0  0  0  0  0  0  0  0  0
    3.7399    2.2710   11.7288 C   0  0  0  0  0  0  0  0  0  0  0  0
    3.6315    2.9344   12.5769 H   0  0  0  0  0  0  0  0  0  0  0  0
    4.8069    1.2831   11.7818 C   0  0  0  0  0  0  0  0  0  0  0  0
    5.5865    1.0385   10.6495 C   0  0  0  0  0  0  0  0  0  0  0  0
    5.3836    1.5924    9.7462 H   0  0  0  0  0  0  0  0  0  0  0  0
    6.6306    0.1338   10.6822 C   0  0  0  0  0  0  0  0  0  0  0  0
    7.2134   -0.0355    9.7899 H   0  0  0  0  0  0  0  0  0  0  0  0
    6.9358   -0.5498   11.8512 C   0  0  0  0  0  0  0  0  0  0  0  0
    7.7513   -1.2553   11.8749 H   0  0  0  0  0  0  0  0  0  0  0  0
    6.1838   -0.3252   12.9867 C   0  0  0  0  0  0  0  0  0  0  0  0
    6.3862   -0.8474   13.9096 H   0  0  0  0  0  0  0  0  0  0  0  0
    5.1269    0.5774   12.9519 C   0  0  0  0  0  0  0  0  0  0  0  0
    4.3420    0.7313   14.1469 N   0  0  0  0  0  0  0  0  0  0  0  0
    4.8342    0.3603   15.1911 O   0  0  0  0  0  0  0  0  0  0  0  0
    3.2329    1.2174   14.0460 O   0  0  0  0  0  0  0  0  0  0  0  0
  1  2  1  0  0  0  0
  3  1  1  0  0  0  0
  4  6  2  0  0  0  0
  6  5  2  0  0  0  0
  6  7  1  0  0  0  0
  7 16  1  0  0  0  0
  8  7  2  0  0  0  0
  8 10  1  0  0  0  0
  9  8  1  0  0  0  0
 10 12  2  0  0  0  0
 11 10  1  0  0  0  0
 12 14  1  0  0  0  0
 12 13  1  0  0  0  0
 14 15  1  0  0  0  0
 16 17  1  0  0  0  0
 16 14  2  0  0  0  0
 17 19  2  0  0  0  0
 18 17  1  0  0  0  0
 19 21  1  0  0  0  0
 19 20  1  0  0  0  0
 21 23  2  0  0  0  0
 22 21  1  0  0  0  0
 24 25  1  0  0  0  0
 24 23  1  0  0  0  0
 24 27  1  0  0  0  0
 26 24  1  0  0  0  0
 27 28  1  0  0  0  0
 27 30  1  0  0  0  0
 29 27  1  0  0  0  0
 30 32  1  0  0  0  0
 31 30  1  0  0  0  0
 32 33  1  0  0  0  0
 32 35  1  0  0  0  0
 34 32  1  0  0  0  0
 35 36  1  0  0  0  0
 37 35  1  0  0  0  0
 38 35  1  0  0  0  0
 38 39  2  0  0  0  0
 39 41  1  0  0  0  0
 39 40  1  0  0  0  0
 41 43  2  0  0  0  0
 42 41  1  0  0  0  0
 43 45  1  0  0  0  0
 43 44  1  0  0  0  0
 45 54  1  0  0  0  0
 46 48  1  0  0  0  0
 46 45  2  0  0  0  0
 47 46  1  0  0  0  0
 48 50  2  0  0  0  0
 49 48  1  0  0  0  0
 50 51  1  0  0  0  0
 50 52  1  0  0  0  0
 52 53  1  0  0  0  0
 54 52  2  0  0  0  0
 54 55  1  0  0  0  0
 55 56  2  0  0  0  0
 57 55  2  0  0  0  0
M  END
$$$$
