CSD_code = WAHLUP | q = 0 | S = 0 | Stoichiometry = C18H15F4O2PW | MND = 6
 OpenBabel04212202113D

 41 43  0  0  0  0  0  0  0  0999 V2000
    3.1894    1.5327   16.7734 W   0  0  0  0  0  0  0  0  0  0  0  0
    0.8252    1.3940   18.5795 P   0  0  0  0  0  4  0  0  0  0  0  0
    4.3060    3.0215   17.1331 F   0  0  0  0  0  0  0  0  0  0  0  0
    3.7729    1.0881   18.5758 F   0  0  0  0  0  0  0  0  0  0  0  0
    2.5275    2.7337   15.4601 F   0  0  0  0  0  0  0  0  0  0  0  0
    1.4937    0.6569   16.2643 F   0  0  0  0  0  0  0  0  0  0  0  0
    4.1647    0.4645   15.9290 O   0  0  0  0  0  1  0  0  0  0  0  0
    1.7863    2.4222   18.0340 O   0  0  0  0  0  0  0  0  0  0  0  0
   -0.7153    1.4206   17.6174 C   0  0  0  0  0  0  0  0  0  0  0  0
   -1.7966    0.5972   17.9013 C   0  0  0  0  0  0  0  0  0  0  0  0
   -1.7300   -0.1340   18.6934 H   0  0  0  0  0  0  0  0  0  0  0  0
   -2.9529    0.7070   17.1482 C   0  0  0  0  0  0  0  0  0  0  0  0
   -3.7961    0.0674   17.3632 H   0  0  0  0  0  0  0  0  0  0  0  0
   -3.0266    1.6291   16.1164 C   0  0  0  0  0  0  0  0  0  0  0  0
   -3.9300    1.7073   15.5303 H   0  0  0  0  0  0  0  0  0  0  0  0
   -1.9403    2.4396   15.8254 C   0  0  0  0  0  0  0  0  0  0  0  0
   -1.9931    3.1442   15.0098 H   0  0  0  0  0  0  0  0  0  0  0  0
   -0.7819    2.3379   16.5743 C   0  0  0  0  0  0  0  0  0  0  0  0
    0.0889    2.9430   16.3441 H   0  0  0  0  0  0  0  0  0  0  0  0
    0.4704    1.9438   20.2755 C   0  0  0  0  0  0  0  0  0  0  0  0
   -0.7934    2.2559   20.7535 C   0  0  0  0  0  0  0  0  0  0  0  0
   -1.6575    2.1336   20.1159 H   0  0  0  0  0  0  0  0  0  0  0  0
   -0.9378    2.7292   22.0475 C   0  0  0  0  0  0  0  0  0  0  0  0
   -1.9205    2.9733   22.4227 H   0  0  0  0  0  0  0  0  0  0  0  0
    0.1746    2.8953   22.8558 C   0  0  0  0  0  0  0  0  0  0  0  0
    0.0562    3.2672   23.8625 H   0  0  0  0  0  0  0  0  0  0  0  0
    1.4397    2.5943   22.3737 C   0  0  0  0  0  0  0  0  0  0  0  0
    2.3059    2.7340   23.0024 H   0  0  0  0  0  0  0  0  0  0  0  0
    1.5895    2.1194   21.0840 C   0  0  0  0  0  0  0  0  0  0  0  0
    2.5689    1.8908   20.6824 H   0  0  0  0  0  0  0  0  0  0  0  0
    1.3820   -0.3719   18.8277 C   0  0  0  0  0  0  0  0  0  0  0  0
    0.6799   -1.0142   19.8490 C   0  0  0  0  0  0  0  0  0  0  0  0
   -0.0446   -0.4594   20.4281 H   0  0  0  0  0  0  0  0  0  0  0  0
    0.9084   -2.3445   20.1531 C   0  0  0  0  0  0  0  0  0  0  0  0
    0.3517   -2.8150   20.9491 H   0  0  0  0  0  0  0  0  0  0  0  0
    1.8534   -3.0608   19.4403 C   0  0  0  0  0  0  0  0  0  0  0  0
    2.0421   -4.0970   19.6753 H   0  0  0  0  0  0  0  0  0  0  0  0
    2.5600   -2.4359   18.4253 C   0  0  0  0  0  0  0  0  0  0  0  0
    3.3025   -2.9847   17.8673 H   0  0  0  0  0  0  0  0  0  0  0  0
    2.3304   -1.1052   18.1052 C   0  0  0  0  0  0  0  0  0  0  0  0
    2.9288   -0.6669   17.2831 H   0  0  0  0  0  0  0  0  0  0  0  0
  1  3  1  0  0  0  0
  1  8  1  0  0  0  0
  1  4  1  0  0  0  0
  2 31  1  0  0  0  0
  2 20  1  0  0  0  0
  5  1  1  0  0  0  0
  6  1  1  0  0  0  0
  7  1  1  0  0  0  0
  8  2  1  0  0  0  0
  9 10  1  0  0  0  0
  9  2  1  0  0  0  0
 10 11  1  0  0  0  0
 12 13  1  0  0  0  0
 12 10  2  0  0  0  0
 14 12  1  0  0  0  0
 15 14  1  0  0  0  0
 16 14  2  0  0  0  0
 16 18  1  0  0  0  0
 17 16  1  0  0  0  0
 18  9  2  0  0  0  0
 19 18  1  0  0  0  0
 20 21  2  0  0  0  0
 20 29  1  0  0  0  0
 21 23  1  0  0  0  0
 22 21  1  0  0  0  0
 23 24  1  0  0  0  0
 23 25  2  0  0  0  0
 25 26  1  0  0  0  0
 27 25  1  0  0  0  0
 27 28  1  0  0  0  0
 29 27  2  0  0  0  0
 30 29  1  0  0  0  0
 31 32  1  0  0  0  0
 32 34  2  0  0  0  0
 32 33  1  0  0  0  0
 34 35  1  0  0  0  0
 36 37  1  0  0  0  0
 36 34  1  0  0  0  0
 38 36  2  0  0  0  0
 39 38  1  0  0  0  0
 40 38  1  0  0  0  0
 40 31  2  0  0  0  0
 41 40  1  0  0  0  0
M  END
$$$$
