CSD_code = WAHLID | q = 0 | S = 0 | Stoichiometry = C25H22F2O4P2W | MND = 6
 OpenBabel04212202113D

 56 60  0  0  0  0  0  0  0  0999 V2000
    3.7913    6.6782    9.5863 W   0  0  0  0  0  0  0  0  0  0  0  0
    0.9756    6.3171    7.7675 P   0  0  0  0  0  4  0  0  0  0  0  0
    2.4391    3.7822    8.5056 P   0  0  0  0  0  4  0  0  0  0  0  0
    3.7241    6.0854    7.6764 F   0  0  0  0  0  0  0  0  0  0  0  0
    2.8838    6.6469   11.2843 F   0  0  0  0  0  0  0  0  0  0  0  0
    5.3105    6.0129    9.9546 O   0  0  0  0  0  1  0  0  0  0  0  0
    3.9663    8.3399    9.2792 O   0  0  0  0  0  1  0  0  0  0  0  0
    1.5880    6.7685    9.0483 O   0  0  0  0  0  0  0  0  0  0  0  0
    2.8306    4.6220    9.6722 O   0  0  0  0  0  0  0  0  0  0  0  0
   -0.7536    5.8601    8.1059 C   0  0  0  0  0  0  0  0  0  0  0  0
   -1.2048    6.0652    9.4037 C   0  0  0  0  0  0  0  0  0  0  0  0
   -0.5455    6.5485   10.1105 H   0  0  0  0  0  0  0  0  0  0  0  0
   -2.4675    5.6409    9.7767 C   0  0  0  0  0  0  0  0  0  0  0  0
   -2.8116    5.7964   10.7880 H   0  0  0  0  0  0  0  0  0  0  0  0
   -3.2859    5.0125    8.8529 C   0  0  0  0  0  0  0  0  0  0  0  0
   -4.2703    4.6763    9.1417 H   0  0  0  0  0  0  0  0  0  0  0  0
   -2.8422    4.8125    7.5555 C   0  0  0  0  0  0  0  0  0  0  0  0
   -3.4814    4.3239    6.8351 H   0  0  0  0  0  0  0  0  0  0  0  0
   -1.5779    5.2305    7.1814 C   0  0  0  0  0  0  0  0  0  0  0  0
   -1.2374    5.0606    6.1697 H   0  0  0  0  0  0  0  0  0  0  0  0
    1.2066    7.5756    6.4815 C   0  0  0  0  0  0  0  0  0  0  0  0
    2.2291    8.4964    6.6948 C   0  0  0  0  0  0  0  0  0  0  0  0
    2.8409    8.4431    7.6023 H   0  0  0  0  0  0  0  0  0  0  0  0
    2.4660    9.4744    5.7428 C   0  0  0  0  0  0  0  0  0  0  0  0
    3.2603   10.1866    5.9027 H   0  0  0  0  0  0  0  0  0  0  0  0
    1.6895    9.5384    4.5966 C   0  0  0  0  0  0  0  0  0  0  0  0
    1.8757   10.3043    3.8585 H   0  0  0  0  0  0  0  0  0  0  0  0
    0.6688    8.6223    4.3934 C   0  0  0  0  0  0  0  0  0  0  0  0
    0.0615    8.6761    3.5021 H   0  0  0  0  0  0  0  0  0  0  0  0
    0.4265    7.6366    5.3330 C   0  0  0  0  0  0  0  0  0  0  0  0
   -0.3720    6.9265    5.1789 H   0  0  0  0  0  0  0  0  0  0  0  0
    1.6399    4.7081    7.0973 C   0  0  0  0  0  0  0  0  0  0  0  0
    0.8177    4.1166    6.6981 H   0  0  0  0  0  0  0  0  0  0  0  0
    2.3637    4.8948    6.3027 H   0  0  0  0  0  0  0  0  0  0  0  0
    3.7972    1.7850    7.0430 C   0  0  0  0  0  0  0  0  0  0  0  0
    2.8326    1.3588    6.8123 H   0  0  0  0  0  0  0  0  0  0  0  0
    4.9504    1.1911    6.5628 C   0  0  0  0  0  0  0  0  0  0  0  0
    4.8835    0.3034    5.9514 H   0  0  0  0  0  0  0  0  0  0  0  0
    6.1889    1.7346    6.8676 C   0  0  0  0  0  0  0  0  0  0  0  0
    7.0859    1.2680    6.4880 H   0  0  0  0  0  0  0  0  0  0  0  0
    6.2774    2.8691    7.6588 C   0  0  0  0  0  0  0  0  0  0  0  0
    7.2405    3.2922    7.8981 H   0  0  0  0  0  0  0  0  0  0  0  0
    5.1304    3.4701    8.1508 C   0  0  0  0  0  0  0  0  0  0  0  0
    5.1961    4.3661    8.7780 H   0  0  0  0  0  0  0  0  0  0  0  0
    3.8894    2.9233    7.8352 C   0  0  0  0  0  0  0  0  0  0  0  0
    1.0705    2.7013    9.0275 C   0  0  0  0  0  0  0  0  0  0  0  0
    0.3375    1.9103    8.1514 C   0  0  0  0  0  0  0  0  0  0  0  0
    0.6159    1.8434    7.1091 H   0  0  0  0  0  0  0  0  0  0  0  0
   -0.7600    1.2053    8.6113 C   0  0  0  0  0  0  0  0  0  0  0  0
   -1.3280    0.5905    7.9288 H   0  0  0  0  0  0  0  0  0  0  0  0
   -1.1356    1.2924    9.9423 C   0  0  0  0  0  0  0  0  0  0  0  0
   -1.9980    0.7464   10.2939 H   0  0  0  0  0  0  0  0  0  0  0  0
   -0.4065    2.0789   10.8186 C   0  0  0  0  0  0  0  0  0  0  0  0
   -0.6986    2.1483   11.8555 H   0  0  0  0  0  0  0  0  0  0  0  0
    0.6951    2.7806   10.3626 C   0  0  0  0  0  0  0  0  0  0  0  0
    1.2728    3.4083   11.0260 H   0  0  0  0  0  0  0  0  0  0  0  0
  1  9  1  0  0  0  0
  1  6  1  0  0  0  0
  1  5  1  0  0  0  0
  2 10  1  0  0  0  0
  2  8  1  0  0  0  0
  3 46  1  0  0  0  0
  3  9  1  0  0  0  0
  4  1  1  0  0  0  0
  7  1  1  0  0  0  0
  8  1  1  0  0  0  0
 10 11  1  0  0  0  0
 11 13  2  0  0  0  0
 11 12  1  0  0  0  0
 13 14  1  0  0  0  0
 15 16  1  0  0  0  0
 15 13  1  0  0  0  0
 17 15  2  0  0  0  0
 18 17  1  0  0  0  0
 19 17  1  0  0  0  0
 19 10  2  0  0  0  0
 20 19  1  0  0  0  0
 21 22  1  0  0  0  0
 21  2  1  0  0  0  0
 22 23  1  0  0  0  0
 24 25  1  0  0  0  0
 24 22  2  0  0  0  0
 26 24  1  0  0  0  0
 27 26  1  0  0  0  0
 28 26  2  0  0  0  0
 28 30  1  0  0  0  0
 29 28  1  0  0  0  0
 30 21  2  0  0  0  0
 31 30  1  0  0  0  0
 32  2  1  0  0  0  0
 32  3  1  0  0  0  0
 33 32  1  0  0  0  0
 34 32  1  0  0  0  0
 35 45  1  0  0  0  0
 36 35  1  0  0  0  0
 37 39  1  0  0  0  0
 37 35  2  0  0  0  0
 38 37  1  0  0  0  0
 39 41  2  0  0  0  0
 40 39  1  0  0  0  0
 41 42  1  0  0  0  0
 41 43  1  0  0  0  0
 43 44  1  0  0  0  0
 45 43  2  0  0  0  0
 45  3  1  0  0  0  0
 46 55  1  0  0  0  0
 47 49  1  0  0  0  0
 47 46  2  0  0  0  0
 48 47  1  0  0  0  0
 49 51  2  0  0  0  0
 50 49  1  0  0  0  0
 51 52  1  0  0  0  0
 51 53  1  0  0  0  0
 53 54  1  0  0  0  0
 55 53  2  0  0  0  0
 55 56  1  0  0  0  0
M  END
$$$$
