CSD_code = WAHLOJ | q = 0 | S = 0 | Stoichiometry = C10H10F2N2O4W | MND = 6
 OpenBabel04212202113D

 29 30  0  0  0  0  0  0  0  0999 V2000
    2.8025    0.8849    2.9268 W   0  0  0  0  0  0  0  0  0  0  0  0
    1.7350    2.4815    2.3331 F   0  0  0  0  0  0  0  0  0  0  0  0
    2.6339   -0.8643    3.6644 F   0  0  0  0  0  0  0  0  0  0  0  0
    1.0535    1.1082    4.3758 O   0  0  0  0  0  0  0  0  0  0  0  0
    0.8906    0.1087    1.9497 O   0  0  0  0  0  0  0  0  0  0  0  0
    3.6261    0.6470    1.4555 O   0  0  0  0  0  1  0  0  0  0  0  0
    3.7930    1.7201    4.0314 O   0  0  0  0  0  1  0  0  0  0  0  0
    0.7284    2.2432    4.9028 N   0  0  0  0  0  0  0  0  0  0  0  0
    0.4621    0.5766    0.8227 N   0  0  0  0  0  0  0  0  0  0  0  0
   -0.5533    2.4457    5.2625 C   0  0  0  0  0  3  0  0  0  0  0  0
   -1.2254    1.6222    5.0730 H   0  0  0  0  0  0  0  0  0  0  0  0
   -0.9578    3.6319    5.8312 C   0  0  0  0  0  0  0  0  0  0  0  0
   -1.9928    3.7596    6.1062 H   0  0  0  0  0  0  0  0  0  0  0  0
   -0.0308    4.6424    6.0411 C   0  0  0  0  0  0  0  0  0  0  0  0
   -0.3275    5.5804    6.4815 H   0  0  0  0  0  0  0  0  0  0  0  0
    1.2860    4.4098    5.6712 C   0  0  0  0  0  0  0  0  0  0  0  0
    2.0439    5.1623    5.8175 H   0  0  0  0  0  0  0  0  0  0  0  0
    1.6469    3.2044    5.1087 C   0  0  0  0  0  0  0  0  0  0  0  0
    2.6662    2.9369    4.7840 H   0  0  0  0  0  0  0  0  0  0  0  0
   -0.8638    0.5938    0.5900 C   0  0  0  0  0  3  0  0  0  0  0  0
   -1.4820    0.2126    1.3890 H   0  0  0  0  0  0  0  0  0  0  0  0
   -1.3756    1.0723   -0.5946 C   0  0  0  0  0  0  0  0  0  0  0  0
   -2.4433    1.0726   -0.7467 H   0  0  0  0  0  0  0  0  0  0  0  0
   -0.5131    1.5464   -1.5723 C   0  0  0  0  0  0  0  0  0  0  0  0
   -0.8935    1.9277   -2.5059 H   0  0  0  0  0  0  0  0  0  0  0  0
    0.8498    1.5152   -1.3138 C   0  0  0  0  0  0  0  0  0  0  0  0
    1.5604    1.8715   -2.0420 H   0  0  0  0  0  0  0  0  0  0  0  0
    1.3177    1.0240   -0.1142 C   0  0  0  0  0  0  0  0  0  0  0  0
    2.3795    0.9749    0.1800 H   0  0  0  0  0  0  0  0  0  0  0  0
  1  3  1  0  0  0  0
  1  7  1  0  0  0  0
  1  4  1  0  0  0  0
  2  1  1  0  0  0  0
  4  8  1  0  0  0  0
  5  1  1  0  0  0  0
  6  1  1  0  0  0  0
  8 18  1  0  0  0  0
  8 10  1  0  0  0  0
  9  5  1  0  0  0  0
 10 12  1  0  0  0  0
 11 10  1  0  0  0  0
 12 14  2  0  0  0  0
 12 13  1  0  0  0  0
 14 15  1  0  0  0  0
 16 17  1  0  0  0  0
 16 14  1  0  0  0  0
 18 16  2  0  0  0  0
 19 18  1  0  0  0  0
 20  9  1  0  0  0  0
 20 21  1  0  0  0  0
 22 20  1  0  0  0  0
 23 22  1  0  0  0  0
 24 26  1  0  0  0  0
 24 22  2  0  0  0  0
 25 24  1  0  0  0  0
 26 28  2  0  0  0  0
 27 26  1  0  0  0  0
 28 29  1  0  0  0  0
 28  9  1  0  0  0  0
M  END
$$$$
