CSD_code = WAJGIZ | q = 0 | S = 0 | Stoichiometry = C30H30Cl2O2P2Pd | MND = 4
 OpenBabel04212202113D

 67 71  0  0  1  0  0  0  0  0999 V2000
    2.7797    6.8467    0.1525 Pd  0  0  0  0  0  0  0  0  0  0  0  0
    0.8515    8.9579   -1.0725 C   0  0  0  0  0  0  0  0  0  0  0  0
    1.8341    8.7602   -2.0478 C   0  0  0  0  0  0  0  0  0  0  0  0
    2.8240    8.3766   -1.7614 H   0  0  0  0  0  0  0  0  0  0  0  0
    1.5765    9.0614   -3.3731 C   0  0  0  0  0  0  0  0  0  0  0  0
    2.3398    8.9001   -4.1192 H   0  0  0  0  0  0  0  0  0  0  0  0
    0.3376    9.5617   -3.7421 C   0  0  0  0  0  0  0  0  0  0  0  0
    0.1318    9.7884   -4.7775 H   0  0  0  0  0  0  0  0  0  0  0  0
   -0.6353    9.7759   -2.7802 C   0  0  0  0  0  0  0  0  0  0  0  0
   -1.5986   10.1744   -3.0638 H   0  0  0  0  0  0  0  0  0  0  0  0
   -0.3816    9.4814   -1.4509 C   0  0  0  0  0  0  0  0  0  0  0  0
   -1.1536    9.6616   -0.7158 H   0  0  0  0  0  0  0  0  0  0  0  0
    1.7913   10.0748    1.3860 C   0  0  0  0  0  0  0  0  0  0  0  0
    1.3783   11.3034    0.8821 C   0  0  0  0  0  0  0  0  0  0  0  0
    0.7422   11.3495    0.0098 H   0  0  0  0  0  0  0  0  0  0  0  0
    1.7962   12.4710    1.4962 C   0  0  0  0  0  0  0  0  0  0  0  0
    1.4770   13.4255    1.1037 H   0  0  0  0  0  0  0  0  0  0  0  0
    2.6293   12.4197    2.6017 C   0  0  0  0  0  0  0  0  0  0  0  0
    2.9610   13.3356    3.0681 H   0  0  0  0  0  0  0  0  0  0  0  0
    3.0486   11.1965    3.1009 C   0  0  0  0  0  0  0  0  0  0  0  0
    3.7097   11.1566    3.9534 H   0  0  0  0  0  0  0  0  0  0  0  0
    2.6325   10.0258    2.4964 C   0  0  0  0  0  0  0  0  0  0  0  0
    2.9778    9.0653    2.8552 H   0  0  0  0  0  0  0  0  0  0  0  0
   -0.2709    8.0196    1.4818 C   0  0  2  0  0  0  0  0  0  0  0  0
   -1.0925    8.5908    1.0355 H   0  0  0  0  0  0  0  0  0  0  0  0
   -0.2077    8.3805    2.9680 C   0  0  0  0  0  0  0  0  0  0  0  0
    0.0985    9.4237    3.0936 H   0  0  0  0  0  0  0  0  0  0  0  0
    0.5078    7.7543    3.5041 H   0  0  0  0  0  0  0  0  0  0  0  0
   -1.5705    8.2493    3.6160 C   0  0  0  0  0  0  0  0  0  0  0  0
   -2.6579    7.8358    5.6616 C   0  0  0  0  0  0  0  0  0  0  0  0
   -2.4008    8.0427    6.6975 H   0  0  0  0  0  0  0  0  0  0  0  0
   -3.0535    6.8226    5.5672 H   0  0  0  0  0  0  0  0  0  0  0  0
   -3.4020    8.5459    5.2965 H   0  0  0  0  0  0  0  0  0  0  0  0
   -0.5655    6.5208    1.3388 C   0  0  0  0  0  0  0  0  0  0  0  0
    0.1806    5.9606    1.9202 H   0  0  0  0  0  0  0  0  0  0  0  0
   -1.5435    6.3295    1.7879 H   0  0  0  0  0  0  0  0  0  0  0  0
   -0.5593    6.0067   -0.1030 C   0  0  0  0  0  0  0  0  0  0  0  0
   -0.9026    6.7846   -0.7872 H   0  0  0  0  0  0  0  0  0  0  0  0
   -1.2244    5.1442   -0.2067 H   0  0  0  0  0  0  0  0  0  0  0  0
    1.2847    3.9678    0.4855 C   0  0  0  0  0  0  0  0  0  0  0  0
    2.1034    4.0141    1.6124 C   0  0  0  0  0  0  0  0  0  0  0  0
    2.6980    4.9163    1.8178 H   0  0  0  0  0  0  0  0  0  0  0  0
    2.1911    2.9157    2.4485 C   0  0  0  0  0  0  0  0  0  0  0  0
    2.8320    2.9478    3.3170 H   0  0  0  0  0  0  0  0  0  0  0  0
    1.4631    1.7711    2.1650 C   0  0  0  0  0  0  0  0  0  0  0  0
    1.5384    0.9105    2.8130 H   0  0  0  0  0  0  0  0  0  0  0  0
    0.6427    1.7246    1.0490 C   0  0  0  0  0  0  0  0  0  0  0  0
    0.0780    0.8300    0.8305 H   0  0  0  0  0  0  0  0  0  0  0  0
    0.5470    2.8209    0.2112 C   0  0  0  0  0  0  0  0  0  0  0  0
   -0.0889    2.7879   -0.6637 H   0  0  0  0  0  0  0  0  0  0  0  0
    1.0368    4.9203   -2.2554 C   0  0  0  0  0  0  0  0  0  0  0  0
    1.7276    3.7883   -2.6805 C   0  0  0  0  0  0  0  0  0  0  0  0
    2.2961    3.2121   -1.9652 H   0  0  0  0  0  0  0  0  0  0  0  0
    1.7031    3.4261   -4.0144 C   0  0  0  0  0  0  0  0  0  0  0  0
    2.2401    2.5478   -4.3404 H   0  0  0  0  0  0  0  0  0  0  0  0
    1.0041    4.1926   -4.9331 C   0  0  0  0  0  0  0  0  0  0  0  0
    0.9922    3.9100   -5.9753 H   0  0  0  0  0  0  0  0  0  0  0  0
    0.3316    5.3299   -4.5167 C   0  0  0  0  0  0  0  0  0  0  0  0
   -0.2027    5.9374   -5.2327 H   0  0  0  0  0  0  0  0  0  0  0  0
    0.3497    5.6981   -3.1841 C   0  0  0  0  0  0  0  0  0  0  0  0
   -0.1609    6.5980   -2.8706 H   0  0  0  0  0  0  0  0  0  0  0  0
    4.0386    5.2236   -0.8321 Cl  0  0  0  0  0  0  0  0  0  0  0  0
    4.5863    8.0191    0.8670 Cl  0  0  0  0  0  0  0  0  0  0  0  0
   -2.6202    8.4122    3.0509 O   0  0  0  0  0  0  0  0  0  0  0  0
   -1.4545    7.9545    4.9113 O   0  0  0  0  0  0  0  0  0  0  0  0
    1.1619    5.4643   -0.5347 P   0  0  0  0  0  4  0  0  0  0  0  0
    1.3293    8.4871    0.6310 P   0  0  0  0  0  4  0  0  0  0  0  0
  1 67  1  0  0  0  0
  1 63  1  0  0  0  0
  2 67  1  0  0  0  0
  3  4  1  0  0  0  0
  3  2  2  0  0  0  0
  5  3  1  0  0  0  0
  6  5  1  0  0  0  0
  7  5  2  0  0  0  0
  7  9  1  0  0  0  0
  8  7  1  0  0  0  0
  9 11  2  0  0  0  0
 10  9  1  0  0  0  0
 11  2  1  0  0  0  0
 11 12  1  0  0  0  0
 13 22  1  0  0  0  0
 14 13  2  0  0  0  0
 14 16  1  0  0  0  0
 15 14  1  0  0  0  0
 16 18  2  0  0  0  0
 17 16  1  0  0  0  0
 18 19  1  0  0  0  0
 18 20  1  0  0  0  0
 20 21  1  0  0  0  0
 22 23  1  0  0  0  0
 22 20  2  0  0  0  0
 24 25  1  6  0  0  0
 24 26  1  0  0  0  0
 26 27  1  0  0  0  0
 26 28  1  0  0  0  0
 26 29  1  0  0  0  0
 29 65  1  0  0  0  0
 30 31  1  0  0  0  0
 32 30  1  0  0  0  0
 33 30  1  0  0  0  0
 34 24  1  0  0  0  0
 34 36  1  0  0  0  0
 34 35  1  0  0  0  0
 37 34  1  0  0  0  0
 38 37  1  0  0  0  0
 39 37  1  0  0  0  0
 40 41  1  0  0  0  0
 41 42  1  0  0  0  0
 41 43  2  0  0  0  0
 43 44  1  0  0  0  0
 45 43  1  0  0  0  0
 45 46  1  0  0  0  0
 47 45  2  0  0  0  0
 48 47  1  0  0  0  0
 49 40  2  0  0  0  0
 49 47  1  0  0  0  0
 50 49  1  0  0  0  0
 51 66  1  0  0  0  0
 52 51  1  0  0  0  0
 52 53  1  0  0  0  0
 54 52  2  0  0  0  0
 55 54  1  0  0  0  0
 56 58  2  0  0  0  0
 56 54  1  0  0  0  0
 57 56  1  0  0  0  0
 58 60  1  0  0  0  0
 59 58  1  0  0  0  0
 60 61  1  0  0  0  0
 60 51  2  0  0  0  0
 62  1  1  0  0  0  0
 64 29  2  0  0  0  0
 65 30  1  0  0  0  0
 66 37  1  0  0  0  0
 66  1  1  0  0  0  0
 66 40  1  0  0  0  0
 67 13  1  0  0  0  0
 67 24  1  0  0  0  0
M  END
$$$$
