CSD_code = WAJGUL | q = -1 | S = 0 | Stoichiometry = C20H12ClFeN2O4(1-) | MND = 5
 OpenBabel04212202113D

 40 45  0  0  1  0  0  0  0  0999 V2000
    5.7368    4.7805    8.4347 Fe  0  0  0  0  0  0  0  0  0  0  0  0
    6.4011    2.7562    8.1852 Cl  0  0  0  0  0  0  0  0  0  0  0  0
    4.9332    4.9794    6.6856 N   0  0  0  0  0  0  0  0  0  0  0  0
    6.4683    4.8965   10.1464 N   0  0  0  0  0  0  0  0  0  0  0  0
    4.5158    6.2427    8.8803 O   0  0  0  0  0  0  0  0  0  0  0  0
    7.3950    5.7785    7.9571 O   0  0  0  0  0  0  0  0  0  0  0  0
    2.4834    6.9515    8.2709 O   0  0  0  0  0  0  0  0  0  0  0  0
    9.2020    6.7082    8.8888 O   0  0  0  0  0  0  0  0  0  0  0  0
    3.7867    5.6592    6.7492 C   0  0  0  0  0  0  0  0  0  0  0  0
    2.9106    5.8019    5.6684 C   0  0  0  0  0  0  0  0  0  0  0  0
    1.9972    6.3519    5.8368 H   0  0  0  0  0  0  0  0  0  0  0  0
    3.2313    5.2303    4.4675 C   0  0  0  0  0  0  0  0  0  0  0  0
    2.5617    5.2752    3.6193 H   0  0  0  0  0  0  0  0  0  0  0  0
    4.4898    4.6037    4.3295 C   0  0  0  0  0  0  0  0  0  0  0  0
    4.9373    4.0764    3.1036 C   0  0  0  0  0  3  0  0  0  0  0  0
    4.2759    4.1283    2.2491 H   0  0  0  0  0  0  0  0  0  0  0  0
    6.1879    3.5304    2.9911 C   0  0  0  0  0  0  0  0  0  0  0  0
    6.5227    3.1295    2.0441 H   0  0  0  0  0  0  0  0  0  0  0  0
    7.0468    3.5132    4.0959 C   0  0  0  0  0  0  0  0  0  0  0  0
    8.0447    3.1151    3.9870 H   0  0  0  0  0  0  0  0  0  0  0  0
    6.6384    4.0031    5.3094 C   0  0  0  0  0  0  0  0  0  0  0  0
    7.3009    4.0214    6.1568 H   0  0  0  0  0  0  0  0  0  0  0  0
    5.3440    4.5292    5.4668 C   0  0  0  0  0  0  0  0  0  0  0  0
    3.5341    6.3522    8.0744 C   0  0  0  0  0  0  0  0  0  0  0  0
    7.5886    5.6106   10.2644 C   0  0  0  0  0  0  0  0  0  0  0  0
    8.1800    5.9022   11.4964 C   0  0  0  0  0  0  0  0  0  0  0  0
    9.0906    6.4814   11.4862 H   0  0  0  0  0  0  0  0  0  0  0  0
    7.5936    5.4584   12.6528 C   0  0  0  0  0  0  0  0  0  0  0  0
    8.0204    5.6689   13.6235 H   0  0  0  0  0  0  0  0  0  0  0  0
    6.3962    4.7144   12.5660 C   0  0  0  0  0  0  0  0  0  0  0  0
    5.7087    4.2287   13.6948 C   0  0  0  0  0  0  0  0  0  0  0  0
    6.1175    4.4333   14.6751 H   0  0  0  0  0  0  0  0  0  0  0  0
    4.5466    3.5167   13.5579 C   0  0  0  0  0  0  0  0  0  0  0  0
    4.0266    3.1515   14.4326 H   0  0  0  0  0  0  0  0  0  0  0  0
    4.0228    3.2562   12.2861 C   0  0  0  0  0  0  0  0  0  0  0  0
    3.1049    2.6943   12.1928 H   0  0  0  0  0  0  0  0  0  0  0  0
    4.6694    3.7111   11.1661 C   0  0  0  0  0  0  0  0  0  0  0  0
    4.2762    3.5135   10.1736 H   0  0  0  0  0  0  0  0  0  0  0  0
    5.8606    4.4484   11.2770 C   0  0  1  0  0  3  0  0  0  0  0  0
    8.1444    6.0927    8.9398 C   0  0  0  0  0  0  0  0  0  0  0  0
  1  5  1  0  0  0  0
  1  4  1  0  0  0  0
  2  1  1  0  0  0  0
  3  9  1  0  0  0  0
  3  1  1  0  0  0  0
  4 25  1  0  0  0  0
  4 39  1  0  0  0  0
  6  1  1  0  0  0  0
  6 40  1  0  0  0  0
  8 40  2  0  0  0  0
  9 24  1  0  0  0  0
 10 11  1  0  0  0  0
 10  9  2  0  0  0  0
 12 10  1  0  0  0  0
 13 12  1  0  0  0  0
 14 12  2  0  0  0  0
 14 23  1  0  0  0  0
 15 14  1  0  0  0  0
 16 15  1  0  0  0  0
 17 15  1  0  0  0  0
 17 19  2  0  0  0  0
 18 17  1  0  0  0  0
 19 21  1  0  0  0  0
 20 19  1  0  0  0  0
 21 23  2  0  0  0  0
 21 22  1  0  0  0  0
 23  3  1  0  0  0  0
 24  7  2  0  0  0  0
 24  5  1  0  0  0  0
 25 26  2  0  0  0  0
 26 28  1  0  0  0  0
 27 26  1  0  0  0  0
 28 29  1  0  0  0  0
 30 28  2  0  0  0  0
 30 31  1  0  0  0  0
 31 32  1  0  0  0  0
 33 31  2  0  0  0  0
 33 34  1  0  0  0  0
 35 33  1  0  0  0  0
 36 35  1  0  0  0  0
 37 35  2  0  0  0  0
 38 37  1  0  0  0  0
 39 37  1  1  0  0  0
 39 30  1  0  0  0  0
 40 25  1  0  0  0  0
M  END
$$$$
