CSD_code = WAJVIO | q = 0 | S = 0 | Stoichiometry = C21H21AsAuCl | MND = 2
 OpenBabel04212202113D

 45 46  0  0  0  0  0  0  0  0999 V2000
    2.4642    0.4936    2.8536 C   0  0  0  0  0  0  0  0  0  0  0  0
    1.1263    0.0811    2.8408 C   0  0  0  0  0  0  0  0  0  0  0  0
    0.5125   -0.2395    4.0441 C   0  0  0  0  0  0  0  0  0  0  0  0
   -0.5206   -0.5571    4.0426 H   0  0  0  0  0  0  0  0  0  0  0  0
    1.2040   -0.1619    5.2412 C   0  0  0  0  0  0  0  0  0  0  0  0
    0.7082   -0.4160    6.1661 H   0  0  0  0  0  0  0  0  0  0  0  0
    2.5283    0.2397    5.2515 C   0  0  0  0  0  0  0  0  0  0  0  0
    3.0729    0.3021    6.1821 H   0  0  0  0  0  0  0  0  0  0  0  0
    3.1537    0.5623    4.0598 C   0  0  0  0  0  0  0  0  0  0  0  0
    4.1943    0.8762    4.0622 H   0  0  0  0  0  0  0  0  0  0  0  0
    0.3803   -0.0183    1.5447 C   0  0  0  0  0  0  0  0  0  0  0  0
   -0.6853   -0.1503    1.7163 H   0  0  0  0  0  0  0  0  0  0  0  0
    0.7468   -0.8731    0.9646 H   0  0  0  0  0  0  0  0  0  0  0  0
    0.5324    0.8830    0.9401 H   0  0  0  0  0  0  0  0  0  0  0  0
    5.1810    1.2189    1.7376 C   0  0  0  0  0  0  0  0  0  0  0  0
    6.0261    0.1356    2.0060 C   0  0  0  0  0  0  0  0  0  0  0  0
    7.3427    0.3867    2.3682 C   0  0  0  0  0  0  0  0  0  0  0  0
    8.0011   -0.4444    2.5777 H   0  0  0  0  0  0  0  0  0  0  0  0
    7.8226    1.6821    2.4619 C   0  0  0  0  0  0  0  0  0  0  0  0
    8.8497    1.8558    2.7460 H   0  0  0  0  0  0  0  0  0  0  0  0
    6.9870    2.7518    2.1920 C   0  0  0  0  0  0  0  0  0  0  0  0
    7.3553    3.7645    2.2649 H   0  0  0  0  0  0  0  0  0  0  0  0
    5.6726    2.5171    1.8279 C   0  0  0  0  0  0  0  0  0  0  0  0
    5.0126    3.3533    1.6123 H   0  0  0  0  0  0  0  0  0  0  0  0
    5.5112   -1.2675    1.8951 C   0  0  0  0  0  0  0  0  0  0  0  0
    5.3560   -1.5296    0.8423 H   0  0  0  0  0  0  0  0  0  0  0  0
    4.5477   -1.3674    2.4078 H   0  0  0  0  0  0  0  0  0  0  0  0
    6.2135   -1.9768    2.3265 H   0  0  0  0  0  0  0  0  0  0  0  0
    2.7093    2.6617    0.7497 C   0  0  0  0  0  0  0  0  0  0  0  0
    3.0624    3.2436   -0.4739 C   0  0  0  0  0  0  0  0  0  0  0  0
    2.5570    4.4974   -0.7900 C   0  0  0  0  0  0  0  0  0  0  0  0
    2.8259    4.9538   -1.7321 H   0  0  0  0  0  0  0  0  0  0  0  0
    1.7133    5.1672    0.0799 C   0  0  0  0  0  0  0  0  0  0  0  0
    1.3307    6.1413   -0.1856 H   0  0  0  0  0  0  0  0  0  0  0  0
    1.3609    4.5884    1.2866 C   0  0  0  0  0  0  0  0  0  0  0  0
    0.7035    5.1063    1.9693 H   0  0  0  0  0  0  0  0  0  0  0  0
    1.8565    3.3388    1.6155 C   0  0  0  0  0  0  0  0  0  0  0  0
    1.5816    2.8785    2.5610 H   0  0  0  0  0  0  0  0  0  0  0  0
    3.9644    2.5146   -1.4231 C   0  0  0  0  0  0  0  0  0  0  0  0
    4.8412    2.1193   -0.8977 H   0  0  0  0  0  0  0  0  0  0  0  0
    4.3007    3.1696   -2.2235 H   0  0  0  0  0  0  0  0  0  0  0  0
    3.4338    1.6655   -1.8693 H   0  0  0  0  0  0  0  0  0  0  0  0
    3.3578    0.8997    1.1926 As  0  0  0  0  0  0  0  0  0  0  0  0
    3.0864   -0.6944   -0.4940 Au  0  0  0  0  0  0  0  0  0  0  0  0
    2.8221   -2.2507   -2.1478 Cl  0  0  0  0  0  0  0  0  0  0  0  0
  1  9  1  0  0  0  0
  2  1  2  0  0  0  0
  2  3  1  0  0  0  0
  3  5  2  0  0  0  0
  4  3  1  0  0  0  0
  5  7  1  0  0  0  0
  5  6  1  0  0  0  0
  7  8  1  0  0  0  0
  9 10  1  0  0  0  0
  9  7  2  0  0  0  0
 11 12  1  0  0  0  0
 11  2  1  0  0  0  0
 13 11  1  0  0  0  0
 14 11  1  0  0  0  0
 15 23  2  0  0  0  0
 15 16  1  0  0  0  0
 16 17  2  0  0  0  0
 17 19  1  0  0  0  0
 17 18  1  0  0  0  0
 19 20  1  0  0  0  0
 21 22  1  0  0  0  0
 21 19  2  0  0  0  0
 23 21  1  0  0  0  0
 24 23  1  0  0  0  0
 25 16  1  0  0  0  0
 25 28  1  0  0  0  0
 25 27  1  0  0  0  0
 26 25  1  0  0  0  0
 29 43  1  0  0  0  0
 29 37  1  0  0  0  0
 30 29  2  0  0  0  0
 31 30  1  0  0  0  0
 31 33  2  0  0  0  0
 32 31  1  0  0  0  0
 33 35  1  0  0  0  0
 34 33  1  0  0  0  0
 35 37  2  0  0  0  0
 35 36  1  0  0  0  0
 37 38  1  0  0  0  0
 39 40  1  0  0  0  0
 39 30  1  0  0  0  0
 41 39  1  0  0  0  0
 42 39  1  0  0  0  0
 43 15  1  0  0  0  0
 43  1  1  0  0  0  0
 45 44  1  0  0  0  0
M  END
$$$$
