CSD_code = WAJYAK | q = 0 | S = 0 | Stoichiometry = C6H17Cl2N3O3Pt | MND = 6
 OpenBabel04212202113D

 32 31  0  0  0  0  0  0  0  0999 V2000
    3.9830    2.4369    4.5214 Pt  0  0  0  0  0  0  0  0  0  0  0  0
    3.9775    3.0786    2.3292 Cl  0  0  0  0  0  0  0  0  0  0  0  0
    2.9078    0.4728    4.0709 Cl  0  0  0  0  0  0  0  0  0  0  0  0
    2.7050    4.3835    6.6388 O   0  0  0  0  0  0  0  0  0  0  0  0
    5.8031    1.4575    4.1643 O   0  0  0  0  0  0  0  0  0  0  0  0
    6.7161    2.3268    5.9793 O   0  0  0  0  0  0  0  0  0  0  0  0
    4.0285    1.9020    6.5983 N   0  0  0  0  0  4  0  0  0  0  0  0
    3.6031    1.0024    6.8051 H   0  0  0  0  0  0  0  0  0  0  0  0
    3.5485    2.6609    7.0925 H   0  0  0  0  0  0  0  0  0  0  0  0
    5.0239    1.9059    6.8471 H   0  0  0  0  0  0  0  0  0  0  0  0
    4.9808    4.2770    5.0151 N   0  0  0  0  0  4  0  0  0  0  0  0
    5.8625    4.0052    5.4611 H   0  0  0  0  0  0  0  0  0  0  0  0
    4.3727    4.7292    5.7070 H   0  0  0  0  0  0  0  0  0  0  0  0
    5.1453    4.8858    4.2180 H   0  0  0  0  0  0  0  0  0  0  0  0
    2.1765    3.3255    4.7436 N   0  0  0  0  0  0  0  0  0  0  0  0
    1.4559    3.1413    4.0569 H   0  0  0  0  0  0  0  0  0  0  0  0
    1.8769    4.1170    5.7544 C   0  0  0  0  0  0  0  0  0  0  0  0
    0.4752    4.6880    5.7838 C   0  0  0  0  0  0  0  0  0  0  0  0
   -0.2503    3.8802    5.8406 H   0  0  0  0  0  0  0  0  0  0  0  0
    0.2893    5.2604    4.8782 H   0  0  0  0  0  0  0  0  0  0  0  0
    0.3688    5.3333    6.6508 H   0  0  0  0  0  0  0  0  0  0  0  0
    6.7822    1.6519    4.9432 C   0  0  0  0  0  0  0  0  0  0  0  0
    8.0973    1.0336    4.5007 C   0  0  0  0  0  0  0  0  0  0  0  0
    7.8938    0.1554    3.8890 H   0  0  0  0  0  0  0  0  0  0  0  0
    8.6595    0.7515    5.3917 H   0  0  0  0  0  0  0  0  0  0  0  0
    8.8865    2.0693    3.6890 C   0  0  0  0  0  0  0  0  0  0  0  0
    9.9001    1.6911    3.5375 H   0  0  0  0  0  0  0  0  0  0  0  0
    8.9599    2.9920    4.2705 H   0  0  0  0  0  0  0  0  0  0  0  0
    8.2434    2.3508    2.3365 C   0  0  0  0  0  0  0  0  0  0  0  0
    8.7786    3.1438    1.8189 H   0  0  0  0  0  0  0  0  0  0  0  0
    7.2044    2.6518    2.4515 H   0  0  0  0  0  0  0  0  0  0  0  0
    8.2646    1.4586    1.7149 H   0  0  0  0  0  0  0  0  0  0  0  0
  1 15  1  0  0  0  0
  1 11  1  0  0  0  0
  1  7  1  0  0  0  0
  2  1  1  0  0  0  0
  3  1  1  0  0  0  0
  5  1  1  0  0  0  0
  5 22  1  0  0  0  0
  7  8  1  0  0  0  0
  7 10  1  0  0  0  0
  7  9  1  0  0  0  0
 11 12  1  0  0  0  0
 11 13  1  0  0  0  0
 14 11  1  0  0  0  0
 15 17  1  0  0  0  0
 16 15  1  0  0  0  0
 17 18  1  0  0  0  0
 17  4  2  0  0  0  0
 18 19  1  0  0  0  0
 18 21  1  0  0  0  0
 20 18  1  0  0  0  0
 22  6  2  0  0  0  0
 23 22  1  0  0  0  0
 23 25  1  0  0  0  0
 24 23  1  0  0  0  0
 26 28  1  0  0  0  0
 26 23  1  0  0  0  0
 27 26  1  0  0  0  0
 29 31  1  0  0  0  0
 29 26  1  0  0  0  0
 30 29  1  0  0  0  0
 32 29  1  0  0  0  0
M  END
$$$$
