CSD_code = WAKFUL | q = 0 | S = 0 | Stoichiometry = C32H18Cl6F6N2O2Ti | MND = 6
 OpenBabel04212202113D

 67 72  0  0  1  0  0  0  0  0999 V2000
    0.0001    6.8670   22.5112 Ti  0  0  0  0  0  0  0  0  0  0  0  0
    0.4408    8.2999   23.4406 O   0  0  0  0  0  0  0  0  0  0  0  0
    0.5908    7.9706   20.8573 N   0  0  0  0  0  0  0  0  0  0  0  0
    2.0932    6.0060   22.8007 Cl  0  0  0  0  0  0  0  0  0  0  0  0
   -1.0680   11.9812   23.6595 Cl  0  0  0  0  0  0  0  0  0  0  0  0
    2.7926    8.5176   25.0383 Cl  0  0  0  0  0  0  0  0  0  0  0  0
    1.8011   11.0946   19.6847 F   0  0  0  0  0  0  0  0  0  0  0  0
    1.8397    9.2103   18.6746 F   0  0  0  0  0  0  0  0  0  0  0  0
   -0.0097   10.2986   18.8626 F   0  0  0  0  0  0  0  0  0  0  0  0
   -0.6281    7.4016   18.8281 C   0  0  0  0  0  0  0  0  0  0  0  0
   -1.3484    8.1784   19.0470 H   0  0  0  0  0  0  0  0  0  0  0  0
   -0.7957    6.5735   17.7321 C   0  0  0  0  0  0  0  0  0  0  0  0
   -1.6381    6.7310   17.0760 H   0  0  0  0  0  0  0  0  0  0  0  0
    0.0994    5.5475   17.4846 C   0  0  0  0  0  0  0  0  0  0  0  0
   -0.0392    4.9019   16.6310 H   0  0  0  0  0  0  0  0  0  0  0  0
    1.1731    5.3468   18.3382 C   0  0  0  0  0  0  0  0  0  0  0  0
    1.8726    4.5466   18.1489 H   0  0  0  0  0  0  0  0  0  0  0  0
    1.3576    6.1658   19.4357 C   0  0  0  0  0  0  0  0  0  0  0  0
    2.1972    6.0205   20.1048 H   0  0  0  0  0  0  0  0  0  0  0  0
    0.4538    7.2014   19.6831 C   0  0  0  0  0  0  0  0  0  0  0  0
    0.8221    9.2518   20.8421 C   0  0  1  0  0  3  0  0  0  0  0  0
    0.8791   10.0673   21.9879 C   0  0  0  0  0  0  0  0  0  0  0  0
    1.1159   11.1129   21.8830 H   0  0  0  0  0  0  0  0  0  0  0  0
    0.7055    9.5292   23.2551 C   0  0  0  0  0  0  0  0  0  0  0  0
    0.9144   10.3538   24.4745 C   0  0  0  0  0  0  0  0  0  0  0  0
    0.1601   11.4894   24.7605 C   0  0  0  0  0  0  0  0  0  0  0  0
    0.3605   12.1937   25.9378 C   0  0  0  0  0  0  0  0  0  0  0  0
   -0.2369   13.0668   26.1437 H   0  0  0  0  0  0  0  0  0  0  0  0
    1.3228   11.7618   26.8345 C   0  0  0  0  0  0  0  0  0  0  0  0
    1.4810   12.3116   27.7492 H   0  0  0  0  0  0  0  0  0  0  0  0
    2.0802   10.6322   26.5753 C   0  0  0  0  0  0  0  0  0  0  0  0
    2.8290   10.2929   27.2714 H   0  0  0  0  0  0  0  0  0  0  0  0
    1.8682    9.9257   25.4025 C   0  0  0  0  0  0  0  0  0  0  0  0
    1.1124    9.9587   19.5137 C   0  0  0  0  0  0  0  0  0  0  0  0
   -0.4407    5.4341   21.5818 O   0  0  0  0  0  0  0  0  0  0  0  0
   -0.5907    5.7634   24.1651 N   0  0  0  0  0  0  0  0  0  0  0  0
   -2.0931    7.7280   22.2217 Cl  0  0  0  0  0  0  0  0  0  0  0  0
    1.0679    1.7527   21.3628 Cl  0  0  0  0  0  0  0  0  0  0  0  0
   -2.7926    5.2165   19.9842 Cl  0  0  0  0  0  0  0  0  0  0  0  0
   -1.8012    2.6394   25.3377 F   0  0  0  0  0  0  0  0  0  0  0  0
   -1.8397    4.5237   26.3478 F   0  0  0  0  0  0  0  0  0  0  0  0
    0.0097    3.4353   26.1598 F   0  0  0  0  0  0  0  0  0  0  0  0
    0.6283    6.3323   26.1943 C   0  0  0  0  0  0  0  0  0  0  0  0
    1.3485    5.5554   25.9754 H   0  0  0  0  0  0  0  0  0  0  0  0
    0.7959    7.1604   27.2904 C   0  0  0  0  0  0  0  0  0  0  0  0
    1.6382    7.0029   27.9464 H   0  0  0  0  0  0  0  0  0  0  0  0
   -0.0993    8.1864   27.5378 C   0  0  0  0  0  0  0  0  0  0  0  0
    0.0394    8.8320   28.3914 H   0  0  0  0  0  0  0  0  0  0  0  0
   -1.1730    8.3872   26.6842 C   0  0  0  0  0  0  0  0  0  0  0  0
   -1.8724    9.1874   26.8736 H   0  0  0  0  0  0  0  0  0  0  0  0
   -1.3575    7.5682   25.5867 C   0  0  0  0  0  0  0  0  0  0  0  0
   -2.1970    7.7136   24.9176 H   0  0  0  0  0  0  0  0  0  0  0  0
   -0.4537    6.5326   25.3394 C   0  0  0  0  0  0  0  0  0  0  0  0
   -0.8221    4.4822   24.1803 C   0  0  2  0  0  3  0  0  0  0  0  0
   -0.8791    3.6667   23.0344 C   0  0  0  0  0  0  0  0  0  0  0  0
   -1.1160    2.6211   23.1394 H   0  0  0  0  0  0  0  0  0  0  0  0
   -0.7055    4.2048   21.7673 C   0  0  0  0  0  0  0  0  0  0  0  0
   -0.9145    3.3802   20.5478 C   0  0  0  0  0  0  0  0  0  0  0  0
   -0.1602    2.2446   20.2619 C   0  0  0  0  0  0  0  0  0  0  0  0
   -0.3607    1.5404   19.0845 C   0  0  0  0  0  0  0  0  0  0  0  0
    0.2367    0.6672   18.8786 H   0  0  0  0  0  0  0  0  0  0  0  0
   -1.3230    1.9723   18.1879 C   0  0  0  0  0  0  0  0  0  0  0  0
   -1.4812    1.4225   17.2732 H   0  0  0  0  0  0  0  0  0  0  0  0
   -2.0803    3.1020   18.4471 C   0  0  0  0  0  0  0  0  0  0  0  0
   -2.8291    3.4413   17.7510 H   0  0  0  0  0  0  0  0  0  0  0  0
   -1.8683    3.8084   19.6199 C   0  0  0  0  0  0  0  0  0  0  0  0
   -1.1125    3.7753   25.5087 C   0  0  0  0  0  0  0  0  0  0  0  0
  1  4  1  0  0  0  0
  1  2  1  0  0  0  0
  1 36  1  0  0  0  0
  3  1  1  0  0  0  0
  5 26  1  0  0  0  0
  6 33  1  0  0  0  0
  8 34  1  0  0  0  0
  9 34  1  0  0  0  0
 10 11  1  0  0  0  0
 10 20  1  0  0  0  0
 12 10  2  0  0  0  0
 13 12  1  0  0  0  0
 14 12  1  0  0  0  0
 14 16  2  0  0  0  0
 15 14  1  0  0  0  0
 16 18  1  0  0  0  0
 17 16  1  0  0  0  0
 18 20  2  0  0  0  0
 18 19  1  0  0  0  0
 20  3  1  0  0  0  0
 21 34  1  1  0  0  0
 21  3  1  0  0  0  0
 21 22  1  0  0  0  0
 22 24  2  0  0  0  0
 23 22  1  0  0  0  0
 24  2  1  0  0  0  0
 24 25  1  0  0  0  0
 25 26  2  0  0  0  0
 25 33  1  0  0  0  0
 26 27  1  0  0  0  0
 27 28  1  0  0  0  0
 27 29  2  0  0  0  0
 29 30  1  0  0  0  0
 31 29  1  0  0  0  0
 31 32  1  0  0  0  0
 33 31  2  0  0  0  0
 34  7  1  0  0  0  0
 35 57  1  0  0  0  0
 35  1  1  0  0  0  0
 36 54  1  0  0  0  0
 36 53  1  0  0  0  0
 37  1  1  0  0  0  0
 40 67  1  0  0  0  0
 43 45  1  0  0  0  0
 44 43  1  0  0  0  0
 45 47  2  0  0  0  0
 45 46  1  0  0  0  0
 47 48  1  0  0  0  0
 49 50  1  0  0  0  0
 49 47  1  0  0  0  0
 51 49  2  0  0  0  0
 52 51  1  0  0  0  0
 53 51  1  0  0  0  0
 53 43  2  0  0  0  0
 54 67  1  6  0  0  0
 55 56  1  0  0  0  0
 55 54  1  0  0  0  0
 57 55  2  0  0  0  0
 58 57  1  0  0  0  0
 59 58  1  0  0  0  0
 59 38  1  0  0  0  0
 60 59  2  0  0  0  0
 61 60  1  0  0  0  0
 62 64  2  0  0  0  0
 62 60  1  0  0  0  0
 63 62  1  0  0  0  0
 64 66  1  0  0  0  0
 65 64  1  0  0  0  0
 66 39  1  0  0  0  0
 66 58  2  0  0  0  0
 67 42  1  0  0  0  0
 67 41  1  0  0  0  0
M  END
$$$$
