CSD_code = WAKGOG | q = 0 | S = 0 | Stoichiometry = C32H18Cl2F10N2O2Ti | MND = 6
 OpenBabel04212202113D

 67 72  0  0  1  0  0  0  0  0999 V2000
   -2.2678    0.8150    4.1785 Ti  0  0  0  0  0  0  0  0  0  0  0  0
   -3.1030   -0.8304    5.3871 N   0  0  0  0  0  0  0  0  0  0  0  0
   -0.9402    0.5556    5.2952 O   0  0  0  0  0  0  0  0  0  0  0  0
   -3.2745    2.2297    5.5254 Cl  0  0  0  0  0  0  0  0  0  0  0  0
   -2.9913   -2.5142    8.5355 F   0  0  0  0  0  0  0  0  0  0  0  0
   -4.7346   -2.0500    7.3807 F   0  0  0  0  0  0  0  0  0  0  0  0
   -3.3257   -3.5149    6.6677 F   0  0  0  0  0  0  0  0  0  0  0  0
    0.0053    2.7263    5.8721 F   0  0  0  0  0  0  0  0  0  0  0  0
    1.1877   -1.1299    8.3224 F   0  0  0  0  0  0  0  0  0  0  0  0
   -4.3166   -2.4533    4.0345 C   0  0  0  0  0  0  0  0  0  0  0  0
   -3.4385   -3.0814    3.9816 H   0  0  0  0  0  0  0  0  0  0  0  0
   -5.4575   -2.7917    3.3276 C   0  0  0  0  0  0  0  0  0  0  0  0
   -5.4618   -3.6891    2.7282 H   0  0  0  0  0  0  0  0  0  0  0  0
   -6.5793   -1.9836    3.3806 C   0  0  0  0  0  0  0  0  0  0  0  0
   -7.4622   -2.2480    2.8191 H   0  0  0  0  0  0  0  0  0  0  0  0
   -6.5645   -0.8341    4.1562 C   0  0  0  0  0  0  0  0  0  0  0  0
   -7.4396   -0.2033    4.2060 H   0  0  0  0  0  0  0  0  0  0  0  0
   -5.4320   -0.4803    4.8637 C   0  0  0  0  0  0  0  0  0  0  0  0
   -5.3995    0.4251    5.4569 H   0  0  0  0  0  0  0  0  0  0  0  0
   -4.2948   -1.2895    4.7987 C   0  0  0  0  0  0  0  0  0  0  0  0
   -2.6477   -1.2468    6.5260 C   0  0  2  0  0  3  0  0  0  0  0  0
   -1.4637   -0.7767    7.1303 C   0  0  0  0  0  0  0  0  0  0  0  0
   -1.2015   -1.1257    8.1134 H   0  0  0  0  0  0  0  0  0  0  0  0
   -0.6698    0.1488    6.4720 C   0  0  0  0  0  0  0  0  0  0  0  0
    0.5243    0.7692    7.0853 C   0  0  0  0  0  0  0  0  0  0  0  0
    0.8295    2.0859    6.7170 C   0  0  0  0  0  0  0  0  0  0  0  0
    1.9312    2.7550    7.2143 C   0  0  0  0  0  0  0  0  0  0  0  0
    2.1148    3.7719    6.9073 H   0  0  0  0  0  0  0  0  0  0  0  0
    2.7774    2.0971    8.0916 C   0  0  0  0  0  0  0  0  0  0  0  0
    3.6447    2.6054    8.4817 H   0  0  0  0  0  0  0  0  0  0  0  0
    2.5212    0.7894    8.4686 C   0  0  0  0  0  0  0  0  0  0  0  0
    3.1747    0.2600    9.1431 H   0  0  0  0  0  0  0  0  0  0  0  0
    1.4048    0.1464    7.9669 C   0  0  0  0  0  0  0  0  0  0  0  0
   -3.4272   -2.3239    7.2860 C   0  0  0  0  0  0  0  0  0  0  0  0
   -1.4326   -0.8304    2.9698 N   0  0  0  0  0  0  0  0  0  0  0  0
   -3.5954    0.5556    3.0618 O   0  0  0  0  0  0  0  0  0  0  0  0
   -1.2610    2.2297    2.8316 Cl  0  0  0  0  0  0  0  0  0  0  0  0
   -1.5443   -2.5141   -0.1786 F   0  0  0  0  0  0  0  0  0  0  0  0
    0.1990   -2.0500    0.9762 F   0  0  0  0  0  0  0  0  0  0  0  0
   -1.2099   -3.5149    1.6892 F   0  0  0  0  0  0  0  0  0  0  0  0
   -4.5408    2.7263    2.4848 F   0  0  0  0  0  0  0  0  0  0  0  0
   -5.7233   -1.1299    0.0345 F   0  0  0  0  0  0  0  0  0  0  0  0
   -0.2190   -2.4533    4.3224 C   0  0  0  0  0  0  0  0  0  0  0  0
   -1.0970   -3.0814    4.3754 H   0  0  0  0  0  0  0  0  0  0  0  0
    0.9220   -2.7917    5.0294 C   0  0  0  0  0  0  0  0  0  0  0  0
    0.9263   -3.6891    5.6287 H   0  0  0  0  0  0  0  0  0  0  0  0
    2.0437   -1.9836    4.9763 C   0  0  0  0  0  0  0  0  0  0  0  0
    2.9267   -2.2480    5.5378 H   0  0  0  0  0  0  0  0  0  0  0  0
    2.0290   -0.8341    4.2007 C   0  0  0  0  0  0  0  0  0  0  0  0
    2.9041   -0.2033    4.1509 H   0  0  0  0  0  0  0  0  0  0  0  0
    0.8964   -0.4803    3.4932 C   0  0  0  0  0  0  0  0  0  0  0  0
    0.8639    0.4251    2.9000 H   0  0  0  0  0  0  0  0  0  0  0  0
   -0.2408   -1.2895    3.5582 C   0  0  0  0  0  0  0  0  0  0  0  0
   -1.8879   -1.2468    1.8309 C   0  0  2  0  0  3  0  0  0  0  0  0
   -3.0718   -0.7767    1.2266 C   0  0  0  0  0  0  0  0  0  0  0  0
   -3.3341   -1.1257    0.2436 H   0  0  0  0  0  0  0  0  0  0  0  0
   -3.8657    0.1488    1.8849 C   0  0  0  0  0  0  0  0  0  0  0  0
   -5.0598    0.7692    1.2716 C   0  0  0  0  0  0  0  0  0  0  0  0
   -5.3650    2.0859    1.6400 C   0  0  0  0  0  0  0  0  0  0  0  0
   -6.4668    2.7550    1.1427 C   0  0  0  0  0  0  0  0  0  0  0  0
   -6.6504    3.7719    1.4496 H   0  0  0  0  0  0  0  0  0  0  0  0
   -7.3130    2.0971    0.2654 C   0  0  0  0  0  0  0  0  0  0  0  0
   -8.1803    2.6054   -0.1248 H   0  0  0  0  0  0  0  0  0  0  0  0
   -7.0567    0.7894   -0.1117 C   0  0  0  0  0  0  0  0  0  0  0  0
   -7.7103    0.2600   -0.7861 H   0  0  0  0  0  0  0  0  0  0  0  0
   -5.9404    0.1464    0.3900 C   0  0  0  0  0  0  0  0  0  0  0  0
   -1.1084   -2.3239    1.0710 C   0  0  0  0  0  0  0  0  0  0  0  0
  1  3  1  0  0  0  0
  1  2  1  0  0  0  0
  1  4  1  0  0  0  0
  2 21  1  0  0  0  0
  3 24  1  0  0  0  0
  7 34  1  0  0  0  0
  8 26  1  0  0  0  0
 10 20  1  0  0  0  0
 11 10  1  0  0  0  0
 12 14  1  0  0  0  0
 12 10  2  0  0  0  0
 13 12  1  0  0  0  0
 14 16  2  0  0  0  0
 15 14  1  0  0  0  0
 16 17  1  0  0  0  0
 16 18  1  0  0  0  0
 18 19  1  0  0  0  0
 20 18  2  0  0  0  0
 20  2  1  0  0  0  0
 21 22  1  0  0  0  0
 21 34  1  6  0  0  0
 22 23  1  0  0  0  0
 24 25  1  0  0  0  0
 24 22  2  0  0  0  0
 25 33  1  0  0  0  0
 26 25  2  0  0  0  0
 26 27  1  0  0  0  0
 27 29  2  0  0  0  0
 28 27  1  0  0  0  0
 29 31  1  0  0  0  0
 29 30  1  0  0  0  0
 31 32  1  0  0  0  0
 33  9  1  0  0  0  0
 33 31  2  0  0  0  0
 34  6  1  0  0  0  0
 34  5  1  0  0  0  0
 35 53  1  0  0  0  0
 35  1  1  0  0  0  0
 36  1  1  0  0  0  0
 37  1  1  0  0  0  0
 38 67  1  0  0  0  0
 39 67  1  0  0  0  0
 42 66  1  0  0  0  0
 43 44  1  0  0  0  0
 43 45  1  0  0  0  0
 45 46  1  0  0  0  0
 47 45  2  0  0  0  0
 47 48  1  0  0  0  0
 49 47  1  0  0  0  0
 50 49  1  0  0  0  0
 51 53  1  0  0  0  0
 51 49  2  0  0  0  0
 52 51  1  0  0  0  0
 53 43  2  0  0  0  0
 54 67  1  1  0  0  0
 54 35  1  0  0  0  0
 55 54  1  0  0  0  0
 55 57  2  0  0  0  0
 56 55  1  0  0  0  0
 57 36  1  0  0  0  0
 58 59  1  0  0  0  0
 58 57  1  0  0  0  0
 59 41  1  0  0  0  0
 60 61  1  0  0  0  0
 60 59  2  0  0  0  0
 62 60  1  0  0  0  0
 63 62  1  0  0  0  0
 64 62  2  0  0  0  0
 64 66  1  0  0  0  0
 65 64  1  0  0  0  0
 66 58  2  0  0  0  0
 67 40  1  0  0  0  0
M  END
$$$$
