CSD_code = WAKLAY | q = 0 | S = 0 | Stoichiometry = C12H12CdI2N6O | MND = 5
 OpenBabel04212202113D

 34 36  0  0  1  0  0  0  0  0999 V2000
   -1.0479    1.6137    2.9980 Cd  0  0  0  0  0  0  0  0  0  0  0  0
   -3.1085   -0.7672    1.3224 C   0  0  0  0  0  3  0  0  0  0  0  0
   -3.4878    0.0968    0.7901 H   0  0  0  0  0  0  0  0  0  0  0  0
    0.3657   -3.0987    4.5043 N   0  0  0  0  0  0  0  0  0  0  0  0
    0.6893   -3.1019    3.5382 H   0  0  0  0  0  0  0  0  0  0  0  0
    1.1396   -3.3163    5.1479 H   0  0  0  0  0  0  0  0  0  0  0  0
   -3.3966   -2.0575    0.8984 C   0  0  0  0  0  0  0  0  0  0  0  0
   -4.0011   -2.2189    0.0205 H   0  0  0  0  0  0  0  0  0  0  0  0
   -2.8889   -3.1214    1.6261 C   0  0  0  0  0  0  0  0  0  0  0  0
   -3.0914   -4.1394    1.3290 H   0  0  0  0  0  0  0  0  0  0  0  0
   -2.1169   -2.8638    2.7471 C   0  0  0  0  0  0  0  0  0  0  0  0
   -1.7202   -3.6636    3.3517 H   0  0  0  0  0  0  0  0  0  0  0  0
   -1.8769   -1.5355    3.0902 C   0  0  0  0  0  0  0  0  0  0  0  0
   -1.0945   -1.1501    4.2521 C   0  0  2  0  0  3  0  0  0  0  0  0
    0.3579   -1.0387    5.8470 C   0  0  0  0  0  0  0  0  0  0  0  0
    1.4683   -1.3457    6.7244 C   0  0  0  0  0  0  0  0  0  0  0  0
    1.9188   -0.4017    7.6480 C   0  0  0  0  0  0  0  0  0  0  0  0
    1.4249    0.5531    7.7144 H   0  0  0  0  0  0  0  0  0  0  0  0
    2.9974   -0.7305    8.4477 C   0  0  0  0  0  0  0  0  0  0  0  0
    3.3741   -0.0255    9.1733 H   0  0  0  0  0  0  0  0  0  0  0  0
    3.5899   -1.9773    8.3016 C   0  0  0  0  0  0  0  0  0  0  0  0
    4.4337   -2.2690    8.9058 H   0  0  0  0  0  0  0  0  0  0  0  0
    3.0709   -2.8450    7.3537 C   0  0  0  0  0  0  0  0  0  0  0  0
    3.4940   -3.8278    7.1950 H   0  0  0  0  0  0  0  0  0  0  0  0
   -3.0833    3.2959    2.5930 I   0  0  0  0  0  0  0  0  0  0  0  0
    1.2286    0.4273    2.1294 I   0  0  0  0  0  0  0  0  0  0  0  0
   -2.3653   -0.5096    2.3841 N   0  0  0  0  0  0  0  0  0  0  0  0
   -1.2280    0.0160    4.8627 N   0  0  0  0  0  0  0  0  0  0  0  0
   -0.3413    0.0795    5.8514 N   0  0  0  0  0  0  0  0  0  0  0  0
   -0.0967   -1.8501    4.8479 N   0  0  0  0  0  0  0  0  0  0  0  0
    2.0387   -2.5445    6.5876 N   0  0  0  0  0  0  0  0  0  0  0  0
   -0.3323    2.8799    5.1234 O   0  0  0  0  0  0  0  0  0  0  0  0
   -0.2983    2.1805    5.7926 H   0  0  0  0  0  0  0  0  0  0  0  0
   -1.0076    3.5054    5.4105 H   0  0  0  0  0  0  0  0  0  0  0  0
  1 28  1  0  0  0  0
  2 27  1  0  0  0  0
  3  2  1  0  0  0  0
  4 30  1  0  0  0  0
  4  6  1  0  0  0  0
  5  4  1  0  0  0  0
  7  2  1  0  0  0  0
  7  9  2  0  0  0  0
  8  7  1  0  0  0  0
  9 11  1  0  0  0  0
 10  9  1  0  0  0  0
 11 13  2  0  0  0  0
 11 12  1  0  0  0  0
 14 13  1  6  0  0  0
 14 30  1  0  0  0  0
 14 28  1  0  0  0  0
 15 29  2  0  0  0  0
 15 16  1  0  0  0  0
 16 17  1  0  0  0  0
 17 18  1  0  0  0  0
 17 19  2  0  0  0  0
 19 20  1  0  0  0  0
 21 19  1  0  0  0  0
 21 22  1  0  0  0  0
 23 21  2  0  0  0  0
 24 23  1  0  0  0  0
 25  1  1  0  0  0  0
 26  1  1  0  0  0  0
 27  1  1  0  0  0  0
 27 13  1  0  0  0  0
 28 29  1  0  0  0  0
 30 15  1  0  0  0  0
 31 16  2  0  0  0  0
 31 23  1  0  0  0  0
 32 34  1  0  0  0  0
 32 33  1  0  0  0  0
M  END
$$$$
