CSD_code = WAKRUX | q = 1 | S = 0 | Stoichiometry = C25H19ClN5Ru(1+) | MND = 6
 OpenBabel04212202113D

 51 58  0  0  1  0  0  0  0  0999 V2000
    0.7400    0.4881   13.8434 Ru  0  0  0  0  0  0  0  0  0  0  0  0
    0.7690   -0.0145   16.1365 Cl  0  0  0  0  0  0  0  0  0  0  0  0
    2.2809   -0.7062   13.3767 N   0  0  0  0  0  0  0  0  0  0  0  0
    0.8609    0.8089   11.8724 N   0  0  0  0  0  0  0  0  0  0  0  0
   -0.7510   -0.8560   13.6417 N   0  0  0  0  0  0  0  0  0  0  0  0
   -0.7093    1.6047   14.3018 N   0  0  0  0  0  0  0  0  0  0  0  0
    1.7757    2.1656   14.2717 N   0  0  0  0  0  0  0  0  0  0  0  0
    2.9547   -1.4666   14.2417 C   0  0  0  0  0  3  0  0  0  0  0  0
    4.0041   -2.2830   13.8624 C   0  0  0  0  0  0  0  0  0  0  0  0
    4.3804   -2.3208   12.5250 C   0  0  0  0  0  0  0  0  0  0  0  0
    3.6892   -1.5353   11.6210 C   0  0  0  0  0  0  0  0  0  0  0  0
    2.6410   -0.7328   12.0705 C   0  0  0  0  0  0  0  0  0  0  0  0
    1.8378    0.1374   11.2166 C   0  0  2  0  0  3  0  0  0  0  0  0
    2.0264    0.2938    9.8436 C   0  0  0  0  0  0  0  0  0  0  0  0
    1.2038    1.1459    9.1324 C   0  0  0  0  0  0  0  0  0  0  0  0
    0.2019    1.8261    9.8159 C   0  0  0  0  0  0  0  0  0  0  0  0
    0.0699    1.6276   11.1754 C   0  0  0  0  0  0  0  0  0  0  0  0
   -0.6753   -2.1437   13.3166 C   0  0  0  0  0  3  0  0  0  0  0  0
   -1.7717   -2.9860   13.3075 C   0  0  0  0  0  0  0  0  0  0  0  0
   -3.0146   -2.4700   13.6500 C   0  0  0  0  0  0  0  0  0  0  0  0
   -3.1055   -1.1334   13.9896 C   0  0  0  0  0  0  0  0  0  0  0  0
   -1.9586   -0.3416   13.9857 C   0  0  0  0  0  0  0  0  0  0  0  0
   -1.9389    1.0681   14.3771 C   0  0  1  0  0  3  0  0  0  0  0  0
   -3.0081    1.8267   14.8457 C   0  0  0  0  0  0  0  0  0  0  0  0
   -2.7731    3.1310   15.2568 C   0  0  0  0  0  0  0  0  0  0  0  0
   -1.4844    3.6449   15.2325 C   0  0  0  0  0  0  0  0  0  0  0  0
   -0.4519    2.8444   14.7519 C   0  0  0  0  0  0  0  0  0  0  0  0
    0.9751    3.1661   14.7180 C   0  0  1  0  0  3  0  0  0  0  0  0
    1.5072    4.3851   15.1346 C   0  0  0  0  0  0  0  0  0  0  0  0
    2.8752    4.5798   15.1047 C   0  0  0  0  0  0  0  0  0  0  0  0
    3.6842    3.5456   14.6522 C   0  0  0  0  0  0  0  0  0  0  0  0
    3.0910    2.3637   14.2480 C   0  0  0  0  0  0  0  0  0  0  0  0
    2.6267   -1.4086   15.2730 H   0  0  0  0  0  0  0  0  0  0  0  0
    4.5152   -2.8781   14.6011 H   0  0  0  0  0  0  0  0  0  0  0  0
    5.1937   -2.9475   12.1959 H   0  0  0  0  0  0  0  0  0  0  0  0
    3.9599   -1.5444   10.5782 H   0  0  0  0  0  0  0  0  0  0  0  0
    2.8112   -0.2457    9.3400 H   0  0  0  0  0  0  0  0  0  0  0  0
    1.3371    1.2801    8.0710 H   0  0  0  0  0  0  0  0  0  0  0  0
   -0.4641    2.4995    9.3020 H   0  0  0  0  0  0  0  0  0  0  0  0
   -0.7010    2.1452   11.7343 H   0  0  0  0  0  0  0  0  0  0  0  0
    0.3092   -2.5193   13.0612 H   0  0  0  0  0  0  0  0  0  0  0  0
   -1.6518   -4.0246   13.0462 H   0  0  0  0  0  0  0  0  0  0  0  0
   -3.8904   -3.0990   13.6581 H   0  0  0  0  0  0  0  0  0  0  0  0
   -4.0544   -0.7049   14.2671 H   0  0  0  0  0  0  0  0  0  0  0  0
   -3.9983    1.4077   14.9092 H   0  0  0  0  0  0  0  0  0  0  0  0
   -3.5872    3.7351   15.6237 H   0  0  0  0  0  0  0  0  0  0  0  0
   -1.2896    4.6392   15.5979 H   0  0  0  0  0  0  0  0  0  0  0  0
    0.8531    5.1653   15.4874 H   0  0  0  0  0  0  0  0  0  0  0  0
    3.3039    5.5136   15.4317 H   0  0  0  0  0  0  0  0  0  0  0  0
    4.7562    3.6496   14.6203 H   0  0  0  0  0  0  0  0  0  0  0  0
    3.6968    1.5357   13.8977 H   0  0  0  0  0  0  0  0  0  0  0  0
  1  7  1  0  0  0  0
  1  6  1  0  0  0  0
  1  2  1  0  0  0  0
  3  1  1  0  0  0  0
  3  8  1  0  0  0  0
  4  1  1  0  0  0  0
  5  1  1  0  0  0  0
  5 22  1  0  0  0  0
  6 23  1  0  0  0  0
  6 27  1  0  0  0  0
  7 28  1  0  0  0  0
  8 33  1  0  0  0  0
  9  8  1  0  0  0  0
  9 34  1  0  0  0  0
 10  9  2  0  0  0  0
 11 12  2  0  0  0  0
 11 10  1  0  0  0  0
 12  3  1  0  0  0  0
 13 14  1  1  0  0  0
 13  4  1  0  0  0  0
 13 12  1  0  0  0  0
 15 16  1  0  0  0  0
 15 14  2  0  0  0  0
 16 17  2  0  0  0  0
 17 40  1  0  0  0  0
 17  4  1  0  0  0  0
 18  5  1  0  0  0  0
 19 18  1  0  0  0  0
 19 20  2  0  0  0  0
 20 43  1  0  0  0  0
 20 21  1  0  0  0  0
 21 44  1  0  0  0  0
 22 21  2  0  0  0  0
 23 22  1  1  0  0  0
 23 24  1  0  0  0  0
 24 45  1  0  0  0  0
 24 25  2  0  0  0  0
 25 46  1  0  0  0  0
 26 25  1  0  0  0  0
 26 47  1  0  0  0  0
 27 26  2  0  0  0  0
 28 27  1  1  0  0  0
 28 29  1  0  0  0  0
 29 48  1  0  0  0  0
 30 29  2  0  0  0  0
 30 49  1  0  0  0  0
 31 30  1  0  0  0  0
 32  7  1  0  0  0  0
 32 31  2  0  0  0  0
 35 10  1  0  0  0  0
 36 11  1  0  0  0  0
 37 14  1  0  0  0  0
 38 15  1  0  0  0  0
 39 16  1  0  0  0  0
 41 18  1  0  0  0  0
 42 19  1  0  0  0  0
 50 31  1  0  0  0  0
 51 32  1  0  0  0  0
M  END
$$$$
