CSD_code = WALCUI | q = 0 | S = 0 | Stoichiometry = C25H26Cl2N2OZn | MND = 4
 OpenBabel04212202113D

 57 60  0  0  1  0  0  0  0  0999 V2000
    4.5949    9.9304   15.7443 Zn  0  0  0  0  0  0  0  0  0  0  0  0
    3.9850   10.8393   17.4241 O   0  0  0  0  0  0  0  0  0  0  0  0
    6.7498    9.9155   16.3641 Cl  0  0  0  0  0  0  0  0  0  0  0  0
    4.7227    9.7273   19.6418 N   0  0  0  0  0  4  0  0  0  0  0  0
    4.2571   11.7399   14.7733 N   0  0  0  0  0  0  0  0  0  0  0  0
    3.3908    8.0942   15.6236 Cl  0  0  0  0  0  0  0  0  0  0  0  0
    4.7203   11.8310   17.7109 C   0  0  0  0  0  0  0  0  0  0  0  0
    4.9935   12.8865   16.7757 C   0  0  0  0  0  0  0  0  0  0  0  0
    5.6621   14.0238   17.1998 C   0  0  0  0  0  0  0  0  0  0  0  0
    5.8359   14.8187   16.4863 H   0  0  0  0  0  0  0  0  0  0  0  0
    6.1583   14.1760   18.4977 C   0  0  0  0  0  0  0  0  0  0  0  0
    6.0040   13.1295   19.3760 C   0  0  0  0  0  0  0  0  0  0  0  0
    6.4296   13.1913   20.3681 H   0  0  0  0  0  0  0  0  0  0  0  0
    5.3150   11.9564   19.0198 C   0  0  0  0  0  0  0  0  0  0  0  0
    6.8813   15.4318   18.8784 C   0  0  0  0  0  0  0  0  0  0  0  0
    7.1299   15.4312   19.9361 H   0  0  0  0  0  0  0  0  0  0  0  0
    6.2675   16.3050   18.6635 H   0  0  0  0  0  0  0  0  0  0  0  0
    7.8040   15.5231   18.3067 H   0  0  0  0  0  0  0  0  0  0  0  0
    4.6245   12.7939   15.3885 C   0  0  0  0  0  3  0  0  0  0  0  0
    4.7099   13.7331   14.8269 H   0  0  0  0  0  0  0  0  0  0  0  0
    5.3243   10.8496   19.8921 C   0  0  0  0  0  0  0  0  0  0  0  0
    5.8936   10.9248   20.8150 H   0  0  0  0  0  0  0  0  0  0  0  0
    3.8974   11.8320   13.3764 C   0  0  1  0  0  0  0  0  0  0  0  0
    4.3520   12.7353   12.9367 H   0  0  0  0  0  0  0  0  0  0  0  0
    4.3988   10.6013   12.6238 C   0  0  0  0  0  0  0  0  0  0  0  0
    5.4783   10.5075   12.7310 H   0  0  0  0  0  0  0  0  0  0  0  0
    4.1551   10.6923   11.5677 H   0  0  0  0  0  0  0  0  0  0  0  0
    3.9219    9.7027   13.0109 H   0  0  0  0  0  0  0  0  0  0  0  0
    2.3895   11.9469   13.2564 C   0  0  0  0  0  0  0  0  0  0  0  0
    1.8340   12.9379   12.4582 C   0  0  0  0  0  0  0  0  0  0  0  0
    2.4784   13.6323   11.9363 H   0  0  0  0  0  0  0  0  0  0  0  0
    0.4609   13.0379   12.3174 C   0  0  0  0  0  0  0  0  0  0  0  0
    0.0408   13.8092   11.6882 H   0  0  0  0  0  0  0  0  0  0  0  0
   -0.3698   12.1529   12.9824 C   0  0  0  0  0  0  0  0  0  0  0  0
   -1.4415   12.2317   12.8738 H   0  0  0  0  0  0  0  0  0  0  0  0
    0.1789   11.1676   13.7858 C   0  0  0  0  0  0  0  0  0  0  0  0
   -0.4628   10.4736   14.3075 H   0  0  0  0  0  0  0  0  0  0  0  0
    1.5516   11.0611   13.9215 C   0  0  0  0  0  0  0  0  0  0  0  0
    1.9681   10.2873   14.5483 H   0  0  0  0  0  0  0  0  0  0  0  0
    4.8819    8.4846   20.3615 C   0  0  1  0  0  0  0  0  0  0  0  0
    5.2271    8.7179   21.3769 H   0  0  0  0  0  0  0  0  0  0  0  0
    3.5362    7.7662   20.4189 C   0  0  0  0  0  0  0  0  0  0  0  0
    2.8099    8.3646   20.9648 H   0  0  0  0  0  0  0  0  0  0  0  0
    3.6520    6.8094   20.9203 H   0  0  0  0  0  0  0  0  0  0  0  0
    3.1574    7.5873   19.4162 H   0  0  0  0  0  0  0  0  0  0  0  0
    5.9468    7.6629   19.6554 C   0  0  0  0  0  0  0  0  0  0  0  0
    5.7463    7.2079   18.3585 C   0  0  0  0  0  0  0  0  0  0  0  0
    4.8216    7.4070   17.8384 H   0  0  0  0  0  0  0  0  0  0  0  0
    6.7398    6.4963   17.7105 C   0  0  0  0  0  0  0  0  0  0  0  0
    6.5740    6.1605   16.6983 H   0  0  0  0  0  0  0  0  0  0  0  0
    7.9384    6.2320   18.3500 C   0  0  0  0  0  0  0  0  0  0  0  0
    8.7165    5.6830   17.8407 H   0  0  0  0  0  0  0  0  0  0  0  0
    8.1411    6.6797   19.6441 C   0  0  0  0  0  0  0  0  0  0  0  0
    9.0744    6.4779   20.1499 H   0  0  0  0  0  0  0  0  0  0  0  0
    7.1516    7.3981   20.2920 C   0  0  0  0  0  0  0  0  0  0  0  0
    7.3184    7.7518   21.3008 H   0  0  0  0  0  0  0  0  0  0  0  0
    4.2428    9.6990   18.7275 H   0  0  0  0  0  0  0  0  0  0  0  0
  1  3  1  0  0  0  0
  1  2  1  0  0  0  0
  2  7  1  0  0  0  0
  4 21  2  0  0  0  0
  4 40  1  0  0  0  0
  5 19  1  0  0  0  0
  5  1  1  0  0  0  0
  6  1  1  0  0  0  0
  7 14  1  0  0  0  0
  8  9  1  0  0  0  0
  8  7  2  0  0  0  0
  9 11  2  0  0  0  0
 10  9  1  0  0  0  0
 11 15  1  0  0  0  0
 11 12  1  0  0  0  0
 12 13  1  0  0  0  0
 14 12  2  0  0  0  0
 14 21  1  0  0  0  0
 15 16  1  0  0  0  0
 17 15  1  0  0  0  0
 18 15  1  0  0  0  0
 19  8  1  0  0  0  0
 20 19  1  0  0  0  0
 21 22  1  0  0  0  0
 23 24  1  6  0  0  0
 23  5  1  0  0  0  0
 25 26  1  0  0  0  0
 25 28  1  0  0  0  0
 25 23  1  0  0  0  0
 27 25  1  0  0  0  0
 29 23  1  0  0  0  0
 29 38  1  0  0  0  0
 30 29  2  0  0  0  0
 31 30  1  0  0  0  0
 32 30  1  0  0  0  0
 32 34  2  0  0  0  0
 33 32  1  0  0  0  0
 34 36  1  0  0  0  0
 35 34  1  0  0  0  0
 36 38  2  0  0  0  0
 36 37  1  0  0  0  0
 38 39  1  0  0  0  0
 40 42  1  0  0  0  0
 40 41  1  1  0  0  0
 42 44  1  0  0  0  0
 42 43  1  0  0  0  0
 45 42  1  0  0  0  0
 46 55  1  0  0  0  0
 46 40  1  0  0  0  0
 47 46  2  0  0  0  0
 48 47  1  0  0  0  0
 49 51  2  0  0  0  0
 49 47  1  0  0  0  0
 50 49  1  0  0  0  0
 51 53  1  0  0  0  0
 52 51  1  0  0  0  0
 53 54  1  0  0  0  0
 53 55  2  0  0  0  0
 55 56  1  0  0  0  0
 57  4  1  0  0  0  0
M  END
$$$$
