CSD_code = WALQAD | q = 0 | S = 0 | Stoichiometry = C24H29Cl2N3Pd | MND = 4
 OpenBabel04212202113D

 59 62  0  0  1  0  0  0  0  0999 V2000
   20.0191    2.2236    2.8720 Pd  0  0  0  0  0  0  0  0  0  0  0  0
   19.3157    1.8968    5.0170 Cl  0  0  0  0  0  0  0  0  0  0  0  0
   21.9173    3.1909    3.5853 Cl  0  0  0  0  0  0  0  0  0  0  0  0
   20.6688    2.6695    1.0536 C   0  0  0  0  0  0  0  0  0  0  0  0
   20.0886    3.6515    0.3572 N   0  0  0  0  0  0  0  0  0  0  0  0
   20.9212    4.1124   -0.7518 C   0  0  0  0  0  0  0  0  0  0  0  0
   21.1858    5.1648   -0.6038 H   0  0  0  0  0  0  0  0  0  0  0  0
   20.4003    4.0218   -1.7072 H   0  0  0  0  0  0  0  0  0  0  0  0
   22.1508    3.1949   -0.6510 C   0  0  2  0  0  0  0  0  0  0  0  0
   22.2894    2.5855   -1.5545 H   0  0  0  0  0  0  0  0  0  0  0  0
   21.7972    2.3251    0.4663 N   0  0  0  0  0  0  0  0  0  0  0  0
   22.7585    1.3590    0.9258 C   0  0  0  0  0  0  0  0  0  0  0  0
   22.3538    0.8822    1.8315 H   0  0  0  0  0  0  0  0  0  0  0  0
   22.8894    0.5988    0.1439 H   0  0  0  0  0  0  0  0  0  0  0  0
   24.0899    2.0485    1.2238 C   0  0  0  0  0  0  0  0  0  0  0  0
   24.8412    1.2964    1.4643 H   0  0  0  0  0  0  0  0  0  0  0  0
   23.9503    2.6939    2.0927 H   0  0  0  0  0  0  0  0  0  0  0  0
   24.5323    2.8848    0.0252 C   0  0  0  0  0  0  0  0  0  0  0  0
   25.4678    3.3946    0.2569 H   0  0  0  0  0  0  0  0  0  0  0  0
   24.7069    2.2373   -0.8390 H   0  0  0  0  0  0  0  0  0  0  0  0
   23.4565    3.9151   -0.3154 C   0  0  0  0  0  0  0  0  0  0  0  0
   23.2916    4.5557    0.5532 H   0  0  0  0  0  0  0  0  0  0  0  0
   23.7642    4.5359   -1.1587 H   0  0  0  0  0  0  0  0  0  0  0  0
   18.7277    4.0319    0.5305 C   0  0  0  0  0  0  0  0  0  0  0  0
   18.3658    4.8808    1.5821 C   0  0  0  0  0  0  0  0  0  0  0  0
   17.0259    5.2264    1.7245 C   0  0  0  0  0  0  0  0  0  0  0  0
   16.7387    5.8950    2.5227 H   0  0  0  0  0  0  0  0  0  0  0  0
   16.0655    4.7228    0.8691 C   0  0  0  0  0  0  0  0  0  0  0  0
   15.0278    4.9879    1.0029 H   0  0  0  0  0  0  0  0  0  0  0  0
   16.4322    3.8619   -0.1483 C   0  0  0  0  0  0  0  0  0  0  0  0
   15.6780    3.4497   -0.8022 H   0  0  0  0  0  0  0  0  0  0  0  0
   17.7605    3.5065   -0.3344 C   0  0  0  0  0  0  0  0  0  0  0  0
   19.3726    5.3818    2.5711 C   0  0  0  0  0  0  0  0  0  0  0  0
   19.0578    6.3341    2.9917 H   0  0  0  0  0  0  0  0  0  0  0  0
   20.3596    5.4962    2.1253 H   0  0  0  0  0  0  0  0  0  0  0  0
   19.4574    4.6606    3.4060 H   0  0  0  0  0  0  0  0  0  0  0  0
   18.1280    2.5487   -1.4292 C   0  0  0  0  0  0  0  0  0  0  0  0
   17.2625    1.9550   -1.7129 H   0  0  0  0  0  0  0  0  0  0  0  0
   18.9251    1.8793   -1.1090 H   0  0  0  0  0  0  0  0  0  0  0  0
   18.4610    3.0845   -2.3188 H   0  0  0  0  0  0  0  0  0  0  0  0
   17.1618    1.4249    2.3130 N   0  0  0  0  0  2  0  0  0  0  0  0
   18.3182    1.5620    2.4144 C   0  0  0  0  0  2  0  0  0  0  0  0
   15.8066    1.4477    2.3544 C   0  0  0  0  0  0  0  0  0  0  0  0
   15.1904    2.2375    3.3367 C   0  0  0  0  0  0  0  0  0  0  0  0
   13.8052    2.2811    3.3482 C   0  0  0  0  0  0  0  0  0  0  0  0
   13.3044    2.8807    4.0936 H   0  0  0  0  0  0  0  0  0  0  0  0
   13.0618    1.5682    2.4229 C   0  0  0  0  0  0  0  0  0  0  0  0
   11.9836    1.6175    2.4482 H   0  0  0  0  0  0  0  0  0  0  0  0
   13.6916    0.7889    1.4675 C   0  0  0  0  0  0  0  0  0  0  0  0
   13.1046    0.2307    0.7532 H   0  0  0  0  0  0  0  0  0  0  0  0
   15.0742    0.7124    1.4174 C   0  0  0  0  0  0  0  0  0  0  0  0
   16.0229    2.9934    4.3152 C   0  0  0  0  0  0  0  0  0  0  0  0
   15.3995    3.5610    5.0000 H   0  0  0  0  0  0  0  0  0  0  0  0
   16.6954    3.6756    3.7920 H   0  0  0  0  0  0  0  0  0  0  0  0
   16.6583    2.3172    4.8894 H   0  0  0  0  0  0  0  0  0  0  0  0
   15.7818   -0.1479    0.4174 C   0  0  0  0  0  0  0  0  0  0  0  0
   16.1075   -1.0750    0.8907 H   0  0  0  0  0  0  0  0  0  0  0  0
   16.6682    0.3544    0.0346 H   0  0  0  0  0  0  0  0  0  0  0  0
   15.1232   -0.4004   -0.4098 H   0  0  0  0  0  0  0  0  0  0  0  0
  1  3  1  0  0  0  0
  1  2  1  0  0  0  0
  4  1  2  0  0  0  0
  5 24  1  0  0  0  0
  5  4  1  0  0  0  0
  6  9  1  0  0  0  0
  6  7  1  0  0  0  0
  6  5  1  0  0  0  0
  8  6  1  0  0  0  0
  9 10  1  6  0  0  0
  9 21  1  0  0  0  0
  9 11  1  0  0  0  0
 11 12  1  0  0  0  0
 11  4  1  0  0  0  0
 12 15  1  0  0  0  0
 12 13  1  0  0  0  0
 14 12  1  0  0  0  0
 15 16  1  0  0  0  0
 15 17  1  0  0  0  0
 18 19  1  0  0  0  0
 18 15  1  0  0  0  0
 20 18  1  0  0  0  0
 21 18  1  0  0  0  0
 21 22  1  0  0  0  0
 23 21  1  0  0  0  0
 24 25  1  0  0  0  0
 25 26  2  0  0  0  0
 25 33  1  0  0  0  0
 26 27  1  0  0  0  0
 28 29  1  0  0  0  0
 28 26  1  0  0  0  0
 30 28  2  0  0  0  0
 31 30  1  0  0  0  0
 32 30  1  0  0  0  0
 32 24  2  0  0  0  0
 33 34  1  0  0  0  0
 33 36  1  0  0  0  0
 35 33  1  0  0  0  0
 37 39  1  0  0  0  0
 37 32  1  0  0  0  0
 38 37  1  0  0  0  0
 40 37  1  0  0  0  0
 41 43  1  0  0  0  0
 41 42  1  0  0  0  0
 42  1  1  0  0  0  0
 43 44  1  0  0  0  0
 44 45  2  0  0  0  0
 44 52  1  0  0  0  0
 45 46  1  0  0  0  0
 47 48  1  0  0  0  0
 47 45  1  0  0  0  0
 49 47  2  0  0  0  0
 50 49  1  0  0  0  0
 51 49  1  0  0  0  0
 51 43  2  0  0  0  0
 52 55  1  0  0  0  0
 52 53  1  0  0  0  0
 54 52  1  0  0  0  0
 56 57  1  0  0  0  0
 56 51  1  0  0  0  0
 58 56  1  0  0  0  0
 59 56  1  0  0  0  0
M  END
$$$$
