CSD_code = WAMLAX | q = 0 | S = 0 | Stoichiometry = C36H30AgBrP2 | MND = 3
 OpenBabel04212202113D

 70 75  0  0  0  0  0  0  0  0999 V2000
   -1.8205    1.9231    3.3765 Ag  0  0  0  0  0  0  0  0  0  0  0  0
   -1.8128    4.3732    3.3811 Br  0  0  0  0  0  0  0  0  0  0  0  0
   -0.0444    0.1833    4.0497 P   0  0  0  0  0  4  0  0  0  0  0  0
    1.6500    0.7796    4.3797 C   0  0  0  0  0  0  0  0  0  0  0  0
    1.9404    2.1020    4.0630 C   0  0  0  0  0  0  0  0  0  0  0  0
    3.2191    2.5964    4.2470 C   0  0  0  0  0  0  0  0  0  0  0  0
    4.2122    1.7720    4.7479 C   0  0  0  0  0  0  0  0  0  0  0  0
    3.9251    0.4541    5.0687 C   0  0  0  0  0  0  0  0  0  0  0  0
    2.6499   -0.0457    4.8855 C   0  0  0  0  0  0  0  0  0  0  0  0
    0.2895   -0.8025    2.5517 C   0  0  0  0  0  0  0  0  0  0  0  0
   -0.0900   -0.2454    1.3352 C   0  0  0  0  0  0  0  0  0  0  0  0
    0.1525   -0.9112    0.1492 C   0  0  0  0  0  0  0  0  0  0  0  0
    0.7751   -2.1475    0.1714 C   0  0  0  0  0  0  0  0  0  0  0  0
    1.1704   -2.7024    1.3781 C   0  0  0  0  0  0  0  0  0  0  0  0
    0.9389   -2.0325    2.5650 C   0  0  0  0  0  0  0  0  0  0  0  0
   -0.2880   -1.0370    5.3728 C   0  0  0  0  0  0  0  0  0  0  0  0
   -0.8937   -2.2696    5.1537 C   0  0  0  0  0  0  0  0  0  0  0  0
   -1.1878   -3.1011    6.2178 C   0  0  0  0  0  0  0  0  0  0  0  0
   -0.8972   -2.7043    7.5122 C   0  0  0  0  0  0  0  0  0  0  0  0
   -0.3159   -1.4670    7.7412 C   0  0  0  0  0  0  0  0  0  0  0  0
   -0.0211   -0.6331    6.6804 C   0  0  0  0  0  0  0  0  0  0  0  0
    1.1557    2.7480    3.6835 H   0  0  0  0  0  0  0  0  0  0  0  0
    3.4363    3.6259    4.0049 H   0  0  0  0  0  0  0  0  0  0  0  0
    5.2111    2.1557    4.8943 H   0  0  0  0  0  0  0  0  0  0  0  0
    4.7000   -0.1873    5.4632 H   0  0  0  0  0  0  0  0  0  0  0  0
    2.4280   -1.0710    5.1470 H   0  0  0  0  0  0  0  0  0  0  0  0
   -0.5809    0.7258    1.3212 H   0  0  0  0  0  0  0  0  0  0  0  0
   -0.1499   -0.4706   -0.7889 H   0  0  0  0  0  0  0  0  0  0  0  0
    0.9573   -2.6771   -0.7518 H   0  0  0  0  0  0  0  0  0  0  0  0
    1.6666   -3.6622    1.3943 H   0  0  0  0  0  0  0  0  0  0  0  0
    1.2590   -2.4684    3.5006 H   0  0  0  0  0  0  0  0  0  0  0  0
   -1.1273   -2.5803    4.1458 H   0  0  0  0  0  0  0  0  0  0  0  0
   -1.6508   -4.0602    6.0358 H   0  0  0  0  0  0  0  0  0  0  0  0
   -1.1284   -3.3554    8.3421 H   0  0  0  0  0  0  0  0  0  0  0  0
   -0.0959   -1.1512    8.7505 H   0  0  0  0  0  0  0  0  0  0  0  0
    0.4241    0.3381    6.8551 H   0  0  0  0  0  0  0  0  0  0  0  0
   -3.5944    0.1839    2.7049 P   0  0  0  0  0  4  0  0  0  0  0  0
   -5.2887    0.7791    2.3726 C   0  0  0  0  0  0  0  0  0  0  0  0
   -3.9292   -0.8017    4.2027 C   0  0  0  0  0  0  0  0  0  0  0  0
   -3.3483   -1.0362    1.3822 C   0  0  0  0  0  0  0  0  0  0  0  0
   -5.5806    2.1010    2.6901 C   0  0  0  0  0  0  0  0  0  0  0  0
   -6.2871   -0.0465    1.8646 C   0  0  0  0  0  0  0  0  0  0  0  0
   -3.5481   -0.2462    5.4194 C   0  0  0  0  0  0  0  0  0  0  0  0
   -4.5813   -2.0303    4.1889 C   0  0  0  0  0  0  0  0  0  0  0  0
   -2.7457   -2.2702    1.6022 C   0  0  0  0  0  0  0  0  0  0  0  0
   -3.6107   -0.6309    0.0741 C   0  0  0  0  0  0  0  0  0  0  0  0
   -6.8594    2.5947    2.5047 C   0  0  0  0  0  0  0  0  0  0  0  0
   -4.7972    2.7468    3.0726 H   0  0  0  0  0  0  0  0  0  0  0  0
   -7.5625    0.4524    1.6802 C   0  0  0  0  0  0  0  0  0  0  0  0
   -6.0637   -1.0709    1.6010 H   0  0  0  0  0  0  0  0  0  0  0  0
   -3.7915   -0.9123    6.6051 C   0  0  0  0  0  0  0  0  0  0  0  0
   -3.0550    0.7239    5.4338 H   0  0  0  0  0  0  0  0  0  0  0  0
   -4.8137   -2.7006    5.3754 C   0  0  0  0  0  0  0  0  0  0  0  0
   -4.9028   -2.4648    3.2531 H   0  0  0  0  0  0  0  0  0  0  0  0
   -2.4499   -3.1013    0.5383 C   0  0  0  0  0  0  0  0  0  0  0  0
   -2.5159   -2.5822    2.6105 H   0  0  0  0  0  0  0  0  0  0  0  0
   -3.3143   -1.4644   -0.9864 C   0  0  0  0  0  0  0  0  0  0  0  0
   -4.0536    0.3413   -0.1011 H   0  0  0  0  0  0  0  0  0  0  0  0
   -7.8511    1.7698    2.0017 C   0  0  0  0  0  0  0  0  0  0  0  0
   -7.0782    3.6233    2.7489 H   0  0  0  0  0  0  0  0  0  0  0  0
   -8.3360   -0.1888    1.2827 H   0  0  0  0  0  0  0  0  0  0  0  0
   -4.4167   -2.1473    6.5822 C   0  0  0  0  0  0  0  0  0  0  0  0
   -3.4874   -0.4731    7.5433 H   0  0  0  0  0  0  0  0  0  0  0  0
   -5.3119   -3.6593    5.3588 H   0  0  0  0  0  0  0  0  0  0  0  0
   -2.7359   -2.7029   -0.7567 C   0  0  0  0  0  0  0  0  0  0  0  0
   -1.9892   -4.0614    0.7209 H   0  0  0  0  0  0  0  0  0  0  0  0
   -3.5307   -1.1474   -1.9962 H   0  0  0  0  0  0  0  0  0  0  0  0
   -8.8501    2.1529    1.8544 H   0  0  0  0  0  0  0  0  0  0  0  0
   -4.5996   -2.6771    7.5051 H   0  0  0  0  0  0  0  0  0  0  0  0
   -2.5032   -3.3537   -1.5863 H   0  0  0  0  0  0  0  0  0  0  0  0
  1  2  1  0  0  0  0
  1  3  1  0  0  0  0
  3  4  1  0  0  0  0
  3 16  1  0  0  0  0
  4  9  1  0  0  0  0
  5  6  1  0  0  0  0
  5  4  2  0  0  0  0
  6  7  2  0  0  0  0
  7 24  1  0  0  0  0
  7  8  1  0  0  0  0
  8 25  1  0  0  0  0
  9  8  2  0  0  0  0
  9 26  1  0  0  0  0
 10 15  1  0  0  0  0
 10  3  1  0  0  0  0
 11 10  2  0  0  0  0
 12 13  2  0  0  0  0
 12 11  1  0  0  0  0
 13 14  1  0  0  0  0
 14 30  1  0  0  0  0
 14 15  2  0  0  0  0
 15 31  1  0  0  0  0
 16 21  1  0  0  0  0
 17 16  2  0  0  0  0
 17 18  1  0  0  0  0
 18 19  2  0  0  0  0
 19 20  1  0  0  0  0
 19 34  1  0  0  0  0
 20 35  1  0  0  0  0
 21 36  1  0  0  0  0
 21 20  2  0  0  0  0
 22  5  1  0  0  0  0
 23  6  1  0  0  0  0
 27 11  1  0  0  0  0
 28 12  1  0  0  0  0
 29 13  1  0  0  0  0
 32 17  1  0  0  0  0
 33 18  1  0  0  0  0
 37  1  1  0  0  0  0
 37 39  1  0  0  0  0
 38 41  1  0  0  0  0
 38 37  1  0  0  0  0
 39 43  1  0  0  0  0
 40 45  1  0  0  0  0
 40 37  1  0  0  0  0
 41 48  1  0  0  0  0
 42 38  2  0  0  0  0
 43 52  1  0  0  0  0
 43 51  2  0  0  0  0
 44 39  2  0  0  0  0
 44 53  1  0  0  0  0
 45 56  1  0  0  0  0
 46 40  2  0  0  0  0
 47 41  2  0  0  0  0
 47 60  1  0  0  0  0
 49 42  1  0  0  0  0
 49 59  2  0  0  0  0
 50 42  1  0  0  0  0
 51 63  1  0  0  0  0
 53 62  2  0  0  0  0
 54 44  1  0  0  0  0
 55 66  1  0  0  0  0
 55 45  2  0  0  0  0
 57 65  2  0  0  0  0
 57 46  1  0  0  0  0
 58 46  1  0  0  0  0
 59 47  1  0  0  0  0
 61 49  1  0  0  0  0
 62 51  1  0  0  0  0
 62 69  1  0  0  0  0
 64 53  1  0  0  0  0
 65 55  1  0  0  0  0
 67 57  1  0  0  0  0
 68 59  1  0  0  0  0
 70 65  1  0  0  0  0
M  END
$$$$
