CSD_code = WAPGIG | q = 0 | S = 0 | Stoichiometry = C24H22CdI2N6O2 | MND = 6
 OpenBabel04212202113D

 57 60  0  0  0  0  0  0  0  0999 V2000
   -2.3580    4.2254    7.1599 I   0  0  0  0  0  0  0  0  0  0  0  0
   -0.4232    6.1278    7.0489 Cd  0  0  0  0  0  0  0  0  0  0  0  0
   -2.5256    7.7658    7.3134 O   0  0  0  0  0  0  0  0  0  0  0  0
   -2.8689    8.6527    7.1761 H   0  0  0  0  0  0  0  0  0  0  0  0
   -3.2809    7.1670    7.3666 H   0  0  0  0  0  0  0  0  0  0  0  0
   -0.1138    5.9722    9.5466 N   0  0  0  0  0  0  0  0  0  0  0  0
    1.1478    6.7068   14.4942 N   0  0  0  0  0  0  0  0  0  0  0  0
    1.1014    7.6862   14.2707 H   0  0  0  0  0  0  0  0  0  0  0  0
    1.0658    4.4944   14.2348 N   0  0  0  0  0  0  0  0  0  0  0  0
    0.0730    7.0639   10.2779 C   0  0  0  0  0  3  0  0  0  0  0  0
   -0.0421    8.0106    9.7647 H   0  0  0  0  0  0  0  0  0  0  0  0
    0.4037    7.0342   11.6201 C   0  0  0  0  0  0  0  0  0  0  0  0
    0.5413    7.9647   12.1489 H   0  0  0  0  0  0  0  0  0  0  0  0
    0.5570    5.7976   12.2490 C   0  0  0  0  0  0  0  0  0  0  0  0
    0.3493    4.6514   11.4769 C   0  0  0  0  0  0  0  0  0  0  0  0
    0.4537    3.6830   11.9370 H   0  0  0  0  0  0  0  0  0  0  0  0
    0.0163    4.7912   10.1447 C   0  0  0  0  0  0  0  0  0  0  0  0
   -0.1592    3.9195    9.5263 H   0  0  0  0  0  0  0  0  0  0  0  0
    0.9181    5.6525   13.6431 C   0  0  0  0  0  0  0  0  0  0  0  0
    1.4642    6.1720   15.7122 C   0  0  0  0  0  0  0  0  0  0  0  0
    1.7893    6.7365   16.9357 C   0  0  0  0  0  0  0  0  0  0  0  0
    1.8320    7.8071   17.0704 H   0  0  0  0  0  0  0  0  0  0  0  0
    2.0561    5.8664   17.9722 C   0  0  0  0  0  0  0  0  0  0  0  0
    2.3138    6.2638   18.9425 H   0  0  0  0  0  0  0  0  0  0  0  0
    2.0018    4.4791   17.8004 C   0  0  0  0  0  0  0  0  0  0  0  0
    2.2198    3.8437   18.6458 H   0  0  0  0  0  0  0  0  0  0  0  0
    1.6795    3.9096   16.5891 C   0  0  0  0  0  0  0  0  0  0  0  0
    1.6363    2.8413   16.4532 H   0  0  0  0  0  0  0  0  0  0  0  0
    1.4059    4.7674   15.5261 C   0  0  0  0  0  0  0  0  0  0  0  0
    1.5108    8.0315    6.9388 I   0  0  0  0  0  0  0  0  0  0  0  0
    1.6803    4.4913    6.7842 O   0  0  0  0  0  0  0  0  0  0  0  0
    2.0263    3.6057    6.9230 H   0  0  0  0  0  0  0  0  0  0  0  0
    2.4336    5.0926    6.7313 H   0  0  0  0  0  0  0  0  0  0  0  0
   -0.7302    6.2811    4.5513 N   0  0  0  0  0  0  0  0  0  0  0  0
   -1.9923    5.5412   -0.3954 N   0  0  0  0  0  0  0  0  0  0  0  0
   -1.9463    4.5621   -0.1708 H   0  0  0  0  0  0  0  0  0  0  0  0
   -1.9095    7.7539   -0.1384 N   0  0  0  0  0  0  0  0  0  0  0  0
   -0.9167    5.1885    3.8212 C   0  0  0  0  0  3  0  0  0  0  0  0
   -0.8013    4.2424    4.3353 H   0  0  0  0  0  0  0  0  0  0  0  0
   -1.2475    5.2168    2.4790 C   0  0  0  0  0  0  0  0  0  0  0  0
   -1.3849    4.2858    1.9511 H   0  0  0  0  0  0  0  0  0  0  0  0
   -1.4010    6.4527    1.8488 C   0  0  0  0  0  0  0  0  0  0  0  0
   -1.1935    7.5997    2.6198 C   0  0  0  0  0  0  0  0  0  0  0  0
   -1.2981    8.5676    2.1586 H   0  0  0  0  0  0  0  0  0  0  0  0
   -0.8606    7.4614    3.9520 C   0  0  0  0  0  0  0  0  0  0  0  0
   -0.6853    8.3338    4.5695 H   0  0  0  0  0  0  0  0  0  0  0  0
   -1.7622    6.5964    0.4546 C   0  0  0  0  0  0  0  0  0  0  0  0
   -2.3084    6.0748   -1.6140 C   0  0  0  0  0  0  0  0  0  0  0  0
   -2.6336    5.5091   -2.8369 C   0  0  0  0  0  0  0  0  0  0  0  0
   -2.6767    4.4384   -2.9704 H   0  0  0  0  0  0  0  0  0  0  0  0
   -2.8999    6.3782   -3.8743 C   0  0  0  0  0  0  0  0  0  0  0  0
   -3.1577    5.9799   -4.8442 H   0  0  0  0  0  0  0  0  0  0  0  0
   -2.8452    7.7656   -3.7041 C   0  0  0  0  0  0  0  0  0  0  0  0
   -3.0629    8.4002   -4.5502 H   0  0  0  0  0  0  0  0  0  0  0  0
   -2.5229    8.3364   -2.4933 C   0  0  0  0  0  0  0  0  0  0  0  0
   -2.4793    9.4048   -2.3585 H   0  0  0  0  0  0  0  0  0  0  0  0
   -2.2497    7.4796   -1.4294 C   0  0  0  0  0  0  0  0  0  0  0  0
  2  1  1  0  0  0  0
  2  6  1  0  0  0  0
  3  5  1  0  0  0  0
  4  3  1  0  0  0  0
  6 17  1  0  0  0  0
  6 10  1  0  0  0  0
  7 20  1  0  0  0  0
  8  7  1  0  0  0  0
  9 29  1  0  0  0  0
 10 12  1  0  0  0  0
 11 10  1  0  0  0  0
 12 13  1  0  0  0  0
 12 14  2  0  0  0  0
 14 19  1  0  0  0  0
 15 16  1  0  0  0  0
 15 14  1  0  0  0  0
 17 15  2  0  0  0  0
 18 17  1  0  0  0  0
 19  9  2  0  0  0  0
 19  7  1  0  0  0  0
 20 21  1  0  0  0  0
 21 22  1  0  0  0  0
 21 23  2  0  0  0  0
 23 24  1  0  0  0  0
 25 23  1  0  0  0  0
 25 26  1  0  0  0  0
 27 25  2  0  0  0  0
 28 27  1  0  0  0  0
 29 20  2  0  0  0  0
 29 27  1  0  0  0  0
 30  2  1  0  0  0  0
 31 32  1  0  0  0  0
 33 31  1  0  0  0  0
 34  2  1  0  0  0  0
 35 36  1  0  0  0  0
 35 47  1  0  0  0  0
 37 47  2  0  0  0  0
 38 39  1  0  0  0  0
 38 34  1  0  0  0  0
 40 38  1  0  0  0  0
 41 40  1  0  0  0  0
 42 40  2  0  0  0  0
 42 43  1  0  0  0  0
 43 45  2  0  0  0  0
 44 43  1  0  0  0  0
 45 34  1  0  0  0  0
 45 46  1  0  0  0  0
 47 42  1  0  0  0  0
 48 57  1  0  0  0  0
 48 35  1  0  0  0  0
 49 48  2  0  0  0  0
 50 49  1  0  0  0  0
 51 53  2  0  0  0  0
 51 49  1  0  0  0  0
 52 51  1  0  0  0  0
 53 55  1  0  0  0  0
 54 53  1  0  0  0  0
 55 56  1  0  0  0  0
 55 57  2  0  0  0  0
 57 37  1  0  0  0  0
M  END
$$$$
