CSD_code = WAPJEE | q = 0 | S = 0 | Stoichiometry = C25H26BrN2O4Re | MND = 6
 OpenBabel04212202113D

 59 61  0  0  0  0  0  0  0  0999 V2000
    1.3592   15.2058    7.2135 Re  0  0  0  0  0  0  0  0  0  0  0  0
    3.5138   15.2055    5.6974 Br  0  0  0  0  0  0  0  0  0  0  0  0
   -0.0801   15.2057    4.4601 O   0  0  0  0  0  1  0  0  0  0  0  0
    1.3645   12.1578    6.6577 O   0  0  0  0  0  1  0  0  0  0  0  0
   -1.2495   15.2065    8.8761 O   0  0  0  0  0  1  0  0  0  0  0  0
    3.3262   14.1274    9.4894 N   0  0  0  0  0  0  0  0  0  0  0  0
    0.3836   15.2057    5.5014 C   0  0  0  0  0  2  0  0  0  0  0  0
    1.4050   13.2370    7.0237 C   0  0  0  0  0  2  0  0  0  0  0  0
   -0.2583   15.2061    8.2927 C   0  0  0  0  0  2  0  0  0  0  0  0
    2.7769   15.2057    8.9294 C   0  0  0  0  0  3  0  0  0  0  0  0
    4.3103   14.4424   10.5200 C   0  0  0  0  0  0  0  0  0  0  0  0
    5.2824   14.0180   10.2563 H   0  0  0  0  0  0  0  0  0  0  0  0
    3.9966   14.0136   11.4769 H   0  0  0  0  0  0  0  0  0  0  0  0
    3.0344   12.7623    9.2194 C   0  0  0  0  0  0  0  0  0  0  0  0
    3.8976   12.0169    8.4137 C   0  0  0  0  0  0  0  0  0  0  0  0
    3.5900   10.6838    8.1786 C   0  0  0  0  0  0  0  0  0  0  0  0
    4.2418   10.1058    7.5398 H   0  0  0  0  0  0  0  0  0  0  0  0
    2.4677   10.0859    8.7293 C   0  0  0  0  0  0  0  0  0  0  0  0
    1.6472   10.8418    9.5578 C   0  0  0  0  0  0  0  0  0  0  0  0
    0.7774   10.3818   10.0045 H   0  0  0  0  0  0  0  0  0  0  0  0
    1.9151   12.1742    9.8197 C   0  0  0  0  0  0  0  0  0  0  0  0
    5.1272   12.6170    7.8064 C   0  0  0  0  0  0  0  0  0  0  0  0
    5.3599   12.1263    6.8651 H   0  0  0  0  0  0  0  0  0  0  0  0
    5.9814   12.4850    8.4726 H   0  0  0  0  0  0  0  0  0  0  0  0
    5.0020   13.6775    7.6067 H   0  0  0  0  0  0  0  0  0  0  0  0
    2.1290    8.6589    8.4314 C   0  0  0  0  0  0  0  0  0  0  0  0
    2.9879    8.1295    8.0271 H   0  0  0  0  0  0  0  0  0  0  0  0
    1.3259    8.6186    7.6954 H   0  0  0  0  0  0  0  0  0  0  0  0
    1.7855    8.1476    9.3284 H   0  0  0  0  0  0  0  0  0  0  0  0
    1.0345   12.9643   10.7402 C   0  0  0  0  0  0  0  0  0  0  0  0
    0.1296   12.4094   10.9710 H   0  0  0  0  0  0  0  0  0  0  0  0
    0.7524   13.9131   10.2873 H   0  0  0  0  0  0  0  0  0  0  0  0
    1.5531   13.1771   11.6758 H   0  0  0  0  0  0  0  0  0  0  0  0
    1.3648   18.2537    6.6576 O   0  0  0  0  0  1  0  0  0  0  0  0
    3.3262   16.2840    9.4896 N   0  0  0  0  0  0  0  0  0  0  0  0
    1.4053   17.1745    7.0236 C   0  0  0  0  0  2  0  0  0  0  0  0
    4.3100   15.9689   10.5203 C   0  0  0  0  0  0  0  0  0  0  0  0
    5.2820   16.3938   10.2570 H   0  0  0  0  0  0  0  0  0  0  0  0
    3.9958   16.3972   11.4773 H   0  0  0  0  0  0  0  0  0  0  0  0
    3.0344   17.6492    9.2196 C   0  0  0  0  0  0  0  0  0  0  0  0
    3.8976   18.3945    8.4139 C   0  0  0  0  0  0  0  0  0  0  0  0
    3.5900   19.7275    8.1788 C   0  0  0  0  0  0  0  0  0  0  0  0
    4.2419   20.3055    7.5399 H   0  0  0  0  0  0  0  0  0  0  0  0
    2.4677   20.3255    8.7293 C   0  0  0  0  0  0  0  0  0  0  0  0
    1.6471   19.5696    9.5577 C   0  0  0  0  0  0  0  0  0  0  0  0
    0.7773   20.0297   10.0043 H   0  0  0  0  0  0  0  0  0  0  0  0
    1.9150   18.2373    9.8198 C   0  0  0  0  0  0  0  0  0  0  0  0
    5.1273   17.7943    7.8068 C   0  0  0  0  0  0  0  0  0  0  0  0
    5.3604   18.2854    6.8659 H   0  0  0  0  0  0  0  0  0  0  0  0
    5.9813   17.9258    8.4733 H   0  0  0  0  0  0  0  0  0  0  0  0
    5.0019   16.7340    7.6066 H   0  0  0  0  0  0  0  0  0  0  0  0
    2.1289   21.7524    8.4312 C   0  0  0  0  0  0  0  0  0  0  0  0
    2.9878   22.2818    8.0269 H   0  0  0  0  0  0  0  0  0  0  0  0
    1.3259   21.7926    7.6951 H   0  0  0  0  0  0  0  0  0  0  0  0
    1.7854   22.2638    9.3281 H   0  0  0  0  0  0  0  0  0  0  0  0
    1.0344   17.4473   10.7404 C   0  0  0  0  0  0  0  0  0  0  0  0
    0.1288   18.0016   10.9699 H   0  0  0  0  0  0  0  0  0  0  0  0
    0.7535   16.4977   10.2882 H   0  0  0  0  0  0  0  0  0  0  0  0
    1.5524   17.2360   11.6767 H   0  0  0  0  0  0  0  0  0  0  0  0
  1  9  1  0  0  0  0
  1 10  1  0  0  0  0
  2  1  1  0  0  0  0
  3  7  1  0  0  0  0
  4  8  1  0  0  0  0
  6 11  1  0  0  0  0
  7  1  1  0  0  0  0
  8  1  1  0  0  0  0
  9  5  1  0  0  0  0
 10  6  1  0  0  0  0
 10 35  1  0  0  0  0
 11 37  1  0  0  0  0
 11 13  1  0  0  0  0
 12 11  1  0  0  0  0
 14  6  1  0  0  0  0
 14 21  1  0  0  0  0
 15 14  2  0  0  0  0
 16 15  1  0  0  0  0
 16 18  2  0  0  0  0
 17 16  1  0  0  0  0
 18 19  1  0  0  0  0
 19 21  2  0  0  0  0
 19 20  1  0  0  0  0
 21 30  1  0  0  0  0
 22 15  1  0  0  0  0
 22 24  1  0  0  0  0
 23 22  1  0  0  0  0
 25 22  1  0  0  0  0
 26 18  1  0  0  0  0
 26 29  1  0  0  0  0
 27 26  1  0  0  0  0
 28 26  1  0  0  0  0
 30 31  1  0  0  0  0
 30 33  1  0  0  0  0
 32 30  1  0  0  0  0
 34 36  1  0  0  0  0
 35 37  1  0  0  0  0
 36  1  1  0  0  0  0
 37 39  1  0  0  0  0
 38 37  1  0  0  0  0
 40 35  1  0  0  0  0
 40 47  1  0  0  0  0
 41 40  2  0  0  0  0
 42 41  1  0  0  0  0
 42 44  2  0  0  0  0
 43 42  1  0  0  0  0
 44 45  1  0  0  0  0
 45 47  2  0  0  0  0
 45 46  1  0  0  0  0
 47 56  1  0  0  0  0
 48 41  1  0  0  0  0
 48 50  1  0  0  0  0
 49 48  1  0  0  0  0
 51 48  1  0  0  0  0
 52 44  1  0  0  0  0
 52 55  1  0  0  0  0
 53 52  1  0  0  0  0
 54 52  1  0  0  0  0
 56 57  1  0  0  0  0
 56 59  1  0  0  0  0
 58 56  1  0  0  0  0
M  END
$$$$
