CSD_code = WAPJOO | q = 0 | S = 0 | Stoichiometry = C7H6BrN2O4Re | MND = 6
 OpenBabel04212202113D

 21 21  0  0  0  0  0  0  0  0999 V2000
    2.1681    9.1385    2.2860 Re  0  0  0  0  0  0  0  0  0  0  0  0
    1.1083   10.8164    4.0532 Br  0  0  0  0  0  0  0  0  0  0  0  0
   -0.6416    9.3524    0.9703 O   0  0  0  0  0  1  0  0  0  0  0  0
    1.1506    7.0340    4.3306 O   0  0  0  0  0  1  0  0  0  0  0  0
    3.3768    7.1847    0.2117 O   0  0  0  0  0  1  0  0  0  0  0  0
    3.0855   11.7977    0.9702 O   0  0  0  0  0  1  0  0  0  0  0  0
    5.1628    8.5824    3.2618 N   0  0  0  0  0  0  0  0  0  0  0  0
    5.3272    7.9564    2.4924 H   0  0  0  0  0  0  0  0  0  0  0  0
    4.1618    9.9588    4.5666 N   0  0  0  0  0  0  0  0  0  0  0  0
    3.4209   10.5392    4.9443 H   0  0  0  0  0  0  0  0  0  0  0  0
    0.4037    9.2334    1.4034 C   0  0  0  0  0  2  0  0  0  0  0  0
    1.5335    7.7377    3.5232 C   0  0  0  0  0  2  0  0  0  0  0  0
    2.9283    7.9091    0.9806 C   0  0  0  0  0  2  0  0  0  0  0  0
    2.7709   10.7825    1.3752 C   0  0  0  0  0  2  0  0  0  0  0  0
    4.0170    9.2258    3.4773 C   0  0  0  0  0  3  0  0  0  0  0  0
    6.1929    8.8700    4.2506 C   0  0  0  0  0  0  0  0  0  0  0  0
    7.0692    9.3153    3.7712 H   0  0  0  0  0  0  0  0  0  0  0  0
    6.5020    7.9527    4.7592 H   0  0  0  0  0  0  0  0  0  0  0  0
    5.4699    9.8512    5.1877 C   0  0  0  0  0  0  0  0  0  0  0  0
    5.3758    9.4681    6.2073 H   0  0  0  0  0  0  0  0  0  0  0  0
    5.9537   10.8306    5.2274 H   0  0  0  0  0  0  0  0  0  0  0  0
  1 15  1  0  0  0  0
  1 12  1  0  0  0  0
  1  2  1  0  0  0  0
  3 11  1  0  0  0  0
  5 13  1  0  0  0  0
  6 14  1  0  0  0  0
  7 15  1  0  0  0  0
  7 16  1  0  0  0  0
  8  7  1  0  0  0  0
  9 10  1  0  0  0  0
  9 19  1  0  0  0  0
 11  1  1  0  0  0  0
 12  4  1  0  0  0  0
 13  1  1  0  0  0  0
 14  1  1  0  0  0  0
 15  9  1  0  0  0  0
 16 18  1  0  0  0  0
 16 19  1  0  0  0  0
 17 16  1  0  0  0  0
 19 21  1  0  0  0  0
 19 20  1  0  0  0  0
M  END
$$$$
