CSD_code = WAPKOQ | q = 0 | S = 0 | Stoichiometry = C32H19Cl3N2O2Zn | MND = 4
 OpenBabel04212202113D

 59 65  0  0  1  0  0  0  0  0999 V2000
   10.5388    5.7373   -2.7751 Zn  0  0  0  0  0  0  0  0  0  0  0  0
   12.1804    5.3432   -4.0588 Cl  0  0  0  0  0  0  0  0  0  0  0  0
    8.7715    4.5716   -4.3141 Cl  0  0  0  0  0  0  0  0  0  0  0  0
    6.7680    9.6807    1.9300 Cl  0  0  0  0  0  0  0  0  0  0  0  0
   10.6628    6.2838    1.2991 O   0  0  0  0  0  0  0  0  0  0  0  0
    9.3705    7.1523   -2.6299 O   0  0  0  0  0  0  0  0  0  0  0  0
   10.2302    6.4251    0.0330 C   0  0  0  0  0  0  0  0  0  0  0  0
   10.8304    5.6007   -0.8080 N   0  0  0  0  0  0  0  0  0  0  0  0
   11.7312    4.8737   -0.0611 C   0  0  0  0  0  0  0  0  0  0  0  0
   11.6138    5.3123    1.2666 C   0  0  0  0  0  0  0  0  0  0  0  0
   12.3828    4.7854    2.2861 C   0  0  0  0  0  0  0  0  0  0  0  0
   12.2833    5.1307    3.3017 H   0  0  0  0  0  0  0  0  0  0  0  0
   13.2839    3.7982    1.9259 C   0  0  0  0  0  0  0  0  0  0  0  0
   13.9090    3.3571    2.6867 H   0  0  0  0  0  0  0  0  0  0  0  0
   13.4098    3.3612    0.6076 C   0  0  0  0  0  0  0  0  0  0  0  0
   14.1324    2.5931    0.3788 H   0  0  0  0  0  0  0  0  0  0  0  0
   12.6386    3.8859   -0.4119 C   0  0  0  0  0  0  0  0  0  0  0  0
   12.7376    3.5615   -1.4355 H   0  0  0  0  0  0  0  0  0  0  0  0
    9.1971    7.3684   -0.2561 C   0  0  0  0  0  0  0  0  0  0  0  0
    8.7827    7.6317   -1.5888 C   0  0  2  0  0  3  0  0  0  0  0  0
    7.6244    8.4638   -1.7747 C   0  0  0  0  0  0  0  0  0  0  0  0
    7.0251    9.0729   -0.6887 C   0  0  0  0  0  0  0  0  0  0  0  0
    6.1668    9.7103   -0.8321 H   0  0  0  0  0  0  0  0  0  0  0  0
    7.5215    8.8729    0.5970 C   0  0  0  0  0  0  0  0  0  0  0  0
    8.5720    8.0205    0.8242 C   0  0  0  0  0  0  0  0  0  0  0  0
    8.9209    7.8299    1.8263 H   0  0  0  0  0  0  0  0  0  0  0  0
    7.1204    8.5024   -3.1248 C   0  0  0  0  0  0  0  0  0  0  0  0
    7.8107    8.0925   -3.8461 H   0  0  0  0  0  0  0  0  0  0  0  0
    5.8968    8.8467   -3.5604 C   0  0  0  0  0  0  0  0  0  0  0  0
    5.1683    9.3079   -2.9062 H   0  0  0  0  0  0  0  0  0  0  0  0
    5.4836    8.5126   -4.8952 C   0  0  0  0  0  0  0  0  0  0  0  0
    4.5066    9.1737   -5.5944 N   0  0  0  0  0  0  0  0  0  0  0  0
    4.2919    8.5328   -6.7853 C   0  0  0  0  0  0  0  0  0  0  0  0
    5.1662    7.4229   -6.8613 C   0  0  0  0  0  0  0  0  0  0  0  0
    5.9210    7.4216   -5.6505 C   0  0  0  0  0  0  0  0  0  0  0  0
    3.3986    8.8220   -7.8095 C   0  0  0  0  0  0  0  0  0  0  0  0
    2.7209    9.6596   -7.7445 H   0  0  0  0  0  0  0  0  0  0  0  0
    3.3979    7.9895   -8.9084 C   0  0  0  0  0  0  0  0  0  0  0  0
    2.7143    8.1853   -9.7211 H   0  0  0  0  0  0  0  0  0  0  0  0
    4.2602    6.8920   -8.9945 C   0  0  0  0  0  0  0  0  0  0  0  0
    4.2234    6.2674   -9.8746 H   0  0  0  0  0  0  0  0  0  0  0  0
    5.1448    6.5953   -7.9829 C   0  0  0  0  0  0  0  0  0  0  0  0
    5.8099    5.7475   -8.0431 H   0  0  0  0  0  0  0  0  0  0  0  0
    3.8175   10.3685   -5.1878 C   0  0  0  0  0  0  0  0  0  0  0  0
    3.8432   11.0905   -6.0121 H   0  0  0  0  0  0  0  0  0  0  0  0
    4.3576   10.8113   -4.3448 H   0  0  0  0  0  0  0  0  0  0  0  0
    2.3822   10.1017   -4.7950 C   0  0  0  0  0  0  0  0  0  0  0  0
    1.4008   11.0488   -5.0543 C   0  0  0  0  0  0  0  0  0  0  0  0
    1.6674   11.9748   -5.5443 H   0  0  0  0  0  0  0  0  0  0  0  0
    0.0871   10.8153   -4.6889 C   0  0  0  0  0  0  0  0  0  0  0  0
   -0.6680   11.5592   -4.8958 H   0  0  0  0  0  0  0  0  0  0  0  0
   -0.2590    9.6287   -4.0654 C   0  0  0  0  0  0  0  0  0  0  0  0
   -1.2850    9.4438   -3.7846 H   0  0  0  0  0  0  0  0  0  0  0  0
    0.7147    8.6797   -3.8058 C   0  0  0  0  0  0  0  0  0  0  0  0
    0.4508    7.7517   -3.3207 H   0  0  0  0  0  0  0  0  0  0  0  0
    2.0295    8.9150   -4.1663 C   0  0  0  0  0  0  0  0  0  0  0  0
    2.7832    8.1677   -3.9635 H   0  0  0  0  0  0  0  0  0  0  0  0
    7.6349    5.6172   -4.8719 C   0  0  0  0  0  0  0  0  0  0  0  0
    6.8638    6.4656   -5.2506 C   0  0  0  0  0  0  0  0  0  0  0  0
  1  6  1  0  0  0  0
  1  8  1  0  0  0  0
  2  1  1  0  0  0  0
  7  5  1  0  0  0  0
  8  9  1  0  0  0  0
  8  7  1  0  0  0  0
  9 10  1  0  0  0  0
 10  5  1  0  0  0  0
 10 11  2  0  0  0  0
 11 12  1  0  0  0  0
 13 11  1  0  0  0  0
 13 14  1  0  0  0  0
 15 13  2  0  0  0  0
 16 15  1  0  0  0  0
 17  9  2  0  0  0  0
 17 15  1  0  0  0  0
 18 17  1  0  0  0  0
 19  7  2  0  0  0  0
 19 25  1  0  0  0  0
 20  6  1  1  0  0  0
 20 19  1  0  0  0  0
 21 20  1  0  0  0  0
 21 22  2  0  0  0  0
 22 24  1  0  0  0  0
 23 22  1  0  0  0  0
 24 25  2  0  0  0  0
 24  4  1  0  0  0  0
 25 26  1  0  0  0  0
 27 21  1  0  0  0  0
 28 27  1  0  0  0  0
 29 27  2  0  0  0  0
 29 30  1  0  0  0  0
 31 29  1  0  0  0  0
 32 44  1  0  0  0  0
 32 31  1  0  0  0  0
 33 32  1  0  0  0  0
 34 33  1  0  0  0  0
 34 35  1  0  0  0  0
 35 59  1  0  0  0  0
 35 31  2  0  0  0  0
 36 37  1  0  0  0  0
 36 33  2  0  0  0  0
 38 36  1  0  0  0  0
 39 38  1  0  0  0  0
 40 38  2  0  0  0  0
 40 42  1  0  0  0  0
 41 40  1  0  0  0  0
 42 34  2  0  0  0  0
 43 42  1  0  0  0  0
 44 47  1  0  0  0  0
 44 46  1  0  0  0  0
 45 44  1  0  0  0  0
 47 56  1  0  0  0  0
 48 47  2  0  0  0  0
 48 50  1  0  0  0  0
 49 48  1  0  0  0  0
 50 52  2  0  0  0  0
 51 50  1  0  0  0  0
 52 54  1  0  0  0  0
 52 53  1  0  0  0  0
 54 55  1  0  0  0  0
 56 57  1  0  0  0  0
 56 54  2  0  0  0  0
 58  3  1  0  0  0  0
 59 58  3  0  0  0  0
M  END
$$$$
