CSD_code = WAPKOO | q = 0 | S = 0 | Stoichiometry = C10H8Cl2N2S2Zn | MND = 4
 OpenBabel04212202113D

 25 27  0  0  1  0  0  0  0  0999 V2000
    4.9115   -0.5192    2.6866 Zn  0  0  0  0  0  0  0  0  0  0  0  0
    6.1165    1.2570    3.1324 Cl  0  0  0  0  0  0  0  0  0  0  0  0
    3.4762   -0.8064    1.0506 Cl  0  0  0  0  0  0  0  0  0  0  0  0
    5.3563   -2.9218    5.0493 S   0  0  0  0  0  0  0  0  0  0  0  0
    4.5417   -3.6338    3.3210 S   0  0  0  0  0  0  0  0  0  0  0  0
    6.3095   -2.0459    2.1226 N   0  0  0  0  0  0  0  0  0  0  0  0
    3.8851   -0.7330    4.5629 N   0  0  0  0  0  0  0  0  0  0  0  0
    5.7887   -3.2643    2.1113 C   0  0  2  0  0  3  0  0  0  0  0  0
    6.1697   -4.2460    1.2086 C   0  0  0  0  0  0  0  0  0  0  0  0
    5.6979   -5.2146    1.2358 H   0  0  0  0  0  0  0  0  0  0  0  0
    7.1535   -3.9303    0.2877 C   0  0  0  0  0  0  0  0  0  0  0  0
    7.4705   -4.6610   -0.4407 H   0  0  0  0  0  0  0  0  0  0  0  0
    7.7328   -2.6689    0.3263 C   0  0  0  0  0  0  0  0  0  0  0  0
    8.5141   -2.3931   -0.3629 H   0  0  0  0  0  0  0  0  0  0  0  0
    7.2763   -1.7551    1.2591 C   0  0  0  0  0  0  0  0  0  0  0  0
    7.6774   -0.7535    1.3302 H   0  0  0  0  0  0  0  0  0  0  0  0
    4.3552   -1.5302    5.5097 C   0  0  2  0  0  3  0  0  0  0  0  0
    4.1052   -1.3306    6.8627 C   0  0  0  0  0  0  0  0  0  0  0  0
    4.5262   -2.0066    7.5890 H   0  0  0  0  0  0  0  0  0  0  0  0
    3.3170   -0.2553    7.2264 C   0  0  0  0  0  0  0  0  0  0  0  0
    3.1071   -0.0614    8.2672 H   0  0  0  0  0  0  0  0  0  0  0  0
    2.7890    0.5580    6.2312 C   0  0  0  0  0  0  0  0  0  0  0  0
    2.1554    1.3954    6.4729 H   0  0  0  0  0  0  0  0  0  0  0  0
    3.1027    0.2837    4.9137 C   0  0  0  0  0  0  0  0  0  0  0  0
    2.7294    0.8895    4.0997 H   0  0  0  0  0  0  0  0  0  0  0  0
  1  2  1  0  0  0  0
  1  7  1  0  0  0  0
  3  1  1  0  0  0  0
  5  4  1  0  0  0  0
  6  1  1  0  0  0  0
  7 24  1  0  0  0  0
  7 17  1  0  0  0  0
  8  9  1  6  0  0  0
  8  6  1  0  0  0  0
  8  5  1  0  0  0  0
  9 10  1  0  0  0  0
 11 13  1  0  0  0  0
 11  9  2  0  0  0  0
 12 11  1  0  0  0  0
 13 15  2  0  0  0  0
 14 13  1  0  0  0  0
 15 16  1  0  0  0  0
 15  6  1  0  0  0  0
 17  4  1  1  0  0  0
 17 18  1  0  0  0  0
 18 20  2  0  0  0  0
 18 19  1  0  0  0  0
 20 21  1  0  0  0  0
 22 23  1  0  0  0  0
 22 20  1  0  0  0  0
 24 22  2  0  0  0  0
 25 24  1  0  0  0  0
M  END
$$$$
