CSD_code = WAPYUH | q = 0 | S = 0 | Stoichiometry = C8H20Cl3O4Y | MND = 7
 OpenBabel04212202113D

 36 33  0  0  0  0  0  0  0  0999 V2000
    1.9762    0.8589    3.1118 Y   0  0  0  0  0  0  0  0  0  0  0  0
    1.5769   -0.9058    1.4284 Cl  0  0  0  0  0  0  0  0  0  0  0  0
    1.5968   -0.4391    5.1620 Cl  0  0  0  0  0  0  0  0  0  0  0  0
    1.8903    3.1529    4.0685 Cl  0  0  0  0  0  0  0  0  0  0  0  0
    3.9408    1.4235    1.4320 O   0  0  0  0  0  0  0  0  0  0  0  0
    4.3894    1.0229    4.1389 O   0  0  0  0  0  0  0  0  0  0  0  0
   -0.5394    0.9245    3.2436 O   0  0  0  0  0  0  0  0  0  0  0  0
    0.8319    2.3908    1.2415 O   0  0  0  0  0  0  0  0  0  0  0  0
    3.9108    0.9411    0.0927 C   0  0  0  0  0  0  0  0  0  0  0  0
    5.2597    1.4259    1.9594 C   0  0  0  0  0  0  0  0  0  0  0  0
    5.2052    1.9211    3.3993 C   0  0  0  0  0  0  0  0  0  0  0  0
    4.4333    1.3022    5.5381 C   0  0  0  0  0  0  0  0  0  0  0  0
   -1.1708    1.5358    4.3679 C   0  0  0  0  0  0  0  0  0  0  0  0
   -1.1280    1.2556    1.9940 C   0  0  0  0  0  0  0  0  0  0  0  0
   -0.5654    2.5651    1.4388 C   0  0  0  0  0  0  0  0  0  0  0  0
    1.4466    3.5950    0.8063 C   0  0  0  0  0  0  0  0  0  0  0  0
    4.4956    1.6002   -0.5590 H   0  0  0  0  0  0  0  0  0  0  0  0
    2.8670    0.9252   -0.2162 H   0  0  0  0  0  0  0  0  0  0  0  0
    4.3078   -0.0767    0.0363 H   0  0  0  0  0  0  0  0  0  0  0  0
    5.9010    2.0871    1.3588 H   0  0  0  0  0  0  0  0  0  0  0  0
    5.6694    0.4049    1.9371 H   0  0  0  0  0  0  0  0  0  0  0  0
    6.2198    1.9370    3.8208 H   0  0  0  0  0  0  0  0  0  0  0  0
    4.7771    2.9346    3.4376 H   0  0  0  0  0  0  0  0  0  0  0  0
    5.4611    1.2115    5.9045 H   0  0  0  0  0  0  0  0  0  0  0  0
    4.0523    2.3076    5.7444 H   0  0  0  0  0  0  0  0  0  0  0  0
    3.7945    0.5638    6.0233 H   0  0  0  0  0  0  0  0  0  0  0  0
   -2.2403    1.3020    4.3696 H   0  0  0  0  0  0  0  0  0  0  0  0
   -0.6983    1.1020    5.2512 H   0  0  0  0  0  0  0  0  0  0  0  0
   -1.0255    2.6208    4.3783 H   0  0  0  0  0  0  0  0  0  0  0  0
   -2.2184    1.3192    2.0893 H   0  0  0  0  0  0  0  0  0  0  0  0
   -0.8581    0.4377    1.3147 H   0  0  0  0  0  0  0  0  0  0  0  0
   -1.0497    2.8058    0.4815 H   0  0  0  0  0  0  0  0  0  0  0  0
   -0.7363    3.3913    2.1452 H   0  0  0  0  0  0  0  0  0  0  0  0
    1.3370    4.3801    1.5619 H   0  0  0  0  0  0  0  0  0  0  0  0
    2.5036    3.3792    0.6667 H   0  0  0  0  0  0  0  0  0  0  0  0
    1.0038    3.9261   -0.1400 H   0  0  0  0  0  0  0  0  0  0  0  0
  1  4  1  0  0  0  0
  1  3  1  0  0  0  0
  2  1  1  0  0  0  0
  5 10  1  0  0  0  0
  6 12  1  0  0  0  0
  7 13  1  0  0  0  0
  8 15  1  0  0  0  0
  9  5  1  0  0  0  0
 10 11  1  0  0  0  0
 11 23  1  0  0  0  0
 11 22  1  0  0  0  0
 11  6  1  0  0  0  0
 12 25  1  0  0  0  0
 12 24  1  0  0  0  0
 12 26  1  0  0  0  0
 13 27  1  0  0  0  0
 13 29  1  0  0  0  0
 13 28  1  0  0  0  0
 14 30  1  0  0  0  0
 14  7  1  0  0  0  0
 15 14  1  0  0  0  0
 15 33  1  0  0  0  0
 16  8  1  0  0  0  0
 16 34  1  0  0  0  0
 17  9  1  0  0  0  0
 18  9  1  0  0  0  0
 19  9  1  0  0  0  0
 20 10  1  0  0  0  0
 21 10  1  0  0  0  0
 31 14  1  0  0  0  0
 32 15  1  0  0  0  0
 35 16  1  0  0  0  0
 36 16  1  0  0  0  0
M  END
$$$$
