CSD_code = WAQCOH | q = 0 | S = 0 | Stoichiometry = C11H20AuClN2 | MND = 2
 OpenBabel04212202113D

 35 35  0  0  1  0  0  0  0  0999 V2000
    0.8405    0.8378    0.0009 Au  0  0  0  0  0  0  0  0  0  0  0  0
   -0.7571   -0.7555    0.0001 Cl  0  0  0  0  0  0  0  0  0  0  0  0
    2.2682    2.2685   -0.0002 C   0  0  1  0  0  3  0  0  0  0  0  0
    2.3657    3.3176    0.8377 N   0  0  0  0  0  0  0  0  0  0  0  0
    3.4750    4.0783    0.5307 C   0  0  0  0  0  0  0  0  0  0  0  0
    3.8644    5.3085    1.2699 C   0  0  0  0  0  0  0  0  0  0  0  0
    4.7694    5.7254    0.8376 H   0  0  0  0  0  0  0  0  0  0  0  0
    4.0594    5.0896    2.3198 H   0  0  0  0  0  0  0  0  0  0  0  0
    3.0813    6.0645    1.2124 H   0  0  0  0  0  0  0  0  0  0  0  0
    1.4439    3.6300    1.9200 C   0  0  0  0  0  0  0  0  0  0  0  0
    1.8248    4.5393    2.3944 H   0  0  0  0  0  0  0  0  0  0  0  0
    1.4283    2.5178    2.9659 C   0  0  0  0  0  0  0  0  0  0  0  0
    1.0069    1.6066    2.5481 H   0  0  0  0  0  0  0  0  0  0  0  0
    0.8234    2.8243    3.8146 H   0  0  0  0  0  0  0  0  0  0  0  0
    2.4375    2.3071    3.3137 H   0  0  0  0  0  0  0  0  0  0  0  0
    0.0464    3.9231    1.3791 C   0  0  0  0  0  0  0  0  0  0  0  0
    0.0867    4.6989    0.6171 H   0  0  0  0  0  0  0  0  0  0  0  0
   -0.5944    4.2619    2.1884 H   0  0  0  0  0  0  0  0  0  0  0  0
   -0.3880    3.0275    0.9414 H   0  0  0  0  0  0  0  0  0  0  0  0
    3.3175    2.3659   -0.8379 N   0  0  0  0  0  0  0  0  0  0  0  0
    4.0782    3.4751   -0.5308 C   0  0  0  0  0  0  0  0  0  0  0  0
    5.3085    3.8645   -1.2699 C   0  0  0  0  0  0  0  0  0  0  0  0
    5.7253    4.7695   -0.8376 H   0  0  0  0  0  0  0  0  0  0  0  0
    5.0897    4.0594   -2.3199 H   0  0  0  0  0  0  0  0  0  0  0  0
    6.0645    3.0814   -1.2123 H   0  0  0  0  0  0  0  0  0  0  0  0
    3.6300    1.4440   -1.9201 C   0  0  0  0  0  0  0  0  0  0  0  0
    4.5394    1.8248   -2.3944 H   0  0  0  0  0  0  0  0  0  0  0  0
    2.5179    1.4284   -2.9661 C   0  0  0  0  0  0  0  0  0  0  0  0
    1.6068    1.0069   -2.5483 H   0  0  0  0  0  0  0  0  0  0  0  0
    2.8245    0.8235   -3.8148 H   0  0  0  0  0  0  0  0  0  0  0  0
    2.3072    2.4375   -3.3139 H   0  0  0  0  0  0  0  0  0  0  0  0
    3.9230    0.0465   -1.3790 C   0  0  0  0  0  0  0  0  0  0  0  0
    4.6987    0.0867   -0.6170 H   0  0  0  0  0  0  0  0  0  0  0  0
    4.2618   -0.5943   -2.1883 H   0  0  0  0  0  0  0  0  0  0  0  0
    3.0274   -0.3880   -0.9414 H   0  0  0  0  0  0  0  0  0  0  0  0
  2  1  1  0  0  0  0
  3  1  1  1  0  0  0
  3  4  1  0  0  0  0
  4 10  1  0  0  0  0
  5  4  1  0  0  0  0
  5  6  1  0  0  0  0
  6  8  1  0  0  0  0
  7  6  1  0  0  0  0
  9  6  1  0  0  0  0
 10 11  1  0  0  0  0
 10 12  1  0  0  0  0
 12 15  1  0  0  0  0
 12 14  1  0  0  0  0
 13 12  1  0  0  0  0
 16 10  1  0  0  0  0
 16 18  1  0  0  0  0
 17 16  1  0  0  0  0
 19 16  1  0  0  0  0
 20 21  1  0  0  0  0
 20  3  1  0  0  0  0
 21  5  2  0  0  0  0
 22 25  1  0  0  0  0
 22 23  1  0  0  0  0
 22 21  1  0  0  0  0
 24 22  1  0  0  0  0
 26 32  1  0  0  0  0
 26 20  1  0  0  0  0
 27 26  1  0  0  0  0
 28 29  1  0  0  0  0
 28 26  1  0  0  0  0
 30 28  1  0  0  0  0
 31 28  1  0  0  0  0
 32 35  1  0  0  0  0
 32 33  1  0  0  0  0
 34 32  1  0  0  0  0
M  END
$$$$
