CSD_code = WAQCAT | q = 0 | S = 0 | Stoichiometry = C21H24AuClN2 | MND = 2
 OpenBabel04212202113D

 49 51  0  0  1  0  0  0  0  0999 V2000
    0.0001   -0.0009    7.2908 Au  0  0  0  0  0  0  0  0  0  0  0  0
    0.0000   -0.0000    5.3043 C   0  0  1  0  0  3  0  0  0  0  0  0
   -0.0012    0.0006    9.5336 Cl  0  0  0  0  0  0  0  0  0  0  0  0
    0.8617   -0.6327    4.4914 N   0  0  0  0  0  0  0  0  0  0  0  0
    0.5457   -0.4009    3.1791 C   0  0  0  0  0  0  0  0  0  0  0  0
    1.1140   -0.8172    2.3730 H   0  0  0  0  0  0  0  0  0  0  0  0
    1.9472   -1.4319    4.9401 C   0  0  0  0  0  0  0  0  0  0  0  0
    1.7484   -2.7980    5.1346 C   0  0  0  0  0  0  0  0  0  0  0  0
    2.8217   -3.5622    5.5611 C   0  0  0  0  0  0  0  0  0  0  0  0
    2.6838   -4.6217    5.7201 H   0  0  0  0  0  0  0  0  0  0  0  0
    4.0675   -2.9949    5.7972 C   0  0  0  0  0  0  0  0  0  0  0  0
    4.2300   -1.6310    5.6037 C   0  0  0  0  0  0  0  0  0  0  0  0
    5.1913   -1.1772    5.7952 H   0  0  0  0  0  0  0  0  0  0  0  0
    3.1810   -0.8307    5.1774 C   0  0  0  0  0  0  0  0  0  0  0  0
    0.3962   -3.4031    4.9126 C   0  0  0  0  0  0  0  0  0  0  0  0
    0.0181   -3.1690    3.9176 H   0  0  0  0  0  0  0  0  0  0  0  0
   -0.3093   -3.0046    5.6424 H   0  0  0  0  0  0  0  0  0  0  0  0
    0.4363   -4.4826    5.0254 H   0  0  0  0  0  0  0  0  0  0  0  0
    5.2019   -3.8455    6.2777 C   0  0  0  0  0  0  0  0  0  0  0  0
    5.0569   -4.0927    7.3292 H   0  0  0  0  0  0  0  0  0  0  0  0
    6.1508   -3.3253    6.1767 H   0  0  0  0  0  0  0  0  0  0  0  0
    5.2476   -4.7784    5.7192 H   0  0  0  0  0  0  0  0  0  0  0  0
    3.3486    0.6474    5.0021 C   0  0  0  0  0  0  0  0  0  0  0  0
    2.9982    0.9711    4.0224 H   0  0  0  0  0  0  0  0  0  0  0  0
    2.7662    1.1744    5.7587 H   0  0  0  0  0  0  0  0  0  0  0  0
    4.3916    0.9305    5.1113 H   0  0  0  0  0  0  0  0  0  0  0  0
   -0.8617    0.6327    4.4914 N   0  0  0  0  0  0  0  0  0  0  0  0
   -0.5456    0.4010    3.1792 C   0  0  0  0  0  0  0  0  0  0  0  0
   -1.1140    0.8174    2.3730 H   0  0  0  0  0  0  0  0  0  0  0  0
   -1.9472    1.4319    4.9402 C   0  0  0  0  0  0  0  0  0  0  0  0
   -1.7483    2.7980    5.1347 C   0  0  0  0  0  0  0  0  0  0  0  0
   -2.8216    3.5622    5.5611 C   0  0  0  0  0  0  0  0  0  0  0  0
   -2.6838    4.6218    5.7202 H   0  0  0  0  0  0  0  0  0  0  0  0
   -4.0674    2.9949    5.7972 C   0  0  0  0  0  0  0  0  0  0  0  0
   -4.2300    1.6310    5.6038 C   0  0  0  0  0  0  0  0  0  0  0  0
   -5.1913    1.1772    5.7954 H   0  0  0  0  0  0  0  0  0  0  0  0
   -3.1810    0.8307    5.1775 C   0  0  0  0  0  0  0  0  0  0  0  0
   -0.3961    3.4030    4.9127 C   0  0  0  0  0  0  0  0  0  0  0  0
   -0.0180    3.1690    3.9177 H   0  0  0  0  0  0  0  0  0  0  0  0
    0.3094    3.0045    5.6425 H   0  0  0  0  0  0  0  0  0  0  0  0
   -0.4362    4.4826    5.0256 H   0  0  0  0  0  0  0  0  0  0  0  0
   -5.2019    3.8456    6.2776 C   0  0  0  0  0  0  0  0  0  0  0  0
   -5.0569    4.0929    7.3291 H   0  0  0  0  0  0  0  0  0  0  0  0
   -6.1508    3.3254    6.1768 H   0  0  0  0  0  0  0  0  0  0  0  0
   -5.2475    4.7784    5.7190 H   0  0  0  0  0  0  0  0  0  0  0  0
   -3.3486   -0.6474    5.0024 C   0  0  0  0  0  0  0  0  0  0  0  0
   -2.9982   -0.9712    4.0227 H   0  0  0  0  0  0  0  0  0  0  0  0
   -2.7661   -1.1744    5.7590 H   0  0  0  0  0  0  0  0  0  0  0  0
   -4.3915   -0.9306    5.1116 H   0  0  0  0  0  0  0  0  0  0  0  0
  1  3  1  0  0  0  0
  2  1  1  6  0  0  0
  4  7  1  0  0  0  0
  4  2  1  0  0  0  0
  5 28  2  0  0  0  0
  5  4  1  0  0  0  0
  6  5  1  0  0  0  0
  7  8  2  0  0  0  0
  7 14  1  0  0  0  0
  8  9  1  0  0  0  0
  9 10  1  0  0  0  0
  9 11  2  0  0  0  0
 11 19  1  0  0  0  0
 12 13  1  0  0  0  0
 12 11  1  0  0  0  0
 14 12  2  0  0  0  0
 15 18  1  0  0  0  0
 15  8  1  0  0  0  0
 15 17  1  0  0  0  0
 16 15  1  0  0  0  0
 19 20  1  0  0  0  0
 21 19  1  0  0  0  0
 22 19  1  0  0  0  0
 23 26  1  0  0  0  0
 23 14  1  0  0  0  0
 23 25  1  0  0  0  0
 24 23  1  0  0  0  0
 27 30  1  0  0  0  0
 27  2  1  0  0  0  0
 28 27  1  0  0  0  0
 29 28  1  0  0  0  0
 30 31  2  0  0  0  0
 30 37  1  0  0  0  0
 31 32  1  0  0  0  0
 32 33  1  0  0  0  0
 32 34  2  0  0  0  0
 34 42  1  0  0  0  0
 35 36  1  0  0  0  0
 35 34  1  0  0  0  0
 37 35  2  0  0  0  0
 38 41  1  0  0  0  0
 38 31  1  0  0  0  0
 38 40  1  0  0  0  0
 39 38  1  0  0  0  0
 42 43  1  0  0  0  0
 44 42  1  0  0  0  0
 45 42  1  0  0  0  0
 46 49  1  0  0  0  0
 46 37  1  0  0  0  0
 46 48  1  0  0  0  0
 47 46  1  0  0  0  0
M  END
$$$$
