CSD_code = WAQDEY | q = 0 | S = 0 | Stoichiometry = C23H32AuClN2 | MND = 2
 OpenBabel04212202113D

 59 65  0  0  1  0  0  0  0  0999 V2000
    1.0566    0.8648    4.4489 Au  0  0  0  0  0  0  0  0  0  0  0  0
    0.7766   -0.3149    6.3575 Cl  0  0  0  0  0  0  0  0  0  0  0  0
   -1.0000    1.6310    1.7902 C   0  0  1  0  0  0  0  0  0  0  0  0
    0.3752    2.1454    1.7689 N   0  0  0  0  0  0  0  0  0  0  0  0
    2.4176    2.5787    2.3261 N   0  0  0  0  0  0  0  0  0  0  0  0
   -0.9744    0.0987    1.8292 C   0  0  0  0  0  0  0  0  0  0  0  0
   -0.4189   -0.2360    2.7077 H   0  0  0  0  0  0  0  0  0  0  0  0
   -0.4611   -0.2785    0.9406 H   0  0  0  0  0  0  0  0  0  0  0  0
   -2.4021   -0.4402    1.8875 C   0  0  2  0  0  0  0  0  0  0  0  0
   -2.3663   -1.5332    1.9348 H   0  0  0  0  0  0  0  0  0  0  0  0
   -3.1629   -0.0046    0.6370 C   0  0  0  0  0  0  0  0  0  0  0  0
   -4.1819   -0.3947    0.6643 H   0  0  0  0  0  0  0  0  0  0  0  0
   -2.6757   -0.4037   -0.2558 H   0  0  0  0  0  0  0  0  0  0  0  0
   -3.1936    1.5207    0.5809 C   0  0  1  0  0  0  0  0  0  0  0  0
   -3.7204    1.8442   -0.3241 H   0  0  0  0  0  0  0  0  0  0  0  0
   -3.9147    2.0618    1.8130 C   0  0  0  0  0  0  0  0  0  0  0  0
   -4.9357    1.6771    1.8431 H   0  0  0  0  0  0  0  0  0  0  0  0
   -3.9692    3.1520    1.7679 H   0  0  0  0  0  0  0  0  0  0  0  0
   -3.1546    1.6269    3.0642 C   0  0  1  0  0  0  0  0  0  0  0  0
   -3.6582    2.0158    3.9548 H   0  0  0  0  0  0  0  0  0  0  0  0
   -3.0985    0.1019    3.1344 C   0  0  0  0  0  0  0  0  0  0  0  0
   -2.5519   -0.2072    4.0270 H   0  0  0  0  0  0  0  0  0  0  0  0
   -4.1098   -0.3038    3.2005 H   0  0  0  0  0  0  0  0  0  0  0  0
   -1.7339    2.1848    3.0169 C   0  0  0  0  0  0  0  0  0  0  0  0
   -1.1966    1.9003    3.9241 H   0  0  0  0  0  0  0  0  0  0  0  0
   -1.7550    3.2767    2.9648 H   0  0  0  0  0  0  0  0  0  0  0  0
   -1.7640    2.0674    0.5350 C   0  0  0  0  0  0  0  0  0  0  0  0
   -1.2664    1.6854   -0.3597 H   0  0  0  0  0  0  0  0  0  0  0  0
   -1.8034    3.1580    0.4790 H   0  0  0  0  0  0  0  0  0  0  0  0
    1.3013    1.9350    2.7283 C   0  0  1  0  0  3  0  0  0  0  0  0
    0.9108    2.9157    0.7742 C   0  0  0  0  0  0  0  0  0  0  0  0
    0.3795    3.2224   -0.0997 H   0  0  0  0  0  0  0  0  0  0  0  0
    2.1891    3.1869    1.1229 C   0  0  0  0  0  0  0  0  0  0  0  0
    2.9165    3.7610    0.5925 H   0  0  0  0  0  0  0  0  0  0  0  0
    3.6851    2.6217    3.0662 C   0  0  1  0  0  0  0  0  0  0  0  0
    4.2267    1.1979    3.2376 C   0  0  0  0  0  0  0  0  0  0  0  0
    3.4893    0.5865    3.7620 H   0  0  0  0  0  0  0  0  0  0  0  0
    4.3965    0.7531    2.2534 H   0  0  0  0  0  0  0  0  0  0  0  0
    5.5278    1.2331    4.0366 C   0  0  2  0  0  0  0  0  0  0  0  0
    5.8914    0.2089    4.1667 H   0  0  0  0  0  0  0  0  0  0  0  0
    5.2659    1.8596    5.4050 C   0  0  0  0  0  0  0  0  0  0  0  0
    4.5196    1.2729    5.9435 H   0  0  0  0  0  0  0  0  0  0  0  0
    6.1845    1.8600    5.9947 H   0  0  0  0  0  0  0  0  0  0  0  0
    4.7654    3.2914    5.2226 C   0  0  1  0  0  0  0  0  0  0  0  0
    4.5822    3.7424    6.2030 H   0  0  0  0  0  0  0  0  0  0  0  0
    5.8065    4.1129    4.4654 C   0  0  0  0  0  0  0  0  0  0  0  0
    5.4576    5.1415    4.3464 H   0  0  0  0  0  0  0  0  0  0  0  0
    6.7421    4.1403    5.0269 H   0  0  0  0  0  0  0  0  0  0  0  0
    6.0419    3.4769    3.0976 C   0  0  1  0  0  0  0  0  0  0  0  0
    6.7734    4.0705    2.5378 H   0  0  0  0  0  0  0  0  0  0  0  0
    6.5687    2.0556    3.2800 C   0  0  0  0  0  0  0  0  0  0  0  0
    6.7696    1.6017    2.3067 H   0  0  0  0  0  0  0  0  0  0  0  0
    7.5062    2.0772    3.8385 H   0  0  0  0  0  0  0  0  0  0  0  0
    4.7308    3.4464    2.3072 C   0  0  0  0  0  0  0  0  0  0  0  0
    4.9185    3.0040    1.3259 H   0  0  0  0  0  0  0  0  0  0  0  0
    4.3749    4.4706    2.1709 H   0  0  0  0  0  0  0  0  0  0  0  0
    3.4577    3.2749    4.4343 C   0  0  0  0  0  0  0  0  0  0  0  0
    3.0854    4.2932    4.2930 H   0  0  0  0  0  0  0  0  0  0  0  0
    2.7021    2.7128    4.9872 H   0  0  0  0  0  0  0  0  0  0  0  0
  1  2  1  0  0  0  0
  3  4  1  6  0  0  0
  3  6  1  0  0  0  0
  3 24  1  0  0  0  0
  4 30  1  0  0  0  0
  5 30  1  0  0  0  0
  6  9  1  0  0  0  0
  6  7  1  0  0  0  0
  8  6  1  0  0  0  0
  9 10  1  1  0  0  0
  9 21  1  0  0  0  0
 11 12  1  0  0  0  0
 11  9  1  0  0  0  0
 13 11  1  0  0  0  0
 14 15  1  6  0  0  0
 14 11  1  0  0  0  0
 14 16  1  0  0  0  0
 16 17  1  0  0  0  0
 16 19  1  0  0  0  0
 18 16  1  0  0  0  0
 19 21  1  0  0  0  0
 19 20  1  1  0  0  0
 21 23  1  0  0  0  0
 21 22  1  0  0  0  0
 24 19  1  0  0  0  0
 24 25  1  0  0  0  0
 26 24  1  0  0  0  0
 27 14  1  0  0  0  0
 27  3  1  0  0  0  0
 28 27  1  0  0  0  0
 29 27  1  0  0  0  0
 30  1  1  1  0  0  0
 31 33  2  0  0  0  0
 31  4  1  0  0  0  0
 32 31  1  0  0  0  0
 33  5  1  0  0  0  0
 34 33  1  0  0  0  0
 35  5  1  6  0  0  0
 35 36  1  0  0  0  0
 35 57  1  0  0  0  0
 36 37  1  0  0  0  0
 36 39  1  0  0  0  0
 38 36  1  0  0  0  0
 39 40  1  1  0  0  0
 39 41  1  0  0  0  0
 41 42  1  0  0  0  0
 41 43  1  0  0  0  0
 44 41  1  0  0  0  0
 44 45  1  1  0  0  0
 46 48  1  0  0  0  0
 46 44  1  0  0  0  0
 47 46  1  0  0  0  0
 49 50  1  6  0  0  0
 49 51  1  0  0  0  0
 49 46  1  0  0  0  0
 51 53  1  0  0  0  0
 51 39  1  0  0  0  0
 52 51  1  0  0  0  0
 54 35  1  0  0  0  0
 54 49  1  0  0  0  0
 55 54  1  0  0  0  0
 56 54  1  0  0  0  0
 57 59  1  0  0  0  0
 57 44  1  0  0  0  0
 58 57  1  0  0  0  0
M  END
$$$$
