CSD_code = WAQLIL | q = -1 | S = 0 | Stoichiometry = C3H6Cl2NO2Pt(1-) | MND = 5
 OpenBabel04212202113D

 15 12  0  0  0  0  0  0  0  0999 V2000
    6.7058    1.7866   18.2463 Pt  0  0  0  0  0  0  0  0  0  0  0  0
    8.1242    2.2752   16.4555 Cl  0  0  0  0  0 15  0  0  0  0  0  0
    5.3770    1.4321   20.1184 Cl  0  0  0  0  0 15  0  0  0  0  0  0
    4.4041    3.1520   17.6349 N   0  0  0  0  0  0  0  0  0  0  0  0
    3.4508    3.6984   18.1644 O   0  0  0  0  0  0  0  0  0  0  0  0
    4.2710    2.2496   16.8103 O   0  0  0  0  0  0  0  0  0  0  0  0
    8.0697    0.2123   18.8901 C   0  0  0  0  0  3  0  0  0  0  0  0
    9.0602    0.4523   18.5169 H   0  0  0  0  0  0  0  0  0  0  0  0
    7.9749    0.1157   19.9671 H   0  0  0  0  0  0  0  0  0  0  0  0
    7.1266   -0.3374   18.0571 C   0  0  0  0  0  0  0  0  0  0  0  0
    6.2723   -0.8689   18.4658 H   0  0  0  0  0  0  0  0  0  0  0  0
    7.3578   -0.5317   17.0140 H   0  0  0  0  0  0  0  0  0  0  0  0
    5.7266    3.5819   17.9345 C   0  0  0  0  0  0  0  0  0  0  0  0
    5.6880    4.3301   18.7345 H   0  0  0  0  0  0  0  0  0  0  0  0
    6.1539    4.0151   17.0206 H   0  0  0  0  0  0  0  0  0  0  0  0
  4 13  1  0  0  0  0
  4  5  2  0  0  0  0
  6  4  2  0  0  0  0
  7  9  1  0  0  0  0
  8  7  1  0  0  0  0
 10  1  1  0  0  0  0
 10 11  1  0  0  0  0
 10  7  1  0  0  0  0
 12 10  1  0  0  0  0
 13  1  1  0  0  0  0
 13 14  1  0  0  0  0
 15 13  1  0  0  0  0
M  END
$$$$
