CSD_code = WAQNAD | q = 0 | S = 0 | Stoichiometry = C14H25Cl2NSSiZr | MND = 9
 OpenBabel04212202113D

 45 46  0  0  1  0  0  0  0  0999 V2000
    7.7941    2.1827   16.3009 Zr  0  0  0  0  0  0  0  0  0  0  0  0
    5.8398   -0.0659   15.7903 Si  0  0  0  0  0  0  0  0  0  0  0  0
    6.6829    3.5124   18.6310 S   0  0  0  0  0  0  0  0  0  0  0  0
    6.3459    0.9516   17.0911 N   0  0  0  0  0  0  0  0  0  0  0  0
    9.6161    2.4230   17.7428 Cl  0  0  0  0  0  0  0  0  0  0  0  0
    7.2635    4.3639   15.6213 Cl  0  0  0  0  0  0  0  0  0  0  0  0
    7.3512    0.4175   14.7421 C   0  0  2  0  0  3  0  0  0  0  0  0
    8.6695    0.2163   15.2723 C   0  0  1  0  0  0  0  0  0  0  0  0
    9.5256    1.2305   14.7732 C   0  0  0  0  0  0  0  0  0  0  0  0
    8.7439    2.0896   13.9503 C   0  0  0  0  0  0  0  0  0  0  0  0
    7.4146    1.5966   13.9385 C   0  0  1  0  0  3  0  0  0  0  0  0
    9.0879   -0.8757   16.2200 C   0  0  0  0  0  0  0  0  0  0  0  0
    8.4365   -1.7398   16.1138 H   0  0  0  0  0  0  0  0  0  0  0  0
    9.0399   -0.5265   17.2611 H   0  0  0  0  0  0  0  0  0  0  0  0
   10.1107   -1.1913   16.0138 H   0  0  0  0  0  0  0  0  0  0  0  0
   11.0133    1.3164   14.9728 C   0  0  0  0  0  0  0  0  0  0  0  0
   11.3530    2.3515   14.9232 H   0  0  0  0  0  0  0  0  0  0  0  0
   11.5352    0.7542   14.1940 H   0  0  0  0  0  0  0  0  0  0  0  0
   11.3019    0.9109   15.9426 H   0  0  0  0  0  0  0  0  0  0  0  0
    9.2632    3.2592   13.1621 C   0  0  0  0  0  0  0  0  0  0  0  0
    8.4590    3.9567   12.9323 H   0  0  0  0  0  0  0  0  0  0  0  0
    9.7090    2.9239   12.2223 H   0  0  0  0  0  0  0  0  0  0  0  0
   10.0293    3.7971   13.7237 H   0  0  0  0  0  0  0  0  0  0  0  0
    6.2955    2.1784   13.1200 C   0  0  0  0  0  0  0  0  0  0  0  0
    6.6613    2.4683   12.1345 H   0  0  0  0  0  0  0  0  0  0  0  0
    5.8759    3.0708   13.5965 H   0  0  0  0  0  0  0  0  0  0  0  0
    5.5048    1.4453   12.9854 H   0  0  0  0  0  0  0  0  0  0  0  0
    5.6728   -1.9323   16.1994 C   0  0  0  0  0  0  0  0  0  0  0  0
    6.3045   -2.2213   17.0328 H   0  0  0  0  0  0  0  0  0  0  0  0
    5.9332   -2.5560   15.3513 H   0  0  0  0  0  0  0  0  0  0  0  0
    4.6488   -2.1645   16.4716 H   0  0  0  0  0  0  0  0  0  0  0  0
    4.1245    0.4683   15.1053 C   0  0  0  0  0  0  0  0  0  0  0  0
    3.3460    0.1939   15.8112 H   0  0  0  0  0  0  0  0  0  0  0  0
    3.8923   -0.0254   14.1684 H   0  0  0  0  0  0  0  0  0  0  0  0
    4.0622    1.5419   14.9474 H   0  0  0  0  0  0  0  0  0  0  0  0
    5.8143    0.8701   18.4317 C   0  0  0  0  0  0  0  0  0  0  0  0
    5.9465   -0.1454   18.8437 H   0  0  0  0  0  0  0  0  0  0  0  0
    4.7303    1.0782   18.4506 H   0  0  0  0  0  0  0  0  0  0  0  0
    6.5232    1.8460   19.3720 C   0  0  0  0  0  0  0  0  0  0  0  0
    7.5583    1.5349   19.5483 H   0  0  0  0  0  0  0  0  0  0  0  0
    5.9962    1.9335   20.3241 H   0  0  0  0  0  0  0  0  0  0  0  0
    5.0216    3.7613   17.9200 C   0  0  0  0  0  0  0  0  0  0  0  0
    4.8729    3.0679   17.0885 H   0  0  0  0  0  0  0  0  0  0  0  0
    5.0093    4.7846   17.5535 H   0  0  0  0  0  0  0  0  0  0  0  0
    4.2700    3.6343   18.6949 H   0  0  0  0  0  0  0  0  0  0  0  0
  1  4  1  0  0  0  0
  1  5  1  0  0  0  0
  2 28  1  0  0  0  0
  2  4  1  0  0  0  0
  3 39  1  0  0  0  0
  4 36  1  0  0  0  0
  6  1  1  0  0  0  0
  7  8  1  0  0  0  0
  7  2  1  1  0  0  0
  8 12  1  1  0  0  0
  8  1  1  0  0  0  0
  9 16  1  0  0  0  0
  9  8  1  0  0  0  0
 10  9  2  0  0  0  0
 11 24  1  6  0  0  0
 11 10  1  0  0  0  0
 11  7  1  0  0  0  0
 12 14  1  0  0  0  0
 13 12  1  0  0  0  0
 15 12  1  0  0  0  0
 16 19  1  0  0  0  0
 17 16  1  0  0  0  0
 18 16  1  0  0  0  0
 20 23  1  0  0  0  0
 20 10  1  0  0  0  0
 21 20  1  0  0  0  0
 22 20  1  0  0  0  0
 24 26  1  0  0  0  0
 25 24  1  0  0  0  0
 27 24  1  0  0  0  0
 28 31  1  0  0  0  0
 28 29  1  0  0  0  0
 30 28  1  0  0  0  0
 32  2  1  0  0  0  0
 32 33  1  0  0  0  0
 34 32  1  0  0  0  0
 35 32  1  0  0  0  0
 36 38  1  0  0  0  0
 36 37  1  0  0  0  0
 36 39  1  0  0  0  0
 39 40  1  0  0  0  0
 39 41  1  0  0  0  0
 42  3  1  0  0  0  0
 42 45  1  0  0  0  0
 43 42  1  0  0  0  0
 44 42  1  0  0  0  0
M  END
$$$$
