CSD_code = WARQUE | q = 0 | S = 0 | Stoichiometry = C15H23IN2O2Pt | MND = 6
 OpenBabel04212202113D

 44 45  0  0  0  0  0  0  0  0999 V2000
   -1.2925    6.1857    4.0504 Pt  0  0  0  0  0  0  0  0  0  0  0  0
   -2.4659    3.7790    3.4644 I   0  0  0  0  0  0  0  0  0  0  0  0
   -0.2180    6.1136    2.0492 N   0  0  0  0  0  0  0  0  0  0  0  0
    0.4609    5.0139    4.9370 N   0  0  0  0  0  0  0  0  0  0  0  0
   -0.9570    4.9833   -1.3304 O   0  0  0  0  0  0  0  0  0  0  0  0
    2.3411    4.8198    8.0537 O   0  0  0  0  0  0  0  0  0  0  0  0
   -2.2615    6.2030    5.8665 C   0  0  0  0  0  0  0  0  0  0  0  0
   -2.0170    7.0625    6.4934 H   0  0  0  0  0  0  0  0  0  0  0  0
   -1.9793    5.2867    6.3939 H   0  0  0  0  0  0  0  0  0  0  0  0
   -3.3433    6.1847    5.7203 H   0  0  0  0  0  0  0  0  0  0  0  0
   -2.8307    7.3137    3.2728 C   0  0  0  0  0  0  0  0  0  0  0  0
   -3.6993    6.6784    3.0884 H   0  0  0  0  0  0  0  0  0  0  0  0
   -2.5033    7.7491    2.3244 H   0  0  0  0  0  0  0  0  0  0  0  0
   -3.1370    8.1265    3.9316 H   0  0  0  0  0  0  0  0  0  0  0  0
   -0.3544    7.9836    4.4512 C   0  0  0  0  0  0  0  0  0  0  0  0
   -0.2316    8.5447    3.5232 H   0  0  0  0  0  0  0  0  0  0  0  0
    0.6402    7.7844    4.8581 H   0  0  0  0  0  0  0  0  0  0  0  0
   -0.8821    8.6259    5.1551 H   0  0  0  0  0  0  0  0  0  0  0  0
   -0.9052    5.7110    0.9864 C   0  0  0  0  0  3  0  0  0  0  0  0
   -1.9702    5.5988    1.1221 H   0  0  0  0  0  0  0  0  0  0  0  0
   -0.3033    5.4239   -0.2387 C   0  0  0  0  0  0  0  0  0  0  0  0
    1.0798    5.6008   -0.3434 C   0  0  0  0  0  0  0  0  0  0  0  0
    1.5682    5.3862   -1.2806 H   0  0  0  0  0  0  0  0  0  0  0  0
    1.7778    6.0421    0.7616 C   0  0  0  0  0  0  0  0  0  0  0  0
    2.8450    6.1916    0.7160 H   0  0  0  0  0  0  0  0  0  0  0  0
    1.0930    6.2831    1.9432 C   0  0  0  0  0  0  0  0  0  0  0  0
    1.6180    6.6219    2.8255 H   0  0  0  0  0  0  0  0  0  0  0  0
    0.8808    5.2988    6.1661 C   0  0  0  0  0  3  0  0  0  0  0  0
    0.3913    6.1303    6.6514 H   0  0  0  0  0  0  0  0  0  0  0  0
    1.8844    4.5747    6.8054 C   0  0  0  0  0  0  0  0  0  0  0  0
    2.4727    3.5137    6.1100 C   0  0  0  0  0  0  0  0  0  0  0  0
    3.2507    2.9403    6.5881 H   0  0  0  0  0  0  0  0  0  0  0  0
    2.0303    3.2316    4.8354 C   0  0  0  0  0  0  0  0  0  0  0  0
    2.4538    2.4172    4.2700 H   0  0  0  0  0  0  0  0  0  0  0  0
    1.0179    4.0039    4.2850 C   0  0  0  0  0  0  0  0  0  0  0  0
    0.6435    3.7840    3.2954 H   0  0  0  0  0  0  0  0  0  0  0  0
   -2.3399    4.7058   -1.2238 C   0  0  0  0  0  0  0  0  0  0  0  0
   -2.6278    4.2909   -2.1877 H   0  0  0  0  0  0  0  0  0  0  0  0
   -2.9151    5.6168   -1.0353 H   0  0  0  0  0  0  0  0  0  0  0  0
   -2.5415    3.9740   -0.4370 H   0  0  0  0  0  0  0  0  0  0  0  0
    1.7443    5.8553    8.8029 C   0  0  0  0  0  0  0  0  0  0  0  0
    1.8887    6.8300    8.3267 H   0  0  0  0  0  0  0  0  0  0  0  0
    2.2508    5.8473    9.7663 H   0  0  0  0  0  0  0  0  0  0  0  0
    0.6758    5.6758    8.9534 H   0  0  0  0  0  0  0  0  0  0  0  0
  1 15  1  0  0  0  0
  1  4  1  0  0  0  0
  1  7  1  0  0  0  0
  2  1  1  0  0  0  0
  3  1  1  0  0  0  0
  4 28  1  0  0  0  0
  5 37  1  0  0  0  0
  5 21  1  0  0  0  0
  6 41  1  0  0  0  0
  7  9  1  0  0  0  0
  7  8  1  0  0  0  0
 10  7  1  0  0  0  0
 11 14  1  0  0  0  0
 11  1  1  0  0  0  0
 12 11  1  0  0  0  0
 13 11  1  0  0  0  0
 15 17  1  0  0  0  0
 15 18  1  0  0  0  0
 16 15  1  0  0  0  0
 19 20  1  0  0  0  0
 19  3  1  0  0  0  0
 21 19  1  0  0  0  0
 22 21  2  0  0  0  0
 22 24  1  0  0  0  0
 23 22  1  0  0  0  0
 24 26  2  0  0  0  0
 25 24  1  0  0  0  0
 26  3  1  0  0  0  0
 26 27  1  0  0  0  0
 28 29  1  0  0  0  0
 28 30  1  0  0  0  0
 30  6  1  0  0  0  0
 31 32  1  0  0  0  0
 31 30  2  0  0  0  0
 33 31  1  0  0  0  0
 34 33  1  0  0  0  0
 35 33  2  0  0  0  0
 35  4  1  0  0  0  0
 36 35  1  0  0  0  0
 37 39  1  0  0  0  0
 37 40  1  0  0  0  0
 38 37  1  0  0  0  0
 41 44  1  0  0  0  0
 41 43  1  0  0  0  0
 42 41  1  0  0  0  0
M  END
$$$$
