CSD_code = WARVUI | q = 0 | S = 0 | Stoichiometry = C20H20Cl2N4O2Pd | MND = 4
 OpenBabel04212202113D

 49 52  0  0  1  0  0  0  0  0999 V2000
    1.1542    0.0002    9.0535 Pd  0  0  0  0  0  0  0  0  0  0  0  0
    0.5186    0.4090   11.2218 Cl  0  0  0  0  0  0  0  0  0  0  0  0
    3.5637    1.5158    8.6410 O   0  0  0  0  0  0  0  0  0  0  0  0
    2.2755    1.5887    9.0779 N   0  0  0  0  0  0  0  0  0  0  0  0
    0.7599    3.2180    9.7798 N   0  0  0  0  0  0  0  0  0  0  0  0
    0.6838    4.0907   10.2756 H   0  0  0  0  0  0  0  0  0  0  0  0
    0.1978    2.4468   10.1497 H   0  0  0  0  0  0  0  0  0  0  0  0
    4.0968    2.7514    8.6822 C   0  0  2  0  0  3  0  0  0  0  0  0
    3.1550    3.6344    9.1486 C   0  0  0  0  0  0  0  0  0  0  0  0
    3.2462    4.6893    9.2934 H   0  0  0  0  0  0  0  0  0  0  0  0
    5.4682    2.9270    8.2518 C   0  0  0  0  0  0  0  0  0  0  0  0
    7.4625    2.0135    7.2638 C   0  0  0  0  0  0  0  0  0  0  0  0
    7.9877    1.1788    6.8229 H   0  0  0  0  0  0  0  0  0  0  0  0
    1.9998    2.8452    9.3859 C   0  0  0  0  0  0  0  0  0  0  0  0
    7.4216    4.3004    7.9628 C   0  0  0  0  0  0  0  0  0  0  0  0
    7.9126    5.2566    8.0729 H   0  0  0  0  0  0  0  0  0  0  0  0
    8.1142    3.2368    7.3957 C   0  0  0  0  0  0  0  0  0  0  0  0
    6.1593    1.8543    7.6837 C   0  0  0  0  0  0  0  0  0  0  0  0
    5.6572    0.9061    7.5709 H   0  0  0  0  0  0  0  0  0  0  0  0
    9.5333    3.3881    6.9453 C   0  0  0  0  0  0  0  0  0  0  0  0
   10.1985    2.8513    7.6217 H   0  0  0  0  0  0  0  0  0  0  0  0
    9.8302    4.4335    6.9300 H   0  0  0  0  0  0  0  0  0  0  0  0
    9.6652    2.9687    5.9496 H   0  0  0  0  0  0  0  0  0  0  0  0
    6.1158    4.1546    8.3868 C   0  0  0  0  0  0  0  0  0  0  0  0
    5.5966    4.9915    8.8269 H   0  0  0  0  0  0  0  0  0  0  0  0
    1.7900   -0.4096    6.8851 Cl  0  0  0  0  0  0  0  0  0  0  0  0
   -1.2551   -1.5157    9.4664 O   0  0  0  0  0  0  0  0  0  0  0  0
    0.0332   -1.5885    9.0297 N   0  0  0  0  0  0  0  0  0  0  0  0
    1.5488   -3.2178    8.3276 N   0  0  0  0  0  0  0  0  0  0  0  0
    1.6249   -4.0904    7.8316 H   0  0  0  0  0  0  0  0  0  0  0  0
    2.1108   -2.4466    7.9578 H   0  0  0  0  0  0  0  0  0  0  0  0
   -1.7882   -2.7514    9.4252 C   0  0  1  0  0  3  0  0  0  0  0  0
   -0.8463   -3.6342    8.9587 C   0  0  0  0  0  0  0  0  0  0  0  0
   -0.9375   -4.6891    8.8138 H   0  0  0  0  0  0  0  0  0  0  0  0
   -3.1596   -2.9270    9.8554 C   0  0  0  0  0  0  0  0  0  0  0  0
   -5.1540   -2.0136   10.8433 C   0  0  0  0  0  0  0  0  0  0  0  0
   -5.6793   -1.1788   11.2841 H   0  0  0  0  0  0  0  0  0  0  0  0
    0.3089   -2.8451    8.7215 C   0  0  0  0  0  0  0  0  0  0  0  0
   -5.1129   -4.3005   10.1444 C   0  0  0  0  0  0  0  0  0  0  0  0
   -5.6039   -5.2567   10.0343 H   0  0  0  0  0  0  0  0  0  0  0  0
   -5.8056   -3.2369   10.7114 C   0  0  0  0  0  0  0  0  0  0  0  0
   -3.8508   -1.8543   10.4234 C   0  0  0  0  0  0  0  0  0  0  0  0
   -3.3488   -0.9060   10.5362 H   0  0  0  0  0  0  0  0  0  0  0  0
   -7.2247   -3.3882   11.1618 C   0  0  0  0  0  0  0  0  0  0  0  0
   -7.8899   -2.8515   10.4853 H   0  0  0  0  0  0  0  0  0  0  0  0
   -7.5216   -4.4337   11.1771 H   0  0  0  0  0  0  0  0  0  0  0  0
   -7.3567   -2.9689   12.1574 H   0  0  0  0  0  0  0  0  0  0  0  0
   -3.8072   -4.1546    9.7204 C   0  0  0  0  0  0  0  0  0  0  0  0
   -3.2879   -4.9915    9.2805 H   0  0  0  0  0  0  0  0  0  0  0  0
  1  4  1  0  0  0  0
  1  2  1  0  0  0  0
  3  8  1  0  0  0  0
  3  4  1  0  0  0  0
  4 14  1  0  0  0  0
  5  7  1  0  0  0  0
  5  6  1  0  0  0  0
  8 11  1  6  0  0  0
  8  9  1  0  0  0  0
  9 10  1  0  0  0  0
  9 14  2  0  0  0  0
 11 24  1  0  0  0  0
 12 17  2  0  0  0  0
 12 18  1  0  0  0  0
 13 12  1  0  0  0  0
 14  5  1  0  0  0  0
 15 16  1  0  0  0  0
 15 24  2  0  0  0  0
 17 15  1  0  0  0  0
 18 11  2  0  0  0  0
 19 18  1  0  0  0  0
 20 17  1  0  0  0  0
 20 21  1  0  0  0  0
 22 20  1  0  0  0  0
 23 20  1  0  0  0  0
 24 25  1  0  0  0  0
 26  1  1  0  0  0  0
 28  1  1  0  0  0  0
 28 27  1  0  0  0  0
 29 38  1  0  0  0  0
 30 29  1  0  0  0  0
 31 29  1  0  0  0  0
 32 27  1  0  0  0  0
 32 35  1  1  0  0  0
 33 32  1  0  0  0  0
 34 33  1  0  0  0  0
 35 42  1  0  0  0  0
 36 37  1  0  0  0  0
 38 33  2  0  0  0  0
 38 28  1  0  0  0  0
 39 41  2  0  0  0  0
 40 39  1  0  0  0  0
 41 36  1  0  0  0  0
 41 44  1  0  0  0  0
 42 43  1  0  0  0  0
 42 36  2  0  0  0  0
 44 46  1  0  0  0  0
 44 47  1  0  0  0  0
 45 44  1  0  0  0  0
 48 35  2  0  0  0  0
 48 39  1  0  0  0  0
 49 48  1  0  0  0  0
M  END
$$$$
