CSD_code = WARWAN | q = 0 | S = 0 | Stoichiometry = C12H18Cl2OTi | MND = 9
 OpenBabel04212202113D

 34 31  0  0  1  0  0  0  0  0999 V2000
    0.2889    0.9187    2.9692 Ti  0  0  0  0  0  0  0  0  0  0  0  0
    1.9202    1.1911    1.5347 Cl  0  0  0  0  0 15  0  0  0  0  0  0
    1.6813    0.7543    4.6719 Cl  0  0  0  0  0 15  0  0  0  0  0  0
   -0.1905   -0.7333    2.0122 O   0  0  0  0  0  0  0  0  0  0  0  0
   -0.2615   -0.9595    3.2286 C   0  0  0  0  0  2  0  0  0  0  0  0
   -0.4305   -2.3495    3.7507 C   0  0  0  0  0  0  0  0  0  0  0  0
   -1.9043    1.3740    3.5119 C   0  0  0  0  0  0  0  0  0  0  0  0
   -1.0412    2.1868    4.3031 C   0  0  1  0  0  3  0  0  0  0  0  0
   -0.2971    3.0231    3.4200 C   0  0  0  0  0  0  0  0  0  0  0  0
   -0.7240    2.7440    2.0844 C   0  0  0  0  0  0  0  0  0  0  0  0
   -1.7105    1.7245    2.1452 C   0  0  0  0  0  0  0  0  0  0  0  0
   -2.9859    0.4731    4.0338 C   0  0  0  0  0  0  0  0  0  0  0  0
   -1.0303    2.2279    5.8020 C   0  0  0  0  0  0  0  0  0  0  0  0
    0.6897    4.0823    3.8188 C   0  0  0  0  0  0  0  0  0  0  0  0
   -0.3207    3.4963    0.8514 C   0  0  0  0  0  0  0  0  0  0  0  0
   -2.5068    1.1847    0.9942 C   0  0  0  0  0  0  0  0  0  0  0  0
   -1.2335   -2.3787    4.4850 H   0  0  0  0  0  0  0  0  0  0  0  0
    0.4939   -2.6123    4.2695 H   0  0  0  0  0  0  0  0  0  0  0  0
   -0.6190   -3.0613    2.9427 H   0  0  0  0  0  0  0  0  0  0  0  0
   -2.7052    0.0379    4.9915 H   0  0  0  0  0  0  0  0  0  0  0  0
   -3.2028   -0.3294    3.3295 H   0  0  0  0  0  0  0  0  0  0  0  0
   -3.9043    1.0471    4.1805 H   0  0  0  0  0  0  0  0  0  0  0  0
   -0.1029    2.6581    6.1735 H   0  0  0  0  0  0  0  0  0  0  0  0
   -1.1264    1.2249    6.2170 H   0  0  0  0  0  0  0  0  0  0  0  0
   -1.8641    2.8345    6.1634 H   0  0  0  0  0  0  0  0  0  0  0  0
    1.1262    3.8556    4.7912 H   0  0  0  0  0  0  0  0  0  0  0  0
    0.1991    5.0570    3.8776 H   0  0  0  0  0  0  0  0  0  0  0  0
    1.4995    4.1471    3.0905 H   0  0  0  0  0  0  0  0  0  0  0  0
    0.6103    4.0352    1.0127 H   0  0  0  0  0  0  0  0  0  0  0  0
   -1.0970    4.2190    0.5880 H   0  0  0  0  0  0  0  0  0  0  0  0
   -0.1776    2.8198    0.0090 H   0  0  0  0  0  0  0  0  0  0  0  0
   -2.0979    1.5303    0.0474 H   0  0  0  0  0  0  0  0  0  0  0  0
   -3.5442    1.5189    1.0653 H   0  0  0  0  0  0  0  0  0  0  0  0
   -2.5030    0.0926    0.9903 H   0  0  0  0  0  0  0  0  0  0  0  0
  4  1  1  0  0  0  0
  4  5  1  0  0  0  0
  5  6  1  0  0  0  0
  6 18  1  0  0  0  0
  6 17  1  0  0  0  0
  7 12  1  0  0  0  0
  7  8  1  0  0  0  0
  8 13  1  1  0  0  0
  9 14  1  0  0  0  0
  9  8  1  0  0  0  0
 10 11  1  0  0  0  0
 10  9  2  0  0  0  0
 11  7  2  0  0  0  0
 12 22  1  0  0  0  0
 12 20  1  0  0  0  0
 13 25  1  0  0  0  0
 13 23  1  0  0  0  0
 13 24  1  0  0  0  0
 14 27  1  0  0  0  0
 14 26  1  0  0  0  0
 15 29  1  0  0  0  0
 15 10  1  0  0  0  0
 16 33  1  0  0  0  0
 16 11  1  0  0  0  0
 19  6  1  0  0  0  0
 21 12  1  0  0  0  0
 28 14  1  0  0  0  0
 30 15  1  0  0  0  0
 31 15  1  0  0  0  0
 32 16  1  0  0  0  0
 34 16  1  0  0  0  0
M  END
$$$$
