CSD_code = WARZUL | q = 0 | S = 0 | Stoichiometry = C18H29Cl2N4Ta | MND = 6
 OpenBabel04212202113D

 54 55  0  0  0  0  0  0  0  0999 V2000
    6.3074    2.0678   13.3794 N   0  0  0  0  0  0  0  0  0  0  0  0
    5.2456    1.5773   14.0057 C   0  0  0  0  0  3  0  0  0  0  0  0
    4.3146    1.6058   13.4550 H   0  0  0  0  0  0  0  0  0  0  0  0
    5.3162    1.0372   15.2803 C   0  0  0  0  0  0  0  0  0  0  0  0
    4.4286    0.6430   15.7489 H   0  0  0  0  0  0  0  0  0  0  0  0
    6.5431    1.0021   15.9231 C   0  0  0  0  0  0  0  0  0  0  0  0
    6.6379    0.5763   16.9109 H   0  0  0  0  0  0  0  0  0  0  0  0
    7.6496    1.5182   15.2657 C   0  0  0  0  0  0  0  0  0  0  0  0
    8.6257    1.5076   15.7247 H   0  0  0  0  0  0  0  0  0  0  0  0
    7.4836    2.0386   13.9935 C   0  0  0  0  0  0  0  0  0  0  0  0
    8.3153    2.4438   13.4330 H   0  0  0  0  0  0  0  0  0  0  0  0
    6.3250    1.9800    8.4949 N   0  0  0  0  0  0  0  0  0  0  0  0
    7.4655    1.5997    7.9338 C   0  0  0  0  0  3  0  0  0  0  0  0
    8.3609    1.7721    8.5155 H   0  0  0  0  0  0  0  0  0  0  0  0
    7.5198    1.0056    6.6839 C   0  0  0  0  0  0  0  0  0  0  0  0
    8.4680    0.7036    6.2678 H   0  0  0  0  0  0  0  0  0  0  0  0
    6.3352    0.7965    5.9948 C   0  0  0  0  0  0  0  0  0  0  0  0
    6.3387    0.3236    5.0240 H   0  0  0  0  0  0  0  0  0  0  0  0
    5.1467    1.2012    6.5821 C   0  0  0  0  0  0  0  0  0  0  0  0
    4.2007    1.0559    6.0853 H   0  0  0  0  0  0  0  0  0  0  0  0
    5.1886    1.7868    7.8373 C   0  0  0  0  0  0  0  0  0  0  0  0
    4.2894    2.1051    8.3471 H   0  0  0  0  0  0  0  0  0  0  0  0
    8.6633    4.4975   10.8680 C   0  0  0  0  0  0  0  0  0  0  0  0
    8.2283    5.1430    9.5429 C   0  0  0  0  0  0  0  0  0  0  0  0
    7.1474    5.0691    9.4747 H   0  0  0  0  0  0  0  0  0  0  0  0
    8.6706    4.6101    8.7037 H   0  0  0  0  0  0  0  0  0  0  0  0
    8.5344    6.1847    9.4988 H   0  0  0  0  0  0  0  0  0  0  0  0
   10.1952    4.4648   10.9467 C   0  0  0  0  0  0  0  0  0  0  0  0
   10.5984    5.4743   10.9140 H   0  0  0  0  0  0  0  0  0  0  0  0
   10.6094    3.9027   10.1115 H   0  0  0  0  0  0  0  0  0  0  0  0
   10.5206    3.9958   11.8739 H   0  0  0  0  0  0  0  0  0  0  0  0
    8.1048    5.3187   12.0393 C   0  0  0  0  0  0  0  0  0  0  0  0
    8.3588    6.3697   11.9306 H   0  0  0  0  0  0  0  0  0  0  0  0
    8.5077    4.9573   12.9828 H   0  0  0  0  0  0  0  0  0  0  0  0
    7.0267    5.1915   12.0474 H   0  0  0  0  0  0  0  0  0  0  0  0
    4.3135    4.8394   10.9425 C   0  0  0  0  0  0  0  0  0  0  0  0
    4.7443    6.2233   10.4189 C   0  0  0  0  0  0  0  0  0  0  0  0
    5.0718    6.1419    9.3861 H   0  0  0  0  0  0  0  0  0  0  0  0
    5.5617    6.6184   11.0137 H   0  0  0  0  0  0  0  0  0  0  0  0
    3.9057    6.9139   10.4670 H   0  0  0  0  0  0  0  0  0  0  0  0
    3.1277    4.3319   10.0951 C   0  0  0  0  0  0  0  0  0  0  0  0
    3.3977    4.3528    9.0423 H   0  0  0  0  0  0  0  0  0  0  0  0
    2.2489    4.9521   10.2508 H   0  0  0  0  0  0  0  0  0  0  0  0
    2.9071    3.3077   10.3831 H   0  0  0  0  0  0  0  0  0  0  0  0
    3.8593    4.9677   12.4114 C   0  0  0  0  0  0  0  0  0  0  0  0
    3.5150    3.9974   12.7576 H   0  0  0  0  0  0  0  0  0  0  0  0
    3.0538    5.6920   12.5019 H   0  0  0  0  0  0  0  0  0  0  0  0
    4.6968    5.2805   13.0298 H   0  0  0  0  0  0  0  0  0  0  0  0
    8.1051    3.1603   10.9296 N   0  0  0  0  0  0  0  0  0  0  0  0
    5.3368    3.8796   10.8853 N   0  0  0  0  0  2  0  0  0  0  0  0
    4.3418    1.0244   10.8995 Cl  0  0  0  0  0  0  0  0  0  0  0  0
    7.4766    0.3286   11.0185 Cl  0  0  0  0  0  0  0  0  0  0  0  0
    6.2947    2.3688   10.9239 Ta  0  0  0  0  0  0  0  0  0  0  0  0
    8.8632    2.4878   10.9412 H   0  0  0  0  0  0  0  0  0  0  0  0
  1 10  1  0  0  0  0
  1  2  1  0  0  0  0
  2  4  1  0  0  0  0
  3  2  1  0  0  0  0
  4  5  1  0  0  0  0
  4  6  2  0  0  0  0
  6  7  1  0  0  0  0
  8  9  1  0  0  0  0
  8  6  1  0  0  0  0
 10  8  2  0  0  0  0
 11 10  1  0  0  0  0
 12 53  1  0  0  0  0
 13 12  1  0  0  0  0
 13 14  1  0  0  0  0
 15 13  1  0  0  0  0
 16 15  1  0  0  0  0
 17 19  1  0  0  0  0
 17 15  2  0  0  0  0
 18 17  1  0  0  0  0
 19 21  2  0  0  0  0
 20 19  1  0  0  0  0
 21 22  1  0  0  0  0
 21 12  1  0  0  0  0
 23 49  1  0  0  0  0
 23 28  1  0  0  0  0
 23 32  1  0  0  0  0
 24 23  1  0  0  0  0
 25 24  1  0  0  0  0
 26 24  1  0  0  0  0
 27 24  1  0  0  0  0
 28 31  1  0  0  0  0
 29 28  1  0  0  0  0
 30 28  1  0  0  0  0
 32 35  1  0  0  0  0
 32 34  1  0  0  0  0
 33 32  1  0  0  0  0
 36 45  1  0  0  0  0
 37 40  1  0  0  0  0
 37 36  1  0  0  0  0
 37 39  1  0  0  0  0
 38 37  1  0  0  0  0
 41 43  1  0  0  0  0
 41 44  1  0  0  0  0
 41 36  1  0  0  0  0
 42 41  1  0  0  0  0
 45 47  1  0  0  0  0
 45 46  1  0  0  0  0
 45 48  1  0  0  0  0
 49 54  1  0  0  0  0
 50 53  1  0  0  0  0
 50 36  1  0  0  0  0
 51 53  1  0  0  0  0
 53 49  1  0  0  0  0
 53 52  1  0  0  0  0
 53  1  1  0  0  0  0
M  END
$$$$
