CSD_code = WASGAB | q = 0 | S = 0 | Stoichiometry = C12H12Cl4N2Zn | MND = 4
 OpenBabel04212202113D

 31 32  0  0  0  0  0  0  0  0999 V2000
   -1.1784    0.3099    2.8577 Zn  0  0  0  0  0  0  0  0  0  0  0  0
    0.3846    1.0912    1.5570 Cl  0  0  0  0  0  0  0  0  0  0  0  0
   -5.7149    3.3615   -1.1260 Cl  0  0  0  0  0  0  0  0  0  0  0  0
   -2.3706   -0.8645    1.3203 N   0  0  0  0  0  4  0  0  0  0  0  0
   -3.1926    0.1305    0.7066 C   0  0  0  0  0  0  0  0  0  0  0  0
   -4.4757    0.3661    1.1836 C   0  0  0  0  0  0  0  0  0  0  0  0
   -5.2524    1.3634    0.6241 C   0  0  0  0  0  0  0  0  0  0  0  0
   -4.7432    2.1217   -0.4184 C   0  0  0  0  0  0  0  0  0  0  0  0
   -3.4628    1.8961   -0.8995 C   0  0  0  0  0  0  0  0  0  0  0  0
   -2.6891    0.8986   -0.3363 C   0  0  0  0  0  0  0  0  0  0  0  0
   -1.7123   -1.2485    0.6476 H   0  0  0  0  0  0  0  0  0  0  0  0
   -4.8597   -0.2147    2.0087 H   0  0  0  0  0  0  0  0  0  0  0  0
   -2.9400   -1.6058    1.7184 H   0  0  0  0  0  0  0  0  0  0  0  0
   -6.2457    1.5536    0.9977 H   0  0  0  0  0  0  0  0  0  0  0  0
   -3.0728    2.4972   -1.7052 H   0  0  0  0  0  0  0  0  0  0  0  0
   -1.6840    0.7294   -0.6927 H   0  0  0  0  0  0  0  0  0  0  0  0
   -2.7415    1.0913    4.1585 Cl  0  0  0  0  0  0  0  0  0  0  0  0
    3.3580    3.3614    6.8417 Cl  0  0  0  0  0  0  0  0  0  0  0  0
    0.0136   -0.8645    4.3953 N   0  0  0  0  0  4  0  0  0  0  0  0
    0.8356    0.1305    5.0090 C   0  0  0  0  0  0  0  0  0  0  0  0
    2.1187    0.3661    4.5320 C   0  0  0  0  0  0  0  0  0  0  0  0
    2.8954    1.3634    5.0915 C   0  0  0  0  0  0  0  0  0  0  0  0
    2.3862    2.1218    6.1339 C   0  0  0  0  0  0  0  0  0  0  0  0
    1.1058    1.8962    6.6150 C   0  0  0  0  0  0  0  0  0  0  0  0
    0.3322    0.8986    6.0519 C   0  0  0  0  0  0  0  0  0  0  0  0
   -0.6448   -1.2484    5.0679 H   0  0  0  0  0  0  0  0  0  0  0  0
    2.5027   -0.2146    3.7068 H   0  0  0  0  0  0  0  0  0  0  0  0
    0.5830   -1.6058    3.9973 H   0  0  0  0  0  0  0  0  0  0  0  0
    3.8887    1.5536    4.7179 H   0  0  0  0  0  0  0  0  0  0  0  0
    0.7159    2.4972    7.4208 H   0  0  0  0  0  0  0  0  0  0  0  0
   -0.6730    0.7295    6.4083 H   0  0  0  0  0  0  0  0  0  0  0  0
  1 17  1  0  0  0  0
  1 19  1  0  0  0  0
  2  1  1  0  0  0  0
  3  8  1  0  0  0  0
  4 13  1  0  0  0  0
  4  1  1  0  0  0  0
  5  6  1  0  0  0  0
  5  4  1  0  0  0  0
  6 12  1  0  0  0  0
  7 14  1  0  0  0  0
  7  6  2  0  0  0  0
  8  7  1  0  0  0  0
  9  8  2  0  0  0  0
  9 10  1  0  0  0  0
 10  5  2  0  0  0  0
 11  4  1  0  0  0  0
 15  9  1  0  0  0  0
 16 10  1  0  0  0  0
 19 20  1  0  0  0  0
 19 26  1  0  0  0  0
 20 25  1  0  0  0  0
 21 20  2  0  0  0  0
 21 22  1  0  0  0  0
 22 23  2  0  0  0  0
 23 24  1  0  0  0  0
 23 18  1  0  0  0  0
 24 30  1  0  0  0  0
 25 31  1  0  0  0  0
 25 24  2  0  0  0  0
 27 21  1  0  0  0  0
 28 19  1  0  0  0  0
 29 22  1  0  0  0  0
M  END
$$$$
