CSD_code = WATDUQ | q = 1 | S = 0 | Stoichiometry = C11H21ClN5Zn(1+) | MND = 5
 OpenBabel04212202113D

 39 43  0  0  1  0  0  0  0  0999 V2000
    2.6677    0.7135   -1.4667 Zn  0  0  0  0  0  0  0  0  0  0  0  0
    2.4715    2.5235   -2.9005 N   0  0  1  0  0  4  0  0  0  0  0  0
    0.9452    1.6609   -0.6581 N   0  0  2  0  0  4  0  0  0  0  0  0
    0.2186    0.9689   -0.4958 H   0  0  0  0  0  0  0  0  0  0  0  0
    3.6661    2.3368   -0.4044 N   0  0  2  0  0  4  0  0  0  0  0  0
    4.4175    1.9021    0.1233 H   0  0  0  0  0  0  0  0  0  0  0  0
    2.5660   -0.1738   -3.3074 N   0  0  0  0  0  0  0  0  0  0  0  0
    2.7572   -0.0928   -5.4886 N   0  0  0  0  0  0  0  0  0  0  0  0
    3.0990   -0.8640   -0.0732 Cl  0  0  0  0  0  0  0  0  0  0  0  0
    1.0170    2.6774   -2.9149 C   0  0  0  0  0  0  0  0  0  0  0  0
    0.7149    3.5758   -3.4702 H   0  0  0  0  0  0  0  0  0  0  0  0
    0.6056    1.8024   -3.4217 H   0  0  0  0  0  0  0  0  0  0  0  0
    0.4191    2.7388   -1.5031 C   0  0  0  0  0  0  0  0  0  0  0  0
   -0.6682    2.6756   -1.5987 H   0  0  0  0  0  0  0  0  0  0  0  0
    0.6452    3.6998   -1.0397 H   0  0  0  0  0  0  0  0  0  0  0  0
    1.4347    2.0930    0.6573 C   0  0  0  0  0  0  0  0  0  0  0  0
    0.6771    2.6686    1.2012 H   0  0  0  0  0  0  0  0  0  0  0  0
    1.6642    1.1877    1.2219 H   0  0  0  0  0  0  0  0  0  0  0  0
    2.7120    2.9363    0.5395 C   0  0  0  0  0  0  0  0  0  0  0  0
    3.1470    3.0262    1.5377 H   0  0  0  0  0  0  0  0  0  0  0  0
    2.4644    3.9441    0.2029 H   0  0  0  0  0  0  0  0  0  0  0  0
    4.2372    3.2822   -1.3623 C   0  0  0  0  0  0  0  0  0  0  0  0
    4.6305    4.1807   -0.8716 H   0  0  0  0  0  0  0  0  0  0  0  0
    5.0622    2.7781   -1.8705 H   0  0  0  0  0  0  0  0  0  0  0  0
    3.1783    3.6984   -2.3936 C   0  0  0  0  0  0  0  0  0  0  0  0
    3.6633    4.2572   -3.1998 H   0  0  0  0  0  0  0  0  0  0  0  0
    2.4612    4.3732   -1.9284 H   0  0  0  0  0  0  0  0  0  0  0  0
    2.9629    2.0858   -4.2035 C   0  0  0  0  0  0  0  0  0  0  0  0
    4.0378    2.2869   -4.2592 H   0  0  0  0  0  0  0  0  0  0  0  0
    2.4752    2.6311   -5.0262 H   0  0  0  0  0  0  0  0  0  0  0  0
    2.7517    0.6175   -4.3485 C   0  0  2  0  0  3  0  0  0  0  0  0
    2.4476   -1.4421   -3.7890 C   0  0  0  0  0  0  0  0  0  0  0  0
    2.2935   -2.2739   -3.1331 H   0  0  0  0  0  0  0  0  0  0  0  0
    2.5647   -1.4027   -5.1447 C   0  0  0  0  0  0  0  0  0  0  0  0
    2.5283   -2.1833   -5.8754 H   0  0  0  0  0  0  0  0  0  0  0  0
    2.9474    0.4161   -6.8203 C   0  0  0  0  0  0  0  0  0  0  0  0
    2.1450    1.1065   -7.0864 H   0  0  0  0  0  0  0  0  0  0  0  0
    2.9422   -0.4137   -7.5232 H   0  0  0  0  0  0  0  0  0  0  0  0
    3.9023    0.9378   -6.8977 H   0  0  0  0  0  0  0  0  0  0  0  0
  1  3  1  0  0  0  0
  1  5  1  0  0  0  0
  1  9  1  0  0  0  0
  2 28  1  6  0  0  0
  2 25  1  0  0  0  0
  2  1  1  0  0  0  0
  3  4  1  1  0  0  0
  3 16  1  0  0  0  0
  5  6  1  1  0  0  0
  5 19  1  0  0  0  0
  7  1  1  0  0  0  0
  8 34  1  0  0  0  0
 10  2  1  0  0  0  0
 10 13  1  0  0  0  0
 11 10  1  0  0  0  0
 12 10  1  0  0  0  0
 13 15  1  0  0  0  0
 13  3  1  0  0  0  0
 14 13  1  0  0  0  0
 16 17  1  0  0  0  0
 16 18  1  0  0  0  0
 19 16  1  0  0  0  0
 19 20  1  0  0  0  0
 21 19  1  0  0  0  0
 22 23  1  0  0  0  0
 22  5  1  0  0  0  0
 24 22  1  0  0  0  0
 25 27  1  0  0  0  0
 25 22  1  0  0  0  0
 26 25  1  0  0  0  0
 29 28  1  0  0  0  0
 30 28  1  0  0  0  0
 31  8  1  1  0  0  0
 31 28  1  0  0  0  0
 31  7  1  0  0  0  0
 32  7  1  0  0  0  0
 32 33  1  0  0  0  0
 34 32  2  0  0  0  0
 35 34  1  0  0  0  0
 36  8  1  0  0  0  0
 37 36  1  0  0  0  0
 38 36  1  0  0  0  0
 39 36  1  0  0  0  0
M  END
$$$$
