CSD_code = WATVUL | q = 0 | S = 0 | Stoichiometry = C11H15Cl2FeN7O2 | MND = 7
 OpenBabel04212202113D

 38 41  0  0  1  0  0  0  0  0999 V2000
   -0.4251   20.2468    1.7250 C   0  0  0  0  0  0  0  0  0  0  0  0
   -0.1070   19.5571    2.8813 C   0  0  0  0  0  0  0  0  0  0  0  0
   -0.1151   18.1544    2.8404 C   0  0  0  0  0  0  0  0  0  0  0  0
    0.1932   17.2895    3.9767 C   0  0  1  0  0  3  0  0  0  0  0  0
    0.5382   17.8385    5.3350 C   0  0  0  0  0  0  0  0  0  0  0  0
    0.2608   13.7819    4.3303 C   0  0  2  0  0  3  0  0  0  0  0  0
   -0.4252   17.5092    1.7237 N   0  0  0  0  0  0  0  0  0  0  0  0
    0.1346   16.0258    3.7406 N   0  0  1  0  0  0  0  0  0  0  0  0
    0.3549   15.1030    4.6932 N   0  0  0  0  0  0  0  0  0  0  0  0
    0.5342   12.8734    5.3143 N   0  0  0  0  0  0  0  0  0  0  0  0
   -0.4253   14.8470    1.7290 Fe  0  0  0  0  0  0  0  0  0  0  0  0
    1.6150   15.0335    1.0946 Cl  0  0  0  0  0  0  0  0  0  0  0  0
   -0.0030   13.4467    3.1824 O   0  0  0  0  0  0  0  0  0  0  0  0
   -0.4249   21.3276    1.7255 H   0  0  0  0  0  0  0  0  0  0  0  0
    0.1365   20.1040    3.7769 H   0  0  0  0  0  0  0  0  0  0  0  0
    1.4921   17.4307    5.6744 H   0  0  0  0  0  0  0  0  0  0  0  0
    0.6231   18.9177    5.3213 H   0  0  0  0  0  0  0  0  0  0  0  0
   -0.2352   17.5674    6.0561 H   0  0  0  0  0  0  0  0  0  0  0  0
    0.6066   15.3757    5.6405 H   0  0  0  0  0  0  0  0  0  0  0  0
    0.3236   11.9180    5.0741 H   0  0  0  0  0  0  0  0  0  0  0  0
    0.4163   13.1276    6.2800 H   0  0  0  0  0  0  0  0  0  0  0  0
   -0.7433   19.5581    0.5680 C   0  0  0  0  0  0  0  0  0  0  0  0
   -0.7353   18.1556    0.6078 C   0  0  0  0  0  0  0  0  0  0  0  0
   -1.0436   17.2914   -0.5295 C   0  0  1  0  0  3  0  0  0  0  0  0
   -1.3886   17.8410   -1.8875 C   0  0  0  0  0  0  0  0  0  0  0  0
   -1.1098   13.7838   -0.8791 C   0  0  2  0  0  3  0  0  0  0  0  0
   -0.9846   16.0281   -0.2935 N   0  0  1  0  0  0  0  0  0  0  0  0
   -1.2048   15.1043   -1.2444 N   0  0  0  0  0  0  0  0  0  0  0  0
   -1.3830   12.8738   -1.8617 N   0  0  0  0  0  0  0  0  0  0  0  0
   -0.8456   13.4503    0.2691 O   0  0  0  0  0  0  0  0  0  0  0  0
   -0.9866   20.1058   -0.3272 H   0  0  0  0  0  0  0  0  0  0  0  0
   -2.3422   17.4329   -2.2271 H   0  0  0  0  0  0  0  0  0  0  0  0
   -1.4739   18.9203   -1.8733 H   0  0  0  0  0  0  0  0  0  0  0  0
   -0.6150   17.5704   -2.6085 H   0  0  0  0  0  0  0  0  0  0  0  0
   -1.4569   15.3751   -2.1923 H   0  0  0  0  0  0  0  0  0  0  0  0
   -1.1723   11.9187   -1.6205 H   0  0  0  0  0  0  0  0  0  0  0  0
   -1.2665   13.1268   -2.8279 H   0  0  0  0  0  0  0  0  0  0  0  0
   -2.4670   15.0341    2.3581 Cl  0  0  0  0  0  0  0  0  0  0  0  0
  1 14  1  0  0  0  0
  1  2  1  0  0  0  0
  2 15  1  0  0  0  0
  3  2  2  0  0  0  0
  3  4  1  0  0  0  0
  4  5  1  1  0  0  0
  5 16  1  0  0  0  0
  5 18  1  0  0  0  0
  6  9  1  0  0  0  0
  6 10  1  6  0  0  0
  7  3  1  0  0  0  0
  8  4  1  0  0  0  0
  8  9  1  1  0  0  0
  9 19  1  0  0  0  0
 10 21  1  0  0  0  0
 11 38  1  0  0  0  0
 11 13  1  0  0  0  0
 11  8  1  0  0  0  0
 12 11  1  0  0  0  0
 13  6  1  0  0  0  0
 17  5  1  0  0  0  0
 20 10  1  0  0  0  0
 22 23  1  0  0  0  0
 22  1  2  0  0  0  0
 23  7  2  0  0  0  0
 24 25  1  6  0  0  0
 24 27  1  0  0  0  0
 24 23  1  0  0  0  0
 25 33  1  0  0  0  0
 26 29  1  1  0  0  0
 26 30  1  0  0  0  0
 27 28  1  6  0  0  0
 27 11  1  0  0  0  0
 28 26  1  0  0  0  0
 29 36  1  0  0  0  0
 30 11  1  0  0  0  0
 31 22  1  0  0  0  0
 32 25  1  0  0  0  0
 34 25  1  0  0  0  0
 35 28  1  0  0  0  0
 37 29  1  0  0  0  0
M  END
$$$$
