CSD_code = WAVCOM | q = 0 | S = 0 | Stoichiometry = C20H23ClN4O2PRh | MND = 4
 OpenBabel04212202113D

 52 56  0  0  1  0  0  0  0  0999 V2000
   -2.9604   -7.9887   -3.4090 Rh  0  0  1  0  0  0  0  0  0  0  0  0
   -2.8086   -9.9530   -4.4963 Cl  0  0  0  0  0  0  0  0  0  0  0  0
   -2.9137   -6.1616   -2.1720 P   0  0  0  0  0  4  0  0  0  0  0  0
    1.0824   -6.8228   -3.9242 O   0  0  0  0  0  0  0  0  0  0  0  0
   -1.0281   -7.5472   -3.9089 N   0  0  2  0  0  0  0  0  0  0  0  0
   -0.0991   -6.9017   -3.2936 C   0  0  2  0  0  3  0  0  0  0  0  0
    0.9568   -7.5383   -5.1538 C   0  0  0  0  0  0  0  0  0  0  0  0
    1.6138   -8.4119   -5.1127 H   0  0  0  0  0  0  0  0  0  0  0  0
    1.2800   -6.8847   -5.9650 H   0  0  0  0  0  0  0  0  0  0  0  0
   -0.5304   -7.9270   -5.2259 C   0  0  2  0  0  0  0  0  0  0  0  0
   -0.6659   -9.0062   -5.3520 H   0  0  0  0  0  0  0  0  0  0  0  0
   -1.3762   -7.2139   -6.3038 C   0  0  2  0  0  0  0  0  0  0  0  0
   -2.4269   -7.4144   -6.0232 H   0  0  0  0  0  0  0  0  0  0  0  0
   -1.1194   -7.8457   -7.6737 C   0  0  0  0  0  0  0  0  0  0  0  0
   -0.0862   -7.6560   -7.9763 H   0  0  0  0  0  0  0  0  0  0  0  0
   -1.2483   -8.9258   -7.5821 H   0  0  0  0  0  0  0  0  0  0  0  0
   -2.0692   -7.3315   -8.7491 C   0  0  0  0  0  0  0  0  0  0  0  0
   -1.9099   -7.8753   -9.6769 H   0  0  0  0  0  0  0  0  0  0  0  0
   -1.9107   -6.2743   -8.9450 H   0  0  0  0  0  0  0  0  0  0  0  0
   -3.1014   -7.4783   -8.4404 H   0  0  0  0  0  0  0  0  0  0  0  0
   -1.1578   -5.7017   -6.3064 C   0  0  0  0  0  0  0  0  0  0  0  0
   -1.1585   -5.3056   -5.2914 H   0  0  0  0  0  0  0  0  0  0  0  0
   -1.9585   -5.2071   -6.8484 H   0  0  0  0  0  0  0  0  0  0  0  0
   -0.2149   -5.4377   -6.7816 H   0  0  0  0  0  0  0  0  0  0  0  0
   -0.1860   -6.2369   -2.0240 C   0  0  0  0  0  0  0  0  0  0  0  0
   -1.3815   -5.9061   -1.4192 N   0  0  0  0  0  0  0  0  0  0  0  0
    0.8453   -5.7976   -1.2200 C   0  0  0  0  0  0  0  0  0  0  0  0
    1.8901   -5.9134   -1.4275 H   0  0  0  0  0  0  0  0  0  0  0  0
    0.2638   -5.1958   -0.0921 C   0  0  0  0  0  0  0  0  0  0  0  0
    0.7853   -4.7592    0.7361 H   0  0  0  0  0  0  0  0  0  0  0  0
   -1.0942   -5.2712   -0.2439 C   0  0  0  0  0  0  0  0  0  0  0  0
   -1.8763   -4.9307    0.4078 H   0  0  0  0  0  0  0  0  0  0  0  0
   -3.0915   -4.6622   -2.9539 N   0  0  0  0  0  0  0  0  0  0  0  0
   -2.6455   -3.4025   -2.6252 C   0  0  0  0  0  0  0  0  0  0  0  0
   -2.0792   -3.2280   -1.7303 H   0  0  0  0  0  0  0  0  0  0  0  0
   -3.0318   -2.5392   -3.6035 C   0  0  0  0  0  0  0  0  0  0  0  0
   -2.8336   -1.4859   -3.6344 H   0  0  0  0  0  0  0  0  0  0  0  0
   -3.7401   -3.2864   -4.5773 C   0  0  0  0  0  0  0  0  0  0  0  0
   -4.1764   -2.8992   -5.4765 H   0  0  0  0  0  0  0  0  0  0  0  0
   -3.7566   -4.5789   -4.1569 C   0  0  0  0  0  0  0  0  0  0  0  0
   -4.1757   -5.4698   -4.5963 H   0  0  0  0  0  0  0  0  0  0  0  0
   -3.9162   -5.9586   -0.8204 N   0  0  0  0  0  0  0  0  0  0  0  0
   -4.5843   -4.8567   -0.3359 C   0  0  0  0  0  0  0  0  0  0  0  0
   -4.5237   -3.9071   -0.8307 H   0  0  0  0  0  0  0  0  0  0  0  0
   -5.2707   -5.2248    0.7793 C   0  0  0  0  0  0  0  0  0  0  0  0
   -5.8877   -4.5890    1.3831 H   0  0  0  0  0  0  0  0  0  0  0  0
   -5.0280   -6.6043    0.9948 C   0  0  0  0  0  0  0  0  0  0  0  0
   -5.4252   -7.1997    1.7925 H   0  0  0  0  0  0  0  0  0  0  0  0
   -4.2046   -7.0272   -0.0004 C   0  0  0  0  0  0  0  0  0  0  0  0
   -3.7875   -7.9959   -0.2141 H   0  0  0  0  0  0  0  0  0  0  0  0
   -4.6911   -8.4630   -3.0514 C   0  0  0  0  0  2  0  0  0  0  0  0
   -5.7700   -8.7829   -2.8466 O   0  0  0  0  0  1  0  0  0  0  0  0
  1  2  1  1  0  0  0
  1 51  1  0  0  0  0
  1  3  1  0  0  0  0
  3 26  1  0  0  0  0
  3 42  1  0  0  0  0
  4  6  1  0  0  0  0
  5  1  1  0  0  0  0
  5  6  1  0  0  0  0
  6 25  1  0  0  0  0
  7  8  1  0  0  0  0
  7  4  1  0  0  0  0
  9  7  1  0  0  0  0
 10  7  1  0  0  0  0
 10  5  1  0  0  0  0
 11 10  1  0  0  0  0
 12 13  1  0  0  0  0
 12 10  1  0  0  0  0
 14 16  1  0  0  0  0
 14 12  1  0  0  0  0
 15 14  1  0  0  0  0
 17 20  1  0  0  0  0
 17 14  1  0  0  0  0
 18 17  1  0  0  0  0
 19 17  1  0  0  0  0
 21 12  1  0  0  0  0
 21 22  1  0  0  0  0
 23 21  1  0  0  0  0
 24 21  1  0  0  0  0
 25 26  1  0  0  0  0
 25 27  2  0  0  0  0
 26 31  1  0  0  0  0
 27 29  1  0  0  0  0
 28 27  1  0  0  0  0
 29 30  1  0  0  0  0
 31 29  2  0  0  0  0
 31 32  1  0  0  0  0
 33 34  1  0  0  0  0
 33  3  1  0  0  0  0
 34 35  1  0  0  0  0
 36 34  2  0  0  0  0
 37 36  1  0  0  0  0
 38 40  2  0  0  0  0
 38 36  1  0  0  0  0
 39 38  1  0  0  0  0
 40 33  1  0  0  0  0
 41 40  1  0  0  0  0
 42 43  1  0  0  0  0
 42 49  1  0  0  0  0
 43 45  2  0  0  0  0
 44 43  1  0  0  0  0
 45 47  1  0  0  0  0
 45 46  1  0  0  0  0
 47 48  1  0  0  0  0
 49 47  2  0  0  0  0
 50 49  1  0  0  0  0
 51 52  1  0  0  0  0
M  END
$$$$
