CSD_code = WAVDAZ | q = 0 | S = 0 | Stoichiometry = C22H24ClN3O3PRh | MND = 4
 OpenBabel04212202113D

 55 59  0  0  1  0  0  0  0  0999 V2000
   -2.2921   -2.4135    3.2294 Rh  0  0  1  0  0  0  0  0  0  0  0  0
   -2.8727   -4.5533    3.6268 Cl  0  0  0  0  0  0  0  0  0  0  0  0
   -1.9282   -0.2847    2.7109 P   0  0  0  0  0  4  0  0  0  0  0  0
   -6.2308   -1.1974    4.1314 O   0  0  0  0  0  0  0  0  0  0  0  0
   -3.2402    0.6530    2.4558 O   0  0  0  0  0  0  0  0  0  0  0  0
   -4.1288   -1.8878    3.8959 N   0  0  1  0  0  0  0  0  0  0  0  0
   -1.1745    0.7690    3.7919 N   0  0  0  0  0  0  0  0  0  0  0  0
   -1.0521   -0.0006    1.2692 N   0  0  0  0  0  0  0  0  0  0  0  0
   -5.1294   -1.2881    3.3752 C   0  0  1  0  0  3  0  0  0  0  0  0
   -5.9375   -1.8192    5.3851 C   0  0  0  0  0  0  0  0  0  0  0  0
   -6.6437   -2.6388    5.5360 H   0  0  0  0  0  0  0  0  0  0  0  0
   -6.0744   -1.0758    6.1734 H   0  0  0  0  0  0  0  0  0  0  0  0
   -4.4810   -2.3070    5.2465 C   0  0  2  0  0  0  0  0  0  0  0  0
   -4.4180   -3.4024    5.2789 H   0  0  0  0  0  0  0  0  0  0  0  0
   -3.4529   -1.7441    6.2482 C   0  0  2  0  0  0  0  0  0  0  0  0
   -2.4666   -2.0494    5.8456 H   0  0  0  0  0  0  0  0  0  0  0  0
   -3.6369   -2.4027    7.6173 C   0  0  0  0  0  0  0  0  0  0  0  0
   -4.6033   -2.1107    8.0361 H   0  0  0  0  0  0  0  0  0  0  0  0
   -3.6469   -3.4858    7.4815 H   0  0  0  0  0  0  0  0  0  0  0  0
   -2.5267   -2.0424    8.5974 C   0  0  0  0  0  0  0  0  0  0  0  0
   -2.6468   -2.6054    9.5196 H   0  0  0  0  0  0  0  0  0  0  0  0
   -2.5447   -0.9841    8.8421 H   0  0  0  0  0  0  0  0  0  0  0  0
   -1.5554   -2.2842    8.1730 H   0  0  0  0  0  0  0  0  0  0  0  0
   -3.4925   -0.2184    6.3253 C   0  0  0  0  0  0  0  0  0  0  0  0
   -3.5667    0.2175    5.3292 H   0  0  0  0  0  0  0  0  0  0  0  0
   -2.5812    0.1603    6.7792 H   0  0  0  0  0  0  0  0  0  0  0  0
   -4.3366    0.1264    6.9197 H   0  0  0  0  0  0  0  0  0  0  0  0
   -1.2863    2.1298    3.9421 C   0  0  0  0  0  0  0  0  0  0  0  0
   -1.9228    2.7053    3.2995 H   0  0  0  0  0  0  0  0  0  0  0  0
   -0.5058    2.5138    4.9885 C   0  0  0  0  0  0  0  0  0  0  0  0
   -0.3795    3.5139    5.3541 H   0  0  0  0  0  0  0  0  0  0  0  0
    0.1105    1.3495    5.5100 C   0  0  0  0  0  0  0  0  0  0  0  0
    0.7872    1.3098    6.3403 H   0  0  0  0  0  0  0  0  0  0  0  0
   -0.3206    0.2990    4.7616 C   0  0  0  0  0  0  0  0  0  0  0  0
   -0.1064   -0.7542    4.8217 H   0  0  0  0  0  0  0  0  0  0  0  0
   -1.1317   -0.8822    0.2178 C   0  0  0  0  0  0  0  0  0  0  0  0
   -1.6570   -1.8165    0.3368 H   0  0  0  0  0  0  0  0  0  0  0  0
   -0.4738   -0.3524   -0.8487 C   0  0  0  0  0  0  0  0  0  0  0  0
   -0.3555   -0.8017   -1.8146 H   0  0  0  0  0  0  0  0  0  0  0  0
    0.0316    0.9066   -0.4428 C   0  0  0  0  0  0  0  0  0  0  0  0
    0.6083    1.5814   -1.0445 H   0  0  0  0  0  0  0  0  0  0  0  0
   -0.3406    1.0974    0.8530 C   0  0  0  0  0  0  0  0  0  0  0  0
   -0.1416    1.9138    1.5197 H   0  0  0  0  0  0  0  0  0  0  0  0
   -4.2173    0.2014    1.5957 C   0  0  0  0  0  0  0  0  0  0  0  0
   -4.2702    0.7117    0.3070 C   0  0  0  0  0  0  0  0  0  0  0  0
   -3.5049    1.4035   -0.0109 H   0  0  0  0  0  0  0  0  0  0  0  0
   -5.2940    0.3368   -0.5442 C   0  0  0  0  0  0  0  0  0  0  0  0
   -5.3243    0.7339   -1.5469 H   0  0  0  0  0  0  0  0  0  0  0  0
   -6.2750   -0.5408   -0.1105 C   0  0  0  0  0  0  0  0  0  0  0  0
   -7.0773   -0.8268   -0.7725 H   0  0  0  0  0  0  0  0  0  0  0  0
   -6.2247   -1.0559    1.1705 C   0  0  0  0  0  0  0  0  0  0  0  0
   -6.9781   -1.7458    1.5174 H   0  0  0  0  0  0  0  0  0  0  0  0
   -5.1837   -0.7107    2.0284 C   0  0  0  0  0  0  0  0  0  0  0  0
    0.3895   -3.4000    2.4066 O   0  0  0  0  0  1  0  0  0  0  0  0
   -0.6413   -3.0089    2.7146 C   0  0  0  0  0  2  0  0  0  0  0  0
  1  2  1  6  0  0  0
  1  6  1  0  0  0  0
  3  1  1  0  0  0  0
  3  7  1  0  0  0  0
  4 10  1  0  0  0  0
  5  3  1  0  0  0  0
  6 13  1  0  0  0  0
  7 28  1  0  0  0  0
  7 34  1  0  0  0  0
  8  3  1  0  0  0  0
  9  6  1  0  0  0  0
  9  4  1  0  0  0  0
 10 11  1  0  0  0  0
 10 12  1  0  0  0  0
 13 14  1  0  0  0  0
 13 10  1  0  0  0  0
 13 15  1  0  0  0  0
 15 24  1  0  0  0  0
 15 17  1  0  0  0  0
 16 15  1  0  0  0  0
 17 18  1  0  0  0  0
 17 20  1  0  0  0  0
 19 17  1  0  0  0  0
 20 22  1  0  0  0  0
 20 21  1  0  0  0  0
 23 20  1  0  0  0  0
 24 26  1  0  0  0  0
 24 27  1  0  0  0  0
 25 24  1  0  0  0  0
 28 30  2  0  0  0  0
 29 28  1  0  0  0  0
 30 31  1  0  0  0  0
 30 32  1  0  0  0  0
 32 33  1  0  0  0  0
 34 35  1  0  0  0  0
 34 32  2  0  0  0  0
 36 37  1  0  0  0  0
 36  8  1  0  0  0  0
 38 40  1  0  0  0  0
 38 36  2  0  0  0  0
 39 38  1  0  0  0  0
 40 42  2  0  0  0  0
 41 40  1  0  0  0  0
 42  8  1  0  0  0  0
 42 43  1  0  0  0  0
 44 53  1  0  0  0  0
 44  5  1  0  0  0  0
 45 44  2  0  0  0  0
 46 45  1  0  0  0  0
 47 49  2  0  0  0  0
 47 45  1  0  0  0  0
 48 47  1  0  0  0  0
 49 51  1  0  0  0  0
 50 49  1  0  0  0  0
 51 52  1  0  0  0  0
 51 53  2  0  0  0  0
 53  9  1  0  0  0  0
 54 55  1  0  0  0  0
 55  1  1  0  0  0  0
M  END
$$$$
