CSD_code = WAVGAE | q = 0 | S = 0 | Stoichiometry = C13H12AuBrN2 | MND = 2
 OpenBabel04212202113D

 29 30  0  0  1  0  0  0  0  0999 V2000
    7.2961    3.8428    0.4805 Au  0  0  0  0  0  0  0  0  0  0  0  0
    8.4164    5.7962    1.1856 Br  0  0  0  0  0  0  0  0  0  0  0  0
    5.9448    1.1277    0.6428 N   0  0  0  0  0  0  0  0  0  0  0  0
    5.8602    1.8939   -1.3539 N   0  0  0  0  0  0  0  0  0  0  0  0
    6.3136    2.1716   -0.1188 C   0  0  1  0  0  3  0  0  0  0  0  0
    5.2638    0.2061   -0.1053 C   0  0  0  0  0  0  0  0  0  0  0  0
    4.8742   -0.6973    0.3156 H   0  0  0  0  0  0  0  0  0  0  0  0
    5.2145    0.6872   -1.3693 C   0  0  0  0  0  0  0  0  0  0  0  0
    4.7888    0.2772   -2.2614 H   0  0  0  0  0  0  0  0  0  0  0  0
    6.0535    2.7261   -2.5181 C   0  0  0  0  0  0  0  0  0  0  0  0
    5.0805    2.9784   -2.9572 H   0  0  0  0  0  0  0  0  0  0  0  0
    6.5494    3.6482   -2.1941 H   0  0  0  0  0  0  0  0  0  0  0  0
    6.8722    2.0496   -3.5087 C   0  0  0  0  0  0  0  0  0  0  0  0
    7.5444    1.4509   -4.2963 C   0  0  0  0  0  0  0  0  0  0  0  0
    8.1340    0.9516   -5.0060 H   0  0  0  0  0  0  0  0  0  0  0  0
    6.1631    1.0093    2.0644 C   0  0  0  0  0  0  0  0  0  0  0  0
    6.8838    1.7816    2.3509 H   0  0  0  0  0  0  0  0  0  0  0  0
    6.5896    0.0254    2.2799 H   0  0  0  0  0  0  0  0  0  0  0  0
    4.8666    1.1995    2.8139 C   0  0  0  0  0  0  0  0  0  0  0  0
    4.2983    0.1597    3.5349 C   0  0  0  0  0  0  0  0  0  0  0  0
    4.7997   -0.7965    3.5867 H   0  0  0  0  0  0  0  0  0  0  0  0
    3.0968    0.3452    4.1976 C   0  0  0  0  0  0  0  0  0  0  0  0
    2.6643   -0.4681    4.7607 H   0  0  0  0  0  0  0  0  0  0  0  0
    2.4520    1.5681    4.1359 C   0  0  0  0  0  0  0  0  0  0  0  0
    1.5148    1.7119    4.6519 H   0  0  0  0  0  0  0  0  0  0  0  0
    3.0135    2.6090    3.4146 C   0  0  0  0  0  0  0  0  0  0  0  0
    2.5174    3.5664    3.3684 H   0  0  0  0  0  0  0  0  0  0  0  0
    4.2158    2.4257    2.7569 C   0  0  0  0  0  0  0  0  0  0  0  0
    4.6605    3.2388    2.2002 H   0  0  0  0  0  0  0  0  0  0  0  0
  1  2  1  0  0  0  0
  3 16  1  0  0  0  0
  4  5  1  0  0  0  0
  5  1  1  1  0  0  0
  5  3  1  0  0  0  0
  6  7  1  0  0  0  0
  6  3  1  0  0  0  0
  8  4  1  0  0  0  0
  8  6  2  0  0  0  0
  9  8  1  0  0  0  0
 10 12  1  0  0  0  0
 10  4  1  0  0  0  0
 11 10  1  0  0  0  0
 13 10  1  0  0  0  0
 14 13  3  0  0  0  0
 15 14  1  0  0  0  0
 16 18  1  0  0  0  0
 16 17  1  0  0  0  0
 16 19  1  0  0  0  0
 19 20  1  0  0  0  0
 20 21  1  0  0  0  0
 20 22  2  0  0  0  0
 22 23  1  0  0  0  0
 24 22  1  0  0  0  0
 24 25  1  0  0  0  0
 26 24  2  0  0  0  0
 27 26  1  0  0  0  0
 28 19  2  0  0  0  0
 28 26  1  0  0  0  0
 29 28  1  0  0  0  0
M  END
$$$$
