CSD_code = WAVGEI | q = 0 | S = 0 | Stoichiometry = C9H8AuBrN2 | MND = 2
 OpenBabel04212202113D

 21 21  0  0  1  0  0  0  0  0999 V2000
    3.5579   12.3249    4.1014 Au  0  0  0  0  0  0  0  0  0  0  0  0
    3.4081   11.8352    6.4041 Br  0  0  0  0  0  0  0  0  0  0  0  0
    4.6316   13.4751    1.5032 N   0  0  0  0  0  0  0  0  0  0  0  0
    2.8494   12.3475    1.1482 N   0  0  0  0  0  0  0  0  0  0  0  0
    3.6874   12.7450    2.1211 C   0  0  1  0  0  3  0  0  0  0  0  0
    4.3894   13.5369    0.1572 C   0  0  0  0  0  0  0  0  0  0  0  0
    5.0215   14.0810   -0.5133 H   0  0  0  0  0  0  0  0  0  0  0  0
    3.2635   12.8207   -0.0677 C   0  0  0  0  0  0  0  0  0  0  0  0
    2.7367   12.6078   -0.9747 H   0  0  0  0  0  0  0  0  0  0  0  0
    1.6925   11.5046    1.3405 C   0  0  0  0  0  0  0  0  0  0  0  0
    1.8867   10.2077    0.7162 C   0  0  0  0  0  0  0  0  0  0  0  0
    2.0896    9.1572    0.1819 C   0  0  0  0  0  0  0  0  0  0  0  0
    2.2427    8.2222   -0.2686 H   0  0  0  0  0  0  0  0  0  0  0  0
    5.7385   14.1307    2.1597 C   0  0  0  0  0  0  0  0  0  0  0  0
    5.6639   15.5710    1.9914 C   0  0  0  0  0  0  0  0  0  0  0  0
    5.5650   16.7501    1.8168 C   0  0  0  0  0  0  0  0  0  0  0  0
    1.5436   11.3767    2.4187 H   0  0  0  0  0  0  0  0  0  0  0  0
    0.8081   11.9904    0.9111 H   0  0  0  0  0  0  0  0  0  0  0  0
    5.5017   17.7897    1.6916 H   0  0  0  0  0  0  0  0  0  0  0  0
    6.6845   13.7619    1.7442 H   0  0  0  0  0  0  0  0  0  0  0  0
    5.6949   13.8782    3.2253 H   0  0  0  0  0  0  0  0  0  0  0  0
  1  2  1  0  0  0  0
  3  5  1  0  0  0  0
  3 14  1  0  0  0  0
  4 10  1  0  0  0  0
  4  5  1  0  0  0  0
  5  1  1  6  0  0  0
  6  3  1  0  0  0  0
  7  6  1  0  0  0  0
  8  6  2  0  0  0  0
  8  4  1  0  0  0  0
  9  8  1  0  0  0  0
 10 17  1  0  0  0  0
 11 10  1  0  0  0  0
 12 11  3  0  0  0  0
 13 12  1  0  0  0  0
 14 21  1  0  0  0  0
 15 14  1  0  0  0  0
 16 15  3  0  0  0  0
 18 10  1  0  0  0  0
 19 16  1  0  0  0  0
 20 14  1  0  0  0  0
M  END
$$$$
