CSD_code = WAVGIM | q = 0 | S = 0 | Stoichiometry = C11H9AuBrN3 | MND = 2
 OpenBabel04212202113D

 25 26  0  0  1  0  0  0  0  0999 V2000
    7.0917    2.8621    3.8353 Au  0  0  0  0  0  0  0  0  0  0  0  0
    8.6836    3.8326    2.3930 Br  0  0  0  0  0  0  0  0  0  0  0  0
    5.6967    2.0405    5.0657 C   0  0  1  0  0  3  0  0  0  0  0  0
    4.6807    1.4035    6.9518 C   0  0  0  0  0  0  0  0  0  0  0  0
    4.6011    1.1920    7.9979 H   0  0  0  0  0  0  0  0  0  0  0  0
    3.7662    1.3378    5.9609 C   0  0  0  0  0  0  0  0  0  0  0  0
    2.7342    1.0591    5.9577 H   0  0  0  0  0  0  0  0  0  0  0  0
    5.8517    1.8345    6.3822 N   0  0  0  0  0  0  0  0  0  0  0  0
    4.4072    1.7182    4.8051 N   0  0  0  0  0  0  0  0  0  0  0  0
    7.0687    2.0618    7.1262 C   0  0  0  0  0  0  0  0  0  0  0  0
    7.8482    2.3642    6.4171 H   0  0  0  0  0  0  0  0  0  0  0  0
    7.3758    1.1318    7.6213 H   0  0  0  0  0  0  0  0  0  0  0  0
    6.8802    3.1027    8.1214 C   0  0  0  0  0  0  0  0  0  0  0  0
    6.6723    3.9555    8.9341 C   0  0  0  0  0  0  0  0  0  0  0  0
    6.5263    4.7117    9.6471 H   0  0  0  0  0  0  0  0  0  0  0  0
    3.7444    1.7908    3.5676 C   0  0  0  0  0  0  0  0  0  0  0  0
    4.4051    1.6150    2.3566 C   0  0  0  0  0  0  0  0  0  0  0  0
    5.4594    1.3944    2.3256 H   0  0  0  0  0  0  0  0  0  0  0  0
    3.6610    1.7290    1.1943 C   0  0  0  0  0  0  0  0  0  0  0  0
    4.1405    1.6096    0.2346 H   0  0  0  0  0  0  0  0  0  0  0  0
    2.3016    1.9882    1.2826 C   0  0  0  0  0  0  0  0  0  0  0  0
    1.6936    2.0860    0.3980 H   0  0  0  0  0  0  0  0  0  0  0  0
    1.7394    2.1070    2.5442 C   0  0  0  0  0  0  0  0  0  0  0  0
    0.6820    2.2895    2.6792 H   0  0  0  0  0  0  0  0  0  0  0  0
    2.4406    2.0122    3.6585 N   0  0  0  0  0  0  0  0  0  0  0  0
  2  1  1  0  0  0  0
  3  1  1  1  0  0  0
  3  8  1  0  0  0  0
  4  5  1  0  0  0  0
  6  4  2  0  0  0  0
  7  6  1  0  0  0  0
  8  4  1  0  0  0  0
  8 10  1  0  0  0  0
  9  3  1  0  0  0  0
  9  6  1  0  0  0  0
 10 12  1  0  0  0  0
 10 13  1  0  0  0  0
 11 10  1  0  0  0  0
 13 14  3  0  0  0  0
 14 15  1  0  0  0  0
 16 25  1  0  0  0  0
 16  9  1  0  0  0  0
 17 16  2  0  0  0  0
 18 17  1  0  0  0  0
 19 21  2  0  0  0  0
 19 17  1  0  0  0  0
 20 19  1  0  0  0  0
 21 23  1  0  0  0  0
 22 21  1  0  0  0  0
 23 24  1  0  0  0  0
 23 25  2  0  0  0  0
M  END
$$$$
