CSD_code = WAVPOZ | q = 1 | S = 0 | Stoichiometry = C28H25Cl2N6PRe(1+) | MND = 6
 OpenBabel04212202113D

 63 70  0  0  1  0  0  0  0  0999 V2000
    2.5086    2.6526   16.7476 C   0  0  1  0  0  0  0  0  0  0  0  0
    3.2712    3.4061   16.9792 H   0  0  0  0  0  0  0  0  0  0  0  0
    1.3778    0.2791   19.0783 C   0  0  0  0  0  3  0  0  0  0  0  0
    0.7241   -0.5394   19.3059 H   0  0  0  0  0  0  0  0  0  0  0  0
    2.3489    0.8808   19.8867 C   0  0  0  0  0  0  0  0  0  0  0  0
    2.6116    0.6134   20.8882 H   0  0  0  0  0  0  0  0  0  0  0  0
    2.8906    1.8822   19.1231 C   0  0  0  0  0  0  0  0  0  0  0  0
    3.6565    2.5982   19.3409 H   0  0  0  0  0  0  0  0  0  0  0  0
    2.8912    0.2218   14.2530 C   0  0  0  0  0  3  0  0  0  0  0  0
    2.4773   -0.6156   13.7267 H   0  0  0  0  0  0  0  0  0  0  0  0
    4.1347    0.8509   14.0798 C   0  0  0  0  0  0  0  0  0  0  0  0
    4.8958    0.5920   13.3748 H   0  0  0  0  0  0  0  0  0  0  0  0
    4.1630    1.8616   15.0027 C   0  0  0  0  0  0  0  0  0  0  0  0
    4.9111    2.5940   15.2271 H   0  0  0  0  0  0  0  0  0  0  0  0
   -0.7346    3.4525   15.6575 C   0  0  0  0  0  3  0  0  0  0  0  0
   -1.7128    3.1093   15.3808 H   0  0  0  0  0  0  0  0  0  0  0  0
   -0.2197    4.7542   15.6664 C   0  0  0  0  0  0  0  0  0  0  0  0
   -0.7297    5.6511   15.3850 H   0  0  0  0  0  0  0  0  0  0  0  0
    1.0726    4.6353   16.1099 C   0  0  0  0  0  0  0  0  0  0  0  0
    1.8307    5.3728   16.2776 H   0  0  0  0  0  0  0  0  0  0  0  0
   -1.9332    0.6386   18.7970 C   0  0  0  0  0  0  0  0  0  0  0  0
   -1.3696    1.8708   19.1241 C   0  0  0  0  0  0  0  0  0  0  0  0
   -0.9159    2.4669   18.3428 H   0  0  0  0  0  0  0  0  0  0  0  0
   -1.4063    2.3396   20.4232 C   0  0  0  0  0  0  0  0  0  0  0  0
   -0.9724    3.2987   20.6652 H   0  0  0  0  0  0  0  0  0  0  0  0
   -2.0069    1.5797   21.4152 C   0  0  0  0  0  0  0  0  0  0  0  0
   -2.0343    1.9425   22.4310 H   0  0  0  0  0  0  0  0  0  0  0  0
   -2.5797    0.3603   21.0967 C   0  0  0  0  0  0  0  0  0  0  0  0
   -3.0584   -0.2278   21.8646 H   0  0  0  0  0  0  0  0  0  0  0  0
   -2.5474   -0.1099   19.7944 C   0  0  0  0  0  0  0  0  0  0  0  0
   -3.0033   -1.0587   19.5549 H   0  0  0  0  0  0  0  0  0  0  0  0
   -3.2130    0.9981   16.2702 C   0  0  0  0  0  0  0  0  0  0  0  0
   -3.8983    2.0225   16.9156 C   0  0  0  0  0  0  0  0  0  0  0  0
   -3.6566    2.2808   17.9360 H   0  0  0  0  0  0  0  0  0  0  0  0
   -4.9006    2.7096   16.2516 C   0  0  0  0  0  0  0  0  0  0  0  0
   -5.4312    3.5005   16.7597 H   0  0  0  0  0  0  0  0  0  0  0  0
   -5.2254    2.3837   14.9454 C   0  0  0  0  0  0  0  0  0  0  0  0
   -6.0077    2.9221   14.4328 H   0  0  0  0  0  0  0  0  0  0  0  0
   -4.5475    1.3618   14.2987 C   0  0  0  0  0  0  0  0  0  0  0  0
   -4.8004    1.1021   13.2822 H   0  0  0  0  0  0  0  0  0  0  0  0
   -3.5451    0.6721   14.9546 C   0  0  0  0  0  0  0  0  0  0  0  0
   -3.0103   -0.1198   14.4513 H   0  0  0  0  0  0  0  0  0  0  0  0
   -2.4538   -1.6359   17.1604 C   0  0  0  0  0  0  0  0  0  0  0  0
   -3.6617   -2.0588   16.6165 C   0  0  0  0  0  0  0  0  0  0  0  0
   -4.3087   -1.3592   16.1095 H   0  0  0  0  0  0  0  0  0  0  0  0
   -4.0440   -3.3848   16.7313 C   0  0  0  0  0  0  0  0  0  0  0  0
   -4.9818   -3.7068   16.3043 H   0  0  0  0  0  0  0  0  0  0  0  0
   -3.2322   -4.2943   17.3870 C   0  0  0  0  0  0  0  0  0  0  0  0
   -3.5321   -5.3279   17.4661 H   0  0  0  0  0  0  0  0  0  0  0  0
   -2.0351   -3.8744   17.9461 C   0  0  0  0  0  0  0  0  0  0  0  0
   -1.4025   -4.5785   18.4649 H   0  0  0  0  0  0  0  0  0  0  0  0
   -1.6483   -2.5532   17.8363 C   0  0  0  0  0  0  0  0  0  0  0  0
   -0.7157   -2.2228   18.2712 H   0  0  0  0  0  0  0  0  0  0  0  0
    1.3299    0.8746   17.8998 N   0  0  1  0  0  0  0  0  0  0  0  0
    2.2566    1.8544   17.9250 N   0  0  0  0  0  0  0  0  0  0  0  0
    2.2180    0.8115   15.2126 N   0  0  2  0  0  0  0  0  0  0  0  0
    2.9839    1.8131   15.6770 N   0  0  0  0  0  0  0  0  0  0  0  0
    0.1843    2.5970   16.0723 N   0  0  2  0  0  0  0  0  0  0  0  0
    1.2905    3.3182   16.3467 N   0  0  0  0  0  0  0  0  0  0  0  0
   -1.8592    0.0789   17.0626 P   0  0  0  0  0  4  0  0  0  0  0  0
   -0.5012    0.4800   13.9526 Cl  0  0  0  0  0  0  0  0  0  0  0  0
    0.9039   -1.7199   16.1944 Cl  0  0  0  0  0  0  0  0  0  0  0  0
    0.2994    0.4430   16.0619 Re  0  0  0  0  0  0  0  0  0  0  0  0
  1  2  1  1  0  0  0
  1 55  1  0  0  0  0
  3  4  1  0  0  0  0
  3  5  1  0  0  0  0
  5  6  1  0  0  0  0
  7  8  1  0  0  0  0
  7  5  2  0  0  0  0
 10  9  1  0  0  0  0
 11  9  1  0  0  0  0
 11 13  2  0  0  0  0
 12 11  1  0  0  0  0
 13 14  1  0  0  0  0
 13 57  1  0  0  0  0
 15 17  1  0  0  0  0
 16 15  1  0  0  0  0
 17 19  2  0  0  0  0
 18 17  1  0  0  0  0
 19 20  1  0  0  0  0
 19 59  1  0  0  0  0
 21 22  2  0  0  0  0
 21 30  1  0  0  0  0
 22 24  1  0  0  0  0
 23 22  1  0  0  0  0
 24 25  1  0  0  0  0
 24 26  2  0  0  0  0
 26 27  1  0  0  0  0
 28 26  1  0  0  0  0
 28 29  1  0  0  0  0
 30 28  2  0  0  0  0
 31 30  1  0  0  0  0
 32 33  1  0  0  0  0
 32 60  1  0  0  0  0
 33 34  1  0  0  0  0
 35 36  1  0  0  0  0
 35 33  2  0  0  0  0
 37 35  1  0  0  0  0
 38 37  1  0  0  0  0
 39 37  2  0  0  0  0
 39 41  1  0  0  0  0
 40 39  1  0  0  0  0
 41 32  2  0  0  0  0
 42 41  1  0  0  0  0
 43 52  1  0  0  0  0
 44 46  1  0  0  0  0
 44 43  2  0  0  0  0
 45 44  1  0  0  0  0
 46 48  2  0  0  0  0
 47 46  1  0  0  0  0
 48 49  1  0  0  0  0
 48 50  1  0  0  0  0
 50 51  1  0  0  0  0
 52 50  2  0  0  0  0
 52 53  1  0  0  0  0
 54 55  1  0  0  0  0
 54  3  1  6  0  0  0
 55  7  1  0  0  0  0
 56  9  1  1  0  0  0
 56 57  1  0  0  0  0
 56 63  1  0  0  0  0
 57  1  1  0  0  0  0
 58 15  1  6  0  0  0
 58 59  1  0  0  0  0
 59  1  1  0  0  0  0
 60 43  1  0  0  0  0
 60 21  1  0  0  0  0
 61 63  1  0  0  0  0
 63 58  1  0  0  0  0
 63 62  1  0  0  0  0
 63 60  1  0  0  0  0
 63 54  1  0  0  0  0
M  END
$$$$
