CSD_code = WAVQAO | q = 0 | S = 0 | Stoichiometry = C19H23ClN2Pd | MND = 4
 OpenBabel04212202113D

 46 49  0  0  0  0  0  0  0  0999 V2000
   -0.4978   17.2730    0.7471 N   0  0  0  0  0  0  0  0  0  0  0  0
    1.2356   19.2741    0.6097 N   0  0  0  0  0  0  0  0  0  0  0  0
    2.6171   22.6672    0.8953 C   0  0  0  0  0  0  0  0  0  0  0  0
    2.2696   23.6750    1.0714 H   0  0  0  0  0  0  0  0  0  0  0  0
   -1.7377   16.2317   -1.4911 C   0  0  0  0  0  0  0  0  0  0  0  0
   -2.2306   15.8232   -2.3618 H   0  0  0  0  0  0  0  0  0  0  0  0
    0.7079   18.8804   -0.5070 C   0  0  0  0  0  0  0  0  0  0  0  0
   -0.2374   17.7852   -0.4720 C   0  0  0  0  0  0  0  0  0  0  0  0
    4.4128   21.1239    0.5625 C   0  0  0  0  0  0  0  0  0  0  0  0
    5.4714   20.9238    0.4794 H   0  0  0  0  0  0  0  0  0  0  0  0
    3.9758   22.4317    0.7286 C   0  0  0  0  0  0  0  0  0  0  0  0
   -0.8502   17.2852   -1.6323 C   0  0  0  0  0  0  0  0  0  0  0  0
    3.5225   20.0639    0.5174 C   0  0  0  0  0  0  0  0  0  0  0  0
   -0.5308   17.8977   -2.9623 C   0  0  0  0  0  0  0  0  0  0  0  0
   -1.3853   17.7926   -3.6335 H   0  0  0  0  0  0  0  0  0  0  0  0
    0.3086   17.3550   -3.4106 H   0  0  0  0  0  0  0  0  0  0  0  0
    1.6951   21.6346    0.8580 C   0  0  0  0  0  0  0  0  0  0  0  0
   -0.1521   19.3669   -2.7970 C   0  0  0  0  0  0  0  0  0  0  0  0
    0.1043   19.7997   -3.7651 H   0  0  0  0  0  0  0  0  0  0  0  0
   -1.0065   19.9176   -2.3962 H   0  0  0  0  0  0  0  0  0  0  0  0
    0.2349   21.8478    1.1175 C   0  0  0  0  0  0  0  0  0  0  0  0
    0.0525   22.8447    1.5090 H   0  0  0  0  0  0  0  0  0  0  0  0
   -0.1139   21.1032    1.8502 H   0  0  0  0  0  0  0  0  0  0  0  0
   -0.3522   21.7197    0.2070 H   0  0  0  0  0  0  0  0  0  0  0  0
   -1.9899   15.7087   -0.2288 C   0  0  0  0  0  0  0  0  0  0  0  0
   -2.6773   14.8887   -0.0975 H   0  0  0  0  0  0  0  0  0  0  0  0
   -1.3469   16.2639    0.8666 C   0  0  0  0  0  0  0  0  0  0  0  0
   -1.5110   15.8983    1.8737 H   0  0  0  0  0  0  0  0  0  0  0  0
    1.0309   19.4968   -1.8410 C   0  0  0  0  0  0  0  0  0  0  0  0
    1.8994   18.9821   -2.2673 H   0  0  0  0  0  0  0  0  0  0  0  0
    1.3100   20.5443   -1.7056 H   0  0  0  0  0  0  0  0  0  0  0  0
    2.1558   20.3341    0.6290 C   0  0  0  0  0  0  0  0  0  0  0  0
    0.6876   18.3477    2.2478 Pd  0  0  1  0  0  0  0  0  0  0  0  0
   -0.0810   17.1743    3.9401 Cl  0  0  0  0  0  0  0  0  0  0  0  0
    1.8418   19.3850    3.5977 C   0  0  0  0  0  0  0  0  0  0  0  0
    2.4669   20.1651    3.1525 H   0  0  0  0  0  0  0  0  0  0  0  0
    2.4873   18.6679    4.1213 H   0  0  0  0  0  0  0  0  0  0  0  0
    1.1779   19.8428    4.3424 H   0  0  0  0  0  0  0  0  0  0  0  0
    4.9543   23.5667    0.7388 C   0  0  0  0  0  0  0  0  0  0  0  0
    5.1108   23.9338   -0.2763 H   0  0  0  0  0  0  0  0  0  0  0  0
    5.9159   23.2455    1.1317 H   0  0  0  0  0  0  0  0  0  0  0  0
    4.5844   24.3923    1.3419 H   0  0  0  0  0  0  0  0  0  0  0  0
    3.9745   18.6377    0.4346 C   0  0  0  0  0  0  0  0  0  0  0  0
    3.7522   18.2063   -0.5419 H   0  0  0  0  0  0  0  0  0  0  0  0
    3.4417   18.0458    1.1934 H   0  0  0  0  0  0  0  0  0  0  0  0
    5.0438   18.5601    0.6102 H   0  0  0  0  0  0  0  0  0  0  0  0
  1 27  1  0  0  0  0
  1 33  1  0  0  0  0
  2 32  1  0  0  0  0
  2 33  1  0  0  0  0
  3  4  1  0  0  0  0
  5 25  1  0  0  0  0
  6  5  1  0  0  0  0
  7  8  2  0  0  0  0
  7  2  1  0  0  0  0
  8  1  1  0  0  0  0
  9 11  1  0  0  0  0
 10  9  1  0  0  0  0
 11 39  1  0  0  0  0
 11  3  2  0  0  0  0
 12  5  2  0  0  0  0
 12  8  1  0  0  0  0
 13  9  2  0  0  0  0
 13 32  1  0  0  0  0
 14 18  1  0  0  0  0
 14 12  1  0  0  0  0
 15 14  1  0  0  0  0
 16 14  1  0  0  0  0
 17  3  1  0  0  0  0
 17 21  1  0  0  0  0
 18 20  1  0  0  0  0
 18 29  1  0  0  0  0
 19 18  1  0  0  0  0
 21 22  1  0  0  0  0
 21 23  1  0  0  0  0
 24 21  1  0  0  0  0
 25 26  1  0  0  0  0
 25 27  2  0  0  0  0
 27 28  1  0  0  0  0
 29 31  1  0  0  0  0
 29  7  1  0  0  0  0
 30 29  1  0  0  0  0
 32 17  2  0  0  0  0
 33 35  1  0  0  0  0
 33 34  1  1  0  0  0
 35 37  1  0  0  0  0
 35 38  1  0  0  0  0
 36 35  1  0  0  0  0
 39 41  1  0  0  0  0
 39 42  1  0  0  0  0
 40 39  1  0  0  0  0
 43 13  1  0  0  0  0
 43 46  1  0  0  0  0
 43 45  1  0  0  0  0
 44 43  1  0  0  0  0
M  END
$$$$
