CSD_code = WAWNOX | q = 0 | S = 0 | Stoichiometry = C17H23BrPt | MND = 6
 OpenBabel04212202113D

 42 42  0  0  1  0  0  0  0  0999 V2000
    7.8815    3.7565   14.0018 Pt  0  0  0  0  0  0  0  0  0  0  0  0
    6.5638    1.8974   14.7510 Br  0  0  0  0  0 15  0  0  0  0  0  0
    6.2327    5.3820   14.3857 C   0  0  0  0  0  0  0  0  0  0  0  0
    6.9338    5.1841   15.5311 C   0  0  0  0  0  0  0  0  0  0  0  0
    8.0832    6.0243   16.0261 C   0  0  0  0  0  0  0  0  0  0  0  0
    9.1081    6.4248   14.9433 C   0  0  0  0  0  0  0  0  0  0  0  0
    9.3200    5.3668   13.8823 C   0  0  0  0  0  3  0  0  0  0  0  0
    8.5942    5.2974   12.6962 C   0  0  2  0  0  0  0  0  0  0  0  0
    7.4499    6.2000   12.3037 C   0  0  0  0  0  0  0  0  0  0  0  0
    6.4557    6.5305   13.4367 C   0  0  0  0  0  0  0  0  0  0  0  0
    9.1349    2.3906   13.1755 C   0  0  0  0  0  0  0  0  0  0  0  0
    8.9113    1.9213   11.8870 C   0  0  0  0  0  0  0  0  0  0  0  0
    9.8173    1.0292   11.3240 C   0  0  0  0  0  0  0  0  0  0  0  0
   10.9253    0.5880   12.0282 C   0  0  0  0  0  0  0  0  0  0  0  0
   11.1077    1.0380   13.3283 C   0  0  0  0  0  0  0  0  0  0  0  0
   10.2192    1.9289   13.9150 C   0  0  0  0  0  0  0  0  0  0  0  0
    7.6965    2.3378   11.1012 C   0  0  0  0  0  0  0  0  0  0  0  0
   11.8971   -0.3806   11.4222 C   0  0  0  0  0  0  0  0  0  0  0  0
   10.4292    2.3572   15.3437 C   0  0  0  0  0  0  0  0  0  0  0  0
    5.3154    4.8158   14.2371 H   0  0  0  0  0  0  0  0  0  0  0  0
    6.5251    4.5018   16.2749 H   0  0  0  0  0  0  0  0  0  0  0  0
    8.6011    5.4595   16.8058 H   0  0  0  0  0  0  0  0  0  0  0  0
    7.6840    6.9275   16.5001 H   0  0  0  0  0  0  0  0  0  0  0  0
   10.0616    6.6186   15.4387 H   0  0  0  0  0  0  0  0  0  0  0  0
    8.8068    7.3554   14.4593 H   0  0  0  0  0  0  0  0  0  0  0  0
   10.3157    4.9263   13.8681 H   0  0  0  0  0  0  0  0  0  0  0  0
    9.0896    4.8345   11.8421 H   0  0  0  0  0  0  0  0  0  0  0  0
    6.9053    5.7128   11.4899 H   0  0  0  0  0  0  0  0  0  0  0  0
    7.8608    7.1309   11.8972 H   0  0  0  0  0  0  0  0  0  0  0  0
    6.7962    7.4000   14.0005 H   0  0  0  0  0  0  0  0  0  0  0  0
    5.4997    6.7977   12.9813 H   0  0  0  0  0  0  0  0  0  0  0  0
    9.6394    0.6687   10.3201 H   0  0  0  0  0  0  0  0  0  0  0  0
   11.9507    0.6806   13.9037 H   0  0  0  0  0  0  0  0  0  0  0  0
    7.0204    2.9376   11.7218 H   0  0  0  0  0  0  0  0  0  0  0  0
    7.9805    2.9180   10.2230 H   0  0  0  0  0  0  0  0  0  0  0  0
    7.1536    1.4570   10.7629 H   0  0  0  0  0  0  0  0  0  0  0  0
   11.6746   -0.5489   10.3715 H   0  0  0  0  0  0  0  0  0  0  0  0
   12.9159   -0.0056   11.5090 H   0  0  0  0  0  0  0  0  0  0  0  0
   11.8484   -1.3369   11.9423 H   0  0  0  0  0  0  0  0  0  0  0  0
   10.5678    1.4838   15.9782 H   0  0  0  0  0  0  0  0  0  0  0  0
   11.3154    2.9856   15.4354 H   0  0  0  0  0  0  0  0  0  0  0  0
    9.5589    2.9142   15.7120 H   0  0  0  0  0  0  0  0  0  0  0  0
  3  4  2  0  0  0  0
  4  5  1  0  0  0  0
  4 21  1  0  0  0  0
  5 23  1  0  0  0  0
  5 22  1  0  0  0  0
  6 24  1  0  0  0  0
  6  5  1  0  0  0  0
  7  6  1  0  0  0  0
  8 27  1  6  0  0  0
  8  7  1  0  0  0  0
  8  1  1  0  0  0  0
  9  8  1  0  0  0  0
  9 10  1  0  0  0  0
 10 30  1  0  0  0  0
 10  3  1  0  0  0  0
 11 16  1  0  0  0  0
 11  1  1  0  0  0  0
 12 11  2  0  0  0  0
 13 12  1  0  0  0  0
 13 14  2  0  0  0  0
 14 15  1  0  0  0  0
 15 33  1  0  0  0  0
 15 16  2  0  0  0  0
 16 19  1  0  0  0  0
 17 34  1  0  0  0  0
 17 12  1  0  0  0  0
 18 38  1  0  0  0  0
 18 39  1  0  0  0  0
 18 14  1  0  0  0  0
 19 41  1  0  0  0  0
 19 42  1  0  0  0  0
 19 40  1  0  0  0  0
 20  3  1  0  0  0  0
 25  6  1  0  0  0  0
 26  7  1  0  0  0  0
 28  9  1  0  0  0  0
 29  9  1  0  0  0  0
 31 10  1  0  0  0  0
 32 13  1  0  0  0  0
 35 17  1  0  0  0  0
 36 17  1  0  0  0  0
 37 18  1  0  0  0  0
M  END
$$$$
