CSD_code = WAYPEU | q = 0 | S = 0 | Stoichiometry = C27H30IN3OZn | MND = 5
 OpenBabel04212202113D

 63 68  0  0  0  0  0  0  0  0999 V2000
    0.5390    3.2692    1.2887 Zn  0  0  0  0  0  0  0  0  0  0  0  0
    0.1624    1.8914    3.3286 I   0  0  0  0  0  0  0  0  0  0  0  0
    2.4033    3.7332    1.0108 O   0  0  0  0  0  0  0  0  0  0  0  0
    2.9781    3.0412    0.1026 C   0  0  0  0  0  0  0  0  0  0  0  0
    4.3931    3.0846   -0.1132 C   0  0  0  0  0  0  0  0  0  0  0  0
    4.9268    2.2998   -1.1001 C   0  0  0  0  0  0  0  0  0  0  0  0
    5.9901    2.3305   -1.2662 H   0  0  0  0  0  0  0  0  0  0  0  0
    4.1673    1.4425   -1.9237 C   0  0  0  0  0  0  0  0  0  0  0  0
    2.8125    1.3939   -1.7260 C   0  0  0  0  0  0  0  0  0  0  0  0
    2.1972    0.7573   -2.3393 H   0  0  0  0  0  0  0  0  0  0  0  0
    2.1961    2.1792   -0.7386 C   0  0  0  0  0  0  0  0  0  0  0  0
    0.8570    2.2158   -0.4794 N   0  0  0  0  0  0  0  0  0  0  0  0
   -0.0279    1.4864   -1.0791 C   0  0  0  0  0  3  0  0  0  0  0  0
    0.2760    0.7543   -1.8283 H   0  0  0  0  0  0  0  0  0  0  0  0
   -1.4395    1.5260   -0.8384 C   0  0  0  0  0  0  0  0  0  0  0  0
   -2.2111    0.5029   -1.4144 C   0  0  0  0  0  0  0  0  0  0  0  0
   -1.7046   -0.2605   -1.9872 H   0  0  0  0  0  0  0  0  0  0  0  0
   -3.5734    0.4300   -1.2449 C   0  0  0  0  0  0  0  0  0  0  0  0
   -4.1310   -0.3827   -1.6845 H   0  0  0  0  0  0  0  0  0  0  0  0
   -4.2293    1.3951   -0.4867 C   0  0  0  0  0  0  0  0  0  0  0  0
   -5.2935    1.3269   -0.3214 H   0  0  0  0  0  0  0  0  0  0  0  0
   -3.5126    2.4349    0.0590 C   0  0  0  0  0  0  0  0  0  0  0  0
   -4.0149    3.1620    0.6802 H   0  0  0  0  0  0  0  0  0  0  0  0
   -2.1244    2.5319   -0.1084 C   0  0  0  0  0  0  0  0  0  0  0  0
   -1.4141    3.5610    0.4568 N   0  0  0  0  0  0  0  0  0  0  0  0
   -1.8972    4.7299    0.6623 C   0  0  0  0  0  0  0  0  0  0  0  0
   -2.8900    5.0330    0.3274 H   0  0  0  0  0  0  0  0  0  0  0  0
   -1.1030    5.7092    1.3641 C   0  0  0  0  0  0  0  0  0  0  0  0
   -1.5622    7.0071    1.6015 C   0  0  0  0  0  0  0  0  0  0  0  0
   -2.5372    7.3068    1.2487 H   0  0  0  0  0  0  0  0  0  0  0  0
   -0.7482    7.8856    2.2924 C   0  0  0  0  0  0  0  0  0  0  0  0
   -1.0763    8.8952    2.4897 H   0  0  0  0  0  0  0  0  0  0  0  0
    0.4945    7.4476    2.7284 C   0  0  0  0  0  0  0  0  0  0  0  0
    1.1580    8.1020    3.2700 H   0  0  0  0  0  0  0  0  0  0  0  0
    0.8709    6.1396    2.4551 C   0  0  0  0  0  0  0  0  0  0  0  0
    1.8261    5.7472    2.7734 H   0  0  0  0  0  0  0  0  0  0  0  0
    0.0966    5.3013    1.7951 N   0  0  0  0  0  0  0  0  0  0  0  0
    5.2452    3.9943    0.7605 C   0  0  0  0  0  0  0  0  0  0  0  0
    6.7327    3.9472    0.3983 C   0  0  0  0  0  0  0  0  0  0  0  0
    6.9007    4.2689   -0.6276 H   0  0  0  0  0  0  0  0  0  0  0  0
    7.2801    4.6215    1.0540 H   0  0  0  0  0  0  0  0  0  0  0  0
    7.1401    2.9476    0.5333 H   0  0  0  0  0  0  0  0  0  0  0  0
    4.7635    5.4427    0.5930 C   0  0  0  0  0  0  0  0  0  0  0  0
    3.7141    5.5252    0.8577 H   0  0  0  0  0  0  0  0  0  0  0  0
    5.3398    6.1065    1.2345 H   0  0  0  0  0  0  0  0  0  0  0  0
    4.8873    5.7637   -0.4401 H   0  0  0  0  0  0  0  0  0  0  0  0
    5.0982    3.5573    2.2246 C   0  0  0  0  0  0  0  0  0  0  0  0
    4.0595    3.6037    2.5353 H   0  0  0  0  0  0  0  0  0  0  0  0
    5.4489    2.5347    2.3486 H   0  0  0  0  0  0  0  0  0  0  0  0
    5.6848    4.2065    2.8717 H   0  0  0  0  0  0  0  0  0  0  0  0
    4.8854    0.6249   -2.9857 C   0  0  0  0  0  0  0  0  0  0  0  0
    5.5910    1.5767   -3.9624 C   0  0  0  0  0  0  0  0  0  0  0  0
    6.3301    2.1905   -3.4553 H   0  0  0  0  0  0  0  0  0  0  0  0
    6.0972    1.0081   -4.7399 H   0  0  0  0  0  0  0  0  0  0  0  0
    4.8657    2.2370   -4.4338 H   0  0  0  0  0  0  0  0  0  0  0  0
    3.9317   -0.2618   -3.7915 C   0  0  0  0  0  0  0  0  0  0  0  0
    3.4212   -0.9734   -3.1464 H   0  0  0  0  0  0  0  0  0  0  0  0
    3.1937    0.3364   -4.3218 H   0  0  0  0  0  0  0  0  0  0  0  0
    4.4979   -0.8259   -4.5300 H   0  0  0  0  0  0  0  0  0  0  0  0
    5.9193   -0.2843   -2.3062 C   0  0  0  0  0  0  0  0  0  0  0  0
    6.6689    0.2936   -1.7732 H   0  0  0  0  0  0  0  0  0  0  0  0
    5.4282   -0.9438   -1.5938 H   0  0  0  0  0  0  0  0  0  0  0  0
    6.4271   -0.8950   -3.0500 H   0  0  0  0  0  0  0  0  0  0  0  0
  1 37  1  0  0  0  0
  1  2  1  0  0  0  0
  3  1  1  0  0  0  0
  4  3  1  0  0  0  0
  5  4  1  0  0  0  0
  5 38  1  0  0  0  0
  6  5  2  0  0  0  0
  7  6  1  0  0  0  0
  8  9  2  0  0  0  0
  8  6  1  0  0  0  0
  9 11  1  0  0  0  0
 10  9  1  0  0  0  0
 11 12  1  0  0  0  0
 11  4  2  0  0  0  0
 12  1  1  0  0  0  0
 13 15  1  0  0  0  0
 13 12  1  0  0  0  0
 14 13  1  0  0  0  0
 15 24  1  0  0  0  0
 16 18  1  0  0  0  0
 16 15  2  0  0  0  0
 17 16  1  0  0  0  0
 18 20  2  0  0  0  0
 19 18  1  0  0  0  0
 20 21  1  0  0  0  0
 20 22  1  0  0  0  0
 22 23  1  0  0  0  0
 24 22  2  0  0  0  0
 24 25  1  0  0  0  0
 25 26  1  0  0  0  0
 25  1  1  0  0  0  0
 26 28  2  0  0  0  0
 27 26  1  0  0  0  0
 28 29  1  0  0  0  0
 28 37  1  0  0  0  0
 29 31  2  0  0  0  0
 30 29  1  0  0  0  0
 31 32  1  0  0  0  0
 31 33  1  0  0  0  0
 33 34  1  0  0  0  0
 35 33  2  0  0  0  0
 35 36  1  0  0  0  0
 37 35  1  0  0  0  0
 38 47  1  0  0  0  0
 39 42  1  0  0  0  0
 39 38  1  0  0  0  0
 39 41  1  0  0  0  0
 40 39  1  0  0  0  0
 43 38  1  0  0  0  0
 43 44  1  0  0  0  0
 43 45  1  0  0  0  0
 46 43  1  0  0  0  0
 47 49  1  0  0  0  0
 47 48  1  0  0  0  0
 47 50  1  0  0  0  0
 51 60  1  0  0  0  0
 51  8  1  0  0  0  0
 52 53  1  0  0  0  0
 52 51  1  0  0  0  0
 54 52  1  0  0  0  0
 55 52  1  0  0  0  0
 56 57  1  0  0  0  0
 56 51  1  0  0  0  0
 58 56  1  0  0  0  0
 59 56  1  0  0  0  0
 60 61  1  0  0  0  0
 60 62  1  0  0  0  0
 63 60  1  0  0  0  0
M  END
$$$$
