CSD_code = WAZROE | q = 0 | S = 0 | Stoichiometry = C18H17Cl2OPPt | MND = 4
 OpenBabel04212202113D

 40 41  0  0  0  0  0  0  0  0999 V2000
    4.1807    4.0979    2.0011 Pt  0  0  0  0  0  0  0  0  0  0  0  0
    2.7040    4.5325    0.2590 Cl  0  0  0  0  0  0  0  0  0  0  0  0
    5.5758    3.4306    3.6772 Cl  0  0  0  0  0  0  0  0  0  0  0  0
    3.7723    6.0546    2.9870 P   0  0  0  0  0  4  0  0  0  0  0  0
    4.5155    2.2121    0.8281 O   0  0  0  0  0  0  0  0  0  0  0  0
    1.9973    6.4208    2.9231 C   0  0  0  0  0  0  0  0  0  0  0  0
    1.1472    5.3662    3.2503 C   0  0  0  0  0  0  0  0  0  0  0  0
   -0.2220    5.5416    3.2118 C   0  0  0  0  0  0  0  0  0  0  0  0
   -0.7485    6.7690    2.8374 C   0  0  0  0  0  0  0  0  0  0  0  0
    0.0946    7.8142    2.5005 C   0  0  0  0  0  0  0  0  0  0  0  0
    1.4688    7.6455    2.5411 C   0  0  0  0  0  0  0  0  0  0  0  0
    4.2323    6.2705    4.7295 C   0  0  0  0  0  0  0  0  0  0  0  0
    5.5870    6.4007    5.0253 C   0  0  0  0  0  0  0  0  0  0  0  0
    5.9971    6.5351    6.3370 C   0  0  0  0  0  0  0  0  0  0  0  0
    5.0606    6.5374    7.3597 C   0  0  0  0  0  0  0  0  0  0  0  0
    3.7138    6.4053    7.0679 C   0  0  0  0  0  0  0  0  0  0  0  0
    3.2955    6.2686    5.7552 C   0  0  0  0  0  0  0  0  0  0  0  0
    4.6376    7.4093    2.1514 C   0  0  0  0  0  0  0  0  0  0  0  0
    5.2444    7.1599    0.9255 C   0  0  0  0  0  0  0  0  0  0  0  0
    5.9013    8.1794    0.2600 C   0  0  0  0  0  0  0  0  0  0  0  0
    5.9551    9.4466    0.8176 C   0  0  0  0  0  0  0  0  0  0  0  0
    5.3603    9.6953    2.0453 C   0  0  0  0  0  0  0  0  0  0  0  0
    4.7040    8.6803    2.7170 C   0  0  0  0  0  0  0  0  0  0  0  0
    3.8208    2.3984    0.1710 H   0  0  0  0  0  0  0  0  0  0  0  0
    4.2516    1.4550    1.3644 H   0  0  0  0  0  0  0  0  0  0  0  0
    1.5834    4.4084    3.5162 H   0  0  0  0  0  0  0  0  0  0  0  0
   -0.8809    4.7231    3.4611 H   0  0  0  0  0  0  0  0  0  0  0  0
   -1.8189    6.9058    2.7970 H   0  0  0  0  0  0  0  0  0  0  0  0
   -0.3186    8.7644    2.1957 H   0  0  0  0  0  0  0  0  0  0  0  0
    2.1254    8.4567    2.2617 H   0  0  0  0  0  0  0  0  0  0  0  0
    6.3084    6.3823    4.2202 H   0  0  0  0  0  0  0  0  0  0  0  0
    7.0480    6.6302    6.5656 H   0  0  0  0  0  0  0  0  0  0  0  0
    5.3825    6.6374    8.3856 H   0  0  0  0  0  0  0  0  0  0  0  0
    2.9848    6.4034    7.8649 H   0  0  0  0  0  0  0  0  0  0  0  0
    2.2441    6.1622    5.5283 H   0  0  0  0  0  0  0  0  0  0  0  0
    5.1941    6.1590    0.5078 H   0  0  0  0  0  0  0  0  0  0  0  0
    6.3726    7.9867   -0.6920 H   0  0  0  0  0  0  0  0  0  0  0  0
    6.4670   10.2432    0.2983 H   0  0  0  0  0  0  0  0  0  0  0  0
    5.4112   10.6827    2.4804 H   0  0  0  0  0  0  0  0  0  0  0  0
    4.2505    8.8633    3.6821 H   0  0  0  0  0  0  0  0  0  0  0  0
  1  4  1  0  0  0  0
  1  3  1  0  0  0  0
  2  1  1  0  0  0  0
  4 12  1  0  0  0  0
  5 25  1  0  0  0  0
  6  4  1  0  0  0  0
  6  7  1  0  0  0  0
  7 26  1  0  0  0  0
  8  7  2  0  0  0  0
  8 27  1  0  0  0  0
  9  8  1  0  0  0  0
 10 11  1  0  0  0  0
 10  9  2  0  0  0  0
 11  6  2  0  0  0  0
 12 13  2  0  0  0  0
 12 17  1  0  0  0  0
 13 14  1  0  0  0  0
 14 32  1  0  0  0  0
 14 15  2  0  0  0  0
 15 33  1  0  0  0  0
 16 15  1  0  0  0  0
 16 34  1  0  0  0  0
 17 16  2  0  0  0  0
 18 23  1  0  0  0  0
 18  4  1  0  0  0  0
 19 18  2  0  0  0  0
 20 21  2  0  0  0  0
 20 19  1  0  0  0  0
 21 22  1  0  0  0  0
 22 39  1  0  0  0  0
 22 23  2  0  0  0  0
 23 40  1  0  0  0  0
 24  5  1  0  0  0  0
 28  9  1  0  0  0  0
 29 10  1  0  0  0  0
 30 11  1  0  0  0  0
 31 13  1  0  0  0  0
 35 17  1  0  0  0  0
 36 19  1  0  0  0  0
 37 20  1  0  0  0  0
 38 21  1  0  0  0  0
M  END
$$$$
