CSD_code = WAZWEZ | q = 0 | S = 0 | Stoichiometry = C12H36Cl4N6O2P2Ti | MND = 6
 OpenBabel04212202113D

 63 62  0  0  0  0  0  0  0  0999 V2000
   -0.7427    5.0480    7.0073 Ti  0  0  0  0  0  0  0  0  0  0  0  0
    1.4543    7.1771    7.7153 P   0  0  0  0  0  4  0  0  0  0  0  0
    0.4451    3.0808    6.9261 Cl  0  0  0  0  0  0  0  0  0  0  0  0
   -1.4577    4.5228    9.1303 Cl  0  0  0  0  0  0  0  0  0  0  0  0
    0.7170    5.8593    7.7070 O   0  0  0  0  0  0  0  0  0  0  0  0
    0.7185    8.2248    8.7677 N   0  0  0  0  0  0  0  0  0  0  0  0
    3.0164    6.7780    8.1750 N   0  0  0  0  0  0  0  0  0  0  0  0
    1.6880    8.0322    6.3141 N   0  0  0  0  0  0  0  0  0  0  0  0
   -0.1766    7.7593    9.8093 C   0  0  0  0  0  0  0  0  0  0  0  0
   -0.2315    6.6703    9.7943 H   0  0  0  0  0  0  0  0  0  0  0  0
   -1.1830    8.1576    9.6528 H   0  0  0  0  0  0  0  0  0  0  0  0
    0.1896    8.0799   10.7892 H   0  0  0  0  0  0  0  0  0  0  0  0
    0.9479    9.6506    8.7716 C   0  0  0  0  0  0  0  0  0  0  0  0
    1.6136    9.9198    7.9573 H   0  0  0  0  0  0  0  0  0  0  0  0
    1.4013    9.9590    9.7197 H   0  0  0  0  0  0  0  0  0  0  0  0
    0.0023   10.1871    8.6528 H   0  0  0  0  0  0  0  0  0  0  0  0
    3.9419    7.8499    8.4649 C   0  0  0  0  0  0  0  0  0  0  0  0
    3.7033    8.7054    7.8385 H   0  0  0  0  0  0  0  0  0  0  0  0
    4.9584    7.5191    8.2399 H   0  0  0  0  0  0  0  0  0  0  0  0
    3.9033    8.1545    9.5167 H   0  0  0  0  0  0  0  0  0  0  0  0
    3.2633    5.5619    8.9269 C   0  0  0  0  0  0  0  0  0  0  0  0
    2.5074    4.8193    8.6694 H   0  0  0  0  0  0  0  0  0  0  0  0
    3.2415    5.7358   10.0082 H   0  0  0  0  0  0  0  0  0  0  0  0
    4.2458    5.1699    8.6546 H   0  0  0  0  0  0  0  0  0  0  0  0
    0.5836    8.7628    5.7085 C   0  0  0  0  0  0  0  0  0  0  0  0
   -0.2052    8.9271    6.4390 H   0  0  0  0  0  0  0  0  0  0  0  0
    0.1554    8.2004    4.8745 H   0  0  0  0  0  0  0  0  0  0  0  0
    0.9550    9.7221    5.3386 H   0  0  0  0  0  0  0  0  0  0  0  0
    2.6412    7.5313    5.3345 C   0  0  0  0  0  0  0  0  0  0  0  0
    3.3722    6.8971    5.8305 H   0  0  0  0  0  0  0  0  0  0  0  0
    3.1483    8.3831    4.8751 H   0  0  0  0  0  0  0  0  0  0  0  0
    2.1392    6.9500    4.5571 H   0  0  0  0  0  0  0  0  0  0  0  0
   -1.9306    7.0151    7.0884 Cl  0  0  0  0  0  0  0  0  0  0  0  0
   -0.0281    5.5734    4.8841 Cl  0  0  0  0  0  0  0  0  0  0  0  0
   -2.2023    4.2368    6.3075 O   0  0  0  0  0  0  0  0  0  0  0  0
   -2.9396    2.9189    6.2992 P   0  0  0  0  0  4  0  0  0  0  0  0
   -2.2038    1.8712    5.2468 N   0  0  0  0  0  0  0  0  0  0  0  0
   -4.5017    3.3180    5.8395 N   0  0  0  0  0  0  0  0  0  0  0  0
   -3.1733    2.0639    7.7004 N   0  0  0  0  0  0  0  0  0  0  0  0
   -1.3086    2.3366    4.2053 C   0  0  0  0  0  0  0  0  0  0  0  0
   -2.4332    0.4454    5.2430 C   0  0  0  0  0  0  0  0  0  0  0  0
   -5.4272    2.2461    5.5497 C   0  0  0  0  0  0  0  0  0  0  0  0
   -4.7486    4.5341    5.0876 C   0  0  0  0  0  0  0  0  0  0  0  0
   -2.0689    1.3332    8.3061 C   0  0  0  0  0  0  0  0  0  0  0  0
   -4.1266    2.5647    8.6800 C   0  0  0  0  0  0  0  0  0  0  0  0
   -1.2537    3.4256    4.2203 H   0  0  0  0  0  0  0  0  0  0  0  0
   -0.3023    1.9384    4.3619 H   0  0  0  0  0  0  0  0  0  0  0  0
   -1.6748    2.0160    3.2253 H   0  0  0  0  0  0  0  0  0  0  0  0
   -3.0990    0.1762    6.0572 H   0  0  0  0  0  0  0  0  0  0  0  0
   -2.8866    0.1370    4.2949 H   0  0  0  0  0  0  0  0  0  0  0  0
   -1.4877   -0.0911    5.3619 H   0  0  0  0  0  0  0  0  0  0  0  0
   -5.1886    1.3906    6.1760 H   0  0  0  0  0  0  0  0  0  0  0  0
   -6.4438    2.5769    5.7746 H   0  0  0  0  0  0  0  0  0  0  0  0
   -5.3886    1.9414    4.4978 H   0  0  0  0  0  0  0  0  0  0  0  0
   -3.9927    5.2767    5.3449 H   0  0  0  0  0  0  0  0  0  0  0  0
   -4.7268    4.3601    4.0062 H   0  0  0  0  0  0  0  0  0  0  0  0
   -5.7311    4.9261    5.3598 H   0  0  0  0  0  0  0  0  0  0  0  0
   -1.2801    1.1690    7.5756 H   0  0  0  0  0  0  0  0  0  0  0  0
   -1.6408    1.8956    9.1401 H   0  0  0  0  0  0  0  0  0  0  0  0
   -2.4404    0.3739    8.6759 H   0  0  0  0  0  0  0  0  0  0  0  0
   -4.8575    3.1990    8.1840 H   0  0  0  0  0  0  0  0  0  0  0  0
   -4.6338    1.7130    9.1394 H   0  0  0  0  0  0  0  0  0  0  0  0
   -3.6246    3.1460    9.4575 H   0  0  0  0  0  0  0  0  0  0  0  0
  1 33  1  0  0  0  0
  1  5  1  0  0  0  0
  1  4  1  0  0  0  0
  2  7  1  0  0  0  0
  2  6  1  0  0  0  0
  3  1  1  0  0  0  0
  5  2  1  0  0  0  0
  6 13  1  0  0  0  0
  6  9  1  0  0  0  0
  7 17  1  0  0  0  0
  7 21  1  0  0  0  0
  8  2  1  0  0  0  0
  9 12  1  0  0  0  0
 10  9  1  0  0  0  0
 11  9  1  0  0  0  0
 13 15  1  0  0  0  0
 14 13  1  0  0  0  0
 16 13  1  0  0  0  0
 17 20  1  0  0  0  0
 18 17  1  0  0  0  0
 19 17  1  0  0  0  0
 21 23  1  0  0  0  0
 22 21  1  0  0  0  0
 24 21  1  0  0  0  0
 25  8  1  0  0  0  0
 25 26  1  0  0  0  0
 27 25  1  0  0  0  0
 28 25  1  0  0  0  0
 29 30  1  0  0  0  0
 29  8  1  0  0  0  0
 31 29  1  0  0  0  0
 32 29  1  0  0  0  0
 34  1  1  0  0  0  0
 35  1  1  0  0  0  0
 36 35  1  0  0  0  0
 36 39  1  0  0  0  0
 37 36  1  0  0  0  0
 38 36  1  0  0  0  0
 39 44  1  0  0  0  0
 39 45  1  0  0  0  0
 40 46  1  0  0  0  0
 40 47  1  0  0  0  0
 40 37  1  0  0  0  0
 41 37  1  0  0  0  0
 41 51  1  0  0  0  0
 41 49  1  0  0  0  0
 42 53  1  0  0  0  0
 42 38  1  0  0  0  0
 42 52  1  0  0  0  0
 43 55  1  0  0  0  0
 43 57  1  0  0  0  0
 43 38  1  0  0  0  0
 44 60  1  0  0  0  0
 44 59  1  0  0  0  0
 45 62  1  0  0  0  0
 45 63  1  0  0  0  0
 48 40  1  0  0  0  0
 50 41  1  0  0  0  0
 54 42  1  0  0  0  0
 56 43  1  0  0  0  0
 58 44  1  0  0  0  0
 61 45  1  0  0  0  0
M  END
$$$$
