CSD_code = WAZXAZ | q = 0 | S = 0 | Stoichiometry = C18H23Cl3N4Pd | MND = 4
 OpenBabel04212202113D

 49 51  0  0  1  0  0  0  0  0999 V2000
    8.7339    9.8607   -0.0183 Pd  0  0  0  0  0  0  0  0  0  0  0  0
    9.6086   11.4085    1.4695 Cl  0  0  0  0  0  0  0  0  0  0  0  0
    8.4931   11.4227   -1.5804 Cl  0  0  0  0  0  0  0  0  0  0  0  0
    7.6543    8.2970   -1.2891 Cl  0  0  0  0  0  0  0  0  0  0  0  0
    6.1537   10.4399    3.0202 N   0  0  0  0  0  0  0  0  0  0  0  0
    5.6281   11.0605    5.0387 N   0  0  0  0  0  0  0  0  0  0  0  0
    8.8803    8.4997    1.4779 N   0  0  0  0  0  0  0  0  0  0  0  0
    7.8371    8.1784    2.2530 N   0  0  0  0  0  0  0  0  0  0  0  0
    6.4982    8.3545    1.7580 C   0  0  0  0  0  0  0  0  0  0  0  0
    5.8129    7.7707    2.3751 H   0  0  0  0  0  0  0  0  0  0  0  0
    6.4872    7.9964    0.7110 H   0  0  0  0  0  0  0  0  0  0  0  0
    6.0775    9.8385    1.7171 C   0  0  0  0  0  0  0  0  0  0  0  0
    6.7758   10.3730    1.0201 H   0  0  0  0  0  0  0  0  0  0  0  0
    5.0586    9.9101    1.3328 H   0  0  0  0  0  0  0  0  0  0  0  0
    7.2881   10.9382    3.5894 C   0  0  0  0  0  0  0  0  0  0  0  0
    8.2194   11.0502    3.0252 H   0  0  0  0  0  0  0  0  0  0  0  0
    6.9560   11.3239    4.8505 C   0  0  0  0  0  0  0  0  0  0  0  0
    7.5627   11.7640    5.6135 H   0  0  0  0  0  0  0  0  0  0  0  0
    4.9232   11.2482    6.2960 C   0  0  1  0  0  0  0  0  0  0  0  0
    5.3760   12.1233    6.7749 H   0  0  0  0  0  0  0  0  0  0  0  0
    3.4371   11.5173    6.0758 C   0  0  0  0  0  0  0  0  0  0  0  0
    3.2967   12.3239    5.3599 H   0  0  0  0  0  0  0  0  0  0  0  0
    2.9884   11.8121    7.0204 H   0  0  0  0  0  0  0  0  0  0  0  0
    2.9186   10.6293    5.7249 H   0  0  0  0  0  0  0  0  0  0  0  0
    5.1519   10.0340    7.1767 C   0  0  0  0  0  0  0  0  0  0  0  0
    4.8076    8.7644    6.7296 C   0  0  0  0  0  0  0  0  0  0  0  0
    4.3646    8.6345    5.7521 H   0  0  0  0  0  0  0  0  0  0  0  0
    5.0263    7.6571    7.5292 C   0  0  0  0  0  0  0  0  0  0  0  0
    4.7570    6.6755    7.1704 H   0  0  0  0  0  0  0  0  0  0  0  0
    5.5888    7.8089    8.7853 C   0  0  0  0  0  0  0  0  0  0  0  0
    5.7588    6.9451    9.4089 H   0  0  0  0  0  0  0  0  0  0  0  0
    5.9316    9.0713    9.2377 C   0  0  0  0  0  0  0  0  0  0  0  0
    6.3699    9.1960   10.2158 H   0  0  0  0  0  0  0  0  0  0  0  0
    5.7183   10.1787    8.4351 C   0  0  0  0  0  0  0  0  0  0  0  0
    5.9900   11.1614    8.7922 H   0  0  0  0  0  0  0  0  0  0  0  0
    5.1620   10.5139    3.9116 C   0  0  0  0  0  3  0  0  0  0  0  0
    4.1497   10.2192    3.7270 H   0  0  0  0  0  0  0  0  0  0  0  0
    8.2662    7.5903    3.3992 C   0  0  2  0  0  3  0  0  0  0  0  0
    9.6419    7.5522    3.3318 C   0  0  0  0  0  0  0  0  0  0  0  0
   10.3118    7.1558    4.0665 H   0  0  0  0  0  0  0  0  0  0  0  0
    9.9861    8.1391    2.1022 C   0  0  0  0  0  0  0  0  0  0  0  0
   11.3134    8.3836    1.4817 C   0  0  0  0  0  0  0  0  0  0  0  0
   11.1610    8.7098    0.4410 H   0  0  0  0  0  0  0  0  0  0  0  0
   11.9244    7.4832    1.4965 H   0  0  0  0  0  0  0  0  0  0  0  0
   11.8373    9.1740    2.0187 H   0  0  0  0  0  0  0  0  0  0  0  0
    7.3495    7.1101    4.4668 C   0  0  0  0  0  0  0  0  0  0  0  0
    6.7759    7.9316    4.8982 H   0  0  0  0  0  0  0  0  0  0  0  0
    7.9339    6.6536    5.2601 H   0  0  0  0  0  0  0  0  0  0  0  0
    6.6542    6.3642    4.0813 H   0  0  0  0  0  0  0  0  0  0  0  0
  1  2  1  0  0  0  0
  1  7  1  0  0  0  0
  3  1  1  0  0  0  0
  4  1  1  0  0  0  0
  5 15  1  0  0  0  0
  5 36  1  0  0  0  0
  6 19  1  0  0  0  0
  7 41  1  0  0  0  0
  7  8  1  0  0  0  0
  8 38  1  0  0  0  0
  9  8  1  0  0  0  0
  9 10  1  0  0  0  0
 11  9  1  0  0  0  0
 12  9  1  0  0  0  0
 12  5  1  0  0  0  0
 13 12  1  0  0  0  0
 14 12  1  0  0  0  0
 15 17  2  0  0  0  0
 16 15  1  0  0  0  0
 17  6  1  0  0  0  0
 17 18  1  0  0  0  0
 19 20  1  1  0  0  0
 19 25  1  0  0  0  0
 21 19  1  0  0  0  0
 21 23  1  0  0  0  0
 22 21  1  0  0  0  0
 24 21  1  0  0  0  0
 25 34  1  0  0  0  0
 26 25  2  0  0  0  0
 26 28  1  0  0  0  0
 27 26  1  0  0  0  0
 28 30  2  0  0  0  0
 29 28  1  0  0  0  0
 30 32  1  0  0  0  0
 30 31  1  0  0  0  0
 32 33  1  0  0  0  0
 34 35  1  0  0  0  0
 34 32  2  0  0  0  0
 36  6  1  0  0  0  0
 37 36  1  0  0  0  0
 38 46  1  6  0  0  0
 39 38  1  0  0  0  0
 39 40  1  0  0  0  0
 41 39  2  0  0  0  0
 42 44  1  0  0  0  0
 42 45  1  0  0  0  0
 42 41  1  0  0  0  0
 43 42  1  0  0  0  0
 46 47  1  0  0  0  0
 46 48  1  0  0  0  0
 49 46  1  0  0  0  0
M  END
$$$$
