CSD_code = WEBLUN | q = 0 | S = 0 | Stoichiometry = C8H12Cl2N4Zn | MND = 4
 OpenBabel04212202113D

 27 28  0  0  0  0  0  0  0  0999 V2000
    6.2448    3.5156    3.3976 Zn  0  0  0  0  0  0  0  0  0  0  0  0
    4.8992    3.5491    1.6134 Cl  0  0  0  0  0  0  0  0  0  0  0  0
    5.9295    4.2106    5.4975 Cl  0  0  0  0  0  0  0  0  0  0  0  0
    7.8126    4.5044    2.4614 N   0  0  0  0  0  0  0  0  0  0  0  0
    7.5605    4.7904    1.1815 N   0  0  0  0  0  0  0  0  0  0  0  0
    6.8003    1.5860    3.9280 N   0  0  0  0  0  0  0  0  0  0  0  0
    7.0737    0.4149    3.3704 C   0  0  0  0  0  3  0  0  0  0  0  0
    7.1000    0.3090    2.3040 H   0  0  0  0  0  0  0  0  0  0  0  0
    7.2896   -0.5434    4.3574 C   0  0  0  0  0  0  0  0  0  0  0  0
    7.5260   -1.5776    4.2176 H   0  0  0  0  0  0  0  0  0  0  0  0
    6.8393    1.3959    5.2494 N   0  0  0  0  0  0  0  0  0  0  0  0
    7.1259    0.1251    5.5607 C   0  0  0  0  0  0  0  0  0  0  0  0
    7.2327   -0.3466    6.9625 C   0  0  0  0  0  0  0  0  0  0  0  0
    8.1586    0.0110    7.4124 H   0  0  0  0  0  0  0  0  0  0  0  0
    7.2285   -1.4321    6.9943 H   0  0  0  0  0  0  0  0  0  0  0  0
    6.4024    0.0333    7.5542 H   0  0  0  0  0  0  0  0  0  0  0  0
    9.0072    5.0118    2.7325 C   0  0  0  0  0  3  0  0  0  0  0  0
    9.4353    4.9126    3.7102 H   0  0  0  0  0  0  0  0  0  0  0  0
    9.5274    5.6350    1.6015 C   0  0  0  0  0  0  0  0  0  0  0  0
   10.4698    6.1338    1.5101 H   0  0  0  0  0  0  0  0  0  0  0  0
    8.5632    5.4751    0.6176 C   0  0  0  0  0  0  0  0  0  0  0  0
    8.5210    5.9370   -0.7908 C   0  0  0  0  0  0  0  0  0  0  0  0
    7.9160    5.2635   -1.3927 H   0  0  0  0  0  0  0  0  0  0  0  0
    9.5254    5.9871   -1.2025 H   0  0  0  0  0  0  0  0  0  0  0  0
    8.0802    6.9324   -0.8460 H   0  0  0  0  0  0  0  0  0  0  0  0
    6.6554    4.4889    0.8067 H   0  0  0  0  0  0  0  0  0  0  0  0
    6.6175    2.2012    5.8428 H   0  0  0  0  0  0  0  0  0  0  0  0
  1  6  1  0  0  0  0
  1  3  1  0  0  0  0
  2  1  1  0  0  0  0
  4 17  1  0  0  0  0
  4  1  1  0  0  0  0
  5  4  1  0  0  0  0
  6 11  1  0  0  0  0
  7  6  1  0  0  0  0
  7  9  1  0  0  0  0
  8  7  1  0  0  0  0
  9 12  2  0  0  0  0
 10  9  1  0  0  0  0
 11 12  1  0  0  0  0
 11 27  1  0  0  0  0
 12 13  1  0  0  0  0
 13 15  1  0  0  0  0
 13 14  1  0  0  0  0
 13 16  1  0  0  0  0
 17 18  1  0  0  0  0
 19 17  1  0  0  0  0
 20 19  1  0  0  0  0
 21  5  1  0  0  0  0
 21 19  2  0  0  0  0
 22 21  1  0  0  0  0
 23 22  1  0  0  0  0
 24 22  1  0  0  0  0
 25 22  1  0  0  0  0
 26  5  1  0  0  0  0
M  END
$$$$
