CSD_code = WEBWOP | q = 0 | S = 0 | Stoichiometry = C4H8AuCl3S | MND = 4
 OpenBabel04212202113D

 17 17  0  0  0  0  0  0  0  0999 V2000
    2.6370    0.1199    2.8300 Au  0  0  0  0  0  0  0  0  0  0  0  0
    0.4169   -0.1666    2.4479 Cl  0  0  0  0  0  0  0  0  0  0  0  0
    2.5452    2.1374    1.7772 Cl  0  0  0  0  0  0  0  0  0  0  0  0
    2.7560   -1.9336    3.8151 Cl  0  0  0  0  0  0  0  0  0  0  0  0
    5.0358    0.3718    3.3558 S   0  0  0  0  0  3  0  0  0  0  0  0
    5.7181    1.4931    2.0718 C   0  0  0  0  0  0  0  0  0  0  0  0
    4.8723    2.0269    1.6356 H   0  0  0  0  0  0  0  0  0  0  0  0
    6.3640    2.2028    2.5839 H   0  0  0  0  0  0  0  0  0  0  0  0
    6.4632    0.6280    1.0610 C   0  0  0  0  0  0  0  0  0  0  0  0
    6.4102    1.0812    0.0724 H   0  0  0  0  0  0  0  0  0  0  0  0
    7.5130    0.5387    1.3452 H   0  0  0  0  0  0  0  0  0  0  0  0
    5.8139   -0.7516    1.0816 C   0  0  0  0  0  0  0  0  0  0  0  0
    6.4086   -1.4872    0.5411 H   0  0  0  0  0  0  0  0  0  0  0  0
    4.8194   -0.7085    0.6313 H   0  0  0  0  0  0  0  0  0  0  0  0
    5.7036   -1.1221    2.5473 C   0  0  0  0  0  0  0  0  0  0  0  0
    6.6808   -1.3030    2.9948 H   0  0  0  0  0  0  0  0  0  0  0  0
    5.0365   -1.9531    2.7660 H   0  0  0  0  0  0  0  0  0  0  0  0
  1  5  1  0  0  0  0
  1  4  1  0  0  0  0
  2  1  1  0  0  0  0
  3  1  1  0  0  0  0
  6  8  1  0  0  0  0
  6  5  1  0  0  0  0
  7  6  1  0  0  0  0
  9 12  1  0  0  0  0
  9 11  1  0  0  0  0
  9  6  1  0  0  0  0
 10  9  1  0  0  0  0
 12 15  1  0  0  0  0
 13 12  1  0  0  0  0
 14 12  1  0  0  0  0
 15 17  1  0  0  0  0
 15 16  1  0  0  0  0
 15  5  1  0  0  0  0
M  END
$$$$
