CSD_code = WECGOD | q = 0 | S = 0 | Stoichiometry = C12H22BrClP2Pd | MND = 4
 OpenBabel04212202113D

 39 39  0  0  0  0  0  0  0  0999 V2000
    0.3721    1.4387    2.3817 Pd  0  0  0  0  0  0  0  0  0  0  0  0
    1.9409    0.2615    3.8026 Br  0  0  0  0  0  0  0  0  0  0  0  0
   -3.8000    4.2525   -1.7246 Cl  0  0  0  0  0  0  0  0  0  0  0  0
   -1.3252    0.3941    3.4384 P   0  0  0  0  0  4  0  0  0  0  0  0
    2.1079    2.4669    1.3700 P   0  0  0  0  0  4  0  0  0  0  0  0
   -0.9076    2.3461    1.1676 C   0  0  0  0  0  0  0  0  0  0  0  0
   -1.4698    3.5857    1.4454 C   0  0  0  0  0  0  0  0  0  0  0  0
   -2.3592    4.1773    0.5618 C   0  0  0  0  0  0  0  0  0  0  0  0
   -2.6860    3.5173   -0.6104 C   0  0  0  0  0  0  0  0  0  0  0  0
   -2.1396    2.2808   -0.9098 C   0  0  0  0  0  0  0  0  0  0  0  0
   -1.2519    1.7034   -0.0155 C   0  0  0  0  0  0  0  0  0  0  0  0
   -1.2419   -1.4287    3.3066 C   0  0  0  0  0  0  0  0  0  0  0  0
   -1.3507    0.6493    5.2497 C   0  0  0  0  0  0  0  0  0  0  0  0
   -3.0706    0.7263    2.9866 C   0  0  0  0  0  0  0  0  0  0  0  0
    3.2739    1.3013    0.5770 C   0  0  0  0  0  0  0  0  0  0  0  0
    3.1982    3.3912    2.5121 C   0  0  0  0  0  0  0  0  0  0  0  0
    1.8339    3.6926    0.0346 C   0  0  0  0  0  0  0  0  0  0  0  0
   -1.2136    4.1049    2.3663 H   0  0  0  0  0  0  0  0  0  0  0  0
   -2.7949    5.1411    0.7789 H   0  0  0  0  0  0  0  0  0  0  0  0
   -2.4059    1.7791   -1.8281 H   0  0  0  0  0  0  0  0  0  0  0  0
   -0.8212    0.7301   -0.2507 H   0  0  0  0  0  0  0  0  0  0  0  0
   -0.2867   -1.7720    3.7053 H   0  0  0  0  0  0  0  0  0  0  0  0
   -1.3102   -1.7178    2.2570 H   0  0  0  0  0  0  0  0  0  0  0  0
   -2.0598   -1.8842    3.8646 H   0  0  0  0  0  0  0  0  0  0  0  0
   -1.4841    1.7106    5.4629 H   0  0  0  0  0  0  0  0  0  0  0  0
   -0.3995    0.3227    5.6709 H   0  0  0  0  0  0  0  0  0  0  0  0
   -2.1670    0.0816    5.6965 H   0  0  0  0  0  0  0  0  0  0  0  0
   -3.7393    0.1267    3.6032 H   0  0  0  0  0  0  0  0  0  0  0  0
   -3.2276    0.4867    1.9358 H   0  0  0  0  0  0  0  0  0  0  0  0
   -3.2884    1.7834    3.1324 H   0  0  0  0  0  0  0  0  0  0  0  0
    4.1128    1.8456    0.1435 H   0  0  0  0  0  0  0  0  0  0  0  0
    3.6383    0.5956    1.3242 H   0  0  0  0  0  0  0  0  0  0  0  0
    2.7533    0.7487   -0.2064 H   0  0  0  0  0  0  0  0  0  0  0  0
    4.0326    3.8273    1.9631 H   0  0  0  0  0  0  0  0  0  0  0  0
    2.6253    4.1832    2.9962 H   0  0  0  0  0  0  0  0  0  0  0  0
    3.5739    2.7111    3.2771 H   0  0  0  0  0  0  0  0  0  0  0  0
    1.2403    4.5216    0.4175 H   0  0  0  0  0  0  0  0  0  0  0  0
    1.2830    3.2257   -0.7809 H   0  0  0  0  0  0  0  0  0  0  0  0
    2.7885    4.0661   -0.3347 H   0  0  0  0  0  0  0  0  0  0  0  0
  1  4  1  0  0  0  0
  1  2  1  0  0  0  0
  3  9  1  0  0  0  0
  4 13  1  0  0  0  0
  5  1  1  0  0  0  0
  5 16  1  0  0  0  0
  6  7  1  0  0  0  0
  6  1  1  0  0  0  0
  7 18  1  0  0  0  0
  8 19  1  0  0  0  0
  8  7  2  0  0  0  0
  9  8  1  0  0  0  0
 10  9  2  0  0  0  0
 10 11  1  0  0  0  0
 11  6  2  0  0  0  0
 12  4  1  0  0  0  0
 12 22  1  0  0  0  0
 12 24  1  0  0  0  0
 13 25  1  0  0  0  0
 13 26  1  0  0  0  0
 13 27  1  0  0  0  0
 14 30  1  0  0  0  0
 14  4  1  0  0  0  0
 14 28  1  0  0  0  0
 15 32  1  0  0  0  0
 15  5  1  0  0  0  0
 16 35  1  0  0  0  0
 16 36  1  0  0  0  0
 17 37  1  0  0  0  0
 17  5  1  0  0  0  0
 20 10  1  0  0  0  0
 21 11  1  0  0  0  0
 23 12  1  0  0  0  0
 29 14  1  0  0  0  0
 31 15  1  0  0  0  0
 33 15  1  0  0  0  0
 34 16  1  0  0  0  0
 38 17  1  0  0  0  0
 39 17  1  0  0  0  0
M  END
$$$$
