CSD_code = WECNIE | q = 0 | S = 0 | Stoichiometry = C14H13ClN4PdS | MND = 4
 OpenBabel04212202113D

 34 37  0  0  0  0  0  0  0  0999 V2000
    1.0269   -1.0480    1.9248 Pd  0  0  2  0  0  0  0  0  0  0  0  0
    0.3898   -2.6577    3.2973 Cl  0  0  0  0  0  0  0  0  0  0  0  0
    1.5839   -2.5540    0.2825 S   0  0  0  0  0  0  0  0  0  0  0  0
    0.6808    0.7806    3.0751 N   0  0  0  0  0  0  0  0  0  0  0  0
    1.5958    0.2669    0.6367 N   0  0  0  0  0  0  0  0  0  0  0  0
    2.0499   -0.0428   -0.5748 N   0  0  0  0  0  0  0  0  0  0  0  0
    2.5151   -1.8033   -2.0328 N   0  0  0  0  0  0  0  0  0  0  0  0
    2.4760   -2.8134   -2.1032 H   0  0  0  0  0  0  0  0  0  0  0  0
   -0.1354   -0.1630    5.1534 C   0  0  0  0  0  0  0  0  0  0  0  0
   -0.9147   -0.7515    4.6675 H   0  0  0  0  0  0  0  0  0  0  0  0
   -0.4749    0.1518    6.1357 H   0  0  0  0  0  0  0  0  0  0  0  0
    0.7262   -0.8239    5.2563 H   0  0  0  0  0  0  0  0  0  0  0  0
    0.2203    1.0066    4.3066 C   0  0  0  0  0  0  0  0  0  0  0  0
    0.0745    2.3047    4.7958 C   0  0  0  0  0  0  0  0  0  0  0  0
   -0.3028    2.4536    5.7947 H   0  0  0  0  0  0  0  0  0  0  0  0
    0.4130    3.3874    4.0011 C   0  0  0  0  0  0  0  0  0  0  0  0
    0.3030    4.3957    4.3706 H   0  0  0  0  0  0  0  0  0  0  0  0
    0.8946    3.1522    2.7297 C   0  0  0  0  0  0  0  0  0  0  0  0
    1.1739    3.9611    2.0742 H   0  0  0  0  0  0  0  0  0  0  0  0
    1.0202    1.8326    2.2856 C   0  0  0  0  0  0  0  0  0  0  0  0
    1.5123    1.5213    0.9785 C   0  0  0  0  0  0  0  0  0  0  0  0
    1.8083    2.3019    0.2864 H   0  0  0  0  0  0  0  0  0  0  0  0
    2.0871   -1.3253   -0.8481 C   0  0  0  0  0  0  0  0  0  0  0  0
    2.9838   -1.1438   -3.1653 C   0  0  0  0  0  0  0  0  0  0  0  0
    3.1245    0.2392   -3.2364 C   0  0  0  0  0  0  0  0  0  0  0  0
    2.8602    0.8372   -2.3812 H   0  0  0  0  0  0  0  0  0  0  0  0
    3.5986    0.8217   -4.3973 C   0  0  0  0  0  0  0  0  0  0  0  0
    3.7057    1.8951   -4.4448 H   0  0  0  0  0  0  0  0  0  0  0  0
    3.9358    0.0451   -5.4931 C   0  0  0  0  0  0  0  0  0  0  0  0
    4.3047    0.5080   -6.3956 H   0  0  0  0  0  0  0  0  0  0  0  0
    3.7968   -1.3317   -5.4236 C   0  0  0  0  0  0  0  0  0  0  0  0
    4.0568   -1.9466   -6.2722 H   0  0  0  0  0  0  0  0  0  0  0  0
    3.3252   -1.9253   -4.2695 C   0  0  0  0  0  0  0  0  0  0  0  0
    3.2176   -2.9996   -4.2171 H   0  0  0  0  0  0  0  0  0  0  0  0
  1  4  1  0  0  0  0
  1  2  1  6  0  0  0
  3  1  1  0  0  0  0
  4 13  1  0  0  0  0
  5 21  1  0  0  0  0
  5  1  1  0  0  0  0
  6  5  1  0  0  0  0
  7 23  1  0  0  0  0
  8  7  1  0  0  0  0
  9 12  1  0  0  0  0
  9 11  1  0  0  0  0
 10  9  1  0  0  0  0
 13 14  2  0  0  0  0
 13  9  1  0  0  0  0
 14 15  1  0  0  0  0
 16 17  1  0  0  0  0
 16 14  1  0  0  0  0
 18 16  2  0  0  0  0
 19 18  1  0  0  0  0
 20 18  1  0  0  0  0
 20  4  1  0  0  0  0
 21 20  2  0  0  0  0
 22 21  1  0  0  0  0
 23  6  2  0  0  0  0
 23  3  1  0  0  0  0
 24  7  1  0  0  0  0
 25 24  1  0  0  0  0
 25 26  1  0  0  0  0
 27 25  2  0  0  0  0
 28 27  1  0  0  0  0
 29 31  2  0  0  0  0
 29 27  1  0  0  0  0
 30 29  1  0  0  0  0
 31 33  1  0  0  0  0
 32 31  1  0  0  0  0
 33 34  1  0  0  0  0
 33 24  2  0  0  0  0
M  END
$$$$
