CSD_code = WECPEA | q = 0 | S = 0 | Stoichiometry = C32H24As2ClF5Pt | MND = 4
 OpenBabel04212202113D

 65 68  0  0  0  0  0  0  0  0999 V2000
   11.4854    9.3597   10.7493 Pt  0  0  0  0  0  0  0  0  0  0  0  0
   10.7361   11.6044   10.9981 As  0  0  0  0  0  0  0  0  0  0  0  0
   11.9982    7.2762    9.9147 Cl  0  0  0  0  0  0  0  0  0  0  0  0
    8.7750   11.5391   10.7017 C   0  0  0  0  0  0  0  0  0  0  0  0
    8.3179   11.0171   11.5530 H   0  0  0  0  0  0  0  0  0  0  0  0
    8.3644   12.5574   10.6734 H   0  0  0  0  0  0  0  0  0  0  0  0
    9.5128    9.0777    9.4319 As  0  0  0  0  0  0  0  0  0  0  0  0
    8.4834   10.7814    9.4124 C   0  0  0  0  0  0  0  0  0  0  0  0
    8.8043   11.3785    8.5497 H   0  0  0  0  0  0  0  0  0  0  0  0
    7.4122   10.5755    9.3015 H   0  0  0  0  0  0  0  0  0  0  0  0
   11.2438   12.4289    9.3246 C   0  0  0  0  0  0  0  0  0  0  0  0
   11.9416   11.6558    8.4028 C   0  0  0  0  0  0  0  0  0  0  0  0
   12.2818   10.6574    8.6934 H   0  0  0  0  0  0  0  0  0  0  0  0
   12.2220   12.1572    7.1431 C   0  0  0  0  0  0  0  0  0  0  0  0
   12.7638   11.5539    6.4296 H   0  0  0  0  0  0  0  0  0  0  0  0
   11.8060   13.4339    6.8014 C   0  0  0  0  0  0  0  0  0  0  0  0
   12.0236   13.8275    5.8195 H   0  0  0  0  0  0  0  0  0  0  0  0
   11.1129   14.2106    7.7169 C   0  0  0  0  0  0  0  0  0  0  0  0
   10.7922   15.2066    7.4474 H   0  0  0  0  0  0  0  0  0  0  0  0
   10.8274   13.7085    8.9748 C   0  0  0  0  0  0  0  0  0  0  0  0
   10.2805   14.3086    9.6969 H   0  0  0  0  0  0  0  0  0  0  0  0
   10.9265   12.9844   12.3497 C   0  0  0  0  0  0  0  0  0  0  0  0
   11.8512   14.0148   12.2182 C   0  0  0  0  0  0  0  0  0  0  0  0
   12.4630   14.0682   11.3243 H   0  0  0  0  0  0  0  0  0  0  0  0
   11.9907   14.9520   13.2275 C   0  0  0  0  0  0  0  0  0  0  0  0
   12.7092   15.7514   13.1228 H   0  0  0  0  0  0  0  0  0  0  0  0
   11.2172   14.8614   14.3733 C   0  0  0  0  0  0  0  0  0  0  0  0
   11.3299   15.5925   15.1597 H   0  0  0  0  0  0  0  0  0  0  0  0
   10.3064   13.8271   14.5172 C   0  0  0  0  0  0  0  0  0  0  0  0
    9.7115   13.7509   15.4156 H   0  0  0  0  0  0  0  0  0  0  0  0
   10.1662   12.8871   13.5114 C   0  0  0  0  0  0  0  0  0  0  0  0
    9.4662   12.0632   13.6227 H   0  0  0  0  0  0  0  0  0  0  0  0
    9.2129    8.3099    7.6818 C   0  0  0  0  0  0  0  0  0  0  0  0
    9.2505    9.0991    6.5373 C   0  0  0  0  0  0  0  0  0  0  0  0
    9.3976   10.1718    6.6255 H   0  0  0  0  0  0  0  0  0  0  0  0
    9.1118    8.5196    5.2880 C   0  0  0  0  0  0  0  0  0  0  0  0
    9.1347    9.1371    4.4017 H   0  0  0  0  0  0  0  0  0  0  0  0
    8.9538    7.1482    5.1738 C   0  0  0  0  0  0  0  0  0  0  0  0
    8.8492    6.6975    4.1980 H   0  0  0  0  0  0  0  0  0  0  0  0
    8.9445    6.3532    6.3087 C   0  0  0  0  0  0  0  0  0  0  0  0
    8.8390    5.2822    6.2178 H   0  0  0  0  0  0  0  0  0  0  0  0
    9.0786    6.9298    7.5589 C   0  0  0  0  0  0  0  0  0  0  0  0
    9.0920    6.3163    8.4547 H   0  0  0  0  0  0  0  0  0  0  0  0
    8.3530    8.0446   10.5864 C   0  0  0  0  0  0  0  0  0  0  0  0
    7.0783    7.6442   10.1995 C   0  0  0  0  0  0  0  0  0  0  0  0
    6.7332    7.8597    9.1917 H   0  0  0  0  0  0  0  0  0  0  0  0
    6.2647    6.9673   11.0904 C   0  0  0  0  0  0  0  0  0  0  0  0
    5.2765    6.6525   10.7870 H   0  0  0  0  0  0  0  0  0  0  0  0
    6.7177    6.6907   12.3713 C   0  0  0  0  0  0  0  0  0  0  0  0
    6.0806    6.1590   13.0626 H   0  0  0  0  0  0  0  0  0  0  0  0
    7.9851    7.0882   12.7640 C   0  0  0  0  0  0  0  0  0  0  0  0
    8.3401    6.8661   13.7594 H   0  0  0  0  0  0  0  0  0  0  0  0
    8.8007    7.7650   11.8733 C   0  0  0  0  0  0  0  0  0  0  0  0
    9.8124    8.0637   12.1635 H   0  0  0  0  0  0  0  0  0  0  0  0
   13.0748    9.4911   12.0050 C   0  0  0  0  0  0  0  0  0  0  0  0
   13.5796   11.6569   11.1879 F   0  0  0  0  0  0  0  0  0  0  0  0
   13.8963   10.6131   12.0141 C   0  0  0  0  0  0  0  0  0  0  0  0
   15.7416   11.8748   12.8083 F   0  0  0  0  0  0  0  0  0  0  0  0
   14.9978   10.7579   12.8441 C   0  0  0  0  0  0  0  0  0  0  0  0
   16.3762    9.8457   14.5403 F   0  0  0  0  0  0  0  0  0  0  0  0
   15.3159    9.7340   13.7282 C   0  0  0  0  0  0  0  0  0  0  0  0
   14.7854    7.6291   14.6559 F   0  0  0  0  0  0  0  0  0  0  0  0
   14.5065    8.6042   13.7792 C   0  0  0  0  0  0  0  0  0  0  0  0
   12.6119    7.4304   13.0515 F   0  0  0  0  0  0  0  0  0  0  0  0
   13.4080    8.5063   12.9333 C   0  0  0  0  0  0  0  0  0  0  0  0
  1 55  1  0  0  0  0
  2 22  1  0  0  0  0
  3  1  1  0  0  0  0
  4  2  1  0  0  0  0
  4  5  1  0  0  0  0
  6  4  1  0  0  0  0
  7 44  1  0  0  0  0
  8  7  1  0  0  0  0
  8  4  1  0  0  0  0
  9  8  1  0  0  0  0
 10  8  1  0  0  0  0
 11  2  1  0  0  0  0
 12 13  1  0  0  0  0
 12 11  2  0  0  0  0
 14 12  1  0  0  0  0
 15 14  1  0  0  0  0
 16 14  2  0  0  0  0
 16 18  1  0  0  0  0
 17 16  1  0  0  0  0
 18 20  2  0  0  0  0
 19 18  1  0  0  0  0
 20 11  1  0  0  0  0
 20 21  1  0  0  0  0
 22 31  1  0  0  0  0
 23 22  2  0  0  0  0
 23 25  1  0  0  0  0
 24 23  1  0  0  0  0
 25 27  2  0  0  0  0
 26 25  1  0  0  0  0
 27 29  1  0  0  0  0
 27 28  1  0  0  0  0
 29 30  1  0  0  0  0
 31 32  1  0  0  0  0
 31 29  2  0  0  0  0
 33  7  1  0  0  0  0
 34 35  1  0  0  0  0
 34 33  2  0  0  0  0
 36 34  1  0  0  0  0
 37 36  1  0  0  0  0
 38 36  2  0  0  0  0
 38 40  1  0  0  0  0
 39 38  1  0  0  0  0
 40 42  2  0  0  0  0
 41 40  1  0  0  0  0
 42 33  1  0  0  0  0
 42 43  1  0  0  0  0
 44 53  1  0  0  0  0
 45 44  2  0  0  0  0
 45 47  1  0  0  0  0
 46 45  1  0  0  0  0
 47 49  2  0  0  0  0
 48 47  1  0  0  0  0
 49 51  1  0  0  0  0
 49 50  1  0  0  0  0
 51 52  1  0  0  0  0
 53 54  1  0  0  0  0
 53 51  2  0  0  0  0
 55 57  2  0  0  0  0
 55 65  1  0  0  0  0
 56 57  1  0  0  0  0
 57 59  1  0  0  0  0
 58 59  1  0  0  0  0
 59 61  2  0  0  0  0
 61 63  1  0  0  0  0
 61 60  1  0  0  0  0
 63 62  1  0  0  0  0
 65 64  1  0  0  0  0
 65 63  2  0  0  0  0
M  END
$$$$
