CSD_code = WECQED | q = 0 | S = 0 | Stoichiometry = C10H12Cl2N4PdS4 | MND = 4
 OpenBabel04212202113D

 33 34  0  0  0  0  0  0  0  0999 V2000
    3.7565    6.3525   11.0039 Pd  0  0  0  0  0  0  0  0  0  0  0  0
    7.1596    5.9018   15.7650 S   0  0  0  0  0  0  0  0  0  0  0  0
    3.0499    4.7168   12.4350 Cl  0  0  0  0  0  0  0  0  0  0  0  0
    6.7810    8.7741   16.4877 S   0  0  0  0  0  0  0  0  0  0  0  0
    5.7459    7.6248   14.3537 N   0  0  0  0  0  0  0  0  0  0  0  0
    4.6234    7.2483   12.5048 N   0  0  0  0  0  0  0  0  0  0  0  0
    7.8185    8.0538   17.7765 C   0  0  0  0  0  0  0  0  0  0  0  0
    8.0345    8.8514   18.4799 H   0  0  0  0  0  0  0  0  0  0  0  0
    8.7329    7.6757   17.3282 H   0  0  0  0  0  0  0  0  0  0  0  0
    7.2759    7.2472   18.2614 H   0  0  0  0  0  0  0  0  0  0  0  0
    6.5316    7.3790   15.4642 C   0  0  0  0  0  0  0  0  0  0  0  0
    5.2126    8.8280   13.9473 C   0  0  0  0  0  0  0  0  0  0  0  0
    5.3691    9.7346   14.4936 H   0  0  0  0  0  0  0  0  0  0  0  0
    5.3543    6.6945   13.4372 C   0  0  0  0  0  3  0  0  0  0  0  0
    5.6032    5.6499   13.5052 H   0  0  0  0  0  0  0  0  0  0  0  0
    4.5232    8.5825   12.8050 C   0  0  0  0  0  0  0  0  0  0  0  0
    3.9810    9.2608   12.1696 H   0  0  0  0  0  0  0  0  0  0  0  0
    0.3536    6.8027    6.2425 S   0  0  0  0  0  0  0  0  0  0  0  0
    4.4631    7.9882    9.5726 Cl  0  0  0  0  0  0  0  0  0  0  0  0
    0.7325    3.9303    5.5201 S   0  0  0  0  0  0  0  0  0  0  0  0
    1.7673    5.0799    7.6541 N   0  0  0  0  0  0  0  0  0  0  0  0
    2.8896    5.4566    9.5030 N   0  0  0  0  0  0  0  0  0  0  0  0
   -0.3049    4.6504    4.2311 C   0  0  0  0  0  0  0  0  0  0  0  0
   -0.5210    3.8526    3.5279 H   0  0  0  0  0  0  0  0  0  0  0  0
   -1.2193    5.0287    4.6793 H   0  0  0  0  0  0  0  0  0  0  0  0
    0.2377    5.4568    3.7459 H   0  0  0  0  0  0  0  0  0  0  0  0
    0.9818    5.3256    6.5434 C   0  0  0  0  0  0  0  0  0  0  0  0
    2.3007    3.8768    8.0606 C   0  0  0  0  0  0  0  0  0  0  0  0
    2.1443    2.9701    7.5144 H   0  0  0  0  0  0  0  0  0  0  0  0
    2.1588    6.0103    8.5705 C   0  0  0  0  0  3  0  0  0  0  0  0
    1.9098    7.0549    8.5024 H   0  0  0  0  0  0  0  0  0  0  0  0
    2.9900    4.1225    9.2029 C   0  0  0  0  0  0  0  0  0  0  0  0
    3.5322    3.4442    9.8384 H   0  0  0  0  0  0  0  0  0  0  0  0
  1  3  1  0  0  0  0
  1  6  1  0  0  0  0
  4  7  1  0  0  0  0
  5 11  1  0  0  0  0
  6 16  1  0  0  0  0
  6 14  1  0  0  0  0
  7 10  1  0  0  0  0
  7  8  1  0  0  0  0
  9  7  1  0  0  0  0
 11  2  2  0  0  0  0
 11  4  1  0  0  0  0
 12  5  1  0  0  0  0
 12 13  1  0  0  0  0
 14 15  1  0  0  0  0
 14  5  1  0  0  0  0
 16 12  2  0  0  0  0
 17 16  1  0  0  0  0
 18 27  2  0  0  0  0
 19  1  1  0  0  0  0
 20 27  1  0  0  0  0
 21 28  1  0  0  0  0
 21 30  1  0  0  0  0
 22  1  1  0  0  0  0
 23 25  1  0  0  0  0
 23 20  1  0  0  0  0
 24 23  1  0  0  0  0
 26 23  1  0  0  0  0
 27 21  1  0  0  0  0
 28 32  2  0  0  0  0
 29 28  1  0  0  0  0
 30 22  1  0  0  0  0
 31 30  1  0  0  0  0
 32 22  1  0  0  0  0
 32 33  1  0  0  0  0
M  END
$$$$
