CSD_code = WECSAY | q = 0 | S = 0 | Stoichiometry = C12H13Cl4IOW | MND = 7
 OpenBabel04212202113D

 32 28  0  0  0  0  0  0  0  0999 V2000
    3.3913    2.6846    8.9878 W   0  0  0  0  0  0  0  0  0  0  0  0
    4.0862    5.2685    6.0777 I   0  0  0  0  0  0  0  0  0  0  0  0
    1.4671    4.0480    8.9118 Cl  0  0  0  0  0 15  0  0  0  0  0  0
    4.8134    0.8278    9.3727 Cl  0  0  0  0  0 15  0  0  0  0  0  0
    2.8473    1.5446    6.9999 Cl  0  0  0  0  0 15  0  0  0  0  0  0
    3.4540    3.3287   11.2654 Cl  0  0  0  0  0 15  0  0  0  0  0  0
    1.9122    1.2679    9.7841 O   0  0  0  0  0  0  0  0  0  0  0  0
    5.1395    3.8381    8.7380 C   0  0  0  0  0  3  0  0  0  0  0  0
    4.2705    4.0828    7.7853 C   0  0  0  0  0  0  0  0  0  0  0  0
    0.6694    0.9173    9.1501 C   0  0  0  0  0  0  0  0  0  0  0  0
   -0.1560    0.2156   10.2212 C   0  0  0  0  0  0  0  0  0  0  0  0
    0.9313   -0.4988   11.0187 C   0  0  0  0  0  0  0  0  0  0  0  0
    2.0431    0.5442   11.0218 C   0  0  0  0  0  0  0  0  0  0  0  0
    6.4464    4.2094    9.2114 C   0  0  0  0  0  0  0  0  0  0  0  0
    6.9547    3.5929   10.3609 C   0  0  0  0  0  0  0  0  0  0  0  0
    8.2048    3.9365   10.8346 C   0  0  0  0  0  0  0  0  0  0  0  0
    8.9597    4.8941   10.1732 C   0  0  0  0  0  0  0  0  0  0  0  0
    8.4630    5.5096    9.0340 C   0  0  0  0  0  0  0  0  0  0  0  0
    7.2145    5.1740    8.5498 C   0  0  0  0  0  0  0  0  0  0  0  0
    0.2051    1.8332    8.7693 H   0  0  0  0  0  0  0  0  0  0  0  0
    0.8883    0.2434    8.3102 H   0  0  0  0  0  0  0  0  0  0  0  0
   -0.6679    0.9479   10.8462 H   0  0  0  0  0  0  0  0  0  0  0  0
   -0.8899   -0.4616    9.7928 H   0  0  0  0  0  0  0  0  0  0  0  0
    1.2550   -1.3998   10.4969 H   0  0  0  0  0  0  0  0  0  0  0  0
    0.6205   -0.7645   12.0255 H   0  0  0  0  0  0  0  0  0  0  0  0
    3.0485    0.1105   11.0628 H   0  0  0  0  0  0  0  0  0  0  0  0
    1.9213    1.2582   11.8478 H   0  0  0  0  0  0  0  0  0  0  0  0
    6.3534    2.8480   10.8660 H   0  0  0  0  0  0  0  0  0  0  0  0
    8.5941    3.4591   11.7212 H   0  0  0  0  0  0  0  0  0  0  0  0
    9.9370    5.1616   10.5463 H   0  0  0  0  0  0  0  0  0  0  0  0
    9.0529    6.2547    8.5216 H   0  0  0  0  0  0  0  0  0  0  0  0
    6.8260    5.6524    7.6633 H   0  0  0  0  0  0  0  0  0  0  0  0
  2  9  1  0  0  0  0
  7 13  1  0  0  0  0
  8 14  1  0  0  0  0
  9  8  2  0  0  0  0
  9  1  1  0  0  0  0
 10  7  1  0  0  0  0
 10 11  1  0  0  0  0
 11 22  1  0  0  0  0
 11 12  1  0  0  0  0
 12 13  1  0  0  0  0
 12 25  1  0  0  0  0
 13 26  1  0  0  0  0
 13 27  1  0  0  0  0
 14 15  1  0  0  0  0
 15 16  2  0  0  0  0
 15 28  1  0  0  0  0
 16 29  1  0  0  0  0
 17 30  1  0  0  0  0
 17 16  1  0  0  0  0
 18 17  2  0  0  0  0
 19 18  1  0  0  0  0
 19 14  2  0  0  0  0
 20 10  1  0  0  0  0
 21 10  1  0  0  0  0
 23 11  1  0  0  0  0
 24 12  1  0  0  0  0
 31 18  1  0  0  0  0
 32 19  1  0  0  0  0
M  END
$$$$
