CSD_code = WECZOT | q = 0 | S = 0 | Stoichiometry = C12H6Cl4O2Ti | MND = 6
 OpenBabel04212202113D

 25 28  0  0  0  0  0  0  0  0999 V2000
    3.6421    0.5698    8.4967 Ti  0  0  0  0  0  0  0  0  0  0  0  0
    3.1322   -1.3523    7.4822 Cl  0  0  0  0  0  0  0  0  0  0  0  0
    3.1243    2.5560    9.3731 Cl  0  0  0  0  0  0  0  0  0  0  0  0
    5.2440    1.1908    7.2225 Cl  0  0  0  0  0  0  0  0  0  0  0  0
    4.7561   -0.2245   10.1403 Cl  0  0  0  0  0  0  0  0  0  0  0  0
    2.1357    1.2646    7.0525 O   0  0  0  0  0  0  0  0  0  0  0  0
    1.7350    0.0909    9.4757 O   0  0  0  0  0  0  0  0  0  0  0  0
    0.9923    1.0706    7.4355 C   0  0  0  0  0  0  0  0  0  0  0  0
    0.7660    0.4086    8.8033 C   0  0  0  0  0  0  0  0  0  0  0  0
   -0.3211    1.3294    6.8697 C   0  0  0  0  0  0  0  0  0  0  0  0
   -0.7752    1.8886    5.6958 C   0  0  0  0  0  0  0  0  0  0  0  0
   -2.1634    1.9692    5.4904 C   0  0  0  0  0  0  0  0  0  0  0  0
   -3.0771    1.5131    6.4129 C   0  0  0  0  0  0  0  0  0  0  0  0
   -2.6467    0.9336    7.6298 C   0  0  0  0  0  0  0  0  0  0  0  0
   -1.2634    0.8591    7.8227 C   0  0  0  0  0  0  0  0  0  0  0  0
   -0.6716    0.3049    8.9890 C   0  0  0  0  0  0  0  0  0  0  0  0
   -1.4854   -0.1850    9.9866 C   0  0  0  0  0  0  0  0  0  0  0  0
   -2.8774   -0.1152    9.8045 C   0  0  0  0  0  0  0  0  0  0  0  0
   -3.4515    0.4205    8.6744 C   0  0  0  0  0  0  0  0  0  0  0  0
   -0.0875    2.2562    4.9505 H   0  0  0  0  0  0  0  0  0  0  0  0
   -2.5203    2.4072    4.5705 H   0  0  0  0  0  0  0  0  0  0  0  0
   -4.1352    1.5947    6.2128 H   0  0  0  0  0  0  0  0  0  0  0  0
   -1.0696   -0.6120   10.8857 H   0  0  0  0  0  0  0  0  0  0  0  0
   -3.5158   -0.4992   10.5858 H   0  0  0  0  0  0  0  0  0  0  0  0
   -4.5265    0.4530    8.5766 H   0  0  0  0  0  0  0  0  0  0  0  0
  1  3  1  0  0  0  0
  1  7  1  0  0  0  0
  1  5  1  0  0  0  0
  2  1  1  0  0  0  0
  4  1  1  0  0  0  0
  6  8  1  0  0  0  0
  6  1  1  0  0  0  0
  8  9  2  0  0  0  0
  9 16  1  0  0  0  0
  9  7  1  0  0  0  0
 10  8  1  0  0  0  0
 10 15  1  0  0  0  0
 11 10  2  0  0  0  0
 12 11  1  0  0  0  0
 12 13  2  0  0  0  0
 13 14  1  0  0  0  0
 14 15  2  0  0  0  0
 14 19  1  0  0  0  0
 15 16  1  0  0  0  0
 16 17  2  0  0  0  0
 17 23  1  0  0  0  0
 18 17  1  0  0  0  0
 18 24  1  0  0  0  0
 19 18  2  0  0  0  0
 20 11  1  0  0  0  0
 21 12  1  0  0  0  0
 22 13  1  0  0  0  0
 25 19  1  0  0  0  0
M  END
$$$$
