CSD_code = WEDJEU | q = 0 | S = 0 | Stoichiometry = C12H20Cl2Pt | MND = 6
 OpenBabel04212202113D

 35 34  0  0  1  0  0  0  0  0999 V2000
   -0.0000   -0.0778    0.0001 Pt  0  0  0  0  0  0  0  0  0  0  0  0
    0.9287    1.5627    1.2742 Cl  0  0  0  0  0 15  0  0  0  0  0  0
   -0.9743   -1.9614   -0.3545 C   0  0  2  0  0  0  0  0  0  0  0  0
    0.3011   -1.9733   -0.9848 C   0  0  2  0  0  3  0  0  0  0  0  0
    0.8375   -2.1444   -2.3612 C   0  0  0  0  0  0  0  0  0  0  0  0
    0.0403   -2.4532   -3.0389 H   0  0  0  0  0  0  0  0  0  0  0  0
    1.5983   -2.9310   -2.3390 H   0  0  0  0  0  0  0  0  0  0  0  0
    1.4686   -0.8410   -2.8660 C   0  0  0  0  0  0  0  0  0  0  0  0
    1.9293   -0.9965   -3.8383 H   0  0  0  0  0  0  0  0  0  0  0  0
    2.2332   -0.4909   -2.1723 H   0  0  0  0  0  0  0  0  0  0  0  0
    0.7058   -0.0697   -2.9598 H   0  0  0  0  0  0  0  0  0  0  0  0
   -2.3772   -2.2341   -0.7757 C   0  0  0  0  0  0  0  0  0  0  0  0
   -3.0512   -1.9157    0.0238 H   0  0  0  0  0  0  0  0  0  0  0  0
   -2.4945   -3.3189   -0.8913 H   0  0  0  0  0  0  0  0  0  0  0  0
   -2.7618   -1.5327   -2.0774 C   0  0  0  0  0  0  0  0  0  0  0  0
   -3.8212   -1.6732   -2.2755 H   0  0  0  0  0  0  0  0  0  0  0  0
   -2.2003   -1.9323   -2.9170 H   0  0  0  0  0  0  0  0  0  0  0  0
   -2.5572   -0.4668   -2.0004 H   0  0  0  0  0  0  0  0  0  0  0  0
   -0.9286    1.5627   -1.2744 Cl  0  0  0  0  0 15  0  0  0  0  0  0
    0.9743   -1.9614    0.3545 C   0  0  2  0  0  0  0  0  0  0  0  0
   -0.3011   -1.9733    0.9849 C   0  0  2  0  0  3  0  0  0  0  0  0
   -0.8375   -2.1444    2.3612 C   0  0  0  0  0  0  0  0  0  0  0  0
   -0.0403   -2.4532    3.0389 H   0  0  0  0  0  0  0  0  0  0  0  0
   -1.5983   -2.9311    2.3390 H   0  0  0  0  0  0  0  0  0  0  0  0
   -1.4686   -0.8410    2.8660 C   0  0  0  0  0  0  0  0  0  0  0  0
   -1.9292   -0.9964    3.8384 H   0  0  0  0  0  0  0  0  0  0  0  0
   -2.2333   -0.4910    2.1724 H   0  0  0  0  0  0  0  0  0  0  0  0
   -0.7059   -0.0697    2.9596 H   0  0  0  0  0  0  0  0  0  0  0  0
    2.3772   -2.2341    0.7758 C   0  0  0  0  0  0  0  0  0  0  0  0
    3.0512   -1.9158   -0.0237 H   0  0  0  0  0  0  0  0  0  0  0  0
    2.4945   -3.3190    0.8913 H   0  0  0  0  0  0  0  0  0  0  0  0
    2.7618   -1.5327    2.0774 C   0  0  0  0  0  0  0  0  0  0  0  0
    3.8212   -1.6732    2.2755 H   0  0  0  0  0  0  0  0  0  0  0  0
    2.2003   -1.9323    2.9170 H   0  0  0  0  0  0  0  0  0  0  0  0
    2.5572   -0.4668    2.0004 H   0  0  0  0  0  0  0  0  0  0  0  0
  1 20  1  0  0  0  0
  3 12  1  6  0  0  0
  3  1  1  0  0  0  0
  3 21  1  0  0  0  0
  4  5  1  1  0  0  0
  4  3  1  0  0  0  0
  4 20  1  0  0  0  0
  5  7  1  0  0  0  0
  6  5  1  0  0  0  0
  8  5  1  0  0  0  0
  8 10  1  0  0  0  0
  9  8  1  0  0  0  0
 11  8  1  0  0  0  0
 12 13  1  0  0  0  0
 14 12  1  0  0  0  0
 15 18  1  0  0  0  0
 15 12  1  0  0  0  0
 16 15  1  0  0  0  0
 17 15  1  0  0  0  0
 20 29  1  1  0  0  0
 20 21  1  0  0  0  0
 21 22  1  6  0  0  0
 22 25  1  0  0  0  0
 22 23  1  0  0  0  0
 24 22  1  0  0  0  0
 25 28  1  0  0  0  0
 25 26  1  0  0  0  0
 27 25  1  0  0  0  0
 29 31  1  0  0  0  0
 29 32  1  0  0  0  0
 30 29  1  0  0  0  0
 32 33  1  0  0  0  0
 32 34  1  0  0  0  0
 35 32  1  0  0  0  0
M  END
$$$$
