CSD_code = WEDPAX | q = 0 | S = 0 | Stoichiometry = C24H21AuClN2P | MND = 2
 OpenBabel04212202113D

 50 54  0  0  0  0  0  0  0  0999 V2000
    5.3575    4.3685    2.0461 C   0  0  0  0  0  0  0  0  0  0  0  0
    6.0280    5.2727    2.8087 C   0  0  0  0  0  0  0  0  0  0  0  0
    5.5050    6.5993    3.2601 C   0  0  0  0  0  0  0  0  0  0  0  0
    4.7963    6.4342    4.0797 H   0  0  0  0  0  0  0  0  0  0  0  0
    4.9551    7.0709    2.4421 H   0  0  0  0  0  0  0  0  0  0  0  0
    6.6248    7.5195    3.7400 C   0  0  0  0  0  0  0  0  0  0  0  0
    7.2268    7.8408    2.8873 H   0  0  0  0  0  0  0  0  0  0  0  0
    6.1928    8.4090    4.2016 H   0  0  0  0  0  0  0  0  0  0  0  0
    7.5097    6.7795    4.7349 C   0  0  0  0  0  0  0  0  0  0  0  0
    6.8890    6.3599    5.5303 H   0  0  0  0  0  0  0  0  0  0  0  0
    8.2240    7.4653    5.1935 H   0  0  0  0  0  0  0  0  0  0  0  0
    8.2656    5.6590    4.0243 C   0  0  0  0  0  0  0  0  0  0  0  0
    8.7714    5.0250    4.7567 H   0  0  0  0  0  0  0  0  0  0  0  0
    9.0378    6.0945    3.3804 H   0  0  0  0  0  0  0  0  0  0  0  0
    7.3648    4.8208    3.1737 C   0  0  0  0  0  0  0  0  0  0  0  0
    7.6701    3.6049    2.6470 C   0  0  0  0  0  0  0  0  0  0  0  0
    8.7945    2.7106    2.5981 C   0  0  0  0  0  0  0  0  0  0  0  0
   10.0595    2.8014    3.1708 C   0  0  0  0  0  0  0  0  0  0  0  0
   10.3348    3.6469    3.7801 H   0  0  0  0  0  0  0  0  0  0  0  0
   10.9594    1.7769    2.9249 C   0  0  0  0  0  0  0  0  0  0  0  0
   11.9529    1.8155    3.3477 H   0  0  0  0  0  0  0  0  0  0  0  0
   10.5787    0.7075    2.1288 C   0  0  0  0  0  0  0  0  0  0  0  0
   11.2622   -0.0988    1.9159 H   0  0  0  0  0  0  0  0  0  0  0  0
    9.2931    0.6997    1.6007 C   0  0  0  0  0  0  0  0  0  0  0  0
    8.9457   -0.1086    0.9713 H   0  0  0  0  0  0  0  0  0  0  0  0
    4.0790    4.2561    1.4002 C   0  0  0  0  0  0  0  0  0  0  0  0
    2.9547    5.0745    1.4599 C   0  0  0  0  0  0  0  0  0  0  0  0
    2.9450    5.9611    2.0730 H   0  0  0  0  0  0  0  0  0  0  0  0
    1.8460    4.7107    0.7131 C   0  0  0  0  0  0  0  0  0  0  0  0
    0.9573    5.3250    0.7278 H   0  0  0  0  0  0  0  0  0  0  0  0
    1.8849    3.5544   -0.0511 C   0  0  0  0  0  0  0  0  0  0  0  0
    1.0381    3.2518   -0.6460 H   0  0  0  0  0  0  0  0  0  0  0  0
    3.0431    2.7862   -0.0313 C   0  0  0  0  0  0  0  0  0  0  0  0
    3.1227    1.8696   -0.6003 H   0  0  0  0  0  0  0  0  0  0  0  0
    5.6847    1.5173    2.3421 C   0  0  0  0  0  0  0  0  0  0  0  0
    5.4976    0.3707    1.5827 C   0  0  0  0  0  0  0  0  0  0  0  0
    5.7819    0.3859    0.5393 H   0  0  0  0  0  0  0  0  0  0  0  0
    4.9560   -0.7558    2.1722 C   0  0  0  0  0  0  0  0  0  0  0  0
    4.8059   -1.6534    1.5900 H   0  0  0  0  0  0  0  0  0  0  0  0
    4.6043   -0.7342    3.5134 C   0  0  0  0  0  0  0  0  0  0  0  0
    4.1806   -1.6151    3.9733 H   0  0  0  0  0  0  0  0  0  0  0  0
    4.7937    0.4126    4.2678 C   0  0  0  0  0  0  0  0  0  0  0  0
    4.5178    0.4233    5.3126 H   0  0  0  0  0  0  0  0  0  0  0  0
    5.3350    1.5447    3.6854 C   0  0  0  0  0  0  0  0  0  0  0  0
    5.4885    2.4478    4.2615 H   0  0  0  0  0  0  0  0  0  0  0  0
    8.4369    1.6697    1.8298 N   0  0  0  0  0  0  0  0  0  0  0  0
    4.0987    3.1291    0.6719 N   0  0  0  0  0  0  0  0  0  0  0  0
    6.3858    2.9688    1.5453 P   0  0  1  0  0  4  0  0  0  0  0  0
    7.5740    3.0302   -2.7789 Cl  0  0  0  0  0  0  0  0  0  0  0  0
    6.9776    3.0315   -0.5975 Au  0  0  0  0  0  0  0  0  0  0  0  0
  1  2  2  0  0  0  0
  2 15  1  0  0  0  0
  2  3  1  0  0  0  0
  3  6  1  0  0  0  0
  3  4  1  0  0  0  0
  5  3  1  0  0  0  0
  6  8  1  0  0  0  0
  6  9  1  0  0  0  0
  7  6  1  0  0  0  0
  9 11  1  0  0  0  0
  9 10  1  0  0  0  0
 12  9  1  0  0  0  0
 12 13  1  0  0  0  0
 14 12  1  0  0  0  0
 15 12  1  0  0  0  0
 16 15  2  0  0  0  0
 17 16  1  0  0  0  0
 17 18  1  0  0  0  0
 18 19  1  0  0  0  0
 20 18  2  0  0  0  0
 20 21  1  0  0  0  0
 22 20  1  0  0  0  0
 23 22  1  0  0  0  0
 24 46  1  0  0  0  0
 24 22  2  0  0  0  0
 25 24  1  0  0  0  0
 26 27  1  0  0  0  0
 26  1  1  0  0  0  0
 27 28  1  0  0  0  0
 29 30  1  0  0  0  0
 29 27  2  0  0  0  0
 31 33  2  0  0  0  0
 31 29  1  0  0  0  0
 32 31  1  0  0  0  0
 33 47  1  0  0  0  0
 34 33  1  0  0  0  0
 35 44  1  0  0  0  0
 36 38  1  0  0  0  0
 36 35  2  0  0  0  0
 37 36  1  0  0  0  0
 38 40  2  0  0  0  0
 39 38  1  0  0  0  0
 40 41  1  0  0  0  0
 40 42  1  0  0  0  0
 42 43  1  0  0  0  0
 44 45  1  0  0  0  0
 44 42  2  0  0  0  0
 46 17  2  0  0  0  0
 47 26  2  0  0  0  0
 48 50  1  6  0  0  0
 48  1  1  0  0  0  0
 48 35  1  0  0  0  0
 48 16  1  0  0  0  0
 49 50  1  0  0  0  0
M  END
$$$$
