CSD_code = WEDZIO | q = 1 | S = 0 | Stoichiometry = C14H20Cl2O5Sc(1+) | MND = 7
 OpenBabel04212202113D

 42 41  0  0  0  0  0  0  0  0999 V2000
   15.0922    3.5696   -0.1527 Sc  0  0  0  0  0  0  0  0  0  0  0  0
   12.8698    3.0723   -0.2730 Cl  0  0  0  0  0  0  0  0  0  0  0  0
   17.3167    4.0791   -0.0383 Cl  0  0  0  0  0 15  0  0  0  0  0  0
   15.1684    2.6924    1.8676 O   0  0  0  0  0  0  0  0  0  0  0  0
   14.5992    5.1611    1.2943 O   0  0  0  0  0  0  0  0  0  0  0  0
   14.8533    5.4372   -1.2814 O   0  0  0  0  0  0  0  0  0  0  0  0
   15.2601    3.0749   -2.2970 O   0  0  0  0  0  0  0  0  0  0  0  0
   15.5728    1.4247   -0.3165 O   0  0  0  0  0  0  0  0  0  0  0  0
   14.7707    3.5095    2.9694 C   0  0  0  0  0  0  0  0  0  0  0  0
   15.1542    4.9401    2.5898 C   0  0  0  0  0  0  0  0  0  0  0  0
   14.7457    6.4936    0.8071 C   0  0  0  0  0  0  0  0  0  0  0  0
   14.1588    6.4807   -0.6033 C   0  0  0  0  0  0  0  0  0  0  0  0
   14.5328    5.2829   -2.6614 C   0  0  0  0  0  0  0  0  0  0  0  0
   15.4715    4.1875   -3.1641 C   0  0  0  0  0  0  0  0  0  0  0  0
   16.1048    1.9546   -2.5550 C   0  0  0  0  0  0  0  0  0  0  0  0
   15.6228    0.8445   -1.6205 C   0  0  0  0  0  0  0  0  0  0  0  0
   15.0922    0.6377    0.7250 C   0  0  0  0  0  0  0  0  0  0  0  0
   14.8376   -0.7199    0.6562 C   0  0  0  0  0  0  0  0  0  0  0  0
   14.3657   -1.3854    1.7803 C   0  0  0  0  0  0  0  0  0  0  0  0
   14.1467   -0.7012    2.9586 C   0  0  0  0  0  0  0  0  0  0  0  0
   14.3952    0.6631    3.0381 C   0  0  0  0  0  0  0  0  0  0  0  0
   14.8693    1.3350    1.9263 C   0  0  0  0  0  0  0  0  0  0  0  0
   15.2978    3.2080    3.8825 H   0  0  0  0  0  0  0  0  0  0  0  0
   13.6824    3.4332    3.1055 H   0  0  0  0  0  0  0  0  0  0  0  0
   14.7347    5.6521    3.3119 H   0  0  0  0  0  0  0  0  0  0  0  0
   16.2493    5.0454    2.5484 H   0  0  0  0  0  0  0  0  0  0  0  0
   15.8127    6.7590    0.7663 H   0  0  0  0  0  0  0  0  0  0  0  0
   14.2038    7.1968    1.4523 H   0  0  0  0  0  0  0  0  0  0  0  0
   13.0829    6.2542   -0.5673 H   0  0  0  0  0  0  0  0  0  0  0  0
   14.3270    7.4423   -1.1039 H   0  0  0  0  0  0  0  0  0  0  0  0
   14.7043    6.2215   -3.2029 H   0  0  0  0  0  0  0  0  0  0  0  0
   13.4846    4.9675   -2.7704 H   0  0  0  0  0  0  0  0  0  0  0  0
   15.2364    3.9128   -4.2003 H   0  0  0  0  0  0  0  0  0  0  0  0
   16.5158    4.5252   -3.0872 H   0  0  0  0  0  0  0  0  0  0  0  0
   17.1501    2.2174   -2.3312 H   0  0  0  0  0  0  0  0  0  0  0  0
   16.0120    1.6391   -3.6020 H   0  0  0  0  0  0  0  0  0  0  0  0
   14.6149    0.5158   -1.9120 H   0  0  0  0  0  0  0  0  0  0  0  0
   16.3260    0.0033   -1.6409 H   0  0  0  0  0  0  0  0  0  0  0  0
   14.9943   -1.2706   -0.2563 H   0  0  0  0  0  0  0  0  0  0  0  0
   14.1672   -2.4432    1.7216 H   0  0  0  0  0  0  0  0  0  0  0  0
   13.7758   -1.2204    3.8273 H   0  0  0  0  0  0  0  0  0  0  0  0
   14.2101    1.1801    3.9648 H   0  0  0  0  0  0  0  0  0  0  0  0
  2  1  1  0  0  0  0
  4 22  1  0  0  0  0
  4  9  1  0  0  0  0
  5 10  1  0  0  0  0
  6 12  1  0  0  0  0
  8 17  1  0  0  0  0
  9 24  1  0  0  0  0
  9 23  1  0  0  0  0
 10  9  1  0  0  0  0
 10 25  1  0  0  0  0
 11  5  1  0  0  0  0
 11 28  1  0  0  0  0
 12 29  1  0  0  0  0
 12 11  1  0  0  0  0
 13  6  1  0  0  0  0
 14 34  1  0  0  0  0
 14 13  1  0  0  0  0
 14  7  1  0  0  0  0
 15 35  1  0  0  0  0
 15  7  1  0  0  0  0
 15 16  1  0  0  0  0
 16  8  1  0  0  0  0
 17 22  1  0  0  0  0
 18 17  2  0  0  0  0
 18 19  1  0  0  0  0
 19 20  2  0  0  0  0
 20 21  1  0  0  0  0
 20 41  1  0  0  0  0
 21 42  1  0  0  0  0
 22 21  2  0  0  0  0
 26 10  1  0  0  0  0
 27 11  1  0  0  0  0
 30 12  1  0  0  0  0
 31 13  1  0  0  0  0
 32 13  1  0  0  0  0
 33 14  1  0  0  0  0
 36 15  1  0  0  0  0
 37 16  1  0  0  0  0
 38 16  1  0  0  0  0
 39 18  1  0  0  0  0
 40 19  1  0  0  0  0
M  END
$$$$
