CSD_code = WEGCET | q = 1 | S = 0 | Stoichiometry = C18H26ClN4O2Ru(1+) | MND = 6
 OpenBabel04212202113D

 52 55  0  0  1  0  0  0  0  0999 V2000
   -0.5658    2.8905   10.0632 Ru  0  0  0  0  0  0  0  0  0  0  0  0
   -2.5963    2.5789   11.2038 Cl  0  0  0  0  0  0  0  0  0  0  0  0
    0.5546    4.1004   12.3691 O   0  0  0  0  0  1  0  0  0  0  0  0
   -1.4674    2.1680    8.5365 O   0  0  0  0  0  0  0  0  0  0  0  0
    0.1800    3.5782   11.4003 N   0  0  0  0  0  2  0  0  0  0  0  0
    1.2327    3.0088    8.7661 N   0  0  2  0  0  4  0  0  0  0  0  0
   -1.2262    4.7787    9.3526 N   0  0  0  0  0  0  0  0  0  0  0  0
   -0.0900    0.9507   10.7217 N   0  0  0  0  0  0  0  0  0  0  0  0
   -2.7899    1.9976    8.1681 C   0  0  0  0  0  0  0  0  0  0  0  0
   -2.9004    1.7185    6.6666 C   0  0  0  0  0  0  0  0  0  0  0  0
    2.1924    3.9772    9.3468 C   0  0  0  0  0  0  0  0  0  0  0  0
    3.4526    4.2470    8.5243 C   0  0  0  0  0  0  0  0  0  0  0  0
    0.7801    3.4182    7.4271 C   0  0  0  0  0  0  0  0  0  0  0  0
    0.2024    4.8271    7.3114 C   0  0  0  0  0  0  0  0  0  0  0  0
    1.8734    1.6840    8.6698 C   0  0  0  0  0  0  0  0  0  0  0  0
    0.9008    0.5026    8.5443 C   0  0  0  0  0  0  0  0  0  0  0  0
   -1.0256    5.2073    8.1011 C   0  0  2  0  0  3  0  0  0  0  0  0
   -1.8713    6.1589    7.5306 C   0  0  0  0  0  0  0  0  0  0  0  0
   -2.9042    6.7076    8.2667 C   0  0  0  0  0  0  0  0  0  0  0  0
   -3.0335    6.3278    9.5936 C   0  0  0  0  0  0  0  0  0  0  0  0
   -2.1817    5.3598   10.0893 C   0  0  0  0  0  0  0  0  0  0  0  0
    0.4033    0.0377    9.8806 C   0  0  1  0  0  3  0  0  0  0  0  0
    0.4908   -1.3027   10.2434 C   0  0  0  0  0  0  0  0  0  0  0  0
    0.0781   -1.7027   11.5015 C   0  0  0  0  0  0  0  0  0  0  0  0
   -0.3800   -0.7348   12.3822 C   0  0  0  0  0  0  0  0  0  0  0  0
   -0.4499    0.5774   11.9528 C   0  0  0  0  0  0  0  0  0  0  0  0
   -3.3801    2.8998    8.4115 H   0  0  0  0  0  0  0  0  0  0  0  0
   -3.2285    1.1528    8.7267 H   0  0  0  0  0  0  0  0  0  0  0  0
   -2.4956    2.5522    6.0948 H   0  0  0  0  0  0  0  0  0  0  0  0
   -2.3525    0.8144    6.4081 H   0  0  0  0  0  0  0  0  0  0  0  0
   -3.9430    1.5827    6.3969 H   0  0  0  0  0  0  0  0  0  0  0  0
    1.6671    4.9209    9.5182 H   0  0  0  0  0  0  0  0  0  0  0  0
    2.5002    3.5886   10.3226 H   0  0  0  0  0  0  0  0  0  0  0  0
    3.2308    4.6881    7.5569 H   0  0  0  0  0  0  0  0  0  0  0  0
    4.0386    3.3450    8.3745 H   0  0  0  0  0  0  0  0  0  0  0  0
    4.0701    4.9526    9.0737 H   0  0  0  0  0  0  0  0  0  0  0  0
    1.6175    3.3502    6.7212 H   0  0  0  0  0  0  0  0  0  0  0  0
    0.0093    2.7112    7.1087 H   0  0  0  0  0  0  0  0  0  0  0  0
    0.9663    5.5711    7.5626 H   0  0  0  0  0  0  0  0  0  0  0  0
   -0.0286    4.9723    6.2535 H   0  0  0  0  0  0  0  0  0  0  0  0
    2.4859    1.5351    9.5646 H   0  0  0  0  0  0  0  0  0  0  0  0
    2.5375    1.6678    7.7977 H   0  0  0  0  0  0  0  0  0  0  0  0
    1.4124   -0.3230    8.0492 H   0  0  0  0  0  0  0  0  0  0  0  0
    0.0381    0.7827    7.9328 H   0  0  0  0  0  0  0  0  0  0  0  0
   -1.7067    6.4685    6.5105 H   0  0  0  0  0  0  0  0  0  0  0  0
   -3.5740    7.4278    7.8239 H   0  0  0  0  0  0  0  0  0  0  0  0
   -3.7873    6.7560   10.2329 H   0  0  0  0  0  0  0  0  0  0  0  0
   -2.2734    5.0334   11.1176 H   0  0  0  0  0  0  0  0  0  0  0  0
    0.8779   -2.0197    9.5369 H   0  0  0  0  0  0  0  0  0  0  0  0
    0.1268   -2.7403   11.7923 H   0  0  0  0  0  0  0  0  0  0  0  0
   -0.6875   -0.9864   13.3836 H   0  0  0  0  0  0  0  0  0  0  0  0
   -0.8176    1.3483   12.6182 H   0  0  0  0  0  0  0  0  0  0  0  0
  1  8  1  0  0  0  0
  1  2  1  0  0  0  0
  1  5  1  0  0  0  0
  4  1  1  0  0  0  0
  5  3  1  0  0  0  0
  6 11  1  1  0  0  0
  6  1  1  0  0  0  0
  7  1  1  0  0  0  0
  7 21  1  0  0  0  0
  8 26  1  0  0  0  0
  9 27  1  0  0  0  0
  9  4  1  0  0  0  0
  9 28  1  0  0  0  0
 10  9  1  0  0  0  0
 11 32  1  0  0  0  0
 11 33  1  0  0  0  0
 12 36  1  0  0  0  0
 12 11  1  0  0  0  0
 13  6  1  0  0  0  0
 14 13  1  0  0  0  0
 14 39  1  0  0  0  0
 14 17  1  0  0  0  0
 15  6  1  0  0  0  0
 15 41  1  0  0  0  0
 16 15  1  0  0  0  0
 16 22  1  0  0  0  0
 17 18  1  1  0  0  0
 17  7  1  0  0  0  0
 18 19  2  0  0  0  0
 19 20  1  0  0  0  0
 20 21  2  0  0  0  0
 20 47  1  0  0  0  0
 21 48  1  0  0  0  0
 22 23  1  1  0  0  0
 22  8  1  0  0  0  0
 23 24  2  0  0  0  0
 24 50  1  0  0  0  0
 24 25  1  0  0  0  0
 25 51  1  0  0  0  0
 26 25  2  0  0  0  0
 26 52  1  0  0  0  0
 29 10  1  0  0  0  0
 30 10  1  0  0  0  0
 31 10  1  0  0  0  0
 34 12  1  0  0  0  0
 35 12  1  0  0  0  0
 37 13  1  0  0  0  0
 38 13  1  0  0  0  0
 40 14  1  0  0  0  0
 42 15  1  0  0  0  0
 43 16  1  0  0  0  0
 44 16  1  0  0  0  0
 45 18  1  0  0  0  0
 46 19  1  0  0  0  0
 49 23  1  0  0  0  0
M  END
$$$$
