CSD_code = WEHGOH | q = 0 | S = 0 | Stoichiometry = C10H8FeINO4 | MND = 6
 OpenBabel04212202113D

 25 26  0  0  1  0  0  0  0  0999 V2000
    3.9422    3.7866    2.7892 I   0  0  0  0  0  0  0  0  0  0  0  0
    1.6034    4.5626    2.3803 Fe  0  0  0  0  0  0  0  0  0  0  0  0
   -1.2207    5.0299    2.0527 O   0  0  0  0  0  1  0  0  0  0  0  0
    0.9148    2.0731    1.0697 O   0  0  0  0  0  1  0  0  0  0  0  0
    0.4570    2.9173    4.3136 O   0  0  0  0  0  0  0  0  0  0  0  0
    2.3427    6.0703    0.6990 O   0  0  0  0  0  0  0  0  0  0  0  0
    1.9541    6.2906    3.3313 N   0  0  0  0  0  0  0  0  0  0  0  0
   -0.0856    4.9075    2.1583 C   0  0  0  0  0  2  0  0  0  0  0  0
    1.2210    3.0499    1.5720 C   0  0  0  0  0  2  0  0  0  0  0  0
    0.9648    3.9749    4.0748 C   0  0  0  0  0  0  0  0  0  0  0  0
    1.1648    5.0306    5.1819 C   0  0  0  0  0  0  0  0  0  0  0  0
    0.2477    5.1199    5.7699 H   0  0  0  0  0  0  0  0  0  0  0  0
    1.9401    4.6332    5.8467 H   0  0  0  0  0  0  0  0  0  0  0  0
    1.6058    6.3391    4.6205 C   0  0  1  0  0  3  0  0  0  0  0  0
    1.6911    7.5168    5.3482 C   0  0  0  0  0  0  0  0  0  0  0  0
    1.4028    7.5307    6.3870 H   0  0  0  0  0  0  0  0  0  0  0  0
    2.1569    8.6593    4.7180 C   0  0  0  0  0  0  0  0  0  0  0  0
    2.2271    9.5916    5.2564 H   0  0  0  0  0  0  0  0  0  0  0  0
    2.5482    8.5864    3.3903 C   0  0  0  0  0  0  0  0  0  0  0  0
    2.9381    9.4505    2.8767 H   0  0  0  0  0  0  0  0  0  0  0  0
    2.4411    7.3737    2.7262 C   0  0  0  0  0  0  0  0  0  0  0  0
    2.9389    7.2029    1.3131 C   0  0  0  0  0  0  0  0  0  0  0  0
    2.7117    8.1019    0.7242 H   0  0  0  0  0  0  0  0  0  0  0  0
    4.0309    7.0846    1.3645 H   0  0  0  0  0  0  0  0  0  0  0  0
    2.9401    5.7265    0.0250 H   0  0  0  0  0  0  0  0  0  0  0  0
  2  1  1  0  0  0  0
  2  7  1  0  0  0  0
  2 10  1  0  0  0  0
  3  8  1  0  0  0  0
  4  9  1  0  0  0  0
  6 22  1  0  0  0  0
  7 14  1  0  0  0  0
  8  2  1  0  0  0  0
  9  2  1  0  0  0  0
 10  5  2  0  0  0  0
 10 11  1  0  0  0  0
 11 12  1  0  0  0  0
 11 13  1  0  0  0  0
 14 11  1  0  0  0  0
 14 15  1  1  0  0  0
 15 16  1  0  0  0  0
 17 18  1  0  0  0  0
 17 15  2  0  0  0  0
 19 17  1  0  0  0  0
 20 19  1  0  0  0  0
 21  7  1  0  0  0  0
 21 19  2  0  0  0  0
 22 24  1  0  0  0  0
 22 21  1  0  0  0  0
 23 22  1  0  0  0  0
 25  6  1  0  0  0  0
M  END
$$$$
