CSD_code = WEHNEE | q = 0 | S = 0 | Stoichiometry = C9H10ClN3O2Pd | MND = 4
 OpenBabel04212202113D

 26 28  0  0  1  0  0  0  0  0999 V2000
    0.8186    1.4807    7.4390 Pd  0  0  2  0  0  0  0  0  0  0  0  0
    0.5668   -0.6086    8.2035 Cl  0  0  0  0  0  0  0  0  0  0  0  0
    0.1825    1.4324   10.4263 O   0  0  0  0  0  0  0  0  0  0  0  0
    0.2237    0.5056   10.0456 H   0  0  0  0  0  0  0  0  0  0  0  0
    0.4428    2.2148    9.3441 N   0  0  0  0  0  0  0  0  0  0  0  0
    0.9617    3.3468    7.1320 N   0  0  0  0  0  0  0  0  0  0  0  0
    0.7770    4.1865    8.1586 C   0  0  0  0  0  0  0  0  0  0  0  0
    0.8802    5.5560    7.9355 C   0  0  0  0  0  0  0  0  0  0  0  0
    0.7383    6.2636    8.7348 H   0  0  0  0  0  0  0  0  0  0  0  0
    1.1737    5.9910    6.6421 C   0  0  0  0  0  0  0  0  0  0  0  0
    1.2569    7.0503    6.4520 H   0  0  0  0  0  0  0  0  0  0  0  0
    1.3595    5.0972    5.6042 C   0  0  0  0  0  0  0  0  0  0  0  0
    1.5865    5.4399    4.6086 H   0  0  0  0  0  0  0  0  0  0  0  0
    1.2460    3.7227    5.8738 C   0  0  0  0  0  0  0  0  0  0  0  0
    1.3905    2.6035    4.9864 C   0  0  1  0  0  3  0  0  0  0  0  0
    1.7100    2.7480    3.5285 C   0  0  0  0  0  0  0  0  0  0  0  0
    2.6738    3.2366    3.3892 H   0  0  0  0  0  0  0  0  0  0  0  0
    0.9462    3.3357    3.0205 H   0  0  0  0  0  0  0  0  0  0  0  0
    1.7484    1.7553    3.0848 H   0  0  0  0  0  0  0  0  0  0  0  0
    0.4795    3.5031    9.4293 C   0  0  0  0  0  0  0  0  0  0  0  0
    0.2470    4.2638   10.6921 C   0  0  0  0  0  0  0  0  0  0  0  0
    0.0403    3.5698   11.5029 H   0  0  0  0  0  0  0  0  0  0  0  0
   -0.5978    4.9405   10.5742 H   0  0  0  0  0  0  0  0  0  0  0  0
    1.1262    4.8557   10.9418 H   0  0  0  0  0  0  0  0  0  0  0  0
    1.3178    0.3386    4.8959 O   0  0  0  0  0  1  0  0  0  0  0  0
    1.2227    1.4015    5.5388 N   0  0  0  0  0  0  0  0  0  0  0  0
  1  2  1  6  0  0  0
  1  5  1  0  0  0  0
  4  3  1  0  0  0  0
  5 20  1  0  0  0  0
  5  3  1  0  0  0  0
  6  1  1  0  0  0  0
  6  7  1  0  0  0  0
  7 20  2  0  0  0  0
  8  7  1  0  0  0  0
  8  9  1  0  0  0  0
 10  8  2  0  0  0  0
 11 10  1  0  0  0  0
 12 14  2  0  0  0  0
 12 10  1  0  0  0  0
 13 12  1  0  0  0  0
 14  6  1  0  0  0  0
 15 16  1  1  0  0  0
 15 26  1  0  0  0  0
 15 14  1  0  0  0  0
 17 16  1  0  0  0  0
 18 16  1  0  0  0  0
 19 16  1  0  0  0  0
 20 21  1  0  0  0  0
 21 24  1  0  0  0  0
 21 22  1  0  0  0  0
 23 21  1  0  0  0  0
 25 26  1  0  0  0  0
 26  1  1  0  0  0  0
M  END
$$$$
