CSD_code = WEHNII | q = 0 | S = 0 | Stoichiometry = C9H10ClN3O2Pt | MND = 4
 OpenBabel04212202113D

 26 28  0  0  1  0  0  0  0  0999 V2000
    0.8837    0.4330    1.4401 Pt  0  0  2  0  0  0  0  0  0  0  0  0
    0.7069   -0.2939   -0.6758 Cl  0  0  0  0  0  0  0  0  0  0  0  0
    0.2234   -2.5594    1.3780 O   0  0  0  0  0  0  0  0  0  0  0  0
    1.4456    3.0056    0.3271 O   0  0  0  0  0  1  0  0  0  0  0  0
    0.4692   -1.4663    2.1516 N   0  0  0  0  0  0  0  0  0  0  0  0
    0.9673    0.7455    3.3062 N   0  0  0  0  0  0  0  0  0  0  0  0
    1.3063    2.3431    1.3723 N   0  0  0  0  0  0  0  0  0  0  0  0
    0.1941   -2.8043    4.1949 C   0  0  0  0  0  0  0  0  0  0  0  0
    0.0393   -3.6233    3.4973 H   0  0  0  0  0  0  0  0  0  0  0  0
   -0.6947   -2.6880    4.8134 H   0  0  0  0  0  0  0  0  0  0  0  0
    1.0343   -3.0397    4.8461 H   0  0  0  0  0  0  0  0  0  0  0  0
    0.4632   -1.5457    3.4422 C   0  0  2  0  0  3  0  0  0  0  0  0
    0.7459   -0.2829    4.1367 C   0  0  0  0  0  0  0  0  0  0  0  0
    0.8036   -0.0630    5.5086 C   0  0  0  0  0  0  0  0  0  0  0  0
    0.6307   -0.8626    6.2086 H   0  0  0  0  0  0  0  0  0  0  0  0
    1.0921    1.2272    5.9568 C   0  0  0  0  0  0  0  0  0  0  0  0
    1.1403    1.4138    7.0187 H   0  0  0  0  0  0  0  0  0  0  0  0
    1.3163    2.2658    5.0727 C   0  0  0  0  0  0  0  0  0  0  0  0
    1.5389    3.2588    5.4252 H   0  0  0  0  0  0  0  0  0  0  0  0
    1.2482    2.0020    3.6951 C   0  0  0  0  0  0  0  0  0  0  0  0
    1.4361    2.8877    2.5856 C   0  0  0  0  0  0  0  0  0  0  0  0
    1.7598    4.3410    2.7484 C   0  0  0  0  0  0  0  0  0  0  0  0
    1.8430    4.7872    1.7601 H   0  0  0  0  0  0  0  0  0  0  0  0
    2.7031    4.4707    3.2774 H   0  0  0  0  0  0  0  0  0  0  0  0
    0.9761    4.8527    3.3053 H   0  0  0  0  0  0  0  0  0  0  0  0
    0.2957   -2.2035    0.4526 H   0  0  0  0  0  0  0  0  0  0  0  0
  1  2  1  1  0  0  0
  1  5  1  0  0  0  0
  1  6  1  0  0  0  0
  3  5  1  0  0  0  0
  4  7  1  0  0  0  0
  5 12  1  0  0  0  0
  6 20  1  0  0  0  0
  6 13  1  0  0  0  0
  7  1  1  0  0  0  0
  7 21  1  0  0  0  0
  8 10  1  0  0  0  0
  8 11  1  0  0  0  0
  9  8  1  0  0  0  0
 12 13  1  0  0  0  0
 12  8  1  1  0  0  0
 13 14  2  0  0  0  0
 14 16  1  0  0  0  0
 14 15  1  0  0  0  0
 16 17  1  0  0  0  0
 18 19  1  0  0  0  0
 18 16  2  0  0  0  0
 20 18  1  0  0  0  0
 21 22  1  0  0  0  0
 21 20  2  0  0  0  0
 22 24  1  0  0  0  0
 22 25  1  0  0  0  0
 23 22  1  0  0  0  0
 26  3  1  0  0  0  0
M  END
$$$$
