CSD_code = WEHSIM | q = 0 | S = 0 | Stoichiometry = C28H24CdCl2N8 | MND = 6
 OpenBabel04212202113D

 63 70  0  0  0  0  0  0  0  0999 V2000
    8.5405    8.5389    3.9774 Cd  0  0  0  0  0  0  0  0  0  0  0  0
    8.5409    8.5392    1.5925 Cl  0  0  0  0  0  0  0  0  0  0  0  0
    8.5387    8.5388    6.5483 Cl  0  0  0  0  0  0  0  0  0  0  0  0
   10.4043    9.9175    4.2141 N   0  0  0  0  0  0  0  0  0  0  0  0
   11.9442   10.9788    5.4021 N   0  0  0  0  0  0  0  0  0  0  0  0
   12.3527   11.5079    6.1542 H   0  0  0  0  0  0  0  0  0  0  0  0
   10.6434   10.6084    5.2881 C   0  0  0  0  0  3  0  0  0  0  0  0
    9.9043   10.8472    6.0296 H   0  0  0  0  0  0  0  0  0  0  0  0
   11.6074    9.8031    3.5577 C   0  0  0  0  0  0  0  0  0  0  0  0
   12.6000   10.4762    4.3040 C   0  0  0  0  0  0  0  0  0  0  0  0
   13.9206   10.5269    3.8853 C   0  0  0  0  0  0  0  0  0  0  0  0
   14.6763   11.0438    4.4580 H   0  0  0  0  0  0  0  0  0  0  0  0
   14.2223    9.8861    2.7001 C   0  0  0  0  0  0  0  0  0  0  0  0
   15.2395    9.9018    2.3373 H   0  0  0  0  0  0  0  0  0  0  0  0
   13.2450    9.2202    1.9552 C   0  0  0  0  0  0  0  0  0  0  0  0
   13.5344    8.7389    1.0331 H   0  0  0  0  0  0  0  0  0  0  0  0
   11.9288    9.1658    2.3632 C   0  0  0  0  0  0  0  0  0  0  0  0
   11.1629    8.6660    1.7898 H   0  0  0  0  0  0  0  0  0  0  0  0
    7.1613   10.4026    4.2131 N   0  0  0  0  0  0  0  0  0  0  0  0
    6.6767    7.1598    4.2124 N   0  0  0  0  0  0  0  0  0  0  0  0
    9.9193    6.6753    4.2138 N   0  0  0  0  0  0  0  0  0  0  0  0
    6.1008   11.9431    5.4012 N   0  0  0  0  0  0  0  0  0  0  0  0
    5.1354    6.1023    5.4019 N   0  0  0  0  0  0  0  0  0  0  0  0
   10.9781    5.1349    5.4032 N   0  0  0  0  0  0  0  0  0  0  0  0
    5.5715   12.3517    6.1531 H   0  0  0  0  0  0  0  0  0  0  0  0
    4.7264    5.5741    6.1544 H   0  0  0  0  0  0  0  0  0  0  0  0
   11.5060    4.7261    6.1560 H   0  0  0  0  0  0  0  0  0  0  0  0
    6.4698   10.6420    5.2867 C   0  0  0  0  0  3  0  0  0  0  0  0
    6.4370    6.4691    5.2864 C   0  0  0  0  0  3  0  0  0  0  0  0
   10.6092    6.4359    5.2884 C   0  0  0  0  0  3  0  0  0  0  0  0
    6.2296    9.9027    6.0277 H   0  0  0  0  0  0  0  0  0  0  0  0
    7.1763    6.2278    6.0269 H   0  0  0  0  0  0  0  0  0  0  0  0
   10.8484    7.1751    6.0297 H   0  0  0  0  0  0  0  0  0  0  0  0
    7.2775   11.6059    3.5574 C   0  0  0  0  0  0  0  0  0  0  0  0
    5.4731    7.2779    3.5576 C   0  0  0  0  0  0  0  0  0  0  0  0
    9.8040    5.4721    3.5579 C   0  0  0  0  0  0  0  0  0  0  0  0
    6.6048   12.5989    4.3037 C   0  0  0  0  0  0  0  0  0  0  0  0
    4.4796    6.6071    4.3048 C   0  0  0  0  0  0  0  0  0  0  0  0
   10.4756    4.4791    4.3051 C   0  0  0  0  0  0  0  0  0  0  0  0
    6.5559   13.9198    3.8857 C   0  0  0  0  0  0  0  0  0  0  0  0
    3.1583    6.5602    3.8877 C   0  0  0  0  0  0  0  0  0  0  0  0
   10.5251    3.1582    3.8869 C   0  0  0  0  0  0  0  0  0  0  0  0
    6.0395   14.6758    4.4584 H   0  0  0  0  0  0  0  0  0  0  0  0
    2.4019    6.0452    4.4611 H   0  0  0  0  0  0  0  0  0  0  0  0
   11.0409    2.4022    4.4602 H   0  0  0  0  0  0  0  0  0  0  0  0
    7.1977   14.2214    2.7010 C   0  0  0  0  0  0  0  0  0  0  0  0
    2.8569    7.2022    2.7031 C   0  0  0  0  0  0  0  0  0  0  0  0
    9.8849    2.8567    2.7014 C   0  0  0  0  0  0  0  0  0  0  0  0
    7.1835   15.2388    2.3387 H   0  0  0  0  0  0  0  0  0  0  0  0
    1.8392    7.1895    2.3415 H   0  0  0  0  0  0  0  0  0  0  0  0
    9.8997    1.8394    2.3390 H   0  0  0  0  0  0  0  0  0  0  0  0
    7.8630   13.2437    1.9560 C   0  0  0  0  0  0  0  0  0  0  0  0
    3.8351    7.8658    1.9572 C   0  0  0  0  0  0  0  0  0  0  0  0
    9.2204    3.8344    1.9556 C   0  0  0  0  0  0  0  0  0  0  0  0
    8.3451   13.5330    1.0343 H   0  0  0  0  0  0  0  0  0  0  0  0
    3.5459    8.3482    1.0357 H   0  0  0  0  0  0  0  0  0  0  0  0
    8.7394    3.5451    1.0334 H   0  0  0  0  0  0  0  0  0  0  0  0
    7.9158   11.9273    2.3634 C   0  0  0  0  0  0  0  0  0  0  0  0
    5.1519    7.9165    2.3637 C   0  0  0  0  0  0  0  0  0  0  0  0
    9.1671    5.1508    2.3631 C   0  0  0  0  0  0  0  0  0  0  0  0
    8.4151   11.1611    1.7899 H   0  0  0  0  0  0  0  0  0  0  0  0
    5.9185    8.4143    1.7895 H   0  0  0  0  0  0  0  0  0  0  0  0
    8.6685    5.9170    1.7891 H   0  0  0  0  0  0  0  0  0  0  0  0
  1 20  1  0  0  0  0
  1 19  1  0  0  0  0
  1 21  1  0  0  0  0
  1  4  1  0  0  0  0
  1  3  1  0  0  0  0
  2  1  1  0  0  0  0
  4  7  1  0  0  0  0
  5  6  1  0  0  0  0
  7  5  1  0  0  0  0
  7  8  1  0  0  0  0
  9  4  1  0  0  0  0
  9 10  1  0  0  0  0
 10  5  1  0  0  0  0
 11 10  2  0  0  0  0
 11 12  1  0  0  0  0
 13 11  1  0  0  0  0
 14 13  1  0  0  0  0
 15 17  1  0  0  0  0
 15 13  2  0  0  0  0
 16 15  1  0  0  0  0
 17  9  2  0  0  0  0
 18 17  1  0  0  0  0
 19 28  1  0  0  0  0
 20 29  1  0  0  0  0
 21 30  1  0  0  0  0
 22 25  1  0  0  0  0
 23 26  1  0  0  0  0
 24 27  1  0  0  0  0
 28 22  1  0  0  0  0
 28 31  1  0  0  0  0
 29 23  1  0  0  0  0
 29 32  1  0  0  0  0
 30 24  1  0  0  0  0
 30 33  1  0  0  0  0
 34 19  1  0  0  0  0
 34 37  1  0  0  0  0
 35 20  1  0  0  0  0
 35 38  1  0  0  0  0
 36 21  1  0  0  0  0
 36 39  1  0  0  0  0
 37 22  1  0  0  0  0
 38 23  1  0  0  0  0
 39 24  1  0  0  0  0
 40 37  2  0  0  0  0
 40 43  1  0  0  0  0
 41 38  2  0  0  0  0
 41 44  1  0  0  0  0
 42 39  2  0  0  0  0
 42 45  1  0  0  0  0
 46 40  1  0  0  0  0
 47 41  1  0  0  0  0
 48 42  1  0  0  0  0
 49 46  1  0  0  0  0
 50 47  1  0  0  0  0
 51 48  1  0  0  0  0
 52 58  1  0  0  0  0
 52 46  2  0  0  0  0
 53 59  1  0  0  0  0
 53 47  2  0  0  0  0
 54 60  1  0  0  0  0
 54 48  2  0  0  0  0
 55 52  1  0  0  0  0
 56 53  1  0  0  0  0
 57 54  1  0  0  0  0
 58 34  2  0  0  0  0
 59 35  2  0  0  0  0
 60 36  2  0  0  0  0
 61 58  1  0  0  0  0
 62 59  1  0  0  0  0
 63 60  1  0  0  0  0
M  END
$$$$
