CSD_code = WEHWEL | q = 0 | S = 0 | Stoichiometry = C18H28CdCl2N6 | MND = 6
 OpenBabel04212202113D

 55 59  0  0  1  0  0  0  0  0999 V2000
    4.6112   -0.0002    0.1419 Cd  0  0  0  0  0  0  0  0  0  0  0  0
    6.4061    0.4422   -1.4012 Cl  0  0  0  0  0  0  0  0  0  0  0  0
    5.9575    0.6061    2.2038 N   0  0  1  0  0  4  0  0  0  0  0  0
    4.8587   -2.4280    0.5329 N   0  0  0  0  0  0  0  0  0  0  0  0
    7.6576   -2.2148   -0.5561 N   0  0  0  0  0  0  0  0  0  0  0  0
    5.3759   -0.0449    3.3709 C   0  0  0  0  0  0  0  0  0  0  0  0
    7.3059    0.1173    1.9457 C   0  0  0  0  0  0  0  0  0  0  0  0
    5.9629    2.0619    2.3337 C   0  0  0  0  0  0  0  0  0  0  0  0
    3.5343   -2.7568    0.9963 C   0  0  0  0  0  0  0  0  0  0  0  0
    5.6965   -3.3883    0.4244 C   0  0  0  0  0  3  0  0  0  0  0  0
    7.0467   -3.3076   -0.0080 C   0  0  0  0  0  0  0  0  0  0  0  0
    7.9984   -4.3278    0.0607 C   0  0  0  0  0  0  0  0  0  0  0  0
    9.1876   -3.8214   -0.4565 C   0  0  0  0  0  0  0  0  0  0  0  0
    8.9323   -2.5176   -0.8390 C   0  0  0  0  0  0  0  0  0  0  0  0
    5.7592    0.3901    4.3087 H   0  0  0  0  0  0  0  0  0  0  0  0
    5.6745   -1.0950    3.3459 H   0  0  0  0  0  0  0  0  0  0  0  0
    7.6815    0.5676    1.0288 H   0  0  0  0  0  0  0  0  0  0  0  0
    7.2853   -0.9629    1.8099 H   0  0  0  0  0  0  0  0  0  0  0  0
    7.9896    0.3597    2.7727 H   0  0  0  0  0  0  0  0  0  0  0  0
    5.1842    2.3699    3.0364 H   0  0  0  0  0  0  0  0  0  0  0  0
    6.9280    2.4125    2.7279 H   0  0  0  0  0  0  0  0  0  0  0  0
    2.8147   -2.4059    0.2512 H   0  0  0  0  0  0  0  0  0  0  0  0
    3.4093   -3.8428    1.1303 H   0  0  0  0  0  0  0  0  0  0  0  0
    5.3873   -4.4098    0.6900 H   0  0  0  0  0  0  0  0  0  0  0  0
    7.8349   -5.3128    0.4531 H   0  0  0  0  0  0  0  0  0  0  0  0
   10.1208   -4.3408   -0.5485 H   0  0  0  0  0  0  0  0  0  0  0  0
    9.5846   -1.7995   -1.2958 H   0  0  0  0  0  0  0  0  0  0  0  0
    7.1975   -1.3323   -0.8138 H   0  0  0  0  0  0  0  0  0  0  0  0
    2.8166   -0.4410   -1.4019 Cl  0  0  0  0  0  0  0  0  0  0  0  0
    3.2654   -0.6062    2.2039 N   0  0  2  0  0  4  0  0  0  0  0  0
    4.3641    2.4279    0.5327 N   0  0  0  0  0  0  0  0  0  0  0  0
    3.8469    0.0449    3.3710 C   0  0  0  0  0  0  0  0  0  0  0  0
    5.6885    2.7566    0.9962 C   0  0  0  0  0  0  0  0  0  0  0  0
    3.2600   -2.0619    2.3338 C   0  0  0  0  0  0  0  0  0  0  0  0
    1.9169   -0.1173    1.9457 C   0  0  0  0  0  0  0  0  0  0  0  0
    3.5264    3.3882    0.4241 C   0  0  0  0  0  3  0  0  0  0  0  0
    3.4636   -0.3901    4.3087 H   0  0  0  0  0  0  0  0  0  0  0  0
    3.5483    1.0949    3.3459 H   0  0  0  0  0  0  0  0  0  0  0  0
    6.4081    2.4057    0.2511 H   0  0  0  0  0  0  0  0  0  0  0  0
    5.8135    3.8427    1.1302 H   0  0  0  0  0  0  0  0  0  0  0  0
    4.0387   -2.3700    3.0364 H   0  0  0  0  0  0  0  0  0  0  0  0
    2.2948   -2.4126    2.7280 H   0  0  0  0  0  0  0  0  0  0  0  0
    1.5414   -0.5676    1.0288 H   0  0  0  0  0  0  0  0  0  0  0  0
    1.9376    0.9629    1.8098 H   0  0  0  0  0  0  0  0  0  0  0  0
    1.2332   -0.3596    2.7726 H   0  0  0  0  0  0  0  0  0  0  0  0
    2.1761    3.3076   -0.0081 C   0  0  0  0  0  0  0  0  0  0  0  0
    3.8354    4.4097    0.6902 H   0  0  0  0  0  0  0  0  0  0  0  0
    1.5651    2.2147   -0.5561 N   0  0  0  0  0  0  0  0  0  0  0  0
    1.2244    4.3277    0.0607 C   0  0  0  0  0  0  0  0  0  0  0  0
    0.2905    2.5176   -0.8391 C   0  0  0  0  0  0  0  0  0  0  0  0
    2.0251    1.3323   -0.8137 H   0  0  0  0  0  0  0  0  0  0  0  0
    0.0352    3.8214   -0.4566 C   0  0  0  0  0  0  0  0  0  0  0  0
    1.3879    5.3128    0.4531 H   0  0  0  0  0  0  0  0  0  0  0  0
   -0.3619    1.7995   -1.2958 H   0  0  0  0  0  0  0  0  0  0  0  0
   -0.8980    4.3408   -0.5486 H   0  0  0  0  0  0  0  0  0  0  0  0
  1 31  1  0  0  0  0
  1  4  1  0  0  0  0
  1  3  1  0  0  0  0
  1 30  1  0  0  0  0
  2  1  1  0  0  0  0
  3  7  1  6  0  0  0
  3  8  1  0  0  0  0
  3  6  1  0  0  0  0
  4  9  1  0  0  0  0
  5 11  1  0  0  0  0
  6 32  1  0  0  0  0
  6 15  1  0  0  0  0
  7 19  1  0  0  0  0
  8 21  1  0  0  0  0
  8 20  1  0  0  0  0
  9 23  1  0  0  0  0
  9 34  1  0  0  0  0
 10  4  1  0  0  0  0
 10 24  1  0  0  0  0
 11 12  2  0  0  0  0
 11 10  1  0  0  0  0
 12 25  1  0  0  0  0
 13 12  1  0  0  0  0
 14  5  1  0  0  0  0
 14 13  2  0  0  0  0
 16  6  1  0  0  0  0
 17  7  1  0  0  0  0
 18  7  1  0  0  0  0
 22  9  1  0  0  0  0
 26 13  1  0  0  0  0
 27 14  1  0  0  0  0
 28  5  1  0  0  0  0
 29  1  1  0  0  0  0
 30 35  1  6  0  0  0
 30 34  1  0  0  0  0
 30 32  1  0  0  0  0
 31 33  1  0  0  0  0
 32 37  1  0  0  0  0
 33 40  1  0  0  0  0
 33  8  1  0  0  0  0
 34 42  1  0  0  0  0
 34 41  1  0  0  0  0
 35 45  1  0  0  0  0
 36 31  1  0  0  0  0
 36 47  1  0  0  0  0
 38 32  1  0  0  0  0
 39 33  1  0  0  0  0
 43 35  1  0  0  0  0
 44 35  1  0  0  0  0
 46 49  2  0  0  0  0
 46 36  1  0  0  0  0
 48 46  1  0  0  0  0
 49 53  1  0  0  0  0
 50 48  1  0  0  0  0
 50 52  2  0  0  0  0
 51 48  1  0  0  0  0
 52 49  1  0  0  0  0
 54 50  1  0  0  0  0
 55 52  1  0  0  0  0
M  END
$$$$
