CSD_code = WEJBEU | q = 0 | S = 0 | Stoichiometry = C20H24Cl3N3ORu | MND = 6
 OpenBabel04212202113D

 52 54  0  0  0  0  0  0  0  0999 V2000
    4.4962    6.2585    8.4357 C   0  0  0  0  0  0  0  0  0  0  0  0
    3.5018    5.7151    7.6040 C   0  0  0  0  0  0  0  0  0  0  0  0
    3.7390    5.6107    6.2444 C   0  0  0  0  0  0  0  0  0  0  0  0
    2.9704    5.1962    5.6098 H   0  0  0  0  0  0  0  0  0  0  0  0
    4.9434    6.0172    5.7000 C   0  0  0  0  0  0  0  0  0  0  0  0
    5.1218    5.9188    4.6403 H   0  0  0  0  0  0  0  0  0  0  0  0
    5.9197    6.5414    6.5229 C   0  0  0  0  0  0  0  0  0  0  0  0
    6.8676    6.8483    6.1063 H   0  0  0  0  0  0  0  0  0  0  0  0
    5.7238    6.6788    7.8910 C   0  0  0  0  0  0  0  0  0  0  0  0
    2.1883    5.2561    8.1567 C   0  0  0  0  0  0  0  0  0  0  0  0
    1.4127    5.3258    7.3978 H   0  0  0  0  0  0  0  0  0  0  0  0
    1.8812    5.8399    9.0244 H   0  0  0  0  0  0  0  0  0  0  0  0
    2.2792    4.2065    8.4428 H   0  0  0  0  0  0  0  0  0  0  0  0
    6.8527    7.2181    8.7145 C   0  0  0  0  0  0  0  0  0  0  0  0
    7.7887    6.7890    8.3634 H   0  0  0  0  0  0  0  0  0  0  0  0
    6.7499    6.9718    9.7678 H   0  0  0  0  0  0  0  0  0  0  0  0
    6.9243    8.3012    8.6036 H   0  0  0  0  0  0  0  0  0  0  0  0
    3.2333    5.7588   13.6533 C   0  0  0  0  0  0  0  0  0  0  0  0
    4.0778    5.4542   14.7296 C   0  0  0  0  0  0  0  0  0  0  0  0
    3.5010    5.1197   15.9453 C   0  0  0  0  0  0  0  0  0  0  0  0
    4.1449    4.8763   16.7767 H   0  0  0  0  0  0  0  0  0  0  0  0
    2.1277    5.0852   16.1006 C   0  0  0  0  0  0  0  0  0  0  0  0
    1.6971    4.8119   17.0516 H   0  0  0  0  0  0  0  0  0  0  0  0
    1.3077    5.4036   15.0358 C   0  0  0  0  0  0  0  0  0  0  0  0
    0.2343    5.3844   15.1504 H   0  0  0  0  0  0  0  0  0  0  0  0
    1.8411    5.7493   13.8018 C   0  0  0  0  0  0  0  0  0  0  0  0
    0.9064    6.0925   12.6765 C   0  0  0  0  0  0  0  0  0  0  0  0
    0.2319    5.2581   12.4902 H   0  0  0  0  0  0  0  0  0  0  0  0
    1.4341    6.3209   11.7509 H   0  0  0  0  0  0  0  0  0  0  0  0
    0.2989    6.9555   12.9485 H   0  0  0  0  0  0  0  0  0  0  0  0
    5.5609    5.4721   14.5683 C   0  0  0  0  0  0  0  0  0  0  0  0
    6.0540    5.4800   15.5364 H   0  0  0  0  0  0  0  0  0  0  0  0
    5.8988    6.3279   13.9859 H   0  0  0  0  0  0  0  0  0  0  0  0
    5.8676    4.5712   14.0347 H   0  0  0  0  0  0  0  0  0  0  0  0
    4.2547    7.3787   10.5226 C   0  0  0  0  0  0  0  0  0  0  0  0
    3.9543    7.2328   11.9393 C   0  0  0  0  0  0  0  0  0  0  0  0
    4.3760    8.7485    9.9363 C   0  0  0  0  0  0  0  0  0  0  0  0
    4.3555    8.7004    8.8506 H   0  0  0  0  0  0  0  0  0  0  0  0
    5.3098    9.2130   10.2498 H   0  0  0  0  0  0  0  0  0  0  0  0
    3.5572    9.3776   10.2806 H   0  0  0  0  0  0  0  0  0  0  0  0
    3.7592    8.4424   12.7974 C   0  0  0  0  0  0  0  0  0  0  0  0
    3.6715    8.1509   13.8414 H   0  0  0  0  0  0  0  0  0  0  0  0
    2.8508    8.9720   12.5110 H   0  0  0  0  0  0  0  0  0  0  0  0
    4.5998    9.1234   12.6839 H   0  0  0  0  0  0  0  0  0  0  0  0
    6.3973    5.1489   11.3542 Cl  0  0  0  0  0  0  0  0  0  0  0  0
    4.5206    2.8018   12.5710 Cl  0  0  0  0  0  0  0  0  0  0  0  0
    4.9404    3.1651    9.2672 Cl  0  0  0  0  0  0  0  0  0  0  0  0
    4.2552    6.2933    9.8128 N   0  0  0  0  0  0  0  0  0  0  0  0
    3.7751    6.0308   12.3827 N   0  0  0  0  0  0  0  0  0  0  0  0
    2.6681    3.9736   10.9056 N   0  0  0  0  0  2  0  0  0  0  0  0
    1.6299    3.4742   10.9624 O   0  0  0  0  0  1  0  0  0  0  0  0
    4.2296    4.5686   11.0136 Ru  0  0  0  0  0  0  0  0  0  0  0  0
  1 48  1  0  0  0  0
  2 10  1  0  0  0  0
  2  1  2  0  0  0  0
  3  2  1  0  0  0  0
  4  3  1  0  0  0  0
  5  3  2  0  0  0  0
  5  7  1  0  0  0  0
  6  5  1  0  0  0  0
  7  9  2  0  0  0  0
  8  7  1  0  0  0  0
  9  1  1  0  0  0  0
  9 14  1  0  0  0  0
 10 13  1  0  0  0  0
 10 12  1  0  0  0  0
 11 10  1  0  0  0  0
 14 16  1  0  0  0  0
 15 14  1  0  0  0  0
 17 14  1  0  0  0  0
 18 26  2  0  0  0  0
 18 19  1  0  0  0  0
 19 20  2  0  0  0  0
 20 22  1  0  0  0  0
 20 21  1  0  0  0  0
 22 23  1  0  0  0  0
 24 25  1  0  0  0  0
 24 22  2  0  0  0  0
 26 24  1  0  0  0  0
 27 30  1  0  0  0  0
 27 26  1  0  0  0  0
 28 27  1  0  0  0  0
 29 27  1  0  0  0  0
 31 19  1  0  0  0  0
 31 32  1  0  0  0  0
 33 31  1  0  0  0  0
 34 31  1  0  0  0  0
 35 36  2  0  0  0  0
 36 49  1  0  0  0  0
 36 41  1  0  0  0  0
 37 39  1  0  0  0  0
 37 40  1  0  0  0  0
 37 35  1  0  0  0  0
 38 37  1  0  0  0  0
 41 42  1  0  0  0  0
 43 41  1  0  0  0  0
 44 41  1  0  0  0  0
 47 52  1  0  0  0  0
 48 35  1  0  0  0  0
 48 52  1  0  0  0  0
 49 18  1  0  0  0  0
 50 51  1  0  0  0  0
 50 52  1  0  0  0  0
 52 45  1  0  0  0  0
 52 49  1  0  0  0  0
 52 46  1  0  0  0  0
M  END
$$$$
