CSD_code = WEJMAZ | q = 0 | S = 0 | Stoichiometry = C9H12ClN5NiS | MND = 4
 OpenBabel04212202113D

 29 31  0  0  0  0  0  0  0  0999 V2000
    0.1438    0.4048    3.8753 Ni  0  0  2  0  0  0  0  0  0  0  0  0
    0.7461    1.9182    5.3125 S   0  0  0  0  0  0  0  0  0  0  0  0
    0.0922    1.6885    2.3280 Cl  0  0  0  0  0  0  0  0  0  0  0  0
   -0.3981   -1.1856    2.8353 N   0  0  0  0  0  0  0  0  0  0  0  0
   -0.6856   -1.3424    1.5510 C   0  0  0  0  0  0  0  0  0  0  0  0
   -1.0456   -2.5882    1.0498 C   0  0  0  0  0  0  0  0  0  0  0  0
   -1.1182   -3.6619    1.8260 N   0  0  0  0  0  0  0  0  0  0  0  0
   -0.8340   -3.5122    3.1005 C   0  0  0  0  0  0  0  0  0  0  0  0
   -0.4640   -2.2730    3.6473 C   0  0  0  0  0  0  0  0  0  0  0  0
   -0.1355   -2.0318    5.0252 C   0  0  0  0  0  0  0  0  0  0  0  0
   -0.1580   -3.1129    6.0566 C   0  0  0  0  0  0  0  0  0  0  0  0
    0.1856   -0.7877    5.2960 N   0  0  0  0  0  0  0  0  0  0  0  0
    0.5134   -0.4440    6.5351 N   0  0  0  0  0  0  0  0  0  0  0  0
    0.8126    0.8369    6.6767 C   0  0  0  0  0  0  0  0  0  0  0  0
    1.1717    1.2993    7.8770 N   0  0  0  0  0  0  0  0  0  0  0  0
    1.1889    0.4420    9.0366 C   0  0  0  0  0  0  0  0  0  0  0  0
    1.4991    2.6798    8.1170 C   0  0  0  0  0  0  0  0  0  0  0  0
   -0.6260   -0.4615    0.9254 H   0  0  0  0  0  0  0  0  0  0  0  0
   -1.2813   -2.7296    0.0060 H   0  0  0  0  0  0  0  0  0  0  0  0
   -0.8987   -4.3973    3.7165 H   0  0  0  0  0  0  0  0  0  0  0  0
   -1.1555   -3.5442    6.1338 H   0  0  0  0  0  0  0  0  0  0  0  0
    0.1258   -2.6928    7.0175 H   0  0  0  0  0  0  0  0  0  0  0  0
    0.5399   -3.9063    5.7915 H   0  0  0  0  0  0  0  0  0  0  0  0
    2.1885    0.4330    9.4774 H   0  0  0  0  0  0  0  0  0  0  0  0
    0.9139   -0.5654    8.7396 H   0  0  0  0  0  0  0  0  0  0  0  0
    0.4805    0.8091    9.7834 H   0  0  0  0  0  0  0  0  0  0  0  0
    2.4333    2.7393    8.6786 H   0  0  0  0  0  0  0  0  0  0  0  0
    0.7091    3.1640    8.6976 H   0  0  0  0  0  0  0  0  0  0  0  0
    1.6141    3.2036    7.1715 H   0  0  0  0  0  0  0  0  0  0  0  0
  1  3  1  6  0  0  0
  1 12  1  0  0  0  0
  1  2  1  0  0  0  0
  2 14  1  0  0  0  0
  4  9  1  0  0  0  0
  4  1  1  0  0  0  0
  5  4  1  0  0  0  0
  6  5  2  0  0  0  0
  6  7  1  0  0  0  0
  7  8  2  0  0  0  0
  8  9  1  0  0  0  0
  8 20  1  0  0  0  0
  9 10  2  0  0  0  0
 10 12  1  0  0  0  0
 10 11  1  0  0  0  0
 11 21  1  0  0  0  0
 11 22  1  0  0  0  0
 12 13  1  0  0  0  0
 13 14  2  0  0  0  0
 14 15  1  0  0  0  0
 15 17  1  0  0  0  0
 15 16  1  0  0  0  0
 16 24  1  0  0  0  0
 16 26  1  0  0  0  0
 17 27  1  0  0  0  0
 17 28  1  0  0  0  0
 18  5  1  0  0  0  0
 19  6  1  0  0  0  0
 23 11  1  0  0  0  0
 25 16  1  0  0  0  0
 29 17  1  0  0  0  0
M  END
$$$$
