CSD_code = WEKWEQ | q = 0 | S = 0 | Stoichiometry = C17H13CuIN3S | MND = 4
 OpenBabel04212202113D

 36 40  0  0  1  0  0  0  0  0999 V2000
    1.8192    1.9477    1.3396 I   0  0  0  0  0  0  0  0  0  0  0  0
    3.6169    1.4405    2.9958 Cu  0  0  1  0  0  0  0  0  0  0  0  0
    5.4996    2.9273    3.2269 S   0  0  0  0  0  0  0  0  0  0  0  0
    3.2605    1.0877    4.9473 N   0  0  0  0  0  0  0  0  0  0  0  0
    4.6032   -0.3148    3.0987 N   0  0  0  0  0  0  0  0  0  0  0  0
    4.2785    4.3443    1.3470 N   0  0  0  0  0  0  0  0  0  0  0  0
    3.5529    3.6101    1.3906 H   0  0  0  0  0  0  0  0  0  0  0  0
    2.6048    1.8037    5.8362 C   0  0  0  0  0  0  0  0  0  0  0  0
    2.0647    2.6609    5.4569 H   0  0  0  0  0  0  0  0  0  0  0  0
    2.5851    1.4879    7.1941 C   0  0  0  0  0  0  0  0  0  0  0  0
    2.0273    2.1071    7.8787 H   0  0  0  0  0  0  0  0  0  0  0  0
    3.2758    0.3806    7.6374 C   0  0  0  0  0  0  0  0  0  0  0  0
    3.2772    0.1043    8.6820 H   0  0  0  0  0  0  0  0  0  0  0  0
    3.9879   -0.3974    6.7120 C   0  0  0  0  0  0  0  0  0  0  0  0
    4.7426   -1.5521    7.0665 C   0  0  0  0  0  0  0  0  0  0  0  0
    4.7598   -1.8480    8.1055 H   0  0  0  0  0  0  0  0  0  0  0  0
    5.4259   -2.2580    6.1329 C   0  0  0  0  0  0  0  0  0  0  0  0
    6.0006   -3.1300    6.4103 H   0  0  0  0  0  0  0  0  0  0  0  0
    5.4135   -1.8733    4.7616 C   0  0  0  0  0  0  0  0  0  0  0  0
    6.1123   -2.5577    3.7556 C   0  0  0  0  0  0  0  0  0  0  0  0
    6.6947   -3.4319    4.0086 H   0  0  0  0  0  0  0  0  0  0  0  0
    6.0412   -2.0998    2.4574 C   0  0  0  0  0  0  0  0  0  0  0  0
    6.5657   -2.6026    1.6603 H   0  0  0  0  0  0  0  0  0  0  0  0
    5.2707   -0.9729    2.1743 C   0  0  0  0  0  0  0  0  0  0  0  0
    5.1874   -0.5963    1.1636 H   0  0  0  0  0  0  0  0  0  0  0  0
    4.6650   -0.7404    4.3761 C   0  0  0  0  0  0  0  0  0  0  0  0
    3.9481    0.0046    5.3596 C   0  0  0  0  0  0  0  0  0  0  0  0
    5.3530    4.2209    2.1671 C   0  0  2  0  0  3  0  0  0  0  0  0
    6.3388    5.2361    2.0818 C   0  0  0  0  0  0  0  0  0  0  0  0
    7.1974    5.1507    2.7279 H   0  0  0  0  0  0  0  0  0  0  0  0
    6.1909    6.2733    1.2087 C   0  0  0  0  0  0  0  0  0  0  0  0
    6.9442    7.0439    1.1462 H   0  0  0  0  0  0  0  0  0  0  0  0
    5.0507    6.3454    0.3810 C   0  0  0  0  0  0  0  0  0  0  0  0
    4.9219    7.1584   -0.3126 H   0  0  0  0  0  0  0  0  0  0  0  0
    4.1160    5.3576    0.4815 C   0  0  0  0  0  0  0  0  0  0  0  0
    3.2143    5.3299   -0.1115 H   0  0  0  0  0  0  0  0  0  0  0  0
  2  1  1  6  0  0  0
  2  5  1  0  0  0  0
  2  3  1  0  0  0  0
  2  4  1  0  0  0  0
  4 27  1  0  0  0  0
  4  8  1  0  0  0  0
  5 26  1  0  0  0  0
  6  7  1  0  0  0  0
  6 28  1  0  0  0  0
  8 10  2  0  0  0  0
  9  8  1  0  0  0  0
 10 12  1  0  0  0  0
 10 11  1  0  0  0  0
 12 13  1  0  0  0  0
 14 15  1  0  0  0  0
 14 12  2  0  0  0  0
 15 16  1  0  0  0  0
 17 18  1  0  0  0  0
 17 15  2  0  0  0  0
 19 17  1  0  0  0  0
 20 21  1  0  0  0  0
 20 19  2  0  0  0  0
 22 20  1  0  0  0  0
 23 22  1  0  0  0  0
 24 22  2  0  0  0  0
 24  5  1  0  0  0  0
 25 24  1  0  0  0  0
 26 19  1  0  0  0  0
 26 27  2  0  0  0  0
 27 14  1  0  0  0  0
 28  3  1  6  0  0  0
 29 28  1  0  0  0  0
 29 30  1  0  0  0  0
 31 29  2  0  0  0  0
 32 31  1  0  0  0  0
 33 35  2  0  0  0  0
 33 31  1  0  0  0  0
 34 33  1  0  0  0  0
 35  6  1  0  0  0  0
 36 35  1  0  0  0  0
M  END
$$$$
