CSD_code = WELBOF | q = 0 | S = 0 | Stoichiometry = C24H20Br2N4NiO2 | MND = 6
 OpenBabel04212202113D

 53 58  0  0  0  0  0  0  0  0999 V2000
   -0.1787   10.2568    6.3170 Br  0  0  0  0  0  0  0  0  0  0  0  0
    0.0001    8.9663    4.2277 Ni  0  0  0  0  0  0  0  0  0  0  0  0
   -1.7101    6.8232    1.6457 C   0  0  0  0  0  0  0  0  0  0  0  0
   -1.7451    7.8975    1.5459 H   0  0  0  0  0  0  0  0  0  0  0  0
   -3.5699    3.8377    0.6517 O   0  0  0  0  0  0  0  0  0  0  0  0
   -4.2309    4.3617    0.1826 H   0  0  0  0  0  0  0  0  0  0  0  0
    2.3861    7.7696    3.6919 C   0  0  0  0  0  0  0  0  0  0  0  0
    3.7647    7.5561    3.7471 C   0  0  0  0  0  0  0  0  0  0  0  0
    4.1680    6.6381    3.3486 H   0  0  0  0  0  0  0  0  0  0  0  0
    0.2766    7.0675    2.9352 N   0  0  0  0  0  0  0  0  0  0  0  0
   -1.5592    4.0612    1.8659 C   0  0  0  0  0  0  0  0  0  0  0  0
   -1.5296    2.9865    1.9500 H   0  0  0  0  0  0  0  0  0  0  0  0
    4.5852    8.5190    4.2971 C   0  0  0  0  0  0  0  0  0  0  0  0
    5.6522    8.3684    4.3553 H   0  0  0  0  0  0  0  0  0  0  0  0
    2.6301    9.8394    4.6724 C   0  0  0  0  0  0  0  0  0  0  0  0
    2.1615   10.7528    5.0167 H   0  0  0  0  0  0  0  0  0  0  0  0
   -0.6324    6.2381    2.3153 C   0  0  0  0  0  0  0  0  0  0  0  0
    1.8276    8.8915    4.1970 N   0  0  0  0  0  0  0  0  0  0  0  0
    4.0039    9.6976    4.7435 C   0  0  0  0  0  0  0  0  0  0  0  0
    4.5999   10.5002    5.1459 H   0  0  0  0  0  0  0  0  0  0  0  0
   -2.6850    6.0367    1.0734 C   0  0  0  0  0  0  0  0  0  0  0  0
   -3.5046    6.4973    0.5382 H   0  0  0  0  0  0  0  0  0  0  0  0
    1.5272    6.8258    3.0128 C   0  0  0  0  0  0  0  0  0  0  0  0
    2.0031    5.9723    2.5242 H   0  0  0  0  0  0  0  0  0  0  0  0
   -2.6218    4.6497    1.1824 C   0  0  0  0  0  0  0  0  0  0  0  0
   -0.5677    4.8447    2.4133 C   0  0  0  0  0  0  0  0  0  0  0  0
    0.2460    4.3850    2.9560 H   0  0  0  0  0  0  0  0  0  0  0  0
    0.1784   10.2568    2.1379 Br  0  0  0  0  0  0  0  0  0  0  0  0
    1.7102    6.8228    6.8093 C   0  0  0  0  0  0  0  0  0  0  0  0
    1.7455    7.8970    6.9089 H   0  0  0  0  0  0  0  0  0  0  0  0
    3.5694    3.8370    7.8041 O   0  0  0  0  0  0  0  0  0  0  0  0
    4.2305    4.3610    8.2731 H   0  0  0  0  0  0  0  0  0  0  0  0
   -2.3859    7.7693    4.7630 C   0  0  0  0  0  0  0  0  0  0  0  0
   -3.7644    7.5555    4.7073 C   0  0  0  0  0  0  0  0  0  0  0  0
   -4.1676    6.6372    5.1053 H   0  0  0  0  0  0  0  0  0  0  0  0
   -0.2764    7.0672    5.5198 N   0  0  0  0  0  0  0  0  0  0  0  0
    1.5588    4.0608    6.5897 C   0  0  0  0  0  0  0  0  0  0  0  0
    1.5290    2.9860    6.5058 H   0  0  0  0  0  0  0  0  0  0  0  0
   -4.5850    8.5182    4.1572 C   0  0  0  0  0  0  0  0  0  0  0  0
   -5.6519    8.3673    4.0986 H   0  0  0  0  0  0  0  0  0  0  0  0
   -2.6299    9.8391    3.7824 C   0  0  0  0  0  0  0  0  0  0  0  0
   -2.1614   10.7527    3.4386 H   0  0  0  0  0  0  0  0  0  0  0  0
    0.6324    6.2377    6.1399 C   0  0  0  0  0  0  0  0  0  0  0  0
   -1.8274    8.8913    4.2580 N   0  0  0  0  0  0  0  0  0  0  0  0
   -4.0038    9.6971    3.7111 C   0  0  0  0  0  0  0  0  0  0  0  0
   -4.6000   10.4997    3.3091 H   0  0  0  0  0  0  0  0  0  0  0  0
    2.6850    6.0362    7.3818 C   0  0  0  0  0  0  0  0  0  0  0  0
    3.5046    6.4968    7.9170 H   0  0  0  0  0  0  0  0  0  0  0  0
   -1.5270    6.8255    5.4420 C   0  0  0  0  0  0  0  0  0  0  0  0
   -2.0030    5.9720    5.9306 H   0  0  0  0  0  0  0  0  0  0  0  0
    2.6216    4.6492    7.2730 C   0  0  0  0  0  0  0  0  0  0  0  0
    0.5674    4.8443    6.0421 C   0  0  0  0  0  0  0  0  0  0  0  0
   -0.2462    4.3847    5.4994 H   0  0  0  0  0  0  0  0  0  0  0  0
  2 44  1  0  0  0  0
  2 36  1  0  0  0  0
  2  1  1  0  0  0  0
  3 17  1  0  0  0  0
  4  3  1  0  0  0  0
  5 25  1  0  0  0  0
  6  5  1  0  0  0  0
  7  8  1  0  0  0  0
  7 18  1  0  0  0  0
  8 13  2  0  0  0  0
  9  8  1  0  0  0  0
 10 23  1  0  0  0  0
 10  2  1  0  0  0  0
 11 12  1  0  0  0  0
 11 26  1  0  0  0  0
 13 14  1  0  0  0  0
 13 19  1  0  0  0  0
 15 19  2  0  0  0  0
 15 16  1  0  0  0  0
 17 26  2  0  0  0  0
 17 10  1  0  0  0  0
 18  2  1  0  0  0  0
 18 15  1  0  0  0  0
 19 20  1  0  0  0  0
 21 25  1  0  0  0  0
 21  3  2  0  0  0  0
 22 21  1  0  0  0  0
 23  7  2  0  0  0  0
 24 23  1  0  0  0  0
 25 11  2  0  0  0  0
 26 27  1  0  0  0  0
 28  2  1  0  0  0  0
 29 30  1  0  0  0  0
 29 47  1  0  0  0  0
 31 32  1  0  0  0  0
 33 49  2  0  0  0  0
 34 33  1  0  0  0  0
 34 35  1  0  0  0  0
 36 43  1  0  0  0  0
 37 51  1  0  0  0  0
 38 37  1  0  0  0  0
 39 34  2  0  0  0  0
 40 39  1  0  0  0  0
 41 44  1  0  0  0  0
 42 41  1  0  0  0  0
 43 29  2  0  0  0  0
 44 33  1  0  0  0  0
 45 41  2  0  0  0  0
 45 39  1  0  0  0  0
 46 45  1  0  0  0  0
 47 48  1  0  0  0  0
 49 36  1  0  0  0  0
 49 50  1  0  0  0  0
 51 47  2  0  0  0  0
 51 31  1  0  0  0  0
 52 43  1  0  0  0  0
 52 37  2  0  0  0  0
 53 52  1  0  0  0  0
M  END
$$$$
