CSD_code = WELHON | q = 0 | S = 0 | Stoichiometry = C14H30Cl2N6OZn | MND = 4
 OpenBabel04212202113D

 54 55  0  0  1  0  0  0  0  0999 V2000
    8.3951    3.2449    6.2645 Zn  0  0  0  0  0  0  0  0  0  0  0  0
    7.0896    3.6300    4.5280 Cl  0  0  0  0  0  0  0  0  0  0  0  0
    9.5143    4.6650    7.1635 N   0  0  0  0  0  0  0  0  0  0  0  0
   10.0490    1.7163    5.9343 Cl  0  0  0  0  0  0  0  0  0  0  0  0
    8.5135    3.4870    9.0482 C   0  0  1  0  0  0  0  0  0  0  0  0
    8.7798    2.9561    9.9689 H   0  0  0  0  0  0  0  0  0  0  0  0
    9.7696    4.2059    8.5088 C   0  0  2  0  0  0  0  0  0  0  0  0
   10.6494    3.5625    8.5863 H   0  0  0  0  0  0  0  0  0  0  0  0
    7.6827    1.3571    8.3404 C   0  0  0  0  0  3  0  0  0  0  0  0
   10.3903    5.3604    6.4880 C   0  0  0  0  0  3  0  0  0  0  0  0
    8.4004    0.6454    9.2603 N   0  0  0  0  0  0  0  0  0  0  0  0
    6.6759    0.7026    7.7087 N   0  0  0  0  0  0  0  0  0  0  0  0
    7.8107   -0.4323   10.0178 C   0  0  0  0  0  0  0  0  0  0  0  0
    6.7272   -0.3726    9.9593 H   0  0  0  0  0  0  0  0  0  0  0  0
    8.1122   -0.3241   11.0634 H   0  0  0  0  0  0  0  0  0  0  0  0
    8.1375   -1.4180    9.6713 H   0  0  0  0  0  0  0  0  0  0  0  0
    9.8437    0.7177    9.3148 C   0  0  0  0  0  0  0  0  0  0  0  0
   10.2558   -0.2912    9.2245 H   0  0  0  0  0  0  0  0  0  0  0  0
   10.1949    1.1490   10.2570 H   0  0  0  0  0  0  0  0  0  0  0  0
   10.2104    1.3013    8.4731 H   0  0  0  0  0  0  0  0  0  0  0  0
    6.8926   -0.6160    7.1493 C   0  0  0  0  0  0  0  0  0  0  0  0
    6.8020   -0.5654    6.0616 H   0  0  0  0  0  0  0  0  0  0  0  0
    6.1542   -1.3258    7.5301 H   0  0  0  0  0  0  0  0  0  0  0  0
    7.8936   -0.9674    7.3810 H   0  0  0  0  0  0  0  0  0  0  0  0
    5.6065    1.4444    7.0785 C   0  0  0  0  0  0  0  0  0  0  0  0
    5.8368    1.7118    6.0436 H   0  0  0  0  0  0  0  0  0  0  0  0
    5.4227    2.3570    7.6402 H   0  0  0  0  0  0  0  0  0  0  0  0
    4.7104    0.8221    7.0883 H   0  0  0  0  0  0  0  0  0  0  0  0
    7.6567    4.7066    9.4170 C   0  0  0  0  0  0  0  0  0  0  0  0
    7.1854    5.1023    8.5068 H   0  0  0  0  0  0  0  0  0  0  0  0
    6.8873    4.4879   10.1590 H   0  0  0  0  0  0  0  0  0  0  0  0
    9.8599    5.3972    9.4766 C   0  0  0  0  0  0  0  0  0  0  0  0
   10.5176    5.1685   10.3248 H   0  0  0  0  0  0  0  0  0  0  0  0
   10.2323    6.2960    8.9734 H   0  0  0  0  0  0  0  0  0  0  0  0
    8.5543    5.6434    9.9743 O   0  0  0  0  0  0  0  0  0  0  0  0
   11.7361    5.3547    6.7140 N   0  0  0  0  0  0  0  0  0  0  0  0
    9.9395    6.2304    5.5463 N   0  0  0  0  0  0  0  0  0  0  0  0
   12.4666    4.1412    6.9973 C   0  0  0  0  0  0  0  0  0  0  0  0
   11.8594    3.2705    6.7513 H   0  0  0  0  0  0  0  0  0  0  0  0
   12.7856    4.0940    8.0442 H   0  0  0  0  0  0  0  0  0  0  0  0
   13.3587    4.1146    6.3670 H   0  0  0  0  0  0  0  0  0  0  0  0
   12.5475    6.5362    6.5451 C   0  0  0  0  0  0  0  0  0  0  0  0
   13.2106    6.4623    5.6775 H   0  0  0  0  0  0  0  0  0  0  0  0
   13.1682    6.6645    7.4366 H   0  0  0  0  0  0  0  0  0  0  0  0
   11.9102    7.4094    6.4336 H   0  0  0  0  0  0  0  0  0  0  0  0
   10.5641    6.3058    4.2429 C   0  0  0  0  0  0  0  0  0  0  0  0
    9.8856    5.8922    3.4914 H   0  0  0  0  0  0  0  0  0  0  0  0
   11.4816    5.7248    4.2262 H   0  0  0  0  0  0  0  0  0  0  0  0
   10.7839    7.3440    3.9822 H   0  0  0  0  0  0  0  0  0  0  0  0
    8.5620    6.6740    5.5661 C   0  0  0  0  0  0  0  0  0  0  0  0
    8.5258    7.6797    5.1442 H   0  0  0  0  0  0  0  0  0  0  0  0
    8.2104    6.7007    6.5944 H   0  0  0  0  0  0  0  0  0  0  0  0
    7.9058    6.0227    4.9840 H   0  0  0  0  0  0  0  0  0  0  0  0
    7.8381    2.6347    8.1149 N   0  0  0  0  0  0  0  0  0  0  0  0
  1  3  1  0  0  0  0
  1 54  1  0  0  0  0
  2  1  1  0  0  0  0
  3  7  1  0  0  0  0
  4  1  1  0  0  0  0
  5 29  1  0  0  0  0
  5  6  1  1  0  0  0
  7  8  1  1  0  0  0
  7  5  1  0  0  0  0
  7 32  1  0  0  0  0
  9 11  1  0  0  0  0
 10 36  1  0  0  0  0
 10  3  1  0  0  0  0
 11 17  1  0  0  0  0
 11 13  1  0  0  0  0
 12  9  1  0  0  0  0
 13 15  1  0  0  0  0
 14 13  1  0  0  0  0
 16 13  1  0  0  0  0
 17 19  1  0  0  0  0
 18 17  1  0  0  0  0
 20 17  1  0  0  0  0
 21 24  1  0  0  0  0
 21 23  1  0  0  0  0
 21 12  1  0  0  0  0
 22 21  1  0  0  0  0
 25 28  1  0  0  0  0
 25 27  1  0  0  0  0
 25 12  1  0  0  0  0
 26 25  1  0  0  0  0
 29 35  1  0  0  0  0
 29 31  1  0  0  0  0
 30 29  1  0  0  0  0
 32 35  1  0  0  0  0
 32 33  1  0  0  0  0
 34 32  1  0  0  0  0
 36 38  1  0  0  0  0
 37 50  1  0  0  0  0
 37 10  1  0  0  0  0
 38 40  1  0  0  0  0
 39 38  1  0  0  0  0
 41 38  1  0  0  0  0
 42 36  1  0  0  0  0
 42 44  1  0  0  0  0
 43 42  1  0  0  0  0
 45 42  1  0  0  0  0
 46 37  1  0  0  0  0
 47 46  1  0  0  0  0
 48 46  1  0  0  0  0
 49 46  1  0  0  0  0
 50 52  1  0  0  0  0
 51 50  1  0  0  0  0
 53 50  1  0  0  0  0
 54  9  1  0  0  0  0
 54  5  1  0  0  0  0
M  END
$$$$
