CSD_code = WELJAB | q = 0 | S = 0 | Stoichiometry = C16H34Cl2N6Zn | MND = 4
 OpenBabel04212202113D

 59 60  0  0  1  0  0  0  0  0999 V2000
    7.3174    1.7105    5.4586 Zn  0  0  0  0  0  0  0  0  0  0  0  0
    8.9071    0.9911    4.0524 Cl  0  0  0  0  0  0  0  0  0  0  0  0
    7.6630    2.2433    7.3896 N   0  0  0  0  0  0  0  0  0  0  0  0
    6.9585    1.2693    8.1982 C   0  0  2  0  0  0  0  0  0  0  0  0
    5.8758    1.4432    8.1972 H   0  0  0  0  0  0  0  0  0  0  0  0
    5.9620    3.3775    4.8165 Cl  0  0  0  0  0  0  0  0  0  0  0  0
    6.7727    4.1480    8.4788 N   0  0  0  0  0  0  0  0  0  0  0  0
    7.4778    1.2719    9.6394 C   0  0  0  0  0  0  0  0  0  0  0  0
    8.5547    1.0874    9.6208 H   0  0  0  0  0  0  0  0  0  0  0  0
    7.3165    2.2543   10.0852 H   0  0  0  0  0  0  0  0  0  0  0  0
    8.6748    4.2857    7.1594 N   0  0  0  0  0  0  0  0  0  0  0  0
    6.7822    0.1983   10.4685 C   0  0  0  0  0  0  0  0  0  0  0  0
    7.1760    0.2058   11.4870 H   0  0  0  0  0  0  0  0  0  0  0  0
    5.7128    0.4161   10.5207 H   0  0  0  0  0  0  0  0  0  0  0  0
    6.9865   -1.1749    9.8386 C   0  0  0  0  0  0  0  0  0  0  0  0
    6.4605   -1.9351   10.4198 H   0  0  0  0  0  0  0  0  0  0  0  0
    8.0506   -1.4220    9.8483 H   0  0  0  0  0  0  0  0  0  0  0  0
    6.6730   -0.0673    6.2159 N   0  0  0  0  0  0  0  0  0  0  0  0
    6.4781   -1.1826    8.4013 C   0  0  0  0  0  0  0  0  0  0  0  0
    5.4052   -0.9761    8.3857 H   0  0  0  0  0  0  0  0  0  0  0  0
    6.6335   -2.1646    7.9533 H   0  0  0  0  0  0  0  0  0  0  0  0
    5.8036   -1.1129    4.3716 N   0  0  0  0  0  0  0  0  0  0  0  0
    7.1920   -0.1139    7.5678 C   0  0  2  0  0  0  0  0  0  0  0  0
    8.2734   -0.2957    7.5826 H   0  0  0  0  0  0  0  0  0  0  0  0
    7.4542   -2.2095    5.5746 N   0  0  0  0  0  0  0  0  0  0  0  0
    6.6883   -1.0897    5.4097 C   0  0  0  0  0  3  0  0  0  0  0  0
    8.8571   -2.1209    5.9105 C   0  0  0  0  0  0  0  0  0  0  0  0
    9.0472   -2.3882    6.9554 H   0  0  0  0  0  0  0  0  0  0  0  0
    9.2197   -1.1148    5.7075 H   0  0  0  0  0  0  0  0  0  0  0  0
    9.4143   -2.8098    5.2723 H   0  0  0  0  0  0  0  0  0  0  0  0
    6.9866   -3.5190    5.1885 C   0  0  0  0  0  0  0  0  0  0  0  0
    7.1911   -4.2185    6.0047 H   0  0  0  0  0  0  0  0  0  0  0  0
    7.4852   -3.8940    4.2889 H   0  0  0  0  0  0  0  0  0  0  0  0
    5.9142   -3.4877    5.0146 H   0  0  0  0  0  0  0  0  0  0  0  0
    4.7069   -0.1709    4.3590 C   0  0  0  0  0  0  0  0  0  0  0  0
    4.3318   -0.0439    5.3717 H   0  0  0  0  0  0  0  0  0  0  0  0
    3.9173   -0.5766    3.7254 H   0  0  0  0  0  0  0  0  0  0  0  0
    5.0003    0.8097    3.9704 H   0  0  0  0  0  0  0  0  0  0  0  0
    6.2611   -1.4868    3.0476 C   0  0  0  0  0  0  0  0  0  0  0  0
    7.2598   -1.9092    3.0946 H   0  0  0  0  0  0  0  0  0  0  0  0
    6.3098   -0.5986    2.4118 H   0  0  0  0  0  0  0  0  0  0  0  0
    5.5745   -2.2074    2.5973 H   0  0  0  0  0  0  0  0  0  0  0  0
    5.3514    3.9070    8.3777 C   0  0  0  0  0  0  0  0  0  0  0  0
    4.9781    3.3013    9.2104 H   0  0  0  0  0  0  0  0  0  0  0  0
    5.1285    3.4211    7.4296 H   0  0  0  0  0  0  0  0  0  0  0  0
    4.8304    4.8668    8.3897 H   0  0  0  0  0  0  0  0  0  0  0  0
    7.6616    3.5193    7.6517 C   0  0  0  0  0  3  0  0  0  0  0  0
    9.8487    3.6418    6.6146 C   0  0  0  0  0  0  0  0  0  0  0  0
   10.6767    4.3504    6.6572 H   0  0  0  0  0  0  0  0  0  0  0  0
    9.7089    3.3261    5.5756 H   0  0  0  0  0  0  0  0  0  0  0  0
   10.0879    2.7658    7.2130 H   0  0  0  0  0  0  0  0  0  0  0  0
    8.3803    5.5703    6.5550 C   0  0  0  0  0  0  0  0  0  0  0  0
    7.3365    5.8294    6.7017 H   0  0  0  0  0  0  0  0  0  0  0  0
    8.5550    5.5147    5.4777 H   0  0  0  0  0  0  0  0  0  0  0  0
    9.0197    6.3489    6.9779 H   0  0  0  0  0  0  0  0  0  0  0  0
    7.1569    5.2667    9.3055 C   0  0  0  0  0  0  0  0  0  0  0  0
    6.7577    5.1100   10.3121 H   0  0  0  0  0  0  0  0  0  0  0  0
    6.7678    6.2192    8.9316 H   0  0  0  0  0  0  0  0  0  0  0  0
    8.2407    5.3230    9.3639 H   0  0  0  0  0  0  0  0  0  0  0  0
  1 18  1  0  0  0  0
  1  3  1  0  0  0  0
  2  1  1  0  0  0  0
  3 47  1  0  0  0  0
  3  4  1  0  0  0  0
  4  5  1  6  0  0  0
  4  8  1  0  0  0  0
  6  1  1  0  0  0  0
  7 56  1  0  0  0  0
  8 10  1  0  0  0  0
  8 12  1  0  0  0  0
  9  8  1  0  0  0  0
 11 47  1  0  0  0  0
 12 14  1  0  0  0  0
 12 13  1  0  0  0  0
 15 17  1  0  0  0  0
 15 16  1  0  0  0  0
 15 12  1  0  0  0  0
 18 23  1  0  0  0  0
 19 15  1  0  0  0  0
 20 19  1  0  0  0  0
 21 19  1  0  0  0  0
 22 26  1  0  0  0  0
 23 24  1  6  0  0  0
 23  4  1  0  0  0  0
 23 19  1  0  0  0  0
 25 27  1  0  0  0  0
 26 25  1  0  0  0  0
 26 18  1  0  0  0  0
 27 28  1  0  0  0  0
 29 27  1  0  0  0  0
 30 27  1  0  0  0  0
 31 25  1  0  0  0  0
 31 32  1  0  0  0  0
 33 31  1  0  0  0  0
 34 31  1  0  0  0  0
 35 22  1  0  0  0  0
 35 36  1  0  0  0  0
 37 35  1  0  0  0  0
 38 35  1  0  0  0  0
 39 40  1  0  0  0  0
 39 22  1  0  0  0  0
 41 39  1  0  0  0  0
 42 39  1  0  0  0  0
 43 46  1  0  0  0  0
 43  7  1  0  0  0  0
 43 44  1  0  0  0  0
 45 43  1  0  0  0  0
 47  7  1  0  0  0  0
 48 49  1  0  0  0  0
 48 11  1  0  0  0  0
 48 51  1  0  0  0  0
 50 48  1  0  0  0  0
 52 53  1  0  0  0  0
 52 55  1  0  0  0  0
 52 11  1  0  0  0  0
 54 52  1  0  0  0  0
 56 59  1  0  0  0  0
 56 57  1  0  0  0  0
 58 56  1  0  0  0  0
M  END
$$$$
