CSD_code = WELSEO | q = 0 | S = 0 | Stoichiometry = C20H23BrN2Pt | MND = 6
 OpenBabel04212202113D

 47 50  0  0  1  0  0  0  0  0999 V2000
    5.9107    2.3163    8.3609 Pt  0  0  0  0  0  0  0  0  0  0  0  0
    4.7578    2.6541   10.6779 Br  0  0  0  0  0  0  0  0  0  0  0  0
    8.6803    3.2122   11.4833 C   0  0  0  0  0  0  0  0  0  0  0  0
    8.9108    4.1513   11.9590 H   0  0  0  0  0  0  0  0  0  0  0  0
    8.4130    5.6138    9.7384 C   0  0  0  0  0  0  0  0  0  0  0  0
    9.2285    5.6466   10.4426 H   0  0  0  0  0  0  0  0  0  0  0  0
    8.0489    3.1866   10.2411 C   0  0  1  0  0  3  0  0  0  0  0  0
    7.9776    0.8913   10.2756 C   0  0  0  0  0  0  0  0  0  0  0  0
    7.6780   -0.0152    9.7673 H   0  0  0  0  0  0  0  0  0  0  0  0
    7.6875    2.0305    9.6649 N   0  0  0  0  0  0  0  0  0  0  0  0
    6.7410    4.3539    8.6054 N   0  0  0  0  0  0  0  0  0  0  0  0
    5.3761    0.3378    8.1847 C   0  0  0  0  0  0  0  0  0  0  0  0
    4.6462    0.1345    7.4012 H   0  0  0  0  0  0  0  0  0  0  0  0
    4.9535    0.0110    9.1379 H   0  0  0  0  0  0  0  0  0  0  0  0
    6.2689   -0.2568    7.9696 H   0  0  0  0  0  0  0  0  0  0  0  0
    8.9573    2.0203   12.1272 C   0  0  0  0  0  0  0  0  0  0  0  0
    9.4242    2.0212   13.1000 H   0  0  0  0  0  0  0  0  0  0  0  0
    7.7222    4.4223    9.5138 C   0  0  2  0  0  3  0  0  0  0  0  0
    6.8539    2.2019    6.5066 C   0  0  0  0  0  0  0  0  0  0  0  0
    6.4388    1.4079    5.8812 H   0  0  0  0  0  0  0  0  0  0  0  0
    6.6774    3.1527    5.9896 H   0  0  0  0  0  0  0  0  0  0  0  0
    4.1402    2.7986    7.4331 C   0  0  0  0  0  0  0  0  0  0  0  0
    3.9262    3.8357    7.7094 H   0  0  0  0  0  0  0  0  0  0  0  0
    3.3297    2.1806    7.8221 H   0  0  0  0  0  0  0  0  0  0  0  0
    4.1576    2.7101    6.3465 H   0  0  0  0  0  0  0  0  0  0  0  0
    6.4063    5.4401    7.9259 C   0  0  0  0  0  0  0  0  0  0  0  0
    5.6086    5.3278    7.2036 H   0  0  0  0  0  0  0  0  0  0  0  0
    8.6149    0.8314   11.5030 C   0  0  0  0  0  0  0  0  0  0  0  0
    8.8156   -0.1221   11.9639 H   0  0  0  0  0  0  0  0  0  0  0  0
    7.0246    6.6641    8.1108 C   0  0  0  0  0  0  0  0  0  0  0  0
    6.7096    7.5240    7.5422 H   0  0  0  0  0  0  0  0  0  0  0  0
    8.0561    6.7481    9.0340 C   0  0  0  0  0  0  0  0  0  0  0  0
    8.5761    7.6796    9.1989 H   0  0  0  0  0  0  0  0  0  0  0  0
    8.9726    2.0477    5.2614 C   0  0  0  0  0  0  0  0  0  0  0  0
    8.3621    1.9913    6.6362 C   0  0  0  0  0  0  0  0  0  0  0  0
    8.8116    2.7719    7.2571 H   0  0  0  0  0  0  0  0  0  0  0  0
    8.5721    1.0203    7.0903 H   0  0  0  0  0  0  0  0  0  0  0  0
    9.0319    0.9102    4.4663 C   0  0  0  0  0  0  0  0  0  0  0  0
    8.6707   -0.0304    4.8572 H   0  0  0  0  0  0  0  0  0  0  0  0
   10.0135    2.1742    2.6798 C   0  0  0  0  0  0  0  0  0  0  0  0
   10.4193    2.2229    1.6801 H   0  0  0  0  0  0  0  0  0  0  0  0
    9.4355    3.2503    4.7431 C   0  0  0  0  0  0  0  0  0  0  0  0
    9.3920    4.1442    5.3512 H   0  0  0  0  0  0  0  0  0  0  0  0
    9.5500    0.9714    3.1853 C   0  0  0  0  0  0  0  0  0  0  0  0
    9.5930    0.0781    2.5792 H   0  0  0  0  0  0  0  0  0  0  0  0
    9.9547    3.3144    3.4624 C   0  0  0  0  0  0  0  0  0  0  0  0
   10.3151    4.2563    3.0741 H   0  0  0  0  0  0  0  0  0  0  0  0
  1 11  1  0  0  0  0
  1 10  1  0  0  0  0
  1  2  1  0  0  0  0
  3  4  1  0  0  0  0
  3 16  2  0  0  0  0
  5  6  1  0  0  0  0
  7  3  1  1  0  0  0
  8 28  2  0  0  0  0
  9  8  1  0  0  0  0
 10  7  1  0  0  0  0
 10  8  1  0  0  0  0
 11 18  1  0  0  0  0
 12  1  1  0  0  0  0
 12 14  1  0  0  0  0
 13 12  1  0  0  0  0
 15 12  1  0  0  0  0
 16 17  1  0  0  0  0
 18  5  1  6  0  0  0
 18  7  1  0  0  0  0
 19 35  1  0  0  0  0
 19  1  1  0  0  0  0
 20 19  1  0  0  0  0
 21 19  1  0  0  0  0
 22 23  1  0  0  0  0
 22 24  1  0  0  0  0
 22  1  1  0  0  0  0
 25 22  1  0  0  0  0
 26 30  2  0  0  0  0
 26 11  1  0  0  0  0
 27 26  1  0  0  0  0
 28 29  1  0  0  0  0
 28 16  1  0  0  0  0
 30 32  1  0  0  0  0
 31 30  1  0  0  0  0
 32 33  1  0  0  0  0
 32  5  2  0  0  0  0
 34 35  1  0  0  0  0
 35 37  1  0  0  0  0
 35 36  1  0  0  0  0
 38 39  1  0  0  0  0
 38 34  2  0  0  0  0
 40 44  2  0  0  0  0
 40 46  1  0  0  0  0
 41 40  1  0  0  0  0
 42 34  1  0  0  0  0
 42 43  1  0  0  0  0
 44 38  1  0  0  0  0
 45 44  1  0  0  0  0
 46 42  2  0  0  0  0
 47 46  1  0  0  0  0
M  END
$$$$
