CSD_code = WELWAM | q = 1 | S = 0 | Stoichiometry = C18H18ClN4Pd(1+) | MND = 4
 OpenBabel04212202113D

 42 47  0  0  1  0  0  0  0  0999 V2000
    0.7241    2.2198    9.7551 Pd  0  0  0  0  0  0  0  0  0  0  0  0
    2.1868    1.6520   11.3498 Cl  0  0  0  0  0  0  0  0  0  0  0  0
    0.1949    3.9161   10.5902 N   0  0  0  0  0  0  0  0  0  0  0  0
    0.9914    0.5742    8.6930 N   0  0  0  0  0  0  0  0  0  0  0  0
    2.0572    3.2458    7.8599 N   0  0  0  0  0  0  0  0  0  0  0  0
   -0.7323    2.7080    8.3176 N   0  0  2  0  0  4  0  0  0  0  0  0
   -1.7002    3.4337    9.1505 C   0  0  0  0  0  0  0  0  0  0  0  0
   -0.9629    4.3739   10.0827 C   0  0  1  0  0  3  0  0  0  0  0  0
   -1.4556    5.6225   10.4261 C   0  0  0  0  0  0  0  0  0  0  0  0
   -0.7391    6.4115   11.3161 C   0  0  0  0  0  0  0  0  0  0  0  0
    0.4558    5.9286   11.8236 C   0  0  0  0  0  0  0  0  0  0  0  0
    0.8933    4.6735   11.4298 C   0  0  0  0  0  0  0  0  0  0  0  0
   -1.1452    1.3738    7.8696 C   0  0  0  0  0  0  0  0  0  0  0  0
    0.0587    0.4672    7.7317 C   0  0  2  0  0  3  0  0  0  0  0  0
    0.1866   -0.4523    6.7030 C   0  0  0  0  0  0  0  0  0  0  0  0
    1.3000   -1.2800    6.6693 C   0  0  0  0  0  0  0  0  0  0  0  0
    2.2521   -1.1589    7.6681 C   0  0  0  0  0  0  0  0  0  0  0  0
    2.0630   -0.2121    8.6621 C   0  0  0  0  0  0  0  0  0  0  0  0
   -0.2326    3.5285    7.2062 C   0  0  0  0  0  0  0  0  0  0  0  0
    1.1881    3.1489    6.8479 C   0  0  1  0  0  3  0  0  0  0  0  0
    1.5643    2.7395    5.5793 C   0  0  0  0  0  0  0  0  0  0  0  0
    2.8938    2.4058    5.3570 C   0  0  0  0  0  0  0  0  0  0  0  0
    3.7911    2.4955    6.4078 C   0  0  0  0  0  0  0  0  0  0  0  0
    3.3267    2.9258    7.6433 C   0  0  0  0  0  0  0  0  0  0  0  0
   -2.2459    2.7092    9.7723 H   0  0  0  0  0  0  0  0  0  0  0  0
   -2.4327    3.9827    8.5427 H   0  0  0  0  0  0  0  0  0  0  0  0
   -2.3877    5.9701   10.0090 H   0  0  0  0  0  0  0  0  0  0  0  0
   -1.1097    7.3833   11.6012 H   0  0  0  0  0  0  0  0  0  0  0  0
    1.0432    6.5098   12.5151 H   0  0  0  0  0  0  0  0  0  0  0  0
    1.8184    4.2491   11.8027 H   0  0  0  0  0  0  0  0  0  0  0  0
   -1.7026    1.4167    6.9231 H   0  0  0  0  0  0  0  0  0  0  0  0
   -1.8017    0.9310    8.6322 H   0  0  0  0  0  0  0  0  0  0  0  0
   -0.5750   -0.5227    5.9425 H   0  0  0  0  0  0  0  0  0  0  0  0
    1.4164   -2.0037    5.8782 H   0  0  0  0  0  0  0  0  0  0  0  0
    3.1286   -1.7853    7.6825 H   0  0  0  0  0  0  0  0  0  0  0  0
    2.7758   -0.0786    9.4679 H   0  0  0  0  0  0  0  0  0  0  0  0
   -0.2196    4.5738    7.5318 H   0  0  0  0  0  0  0  0  0  0  0  0
   -0.8892    3.4401    6.3308 H   0  0  0  0  0  0  0  0  0  0  0  0
    0.8407    2.6853    4.7806 H   0  0  0  0  0  0  0  0  0  0  0  0
    3.2173    2.0836    4.3794 H   0  0  0  0  0  0  0  0  0  0  0  0
    4.8306    2.2454    6.2737 H   0  0  0  0  0  0  0  0  0  0  0  0
    3.9868    3.0300    8.4951 H   0  0  0  0  0  0  0  0  0  0  0  0
  1  3  1  0  0  0  0
  1  2  1  0  0  0  0
  3 12  1  0  0  0  0
  4  1  1  0  0  0  0
  5  1  1  0  0  0  0
  6 19  1  6  0  0  0
  6  7  1  0  0  0  0
  6  1  1  0  0  0  0
  7 25  1  0  0  0  0
  7  8  1  0  0  0  0
  8  9  1  1  0  0  0
  8  3  1  0  0  0  0
  9 10  2  0  0  0  0
 10 28  1  0  0  0  0
 10 11  1  0  0  0  0
 11 29  1  0  0  0  0
 12 30  1  0  0  0  0
 12 11  2  0  0  0  0
 13  6  1  0  0  0  0
 13 32  1  0  0  0  0
 14 15  1  1  0  0  0
 14 13  1  0  0  0  0
 14  4  1  0  0  0  0
 16 15  2  0  0  0  0
 16 17  1  0  0  0  0
 17 35  1  0  0  0  0
 17 18  2  0  0  0  0
 18  4  1  0  0  0  0
 18 36  1  0  0  0  0
 19 37  1  0  0  0  0
 20 21  1  6  0  0  0
 20 19  1  0  0  0  0
 20  5  1  0  0  0  0
 22 21  2  0  0  0  0
 22 23  1  0  0  0  0
 23 24  2  0  0  0  0
 24  5  1  0  0  0  0
 24 42  1  0  0  0  0
 26  7  1  0  0  0  0
 27  9  1  0  0  0  0
 31 13  1  0  0  0  0
 33 15  1  0  0  0  0
 34 16  1  0  0  0  0
 38 19  1  0  0  0  0
 39 21  1  0  0  0  0
 40 22  1  0  0  0  0
 41 23  1  0  0  0  0
M  END
$$$$
