CSD_code = WEMJON | q = 0 | S = 0 | Stoichiometry = C31H27Cl3N2OPRe | MND = 6
 OpenBabel04212202113D

 66 71  0  0  0  0  0  0  0  0999 V2000
    3.1444    2.3698    2.1112 Re  0  0  0  0  0  0  0  0  0  0  0  0
    2.9924    2.4688    4.3954 Cl  0  0  0  0  0  0  0  0  0  0  0  0
    2.1715    0.3065    2.0590 Cl  0  0  0  0  0  0  0  0  0  0  0  0
    3.7795    4.5567    1.9101 Cl  0  0  0  0  0  0  0  0  0  0  0  0
    0.2543    3.1231    3.6245 P   0  0  0  0  0  4  0  0  0  0  0  0
    1.0508    3.1785    2.3606 O   0  0  0  0  0  0  0  0  0  0  0  0
    5.0050    1.6872    1.8349 N   0  0  0  0  0  0  0  0  0  0  0  0
    3.2927    2.3050    0.0669 N   0  0  0  0  0  0  0  0  0  0  0  0
    5.4316    1.5659    0.5341 C   0  0  0  0  0  0  0  0  0  0  0  0
    6.7249    1.1143    0.2231 C   0  0  0  0  0  0  0  0  0  0  0  0
    7.5885    0.7842    1.2330 C   0  0  0  0  0  0  0  0  0  0  0  0
    7.1442    0.9099    2.5580 C   0  0  0  0  0  0  0  0  0  0  0  0
    5.8721    1.3556    2.8067 C   0  0  0  0  0  0  0  0  0  0  0  0
    4.4548    1.9352   -0.4147 C   0  0  0  0  0  0  0  0  0  0  0  0
    2.2882    2.7672   -0.7828 C   0  0  0  0  0  0  0  0  0  0  0  0
    0.9660    2.3844   -0.5558 C   0  0  0  0  0  0  0  0  0  0  0  0
   -0.0465    2.8844   -1.3484 C   0  0  0  0  0  0  0  0  0  0  0  0
    0.2234    3.7779   -2.3793 C   0  0  0  0  0  0  0  0  0  0  0  0
    1.5443    4.1522   -2.6025 C   0  0  0  0  0  0  0  0  0  0  0  0
    2.5686    3.6540   -1.8231 C   0  0  0  0  0  0  0  0  0  0  0  0
   -0.8760    4.3165   -3.2418 C   0  0  0  0  0  0  0  0  0  0  0  0
   -1.4324    3.6144    3.1346 C   0  0  0  0  0  0  0  0  0  0  0  0
   -2.5217    3.4174    3.9720 C   0  0  0  0  0  0  0  0  0  0  0  0
   -3.7806    3.8268    3.5732 C   0  0  0  0  0  0  0  0  0  0  0  0
   -3.9552    4.4346    2.3396 C   0  0  0  0  0  0  0  0  0  0  0  0
   -2.8694    4.6316    1.5029 C   0  0  0  0  0  0  0  0  0  0  0  0
   -1.6085    4.2244    1.9013 C   0  0  0  0  0  0  0  0  0  0  0  0
   -0.0043    1.4600    4.3192 C   0  0  0  0  0  0  0  0  0  0  0  0
    0.4416    1.0299    5.5590 C   0  0  0  0  0  0  0  0  0  0  0  0
    0.1905   -0.2714    5.9589 C   0  0  0  0  0  0  0  0  0  0  0  0
   -0.4981   -1.1385    5.1272 C   0  0  0  0  0  0  0  0  0  0  0  0
   -0.9442   -0.7074    3.8881 C   0  0  0  0  0  0  0  0  0  0  0  0
   -0.7018    0.5920    3.4869 C   0  0  0  0  0  0  0  0  0  0  0  0
    0.6583    4.3650    4.8848 C   0  0  0  0  0  0  0  0  0  0  0  0
    0.0933    4.3361    6.1525 C   0  0  0  0  0  0  0  0  0  0  0  0
    0.3896    5.3404    7.0559 C   0  0  0  0  0  0  0  0  0  0  0  0
    1.2352    6.3764    6.6934 C   0  0  0  0  0  0  0  0  0  0  0  0
    1.7818    6.4146    5.4211 C   0  0  0  0  0  0  0  0  0  0  0  0
    1.4901    5.4128    4.5141 C   0  0  0  0  0  0  0  0  0  0  0  0
    7.0092    1.0386   -0.8147 H   0  0  0  0  0  0  0  0  0  0  0  0
    8.5871    0.4359    1.0223 H   0  0  0  0  0  0  0  0  0  0  0  0
    7.7942    0.6598    3.3804 H   0  0  0  0  0  0  0  0  0  0  0  0
    5.5064    1.4630    3.8193 H   0  0  0  0  0  0  0  0  0  0  0  0
    4.6463    1.8962   -1.4797 H   0  0  0  0  0  0  0  0  0  0  0  0
    0.7507    1.6856    0.2381 H   0  0  0  0  0  0  0  0  0  0  0  0
   -1.0663    2.5806   -1.1598 H   0  0  0  0  0  0  0  0  0  0  0  0
    1.7715    4.8531   -3.3930 H   0  0  0  0  0  0  0  0  0  0  0  0
    3.5842    3.9860   -1.9809 H   0  0  0  0  0  0  0  0  0  0  0  0
   -0.7094    5.3672   -3.4696 H   0  0  0  0  0  0  0  0  0  0  0  0
   -0.9096    3.7716   -4.1860 H   0  0  0  0  0  0  0  0  0  0  0  0
   -1.8416    4.2081   -2.7541 H   0  0  0  0  0  0  0  0  0  0  0  0
   -2.3844    2.9315    4.9277 H   0  0  0  0  0  0  0  0  0  0  0  0
   -4.6292    3.6705    4.2233 H   0  0  0  0  0  0  0  0  0  0  0  0
   -4.9406    4.7522    2.0311 H   0  0  0  0  0  0  0  0  0  0  0  0
   -3.0049    5.1038    0.5406 H   0  0  0  0  0  0  0  0  0  0  0  0
   -0.7509    4.3633    1.2586 H   0  0  0  0  0  0  0  0  0  0  0  0
    1.0025    1.6975    6.1958 H   0  0  0  0  0  0  0  0  0  0  0  0
    0.5431   -0.6111    6.9218 H   0  0  0  0  0  0  0  0  0  0  0  0
   -0.6819   -2.1553    5.4422 H   0  0  0  0  0  0  0  0  0  0  0  0
   -1.4736   -1.3851    3.2348 H   0  0  0  0  0  0  0  0  0  0  0  0
   -1.0373    0.9458    2.5202 H   0  0  0  0  0  0  0  0  0  0  0  0
   -0.5689    3.5306    6.4343 H   0  0  0  0  0  0  0  0  0  0  0  0
   -0.0392    5.3138    8.0473 H   0  0  0  0  0  0  0  0  0  0  0  0
    1.4678    7.1547    7.4054 H   0  0  0  0  0  0  0  0  0  0  0  0
    2.4392    7.2222    5.1355 H   0  0  0  0  0  0  0  0  0  0  0  0
    1.9209    5.4230    3.5225 H   0  0  0  0  0  0  0  0  0  0  0  0
  1  6  1  0  0  0  0
  1  2  1  0  0  0  0
  3  1  1  0  0  0  0
  4  1  1  0  0  0  0
  5 28  1  0  0  0  0
  5 34  1  0  0  0  0
  6  5  1  0  0  0  0
  7  1  1  0  0  0  0
  7 13  1  0  0  0  0
  8  1  1  0  0  0  0
  9  7  1  0  0  0  0
 10  9  1  0  0  0  0
 10 11  2  0  0  0  0
 11 12  1  0  0  0  0
 12 13  2  0  0  0  0
 12 42  1  0  0  0  0
 13 43  1  0  0  0  0
 14  8  1  0  0  0  0
 14  9  2  0  0  0  0
 15 16  1  0  0  0  0
 15  8  1  0  0  0  0
 16 45  1  0  0  0  0
 17 46  1  0  0  0  0
 17 16  2  0  0  0  0
 18 17  1  0  0  0  0
 19 18  2  0  0  0  0
 19 20  1  0  0  0  0
 20 15  2  0  0  0  0
 21 51  1  0  0  0  0
 21 18  1  0  0  0  0
 22  5  1  0  0  0  0
 22 23  1  0  0  0  0
 23 52  1  0  0  0  0
 24 23  2  0  0  0  0
 24 53  1  0  0  0  0
 25 24  1  0  0  0  0
 26 27  1  0  0  0  0
 26 25  2  0  0  0  0
 27 22  2  0  0  0  0
 28 29  1  0  0  0  0
 29 30  2  0  0  0  0
 29 57  1  0  0  0  0
 30 58  1  0  0  0  0
 31 59  1  0  0  0  0
 31 30  1  0  0  0  0
 32 31  2  0  0  0  0
 33 32  1  0  0  0  0
 33 28  2  0  0  0  0
 34 35  1  0  0  0  0
 35 62  1  0  0  0  0
 35 36  2  0  0  0  0
 36 63  1  0  0  0  0
 37 36  1  0  0  0  0
 37 64  1  0  0  0  0
 38 37  2  0  0  0  0
 39 34  2  0  0  0  0
 39 38  1  0  0  0  0
 40 10  1  0  0  0  0
 41 11  1  0  0  0  0
 44 14  1  0  0  0  0
 47 19  1  0  0  0  0
 48 20  1  0  0  0  0
 49 21  1  0  0  0  0
 50 21  1  0  0  0  0
 54 25  1  0  0  0  0
 55 26  1  0  0  0  0
 56 27  1  0  0  0  0
 60 32  1  0  0  0  0
 61 33  1  0  0  0  0
 65 38  1  0  0  0  0
 66 39  1  0  0  0  0
M  END
$$$$
