CSD_code = WEMNIM | q = 1 | S = 0 | Stoichiometry = C4H16Cl2CoN4(1+) | MND = 6
 OpenBabel04212202113D

 27 28  0  0  0  0  0  0  0  0999 V2000
   10.9634    5.1282    2.1179 Co  0  0  0  0  0  0  0  0  0  0  0  0
   12.7661    6.3252    1.6457 Cl  0  0  0  0  0  0  0  0  0  0  0  0
    9.1615    3.9301    2.5896 Cl  0  0  0  0  0  0  0  0  0  0  0  0
    9.9480    6.0921    0.7452 N   0  0  0  0  0  4  0  0  0  0  0  0
   11.4250    3.8869    0.6716 N   0  0  0  0  0  4  0  0  0  0  0  0
   11.9789    4.1639    3.4904 N   0  0  0  0  0  4  0  0  0  0  0  0
   10.5019    6.3694    3.5639 N   0  0  0  0  0  4  0  0  0  0  0  0
   10.3648    5.6239   -0.5880 C   0  0  0  0  0  0  0  0  0  0  0  0
   10.5278    4.1164   -0.4742 C   0  0  0  0  0  0  0  0  0  0  0  0
   11.5672    4.6359    4.8239 C   0  0  0  0  0  0  0  0  0  0  0  0
   11.4035    6.1431    4.7069 C   0  0  0  0  0  0  0  0  0  0  0  0
    9.6357    5.8910   -1.3575 H   0  0  0  0  0  0  0  0  0  0  0  0
   10.0233    7.1095    0.7731 H   0  0  0  0  0  0  0  0  0  0  0  0
   11.3259    6.0840   -0.8295 H   0  0  0  0  0  0  0  0  0  0  0  0
    8.9627    5.8481    0.8827 H   0  0  0  0  0  0  0  0  0  0  0  0
   10.9294    3.6862   -1.3956 H   0  0  0  0  0  0  0  0  0  0  0  0
   12.3822    4.1131    0.3856 H   0  0  0  0  0  0  0  0  0  0  0  0
    9.5627    3.6541   -0.2538 H   0  0  0  0  0  0  0  0  0  0  0  0
   11.3986    2.8961    0.9147 H   0  0  0  0  0  0  0  0  0  0  0  0
   10.6073    4.1763    5.0707 H   0  0  0  0  0  0  0  0  0  0  0  0
   12.9644    4.4052    3.3498 H   0  0  0  0  0  0  0  0  0  0  0  0
   12.2995    4.3709    5.5911 H   0  0  0  0  0  0  0  0  0  0  0  0
   11.9007    3.1467    3.4646 H   0  0  0  0  0  0  0  0  0  0  0  0
   12.3676    6.6048    4.4815 H   0  0  0  0  0  0  0  0  0  0  0  0
    9.5461    6.1416    3.8531 H   0  0  0  0  0  0  0  0  0  0  0  0
   11.0054    6.5755    5.6287 H   0  0  0  0  0  0  0  0  0  0  0  0
   10.5256    7.3600    3.3196 H   0  0  0  0  0  0  0  0  0  0  0  0
  1  3  1  0  0  0  0
  1  6  1  0  0  0  0
  1  7  1  0  0  0  0
  2  1  1  0  0  0  0
  4 13  1  0  0  0  0
  4 15  1  0  0  0  0
  4  1  1  0  0  0  0
  5 19  1  0  0  0  0
  5  1  1  0  0  0  0
  6 10  1  0  0  0  0
  7 25  1  0  0  0  0
  7 11  1  0  0  0  0
  8  9  1  0  0  0  0
  8  4  1  0  0  0  0
  9 18  1  0  0  0  0
  9  5  1  0  0  0  0
 10 20  1  0  0  0  0
 10 22  1  0  0  0  0
 11 10  1  0  0  0  0
 11 26  1  0  0  0  0
 12  8  1  0  0  0  0
 14  8  1  0  0  0  0
 16  9  1  0  0  0  0
 17  5  1  0  0  0  0
 21  6  1  0  0  0  0
 23  6  1  0  0  0  0
 24 11  1  0  0  0  0
 27  7  1  0  0  0  0
M  END
$$$$
