CSD_code = WEMSEM | q = 0 | S = 0 | Stoichiometry = C30H26Cl2SiZr | MND = 12
 OpenBabel04212202113D

 60 66  0  0  1  0  0  0  0  0999 V2000
   -0.1575    3.9668    3.8822 Zr  0  0  0  0  0  0  0  0  0  0  0  0
   -0.1580    7.2779    3.8820 Si  0  0  0  0  0  0  0  0  0  0  0  0
    1.3136    2.3717    3.0226 Cl  0  0  0  0  0  0  0  0  0  0  0  0
    0.6136    5.9707    5.0273 C   0  0  1  0  0  0  0  0  0  0  0  0
   -0.1470    5.2016    5.9828 C   0  0  0  0  0  0  0  0  0  0  0  0
   -1.3589    5.4624    6.6766 C   0  0  0  0  0  0  0  0  0  0  0  0
   -1.8210    4.5684    7.5932 C   0  0  0  0  0  0  0  0  0  0  0  0
   -1.1367    3.3532    7.8899 C   0  0  0  0  0  0  0  0  0  0  0  0
   -1.6513    2.4340    8.8173 C   0  0  0  0  0  0  0  0  0  0  0  0
   -0.9902    1.2628    9.0893 C   0  0  0  0  0  0  0  0  0  0  0  0
    0.2111    0.9670    8.4415 C   0  0  0  0  0  0  0  0  0  0  0  0
    0.7445    1.8490    7.5344 C   0  0  0  0  0  0  0  0  0  0  0  0
    0.0894    3.0550    7.2431 C   0  0  0  0  0  0  0  0  0  0  0  0
    0.5888    4.0034    6.2947 C   0  0  0  0  0  0  0  0  0  0  0  0
    1.7833    4.0295    5.5314 C   0  0  0  0  0  0  0  0  0  0  0  0
    1.7932    5.2092    4.7594 C   0  0  0  0  0  0  0  0  0  0  0  0
    2.9472    5.5733    3.8686 C   0  0  0  0  0  0  0  0  0  0  0  0
    1.0508    8.4996    3.0424 C   0  0  0  0  0  0  0  0  0  0  0  0
   -1.8834    6.3927    6.5164 H   0  0  0  0  0  0  0  0  0  0  0  0
   -2.7376    4.7699    8.1294 H   0  0  0  0  0  0  0  0  0  0  0  0
   -2.5872    2.6592    9.3086 H   0  0  0  0  0  0  0  0  0  0  0  0
   -1.4008    0.5599    9.7992 H   0  0  0  0  0  0  0  0  0  0  0  0
    0.7161    0.0358    8.6521 H   0  0  0  0  0  0  0  0  0  0  0  0
    1.6658    1.6118    7.0215 H   0  0  0  0  0  0  0  0  0  0  0  0
    2.6024    3.3239    5.5905 H   0  0  0  0  0  0  0  0  0  0  0  0
    3.8855    5.3258    4.3657 H   0  0  0  0  0  0  0  0  0  0  0  0
    2.9088    5.0012    2.9356 H   0  0  0  0  0  0  0  0  0  0  0  0
    2.9529    6.6356    3.6432 H   0  0  0  0  0  0  0  0  0  0  0  0
    0.4914    9.1660    2.3940 H   0  0  0  0  0  0  0  0  0  0  0  0
    1.5342    9.1124    3.7968 H   0  0  0  0  0  0  0  0  0  0  0  0
    1.8287    8.0466    2.4421 H   0  0  0  0  0  0  0  0  0  0  0  0
   -1.6276    2.3701    4.7414 Cl  0  0  0  0  0  0  0  0  0  0  0  0
   -0.9294    5.9702    2.7371 C   0  0  1  0  0  0  0  0  0  0  0  0
   -0.1688    5.2012    1.7814 C   0  0  0  0  0  0  0  0  0  0  0  0
   -0.9045    4.0028    1.4697 C   0  0  0  0  0  0  0  0  0  0  0  0
   -2.0989    4.0288    2.2334 C   0  0  0  0  0  0  0  0  0  0  0  0
   -2.1088    5.2085    3.0054 C   0  0  0  0  0  0  0  0  0  0  0  0
   -1.3669    8.4998    4.7210 C   0  0  0  0  0  0  0  0  0  0  0  0
    1.0430    5.4620    1.0876 C   0  0  0  0  0  0  0  0  0  0  0  0
   -0.4053    3.0546    0.5211 C   0  0  0  0  0  0  0  0  0  0  0  0
   -2.9178    3.3230    2.1745 H   0  0  0  0  0  0  0  0  0  0  0  0
   -3.2626    5.5722    3.8964 C   0  0  0  0  0  0  0  0  0  0  0  0
   -0.8075    9.1666    5.3691 H   0  0  0  0  0  0  0  0  0  0  0  0
   -1.8502    9.1123    3.9664 H   0  0  0  0  0  0  0  0  0  0  0  0
   -2.1448    8.0471    5.3216 H   0  0  0  0  0  0  0  0  0  0  0  0
    1.5050    4.5681    0.1708 C   0  0  0  0  0  0  0  0  0  0  0  0
    1.5676    6.3923    1.2477 H   0  0  0  0  0  0  0  0  0  0  0  0
    0.8206    3.3529   -0.1260 C   0  0  0  0  0  0  0  0  0  0  0  0
   -1.0607    1.8487    0.2296 C   0  0  0  0  0  0  0  0  0  0  0  0
   -4.2010    5.3254    3.3992 H   0  0  0  0  0  0  0  0  0  0  0  0
   -3.2244    4.9992    4.8290 H   0  0  0  0  0  0  0  0  0  0  0  0
   -3.2680    6.6342    4.1228 H   0  0  0  0  0  0  0  0  0  0  0  0
    2.4214    4.7696   -0.3654 H   0  0  0  0  0  0  0  0  0  0  0  0
    1.3348    2.4340   -1.0538 C   0  0  0  0  0  0  0  0  0  0  0  0
   -0.5276    0.9670   -0.6780 C   0  0  0  0  0  0  0  0  0  0  0  0
   -1.9818    1.6115    0.7428 H   0  0  0  0  0  0  0  0  0  0  0  0
    0.6735    1.2629   -1.3260 C   0  0  0  0  0  0  0  0  0  0  0  0
    2.2706    2.6593   -1.5453 H   0  0  0  0  0  0  0  0  0  0  0  0
   -1.0327    0.0359   -0.8887 H   0  0  0  0  0  0  0  0  0  0  0  0
    1.0838    0.5602   -2.0364 H   0  0  0  0  0  0  0  0  0  0  0  0
  1 32  1  0  0  0  0
  1  4  1  0  0  0  0
  2 38  1  0  0  0  0
  2  4  1  0  0  0  0
  3  1  1  0  0  0  0
  4 16  1  1  0  0  0
  4  5  1  0  0  0  0
  5 14  2  0  0  0  0
  5  6  1  0  0  0  0
  6  7  2  0  0  0  0
  7  8  1  0  0  0  0
  7 20  1  0  0  0  0
  8  9  1  0  0  0  0
  9 10  2  0  0  0  0
  9 21  1  0  0  0  0
 10 22  1  0  0  0  0
 11 23  1  0  0  0  0
 11 10  1  0  0  0  0
 12 11  2  0  0  0  0
 13 12  1  0  0  0  0
 13  8  2  0  0  0  0
 14 13  1  0  0  0  0
 15 25  1  0  0  0  0
 15 14  1  0  0  0  0
 16 15  2  0  0  0  0
 17 26  1  0  0  0  0
 17 16  1  0  0  0  0
 18 30  1  0  0  0  0
 18  2  1  0  0  0  0
 19  6  1  0  0  0  0
 24 12  1  0  0  0  0
 27 17  1  0  0  0  0
 28 17  1  0  0  0  0
 29 18  1  0  0  0  0
 31 18  1  0  0  0  0
 33 34  1  6  0  0  0
 33 37  1  0  0  0  0
 33  2  1  0  0  0  0
 33  1  1  0  0  0  0
 35 34  1  0  0  0  0
 35 36  1  0  0  0  0
 36 37  2  0  0  0  0
 37 42  1  0  0  0  0
 38 45  1  0  0  0  0
 38 43  1  0  0  0  0
 39 47  1  0  0  0  0
 39 34  2  0  0  0  0
 40 35  2  0  0  0  0
 41 36  1  0  0  0  0
 42 52  1  0  0  0  0
 42 51  1  0  0  0  0
 44 38  1  0  0  0  0
 46 39  1  0  0  0  0
 48 46  2  0  0  0  0
 48 40  1  0  0  0  0
 49 40  1  0  0  0  0
 49 56  1  0  0  0  0
 50 42  1  0  0  0  0
 53 46  1  0  0  0  0
 54 48  1  0  0  0  0
 55 49  2  0  0  0  0
 57 54  2  0  0  0  0
 57 55  1  0  0  0  0
 58 54  1  0  0  0  0
 59 55  1  0  0  0  0
 60 57  1  0  0  0  0
M  END
$$$$
