CSD_code = WENDEZ | q = 0 | S = 0 | Stoichiometry = C18H32Cl2N4Ti | MND = 6
 OpenBabel04212202113D

 57 60  0  0  1  0  0  0  0  0999 V2000
   13.7055   -0.5197    8.1641 Ti  0  0  0  0  0  0  0  0  0  0  0  0
   14.3712    1.3427    9.1775 Cl  0  0  0  0  0  0  0  0  0  0  0  0
   14.9546   -1.9932    9.2628 Cl  0  0  0  0  0  0  0  0  0  0  0  0
   12.1423   -0.7793    8.7146 N   0  0  0  0  0  2  0  0  0  0  0  0
   13.6999   -1.7402    6.3466 N   0  0  1  0  0  4  0  0  0  0  0  0
   13.2989    0.5331    6.2880 N   0  0  1  0  0  4  0  0  0  0  0  0
   15.4192   -0.2529    6.7796 N   0  0  1  0  0  4  0  0  0  0  0  0
   15.1281   -1.5212    6.1533 C   0  0  0  0  0  0  0  0  0  0  0  0
   13.2844   -3.0960    6.0342 C   0  0  0  0  0  0  0  0  0  0  0  0
   12.9639   -0.7158    5.6272 C   0  0  0  0  0  0  0  0  0  0  0  0
   12.4471    1.6474    5.9123 C   0  0  0  0  0  0  0  0  0  0  0  0
   14.7175    0.8063    6.0930 C   0  0  0  0  0  0  0  0  0  0  0  0
   16.8205    0.0011    7.0413 C   0  0  0  0  0  0  0  0  0  0  0  0
   10.9440   -0.9744    9.2611 C   0  0  0  0  0  0  0  0  0  0  0  0
   10.5029   -2.2857    9.5847 C   0  0  0  0  0  0  0  0  0  0  0  0
    9.2544   -2.4641   10.1464 C   0  0  0  0  0  0  0  0  0  0  0  0
    8.4185   -1.3866   10.3918 C   0  0  0  0  0  0  0  0  0  0  0  0
    8.8448   -0.1027   10.0923 C   0  0  0  0  0  0  0  0  0  0  0  0
   10.0846    0.1248    9.5290 C   0  0  0  0  0  0  0  0  0  0  0  0
   11.4688   -3.4276    9.3772 C   0  0  0  0  0  0  0  0  0  0  0  0
   12.1743   -3.7303   10.7027 C   0  0  0  0  0  0  0  0  0  0  0  0
   10.8061   -4.6815    8.8074 C   0  0  0  0  0  0  0  0  0  0  0  0
   10.6105    1.5151    9.2630 C   0  0  0  0  0  0  0  0  0  0  0  0
    9.5692    2.4438    8.6393 C   0  0  0  0  0  0  0  0  0  0  0  0
   11.1585    2.0987   10.5690 C   0  0  0  0  0  0  0  0  0  0  0  0
   15.6811   -2.3127    6.6708 H   0  0  0  0  0  0  0  0  0  0  0  0
   15.3920   -1.5290    5.0652 H   0  0  0  0  0  0  0  0  0  0  0  0
   12.2147   -3.1969    6.2173 H   0  0  0  0  0  0  0  0  0  0  0  0
   13.8143   -3.7867    6.6907 H   0  0  0  0  0  0  0  0  0  0  0  0
   13.4988   -3.3532    4.9866 H   0  0  0  0  0  0  0  0  0  0  0  0
   13.2352   -0.6960    4.5409 H   0  0  0  0  0  0  0  0  0  0  0  0
   11.8871   -0.9031    5.7315 H   0  0  0  0  0  0  0  0  0  0  0  0
   12.7042    2.5102    6.5272 H   0  0  0  0  0  0  0  0  0  0  0  0
   12.5678    1.9084    4.8507 H   0  0  0  0  0  0  0  0  0  0  0  0
   11.4061    1.3856    6.1019 H   0  0  0  0  0  0  0  0  0  0  0  0
   14.9621    1.7641    6.5652 H   0  0  0  0  0  0  0  0  0  0  0  0
   14.9723    0.8491    5.0036 H   0  0  0  0  0  0  0  0  0  0  0  0
   16.9079    0.9283    7.6082 H   0  0  0  0  0  0  0  0  0  0  0  0
   17.2146   -0.8103    7.6538 H   0  0  0  0  0  0  0  0  0  0  0  0
   17.4099    0.0808    6.1163 H   0  0  0  0  0  0  0  0  0  0  0  0
    8.9221   -3.4583   10.4083 H   0  0  0  0  0  0  0  0  0  0  0  0
    7.4446   -1.5454   10.8318 H   0  0  0  0  0  0  0  0  0  0  0  0
    8.1954    0.7323   10.3127 H   0  0  0  0  0  0  0  0  0  0  0  0
   12.2395   -3.0733    8.6737 H   0  0  0  0  0  0  0  0  0  0  0  0
   12.9034   -4.5273   10.5720 H   0  0  0  0  0  0  0  0  0  0  0  0
   12.6966   -2.8368   11.0438 H   0  0  0  0  0  0  0  0  0  0  0  0
   11.4545   -4.0288   11.4625 H   0  0  0  0  0  0  0  0  0  0  0  0
   11.5636   -5.4117    8.5283 H   0  0  0  0  0  0  0  0  0  0  0  0
   10.1517   -5.1434    9.5424 H   0  0  0  0  0  0  0  0  0  0  0  0
   10.2138   -4.4388    7.9265 H   0  0  0  0  0  0  0  0  0  0  0  0
   11.4627    1.4104    8.5722 H   0  0  0  0  0  0  0  0  0  0  0  0
   10.0381    3.3743    8.3242 H   0  0  0  0  0  0  0  0  0  0  0  0
    8.7883    2.6887    9.3548 H   0  0  0  0  0  0  0  0  0  0  0  0
    9.1048    1.9760    7.7727 H   0  0  0  0  0  0  0  0  0  0  0  0
   11.5732    3.0901   10.3982 H   0  0  0  0  0  0  0  0  0  0  0  0
   11.9512    1.4529   10.9461 H   0  0  0  0  0  0  0  0  0  0  0  0
   10.3731    2.1668   11.3193 H   0  0  0  0  0  0  0  0  0  0  0  0
  1  4  1  0  0  0  0
  1  2  1  0  0  0  0
  1  3  1  0  0  0  0
  4 14  1  0  0  0  0
  5  9  1  1  0  0  0
  5  1  1  0  0  0  0
  6 11  1  6  0  0  0
  6  1  1  0  0  0  0
  7 13  1  1  0  0  0
  7  1  1  0  0  0  0
  8  5  1  0  0  0  0
  8 26  1  0  0  0  0
  8  7  1  0  0  0  0
  9 28  1  0  0  0  0
  9 29  1  0  0  0  0
 10 32  1  0  0  0  0
 10  6  1  0  0  0  0
 10  5  1  0  0  0  0
 11 35  1  0  0  0  0
 11 33  1  0  0  0  0
 12  6  1  0  0  0  0
 12 36  1  0  0  0  0
 12  7  1  0  0  0  0
 13 38  1  0  0  0  0
 13 39  1  0  0  0  0
 14 19  2  0  0  0  0
 14 15  1  0  0  0  0
 15 16  2  0  0  0  0
 16 17  1  0  0  0  0
 16 41  1  0  0  0  0
 17 42  1  0  0  0  0
 18 43  1  0  0  0  0
 18 17  2  0  0  0  0
 19 18  1  0  0  0  0
 20 15  1  0  0  0  0
 20 21  1  0  0  0  0
 21 46  1  0  0  0  0
 21 47  1  0  0  0  0
 22 20  1  0  0  0  0
 22 49  1  0  0  0  0
 23 19  1  0  0  0  0
 23 25  1  0  0  0  0
 24 23  1  0  0  0  0
 24 53  1  0  0  0  0
 25 56  1  0  0  0  0
 25 57  1  0  0  0  0
 27  8  1  0  0  0  0
 30  9  1  0  0  0  0
 31 10  1  0  0  0  0
 34 11  1  0  0  0  0
 37 12  1  0  0  0  0
 40 13  1  0  0  0  0
 44 20  1  0  0  0  0
 45 21  1  0  0  0  0
 48 22  1  0  0  0  0
 50 22  1  0  0  0  0
 51 23  1  0  0  0  0
 52 24  1  0  0  0  0
 54 24  1  0  0  0  0
 55 25  1  0  0  0  0
M  END
$$$$
