CSD_code = WENHAB | q = 0 | S = 0 | Stoichiometry = C30H31ClN6Pt | MND = 4
 OpenBabel04212202113D

 69 75  0  0  1  0  0  0  0  0999 V2000
    1.4846    1.2723   18.2901 Pt  0  0  1  0  0  0  0  0  0  0  0  0
    2.1675    0.4074   16.2756 Cl  0  0  0  0  0  0  0  0  0  0  0  0
    3.1687    1.1132   19.3003 N   0  0  0  0  0  0  0  0  0  0  0  0
    4.3417    0.6697   19.0342 N   0  0  0  0  0  2  0  0  0  0  0  0
    5.0768    0.7735   20.1244 N   0  0  0  0  0  0  0  0  0  0  0  0
   -0.3923    1.6806   17.8498 N   0  0  0  0  0  0  0  0  0  0  0  0
   -1.1157    1.5728   16.7970 N   0  0  0  0  0  2  0  0  0  0  0  0
   -2.3093    2.0647   17.0669 N   0  0  0  0  0  0  0  0  0  0  0  0
    0.9052    2.0054   19.9995 C   0  0  0  0  0  0  0  0  0  0  0  0
   -0.4092    2.4526   20.1278 C   0  0  2  0  0  3  0  0  0  0  0  0
   -0.8329    2.9784   21.3497 C   0  0  0  0  0  0  0  0  0  0  0  0
    0.0953    3.0279   22.3876 C   0  0  0  0  0  0  0  0  0  0  0  0
   -0.2267    3.4341   23.3370 H   0  0  0  0  0  0  0  0  0  0  0  0
    1.4126    2.5872   22.2787 C   0  0  0  0  0  0  0  0  0  0  0  0
    1.8200    2.0642   21.0501 C   0  0  0  0  0  0  0  0  0  0  0  0
   -2.2331    3.4735   21.5449 C   0  0  0  0  0  0  0  0  0  0  0  0
   -2.9474    2.6761   21.3411 H   0  0  0  0  0  0  0  0  0  0  0  0
   -2.4415    4.2960   20.8608 H   0  0  0  0  0  0  0  0  0  0  0  0
   -2.3833    3.8231   22.5632 H   0  0  0  0  0  0  0  0  0  0  0  0
    2.3520    2.6736   23.4422 C   0  0  0  0  0  0  0  0  0  0  0  0
    1.8638    3.1228   24.3033 H   0  0  0  0  0  0  0  0  0  0  0  0
    3.2220    3.2758   23.1813 H   0  0  0  0  0  0  0  0  0  0  0  0
    2.7012    1.6793   23.7199 H   0  0  0  0  0  0  0  0  0  0  0  0
    3.1007    1.5347   20.6163 C   0  0  0  0  0  0  0  0  0  0  0  0
    4.3519    1.3068   21.1408 C   0  0  0  0  0  0  0  0  0  0  0  0
    4.7595    1.4499   22.1177 H   0  0  0  0  0  0  0  0  0  0  0  0
    6.4241    0.3503   20.1547 C   0  0  0  0  0  0  0  0  0  0  0  0
    7.4225    1.2403   20.5489 C   0  0  0  0  0  0  0  0  0  0  0  0
    8.7341    0.7851   20.5770 C   0  0  0  0  0  0  0  0  0  0  0  0
    9.5149    1.4676   20.8801 H   0  0  0  0  0  0  0  0  0  0  0  0
    9.0617   -0.5114   20.2154 C   0  0  0  0  0  0  0  0  0  0  0  0
    8.0453   -1.3676   19.8087 C   0  0  0  0  0  0  0  0  0  0  0  0
    8.2932   -2.3774   19.5159 H   0  0  0  0  0  0  0  0  0  0  0  0
    6.7231   -0.9601   19.7655 C   0  0  0  0  0  0  0  0  0  0  0  0
    7.1211    2.6616   20.9214 C   0  0  0  0  0  0  0  0  0  0  0  0
    7.9855    3.2889   20.7187 H   0  0  0  0  0  0  0  0  0  0  0  0
    6.8959    2.7426   21.9854 H   0  0  0  0  0  0  0  0  0  0  0  0
    6.2733    3.0504   20.3614 H   0  0  0  0  0  0  0  0  0  0  0  0
   10.4796   -0.9912   20.2455 C   0  0  0  0  0  0  0  0  0  0  0  0
   10.5736   -1.8536   20.9040 H   0  0  0  0  0  0  0  0  0  0  0  0
   11.1500   -0.2107   20.5951 H   0  0  0  0  0  0  0  0  0  0  0  0
   10.7931   -1.2994   19.2491 H   0  0  0  0  0  0  0  0  0  0  0  0
    5.6443   -1.8962   19.3215 C   0  0  0  0  0  0  0  0  0  0  0  0
    6.0483   -2.8909   19.1561 H   0  0  0  0  0  0  0  0  0  0  0  0
    5.1937   -1.5401   18.3965 H   0  0  0  0  0  0  0  0  0  0  0  0
    4.8531   -1.9610   20.0681 H   0  0  0  0  0  0  0  0  0  0  0  0
   -1.1165    2.2650   18.8736 C   0  0  0  0  0  0  0  0  0  0  0  0
   -2.3642    2.5100   18.3484 C   0  0  0  0  0  0  0  0  0  0  0  0
   -3.2387    2.9687   18.7553 H   0  0  0  0  0  0  0  0  0  0  0  0
   -3.3317    2.1134   16.0937 C   0  0  0  0  0  0  0  0  0  0  0  0
   -3.0621    2.7337   14.8703 C   0  0  0  0  0  0  0  0  0  0  0  0
   -4.0783    2.7929   13.9293 C   0  0  0  0  0  0  0  0  0  0  0  0
   -3.8846    3.2744   12.9821 H   0  0  0  0  0  0  0  0  0  0  0  0
   -5.3316    2.2504   14.1738 C   0  0  0  0  0  0  0  0  0  0  0  0
   -5.5598    1.6230   15.3904 C   0  0  0  0  0  0  0  0  0  0  0  0
   -6.5265    1.1814   15.5852 H   0  0  0  0  0  0  0  0  0  0  0  0
   -4.5743    1.5368   16.3620 C   0  0  0  0  0  0  0  0  0  0  0  0
   -1.7185    3.3256   14.5854 C   0  0  0  0  0  0  0  0  0  0  0  0
   -1.4284    4.0280   15.3665 H   0  0  0  0  0  0  0  0  0  0  0  0
   -1.7274    3.8489   13.6334 H   0  0  0  0  0  0  0  0  0  0  0  0
   -0.9616    2.5436   14.5509 H   0  0  0  0  0  0  0  0  0  0  0  0
   -6.4157    2.3121   13.1429 C   0  0  0  0  0  0  0  0  0  0  0  0
   -6.1600    3.0088   12.3492 H   0  0  0  0  0  0  0  0  0  0  0  0
   -7.3575    2.6196   13.5934 H   0  0  0  0  0  0  0  0  0  0  0  0
   -6.5641    1.3274   12.7002 H   0  0  0  0  0  0  0  0  0  0  0  0
   -4.8586    0.8226   17.6501 C   0  0  0  0  0  0  0  0  0  0  0  0
   -5.6218    0.0646   17.4924 H   0  0  0  0  0  0  0  0  0  0  0  0
   -5.2330    1.5170   18.4030 H   0  0  0  0  0  0  0  0  0  0  0  0
   -3.9672    0.3388   18.0434 H   0  0  0  0  0  0  0  0  0  0  0  0
  1  2  1  1  0  0  0
  1  3  1  0  0  0  0
  1  9  2  0  0  0  0
  3 24  1  0  0  0  0
  4  3  1  0  0  0  0
  4  5  1  0  0  0  0
  5 27  1  0  0  0  0
  5 25  1  0  0  0  0
  6  1  1  0  0  0  0
  6 47  1  0  0  0  0
  7  8  1  0  0  0  0
  7  6  1  0  0  0  0
  8 48  1  0  0  0  0
  9 10  1  0  0  0  0
  9 15  1  0  0  0  0
 10 47  1  1  0  0  0
 10 11  1  0  0  0  0
 11 16  1  0  0  0  0
 11 12  2  0  0  0  0
 12 13  1  0  0  0  0
 14 12  1  0  0  0  0
 14 20  1  0  0  0  0
 15 14  2  0  0  0  0
 16 19  1  0  0  0  0
 17 16  1  0  0  0  0
 18 16  1  0  0  0  0
 20 23  1  0  0  0  0
 20 21  1  0  0  0  0
 22 20  1  0  0  0  0
 24 15  1  0  0  0  0
 24 25  2  0  0  0  0
 25 26  1  0  0  0  0
 27 28  1  0  0  0  0
 28 29  2  0  0  0  0
 28 35  1  0  0  0  0
 29 30  1  0  0  0  0
 31 39  1  0  0  0  0
 31 29  1  0  0  0  0
 32 31  2  0  0  0  0
 33 32  1  0  0  0  0
 34 32  1  0  0  0  0
 34 27  2  0  0  0  0
 35 37  1  0  0  0  0
 36 35  1  0  0  0  0
 38 35  1  0  0  0  0
 39 41  1  0  0  0  0
 39 40  1  0  0  0  0
 42 39  1  0  0  0  0
 43 34  1  0  0  0  0
 43 46  1  0  0  0  0
 44 43  1  0  0  0  0
 45 43  1  0  0  0  0
 48 49  1  0  0  0  0
 48 47  2  0  0  0  0
 50 57  1  0  0  0  0
 50  8  1  0  0  0  0
 51 50  2  0  0  0  0
 52 54  2  0  0  0  0
 52 51  1  0  0  0  0
 53 52  1  0  0  0  0
 54 55  1  0  0  0  0
 55 56  1  0  0  0  0
 55 57  2  0  0  0  0
 57 66  1  0  0  0  0
 58 51  1  0  0  0  0
 58 59  1  0  0  0  0
 60 58  1  0  0  0  0
 61 58  1  0  0  0  0
 62 64  1  0  0  0  0
 62 54  1  0  0  0  0
 63 62  1  0  0  0  0
 65 62  1  0  0  0  0
 66 69  1  0  0  0  0
 66 68  1  0  0  0  0
 67 66  1  0  0  0  0
M  END
$$$$
