CSD_code = WENJII | q = 0 | S = 0 | Stoichiometry = C10H17Cl2PPtS | MND = 4
 OpenBabel04212202113D

 32 32  0  0  0  0  0  0  0  0999 V2000
    2.1050    0.2849    1.1974 Pt  0  0  0  0  0  0  0  0  0  0  0  0
    3.1807    0.2672   -0.8011 Cl  0  0  0  0  0  0  0  0  0  0  0  0
    2.2260    2.5704    1.2129 Cl  0  0  0  0  0  0  0  0  0  0  0  0
    0.9805    0.3548    3.3310 S   0  0  0  0  0  3  0  0  0  0  0  0
    2.1784   -1.9967    1.2197 P   0  0  0  0  0  4  0  0  0  0  0  0
   -0.2640    1.6587    3.1293 C   0  0  0  0  0  0  0  0  0  0  0  0
    2.2055    1.2735    4.3019 C   0  0  0  0  0  0  0  0  0  0  0  0
    0.6278   -2.9289    1.5007 C   0  0  0  0  0  0  0  0  0  0  0  0
    2.9396   -2.9125   -0.1629 C   0  0  0  0  0  0  0  0  0  0  0  0
    3.2643   -2.4205    2.6158 C   0  0  0  0  0  0  0  0  0  0  0  0
    4.3428   -1.5604    2.8137 C   0  0  0  0  0  0  0  0  0  0  0  0
    5.2310   -1.7768    3.8499 C   0  0  0  0  0  0  0  0  0  0  0  0
    5.0432   -2.8537    4.7027 C   0  0  0  0  0  0  0  0  0  0  0  0
    3.9706   -3.7089    4.5135 C   0  0  0  0  0  0  0  0  0  0  0  0
    3.0815   -3.4966    3.4734 C   0  0  0  0  0  0  0  0  0  0  0  0
    4.4709   -0.7166    2.1387 H   0  0  0  0  0  0  0  0  0  0  0  0
    6.0654   -1.1074    3.9973 H   0  0  0  0  0  0  0  0  0  0  0  0
    5.7316   -3.0243    5.5170 H   0  0  0  0  0  0  0  0  0  0  0  0
    3.8244   -4.5457    5.1807 H   0  0  0  0  0  0  0  0  0  0  0  0
    2.2468   -4.1679    3.3384 H   0  0  0  0  0  0  0  0  0  0  0  0
   -0.6383    1.9322    4.1121 H   0  0  0  0  0  0  0  0  0  0  0  0
    0.1992    2.5049    2.6252 H   0  0  0  0  0  0  0  0  0  0  0  0
   -1.0663    1.2497    2.5229 H   0  0  0  0  0  0  0  0  0  0  0  0
    3.0468    0.6080    4.4738 H   0  0  0  0  0  0  0  0  0  0  0  0
    2.5166    2.1472    3.7325 H   0  0  0  0  0  0  0  0  0  0  0  0
    1.7537    1.5573    5.2487 H   0  0  0  0  0  0  0  0  0  0  0  0
    0.1850   -2.6242    2.4472 H   0  0  0  0  0  0  0  0  0  0  0  0
   -0.0623   -2.6852    0.6939 H   0  0  0  0  0  0  0  0  0  0  0  0
    0.8114   -4.0020    1.4979 H   0  0  0  0  0  0  0  0  0  0  0  0
    3.0179   -3.9702    0.0890 H   0  0  0  0  0  0  0  0  0  0  0  0
    3.9259   -2.4966   -0.3586 H   0  0  0  0  0  0  0  0  0  0  0  0
    2.3281   -2.7774   -1.0536 H   0  0  0  0  0  0  0  0  0  0  0  0
  1  3  1  0  0  0  0
  1  5  1  0  0  0  0
  1  4  1  0  0  0  0
  2  1  1  0  0  0  0
  4  7  1  0  0  0  0
  5  8  1  0  0  0  0
  5 10  1  0  0  0  0
  6  4  1  0  0  0  0
  6 21  1  0  0  0  0
  7 24  1  0  0  0  0
  7 26  1  0  0  0  0
  8 27  1  0  0  0  0
  9 30  1  0  0  0  0
  9  5  1  0  0  0  0
 10 11  2  0  0  0  0
 10 15  1  0  0  0  0
 11 12  1  0  0  0  0
 12 17  1  0  0  0  0
 12 13  2  0  0  0  0
 13 18  1  0  0  0  0
 14 13  1  0  0  0  0
 14 19  1  0  0  0  0
 15 14  2  0  0  0  0
 16 11  1  0  0  0  0
 20 15  1  0  0  0  0
 22  6  1  0  0  0  0
 23  6  1  0  0  0  0
 25  7  1  0  0  0  0
 28  8  1  0  0  0  0
 29  8  1  0  0  0  0
 31  9  1  0  0  0  0
 32  9  1  0  0  0  0
M  END
$$$$
