CSD_code = WENVUG | q = 0 | S = 0 | Stoichiometry = C12H9Cl3N3O4V | MND = 6
 OpenBabel04212202113D

 32 34  0  0  1  0  0  0  0  0999 V2000
    0.2573    2.3003    7.4665 V   0  0  0  0  0  0  0  0  0  0  0  0
    0.7685    0.5809    6.4816 Cl  0  0  0  0  0  0  0  0  0  0  0  0
   -1.6465    2.6841    6.4787 Cl  0  0  0  0  0  0  0  0  0  0  0  0
    1.4304    1.9994    9.2777 Cl  0  0  0  0  0  0  0  0  0  0  0  0
    1.0931    3.3847    6.8136 O   0  0  0  0  0  1  0  0  0  0  0  0
   -0.6955    3.6407    8.8375 N   0  0  0  0  0  0  0  0  0  0  0  0
   -0.4091    4.9302    8.8195 C   0  0  0  0  0  3  0  0  0  0  0  0
   -1.0167    5.8313    9.6841 C   0  0  0  0  0  0  0  0  0  0  0  0
   -1.9517    5.3590   10.5902 C   0  0  0  0  0  0  0  0  0  0  0  0
   -2.2478    4.0039   10.6072 C   0  0  0  0  0  0  0  0  0  0  0  0
   -1.5911    3.1688    9.7072 C   0  0  0  0  0  0  0  0  0  0  0  0
   -1.7840    1.6902    9.5832 C   0  0  1  0  0  3  0  0  0  0  0  0
   -1.1632    1.0744    8.7323 O   0  0  0  0  0  0  0  0  0  0  0  0
   -2.6574    1.1270   10.4512 N   0  0  0  0  0  0  0  0  0  0  0  0
   -3.0273   -0.2020   10.5757 C   0  0  0  0  0  0  0  0  0  0  0  0
   -2.5256   -1.1996    9.7360 C   0  0  0  0  0  0  0  0  0  0  0  0
   -2.9116   -2.5163    9.8841 C   0  0  0  0  0  0  0  0  0  0  0  0
   -3.8121   -2.8861   10.8762 C   0  0  0  0  0  0  0  0  0  0  0  0
   -4.3204   -1.9229   11.7167 C   0  0  0  0  0  0  0  0  0  0  0  0
   -3.9433   -0.5833   11.5840 C   0  0  0  0  0  0  0  0  0  0  0  0
   -4.5304    0.3333   12.5109 N   0  0  0  0  0  0  0  0  0  0  0  0
   -4.2618    1.5304   12.4182 O   0  0  0  0  0  0  0  0  0  0  0  0
   -5.2758   -0.1020   13.3557 O   0  0  0  0  0  0  0  0  0  0  0  0
    0.3285    5.2397    8.0879 H   0  0  0  0  0  0  0  0  0  0  0  0
   -0.7597    6.8776    9.6421 H   0  0  0  0  0  0  0  0  0  0  0  0
   -2.4466    6.0295   11.2758 H   0  0  0  0  0  0  0  0  0  0  0  0
   -2.9763    3.6311   11.3107 H   0  0  0  0  0  0  0  0  0  0  0  0
   -3.1283    1.7255   11.1379 H   0  0  0  0  0  0  0  0  0  0  0  0
   -5.0215   -2.1778   12.4970 H   0  0  0  0  0  0  0  0  0  0  0  0
   -4.1117   -3.9155   10.9884 H   0  0  0  0  0  0  0  0  0  0  0  0
   -2.5058   -3.2620    9.2182 H   0  0  0  0  0  0  0  0  0  0  0  0
   -1.8263   -0.9281    8.9625 H   0  0  0  0  0  0  0  0  0  0  0  0
  1 13  1  0  0  0  0
  1  6  1  0  0  0  0
  1  4  1  0  0  0  0
  2  1  1  0  0  0  0
  3  1  1  0  0  0  0
  5  1  1  0  0  0  0
  6 11  1  0  0  0  0
  7  6  1  0  0  0  0
  7  8  1  0  0  0  0
  8  9  2  0  0  0  0
  9 10  1  0  0  0  0
  9 26  1  0  0  0  0
 10 27  1  0  0  0  0
 11 10  2  0  0  0  0
 12 11  1  0  0  0  0
 12 14  1  1  0  0  0
 13 12  1  0  0  0  0
 14 15  1  0  0  0  0
 14 28  1  0  0  0  0
 15 20  1  0  0  0  0
 16 17  1  0  0  0  0
 16 15  2  0  0  0  0
 17 18  2  0  0  0  0
 18 30  1  0  0  0  0
 18 19  1  0  0  0  0
 19 29  1  0  0  0  0
 20 19  2  0  0  0  0
 20 21  1  0  0  0  0
 21 23  2  0  0  0  0
 22 21  2  0  0  0  0
 24  7  1  0  0  0  0
 25  8  1  0  0  0  0
 31 17  1  0  0  0  0
 32 16  1  0  0  0  0
M  END
$$$$
