CSD_code = WENWET | q = 0 | S = 0 | Stoichiometry = C16H11ClN3O3Re | MND = 6
 OpenBabel04212202113D

 35 38  0  0  1  0  0  0  0  0999 V2000
    7.1874    7.2175    2.6335 Re  0  0  0  0  0  0  0  0  0  0  0  0
    8.9478    5.5768    2.4208 Cl  0  0  0  0  0  0  0  0  0  0  0  0
    5.7922    8.5171    2.9914 C   0  0  0  0  0  2  0  0  0  0  0  0
    8.5990    8.5057    2.1879 C   0  0  0  0  0  2  0  0  0  0  0  0
    7.8437    7.0208    4.7388 N   0  0  0  0  0  0  0  0  0  0  0  0
    6.7626    7.0475    0.7440 C   0  0  0  0  0  2  0  0  0  0  0  0
    6.1676    5.5325    3.3825 C   0  0  1  0  0  3  0  0  0  0  0  0
    5.2764    4.6395    2.9413 N   0  0  0  0  0  0  0  0  0  0  0  0
    6.6098    5.0871    4.6055 N   0  0  0  0  0  0  0  0  0  0  0  0
    7.6040    5.8069    5.2593 C   0  0  1  0  0  3  0  0  0  0  0  0
    5.1234    3.6167    3.8537 C   0  0  0  0  0  0  0  0  0  0  0  0
    8.7452    7.7999    5.3275 C   0  0  0  0  0  0  0  0  0  0  0  0
    8.8902    8.7780    4.8878 H   0  0  0  0  0  0  0  0  0  0  0  0
    9.5303    9.1231    1.9625 O   0  0  0  0  0  1  0  0  0  0  0  0
    4.3153    2.4922    3.8253 C   0  0  0  0  0  0  0  0  0  0  0  0
    3.6880    2.2737    2.9762 H   0  0  0  0  0  0  0  0  0  0  0  0
    5.9519    3.0852    6.0622 C   0  0  0  0  0  0  0  0  0  0  0  0
    6.5258    3.2963    6.9484 H   0  0  0  0  0  0  0  0  0  0  0  0
    5.9645    3.9061    4.9439 C   0  0  0  0  0  0  0  0  0  0  0  0
    6.5818    6.8793   -0.3775 O   0  0  0  0  0  1  0  0  0  0  0  0
    4.5472    4.7167    1.7052 C   0  0  0  0  0  0  0  0  0  0  0  0
    4.6498    5.7215    1.2972 H   0  0  0  0  0  0  0  0  0  0  0  0
    3.4935    4.5048    1.8884 H   0  0  0  0  0  0  0  0  0  0  0  0
    4.9399    3.9961    0.9855 H   0  0  0  0  0  0  0  0  0  0  0  0
    9.2816    6.1263    6.9284 C   0  0  0  0  0  0  0  0  0  0  0  0
    9.8681    5.7582    7.7560 H   0  0  0  0  0  0  0  0  0  0  0  0
    9.4743    7.4073    6.4335 C   0  0  0  0  0  0  0  0  0  0  0  0
   10.1962    8.0761    6.8723 H   0  0  0  0  0  0  0  0  0  0  0  0
    4.9604    9.2766    3.2328 O   0  0  0  0  0  1  0  0  0  0  0  0
    8.3304    5.3153    6.3393 C   0  0  0  0  0  0  0  0  0  0  0  0
    8.1934    4.3046    6.6785 H   0  0  0  0  0  0  0  0  0  0  0  0
    4.3435    1.6641    4.9311 C   0  0  0  0  0  0  0  0  0  0  0  0
    3.7310    0.7764    4.9477 H   0  0  0  0  0  0  0  0  0  0  0  0
    5.1376    1.9666    6.0320 C   0  0  0  0  0  0  0  0  0  0  0  0
    5.1183    1.3135    6.8907 H   0  0  0  0  0  0  0  0  0  0  0  0
  1  3  1  0  0  0  0
  1  7  1  0  0  0  0
  1  5  1  0  0  0  0
  2  1  1  0  0  0  0
  3 29  1  0  0  0  0
  4  1  1  0  0  0  0
  5 10  1  0  0  0  0
  5 12  1  0  0  0  0
  6  1  1  0  0  0  0
  7  8  1  6  0  0  0
  7  9  1  0  0  0  0
  8 11  1  0  0  0  0
  9 19  1  0  0  0  0
  9 10  1  0  0  0  0
 10 30  1  6  0  0  0
 11 19  1  0  0  0  0
 12 27  2  0  0  0  0
 13 12  1  0  0  0  0
 14  4  1  0  0  0  0
 15 11  2  0  0  0  0
 15 32  1  0  0  0  0
 16 15  1  0  0  0  0
 17 18  1  0  0  0  0
 19 17  2  0  0  0  0
 20  6  1  0  0  0  0
 21 23  1  0  0  0  0
 21  8  1  0  0  0  0
 22 21  1  0  0  0  0
 24 21  1  0  0  0  0
 25 26  1  0  0  0  0
 27 28  1  0  0  0  0
 27 25  1  0  0  0  0
 30 31  1  0  0  0  0
 30 25  2  0  0  0  0
 32 33  1  0  0  0  0
 32 34  2  0  0  0  0
 34 17  1  0  0  0  0
 34 35  1  0  0  0  0
M  END
$$$$
