CSD_code = WENWAP | q = 0 | S = 0 | Stoichiometry = C25H23Br2FeN3 | MND = 5
 OpenBabel04212202113D

 54 59  0  0  1  0  0  0  0  0999 V2000
    7.3636    2.1714    9.2224 Fe  0  0  0  0  0  0  0  0  0  0  0  0
    5.7842    0.8105   10.1754 Br  0  0  0  0  0  0  0  0  0  0  0  0
    8.5213    3.5935    7.8371 Br  0  0  0  0  0  0  0  0  0  0  0  0
    7.8130    0.7185    8.0318 N   0  0  0  0  0  0  0  0  0  0  0  0
    5.9192    1.1645    6.6183 C   0  0  0  0  0  0  0  0  0  0  0  0
    5.0662    0.7105    7.1247 H   0  0  0  0  0  0  0  0  0  0  0  0
    5.7239    1.1806    5.5500 H   0  0  0  0  0  0  0  0  0  0  0  0
    6.0139    2.1926    6.9823 H   0  0  0  0  0  0  0  0  0  0  0  0
    7.1507    0.3774    6.9289 C   0  0  2  0  0  3  0  0  0  0  0  0
    7.5777   -0.6791    6.1375 C   0  0  0  0  0  0  0  0  0  0  0  0
    7.0282   -0.9341    5.2455 H   0  0  0  0  0  0  0  0  0  0  0  0
    8.7075   -1.3962    6.5072 C   0  0  0  0  0  0  0  0  0  0  0  0
    9.0533   -2.2190    5.9007 H   0  0  0  0  0  0  0  0  0  0  0  0
    9.3807   -1.0471    7.6621 C   0  0  0  0  0  0  0  0  0  0  0  0
   10.2567   -1.5874    7.9807 H   0  0  0  0  0  0  0  0  0  0  0  0
    8.9079    0.0239    8.4140 C   0  0  0  0  0  0  0  0  0  0  0  0
    8.7779    1.5790   10.1244 N   0  0  0  0  0  0  0  0  0  0  0  0
    9.4804    0.5256    9.6497 C   0  0  1  0  0  3  0  0  0  0  0  0
   10.5957    0.0534   10.3284 C   0  0  0  0  0  0  0  0  0  0  0  0
   11.1497   -0.7875    9.9448 H   0  0  0  0  0  0  0  0  0  0  0  0
   10.9837    0.6808   11.5037 C   0  0  0  0  0  0  0  0  0  0  0  0
   11.8462    0.3275   12.0462 H   0  0  0  0  0  0  0  0  0  0  0  0
   10.2613    1.7665   11.9768 C   0  0  0  0  0  0  0  0  0  0  0  0
   10.5551    2.2664   12.8851 H   0  0  0  0  0  0  0  0  0  0  0  0
    9.1529    2.2032   11.2623 C   0  0  0  0  0  0  0  0  0  0  0  0
    7.2797    3.4768   10.6694 N   0  0  0  0  0  0  0  0  0  0  0  0
    8.2748    3.3156   11.5746 C   0  0  2  0  0  3  0  0  0  0  0  0
    8.4013    4.1603   12.6743 C   0  0  0  0  0  0  0  0  0  0  0  0
    9.2031    4.0100   13.3783 H   0  0  0  0  0  0  0  0  0  0  0  0
    7.4908    5.1851   12.8432 C   0  0  0  0  0  0  0  0  0  0  0  0
    7.5693    5.8555   13.6852 H   0  0  0  0  0  0  0  0  0  0  0  0
    6.4708    5.3371   11.9140 C   0  0  0  0  0  0  0  0  0  0  0  0
    5.7357    6.1201   12.0093 H   0  0  0  0  0  0  0  0  0  0  0  0
    6.3939    4.4626   10.8399 C   0  0  0  0  0  0  0  0  0  0  0  0
    5.3152    4.5593    9.8242 C   0  0  0  0  0  0  0  0  0  0  0  0
    5.4944    5.3417    8.6800 C   0  0  0  0  0  0  0  0  0  0  0  0
    4.5239    5.3083    7.6873 C   0  0  0  0  0  0  0  0  0  0  0  0
    4.6762    5.8948    6.7926 H   0  0  0  0  0  0  0  0  0  0  0  0
    3.3734    4.5472    7.8228 C   0  0  0  0  0  0  0  0  0  0  0  0
    3.1657    3.8686    9.0155 C   0  0  0  0  0  0  0  0  0  0  0  0
    2.2468    3.3200    9.1640 H   0  0  0  0  0  0  0  0  0  0  0  0
    4.1120    3.8750   10.0290 C   0  0  0  0  0  0  0  0  0  0  0  0
    6.6518    6.2831    8.5391 C   0  0  0  0  0  0  0  0  0  0  0  0
    7.0672    6.2394    7.5357 H   0  0  0  0  0  0  0  0  0  0  0  0
    7.4450    6.0647    9.2475 H   0  0  0  0  0  0  0  0  0  0  0  0
    6.3035    7.3017    8.7171 H   0  0  0  0  0  0  0  0  0  0  0  0
    2.3436    4.5024    6.7348 C   0  0  0  0  0  0  0  0  0  0  0  0
    1.5238    5.1824    6.9677 H   0  0  0  0  0  0  0  0  0  0  0  0
    1.9291    3.5009    6.6396 H   0  0  0  0  0  0  0  0  0  0  0  0
    2.7722    4.8009    5.7812 H   0  0  0  0  0  0  0  0  0  0  0  0
    3.7861    3.2265   11.3402 C   0  0  0  0  0  0  0  0  0  0  0  0
    4.6724    3.0522   11.9424 H   0  0  0  0  0  0  0  0  0  0  0  0
    3.2864    2.2742   11.1843 H   0  0  0  0  0  0  0  0  0  0  0  0
    3.1128    3.8768   11.9011 H   0  0  0  0  0  0  0  0  0  0  0  0
  1 17  1  0  0  0  0
  1  2  1  0  0  0  0
  1 26  1  0  0  0  0
  3  1  1  0  0  0  0
  4 16  1  0  0  0  0
  4  1  1  0  0  0  0
  5  8  1  0  0  0  0
  5  6  1  0  0  0  0
  7  5  1  0  0  0  0
  9  5  1  1  0  0  0
  9  4  1  0  0  0  0
 10 12  2  0  0  0  0
 10  9  1  0  0  0  0
 11 10  1  0  0  0  0
 12 14  1  0  0  0  0
 13 12  1  0  0  0  0
 14 15  1  0  0  0  0
 14 16  2  0  0  0  0
 17 25  1  0  0  0  0
 18 16  1  1  0  0  0
 18 17  1  0  0  0  0
 18 19  1  0  0  0  0
 19 21  2  0  0  0  0
 20 19  1  0  0  0  0
 21 23  1  0  0  0  0
 21 22  1  0  0  0  0
 23 24  1  0  0  0  0
 25 23  2  0  0  0  0
 26 34  1  0  0  0  0
 26 27  1  0  0  0  0
 27 25  1  6  0  0  0
 27 28  1  0  0  0  0
 28 30  2  0  0  0  0
 28 29  1  0  0  0  0
 30 31  1  0  0  0  0
 32 33  1  0  0  0  0
 32 30  1  0  0  0  0
 34 32  2  0  0  0  0
 35 42  1  0  0  0  0
 35 34  1  0  0  0  0
 36 35  2  0  0  0  0
 37 39  2  0  0  0  0
 37 36  1  0  0  0  0
 38 37  1  0  0  0  0
 39 40  1  0  0  0  0
 40 41  1  0  0  0  0
 40 42  2  0  0  0  0
 42 51  1  0  0  0  0
 43 36  1  0  0  0  0
 43 46  1  0  0  0  0
 43 45  1  0  0  0  0
 44 43  1  0  0  0  0
 47 48  1  0  0  0  0
 47 39  1  0  0  0  0
 49 47  1  0  0  0  0
 50 47  1  0  0  0  0
 51 54  1  0  0  0  0
 51 52  1  0  0  0  0
 53 51  1  0  0  0  0
M  END
$$$$
