CSD_code = WEPQAM | q = 0 | S = 0 | Stoichiometry = C35H25Cl2N5Ni | MND = 5
 OpenBabel04212202113D

 68 76  0  0  1  0  0  0  0  0999 V2000
    8.5811   10.5587    7.2750 Ni  0  0  0  0  0  0  0  0  0  0  0  0
    8.1793   12.6278    7.5758 Cl  0  0  0  0  0  0  0  0  0  0  0  0
    9.1049    8.5421    7.2614 Cl  0  0  0  0  0  0  0  0  0  0  0  0
    7.5857   10.7491    5.2561 N   0  0  0  0  0  0  0  0  0  0  0  0
    9.6699   11.3334    4.6378 N   0  0  1  0  0  0  0  0  0  0  0  0
   10.0537   11.0265    5.8902 N   0  0  0  0  0  0  0  0  0  0  0  0
    5.7554   10.2517    6.4698 N   0  0  0  0  0  0  0  0  0  0  0  0
    6.5723   10.1011    7.5280 N   0  0  0  0  0  0  0  0  0  0  0  0
    8.3013   11.4476    4.3893 C   0  0  2  0  0  3  0  0  0  0  0  0
    7.6944   12.2713    3.4472 C   0  0  0  0  0  0  0  0  0  0  0  0
    8.2696   12.8539    2.7480 H   0  0  0  0  0  0  0  0  0  0  0  0
    6.3085   12.3485    3.4753 C   0  0  0  0  0  0  0  0  0  0  0  0
    5.8007   12.9848    2.7668 H   0  0  0  0  0  0  0  0  0  0  0  0
    5.5678   11.6774    4.4385 C   0  0  0  0  0  0  0  0  0  0  0  0
    4.5000   11.7992    4.5050 H   0  0  0  0  0  0  0  0  0  0  0  0
    6.2721   10.8829    5.3371 C   0  0  0  0  0  0  0  0  0  0  0  0
   10.7571   11.5854    3.8542 C   0  0  1  0  0  3  0  0  0  0  0  0
   11.8639   11.4258    4.6572 C   0  0  0  0  0  0  0  0  0  0  0  0
   12.8857   11.5432    4.3603 H   0  0  0  0  0  0  0  0  0  0  0  0
   11.3746   11.0711    5.9337 C   0  0  0  0  0  0  0  0  0  0  0  0
   12.1185   10.7715    7.1479 C   0  0  0  0  0  0  0  0  0  0  0  0
   11.4700   10.7740    8.3827 C   0  0  0  0  0  0  0  0  0  0  0  0
   10.4120   11.0447    8.4357 H   0  0  0  0  0  0  0  0  0  0  0  0
   12.1582   10.4582    9.5364 C   0  0  0  0  0  0  0  0  0  0  0  0
   11.6469   10.4586   10.4873 H   0  0  0  0  0  0  0  0  0  0  0  0
   13.5061   10.1420    9.4757 C   0  0  0  0  0  0  0  0  0  0  0  0
   14.0449    9.8930   10.3780 H   0  0  0  0  0  0  0  0  0  0  0  0
   14.1613   10.1443    8.2554 C   0  0  0  0  0  0  0  0  0  0  0  0
   15.2115    9.8958    8.2061 H   0  0  0  0  0  0  0  0  0  0  0  0
   13.4753   10.4560    7.0969 C   0  0  0  0  0  0  0  0  0  0  0  0
   13.9885   10.4366    6.1474 H   0  0  0  0  0  0  0  0  0  0  0  0
   10.7056   11.8542    2.4217 C   0  0  0  0  0  0  0  0  0  0  0  0
    9.9037   11.0848    1.5797 C   0  0  0  0  0  0  0  0  0  0  0  0
    9.3002   10.2904    1.9945 H   0  0  0  0  0  0  0  0  0  0  0  0
    9.8959   11.3244    0.2187 C   0  0  0  0  0  0  0  0  0  0  0  0
    9.2745   10.7220   -0.4270 H   0  0  0  0  0  0  0  0  0  0  0  0
   10.6858   12.3287   -0.3175 C   0  0  0  0  0  0  0  0  0  0  0  0
   10.6756   12.5146   -1.3809 H   0  0  0  0  0  0  0  0  0  0  0  0
   11.4931   13.0889    0.5124 C   0  0  0  0  0  0  0  0  0  0  0  0
   12.1134   13.8690    0.0969 H   0  0  0  0  0  0  0  0  0  0  0  0
   11.5087   12.8518    1.8745 C   0  0  0  0  0  0  0  0  0  0  0  0
   12.1319   13.4463    2.5255 H   0  0  0  0  0  0  0  0  0  0  0  0
    4.4922    9.8428    6.7795 C   0  0  2  0  0  3  0  0  0  0  0  0
    4.5276    9.4219    8.0898 C   0  0  0  0  0  0  0  0  0  0  0  0
    3.7053    9.0304    8.6522 H   0  0  0  0  0  0  0  0  0  0  0  0
    5.8599    9.6005    8.5239 C   0  0  0  0  0  0  0  0  0  0  0  0
    6.4428    9.3088    9.8249 C   0  0  0  0  0  0  0  0  0  0  0  0
    5.7727    8.5063   10.7471 C   0  0  0  0  0  0  0  0  0  0  0  0
    4.8079    8.0905   10.4992 H   0  0  0  0  0  0  0  0  0  0  0  0
    6.3472    8.2233   11.9716 C   0  0  0  0  0  0  0  0  0  0  0  0
    5.8221    7.5969   12.6781 H   0  0  0  0  0  0  0  0  0  0  0  0
    7.5938    8.7342   12.2931 C   0  0  0  0  0  0  0  0  0  0  0  0
    8.0406    8.5079   13.2500 H   0  0  0  0  0  0  0  0  0  0  0  0
    8.2666    9.5349   11.3838 C   0  0  0  0  0  0  0  0  0  0  0  0
    9.2371    9.9364   11.6339 H   0  0  0  0  0  0  0  0  0  0  0  0
    7.6954    9.8223   10.1609 C   0  0  0  0  0  0  0  0  0  0  0  0
    8.2205   10.4699    9.4536 H   0  0  0  0  0  0  0  0  0  0  0  0
    3.3884    9.7719    5.8297 C   0  0  0  0  0  0  0  0  0  0  0  0
    2.1093   10.1606    6.2208 C   0  0  0  0  0  0  0  0  0  0  0  0
    1.9560   10.5530    7.2149 H   0  0  0  0  0  0  0  0  0  0  0  0
    1.0506   10.0605    5.3372 C   0  0  0  0  0  0  0  0  0  0  0  0
    0.0634   10.3701    5.6462 H   0  0  0  0  0  0  0  0  0  0  0  0
    1.2539    9.5642    4.0602 C   0  0  0  0  0  0  0  0  0  0  0  0
    0.4259    9.4858    3.3719 H   0  0  0  0  0  0  0  0  0  0  0  0
    2.5210    9.1614    3.6698 C   0  0  0  0  0  0  0  0  0  0  0  0
    2.6805    8.7622    2.6792 H   0  0  0  0  0  0  0  0  0  0  0  0
    3.5841    9.2619    4.5468 C   0  0  0  0  0  0  0  0  0  0  0  0
    4.5677    8.9301    4.2472 H   0  0  0  0  0  0  0  0  0  0  0  0
  1  8  1  0  0  0  0
  1  2  1  0  0  0  0
  3  1  1  0  0  0  0
  4 16  1  0  0  0  0
  4  1  1  0  0  0  0
  5  6  1  1  0  0  0
  6 20  1  0  0  0  0
  6  1  1  0  0  0  0
  7 43  1  0  0  0  0
  7  8  1  0  0  0  0
  8 46  1  0  0  0  0
  9 10  1  1  0  0  0
  9  5  1  0  0  0  0
  9  4  1  0  0  0  0
 10 12  2  0  0  0  0
 11 10  1  0  0  0  0
 12 14  1  0  0  0  0
 13 12  1  0  0  0  0
 14 15  1  0  0  0  0
 14 16  2  0  0  0  0
 16  7  1  0  0  0  0
 17 32  1  6  0  0  0
 17  5  1  0  0  0  0
 17 18  1  0  0  0  0
 18 20  2  0  0  0  0
 19 18  1  0  0  0  0
 20 21  1  0  0  0  0
 21 22  1  0  0  0  0
 22 23  1  0  0  0  0
 22 24  2  0  0  0  0
 24 25  1  0  0  0  0
 26 24  1  0  0  0  0
 26 27  1  0  0  0  0
 28 26  2  0  0  0  0
 29 28  1  0  0  0  0
 30 21  2  0  0  0  0
 30 28  1  0  0  0  0
 31 30  1  0  0  0  0
 33 34  1  0  0  0  0
 33 32  2  0  0  0  0
 35 33  1  0  0  0  0
 36 35  1  0  0  0  0
 37 35  2  0  0  0  0
 37 39  1  0  0  0  0
 38 37  1  0  0  0  0
 39 41  2  0  0  0  0
 40 39  1  0  0  0  0
 41 32  1  0  0  0  0
 41 42  1  0  0  0  0
 43 58  1  6  0  0  0
 43 44  1  0  0  0  0
 44 46  2  0  0  0  0
 44 45  1  0  0  0  0
 46 47  1  0  0  0  0
 47 56  2  0  0  0  0
 47 48  1  0  0  0  0
 48 50  2  0  0  0  0
 49 48  1  0  0  0  0
 50 52  1  0  0  0  0
 50 51  1  0  0  0  0
 52 53  1  0  0  0  0
 54 55  1  0  0  0  0
 54 52  2  0  0  0  0
 56 54  1  0  0  0  0
 57 56  1  0  0  0  0
 58 59  1  0  0  0  0
 59 60  1  0  0  0  0
 61 62  1  0  0  0  0
 61 59  2  0  0  0  0
 63 61  1  0  0  0  0
 64 63  1  0  0  0  0
 65 63  2  0  0  0  0
 65 67  1  0  0  0  0
 66 65  1  0  0  0  0
 67 58  2  0  0  0  0
 68 67  1  0  0  0  0
M  END
$$$$
