CSD_code = WEPYUO | q = 0 | S = 0 | Stoichiometry = C16H28Cl2N8O4Pd | MND = 4
 OpenBabel04212202113D

 59 60  0  0  1  0  0  0  0  0999 V2000
    6.5988    8.5471    4.5135 Pd  0  0  0  0  0  0  0  0  0  0  0  0
    4.3292    8.3844    4.2864 Cl  0  0  0  0  0  0  0  0  0  0  0  0
    8.8698    8.7142    4.7480 Cl  0  0  0  0  0  0  0  0  0  0  0  0
    5.3182   10.4147    7.7742 N   0  0  0  0  0  0  0  0  0  0  0  0
    7.9780    6.7354    1.2727 N   0  0  0  0  0  0  0  0  0  0  0  0
    6.9577    7.3921    3.0251 N   0  0  0  0  0  0  0  0  0  0  0  0
    7.5208    7.8320    1.9117 C   0  0  1  0  0  3  0  0  0  0  0  0
    7.6670    5.6681    2.0168 N   0  0  0  0  0  0  0  0  0  0  0  0
    6.2508    9.7084    5.9932 N   0  0  0  0  0  0  0  0  0  0  0  0
    5.7192    9.2975    7.1325 C   0  0  2  0  0  3  0  0  0  0  0  0
    5.6298   11.4639    7.0046 N   0  0  0  0  0  0  0  0  0  0  0  0
    7.0707    6.0768    3.0524 N   0  0  0  0  0  0  0  0  0  0  0  0
    6.1741   11.0259    5.9525 N   0  0  0  0  0  0  0  0  0  0  0  0
    6.5806    9.5049   10.0886 O   0  0  0  0  0  0  0  0  0  0  0  0
    6.7679    7.5987   -1.0633 O   0  0  0  0  0  0  0  0  0  0  0  0
    5.6408   10.2429   10.1949 C   0  0  0  0  0  0  0  0  0  0  0  0
    5.5971    7.8858    7.5444 C   0  0  0  0  0  0  0  0  0  0  0  0
    6.0462    7.7364    8.5251 H   0  0  0  0  0  0  0  0  0  0  0  0
    6.1154    7.2630    6.7936 H   0  0  0  0  0  0  0  0  0  0  0  0
    4.5468    7.5934    7.5737 H   0  0  0  0  0  0  0  0  0  0  0  0
    4.6832   10.5783    9.0443 C   0  0  0  0  0  0  0  0  0  0  0  0
    3.8134    9.9166    9.1164 H   0  0  0  0  0  0  0  0  0  0  0  0
    4.3571   11.6166    9.1280 H   0  0  0  0  0  0  0  0  0  0  0  0
    7.7749    6.9539   -1.1587 C   0  0  0  0  0  0  0  0  0  0  0  0
    8.6782    6.6107    0.0335 C   0  0  0  0  0  0  0  0  0  0  0  0
    9.0275    5.5800   -0.0539 H   0  0  0  0  0  0  0  0  0  0  0  0
    9.5402    7.2861    0.0189 H   0  0  0  0  0  0  0  0  0  0  0  0
    7.6158    9.2501    1.5144 C   0  0  0  0  0  0  0  0  0  0  0  0
    8.6591    9.5668    1.4990 H   0  0  0  0  0  0  0  0  0  0  0  0
    7.0737    9.8554    2.2631 H   0  0  0  0  0  0  0  0  0  0  0  0
    7.1749    9.3967    0.5294 H   0  0  0  0  0  0  0  0  0  0  0  0
    5.2659   10.8601   11.3000 O   0  0  0  0  0  0  0  0  0  0  0  0
    6.0586   10.6225   12.4730 C   0  0  0  0  0  0  0  0  0  0  0  0
    7.1001   10.8768   12.2502 H   0  0  0  0  0  0  0  0  0  0  0  0
    6.0139    9.5557   12.7175 H   0  0  0  0  0  0  0  0  0  0  0  0
    8.2960    6.4670   -2.2695 O   0  0  0  0  0  0  0  0  0  0  0  0
    7.5833    6.6671   -3.4989 C   0  0  0  0  0  0  0  0  0  0  0  0
    8.3269    7.0151   -4.2198 H   0  0  0  0  0  0  0  0  0  0  0  0
    6.8234    7.4387   -3.3442 H   0  0  0  0  0  0  0  0  0  0  0  0
    6.9436    5.3637   -3.9659 C   0  0  0  0  0  0  0  0  0  0  0  0
    7.7172    4.5972   -4.0426 H   0  0  0  0  0  0  0  0  0  0  0  0
    6.5326    5.5337   -4.9624 H   0  0  0  0  0  0  0  0  0  0  0  0
    5.5090   11.4739   13.6062 C   0  0  0  0  0  0  0  0  0  0  0  0
    4.4637   11.2084   13.7733 H   0  0  0  0  0  0  0  0  0  0  0  0
    5.5441   12.5231   13.3089 H   0  0  0  0  0  0  0  0  0  0  0  0
    5.7553   12.1224   16.0290 C   0  0  0  0  0  0  0  0  0  0  0  0
    5.7961   13.1780   15.7714 H   0  0  0  0  0  0  0  0  0  0  0  0
    6.3350   11.9677   16.9352 H   0  0  0  0  0  0  0  0  0  0  0  0
    4.7202   11.8598   16.2345 H   0  0  0  0  0  0  0  0  0  0  0  0
    6.3078   11.2723   14.8919 C   0  0  0  0  0  0  0  0  0  0  0  0
    7.3520   11.5363   14.7136 H   0  0  0  0  0  0  0  0  0  0  0  0
    6.2761   10.2185   15.1761 H   0  0  0  0  0  0  0  0  0  0  0  0
    5.8358    4.8859   -3.0283 C   0  0  0  0  0  0  0  0  0  0  0  0
    6.2558    4.6745   -2.0424 H   0  0  0  0  0  0  0  0  0  0  0  0
    5.0950    5.6793   -2.9094 H   0  0  0  0  0  0  0  0  0  0  0  0
    5.1584    3.6310   -3.5630 C   0  0  0  0  0  0  0  0  0  0  0  0
    4.7060    3.8251   -4.5329 H   0  0  0  0  0  0  0  0  0  0  0  0
    4.3798    3.3012   -2.8805 H   0  0  0  0  0  0  0  0  0  0  0  0
    5.8801    2.8250   -3.6763 H   0  0  0  0  0  0  0  0  0  0  0  0
  1  3  1  0  0  0  0
  1  9  1  0  0  0  0
  2  1  1  0  0  0  0
  4 21  1  0  0  0  0
  5  7  1  0  0  0  0
  5  8  1  0  0  0  0
  6 12  1  0  0  0  0
  6  1  1  0  0  0  0
  7 28  1  1  0  0  0
  7  6  1  0  0  0  0
  8 12  2  0  0  0  0
  9 10  1  0  0  0  0
 10 17  1  6  0  0  0
 10  4  1  0  0  0  0
 11  4  1  0  0  0  0
 13  9  1  0  0  0  0
 13 11  2  0  0  0  0
 14 16  2  0  0  0  0
 16 32  1  0  0  0  0
 17 20  1  0  0  0  0
 17 18  1  0  0  0  0
 19 17  1  0  0  0  0
 21 22  1  0  0  0  0
 21 23  1  0  0  0  0
 21 16  1  0  0  0  0
 24 15  2  0  0  0  0
 24 25  1  0  0  0  0
 25  5  1  0  0  0  0
 26 25  1  0  0  0  0
 27 25  1  0  0  0  0
 28 30  1  0  0  0  0
 29 28  1  0  0  0  0
 31 28  1  0  0  0  0
 32 33  1  0  0  0  0
 33 35  1  0  0  0  0
 33 43  1  0  0  0  0
 34 33  1  0  0  0  0
 36 24  1  0  0  0  0
 37 39  1  0  0  0  0
 37 36  1  0  0  0  0
 38 37  1  0  0  0  0
 40 37  1  0  0  0  0
 40 53  1  0  0  0  0
 41 40  1  0  0  0  0
 42 40  1  0  0  0  0
 43 44  1  0  0  0  0
 43 50  1  0  0  0  0
 45 43  1  0  0  0  0
 46 49  1  0  0  0  0
 46 48  1  0  0  0  0
 47 46  1  0  0  0  0
 50 52  1  0  0  0  0
 50 46  1  0  0  0  0
 51 50  1  0  0  0  0
 53 55  1  0  0  0  0
 53 54  1  0  0  0  0
 56 53  1  0  0  0  0
 56 58  1  0  0  0  0
 57 56  1  0  0  0  0
 59 56  1  0  0  0  0
M  END
$$$$
