CSD_code = WEPYOI | q = 0 | S = 0 | Stoichiometry = C24H18Br4N4Ni | MND = 6
 OpenBabel04212202113D

 51 56  0  0  0  0  0  0  0  0999 V2000
    4.2574    1.9737   11.5908 Ni  0  0  0  0  0  0  0  0  0  0  0  0
    0.7738    3.0276   13.9713 Br  0  0  0  0  0  0  0  0  0  0  0  0
    5.5904   -0.7007   15.0117 Br  0  0  0  0  0  0  0  0  0  0  0  0
    5.0886    2.9718    9.7228 Br  0  0  0  0  0  0  0  0  0  0  0  0
    6.0008    0.5409   11.5648 Br  0  0  0  0  0  0  0  0  0  0  0  0
    2.6135    3.0881   11.4305 N   0  0  0  0  0  0  0  0  0  0  0  0
    2.8510    0.6487   10.3537 N   0  0  0  0  0  0  0  0  0  0  0  0
    3.7149    1.2363   13.3839 N   0  0  0  0  0  0  0  0  0  0  0  0
    5.1892    3.4691   13.0812 N   0  0  0  0  0  0  0  0  0  0  0  0
    1.6403    2.6395   10.7342 C   0  0  0  0  0  0  0  0  0  0  0  0
    0.7233    3.2139   10.5959 H   0  0  0  0  0  0  0  0  0  0  0  0
    1.7662    1.3744   10.0402 C   0  0  0  0  0  0  0  0  0  0  0  0
    0.8429    0.9616    9.0811 C   0  0  0  0  0  0  0  0  0  0  0  0
   -0.0139    1.5768    8.8525 H   0  0  0  0  0  0  0  0  0  0  0  0
    1.0634   -0.2378    8.4274 C   0  0  0  0  0  0  0  0  0  0  0  0
    0.3685   -0.5882    7.6788 H   0  0  0  0  0  0  0  0  0  0  0  0
    2.1931   -0.9759    8.7470 C   0  0  0  0  0  0  0  0  0  0  0  0
    2.4014   -1.9140    8.2584 H   0  0  0  0  0  0  0  0  0  0  0  0
    3.0596   -0.4889    9.7171 C   0  0  0  0  0  0  0  0  0  0  0  0
    3.9543   -1.0319    9.9938 H   0  0  0  0  0  0  0  0  0  0  0  0
    2.5369    4.3136   12.0889 C   0  0  0  0  0  0  0  0  0  0  0  0
    1.8216    4.4719   13.2764 C   0  0  0  0  0  0  0  0  0  0  0  0
    1.8531    5.6610   13.9826 C   0  0  0  0  0  0  0  0  0  0  0  0
    1.3009    5.7460   14.9061 H   0  0  0  0  0  0  0  0  0  0  0  0
    2.5819    6.7295   13.4937 C   0  0  0  0  0  0  0  0  0  0  0  0
    2.6058    7.6560   14.0457 H   0  0  0  0  0  0  0  0  0  0  0  0
    3.2656    6.6042   12.2946 C   0  0  0  0  0  0  0  0  0  0  0  0
    3.8220    7.4386   11.8973 H   0  0  0  0  0  0  0  0  0  0  0  0
    3.2460    5.4125   11.5990 C   0  0  0  0  0  0  0  0  0  0  0  0
    3.7886    5.3015   10.6724 H   0  0  0  0  0  0  0  0  0  0  0  0
    4.0320    1.9080   14.4251 C   0  0  0  0  0  0  0  0  0  0  0  0
    3.7746    1.5645   15.4271 H   0  0  0  0  0  0  0  0  0  0  0  0
    4.7841    3.1418   14.3153 C   0  0  0  0  0  0  0  0  0  0  0  0
    5.1167    3.9016   15.4356 C   0  0  0  0  0  0  0  0  0  0  0  0
    4.7740    3.6014   16.4139 H   0  0  0  0  0  0  0  0  0  0  0  0
    5.8976    5.0297   15.2584 C   0  0  0  0  0  0  0  0  0  0  0  0
    6.1704    5.6439   16.1037 H   0  0  0  0  0  0  0  0  0  0  0  0
    6.3356    5.3462   13.9817 C   0  0  0  0  0  0  0  0  0  0  0  0
    6.9598    6.2072   13.8049 H   0  0  0  0  0  0  0  0  0  0  0  0
    5.9574    4.5303   12.9233 C   0  0  0  0  0  0  0  0  0  0  0  0
    6.2839    4.7345   11.9116 H   0  0  0  0  0  0  0  0  0  0  0  0
    3.2051   -0.0526   13.5105 C   0  0  0  0  0  0  0  0  0  0  0  0
    3.9391   -1.0701   14.1333 C   0  0  0  0  0  0  0  0  0  0  0  0
    3.4867   -2.3777   14.1212 C   0  0  0  0  0  0  0  0  0  0  0  0
    4.0858   -3.1466   14.5837 H   0  0  0  0  0  0  0  0  0  0  0  0
    2.2756   -2.6885   13.5302 C   0  0  0  0  0  0  0  0  0  0  0  0
    1.9296   -3.7103   13.5248 H   0  0  0  0  0  0  0  0  0  0  0  0
    1.5091   -1.6833   12.9646 C   0  0  0  0  0  0  0  0  0  0  0  0
    0.5486   -1.9099   12.5274 H   0  0  0  0  0  0  0  0  0  0  0  0
    1.9718   -0.3832   12.9503 C   0  0  0  0  0  0  0  0  0  0  0  0
    1.3667    0.4021   12.5260 H   0  0  0  0  0  0  0  0  0  0  0  0
  1  9  1  0  0  0  0
  1  8  1  0  0  0  0
  4  1  1  0  0  0  0
  5  1  1  0  0  0  0
  6  1  1  0  0  0  0
  6 21  1  0  0  0  0
  7  1  1  0  0  0  0
  8 42  1  0  0  0  0
  8 31  1  0  0  0  0
  9 33  1  0  0  0  0
 10  6  1  0  0  0  0
 11 10  1  0  0  0  0
 12  7  1  0  0  0  0
 12 10  2  0  0  0  0
 13 12  1  0  0  0  0
 14 13  1  0  0  0  0
 15 17  1  0  0  0  0
 15 13  2  0  0  0  0
 16 15  1  0  0  0  0
 17 19  2  0  0  0  0
 18 17  1  0  0  0  0
 19 20  1  0  0  0  0
 19  7  1  0  0  0  0
 21 22  1  0  0  0  0
 22  2  1  0  0  0  0
 22 23  2  0  0  0  0
 23 24  1  0  0  0  0
 25 23  1  0  0  0  0
 25 26  1  0  0  0  0
 27 25  2  0  0  0  0
 28 27  1  0  0  0  0
 29 21  2  0  0  0  0
 29 27  1  0  0  0  0
 30 29  1  0  0  0  0
 31 32  1  0  0  0  0
 33 31  2  0  0  0  0
 33 34  1  0  0  0  0
 34 35  1  0  0  0  0
 36 34  2  0  0  0  0
 36 37  1  0  0  0  0
 38 36  1  0  0  0  0
 39 38  1  0  0  0  0
 40  9  1  0  0  0  0
 40 38  2  0  0  0  0
 41 40  1  0  0  0  0
 42 43  1  0  0  0  0
 43  3  1  0  0  0  0
 44 43  2  0  0  0  0
 44 45  1  0  0  0  0
 46 44  1  0  0  0  0
 47 46  1  0  0  0  0
 48 46  2  0  0  0  0
 49 48  1  0  0  0  0
 50 48  1  0  0  0  0
 50 42  2  0  0  0  0
 51 50  1  0  0  0  0
M  END
$$$$
