CSD_code = WEQDOM | q = 0 | S = 0 | Stoichiometry = C30H23IO2P2Pd | MND = 4
 OpenBabel04212202113D

 59 65  0  0  0  0  0  0  0  0999 V2000
   14.0635    3.2654    2.8579 I   0  0  0  0  0  0  0  0  0  0  0  0
   14.4564    0.7492    3.2738 Pd  0  0  0  0  0  0  0  0  0  0  0  0
   12.3114    0.0892    3.3224 P   0  0  0  0  0  4  0  0  0  0  0  0
   16.6859    0.7273    3.4475 P   0  0  0  0  0  4  0  0  0  0  0  0
   12.3676   -1.5372    3.4662 O   0  0  0  0  0  0  0  0  0  0  0  0
   17.0940   -0.8482    3.5745 O   0  0  0  0  0  0  0  0  0  0  0  0
   14.7320   -1.1988    3.5442 C   0  0  0  0  0  0  0  0  0  0  0  0
   13.6450   -2.0620    3.6115 C   0  0  0  0  0  0  0  0  0  0  0  0
   13.8281   -3.4229    3.8029 C   0  0  0  0  0  0  0  0  0  0  0  0
   15.1182   -3.9144    3.9253 C   0  0  0  0  0  0  0  0  0  0  0  0
   16.2191   -3.0752    3.8575 C   0  0  0  0  0  0  0  0  0  0  0  0
   16.0153   -1.7172    3.6660 C   0  0  0  0  0  0  0  0  0  0  0  0
   10.9246    0.3153    2.1895 C   0  0  0  0  0  0  0  0  0  0  0  0
   10.3326   -0.7520    1.5255 C   0  0  0  0  0  0  0  0  0  0  0  0
    9.2847   -0.5160    0.6534 C   0  0  0  0  0  0  0  0  0  0  0  0
    8.8390    0.7772    0.4337 C   0  0  0  0  0  0  0  0  0  0  0  0
    9.4408    1.8434    1.0850 C   0  0  0  0  0  0  0  0  0  0  0  0
   10.4850    1.6173    1.9612 C   0  0  0  0  0  0  0  0  0  0  0  0
   11.6568    0.6015    4.9480 C   0  0  0  0  0  0  0  0  0  0  0  0
   10.3082    0.7612    5.2339 C   0  0  0  0  0  0  0  0  0  0  0  0
    9.9200    1.1408    6.5070 C   0  0  0  0  0  0  0  0  0  0  0  0
   10.8697    1.3607    7.4912 C   0  0  0  0  0  0  0  0  0  0  0  0
   12.2174    1.1981    7.2103 C   0  0  0  0  0  0  0  0  0  0  0  0
   12.6093    0.8203    5.9403 C   0  0  0  0  0  0  0  0  0  0  0  0
   17.3078    1.4184    5.0122 C   0  0  0  0  0  0  0  0  0  0  0  0
   16.4357    2.1043    5.8474 C   0  0  0  0  0  0  0  0  0  0  0  0
   16.8913    2.6108    7.0518 C   0  0  0  0  0  0  0  0  0  0  0  0
   18.2130    2.4245    7.4213 C   0  0  0  0  0  0  0  0  0  0  0  0
   19.0826    1.7344    6.5898 C   0  0  0  0  0  0  0  0  0  0  0  0
   18.6344    1.2321    5.3829 C   0  0  0  0  0  0  0  0  0  0  0  0
   17.8885    1.3287    2.2402 C   0  0  0  0  0  0  0  0  0  0  0  0
   18.6020    0.4676    1.4164 C   0  0  0  0  0  0  0  0  0  0  0  0
   19.4832    0.9884    0.4854 C   0  0  0  0  0  0  0  0  0  0  0  0
   19.6393    2.3596    0.3665 C   0  0  0  0  0  0  0  0  0  0  0  0
   18.9133    3.2188    1.1776 C   0  0  0  0  0  0  0  0  0  0  0  0
   18.0355    2.7075    2.1137 C   0  0  0  0  0  0  0  0  0  0  0  0
   12.9724   -4.0774    3.8540 H   0  0  0  0  0  0  0  0  0  0  0  0
   15.2687   -4.9723    4.0738 H   0  0  0  0  0  0  0  0  0  0  0  0
   17.2226   -3.4594    3.9500 H   0  0  0  0  0  0  0  0  0  0  0  0
   10.6897   -1.7566    1.6984 H   0  0  0  0  0  0  0  0  0  0  0  0
    8.8175   -1.3441    0.1405 H   0  0  0  0  0  0  0  0  0  0  0  0
    8.0236    0.9556   -0.2516 H   0  0  0  0  0  0  0  0  0  0  0  0
    9.0999    2.8520    0.9063 H   0  0  0  0  0  0  0  0  0  0  0  0
   10.9660    2.4437    2.4668 H   0  0  0  0  0  0  0  0  0  0  0  0
    9.5703    0.5936    4.4623 H   0  0  0  0  0  0  0  0  0  0  0  0
    8.8713    1.2685    6.7311 H   0  0  0  0  0  0  0  0  0  0  0  0
   10.5597    1.6621    8.4807 H   0  0  0  0  0  0  0  0  0  0  0  0
   12.9576    1.3702    7.9778 H   0  0  0  0  0  0  0  0  0  0  0  0
   13.6734    0.6805    5.7049 H   0  0  0  0  0  0  0  0  0  0  0  0
   15.4024    2.2572    5.5404 H   0  0  0  0  0  0  0  0  0  0  0  0
   16.2175    3.1533    7.6982 H   0  0  0  0  0  0  0  0  0  0  0  0
   18.5699    2.8199    8.3609 H   0  0  0  0  0  0  0  0  0  0  0  0
   20.1124    1.5928    6.8834 H   0  0  0  0  0  0  0  0  0  0  0  0
   19.3000    0.6938    4.7221 H   0  0  0  0  0  0  0  0  0  0  0  0
   18.4687   -0.6009    1.5104 H   0  0  0  0  0  0  0  0  0  0  0  0
   20.0449    0.3218   -0.1528 H   0  0  0  0  0  0  0  0  0  0  0  0
   20.3246    2.7608   -0.3655 H   0  0  0  0  0  0  0  0  0  0  0  0
   19.0276    4.2874    1.0762 H   0  0  0  0  0  0  0  0  0  0  0  0
   17.4548    3.3685    2.7436 H   0  0  0  0  0  0  0  0  0  0  0  0
  1  2  1  0  0  0  0
  2  3  1  0  0  0  0
  2  4  1  0  0  0  0
  2  7  1  0  0  0  0
  3  5  1  0  0  0  0
  3 19  1  0  0  0  0
  4  6  1  0  0  0  0
  4 25  1  0  0  0  0
  5  8  1  0  0  0  0
  6 12  1  0  0  0  0
  7  8  2  0  0  0  0
  7 12  1  0  0  0  0
  8  9  1  0  0  0  0
  9 37  1  0  0  0  0
  9 10  2  0  0  0  0
 10 38  1  0  0  0  0
 11 10  1  0  0  0  0
 11 39  1  0  0  0  0
 12 11  2  0  0  0  0
 13  3  1  0  0  0  0
 14 40  1  0  0  0  0
 14 13  2  0  0  0  0
 15 14  1  0  0  0  0
 16 15  2  0  0  0  0
 16 17  1  0  0  0  0
 17 18  2  0  0  0  0
 18 13  1  0  0  0  0
 18 44  1  0  0  0  0
 19 20  2  0  0  0  0
 19 24  1  0  0  0  0
 20 21  1  0  0  0  0
 21 46  1  0  0  0  0
 21 22  2  0  0  0  0
 22 47  1  0  0  0  0
 23 22  1  0  0  0  0
 23 48  1  0  0  0  0
 24 23  2  0  0  0  0
 25 30  2  0  0  0  0
 25 26  1  0  0  0  0
 26 27  2  0  0  0  0
 27 28  1  0  0  0  0
 27 51  1  0  0  0  0
 28 52  1  0  0  0  0
 29 53  1  0  0  0  0
 29 28  2  0  0  0  0
 30 29  1  0  0  0  0
 31  4  1  0  0  0  0
 32 55  1  0  0  0  0
 32 31  2  0  0  0  0
 33 32  1  0  0  0  0
 34 33  2  0  0  0  0
 34 35  1  0  0  0  0
 35 36  2  0  0  0  0
 36 31  1  0  0  0  0
 36 59  1  0  0  0  0
 41 15  1  0  0  0  0
 42 16  1  0  0  0  0
 43 17  1  0  0  0  0
 45 20  1  0  0  0  0
 49 24  1  0  0  0  0
 50 26  1  0  0  0  0
 54 30  1  0  0  0  0
 56 33  1  0  0  0  0
 57 34  1  0  0  0  0
 58 35  1  0  0  0  0
M  END
$$$$
