CSD_code = WERCOL | q = 0 | S = 0 | Stoichiometry = C14H10Cl2N2O8Pd | MND = 4
 OpenBabel04212202113D

 37 38  0  0  0  0  0  0  0  0999 V2000
    0.0000   -0.0000   -0.0000 Pd  0  0  0  0  0  0  0  0  0  0  0  0
   -1.4504    1.4216    1.0462 Cl  0  0  0  0  0  0  0  0  0  0  0  0
    0.1253    1.2177   -1.4832 N   0  0  0  0  0  0  0  0  0  0  0  0
   -0.6772    1.0914   -2.5363 C   0  0  0  0  0  3  0  0  0  0  0  0
   -1.4043    0.2786   -2.5256 H   0  0  0  0  0  0  0  0  0  0  0  0
   -0.6110    1.9524   -3.6285 C   0  0  0  0  0  0  0  0  0  0  0  0
    0.3256    2.9801   -3.6200 C   0  0  0  0  0  0  0  0  0  0  0  0
    0.4151    3.6725   -4.4429 H   0  0  0  0  0  0  0  0  0  0  0  0
    1.1594    3.1008   -2.5107 C   0  0  0  0  0  0  0  0  0  0  0  0
    1.0271    2.1985   -1.4613 C   0  0  0  0  0  0  0  0  0  0  0  0
    1.6633    2.2673   -0.5789 H   0  0  0  0  0  0  0  0  0  0  0  0
    2.1716    4.1968   -2.4805 C   0  0  0  0  0  0  0  0  0  0  0  0
    2.3122    4.9995   -3.3633 O   0  0  0  0  0  0  0  0  0  0  0  0
    2.9051    4.1896   -1.3680 O   0  0  0  0  0  0  0  0  0  0  0  0
    3.5518    4.9134   -1.3802 H   0  0  0  0  0  0  0  0  0  0  0  0
   -1.5506    1.7341   -4.7664 C   0  0  0  0  0  0  0  0  0  0  0  0
   -2.3837    0.8687   -4.7901 O   0  0  0  0  0  0  0  0  0  0  0  0
   -1.3663    2.6046   -5.7584 O   0  0  0  0  0  0  0  0  0  0  0  0
   -1.9910    2.4325   -6.4808 H   0  0  0  0  0  0  0  0  0  0  0  0
    1.4504   -1.4216   -1.0462 Cl  0  0  0  0  0  0  0  0  0  0  0  0
   -0.1253   -1.2177    1.4832 N   0  0  0  0  0  0  0  0  0  0  0  0
    0.6772   -1.0914    2.5363 C   0  0  0  0  0  3  0  0  0  0  0  0
    1.4043   -0.2786    2.5256 H   0  0  0  0  0  0  0  0  0  0  0  0
    0.6110   -1.9524    3.6285 C   0  0  0  0  0  0  0  0  0  0  0  0
   -0.3256   -2.9801    3.6200 C   0  0  0  0  0  0  0  0  0  0  0  0
   -0.4151   -3.6725    4.4429 H   0  0  0  0  0  0  0  0  0  0  0  0
   -1.1594   -3.1008    2.5107 C   0  0  0  0  0  0  0  0  0  0  0  0
   -1.0271   -2.1985    1.4613 C   0  0  0  0  0  0  0  0  0  0  0  0
   -1.6633   -2.2673    0.5789 H   0  0  0  0  0  0  0  0  0  0  0  0
   -2.1716   -4.1968    2.4805 C   0  0  0  0  0  0  0  0  0  0  0  0
   -2.3122   -4.9995    3.3633 O   0  0  0  0  0  0  0  0  0  0  0  0
   -2.9051   -4.1896    1.3680 O   0  0  0  0  0  0  0  0  0  0  0  0
   -3.5518   -4.9134    1.3802 H   0  0  0  0  0  0  0  0  0  0  0  0
    1.5506   -1.7341    4.7664 C   0  0  0  0  0  0  0  0  0  0  0  0
    2.3837   -0.8687    4.7901 O   0  0  0  0  0  0  0  0  0  0  0  0
    1.3663   -2.6046    5.7584 O   0  0  0  0  0  0  0  0  0  0  0  0
    1.9910   -2.4325    6.4808 H   0  0  0  0  0  0  0  0  0  0  0  0
  1  2  1  0  0  0  0
  1 21  1  0  0  0  0
  3 10  1  0  0  0  0
  3  1  1  0  0  0  0
  4  5  1  0  0  0  0
  4  3  1  0  0  0  0
  6  7  2  0  0  0  0
  6  4  1  0  0  0  0
  7  9  1  0  0  0  0
  8  7  1  0  0  0  0
  9 12  1  0  0  0  0
  9 10  2  0  0  0  0
 10 11  1  0  0  0  0
 12 14  1  0  0  0  0
 13 12  2  0  0  0  0
 15 14  1  0  0  0  0
 16  6  1  0  0  0  0
 17 16  2  0  0  0  0
 18 16  1  0  0  0  0
 19 18  1  0  0  0  0
 20  1  1  0  0  0  0
 21 22  1  0  0  0  0
 22 24  1  0  0  0  0
 23 22  1  0  0  0  0
 24 34  1  0  0  0  0
 25 24  2  0  0  0  0
 25 26  1  0  0  0  0
 27 25  1  0  0  0  0
 28 21  1  0  0  0  0
 28 27  2  0  0  0  0
 29 28  1  0  0  0  0
 30 27  1  0  0  0  0
 30 31  2  0  0  0  0
 32 33  1  0  0  0  0
 32 30  1  0  0  0  0
 34 35  2  0  0  0  0
 34 36  1  0  0  0  0
 36 37  1  0  0  0  0
M  END
$$$$
