CSD_code = WERLEK | q = 0 | S = 0 | Stoichiometry = C27H26Cl2N2O2PRe | MND = 6
 OpenBabel04212202113D

 61 65  0  0  0  0  0  0  0  0999 V2000
    6.3401    4.3970    3.8232 Re  0  0  0  0  0  0  0  0  0  0  0  0
    8.3634    3.1220    4.1938 Cl  0  0  0  0  0  0  0  0  0  0  0  0
    4.2708    5.5378    3.4966 Cl  0  0  0  0  0  0  0  0  0  0  0  0
    5.4506    2.7548    2.2525 P   0  0  0  0  0  4  0  0  0  0  0  0
    7.0737    5.2560    2.6145 O   0  0  0  0  0  1  0  0  0  0  0  0
    5.6525    3.5400    5.1932 O   0  0  0  0  0  0  0  0  0  0  0  0
    9.3878    5.8000    5.1013 N   0  0  0  0  0  0  0  0  0  0  0  0
    7.0081    6.0747    5.3398 N   0  0  0  0  0  0  0  0  0  0  0  0
   10.4814    6.4730    5.5622 C   0  0  0  0  0  0  0  0  0  0  0  0
   10.1018    7.5406    6.3205 C   0  0  0  0  0  0  0  0  0  0  0  0
    7.6902    8.3126    6.9312 C   0  0  0  0  0  0  0  0  0  0  0  0
    6.3779    7.9395    6.7064 C   0  0  0  0  0  0  0  0  0  0  0  0
    6.0825    6.8351    5.9128 C   0  0  0  0  0  3  0  0  0  0  0  0
    8.2785    6.4125    5.5581 C   0  0  0  0  0  0  0  0  0  0  0  0
    8.6820    7.5355    6.3471 C   0  0  0  0  0  0  0  0  0  0  0  0
    6.7008    1.6500    1.5493 C   0  0  0  0  0  0  0  0  0  0  0  0
    7.0688    1.7295    0.2105 C   0  0  0  0  0  0  0  0  0  0  0  0
    8.0758    0.9145   -0.2754 C   0  0  0  0  0  0  0  0  0  0  0  0
    8.7247    0.0286    0.5686 C   0  0  0  0  0  0  0  0  0  0  0  0
    8.3676   -0.0460    1.9057 C   0  0  0  0  0  0  0  0  0  0  0  0
    7.3620    0.7630    2.3985 C   0  0  0  0  0  0  0  0  0  0  0  0
    4.6130    3.5013    0.8287 C   0  0  0  0  0  0  0  0  0  0  0  0
    3.5292    2.8641    0.2332 C   0  0  0  0  0  0  0  0  0  0  0  0
    2.9177    3.4375   -0.8670 C   0  0  0  0  0  0  0  0  0  0  0  0
    3.3827    4.6397   -1.3746 C   0  0  0  0  0  0  0  0  0  0  0  0
    4.4641    5.2733   -0.7830 C   0  0  0  0  0  0  0  0  0  0  0  0
    5.0816    4.7079    0.3174 C   0  0  0  0  0  0  0  0  0  0  0  0
    4.1898    1.6904    3.0106 C   0  0  0  0  0  0  0  0  0  0  0  0
    3.1438    2.3184    3.6859 C   0  0  0  0  0  0  0  0  0  0  0  0
    2.1552    1.5601    4.2853 C   0  0  0  0  0  0  0  0  0  0  0  0
    2.1990    0.1763    4.2131 C   0  0  0  0  0  0  0  0  0  0  0  0
    3.2283   -0.4482    3.5282 C   0  0  0  0  0  0  0  0  0  0  0  0
    4.2233    0.3023    2.9251 C   0  0  0  0  0  0  0  0  0  0  0  0
    5.2550    2.8887    6.3241 C   0  0  0  0  0  0  0  0  0  0  0  0
    4.2859    3.7366    7.1519 C   0  0  0  0  0  0  0  0  0  0  0  0
    9.3722    4.9173    4.5844 H   0  0  0  0  0  0  0  0  0  0  0  0
   11.4682    6.1369    5.3094 H   0  0  0  0  0  0  0  0  0  0  0  0
   10.7419    8.2489    6.8066 H   0  0  0  0  0  0  0  0  0  0  0  0
    7.9355    9.1736    7.5350 H   0  0  0  0  0  0  0  0  0  0  0  0
    5.5634    8.5031    7.1328 H   0  0  0  0  0  0  0  0  0  0  0  0
    5.0541    6.5678    5.7149 H   0  0  0  0  0  0  0  0  0  0  0  0
    6.5690    2.4291   -0.4442 H   0  0  0  0  0  0  0  0  0  0  0  0
    8.3600    0.9780   -1.3154 H   0  0  0  0  0  0  0  0  0  0  0  0
    9.5160   -0.5992    0.1866 H   0  0  0  0  0  0  0  0  0  0  0  0
    8.8816   -0.7263    2.5679 H   0  0  0  0  0  0  0  0  0  0  0  0
    7.0958    0.7213    3.4457 H   0  0  0  0  0  0  0  0  0  0  0  0
    3.1632    1.9284    0.6328 H   0  0  0  0  0  0  0  0  0  0  0  0
    2.0723    2.9463   -1.3261 H   0  0  0  0  0  0  0  0  0  0  0  0
    2.8970    5.0861   -2.2297 H   0  0  0  0  0  0  0  0  0  0  0  0
    4.8223    6.2131   -1.1752 H   0  0  0  0  0  0  0  0  0  0  0  0
    5.9160    5.1999    0.8024 H   0  0  0  0  0  0  0  0  0  0  0  0
    3.1162    3.3999    3.7347 H   0  0  0  0  0  0  0  0  0  0  0  0
    1.3489    2.0496    4.8114 H   0  0  0  0  0  0  0  0  0  0  0  0
    1.4296   -0.4153    4.6868 H   0  0  0  0  0  0  0  0  0  0  0  0
    3.2589   -1.5259    3.4616 H   0  0  0  0  0  0  0  0  0  0  0  0
    5.0188   -0.1912    2.3854 H   0  0  0  0  0  0  0  0  0  0  0  0
    6.1489    2.6408    6.9230 H   0  0  0  0  0  0  0  0  0  0  0  0
    4.7644    1.9413    6.0381 H   0  0  0  0  0  0  0  0  0  0  0  0
    3.9140    3.1577    7.9927 H   0  0  0  0  0  0  0  0  0  0  0  0
    3.4497    4.0467    6.5284 H   0  0  0  0  0  0  0  0  0  0  0  0
    4.7918    4.6252    7.5242 H   0  0  0  0  0  0  0  0  0  0  0  0
  1  2  1  0  0  0  0
  1  6  1  0  0  0  0
  1  8  1  0  0  0  0
  3  1  1  0  0  0  0
  4 28  1  0  0  0  0
  4  1  1  0  0  0  0
  5  1  1  0  0  0  0
  6 34  1  0  0  0  0
  7 14  1  0  0  0  0
  7  9  1  0  0  0  0
  8 14  1  0  0  0  0
  8 13  1  0  0  0  0
  9 10  2  0  0  0  0
 10 15  1  0  0  0  0
 10 38  1  0  0  0  0
 11 39  1  0  0  0  0
 12 11  2  0  0  0  0
 12 40  1  0  0  0  0
 13 12  1  0  0  0  0
 14 15  2  0  0  0  0
 15 11  1  0  0  0  0
 16  4  1  0  0  0  0
 16 21  1  0  0  0  0
 17 16  2  0  0  0  0
 18 17  1  0  0  0  0
 18 19  2  0  0  0  0
 19 20  1  0  0  0  0
 20 21  2  0  0  0  0
 20 45  1  0  0  0  0
 21 46  1  0  0  0  0
 22  4  1  0  0  0  0
 23 47  1  0  0  0  0
 23 22  2  0  0  0  0
 24 23  1  0  0  0  0
 25 24  2  0  0  0  0
 25 26  1  0  0  0  0
 26 27  2  0  0  0  0
 27 51  1  0  0  0  0
 27 22  1  0  0  0  0
 28 29  1  0  0  0  0
 29 52  1  0  0  0  0
 29 30  2  0  0  0  0
 30 53  1  0  0  0  0
 31 30  1  0  0  0  0
 31 54  1  0  0  0  0
 32 31  2  0  0  0  0
 33 28  2  0  0  0  0
 33 32  1  0  0  0  0
 34 57  1  0  0  0  0
 34 35  1  0  0  0  0
 35 61  1  0  0  0  0
 35 59  1  0  0  0  0
 36  7  1  0  0  0  0
 37  9  1  0  0  0  0
 41 13  1  0  0  0  0
 42 17  1  0  0  0  0
 43 18  1  0  0  0  0
 44 19  1  0  0  0  0
 48 24  1  0  0  0  0
 49 25  1  0  0  0  0
 50 26  1  0  0  0  0
 55 32  1  0  0  0  0
 56 33  1  0  0  0  0
 58 34  1  0  0  0  0
 60 35  1  0  0  0  0
M  END
$$$$
