CSD_code = WETGEI | q = 0 | S = 0 | Stoichiometry = C29H26Br2N3NiP | MND = 4
 OpenBabel04212202113D

 62 67  0  0  1  0  0  0  0  0999 V2000
    3.9243    4.5319    3.4297 Ni  0  0  0  0  0  0  0  0  0  0  0  0
    3.3402    2.9051    4.8401 Br  0  0  0  0  0  0  0  0  0  0  0  0
    3.0872    6.0317    1.9802 Br  0  0  0  0  0  0  0  0  0  0  0  0
    4.9939    3.7567    0.7849 P   0  0  0  0  0  4  0  0  0  0  0  0
    5.3185    3.8638    2.3596 N   0  0  0  0  0  0  0  0  0  0  0  0
    6.8782    5.1804    4.2468 N   0  0  0  0  0  0  0  0  0  0  0  0
    5.6375    5.6894    4.3906 N   0  0  0  0  0  0  0  0  0  0  0  0
    6.0810    2.5229    0.0044 C   0  0  0  0  0  0  0  0  0  0  0  0
    7.4507    2.7537    0.0790 C   0  0  0  0  0  0  0  0  0  0  0  0
    7.8113    3.6466    0.5737 H   0  0  0  0  0  0  0  0  0  0  0  0
    8.3346    1.8472   -0.4731 C   0  0  0  0  0  0  0  0  0  0  0  0
    9.3980    2.0230   -0.4101 H   0  0  0  0  0  0  0  0  0  0  0  0
    7.8529    0.7131   -1.1089 C   0  0  0  0  0  0  0  0  0  0  0  0
    8.5431    0.0043   -1.5408 H   0  0  0  0  0  0  0  0  0  0  0  0
    6.4891    0.4883   -1.1938 C   0  0  0  0  0  0  0  0  0  0  0  0
    6.1155   -0.3931   -1.6934 H   0  0  0  0  0  0  0  0  0  0  0  0
    5.5992    1.3904   -0.6365 C   0  0  0  0  0  0  0  0  0  0  0  0
    4.5337    1.2153   -0.6955 H   0  0  0  0  0  0  0  0  0  0  0  0
    3.2957    3.2312    0.4379 C   0  0  0  0  0  0  0  0  0  0  0  0
    2.7807    2.2379    1.2673 C   0  0  0  0  0  0  0  0  0  0  0  0
    3.3958    1.8035    2.0468 H   0  0  0  0  0  0  0  0  0  0  0  0
    1.4726    1.8190    1.1027 C   0  0  0  0  0  0  0  0  0  0  0  0
    1.0673    1.0646    1.7598 H   0  0  0  0  0  0  0  0  0  0  0  0
    0.6873    2.3843    0.1111 C   0  0  0  0  0  0  0  0  0  0  0  0
   -0.3377    2.0668   -0.0087 H   0  0  0  0  0  0  0  0  0  0  0  0
    1.2054    3.3699   -0.7152 C   0  0  0  0  0  0  0  0  0  0  0  0
    0.5852    3.8195   -1.4758 H   0  0  0  0  0  0  0  0  0  0  0  0
    2.5093    3.8015   -0.5550 C   0  0  0  0  0  0  0  0  0  0  0  0
    2.9000    4.6050   -1.1613 H   0  0  0  0  0  0  0  0  0  0  0  0
    5.5241    5.2514   -0.0986 C   0  0  0  0  0  0  0  0  0  0  0  0
    5.4828    5.2661   -1.4876 C   0  0  0  0  0  0  0  0  0  0  0  0
    5.0925    4.4113   -2.0243 H   0  0  0  0  0  0  0  0  0  0  0  0
    5.9531    6.3710   -2.1734 C   0  0  0  0  0  0  0  0  0  0  0  0
    5.9103    6.3919   -3.2524 H   0  0  0  0  0  0  0  0  0  0  0  0
    6.4824    7.4459   -1.4776 C   0  0  0  0  0  0  0  0  0  0  0  0
    6.8460    8.3078   -2.0167 H   0  0  0  0  0  0  0  0  0  0  0  0
    6.5527    7.4153   -0.0941 C   0  0  0  0  0  0  0  0  0  0  0  0
    6.9731    8.2496    0.4468 H   0  0  0  0  0  0  0  0  0  0  0  0
    6.0771    6.3174    0.5971 C   0  0  0  0  0  0  0  0  0  0  0  0
    6.1085    6.2894    1.6770 H   0  0  0  0  0  0  0  0  0  0  0  0
    6.2711    3.1362    3.0694 C   0  0  0  0  0  0  0  0  0  0  0  0
    6.4619    1.7652    2.8983 C   0  0  0  0  0  0  0  0  0  0  0  0
    5.8225    1.2337    2.2079 H   0  0  0  0  0  0  0  0  0  0  0  0
    7.4271    1.0848    3.6110 C   0  0  0  0  0  0  0  0  0  0  0  0
    7.5527    0.0244    3.4553 H   0  0  0  0  0  0  0  0  0  0  0  0
    8.2073    1.7515    4.5408 C   0  0  0  0  0  0  0  0  0  0  0  0
    8.9451    1.2165    5.1179 H   0  0  0  0  0  0  0  0  0  0  0  0
    8.0143    3.1037    4.7542 C   0  0  0  0  0  0  0  0  0  0  0  0
    8.5826    3.6202    5.5114 H   0  0  0  0  0  0  0  0  0  0  0  0
    7.0705    3.8053    4.0184 C   0  0  0  0  0  0  0  0  0  0  0  0
    7.8164    6.1515    4.3772 C   0  0  2  0  0  3  0  0  0  0  0  0
    7.1347    7.3240    4.6208 C   0  0  0  0  0  0  0  0  0  0  0  0
    7.5576    8.2962    4.7695 H   0  0  0  0  0  0  0  0  0  0  0  0
    5.7726    6.9857    4.6264 C   0  0  0  0  0  0  0  0  0  0  0  0
    9.2753    5.9292    4.2044 C   0  0  0  0  0  0  0  0  0  0  0  0
    9.7592    5.7397    5.1625 H   0  0  0  0  0  0  0  0  0  0  0  0
    9.7270    6.8207    3.7753 H   0  0  0  0  0  0  0  0  0  0  0  0
    9.4649    5.0812    3.5490 H   0  0  0  0  0  0  0  0  0  0  0  0
    4.5938    7.8638    4.8289 C   0  0  0  0  0  0  0  0  0  0  0  0
    4.3898    8.4348    3.9230 H   0  0  0  0  0  0  0  0  0  0  0  0
    4.7678    8.5579    5.6480 H   0  0  0  0  0  0  0  0  0  0  0  0
    3.7184    7.2540    5.0476 H   0  0  0  0  0  0  0  0  0  0  0  0
  1  7  1  0  0  0  0
  1  2  1  0  0  0  0
  3  1  1  0  0  0  0
  4  5  1  0  0  0  0
  5 41  1  0  0  0  0
  5  1  1  0  0  0  0
  6 51  1  0  0  0  0
  6  7  1  0  0  0  0
  7 54  1  0  0  0  0
  8  9  1  0  0  0  0
  8  4  1  0  0  0  0
  9 10  1  0  0  0  0
 11 12  1  0  0  0  0
 11  9  2  0  0  0  0
 13 11  1  0  0  0  0
 14 13  1  0  0  0  0
 15 13  2  0  0  0  0
 15 17  1  0  0  0  0
 16 15  1  0  0  0  0
 17  8  2  0  0  0  0
 18 17  1  0  0  0  0
 19  4  1  0  0  0  0
 19 20  1  0  0  0  0
 20 21  1  0  0  0  0
 22 20  2  0  0  0  0
 22 23  1  0  0  0  0
 24 22  1  0  0  0  0
 25 24  1  0  0  0  0
 26 28  1  0  0  0  0
 26 24  2  0  0  0  0
 27 26  1  0  0  0  0
 28 19  2  0  0  0  0
 29 28  1  0  0  0  0
 30 39  1  0  0  0  0
 30  4  1  0  0  0  0
 31 30  2  0  0  0  0
 32 31  1  0  0  0  0
 33 31  1  0  0  0  0
 33 35  2  0  0  0  0
 34 33  1  0  0  0  0
 35 37  1  0  0  0  0
 36 35  1  0  0  0  0
 37 38  1  0  0  0  0
 37 39  2  0  0  0  0
 39 40  1  0  0  0  0
 41 50  1  0  0  0  0
 42 41  2  0  0  0  0
 42 44  1  0  0  0  0
 43 42  1  0  0  0  0
 44 46  2  0  0  0  0
 45 44  1  0  0  0  0
 46 48  1  0  0  0  0
 46 47  1  0  0  0  0
 48 49  1  0  0  0  0
 50  6  1  0  0  0  0
 50 48  2  0  0  0  0
 51 55  1  6  0  0  0
 51 52  1  0  0  0  0
 52 54  2  0  0  0  0
 52 53  1  0  0  0  0
 54 59  1  0  0  0  0
 55 56  1  0  0  0  0
 57 55  1  0  0  0  0
 58 55  1  0  0  0  0
 59 62  1  0  0  0  0
 59 61  1  0  0  0  0
 60 59  1  0  0  0  0
M  END
$$$$
