CSD_code = WETLUD | q = 0 | S = 0 | Stoichiometry = C28H34Cl2NPPd | MND = 4
 OpenBabel04212202113D

 67 70  0  0  0  0  0  0  0  0999 V2000
    7.4879    1.8610   21.6536 Pd  0  0  0  0  0  0  0  0  0  0  0  0
    9.7343    2.1515   21.7135 Cl  0  0  0  0  0  0  0  0  0  0  0  0
    7.0480    4.0996   21.9357 Cl  0  0  0  0  0  0  0  0  0  0  0  0
    5.2791    1.4978   21.6252 P   0  0  0  0  0  4  0  0  0  0  0  0
    7.5491   -0.6993   20.3207 N   0  0  0  0  0  0  0  0  0  0  0  0
    7.5099   -0.0769   21.4792 C   0  0  0  0  0  0  0  0  0  0  0  0
    7.1176   -0.7660   22.7801 C   0  0  0  0  0  0  0  0  0  0  0  0
    5.6293   -1.0830   22.7498 C   0  0  0  0  0  0  0  0  0  0  0  0
    5.1291   -2.2756   23.2587 C   0  0  0  0  0  0  0  0  0  0  0  0
    5.8080   -3.0264   23.6327 H   0  0  0  0  0  0  0  0  0  0  0  0
    3.7676   -2.5202   23.3078 C   0  0  0  0  0  0  0  0  0  0  0  0
    3.4068   -3.4573   23.7046 H   0  0  0  0  0  0  0  0  0  0  0  0
    2.8733   -1.5569   22.8757 C   0  0  0  0  0  0  0  0  0  0  0  0
    1.8097   -1.7315   22.9370 H   0  0  0  0  0  0  0  0  0  0  0  0
    3.3526   -0.3595   22.3790 C   0  0  0  0  0  0  0  0  0  0  0  0
    2.6593    0.4167   22.0845 H   0  0  0  0  0  0  0  0  0  0  0  0
    4.7208   -0.1176   22.2850 C   0  0  0  0  0  0  0  0  0  0  0  0
    6.9864   -2.0408   20.1026 C   0  0  0  0  0  0  0  0  0  0  0  0
    6.6051   -2.3517   21.0739 H   0  0  0  0  0  0  0  0  0  0  0  0
    5.7557   -2.0334   19.1873 C   0  0  0  0  0  0  0  0  0  0  0  0
    5.1597   -1.1408   19.3591 H   0  0  0  0  0  0  0  0  0  0  0  0
    5.1419   -2.8991   19.4277 H   0  0  0  0  0  0  0  0  0  0  0  0
    6.0134   -2.0909   18.1362 H   0  0  0  0  0  0  0  0  0  0  0  0
    8.0070   -3.0803   19.6442 C   0  0  0  0  0  0  0  0  0  0  0  0
    8.3257   -2.9115   18.6205 H   0  0  0  0  0  0  0  0  0  0  0  0
    7.5469   -4.0653   19.6918 H   0  0  0  0  0  0  0  0  0  0  0  0
    8.8813   -3.0776   20.2898 H   0  0  0  0  0  0  0  0  0  0  0  0
    8.2718    0.0180   19.2408 C   0  0  0  0  0  0  0  0  0  0  0  0
    8.1800    1.0963   19.4869 H   0  0  0  0  0  0  0  0  0  0  0  0
    7.7337   -0.1612   17.8285 C   0  0  0  0  0  0  0  0  0  0  0  0
    7.9082   -1.1601   17.4398 H   0  0  0  0  0  0  0  0  0  0  0  0
    8.2660    0.5365   17.1858 H   0  0  0  0  0  0  0  0  0  0  0  0
    6.6761    0.0780   17.7715 H   0  0  0  0  0  0  0  0  0  0  0  0
    9.7643   -0.3133   19.3136 C   0  0  0  0  0  0  0  0  0  0  0  0
   10.1378   -0.0805   20.3087 H   0  0  0  0  0  0  0  0  0  0  0  0
   10.2995    0.3148   18.6069 H   0  0  0  0  0  0  0  0  0  0  0  0
    9.9704   -1.3521   19.0761 H   0  0  0  0  0  0  0  0  0  0  0  0
    7.3365    0.2063   23.9725 C   0  0  0  0  0  0  0  0  0  0  0  0
    6.6513    1.0671   23.9465 H   0  0  0  0  0  0  0  0  0  0  0  0
    8.3715    0.5707   23.9673 H   0  0  0  0  0  0  0  0  0  0  0  0
    7.1587   -0.3230   24.9083 H   0  0  0  0  0  0  0  0  0  0  0  0
    8.0620   -1.9500   23.0669 C   0  0  0  0  0  0  0  0  0  0  0  0
    7.9841   -2.2465   24.1106 H   0  0  0  0  0  0  0  0  0  0  0  0
    9.0824   -1.6127   22.8928 H   0  0  0  0  0  0  0  0  0  0  0  0
    7.8851   -2.8277   22.4548 H   0  0  0  0  0  0  0  0  0  0  0  0
    4.7793    1.5610   19.8710 C   0  0  0  0  0  0  0  0  0  0  0  0
    3.6991    0.8853   19.3128 C   0  0  0  0  0  0  0  0  0  0  0  0
    3.0868    0.2346   19.9199 H   0  0  0  0  0  0  0  0  0  0  0  0
    3.4105    1.0345   17.9664 C   0  0  0  0  0  0  0  0  0  0  0  0
    2.5740    0.5018   17.5384 H   0  0  0  0  0  0  0  0  0  0  0  0
    4.1851    1.8634   17.1720 C   0  0  0  0  0  0  0  0  0  0  0  0
    3.9507    1.9787   16.1243 H   0  0  0  0  0  0  0  0  0  0  0  0
    5.2611    2.5422   17.7227 C   0  0  0  0  0  0  0  0  0  0  0  0
    5.8665    3.1894   17.1062 H   0  0  0  0  0  0  0  0  0  0  0  0
    5.5640    2.3871   19.0636 C   0  0  0  0  0  0  0  0  0  0  0  0
    6.4092    2.9248   19.5030 H   0  0  0  0  0  0  0  0  0  0  0  0
    4.1328    2.6566   22.4221 C   0  0  0  0  0  0  0  0  0  0  0  0
    3.8418    2.5074   23.7759 C   0  0  0  0  0  0  0  0  0  0  0  0
    4.2255    1.6537   24.3207 H   0  0  0  0  0  0  0  0  0  0  0  0
    3.0617    3.4466   24.4228 C   0  0  0  0  0  0  0  0  0  0  0  0
    2.8389    3.3278   25.4731 H   0  0  0  0  0  0  0  0  0  0  0  0
    2.5784    4.5441   23.7290 C   0  0  0  0  0  0  0  0  0  0  0  0
    1.9759    5.2812   24.2386 H   0  0  0  0  0  0  0  0  0  0  0  0
    2.8790    4.7025   22.3863 C   0  0  0  0  0  0  0  0  0  0  0  0
    2.5141    5.5649   21.8485 H   0  0  0  0  0  0  0  0  0  0  0  0
    3.6586    3.7672   21.7318 C   0  0  0  0  0  0  0  0  0  0  0  0
    3.9112    3.9022   20.6900 H   0  0  0  0  0  0  0  0  0  0  0  0
  1  2  1  0  0  0  0
  1  3  1  0  0  0  0
  4  1  1  0  0  0  0
  4 17  1  0  0  0  0
  4 57  1  0  0  0  0
  5  6  1  0  0  0  0
  6  1  2  0  0  0  0
  6  7  1  0  0  0  0
  7 42  1  0  0  0  0
  7 38  1  0  0  0  0
  8  7  1  0  0  0  0
  8  9  1  0  0  0  0
  9 11  2  0  0  0  0
  9 10  1  0  0  0  0
 11 12  1  0  0  0  0
 13 14  1  0  0  0  0
 13 11  1  0  0  0  0
 15 13  2  0  0  0  0
 16 15  1  0  0  0  0
 17 15  1  0  0  0  0
 17  8  2  0  0  0  0
 18  5  1  0  0  0  0
 18 19  1  0  0  0  0
 20 21  1  0  0  0  0
 20 22  1  0  0  0  0
 20 18  1  0  0  0  0
 23 20  1  0  0  0  0
 24 26  1  0  0  0  0
 24 18  1  0  0  0  0
 24 27  1  0  0  0  0
 25 24  1  0  0  0  0
 28 34  1  0  0  0  0
 28 29  1  0  0  0  0
 28  5  1  0  0  0  0
 30 28  1  0  0  0  0
 31 30  1  0  0  0  0
 32 30  1  0  0  0  0
 33 30  1  0  0  0  0
 34 35  1  0  0  0  0
 36 34  1  0  0  0  0
 37 34  1  0  0  0  0
 38 41  1  0  0  0  0
 39 38  1  0  0  0  0
 40 38  1  0  0  0  0
 42 43  1  0  0  0  0
 44 42  1  0  0  0  0
 45 42  1  0  0  0  0
 46  4  1  0  0  0  0
 47 46  1  0  0  0  0
 47 48  1  0  0  0  0
 49 47  2  0  0  0  0
 50 49  1  0  0  0  0
 51 53  2  0  0  0  0
 51 49  1  0  0  0  0
 52 51  1  0  0  0  0
 53 55  1  0  0  0  0
 54 53  1  0  0  0  0
 55 56  1  0  0  0  0
 55 46  2  0  0  0  0
 57 58  1  0  0  0  0
 58 59  1  0  0  0  0
 58 60  2  0  0  0  0
 60 61  1  0  0  0  0
 62 63  1  0  0  0  0
 62 60  1  0  0  0  0
 64 62  2  0  0  0  0
 65 64  1  0  0  0  0
 66 64  1  0  0  0  0
 66 57  2  0  0  0  0
 67 66  1  0  0  0  0
M  END
$$$$
