CSD_code = WEWPAS | q = 0 | S = 0 | Stoichiometry = C16H15Cl3N2O2PdS | MND = 4
 OpenBabel04212202113D

 40 43  0  0  0  0  0  0  0  0999 V2000
   16.8181    2.4552    2.5104 Pd  0  0  1  0  0  0  0  0  0  0  0  0
   18.1917    1.1684    3.7880 S   0  0  1  0  0  3  0  0  0  0  0  0
   18.0003    4.2809    3.0512 Cl  0  0  0  0  0  0  0  0  0  0  0  0
   14.2694    5.7170    0.0214 Cl  0  0  0  0  0  0  0  0  0  0  0  0
   10.7999    1.9032   -1.4841 Cl  0  0  0  0  0  0  0  0  0  0  0  0
   15.6388    3.5795    1.3083 O   0  0  0  0  0  0  0  0  0  0  0  0
   14.7845    0.7372    1.2876 N   0  0  0  0  0  0  0  0  0  0  0  0
   15.8321    0.8206    2.0141 N   0  0  0  0  0  0  0  0  0  0  0  0
   14.5973    3.1471    0.7331 C   0  0  0  0  0  0  0  0  0  0  0  0
   13.7672    4.0721    0.0133 C   0  0  0  0  0  0  0  0  0  0  0  0
   12.6317    3.6967   -0.6455 C   0  0  0  0  0  0  0  0  0  0  0  0
   12.0392    4.4312   -1.1668 H   0  0  0  0  0  0  0  0  0  0  0  0
   12.2390    2.3460   -0.6416 C   0  0  0  0  0  0  0  0  0  0  0  0
   12.9782    1.4053    0.0105 C   0  0  0  0  0  3  0  0  0  0  0  0
   12.6873    0.3677    0.0201 H   0  0  0  0  0  0  0  0  0  0  0  0
   14.1584    1.7634    0.7103 C   0  0  0  0  0  0  0  0  0  0  0  0
   16.3264   -0.3989    2.4856 C   0  0  0  0  0  0  0  0  0  0  0  0
   15.7459   -1.6251    2.1412 C   0  0  0  0  0  0  0  0  0  0  0  0
   14.8927   -1.6218    1.4818 H   0  0  0  0  0  0  0  0  0  0  0  0
   16.2575   -2.8017    2.6477 C   0  0  0  0  0  0  0  0  0  0  0  0
   15.8000   -3.7407    2.3769 H   0  0  0  0  0  0  0  0  0  0  0  0
   17.3454   -2.7865    3.5101 C   0  0  0  0  0  0  0  0  0  0  0  0
   17.7332   -3.7089    3.9129 H   0  0  0  0  0  0  0  0  0  0  0  0
   17.9303   -1.5811    3.8597 C   0  0  0  0  0  0  0  0  0  0  0  0
   18.7650   -1.5491    4.5423 H   0  0  0  0  0  0  0  0  0  0  0  0
   17.4388   -0.3974    3.3364 C   0  0  0  0  0  0  0  0  0  0  0  0
   19.5136    1.2693    2.5088 C   0  0  0  0  0  0  0  0  0  0  0  0
   19.0512    1.2082    1.5118 H   0  0  0  0  0  0  0  0  0  0  0  0
   19.9475    2.2628    2.6555 H   0  0  0  0  0  0  0  0  0  0  0  0
   20.5780    0.2010    2.6934 C   0  0  0  0  0  0  0  0  0  0  0  0
   20.1732   -0.7911    2.4845 H   0  0  0  0  0  0  0  0  0  0  0  0
   20.9420    0.2309    3.7212 H   0  0  0  0  0  0  0  0  0  0  0  0
   22.3631    1.6752    2.1474 O   0  0  0  0  0  0  0  0  0  0  0  0
   21.7568    0.4680    1.7594 C   0  0  0  0  0  0  0  0  0  0  0  0
   22.4802   -0.3607    1.8236 H   0  0  0  0  0  0  0  0  0  0  0  0
   21.4092    0.5332    0.7153 H   0  0  0  0  0  0  0  0  0  0  0  0
   23.4304    2.0560    1.3188 C   0  0  0  0  0  0  0  0  0  0  0  0
   23.8095    2.9945    1.7163 H   0  0  0  0  0  0  0  0  0  0  0  0
   23.0971    2.2045    0.2844 H   0  0  0  0  0  0  0  0  0  0  0  0
   24.2292    1.3038    1.3270 H   0  0  0  0  0  0  0  0  0  0  0  0
  1  3  1  1  0  0  0
  1  2  1  0  0  0  0
  2 27  1  6  0  0  0
  5 13  1  0  0  0  0
  6  1  1  0  0  0  0
  7  8  1  0  0  0  0
  8 17  1  0  0  0  0
  8  1  1  0  0  0  0
  9  6  1  0  0  0  0
 10  4  1  0  0  0  0
 10  9  2  0  0  0  0
 11 13  2  0  0  0  0
 11 10  1  0  0  0  0
 12 11  1  0  0  0  0
 13 14  1  0  0  0  0
 14 15  1  0  0  0  0
 14 16  1  0  0  0  0
 16  9  1  0  0  0  0
 16  7  2  0  0  0  0
 17 26  1  0  0  0  0
 18 17  2  0  0  0  0
 18 20  1  0  0  0  0
 19 18  1  0  0  0  0
 20 22  2  0  0  0  0
 21 20  1  0  0  0  0
 22 24  1  0  0  0  0
 22 23  1  0  0  0  0
 24 25  1  0  0  0  0
 26  2  1  0  0  0  0
 26 24  2  0  0  0  0
 27 29  1  0  0  0  0
 27 30  1  0  0  0  0
 28 27  1  0  0  0  0
 30 32  1  0  0  0  0
 31 30  1  0  0  0  0
 34 35  1  0  0  0  0
 34 33  1  0  0  0  0
 34 30  1  0  0  0  0
 36 34  1  0  0  0  0
 37 40  1  0  0  0  0
 37 38  1  0  0  0  0
 37 33  1  0  0  0  0
 39 37  1  0  0  0  0
M  END
$$$$
