CSD_code = WEWSIB | q = 0 | S = 0 | Stoichiometry = C17H22Br2N2OZn | MND = 4
 OpenBabel04212202113D

 45 47  0  0  0  0  0  0  0  0999 V2000
    1.3092    7.8014    9.3128 Zn  0  0  0  0  0  0  0  0  0  0  0  0
    2.9754    9.4972    9.4845 Br  0  0  0  0  0  0  0  0  0  0  0  0
   -0.8973    8.6750    9.0169 Br  0  0  0  0  0  0  0  0  0  0  0  0
    1.4826    6.1008   10.0403 O   0  0  0  0  0  0  0  0  0  0  0  0
    1.7749    7.1007    7.4063 N   0  0  0  0  0  0  0  0  0  0  0  0
    1.2601   10.2279    5.4526 N   0  0  0  0  0  4  0  0  0  0  0  0
    1.6582    4.7618    8.0594 C   0  0  0  0  0  0  0  0  0  0  0  0
    1.5482    4.9647    9.4656 C   0  0  0  0  0  0  0  0  0  0  0  0
    1.5629    3.8124   10.3208 C   0  0  0  0  0  0  0  0  0  0  0  0
    1.5144    4.0061   11.3823 H   0  0  0  0  0  0  0  0  0  0  0  0
    1.6382    2.5568    9.8308 C   0  0  0  0  0  0  0  0  0  0  0  0
    1.6571    1.7066   10.4988 H   0  0  0  0  0  0  0  0  0  0  0  0
    1.6674    2.3150    8.4313 C   0  0  0  0  0  0  0  0  0  0  0  0
    1.6855    1.0009    7.9395 C   0  0  0  0  0  0  0  0  0  0  0  0
    1.7044    0.1858    8.6491 H   0  0  0  0  0  0  0  0  0  0  0  0
    1.6687    0.7503    6.5922 C   0  0  0  0  0  0  0  0  0  0  0  0
    1.6837   -0.2624    6.2181 H   0  0  0  0  0  0  0  0  0  0  0  0
    1.6103    1.8238    5.7041 C   0  0  0  0  0  0  0  0  0  0  0  0
    1.5658    1.6355    4.6407 H   0  0  0  0  0  0  0  0  0  0  0  0
    1.5965    3.1174    6.1651 C   0  0  0  0  0  0  0  0  0  0  0  0
    1.5144    3.9097    5.4364 H   0  0  0  0  0  0  0  0  0  0  0  0
    1.6546    3.4148    7.5390 C   0  0  0  0  0  0  0  0  0  0  0  0
    1.8829    5.8338    7.1664 C   0  0  0  0  0  3  0  0  0  0  0  0
    2.2364    5.5563    6.1683 H   0  0  0  0  0  0  0  0  0  0  0  0
    2.1645    8.0290    6.3715 C   0  0  0  0  0  0  0  0  0  0  0  0
    2.5972    7.4962    5.5107 H   0  0  0  0  0  0  0  0  0  0  0  0
    2.9320    8.6847    6.7961 H   0  0  0  0  0  0  0  0  0  0  0  0
    0.9437    8.8600    5.9513 C   0  0  0  0  0  0  0  0  0  0  0  0
    0.2866    8.9741    6.8177 H   0  0  0  0  0  0  0  0  0  0  0  0
    0.3799    8.3277    5.1841 H   0  0  0  0  0  0  0  0  0  0  0  0
    2.2731   10.2382    4.3693 C   0  0  0  0  0  0  0  0  0  0  0  0
    3.2051    9.8394    4.7706 H   0  0  0  0  0  0  0  0  0  0  0  0
    2.4414   11.2788    4.0824 H   0  0  0  0  0  0  0  0  0  0  0  0
    1.8282    9.4514    3.1467 C   0  0  0  0  0  0  0  0  0  0  0  0
    1.7712    8.3859    3.3465 H   0  0  0  0  0  0  0  0  0  0  0  0
    2.5497    9.5999    2.3481 H   0  0  0  0  0  0  0  0  0  0  0  0
    0.8588    9.7958    2.7917 H   0  0  0  0  0  0  0  0  0  0  0  0
    1.6006   11.1801    6.5563 C   0  0  0  0  0  0  0  0  0  0  0  0
    2.1803   10.6672    7.3266 H   0  0  0  0  0  0  0  0  0  0  0  0
    2.2207   11.9752    6.1404 H   0  0  0  0  0  0  0  0  0  0  0  0
    0.3452   11.7738    7.1664 C   0  0  0  0  0  0  0  0  0  0  0  0
   -0.2260   12.3393    6.4320 H   0  0  0  0  0  0  0  0  0  0  0  0
    0.6384   12.4487    7.9643 H   0  0  0  0  0  0  0  0  0  0  0  0
   -0.2940   11.0144    7.6096 H   0  0  0  0  0  0  0  0  0  0  0  0
    0.3809   10.5778    5.0547 H   0  0  0  0  0  0  0  0  0  0  0  0
  1  2  1  0  0  0  0
  1  4  1  0  0  0  0
  3  1  1  0  0  0  0
  5  1  1  0  0  0  0
  6 28  1  0  0  0  0
  6 38  1  0  0  0  0
  7  8  1  0  0  0  0
  8  4  1  0  0  0  0
  8  9  2  0  0  0  0
  9 10  1  0  0  0  0
 11  9  1  0  0  0  0
 11 12  1  0  0  0  0
 13 11  2  0  0  0  0
 14 13  1  0  0  0  0
 14 15  1  0  0  0  0
 16 14  2  0  0  0  0
 17 16  1  0  0  0  0
 18 20  2  0  0  0  0
 18 16  1  0  0  0  0
 19 18  1  0  0  0  0
 20 22  1  0  0  0  0
 21 20  1  0  0  0  0
 22  7  2  0  0  0  0
 22 13  1  0  0  0  0
 23  5  1  0  0  0  0
 23  7  1  0  0  0  0
 24 23  1  0  0  0  0
 25 27  1  0  0  0  0
 25  5  1  0  0  0  0
 26 25  1  0  0  0  0
 28 25  1  0  0  0  0
 28 29  1  0  0  0  0
 30 28  1  0  0  0  0
 31 32  1  0  0  0  0
 31  6  1  0  0  0  0
 33 31  1  0  0  0  0
 34 35  1  0  0  0  0
 34 31  1  0  0  0  0
 36 34  1  0  0  0  0
 37 34  1  0  0  0  0
 38 41  1  0  0  0  0
 38 39  1  0  0  0  0
 40 38  1  0  0  0  0
 41 44  1  0  0  0  0
 41 43  1  0  0  0  0
 42 41  1  0  0  0  0
 45  6  1  0  0  0  0
M  END
$$$$
