CSD_code = WEWSOH | q = 0 | S = 0 | Stoichiometry = C17H22Br2N2OZn | MND = 4
 OpenBabel04212202113D

 45 47  0  0  0  0  0  0  0  0999 V2000
    3.0525   -0.8104   -1.7781 Zn  0  0  0  0  0  0  0  0  0  0  0  0
    1.0291   -2.0498   -2.0438 Br  0  0  0  0  0  0  0  0  0  0  0  0
    4.8855   -2.1576   -1.0559 Br  0  0  0  0  0  0  0  0  0  0  0  0
    3.2382    0.7745   -2.7313 O   0  0  0  0  0  0  0  0  0  0  0  0
    2.7272    0.2312   -0.0024 N   0  0  0  0  0  0  0  0  0  0  0  0
    2.1648   -2.6207    2.3056 N   0  0  0  0  0  4  0  0  0  0  0  0
    2.5079    2.3827   -1.1099 C   0  0  0  0  0  0  0  0  0  0  0  0
    2.9332    1.9687   -2.4056 C   0  0  0  0  0  0  0  0  0  0  0  0
    3.0855    2.9706   -3.4217 C   0  0  0  0  0  0  0  0  0  0  0  0
    3.4439    2.6260   -4.3807 H   0  0  0  0  0  0  0  0  0  0  0  0
    2.8038    4.2711   -3.1945 C   0  0  0  0  0  0  0  0  0  0  0  0
    2.9377    5.0069   -3.9756 H   0  0  0  0  0  0  0  0  0  0  0  0
    2.3005    4.7053   -1.9390 C   0  0  0  0  0  0  0  0  0  0  0  0
    1.9575    6.0512   -1.7397 C   0  0  0  0  0  0  0  0  0  0  0  0
    2.1119    6.7477   -2.5517 H   0  0  0  0  0  0  0  0  0  0  0  0
    1.4281    6.4767   -0.5492 C   0  0  0  0  0  0  0  0  0  0  0  0
    1.1665    7.5135   -0.3996 H   0  0  0  0  0  0  0  0  0  0  0  0
    1.2096    5.5464    0.4663 C   0  0  0  0  0  0  0  0  0  0  0  0
    0.7637    5.8666    1.3973 H   0  0  0  0  0  0  0  0  0  0  0  0
    1.5433    4.2255    0.2930 C   0  0  0  0  0  0  0  0  0  0  0  0
    1.3202    3.5405    1.0971 H   0  0  0  0  0  0  0  0  0  0  0  0
    2.1275    3.7597   -0.8990 C   0  0  0  0  0  0  0  0  0  0  0  0
    2.5558    1.5138    0.0032 C   0  0  0  0  0  3  0  0  0  0  0  0
    2.4891    1.9916    0.9856 H   0  0  0  0  0  0  0  0  0  0  0  0
    2.8674   -0.4490    1.2609 C   0  0  0  0  0  0  0  0  0  0  0  0
    2.8435    0.2624    2.1029 H   0  0  0  0  0  0  0  0  0  0  0  0
    3.8444   -0.9473    1.2572 H   0  0  0  0  0  0  0  0  0  0  0  0
    1.7603   -1.5021    1.4136 C   0  0  0  0  0  0  0  0  0  0  0  0
    1.5100   -1.9143    0.4345 H   0  0  0  0  0  0  0  0  0  0  0  0
    0.8612   -1.0291    1.8077 H   0  0  0  0  0  0  0  0  0  0  0  0
    1.0194   -3.1631    3.0781 C   0  0  0  0  0  0  0  0  0  0  0  0
    1.3078   -4.1415    3.4670 H   0  0  0  0  0  0  0  0  0  0  0  0
    0.1817   -3.2922    2.3918 H   0  0  0  0  0  0  0  0  0  0  0  0
    0.6405   -2.2567    4.2378 C   0  0  0  0  0  0  0  0  0  0  0  0
    1.4722   -2.1425    4.9309 H   0  0  0  0  0  0  0  0  0  0  0  0
   -0.1905   -2.6974    4.7808 H   0  0  0  0  0  0  0  0  0  0  0  0
    0.3295   -1.2714    3.9016 H   0  0  0  0  0  0  0  0  0  0  0  0
    2.9069   -3.6994    1.5749 C   0  0  0  0  0  0  0  0  0  0  0  0
    3.4064   -4.3140    2.3268 H   0  0  0  0  0  0  0  0  0  0  0  0
    3.6728   -3.2297    0.9513 H   0  0  0  0  0  0  0  0  0  0  0  0
    2.0282   -4.5697    0.6959 C   0  0  0  0  0  0  0  0  0  0  0  0
    1.3422   -5.1861    1.2695 H   0  0  0  0  0  0  0  0  0  0  0  0
    2.6849   -5.2265    0.1334 H   0  0  0  0  0  0  0  0  0  0  0  0
    1.4649   -3.9915   -0.0311 H   0  0  0  0  0  0  0  0  0  0  0  0
    2.8285   -2.2289    2.9822 H   0  0  0  0  0  0  0  0  0  0  0  0
  1  3  1  0  0  0  0
  1  5  1  0  0  0  0
  2  1  1  0  0  0  0
  4  8  1  0  0  0  0
  4  1  1  0  0  0  0
  5 23  1  0  0  0  0
  5 25  1  0  0  0  0
  6 45  1  0  0  0  0
  6 31  1  0  0  0  0
  7 22  1  0  0  0  0
  7 23  1  0  0  0  0
  8  7  2  0  0  0  0
  9 11  2  0  0  0  0
  9  8  1  0  0  0  0
 10  9  1  0  0  0  0
 11 13  1  0  0  0  0
 12 11  1  0  0  0  0
 13 14  2  0  0  0  0
 13 22  1  0  0  0  0
 14 16  1  0  0  0  0
 15 14  1  0  0  0  0
 16 17  1  0  0  0  0
 16 18  2  0  0  0  0
 18 19  1  0  0  0  0
 20 18  1  0  0  0  0
 20 21  1  0  0  0  0
 22 20  2  0  0  0  0
 23 24  1  0  0  0  0
 25 28  1  0  0  0  0
 25 26  1  0  0  0  0
 27 25  1  0  0  0  0
 28 30  1  0  0  0  0
 28  6  1  0  0  0  0
 29 28  1  0  0  0  0
 31 32  1  0  0  0  0
 31 34  1  0  0  0  0
 33 31  1  0  0  0  0
 34 36  1  0  0  0  0
 34 35  1  0  0  0  0
 37 34  1  0  0  0  0
 38  6  1  0  0  0  0
 38 39  1  0  0  0  0
 40 38  1  0  0  0  0
 41 42  1  0  0  0  0
 41 38  1  0  0  0  0
 43 41  1  0  0  0  0
 44 41  1  0  0  0  0
M  END
$$$$
