CSD_code = WEXNUJ | q = 0 | S = 0 | Stoichiometry = C22H20Cl2N4Pt | MND = 4
 OpenBabel04212202113D

 49 54  0  0  1  0  0  0  0  0999 V2000
    6.4842    3.2654   10.9317 Pt  0  0  0  0  0  0  0  0  0  0  0  0
    5.4531    2.8446    8.9186 Cl  0  0  0  0  0  0  0  0  0  0  0  0
    7.3621    5.2701   10.2221 Cl  0  0  0  0  0  0  0  0  0  0  0  0
    3.6430    2.8660   14.0393 C   0  0  0  0  0  0  0  0  0  0  0  0
    4.4406    3.8771   14.5836 C   0  0  0  0  0  0  0  0  0  0  0  0
    4.3146    4.1733   15.9386 C   0  0  0  0  0  0  0  0  0  0  0  0
    4.9113    4.9706   16.3581 H   0  0  0  0  0  0  0  0  0  0  0  0
    3.4384    3.4872   16.7569 C   0  0  0  0  0  0  0  0  0  0  0  0
    3.3657    3.7381   17.8041 H   0  0  0  0  0  0  0  0  0  0  0  0
    2.6486    2.4877   16.2182 C   0  0  0  0  0  0  0  0  0  0  0  0
    1.9502    1.9473   16.8387 H   0  0  0  0  0  0  0  0  0  0  0  0
    2.7520    2.1940   14.8724 C   0  0  0  0  0  0  0  0  0  0  0  0
    2.1153    1.4295   14.4503 H   0  0  0  0  0  0  0  0  0  0  0  0
    3.6847    2.4375   12.5897 C   0  0  0  0  0  0  0  0  0  0  0  0
    2.6979    2.0664   12.2965 H   0  0  0  0  0  0  0  0  0  0  0  0
    3.9580    3.2572   11.9149 H   0  0  0  0  0  0  0  0  0  0  0  0
    4.6566    1.3886   12.3716 N   0  0  0  0  0  0  0  0  0  0  0  0
    5.7810    1.5526   11.6552 C   0  0  2  0  0  3  0  0  0  0  0  0
    6.4216    0.3721   11.6795 N   0  0  0  0  0  0  0  0  0  0  0  0
    5.6934   -0.5386   12.3996 C   0  0  0  0  0  0  0  0  0  0  0  0
    6.0102   -1.5506   12.5426 H   0  0  0  0  0  0  0  0  0  0  0  0
    4.5829    0.1010   12.8351 C   0  0  0  0  0  0  0  0  0  0  0  0
    3.7639   -0.2568   13.4235 H   0  0  0  0  0  0  0  0  0  0  0  0
    7.6864    0.1325   11.0197 C   0  0  0  0  0  0  0  0  0  0  0  0
    7.8705    1.0030   10.3793 H   0  0  0  0  0  0  0  0  0  0  0  0
    7.5853   -0.7492   10.3795 H   0  0  0  0  0  0  0  0  0  0  0  0
    9.5958    0.9097   12.5593 C   0  0  0  0  0  0  0  0  0  0  0  0
    8.7996   -0.1030   12.0158 C   0  0  0  0  0  0  0  0  0  0  0  0
    9.0276   -1.4190   12.4105 C   0  0  0  0  0  0  0  0  0  0  0  0
    8.4316   -2.2075   11.9737 H   0  0  0  0  0  0  0  0  0  0  0  0
   10.0034   -1.7455   13.3322 C   0  0  0  0  0  0  0  0  0  0  0  0
   10.1545   -2.7747   13.6198 H   0  0  0  0  0  0  0  0  0  0  0  0
   10.7906   -0.7435   13.8703 C   0  0  0  0  0  0  0  0  0  0  0  0
   11.5649   -0.9793   14.5843 H   0  0  0  0  0  0  0  0  0  0  0  0
   10.5862    0.5643   13.4754 C   0  0  0  0  0  0  0  0  0  0  0  0
   11.2200    1.3409   13.8791 H   0  0  0  0  0  0  0  0  0  0  0  0
    9.4519    2.3772   12.2236 C   0  0  0  0  0  0  0  0  0  0  0  0
   10.4277    2.8638   12.3166 H   0  0  0  0  0  0  0  0  0  0  0  0
    9.0811    2.5425   11.2053 H   0  0  0  0  0  0  0  0  0  0  0  0
    8.5192    3.0387   13.1095 N   0  0  0  0  0  0  0  0  0  0  0  0
    7.3302    3.5214   12.7125 C   0  0  0  0  0  0  0  0  0  0  0  0
    6.7543    4.0545   13.8027 N   0  0  0  0  0  0  0  0  0  0  0  0
    7.5870    3.9196   14.8828 C   0  0  0  0  0  0  0  0  0  0  0  0
    7.3354    4.2828   15.8573 H   0  0  0  0  0  0  0  0  0  0  0  0
    8.6975    3.2804   14.4466 C   0  0  0  0  0  0  0  0  0  0  0  0
    9.5815    2.9900   14.9750 H   0  0  0  0  0  0  0  0  0  0  0  0
    5.4505    4.6808   13.7955 C   0  0  0  0  0  0  0  0  0  0  0  0
    5.1687    4.7954   12.7422 H   0  0  0  0  0  0  0  0  0  0  0  0
    5.5389    5.6779   14.2373 H   0  0  0  0  0  0  0  0  0  0  0  0
  1 18  1  0  0  0  0
  1 41  2  0  0  0  0
  2  1  1  0  0  0  0
  3  1  1  0  0  0  0
  4  5  2  0  0  0  0
  4 12  1  0  0  0  0
  5  6  1  0  0  0  0
  6  7  1  0  0  0  0
  6  8  2  0  0  0  0
  8  9  1  0  0  0  0
 10  8  1  0  0  0  0
 10 11  1  0  0  0  0
 12 10  2  0  0  0  0
 13 12  1  0  0  0  0
 14  4  1  0  0  0  0
 15 14  1  0  0  0  0
 16 14  1  0  0  0  0
 17 14  1  0  0  0  0
 17 22  1  0  0  0  0
 18 19  1  1  0  0  0
 18 17  1  0  0  0  0
 19 20  1  0  0  0  0
 20 21  1  0  0  0  0
 20 22  2  0  0  0  0
 22 23  1  0  0  0  0
 24 19  1  0  0  0  0
 24 28  1  0  0  0  0
 25 24  1  0  0  0  0
 26 24  1  0  0  0  0
 27 35  1  0  0  0  0
 28 29  1  0  0  0  0
 28 27  2  0  0  0  0
 29 31  2  0  0  0  0
 30 29  1  0  0  0  0
 31 32  1  0  0  0  0
 31 33  1  0  0  0  0
 33 34  1  0  0  0  0
 35 33  2  0  0  0  0
 35 36  1  0  0  0  0
 37 38  1  0  0  0  0
 37 27  1  0  0  0  0
 37 40  1  0  0  0  0
 39 37  1  0  0  0  0
 40 45  1  0  0  0  0
 41 40  1  0  0  0  0
 41 42  1  0  0  0  0
 42 43  1  0  0  0  0
 43 44  1  0  0  0  0
 45 43  2  0  0  0  0
 45 46  1  0  0  0  0
 47 42  1  0  0  0  0
 47 49  1  0  0  0  0
 47  5  1  0  0  0  0
 48 47  1  0  0  0  0
M  END
$$$$
