CSD_code = WEYBEJ | q = 0 | S = 0 | Stoichiometry = C12H8Cl2N2O4Pd | MND = 4
 OpenBabel04212202113D

 29 31  0  0  0  0  0  0  0  0999 V2000
    0.0726    9.1104   11.2316 Pd  0  0  0  0  0  0  0  0  0  0  0  0
   -0.7662   11.1510   11.1266 Cl  0  0  0  0  0  0  0  0  0  0  0  0
   -1.9826    8.3144   11.1520 Cl  0  0  0  0  0  0  0  0  0  0  0  0
    5.3919   13.0281   11.3451 O   0  0  0  0  0  0  0  0  0  0  0  0
    3.2285   13.5839   11.2758 O   0  0  0  0  0  0  0  0  0  0  0  0
    3.5642   14.4943   11.2670 H   0  0  0  0  0  0  0  0  0  0  0  0
   -0.9069    3.5755   11.3891 O   0  0  0  0  0  0  0  0  0  0  0  0
    1.0828    2.5781   11.5743 O   0  0  0  0  0  0  0  0  0  0  0  0
    0.5457    1.7701   11.5857 H   0  0  0  0  0  0  0  0  0  0  0  0
    1.9934    9.7081   11.3046 N   0  0  0  0  0  0  0  0  0  0  0  0
    0.9672    7.3057   11.3349 N   0  0  0  0  0  0  0  0  0  0  0  0
    4.2313   12.7093   11.3187 C   0  0  0  0  0  0  0  0  0  0  0  0
    3.7656   11.2968   11.3334 C   0  0  0  0  0  0  0  0  0  0  0  0
    4.7100   10.2666   11.3948 C   0  0  0  0  0  0  0  0  0  0  0  0
    5.7597   10.5139   11.4268 H   0  0  0  0  0  0  0  0  0  0  0  0
    4.2681    8.9628   11.4129 C   0  0  0  0  0  0  0  0  0  0  0  0
    4.9788    8.1545   11.4597 H   0  0  0  0  0  0  0  0  0  0  0  0
    2.8947    8.6965   11.3701 C   0  0  0  0  0  0  0  0  0  0  0  0
    2.4180   10.9688   11.2878 C   0  0  0  0  0  0  0  0  0  0  0  0
    1.6503   11.7350   11.2354 H   0  0  0  0  0  0  0  0  0  0  0  0
    2.3222    7.3575   11.3935 C   0  0  0  0  0  0  0  0  0  0  0  0
    3.0802    6.1848   11.4757 C   0  0  0  0  0  0  0  0  0  0  0  0
    4.1554    6.2353   11.5215 H   0  0  0  0  0  0  0  0  0  0  0  0
    2.4497    4.9599   11.5001 C   0  0  0  0  0  0  0  0  0  0  0  0
    3.0122    4.0425   11.5645 H   0  0  0  0  0  0  0  0  0  0  0  0
    1.0534    4.9257   11.4396 C   0  0  0  0  0  0  0  0  0  0  0  0
    0.3571    6.1255   11.3565 C   0  0  0  0  0  0  0  0  0  0  0  0
   -0.7285    6.1301   11.3065 H   0  0  0  0  0  0  0  0  0  0  0  0
    0.2893    3.6515   11.4619 C   0  0  0  0  0  0  0  0  0  0  0  0
  1 10  1  0  0  0  0
  1 11  1  0  0  0  0
  2  1  1  0  0  0  0
  3  1  1  0  0  0  0
  5 12  1  0  0  0  0
  6  5  1  0  0  0  0
  7 29  2  0  0  0  0
  8  9  1  0  0  0  0
 10 18  1  0  0  0  0
 11 27  1  0  0  0  0
 11 21  1  0  0  0  0
 12 13  1  0  0  0  0
 12  4  2  0  0  0  0
 13 14  1  0  0  0  0
 14 16  2  0  0  0  0
 14 15  1  0  0  0  0
 16 17  1  0  0  0  0
 18 21  2  0  0  0  0
 18 16  1  0  0  0  0
 19 10  1  0  0  0  0
 19 13  2  0  0  0  0
 20 19  1  0  0  0  0
 21 22  1  0  0  0  0
 22 24  2  0  0  0  0
 22 23  1  0  0  0  0
 24 25  1  0  0  0  0
 26 29  1  0  0  0  0
 26 24  1  0  0  0  0
 27 26  2  0  0  0  0
 28 27  1  0  0  0  0
 29  8  1  0  0  0  0
M  END
$$$$
