CSD_code = WEYGIS | q = 0 | S = 0 | Stoichiometry = C16H28Br2N4Pd | MND = 4
 OpenBabel04212202113D

 51 52  0  0  1  0  0  0  0  0999 V2000
    5.9780    2.1873    3.1454 Pd  0  0  0  0  0  0  0  0  0  0  0  0
    6.5351    0.9960    5.1941 Br  0  0  0  0  0  0  0  0  0  0  0  0
    5.4449    3.3418    1.0525 Br  0  0  0  0  0  0  0  0  0  0  0  0
    8.7146    3.2479    2.5469 N   0  0  0  0  0  0  0  0  0  0  0  0
    7.8655    4.3289    4.1982 N   0  0  0  0  0  0  0  0  0  0  0  0
    7.6312    3.3204    3.3381 C   0  0  0  0  0  0  0  0  0  0  0  0
    9.6235    4.2095    2.8986 C   0  0  0  0  0  0  0  0  0  0  0  0
   10.5588    4.3285    2.3919 H   0  0  0  0  0  0  0  0  0  0  0  0
    9.0881    4.8883    3.9405 C   0  0  0  0  0  0  0  0  0  0  0  0
    9.4757    5.7077    4.5102 H   0  0  0  0  0  0  0  0  0  0  0  0
    6.9691    4.7223    5.2615 C   0  0  0  0  0  0  0  0  0  0  0  0
    7.4261    5.5611    5.7898 H   0  0  0  0  0  0  0  0  0  0  0  0
    6.8577    3.8807    5.9580 H   0  0  0  0  0  0  0  0  0  0  0  0
    5.5914    5.1082    4.7143 C   0  0  0  0  0  0  0  0  0  0  0  0
    5.6922    5.9478    4.0215 H   0  0  0  0  0  0  0  0  0  0  0  0
    5.1960    4.2422    4.1427 H   0  0  0  0  0  0  0  0  0  0  0  0
    4.6017    5.4619    5.8223 C   0  0  0  0  0  0  0  0  0  0  0  0
    4.5816    4.6523    6.5557 H   0  0  0  0  0  0  0  0  0  0  0  0
    3.6046    5.5420    5.3836 H   0  0  0  0  0  0  0  0  0  0  0  0
    4.9336    6.7737    6.5247 C   0  0  0  0  0  0  0  0  0  0  0  0
    5.8735    6.7054    7.0663 H   0  0  0  0  0  0  0  0  0  0  0  0
    4.1528    7.0228    7.2392 H   0  0  0  0  0  0  0  0  0  0  0  0
    5.0065    7.5843    5.8028 H   0  0  0  0  0  0  0  0  0  0  0  0
    8.8680    2.3021    1.4736 C   0  0  0  0  0  0  0  0  0  0  0  0
    9.8729    1.8788    1.4833 H   0  0  0  0  0  0  0  0  0  0  0  0
    8.6824    2.7836    0.5099 H   0  0  0  0  0  0  0  0  0  0  0  0
    8.1304    1.4975    1.6130 H   0  0  0  0  0  0  0  0  0  0  0  0
    4.3235    0.0220    1.9855 N   0  0  0  0  0  0  0  0  0  0  0  0
    3.1382    1.0727    3.4355 N   0  0  0  0  0  0  0  0  0  0  0  0
    4.3595    1.0260    2.8795 C   0  0  2  0  0  3  0  0  0  0  0  0
    3.0826   -0.5548    1.9726 C   0  0  0  0  0  0  0  0  0  0  0  0
    2.8344   -1.3710    1.3258 H   0  0  0  0  0  0  0  0  0  0  0  0
    2.3369    0.1034    2.8910 C   0  0  0  0  0  0  0  0  0  0  0  0
    1.3181   -0.0327    3.1892 H   0  0  0  0  0  0  0  0  0  0  0  0
    2.7678    1.9481    4.5198 C   0  0  0  0  0  0  0  0  0  0  0  0
    1.8015    2.4112    4.2954 H   0  0  0  0  0  0  0  0  0  0  0  0
    3.5342    2.7359    4.5834 H   0  0  0  0  0  0  0  0  0  0  0  0
    2.7074    1.1872    5.8456 C   0  0  0  0  0  0  0  0  0  0  0  0
    3.6875    0.7480    6.0431 H   0  0  0  0  0  0  0  0  0  0  0  0
    1.9821    0.3738    5.7654 H   0  0  0  0  0  0  0  0  0  0  0  0
    2.3229    2.1031    7.0029 C   0  0  0  0  0  0  0  0  0  0  0  0
    3.0503    2.9136    7.0749 H   0  0  0  0  0  0  0  0  0  0  0  0
    1.3444    2.5498    6.8086 H   0  0  0  0  0  0  0  0  0  0  0  0
    2.2875    1.3417    8.3215 C   0  0  0  0  0  0  0  0  0  0  0  0
    1.5531    0.5402    8.2818 H   0  0  0  0  0  0  0  0  0  0  0  0
    2.0255    2.0072    9.1404 H   0  0  0  0  0  0  0  0  0  0  0  0
    3.2612    0.9047    8.5288 H   0  0  0  0  0  0  0  0  0  0  0  0
    5.4451   -0.3467    1.1613 C   0  0  0  0  0  0  0  0  0  0  0  0
    6.3694   -0.2339    1.7494 H   0  0  0  0  0  0  0  0  0  0  0  0
    5.4982    0.2997    0.2785 H   0  0  0  0  0  0  0  0  0  0  0  0
    5.3485   -1.3842    0.8447 H   0  0  0  0  0  0  0  0  0  0  0  0
  1  6  2  0  0  0  0
  1  2  1  0  0  0  0
  3  1  1  0  0  0  0
  4  7  1  0  0  0  0
  4  6  1  0  0  0  0
  5 11  1  0  0  0  0
  6  5  1  0  0  0  0
  7  9  2  0  0  0  0
  8  7  1  0  0  0  0
  9  5  1  0  0  0  0
  9 10  1  0  0  0  0
 11 12  1  0  0  0  0
 11 13  1  0  0  0  0
 14 11  1  0  0  0  0
 14 17  1  0  0  0  0
 15 14  1  0  0  0  0
 16 14  1  0  0  0  0
 17 20  1  0  0  0  0
 17 18  1  0  0  0  0
 19 17  1  0  0  0  0
 20 21  1  0  0  0  0
 20 22  1  0  0  0  0
 23 20  1  0  0  0  0
 24 25  1  0  0  0  0
 24 27  1  0  0  0  0
 24  4  1  0  0  0  0
 26 24  1  0  0  0  0
 28 30  1  0  0  0  0
 29 35  1  0  0  0  0
 30  1  1  6  0  0  0
 30 29  1  0  0  0  0
 31 28  1  0  0  0  0
 31 33  2  0  0  0  0
 32 31  1  0  0  0  0
 33 34  1  0  0  0  0
 33 29  1  0  0  0  0
 35 37  1  0  0  0  0
 35 38  1  0  0  0  0
 36 35  1  0  0  0  0
 38 39  1  0  0  0  0
 38 41  1  0  0  0  0
 40 38  1  0  0  0  0
 41 42  1  0  0  0  0
 41 44  1  0  0  0  0
 43 41  1  0  0  0  0
 44 47  1  0  0  0  0
 44 46  1  0  0  0  0
 45 44  1  0  0  0  0
 48 49  1  0  0  0  0
 48 28  1  0  0  0  0
 50 48  1  0  0  0  0
 51 48  1  0  0  0  0
M  END
$$$$
