CSD_code = WEYVAX | q = 1 | S = 0 | Stoichiometry = C8H19ClCoN4O2(1+) | MND = 6
 OpenBabel04212202113D

 35 38  0  0  1  0  0  0  0  0999 V2000
    0.3559    2.0973    2.5418 Co  0  0  0  0  0  0  0  0  0  0  0  0
   -0.9072    1.2432    3.8025 N   0  0  0  0  0  4  0  0  0  0  0  0
   -0.4417    3.7971    3.0869 N   0  0  1  0  0  4  0  0  0  0  0  0
    1.5811    3.0000    1.3191 N   0  0  1  0  0  4  0  0  0  0  0  0
    1.2321    0.4196    1.9946 N   0  0  0  0  0  4  0  0  0  0  0  0
   -1.9167    2.2429    4.1878 C   0  0  0  0  0  0  0  0  0  0  0  0
   -1.1806    3.5662    4.3424 C   0  0  0  0  0  0  0  0  0  0  0  0
    0.5008    4.9335    3.1735 C   0  0  0  0  0  0  0  0  0  0  0  0
    1.9510    4.4546    3.3028 C   0  0  2  0  0  0  0  0  0  0  0  0
    2.5094    3.9407    1.9713 C   0  0  0  0  0  0  0  0  0  0  0  0
    2.2588    1.9792    0.4940 C   0  0  0  0  0  0  0  0  0  0  0  0
    2.5260    0.7752    1.3866 C   0  0  0  0  0  0  0  0  0  0  0  0
    2.0552    3.3106    4.3612 C   0  0  0  0  0  0  0  0  0  0  0  0
    1.5381    2.1940    3.9956 O   0  0  0  0  0  0  0  0  0  0  0  0
    2.5991    3.5042    5.4183 O   0  0  0  0  0  0  0  0  0  0  0  0
   -1.0964    1.8989    0.9097 Cl  0  0  0  0  0  0  0  0  0  0  0  0
   -0.3627    0.9906    4.6319 H   0  0  0  0  0  0  0  0  0  0  0  0
   -1.3779    0.4009    3.4706 H   0  0  0  0  0  0  0  0  0  0  0  0
   -1.1444    3.9976    2.3698 H   0  0  0  0  0  0  0  0  0  0  0  0
    0.9800    3.5373    0.6918 H   0  0  0  0  0  0  0  0  0  0  0  0
    1.3936   -0.2464    2.7506 H   0  0  0  0  0  0  0  0  0  0  0  0
    0.6502   -0.0416    1.2905 H   0  0  0  0  0  0  0  0  0  0  0  0
   -2.4286    1.9688    5.1146 H   0  0  0  0  0  0  0  0  0  0  0  0
   -2.6542    2.3166    3.3842 H   0  0  0  0  0  0  0  0  0  0  0  0
   -1.8765    4.3862    4.5452 H   0  0  0  0  0  0  0  0  0  0  0  0
   -0.4634    3.4995    5.1649 H   0  0  0  0  0  0  0  0  0  0  0  0
    0.4037    5.5609    2.2830 H   0  0  0  0  0  0  0  0  0  0  0  0
    0.2535    5.5440    4.0460 H   0  0  0  0  0  0  0  0  0  0  0  0
    2.5734    5.2786    3.6569 H   0  0  0  0  0  0  0  0  0  0  0  0
    2.7125    4.7851    1.3041 H   0  0  0  0  0  0  0  0  0  0  0  0
    3.4538    3.4314    2.1742 H   0  0  0  0  0  0  0  0  0  0  0  0
    1.5822    1.6856   -0.3121 H   0  0  0  0  0  0  0  0  0  0  0  0
    3.1803    2.3716    0.0569 H   0  0  0  0  0  0  0  0  0  0  0  0
    3.2168    1.0404    2.1896 H   0  0  0  0  0  0  0  0  0  0  0  0
    2.9488   -0.0547    0.8131 H   0  0  0  0  0  0  0  0  0  0  0  0
  1  3  1  0  0  0  0
  1  2  1  0  0  0  0
  1 14  1  0  0  0  0
  2  6  1  0  0  0  0
  2 17  1  0  0  0  0
  3 19  1  6  0  0  0
  3  8  1  0  0  0  0
  3  7  1  0  0  0  0
  4 20  1  6  0  0  0
  4 10  1  0  0  0  0
  4  1  1  0  0  0  0
  5  1  1  0  0  0  0
  5 21  1  0  0  0  0
  6  7  1  0  0  0  0
  6 23  1  0  0  0  0
  7 25  1  0  0  0  0
  7 26  1  0  0  0  0
  8  9  1  0  0  0  0
  8 28  1  0  0  0  0
  9 29  1  1  0  0  0
  9 13  1  0  0  0  0
 10 31  1  0  0  0  0
 10  9  1  0  0  0  0
 11  4  1  0  0  0  0
 11 12  1  0  0  0  0
 12  5  1  0  0  0  0
 12 34  1  0  0  0  0
 13 15  2  0  0  0  0
 14 13  1  0  0  0  0
 16  1  1  0  0  0  0
 18  2  1  0  0  0  0
 22  5  1  0  0  0  0
 24  6  1  0  0  0  0
 27  8  1  0  0  0  0
 30 10  1  0  0  0  0
 32 11  1  0  0  0  0
 33 11  1  0  0  0  0
 35 12  1  0  0  0  0
M  END
$$$$
