CSD_code = WEZPEY | q = -1 | S = 0 | Stoichiometry = C7H13Cl3N3Zn(1-) | MND = 4
 OpenBabel04212202113D

 27 28  0  0  1  0  0  0  0  0999 V2000
    4.6527    5.7135   11.7586 Zn  0  0  0  0  0  0  0  0  0  0  0  0
    4.4141    7.9822   11.3355 Cl  0  0  0  0  0  0  0  0  0  0  0  0
    5.7330    4.3852   10.2842 Cl  0  0  0  0  0  0  0  0  0  0  0  0
    5.1719    5.3913   14.0130 Cl  0  0  0  0  0  0  0  0  0  0  0  0
    2.7065    4.9959   12.0299 N   0  0  0  0  0  0  0  0  0  0  0  0
    2.1086    6.8881   13.1422 N   0  0  0  0  0  0  0  0  0  0  0  0
    2.7149    7.3430   12.4582 H   0  0  0  0  0  0  0  0  0  0  0  0
    1.4594    4.8451   14.0314 N   0  0  1  0  0  0  0  0  0  0  0  0
    2.1461    5.5384   13.0724 C   0  0  1  0  0  3  0  0  0  0  0  0
    2.6049    3.5649   11.8245 C   0  0  0  0  0  0  0  0  0  0  0  0
    3.5106    3.0773   12.2052 H   0  0  0  0  0  0  0  0  0  0  0  0
    2.5757    3.3957   10.7442 H   0  0  0  0  0  0  0  0  0  0  0  0
    1.3784    2.9790   12.5101 C   0  0  0  0  0  0  0  0  0  0  0  0
    1.3701    1.8919   12.4229 H   0  0  0  0  0  0  0  0  0  0  0  0
    0.4726    3.3812   12.0502 H   0  0  0  0  0  0  0  0  0  0  0  0
    1.4314    3.4012   13.9698 C   0  0  0  0  0  0  0  0  0  0  0  0
    0.5409    3.0586   14.5116 H   0  0  0  0  0  0  0  0  0  0  0  0
    2.3212    2.9715   14.4527 H   0  0  0  0  0  0  0  0  0  0  0  0
    1.2442    5.4423   15.3346 C   0  0  0  0  0  0  0  0  0  0  0  0
    1.4039    4.6741   16.0979 H   0  0  0  0  0  0  0  0  0  0  0  0
    0.2032    5.7928   15.4105 H   0  0  0  0  0  0  0  0  0  0  0  0
    2.2065    6.6024   15.5444 C   0  0  0  0  0  0  0  0  0  0  0  0
    2.0376    7.0741   16.5123 H   0  0  0  0  0  0  0  0  0  0  0  0
    3.2330    6.2302   15.4890 H   0  0  0  0  0  0  0  0  0  0  0  0
    1.9851    7.5852   14.4047 C   0  0  0  0  0  0  0  0  0  0  0  0
    0.9813    8.0309   14.4756 H   0  0  0  0  0  0  0  0  0  0  0  0
    2.7227    8.3894   14.4348 H   0  0  0  0  0  0  0  0  0  0  0  0
  1  5  1  0  0  0  0
  1  4  1  0  0  0  0
  2  1  1  0  0  0  0
  3  1  1  0  0  0  0
  6 25  1  0  0  0  0
  7  6  1  0  0  0  0
  8 16  1  1  0  0  0
  8 19  1  0  0  0  0
  9  5  1  6  0  0  0
  9  6  1  0  0  0  0
  9  8  1  0  0  0  0
 10  5  1  0  0  0  0
 10 11  1  0  0  0  0
 10 13  1  0  0  0  0
 12 10  1  0  0  0  0
 13 16  1  0  0  0  0
 14 13  1  0  0  0  0
 15 13  1  0  0  0  0
 16 18  1  0  0  0  0
 16 17  1  0  0  0  0
 19 21  1  0  0  0  0
 19 22  1  0  0  0  0
 19 20  1  0  0  0  0
 22 23  1  0  0  0  0
 24 22  1  0  0  0  0
 25 27  1  0  0  0  0
 25 26  1  0  0  0  0
 25 22  1  0  0  0  0
M  END
$$$$
