CSD_code = WEZPIC | q = 0 | S = 0 | Stoichiometry = C14H26Cl2N6Zn | MND = 4
 OpenBabel04212202113D

 49 52  0  0  1  0  0  0  0  0999 V2000
    0.8463   12.2748    4.3358 Zn  0  0  0  0  0  0  0  0  0  0  0  0
    1.9038   12.3971    2.3494 Cl  0  0  0  0  0  0  0  0  0  0  0  0
   -1.4025   12.1542    4.4192 Cl  0  0  0  0  0  0  0  0  0  0  0  0
    1.3712   13.8709    5.4778 N   0  0  0  0  0  0  0  0  0  0  0  0
    3.2884   14.3226    4.3322 N   0  0  0  0  0  0  0  0  0  0  0  0
    2.9473   13.6654    3.6283 H   0  0  0  0  0  0  0  0  0  0  0  0
    2.7340   15.6633    6.1495 N   0  0  2  0  0  0  0  0  0  0  0  0
    1.6432   10.6768    5.3051 N   0  0  0  0  0  0  0  0  0  0  0  0
   -0.2251   10.2245    6.5283 N   0  0  0  0  0  0  0  0  0  0  0  0
   -0.7084   10.8828    5.9145 H   0  0  0  0  0  0  0  0  0  0  0  0
    1.6523    8.8845    6.8245 N   0  0  2  0  0  0  0  0  0  0  0  0
    2.4278   14.6276    5.3216 C   0  0  2  0  0  3  0  0  0  0  0  0
    0.4974   14.1396    6.6047 C   0  0  0  0  0  0  0  0  0  0  0  0
    0.8833   13.6294    7.4976 H   0  0  0  0  0  0  0  0  0  0  0  0
   -0.4817   13.7202    6.3730 H   0  0  0  0  0  0  0  0  0  0  0  0
    0.4005   15.6371    6.8601 C   0  0  0  0  0  0  0  0  0  0  0  0
    0.0044   16.1230    5.9669 H   0  0  0  0  0  0  0  0  0  0  0  0
   -0.2615   15.8496    7.6985 H   0  0  0  0  0  0  0  0  0  0  0  0
    1.8023   16.1472    7.1492 C   0  0  0  0  0  0  0  0  0  0  0  0
    1.8222   17.2431    7.1367 H   0  0  0  0  0  0  0  0  0  0  0  0
    2.1292   15.8142    8.1447 H   0  0  0  0  0  0  0  0  0  0  0  0
    3.9244   16.4729    5.9856 C   0  0  0  0  0  0  0  0  0  0  0  0
    4.2749   16.7574    6.9842 H   0  0  0  0  0  0  0  0  0  0  0  0
    3.6759   17.3955    5.4402 H   0  0  0  0  0  0  0  0  0  0  0  0
    5.0121   15.7127    5.2427 C   0  0  0  0  0  0  0  0  0  0  0  0
    5.3649   14.8812    5.8546 H   0  0  0  0  0  0  0  0  0  0  0  0
    5.8505   16.3736    5.0272 H   0  0  0  0  0  0  0  0  0  0  0  0
    4.3979   15.1633    3.9633 C   0  0  0  0  0  0  0  0  0  0  0  0
    4.0786   15.9900    3.3126 H   0  0  0  0  0  0  0  0  0  0  0  0
    5.1119   14.5515    3.4088 H   0  0  0  0  0  0  0  0  0  0  0  0
    1.0409    9.9195    6.1866 C   0  0  2  0  0  3  0  0  0  0  0  0
    3.0386   10.4079    5.0112 C   0  0  0  0  0  0  0  0  0  0  0  0
    3.6733   10.9185    5.7481 H   0  0  0  0  0  0  0  0  0  0  0  0
    3.2577   10.8271    4.0291 H   0  0  0  0  0  0  0  0  0  0  0  0
    3.3115    8.9105    5.0353 C   0  0  0  0  0  0  0  0  0  0  0  0
    4.3550    8.6984    4.8066 H   0  0  0  0  0  0  0  0  0  0  0  0
    2.6815    8.4245    4.2884 H   0  0  0  0  0  0  0  0  0  0  0  0
    2.9585    8.4004    6.4225 C   0  0  0  0  0  0  0  0  0  0  0  0
    2.9383    7.3045    6.4339 H   0  0  0  0  0  0  0  0  0  0  0  0
    3.7112    8.7327    7.1517 H   0  0  0  0  0  0  0  0  0  0  0  0
    0.9807    8.0698    7.8167 C   0  0  0  0  0  0  0  0  0  0  0  0
    1.7236    7.7788    8.5680 H   0  0  0  0  0  0  0  0  0  0  0  0
    0.5977    7.1508    7.3482 H   0  0  0  0  0  0  0  0  0  0  0  0
   -0.1625    8.8284    8.4728 C   0  0  0  0  0  0  0  0  0  0  0  0
   -0.7240    8.1654    9.1296 H   0  0  0  0  0  0  0  0  0  0  0  0
    0.2344    9.6568    9.0613 H   0  0  0  0  0  0  0  0  0  0  0  0
   -1.0434    9.3831    7.3628 C   0  0  0  0  0  0  0  0  0  0  0  0
   -1.4913    8.5592    6.7888 H   0  0  0  0  0  0  0  0  0  0  0  0
   -1.8527    9.9956    7.7645 H   0  0  0  0  0  0  0  0  0  0  0  0
  1  3  1  0  0  0  0
  1  8  1  0  0  0  0
  1  4  1  0  0  0  0
  2  1  1  0  0  0  0
  4 13  1  0  0  0  0
  6  5  1  0  0  0  0
  7 22  1  6  0  0  0
  7 19  1  0  0  0  0
  9 47  1  0  0  0  0
 10  9  1  0  0  0  0
 11 38  1  6  0  0  0
 11 41  1  0  0  0  0
 12  5  1  1  0  0  0
 12  4  1  0  0  0  0
 12  7  1  0  0  0  0
 13 16  1  0  0  0  0
 13 14  1  0  0  0  0
 15 13  1  0  0  0  0
 16 19  1  0  0  0  0
 16 18  1  0  0  0  0
 17 16  1  0  0  0  0
 19 21  1  0  0  0  0
 20 19  1  0  0  0  0
 22 23  1  0  0  0  0
 24 22  1  0  0  0  0
 25 26  1  0  0  0  0
 25 22  1  0  0  0  0
 27 25  1  0  0  0  0
 28  5  1  0  0  0  0
 28 25  1  0  0  0  0
 29 28  1  0  0  0  0
 30 28  1  0  0  0  0
 31  8  1  1  0  0  0
 31  9  1  0  0  0  0
 31 11  1  0  0  0  0
 32 35  1  0  0  0  0
 32  8  1  0  0  0  0
 32 33  1  0  0  0  0
 34 32  1  0  0  0  0
 35 38  1  0  0  0  0
 36 35  1  0  0  0  0
 37 35  1  0  0  0  0
 38 39  1  0  0  0  0
 38 40  1  0  0  0  0
 41 44  1  0  0  0  0
 41 42  1  0  0  0  0
 43 41  1  0  0  0  0
 44 46  1  0  0  0  0
 44 45  1  0  0  0  0
 47 49  1  0  0  0  0
 47 44  1  0  0  0  0
 48 47  1  0  0  0  0
M  END
$$$$
