CSD_code = WIBCIU | q = 0 | S = 0 | Stoichiometry = C25H38Cl2O2P2Pt | MND = 4
 OpenBabel04212202113D

 70 72  0  0  0  0  0  0  0  0999 V2000
    6.9869    0.9446    8.4465 Pt  0  0  0  0  0  0  0  0  0  0  0  0
    7.1219    0.5836    6.1280 Cl  0  0  0  0  0  0  0  0  0  0  0  0
    6.8822    1.2955   10.7233 Cl  0  0  0  0  0  0  0  0  0  0  0  0
    5.1283    2.2302    8.0239 P   0  0  0  0  0  4  0  0  0  0  0  0
    8.8379   -0.4005    8.6943 P   0  0  0  0  0  4  0  0  0  0  0  0
    3.8738    1.3541    7.4878 O   0  0  0  0  0  0  0  0  0  0  0  0
    8.4432   -1.9291    8.3552 O   0  0  0  0  0  0  0  0  0  0  0  0
    4.8556   -1.2143    8.4617 C   0  0  0  0  0  0  0  0  0  0  0  0
    4.3595    4.3538    6.2773 C   0  0  0  0  0  0  0  0  0  0  0  0
    3.3980    3.8433    6.2398 H   0  0  0  0  0  0  0  0  0  0  0  0
    4.5362    4.8180    5.3079 H   0  0  0  0  0  0  0  0  0  0  0  0
    4.3065    5.1448    7.0222 H   0  0  0  0  0  0  0  0  0  0  0  0
   10.3082    0.6419   10.8197 C   0  0  0  0  0  0  0  0  0  0  0  0
    9.6398    1.4985   10.7528 H   0  0  0  0  0  0  0  0  0  0  0  0
   11.1871    0.8273   10.2054 H   0  0  0  0  0  0  0  0  0  0  0  0
   10.6317    0.5460   11.8547 H   0  0  0  0  0  0  0  0  0  0  0  0
   10.2839   -0.9208    6.3313 C   0  0  0  0  0  0  0  0  0  0  0  0
   10.2646   -1.9821    6.5687 H   0  0  0  0  0  0  0  0  0  0  0  0
   11.1685   -0.7153    5.7303 H   0  0  0  0  0  0  0  0  0  0  0  0
    9.4033   -0.6775    5.7419 H   0  0  0  0  0  0  0  0  0  0  0  0
    4.0135    0.2810    6.6223 C   0  0  0  0  0  0  0  0  0  0  0  0
    9.5809   -0.6238   10.3830 C   0  0  0  0  0  0  0  0  0  0  0  0
    8.7204   -0.7658   11.0473 H   0  0  0  0  0  0  0  0  0  0  0  0
    4.1482   -1.8151    4.8116 C   0  0  0  0  0  0  0  0  0  0  0  0
    4.2028   -2.6358    4.1129 H   0  0  0  0  0  0  0  0  0  0  0  0
    5.4805    3.3712    6.5883 C   0  0  0  0  0  0  0  0  0  0  0  0
    5.5730    2.6739    5.7446 H   0  0  0  0  0  0  0  0  0  0  0  0
    3.6327    0.4680    5.3018 C   0  0  0  0  0  0  0  0  0  0  0  0
    3.2862    1.4439    4.9966 H   0  0  0  0  0  0  0  0  0  0  0  0
   10.4770   -1.8541   10.4633 C   0  0  0  0  0  0  0  0  0  0  0  0
    9.9634   -2.7331   10.0815 H   0  0  0  0  0  0  0  0  0  0  0  0
   10.7566   -2.0381   11.4994 H   0  0  0  0  0  0  0  0  0  0  0  0
   11.3907   -1.7163    9.8888 H   0  0  0  0  0  0  0  0  0  0  0  0
    4.1456   -1.1844   10.7789 C   0  0  0  0  0  0  0  0  0  0  0  0
    3.4012   -0.9317   11.5187 H   0  0  0  0  0  0  0  0  0  0  0  0
   10.3181   -0.0831    7.6029 C   0  0  0  0  0  0  0  0  0  0  0  0
   11.2064   -0.3601    8.1822 H   0  0  0  0  0  0  0  0  0  0  0  0
    6.2681   -2.1130   10.1971 C   0  0  0  0  0  0  0  0  0  0  0  0
    7.1857   -2.6062   10.4841 H   0  0  0  0  0  0  0  0  0  0  0  0
    3.5388    2.3502   10.3123 C   0  0  0  0  0  0  0  0  0  0  0  0
    2.8139    1.6787    9.8613 H   0  0  0  0  0  0  0  0  0  0  0  0
    3.0243    2.9677   11.0472 H   0  0  0  0  0  0  0  0  0  0  0  0
    4.2972    1.7636   10.8250 H   0  0  0  0  0  0  0  0  0  0  0  0
    4.5299   -2.0041    6.1261 C   0  0  0  0  0  0  0  0  0  0  0  0
    4.8593   -2.9779    6.4569 H   0  0  0  0  0  0  0  0  0  0  0  0
    5.1063    4.2610    9.9041 C   0  0  0  0  0  0  0  0  0  0  0  0
    5.4858    4.9776    9.1803 H   0  0  0  0  0  0  0  0  0  0  0  0
    5.9485    3.7544   10.3712 H   0  0  0  0  0  0  0  0  0  0  0  0
    4.5689    4.8113   10.6748 H   0  0  0  0  0  0  0  0  0  0  0  0
    4.4822   -0.9660    7.0535 C   0  0  0  0  0  0  0  0  0  0  0  0
    4.1823    3.2383    9.2548 C   0  0  0  0  0  0  0  0  0  0  0  0
    3.3899    3.7449    8.6911 H   0  0  0  0  0  0  0  0  0  0  0  0
   10.3726    1.4085    7.2848 C   0  0  0  0  0  0  0  0  0  0  0  0
   10.2870    2.0050    8.1924 H   0  0  0  0  0  0  0  0  0  0  0  0
    9.5522    1.6702    6.6196 H   0  0  0  0  0  0  0  0  0  0  0  0
   11.3092    1.6610    6.7898 H   0  0  0  0  0  0  0  0  0  0  0  0
    5.3346   -1.7812   11.1594 C   0  0  0  0  0  0  0  0  0  0  0  0
    5.5308   -1.9944   12.1991 H   0  0  0  0  0  0  0  0  0  0  0  0
    6.0577   -1.8325    8.8493 C   0  0  0  0  0  0  0  0  0  0  0  0
    3.9098   -0.9178    9.4449 C   0  0  0  0  0  0  0  0  0  0  0  0
    2.9653   -0.4942    9.1381 H   0  0  0  0  0  0  0  0  0  0  0  0
    7.1348   -2.2512    7.8768 C   0  0  0  0  0  0  0  0  0  0  0  0
    7.1416   -3.3426    7.7733 H   0  0  0  0  0  0  0  0  0  0  0  0
    6.9772   -1.8043    6.8921 H   0  0  0  0  0  0  0  0  0  0  0  0
    6.8301    4.0568    6.7769 C   0  0  0  0  0  0  0  0  0  0  0  0
    7.5546    3.3474    7.1875 H   0  0  0  0  0  0  0  0  0  0  0  0
    6.7580    4.9005    7.4585 H   0  0  0  0  0  0  0  0  0  0  0  0
    7.2090    4.4194    5.8233 H   0  0  0  0  0  0  0  0  0  0  0  0
    3.6996   -0.5741    4.3962 C   0  0  0  0  0  0  0  0  0  0  0  0
    3.4062   -0.4131    3.3703 H   0  0  0  0  0  0  0  0  0  0  0  0
  1  5  1  0  0  0  0
  1  3  1  0  0  0  0
  2  1  1  0  0  0  0
  4  1  1  0  0  0  0
  4 51  1  0  0  0  0
  5 22  1  0  0  0  0
  6  4  1  0  0  0  0
  7  5  1  0  0  0  0
  8 59  2  0  0  0  0
  8 60  1  0  0  0  0
  9 26  1  0  0  0  0
  9 12  1  0  0  0  0
 10  9  1  0  0  0  0
 11  9  1  0  0  0  0
 13 16  1  0  0  0  0
 14 13  1  0  0  0  0
 15 13  1  0  0  0  0
 17 18  1  0  0  0  0
 17 36  1  0  0  0  0
 19 17  1  0  0  0  0
 20 17  1  0  0  0  0
 21 50  1  0  0  0  0
 21  6  1  0  0  0  0
 22 30  1  0  0  0  0
 22 13  1  0  0  0  0
 22 23  1  0  0  0  0
 24 44  1  0  0  0  0
 25 24  1  0  0  0  0
 26 65  1  0  0  0  0
 26  4  1  0  0  0  0
 27 26  1  0  0  0  0
 28 21  2  0  0  0  0
 29 28  1  0  0  0  0
 30 32  1  0  0  0  0
 31 30  1  0  0  0  0
 33 30  1  0  0  0  0
 34 57  1  0  0  0  0
 34 35  1  0  0  0  0
 36 37  1  0  0  0  0
 36  5  1  0  0  0  0
 38 39  1  0  0  0  0
 38 57  2  0  0  0  0
 40 43  1  0  0  0  0
 40 42  1  0  0  0  0
 41 40  1  0  0  0  0
 44 45  1  0  0  0  0
 44 50  2  0  0  0  0
 46 48  1  0  0  0  0
 46 49  1  0  0  0  0
 47 46  1  0  0  0  0
 50  8  1  0  0  0  0
 51 46  1  0  0  0  0
 51 40  1  0  0  0  0
 52 51  1  0  0  0  0
 53 36  1  0  0  0  0
 53 54  1  0  0  0  0
 55 53  1  0  0  0  0
 56 53  1  0  0  0  0
 57 58  1  0  0  0  0
 59 38  1  0  0  0  0
 60 34  2  0  0  0  0
 61 60  1  0  0  0  0
 62  7  1  0  0  0  0
 62 59  1  0  0  0  0
 63 62  1  0  0  0  0
 64 62  1  0  0  0  0
 65 66  1  0  0  0  0
 65 67  1  0  0  0  0
 68 65  1  0  0  0  0
 69 24  2  0  0  0  0
 69 28  1  0  0  0  0
 70 69  1  0  0  0  0
M  END
$$$$
