CSD_code = WIBDIV | q = 0 | S = 0 | Stoichiometry = C24H36Cl2I2O2P2Pt | MND = 4
 OpenBabel04212202113D

 69 70  0  0  0  0  0  0  0  0999 V2000
    6.5731    0.0004   16.5963 Pt  0  0  0  0  0  0  0  0  0  0  0  0
    6.8670   -0.1535   10.6307 I   0  0  0  0  0  0  0  0  0  0  0  0
    8.4398   -0.2945   15.2225 Cl  0  0  0  0  0  0  0  0  0  0  0  0
    5.1221   -0.0660   14.8199 P   0  0  0  0  0  4  0  0  0  0  0  0
    5.7000    0.4622   13.4013 O   0  0  0  0  0  0  0  0  0  0  0  0
    6.7159    1.3581   13.2368 C   0  0  0  0  0  0  0  0  0  0  0  0
    8.0981    3.1930   13.9355 C   0  0  0  0  0  0  0  0  0  0  0  0
    8.3641    3.9251   14.6825 H   0  0  0  0  0  0  0  0  0  0  0  0
    3.4746    0.7943   14.8937 C   0  0  0  0  0  0  0  0  0  0  0  0
    2.9361    0.3421   15.7305 H   0  0  0  0  0  0  0  0  0  0  0  0
    7.0615    2.3120   14.1836 C   0  0  0  0  0  0  0  0  0  0  0  0
    6.5151    2.3425   15.1198 H   0  0  0  0  0  0  0  0  0  0  0  0
    4.7335   -1.8036   14.3288 C   0  0  0  0  0  0  0  0  0  0  0  0
    4.2737   -1.7874   13.3347 H   0  0  0  0  0  0  0  0  0  0  0  0
    6.0479   -2.5742   14.2590 C   0  0  0  0  0  0  0  0  0  0  0  0
    6.7330   -2.1098   13.5523 H   0  0  0  0  0  0  0  0  0  0  0  0
    5.8755   -3.6020   13.9451 H   0  0  0  0  0  0  0  0  0  0  0  0
    6.5279   -2.5844   15.2401 H   0  0  0  0  0  0  0  0  0  0  0  0
    7.4204    1.3110   12.0410 C   0  0  0  0  0  0  0  0  0  0  0  0
    8.7923    3.1356   12.7393 C   0  0  0  0  0  0  0  0  0  0  0  0
    9.6029    3.8207   12.5464 H   0  0  0  0  0  0  0  0  0  0  0  0
    3.7962   -2.4197   15.3623 C   0  0  0  0  0  0  0  0  0  0  0  0
    2.7923   -2.0078   15.2907 H   0  0  0  0  0  0  0  0  0  0  0  0
    4.1715   -2.2273   16.3685 H   0  0  0  0  0  0  0  0  0  0  0  0
    3.7326   -3.4970   15.2182 H   0  0  0  0  0  0  0  0  0  0  0  0
    8.4516    2.1922   11.7852 C   0  0  0  0  0  0  0  0  0  0  0  0
    8.9908    2.1351   10.8524 H   0  0  0  0  0  0  0  0  0  0  0  0
    3.6848    2.2739   15.2031 C   0  0  0  0  0  0  0  0  0  0  0  0
    4.2452    2.3884   16.1305 H   0  0  0  0  0  0  0  0  0  0  0  0
    2.7240    2.7696   15.3301 H   0  0  0  0  0  0  0  0  0  0  0  0
    4.2179    2.7696   14.3921 H   0  0  0  0  0  0  0  0  0  0  0  0
    2.6932    0.6121   13.5978 C   0  0  0  0  0  0  0  0  0  0  0  0
    2.4090   -0.4250   13.4395 H   0  0  0  0  0  0  0  0  0  0  0  0
    3.2823    0.9436   12.7444 H   0  0  0  0  0  0  0  0  0  0  0  0
    1.7831    1.2087   13.6335 H   0  0  0  0  0  0  0  0  0  0  0  0
    6.2786    0.1534   22.5624 I   0  0  0  0  0  0  0  0  0  0  0  0
    4.7064    0.2939   17.9711 Cl  0  0  0  0  0  0  0  0  0  0  0  0
    8.0229    0.0661   18.3733 P   0  0  0  0  0  4  0  0  0  0  0  0
    7.4452   -0.4621   19.7920 O   0  0  0  0  0  0  0  0  0  0  0  0
    6.4294   -1.3580   19.9566 C   0  0  0  0  0  0  0  0  0  0  0  0
    5.0473   -3.1931   19.2580 C   0  0  0  0  0  0  0  0  0  0  0  0
    4.7812   -3.9251   18.5110 H   0  0  0  0  0  0  0  0  0  0  0  0
    9.6706   -0.7941   18.2997 C   0  0  0  0  0  0  0  0  0  0  0  0
   10.2092   -0.3420   17.4629 H   0  0  0  0  0  0  0  0  0  0  0  0
    6.0838   -2.3119   19.0098 C   0  0  0  0  0  0  0  0  0  0  0  0
    6.6302   -2.3424   18.0736 H   0  0  0  0  0  0  0  0  0  0  0  0
    8.4119    1.8036   18.8645 C   0  0  0  0  0  0  0  0  0  0  0  0
    8.8717    1.7874   19.8587 H   0  0  0  0  0  0  0  0  0  0  0  0
    7.0976    2.5742   18.9343 C   0  0  0  0  0  0  0  0  0  0  0  0
    6.4125    2.1099   19.6409 H   0  0  0  0  0  0  0  0  0  0  0  0
    7.2700    3.6020   19.2482 H   0  0  0  0  0  0  0  0  0  0  0  0
    6.6176    2.5844   17.9531 H   0  0  0  0  0  0  0  0  0  0  0  0
    5.7250   -1.3109   21.1524 C   0  0  0  0  0  0  0  0  0  0  0  0
    4.3533   -3.1358   20.4544 C   0  0  0  0  0  0  0  0  0  0  0  0
    3.5426   -3.8208   20.6472 H   0  0  0  0  0  0  0  0  0  0  0  0
    9.3493    2.4196   17.8311 C   0  0  0  0  0  0  0  0  0  0  0  0
   10.3532    2.0076   17.9027 H   0  0  0  0  0  0  0  0  0  0  0  0
    8.9740    2.2273   16.8249 H   0  0  0  0  0  0  0  0  0  0  0  0
    9.4130    3.4969   17.9752 H   0  0  0  0  0  0  0  0  0  0  0  0
    4.6939   -2.1923   21.4083 C   0  0  0  0  0  0  0  0  0  0  0  0
    4.1547   -2.1350   22.3411 H   0  0  0  0  0  0  0  0  0  0  0  0
    9.4605   -2.2737   17.9903 C   0  0  0  0  0  0  0  0  0  0  0  0
    8.9001   -2.3883   17.0629 H   0  0  0  0  0  0  0  0  0  0  0  0
   10.4213   -2.7695   17.8632 H   0  0  0  0  0  0  0  0  0  0  0  0
    8.9274   -2.7695   18.8012 H   0  0  0  0  0  0  0  0  0  0  0  0
   10.4521   -0.6121   19.5955 C   0  0  0  0  0  0  0  0  0  0  0  0
   10.7365    0.4250   19.7538 H   0  0  0  0  0  0  0  0  0  0  0  0
    9.8632   -0.9436   20.4490 H   0  0  0  0  0  0  0  0  0  0  0  0
   11.3623   -1.2086   19.5598 H   0  0  0  0  0  0  0  0  0  0  0  0
  1 37  1  0  0  0  0
  1 38  1  0  0  0  0
  2 19  1  0  0  0  0
  3  1  1  0  0  0  0
  4  9  1  0  0  0  0
  4  1  1  0  0  0  0
  5  4  1  0  0  0  0
  6  5  1  0  0  0  0
  6 11  1  0  0  0  0
  7 11  2  0  0  0  0
  7  8  1  0  0  0  0
  9 28  1  0  0  0  0
  9 10  1  0  0  0  0
 11 12  1  0  0  0  0
 13  4  1  0  0  0  0
 13 22  1  0  0  0  0
 14 13  1  0  0  0  0
 15 13  1  0  0  0  0
 15 18  1  0  0  0  0
 16 15  1  0  0  0  0
 17 15  1  0  0  0  0
 19  6  2  0  0  0  0
 20  7  1  0  0  0  0
 21 20  1  0  0  0  0
 22 24  1  0  0  0  0
 23 22  1  0  0  0  0
 25 22  1  0  0  0  0
 26 19  1  0  0  0  0
 26 20  2  0  0  0  0
 27 26  1  0  0  0  0
 28 30  1  0  0  0  0
 28 29  1  0  0  0  0
 31 28  1  0  0  0  0
 32 35  1  0  0  0  0
 32  9  1  0  0  0  0
 33 32  1  0  0  0  0
 34 32  1  0  0  0  0
 38 47  1  0  0  0  0
 38 39  1  0  0  0  0
 39 40  1  0  0  0  0
 40 53  1  0  0  0  0
 41 54  2  0  0  0  0
 42 41  1  0  0  0  0
 43 38  1  0  0  0  0
 43 66  1  0  0  0  0
 44 43  1  0  0  0  0
 45 41  1  0  0  0  0
 45 40  2  0  0  0  0
 46 45  1  0  0  0  0
 47 49  1  0  0  0  0
 47 48  1  0  0  0  0
 49 51  1  0  0  0  0
 49 50  1  0  0  0  0
 52 49  1  0  0  0  0
 53 60  2  0  0  0  0
 53 36  1  0  0  0  0
 54 55  1  0  0  0  0
 54 60  1  0  0  0  0
 56 57  1  0  0  0  0
 56 59  1  0  0  0  0
 56 47  1  0  0  0  0
 58 56  1  0  0  0  0
 60 61  1  0  0  0  0
 62 43  1  0  0  0  0
 62 65  1  0  0  0  0
 63 62  1  0  0  0  0
 64 62  1  0  0  0  0
 66 67  1  0  0  0  0
 66 68  1  0  0  0  0
 69 66  1  0  0  0  0
M  END
$$$$
