CSD_code = WIBHIB | q = 0 | S = 0 | Stoichiometry = C14H18Cl2Ti | MND = 12
 OpenBabel04212202113D

 35 35  0  0  1  0  0  0  0  0999 V2000
    2.1346    2.2584    2.8264 Ti  0  0  0  0  0  0  0  0  0  0  0  0
    3.9936    3.2920    3.7158 C   0  0  2  0  0  0  0  0  0  0  0  0
    5.0264    3.1293    3.4367 H   0  0  0  0  0  0  0  0  0  0  0  0
    3.3193    2.6458    4.7804 C   0  0  2  0  0  3  0  0  0  0  0  0
    2.0858    3.3284    4.9845 C   0  0  0  0  0  0  0  0  0  0  0  0
    1.9845    4.3526    4.0142 C   0  0  0  0  0  0  0  0  0  0  0  0
    3.1517    4.3084    3.2000 C   0  0  1  0  0  3  0  0  0  0  0  0
    3.8636    1.5502    5.6473 C   0  0  0  0  0  0  0  0  0  0  0  0
    3.1925    0.6878    5.6430 H   0  0  0  0  0  0  0  0  0  0  0  0
    3.9601    1.8970    6.6776 H   0  0  0  0  0  0  0  0  0  0  0  0
    4.8461    1.2352    5.2986 H   0  0  0  0  0  0  0  0  0  0  0  0
    1.1426    3.1222    6.1275 C   0  0  0  0  0  0  0  0  0  0  0  0
    1.3342    3.8728    6.8980 H   0  0  0  0  0  0  0  0  0  0  0  0
    1.2692    2.1338    6.5629 H   0  0  0  0  0  0  0  0  0  0  0  0
    0.1081    3.2252    5.8014 H   0  0  0  0  0  0  0  0  0  0  0  0
    0.9265    5.4093    3.9718 C   0  0  0  0  0  0  0  0  0  0  0  0
   -0.0425    5.0012    4.2546 H   0  0  0  0  0  0  0  0  0  0  0  0
    0.8429    5.8383    2.9758 H   0  0  0  0  0  0  0  0  0  0  0  0
    1.1810    6.2061    4.6751 H   0  0  0  0  0  0  0  0  0  0  0  0
    3.4849    5.2839    2.1112 C   0  0  0  0  0  0  0  0  0  0  0  0
    4.4534    5.0555    1.6691 H   0  0  0  0  0  0  0  0  0  0  0  0
    3.5227    6.2978    2.5132 H   0  0  0  0  0  0  0  0  0  0  0  0
    2.7230    5.2607    1.3281 H   0  0  0  0  0  0  0  0  0  0  0  0
    3.9353    0.8643    2.1432 C   0  0  0  0  0  0  0  0  0  0  0  0
    4.8184    0.6075    2.7131 H   0  0  0  0  0  0  0  0  0  0  0  0
    3.8309    1.9138    1.1969 C   0  0  0  0  0  0  0  0  0  0  0  0
    4.6212    2.5971    0.9167 H   0  0  0  0  0  0  0  0  0  0  0  0
    2.5943    1.7883    0.5445 C   0  0  0  0  0  0  0  0  0  0  0  0
    2.2484    2.3887   -0.2868 H   0  0  0  0  0  0  0  0  0  0  0  0
    1.9237    0.6722    1.0914 C   0  0  0  0  0  0  0  0  0  0  0  0
    0.9720    0.2771    0.7573 H   0  0  0  0  0  0  0  0  0  0  0  0
    2.7655    0.0916    2.0637 C   0  0  0  0  0  3  0  0  0  0  0  0
    2.5738   -0.8302    2.5970 H   0  0  0  0  0  0  0  0  0  0  0  0
    0.4078    3.2673    1.8363 Cl  0  0  0  0  0  0  0  0  0  0  0  0
    0.7404    0.9489    3.9777 Cl  0  0  0  0  0  0  0  0  0  0  0  0
  1  2  1  0  0  0  0
  1 35  1  0  0  0  0
  2  3  1  6  0  0  0
  2  4  1  0  0  0  0
  4  5  1  0  0  0  0
  4  8  1  1  0  0  0
  5 12  1  0  0  0  0
  6  5  2  0  0  0  0
  7 20  1  1  0  0  0
  7  2  1  0  0  0  0
  7  6  1  0  0  0  0
  8 10  1  0  0  0  0
  9  8  1  0  0  0  0
 11  8  1  0  0  0  0
 12 14  1  0  0  0  0
 12 13  1  0  0  0  0
 15 12  1  0  0  0  0
 16  6  1  0  0  0  0
 16 17  1  0  0  0  0
 16 19  1  0  0  0  0
 18 16  1  0  0  0  0
 20 22  1  0  0  0  0
 21 20  1  0  0  0  0
 23 20  1  0  0  0  0
 24 25  1  0  0  0  0
 26 24  2  0  0  0  0
 27 26  1  0  0  0  0
 28 30  2  0  0  0  0
 28 26  1  0  0  0  0
 29 28  1  0  0  0  0
 30 32  1  0  0  0  0
 31 30  1  0  0  0  0
 32 24  1  0  0  0  0
 32 33  1  0  0  0  0
 34  1  1  0  0  0  0
M  END
$$$$
