CSD_code = WIBNIE | q = 0 | S = 0 | Stoichiometry = C20H20Cl2N4Ru | MND = 6
 OpenBabel04212202113D

 47 50  0  0  0  0  0  0  0  0999 V2000
    0.0000    3.9253    2.1234 Ru  0  0  0  0  0  0  0  0  0  0  0  0
    1.6918    5.6171    2.1235 Cl  0  0  0  0  0  0  0  0  0  0  0  0
    1.0023    2.9209    3.5419 N   0  0  0  0  0  0  0  0  0  0  0  0
    0.3652    2.3524    4.5734 C   0  0  0  0  0  3  0  0  0  0  0  0
    1.0169    1.6438    5.5644 C   0  0  0  0  0  0  0  0  0  0  0  0
    2.3962    1.5108    5.5093 C   0  0  0  0  0  0  0  0  0  0  0  0
    3.0604    2.1026    4.4454 C   0  0  0  0  0  0  0  0  0  0  0  0
    2.3338    2.7885    3.4912 C   0  0  0  0  0  0  0  0  0  0  0  0
   -0.7140    2.4473    4.5880 H   0  0  0  0  0  0  0  0  0  0  0  0
    0.4460    1.2025    6.3663 H   0  0  0  0  0  0  0  0  0  0  0  0
    2.9346    0.9654    6.2688 H   0  0  0  0  0  0  0  0  0  0  0  0
    4.1330    2.0366    4.3519 H   0  0  0  0  0  0  0  0  0  0  0  0
    2.8380    3.2765    2.6655 H   0  0  0  0  0  0  0  0  0  0  0  0
   -1.6918    2.2335    2.1234 Cl  0  0  0  0  0  0  0  0  0  0  0  0
   -1.0023    4.9296    3.5418 N   0  0  0  0  0  0  0  0  0  0  0  0
    1.0044    2.9230    0.7049 N   0  0  0  0  0  0  0  0  0  0  0  0
   -1.0044    4.9275    0.7049 N   0  0  0  0  0  0  0  0  0  0  0  0
   -0.3652    5.4981    4.5734 C   0  0  0  0  0  3  0  0  0  0  0  0
   -2.3338    5.0620    3.4912 C   0  0  0  0  0  0  0  0  0  0  0  0
    1.5729    3.5600   -0.3266 C   0  0  0  0  0  3  0  0  0  0  0  0
    1.1368    1.5915    0.7556 C   0  0  0  0  0  0  0  0  0  0  0  0
   -1.5729    4.2905   -0.3266 C   0  0  0  0  0  3  0  0  0  0  0  0
   -1.1368    6.2590    0.7556 C   0  0  0  0  0  0  0  0  0  0  0  0
   -1.0169    6.2067    5.5644 C   0  0  0  0  0  0  0  0  0  0  0  0
    0.7140    5.4032    4.5880 H   0  0  0  0  0  0  0  0  0  0  0  0
   -3.0604    5.7479    4.4453 C   0  0  0  0  0  0  0  0  0  0  0  0
   -2.8380    4.5740    2.6655 H   0  0  0  0  0  0  0  0  0  0  0  0
    2.2815    2.9084   -1.3176 C   0  0  0  0  0  0  0  0  0  0  0  0
    1.4780    4.6393   -0.3412 H   0  0  0  0  0  0  0  0  0  0  0  0
    1.8227    0.8648   -0.1986 C   0  0  0  0  0  0  0  0  0  0  0  0
    0.6488    1.0872    1.5812 H   0  0  0  0  0  0  0  0  0  0  0  0
   -2.2815    4.9421   -1.3176 C   0  0  0  0  0  0  0  0  0  0  0  0
   -1.4780    3.2112   -0.3412 H   0  0  0  0  0  0  0  0  0  0  0  0
   -1.8227    6.9857   -0.1986 C   0  0  0  0  0  0  0  0  0  0  0  0
   -0.6488    6.7633    1.5812 H   0  0  0  0  0  0  0  0  0  0  0  0
   -2.3962    6.3397    5.5093 C   0  0  0  0  0  0  0  0  0  0  0  0
   -0.4460    6.6479    6.3663 H   0  0  0  0  0  0  0  0  0  0  0  0
   -4.1330    5.8139    4.3519 H   0  0  0  0  0  0  0  0  0  0  0  0
    2.4144    1.5291   -1.2625 C   0  0  0  0  0  0  0  0  0  0  0  0
    2.7227    3.4792   -2.1195 H   0  0  0  0  0  0  0  0  0  0  0  0
    1.8887   -0.2078   -0.1052 H   0  0  0  0  0  0  0  0  0  0  0  0
   -2.4144    6.3214   -1.2625 C   0  0  0  0  0  0  0  0  0  0  0  0
   -2.7227    4.3713   -2.1195 H   0  0  0  0  0  0  0  0  0  0  0  0
   -1.8887    8.0583   -0.1052 H   0  0  0  0  0  0  0  0  0  0  0  0
   -2.9346    6.8851    6.2688 H   0  0  0  0  0  0  0  0  0  0  0  0
    2.9599    0.9907   -2.0221 H   0  0  0  0  0  0  0  0  0  0  0  0
   -2.9599    6.8598   -2.0221 H   0  0  0  0  0  0  0  0  0  0  0  0
  1 14  1  0  0  0  0
  1  2  1  0  0  0  0
  1 15  1  0  0  0  0
  1  3  1  0  0  0  0
  3  4  1  0  0  0  0
  4  9  1  0  0  0  0
  4  5  1  0  0  0  0
  5 10  1  0  0  0  0
  6  5  2  0  0  0  0
  6 11  1  0  0  0  0
  7  6  1  0  0  0  0
  8  3  1  0  0  0  0
  8  7  2  0  0  0  0
 12  7  1  0  0  0  0
 13  8  1  0  0  0  0
 15 18  1  0  0  0  0
 16 21  1  0  0  0  0
 16  1  1  0  0  0  0
 17 23  1  0  0  0  0
 17  1  1  0  0  0  0
 18 25  1  0  0  0  0
 18 24  1  0  0  0  0
 19 15  1  0  0  0  0
 19 26  2  0  0  0  0
 20 16  1  0  0  0  0
 21 31  1  0  0  0  0
 22 17  1  0  0  0  0
 23 35  1  0  0  0  0
 24 37  1  0  0  0  0
 26 36  1  0  0  0  0
 27 19  1  0  0  0  0
 28 39  2  0  0  0  0
 28 20  1  0  0  0  0
 29 20  1  0  0  0  0
 30 41  1  0  0  0  0
 30 21  2  0  0  0  0
 32 42  2  0  0  0  0
 32 22  1  0  0  0  0
 33 22  1  0  0  0  0
 34 44  1  0  0  0  0
 34 23  2  0  0  0  0
 36 24  2  0  0  0  0
 36 45  1  0  0  0  0
 38 26  1  0  0  0  0
 39 30  1  0  0  0  0
 40 28  1  0  0  0  0
 42 34  1  0  0  0  0
 43 32  1  0  0  0  0
 46 39  1  0  0  0  0
 47 42  1  0  0  0  0
M  END
$$$$
