CSD_code = WIBTUW | q = 1 | S = 0 | Stoichiometry = C6H18ClN4Zn(1+) | MND = 5
 OpenBabel04212202113D

 30 32  0  0  0  0  0  0  0  0999 V2000
   12.3312   -0.2124   10.0749 Zn  0  0  0  0  0  0  0  0  0  0  0  0
   12.7531    1.6647   11.0127 Cl  0  0  0  0  0  0  0  0  0  0  0  0
   11.8838   -2.1994    9.0788 N   0  0  0  0  0  4  0  0  0  0  0  0
   11.9076    0.4422    8.0387 N   0  0  0  0  0  4  0  0  0  0  0  0
   10.6309   -0.8858   11.2622 N   0  0  0  0  0  4  0  0  0  0  0  0
   14.2154   -1.2605   10.4000 N   0  0  0  0  0  4  0  0  0  0  0  0
   12.0527   -0.6942    7.1243 C   0  0  0  0  0  0  0  0  0  0  0  0
   11.3670   -1.9151    7.7375 C   0  0  0  0  0  0  0  0  0  0  0  0
   10.8850   -2.8904    9.8984 C   0  0  0  0  0  0  0  0  0  0  0  0
    9.8908   -1.9046   10.5123 C   0  0  0  0  0  0  0  0  0  0  0  0
   13.1381   -2.9543    9.0176 C   0  0  0  0  0  0  0  0  0  0  0  0
   13.9988   -2.7030   10.2558 C   0  0  0  0  0  0  0  0  0  0  0  0
   10.9639    0.8188    7.9675 H   0  0  0  0  0  0  0  0  0  0  0  0
   12.5272    1.2026    7.7674 H   0  0  0  0  0  0  0  0  0  0  0  0
   10.9431   -1.2735   12.1510 H   0  0  0  0  0  0  0  0  0  0  0  0
   10.0236   -0.1048   11.5007 H   0  0  0  0  0  0  0  0  0  0  0  0
   14.9181   -0.9512    9.7304 H   0  0  0  0  0  0  0  0  0  0  0  0
   14.5975   -1.0454   11.3183 H   0  0  0  0  0  0  0  0  0  0  0  0
   13.1180   -0.8852    6.9831 H   0  0  0  0  0  0  0  0  0  0  0  0
   11.6105   -0.4951    6.1425 H   0  0  0  0  0  0  0  0  0  0  0  0
   10.3012   -1.6996    7.8191 H   0  0  0  0  0  0  0  0  0  0  0  0
   11.4892   -2.7803    7.0759 H   0  0  0  0  0  0  0  0  0  0  0  0
   10.3458   -3.6431    9.3120 H   0  0  0  0  0  0  0  0  0  0  0  0
   11.4015   -3.4016   10.7113 H   0  0  0  0  0  0  0  0  0  0  0  0
    9.3183   -1.4030    9.7300 H   0  0  0  0  0  0  0  0  0  0  0  0
    9.1887   -2.4575   11.1451 H   0  0  0  0  0  0  0  0  0  0  0  0
   12.9483   -4.0282    8.9089 H   0  0  0  0  0  0  0  0  0  0  0  0
   13.6974   -2.6202    8.1432 H   0  0  0  0  0  0  0  0  0  0  0  0
   14.9390   -3.2551   10.1540 H   0  0  0  0  0  0  0  0  0  0  0  0
   13.4914   -3.0626   11.1528 H   0  0  0  0  0  0  0  0  0  0  0  0
  1  6  1  0  0  0  0
  1  2  1  0  0  0  0
  1  5  1  0  0  0  0
  3  9  1  0  0  0  0
  3  1  1  0  0  0  0
  4  1  1  0  0  0  0
  5 16  1  0  0  0  0
  5 15  1  0  0  0  0
  6 18  1  0  0  0  0
  7  8  1  0  0  0  0
  7  4  1  0  0  0  0
  8 21  1  0  0  0  0
  8  3  1  0  0  0  0
  9 10  1  0  0  0  0
  9 24  1  0  0  0  0
 10 26  1  0  0  0  0
 10  5  1  0  0  0  0
 11  3  1  0  0  0  0
 11 12  1  0  0  0  0
 12  6  1  0  0  0  0
 12 30  1  0  0  0  0
 13  4  1  0  0  0  0
 14  4  1  0  0  0  0
 17  6  1  0  0  0  0
 19  7  1  0  0  0  0
 20  7  1  0  0  0  0
 22  8  1  0  0  0  0
 23  9  1  0  0  0  0
 25 10  1  0  0  0  0
 27 11  1  0  0  0  0
 28 11  1  0  0  0  0
 29 12  1  0  0  0  0
M  END
$$$$
